mol_3_1_07
anSeeSAR  04022021533D 1   1.00000     0.00000     0
SeeSAR 9.2 andre
 51 51  0  0  0  0            999 V2000
   12.9198   -1.0561   21.9723 C   0  0  0  0  0  0  0  0  0  0  0  0
   11.9930   -0.7140   22.8841 C   0  0  0  0  0  0  0  0  0  0  0  0
   12.4145   -0.2403   24.2549 C   0  0  0  0  0  0  0  0  0  0  0  0
   13.8034   -0.7555   24.6175 C   0  0  0  0  0  0  0  0  0  0  0  0
   10.5263   -0.8907   22.5846 C   0  0  0  0  0  0  0  0  0  0  0  0
    9.8007    0.2159   23.1186 O   0  0  0  0  0  0  0  0  0  0  0  0
    9.3148    1.2807   22.3500 C   0  0  0  0  0  0  0  0  0  0  0  0
    9.9188    1.6553   21.3059 O   0  0  0  0  0  0  0  0  0  0  0  0
    8.0814    2.0066   22.8039 C   0  0  2  0  0  0  0  0  0  0  0  0
    6.8234    1.1525   22.5666 C   0  0  0  0  0  0  0  0  0  0  0  0
    6.5616    0.9588   21.0817 C   0  0  0  0  0  0  0  0  0  0  0  0
    7.3223    0.0416   20.3650 C   0  0  0  0  0  0  0  0  0  0  0  0
    7.0897   -0.1435   19.0059 C   0  0  0  0  0  0  0  0  0  0  0  0
    6.0923    0.5977   18.3812 C   0  0  0  0  0  0  0  0  0  0  0  0
    5.8578    0.4266   17.0629 O   0  0  0  0  0  0  0  0  0  0  0  0
    5.3272    1.5181   19.0901 C   0  0  0  0  0  0  0  0  0  0  0  0
    5.5667    1.6957   20.4487 C   0  0  0  0  0  0  0  0  0  0  0  0
    7.9732    3.2758   22.0793 N   0  0  0  0  0  0  0  0  0  0  0  0
    6.9699    4.2603   22.3713 C   0  0  0  0  0  0  0  0  0  0  0  0
    6.1247    4.0622   23.2855 O   0  0  0  0  0  0  0  0  0  0  0  0
    6.9379    5.5524   21.6091 C   0  0  0  0  0  0  0  0  0  0  0  0
    7.3347    6.7469   22.5020 C   0  0  0  0  0  0  0  0  0  0  0  0
    8.4349    6.3289   23.4860 C   0  0  0  0  0  0  0  0  0  0  0  0
    6.1264    7.3057   23.2699 C   0  0  0  0  0  0  0  0  0  0  0  0
   12.6374   -1.3694   21.0656 H   0  0  0  0  0  0  0  0  0  0  0  0
   13.8916   -0.9973   22.2007 H   0  0  0  0  0  0  0  0  0  0  0  0
   11.7570   -0.5731   24.9308 H   0  0  0  0  0  0  0  0  0  0  0  0
   12.4254    0.7596   24.2646 H   0  0  0  0  0  0  0  0  0  0  0  0
   14.0539   -0.4261   25.5279 H   0  0  0  0  0  0  0  0  0  0  0  0
   13.7993   -1.7555   24.6144 H   0  0  0  0  0  0  0  0  0  0  0  0
   14.4677   -0.4228   23.9482 H   0  0  0  0  0  0  0  0  0  0  0  0
   10.1994   -1.7380   23.0031 H   0  0  0  0  0  0  0  0  0  0  0  0
   10.3901   -0.9335   21.5949 H   0  0  0  0  0  0  0  0  0  0  0  0
    8.1615    2.1989   23.7820 H   0  0  0  0  0  0  0  0  0  0  0  0
    6.0360    1.6100   22.9796 H   0  0  0  0  0  0  0  0  0  0  0  0
    6.9513    0.2577   22.9946 H   0  0  0  0  0  0  0  0  0  0  0  0
    8.0364   -0.4848   20.8264 H   0  0  0  0  0  0  0  0  0  0  0  0
    7.6330   -0.8016   18.4845 H   0  0  0  0  0  0  0  0  0  0  0  0
    6.6126    0.4829   16.4093 H   0  0  0  0  0  0  0  0  0  0  0  0
    4.6138    2.0455   18.6287 H   0  0  0  0  0  0  0  0  0  0  0  0
    5.0232    2.3534   20.9703 H   0  0  0  0  0  0  0  0  0  0  0  0
    8.6283    3.4647   21.3477 H   0  0  0  0  0  0  0  0  0  0  0  0
    6.0125    5.7009   21.2603 H   0  0  0  0  0  0  0  0  0  0  0  0
    7.5775    5.4932   20.8426 H   0  0  0  0  0  0  0  0  0  0  0  0
    7.6965    7.4713   21.9153 H   0  0  0  0  0  0  0  0  0  0  0  0
    8.6839    7.1098   24.0589 H   0  0  0  0  0  0  0  0  0  0  0  0
    8.1000    5.5848   24.0640 H   0  0  0  0  0  0  0  0  0  0  0  0
    9.2379    6.0198   22.9765 H   0  0  0  0  0  0  0  0  0  0  0  0
    6.4189    8.0760   23.8366 H   0  0  0  0  0  0  0  0  0  0  0  0
    5.4323    7.6147   22.6198 H   0  0  0  0  0  0  0  0  0  0  0  0
    5.7420    6.5900   23.8529 H   0  0  0  0  0  0  0  0  0  0  0  0
  1  2  2  0  0  0  0
  2  3  1  0  0  0  0
  3  4  1  0  0  0  0
  2  5  1  0  0  0  0
  5  6  1  0  0  0  0
  6  7  1  0  0  0  0
  7  8  2  0  0  0  0
  7  9  1  0  0  0  0
  9 10  1  0  0  0  0
 10 11  1  0  0  0  0
 11 12  2  0  0  0  0
 12 13  1  0  0  0  0
 13 14  2  0  0  0  0
 14 15  1  0  0  0  0
 14 16  1  0  0  0  0
 16 17  2  0  0  0  0
  9 18  1  0  0  0  0
 18 19  1  0  0  0  0
 19 20  2  0  0  0  0
 19 21  1  0  0  0  0
 21 22  1  0  0  0  0
 22 23  1  0  0  0  0
 22 24  1  0  0  0  0
 17 11  1  0  0  0  0
  1 25  1  0  0  0  0
  1 26  1  0  0  0  0
  3 27  1  0  0  0  0
  3 28  1  0  0  0  0
  4 29  1  0  0  0  0
  4 30  1  0  0  0  0
  4 31  1  0  0  0  0
  5 32  1  0  0  0  0
  5 33  1  0  0  0  0
  9 34  1  0  0  0  0
 10 35  1  0  0  0  0
 10 36  1  0  0  0  0
 12 37  1  0  0  0  0
 13 38  1  0  0  0  0
 15 39  1  0  0  0  0
 16 40  1  0  0  0  0
 17 41  1  0  0  0  0
 18 42  1  0  0  0  0
 21 43  1  0  0  0  0
 21 44  1  0  0  0  0
 22 45  1  0  0  0  0
 23 46  1  0  0  0  0
 23 47  1  0  0  0  0
 23 48  1  0  0  0  0
 24 49  1  0  0  0  0
 24 50  1  0  0  0  0
 24 51  1  0  0  0  0
M  END
> <BIOSOLVEIT.HYDE_ESTIMATED_AFFINITY_LOWER_BOUNDARY [nM]>
5.541804

> <BIOSOLVEIT.HYDE_ESTIMATED_AFFINITY_UPPER_BOUNDARY [nM]>
550.610971

> <BIOSOLVEIT.HYDE_LIGAND_EFFICIENCY range: ++, +, 0, -, -->
+

> <BIOSOLVEIT.HYDE_LIGAND_LIPOPHILIC_EFFICIENCY range: ++, +, 0, -, -->
0

> <BIOSOLVEIT.INTER_CLASH range: red, yellow, green>
green

> <BIOSOLVEIT.INTRA_CLASH range: red, yellow, green>
green

> <BIOSOLVEIT.LOGP>
2.975

> <BIOSOLVEIT.MOLECULAR WEIGHT>
333.425

> <BIOSOLVEIT.MOLECULE_CHECKSUM>
LTQxLjQyNzM7MS43MjYxNA==

> <BIOSOLVEIT.TORSION_QUALITY range: red, yellow, green, not rotatable>
yellow

> <BIOSOLVEIT.TPSA>
75.63

> <BIOSOLVEIT.SEESAR_FAVORITE>
favorite

$$$$
mol_51_1_03
anSeeSAR  04022021533D 1   1.00000     0.00000     0
SeeSAR 9.2 andre
 40 40  0  0  0  0            999 V2000
    9.0538    3.7885   24.6874 C   0  0  0  0  0  0  0  0  0  0  0  0
    8.0434    2.8742   25.3023 C   0  0  0  0  0  0  0  0  0  0  0  0
    7.6275    3.1150   26.4678 O   0  0  0  0  0  0  0  0  0  0  0  0
    7.5528    1.7359   24.5779 N   0  0  0  0  0  0  0  0  0  0  0  0
    7.4557    1.7286   23.1146 C   0  0  2  0  0  0  0  0  0  0  0  0
    6.3458    0.7611   22.6507 C   0  0  0  0  0  0  0  0  0  0  0  0
    6.1909    0.7527   21.1469 C   0  0  0  0  0  0  0  0  0  0  0  0
    5.3029    1.6416   20.5180 C   0  0  0  0  0  0  0  0  0  0  0  0
    5.2026    1.6707   19.1237 C   0  0  0  0  0  0  0  0  0  0  0  0
    5.9801    0.8091   18.3438 C   0  0  0  0  0  0  0  0  0  0  0  0
    5.8802    0.8586   16.9553 O   0  0  0  0  0  0  0  0  0  0  0  0
    6.8524   -0.0939   18.9652 C   0  0  0  0  0  0  0  0  0  0  0  0
    6.9557   -0.1244   20.3591 C   0  0  0  0  0  0  0  0  0  0  0  0
    8.7823    1.3386   22.5141 C   0  0  0  0  0  0  0  0  0  0  0  0
    9.1358    1.8187   21.4031 O   0  0  0  0  0  0  0  0  0  0  0  0
    9.6676    0.4709   23.2303 N   0  0  0  0  0  0  0  0  0  0  0  0
   10.8913    0.1536   22.7297 O   0  0  0  0  0  0  0  0  0  0  0  0
   11.5501   -0.5882   23.7299 C   0  0  0  0  0  0  0  0  0  0  0  0
   13.0307   -0.2041   23.7655 C   0  0  0  0  0  0  0  0  0  0  0  0
   13.5220   -0.3844   25.0478 F   0  0  0  0  0  0  0  0  0  0  0  0
   13.1623    1.1307   23.4211 F   0  0  0  0  0  0  0  0  0  0  0  0
   13.8452   -1.0557   22.7873 C   0  0  0  0  0  0  0  0  0  0  0  0
   14.0708   -2.3066   23.3329 F   0  0  0  0  0  0  0  0  0  0  0  0
   13.1628   -1.2042   21.5923 F   0  0  0  0  0  0  0  0  0  0  0  0
    9.2804    3.4653   23.7687 H   0  0  0  0  0  0  0  0  0  0  0  0
    8.6766    4.7130   24.6320 H   0  0  0  0  0  0  0  0  0  0  0  0
    9.8802    3.7989   25.2504 H   0  0  0  0  0  0  0  0  0  0  0  0
    7.2685    0.9232   25.0866 H   0  0  0  0  0  0  0  0  0  0  0  0
    7.2244    2.6512   22.8056 H   0  0  0  0  0  0  0  0  0  0  0  0
    5.4793    1.0432   23.0626 H   0  0  0  0  0  0  0  0  0  0  0  0
    6.5750   -0.1630   22.9565 H   0  0  0  0  0  0  0  0  0  0  0  0
    4.7398    2.2565   21.0703 H   0  0  0  0  0  0  0  0  0  0  0  0
    4.5725    2.3099   18.6827 H   0  0  0  0  0  0  0  0  0  0  0  0
    5.5053    1.6716   16.5097 H   0  0  0  0  0  0  0  0  0  0  0  0
    7.4024   -0.7182   18.4105 H   0  0  0  0  0  0  0  0  0  0  0  0
    7.5771   -0.7736   20.7977 H   0  0  0  0  0  0  0  0  0  0  0  0
    9.3820    0.0930   24.1110 H   0  0  0  0  0  0  0  0  0  0  0  0
   11.4646   -1.5644   23.5305 H   0  0  0  0  0  0  0  0  0  0  0  0
   11.1342   -0.3917   24.6178 H   0  0  0  0  0  0  0  0  0  0  0  0
   14.7227   -0.6090   22.6126 H   0  0  0  0  0  0  0  0  0  0  0  0
  1  2  1  0  0  0  0
  2  3  2  0  0  0  0
  2  4  1  0  0  0  0
  4  5  1  0  0  0  0
  5  6  1  0  0  0  0
  6  7  1  0  0  0  0
  7  8  2  0  0  0  0
  8  9  1  0  0  0  0
  9 10  2  0  0  0  0
 10 11  1  0  0  0  0
 10 12  1  0  0  0  0
 12 13  2  0  0  0  0
  5 14  1  0  0  0  0
 14 15  2  0  0  0  0
 14 16  1  0  0  0  0
 16 17  1  0  0  0  0
 17 18  1  0  0  0  0
 18 19  1  0  0  0  0
 19 20  1  0  0  0  0
 19 21  1  0  0  0  0
 19 22  1  0  0  0  0
 22 23  1  0  0  0  0
 22 24  1  0  0  0  0
 13  7  1  0  0  0  0
  1 25  1  0  0  0  0
  1 26  1  0  0  0  0
  1 27  1  0  0  0  0
  4 28  1  0  0  0  0
  5 29  1  0  0  0  0
  6 30  1  0  0  0  0
  6 31  1  0  0  0  0
  8 32  1  0  0  0  0
  9 33  1  0  0  0  0
 11 34  1  0  0  0  0
 12 35  1  0  0  0  0
 13 36  1  0  0  0  0
 16 37  1  0  0  0  0
 18 38  1  0  0  0  0
 18 39  1  0  0  0  0
 22 40  1  0  0  0  0
M  END
> <BIOSOLVEIT.HYDE_ESTIMATED_AFFINITY_LOWER_BOUNDARY [nM]>
90.789425

> <BIOSOLVEIT.HYDE_ESTIMATED_AFFINITY_UPPER_BOUNDARY [nM]>
9020.466167

> <BIOSOLVEIT.HYDE_LIGAND_EFFICIENCY range: ++, +, 0, -, -->
0

> <BIOSOLVEIT.HYDE_LIGAND_LIPOPHILIC_EFFICIENCY range: ++, +, 0, -, -->
0

> <BIOSOLVEIT.INTER_CLASH range: red, yellow, green>
green

> <BIOSOLVEIT.INTRA_CLASH range: red, yellow, green>
green

> <BIOSOLVEIT.LOGP>
1.3876

> <BIOSOLVEIT.MOLECULAR WEIGHT>
352.282

> <BIOSOLVEIT.MOLECULE_CHECKSUM>
LTM0LjQ5NTY7MS40MzczMg==

> <BIOSOLVEIT.TORSION_QUALITY range: red, yellow, green, not rotatable>
green

> <BIOSOLVEIT.TPSA>
87.66

> <BIOSOLVEIT.SEESAR_FAVORITE>
favorite

$$$$
mol_74_1_07
anSeeSAR  04022021533D 1   1.00000     0.00000     0
SeeSAR 9.2 andre
 39 40  0  0  0  0            999 V2000
    7.5407    5.9126   22.2622 C   0  0  0  0  0  0  0  0  0  0  0  0
    7.1690    4.4948   22.5550 C   0  0  0  0  0  0  0  0  0  0  0  0
    6.0720    4.2569   23.1287 O   0  0  0  0  0  0  0  0  0  0  0  0
    8.0464    3.4200   22.1827 N   0  0  0  0  0  0  0  0  0  0  0  0
    8.1170    2.1568   22.9260 C   0  0  1  0  0  0  0  0  0  0  0  0
    6.8336    1.3387   22.6960 C   0  0  0  0  0  0  0  0  0  0  0  0
    6.5661    1.1370   21.2257 C   0  0  0  0  0  0  0  0  0  0  0  0
    5.5747    1.8923   20.5777 C   0  0  0  0  0  0  0  0  0  0  0  0
    5.3387    1.7216   19.2105 C   0  0  0  0  0  0  0  0  0  0  0  0
    6.0891    0.7925   18.4774 C   0  0  0  0  0  0  0  0  0  0  0  0
    5.8644    0.6152   17.1142 O   0  0  0  0  0  0  0  0  0  0  0  0
    7.0738    0.0348   19.1194 C   0  0  0  0  0  0  0  0  0  0  0  0
    7.3115    0.2031   20.4869 C   0  0  0  0  0  0  0  0  0  0  0  0
    9.3257    1.3718   22.4733 C   0  0  0  0  0  0  0  0  0  0  0  0
    9.8499    1.6425   21.3578 O   0  0  0  0  0  0  0  0  0  0  0  0
    9.8948    0.3304   23.2926 N   0  0  0  0  0  0  0  0  0  0  0  0
    9.0560   -0.3927   24.2536 C   0  0  0  0  0  0  0  0  0  0  0  0
   11.3089    0.0560   23.2252 C   0  0  0  0  0  0  0  0  0  0  0  0
   12.3016    0.9180   23.3018 N   0  0  0  0  0  0  0  0  0  0  0  0
   13.5624    0.3893   23.2057 C   0  0  0  0  0  0  0  0  0  0  0  0
   13.6319   -0.9642   23.0416 C   0  0  0  0  0  0  0  0  0  0  0  0
   12.0080   -1.4784   23.0255 S   0  0  0  0  0  0  0  0  0  0  0  0
    8.4317    5.9368   21.8087 H   0  0  0  0  0  0  0  0  0  0  0  0
    6.8512    6.3214   21.6644 H   0  0  0  0  0  0  0  0  0  0  0  0
    7.5881    6.4282   23.1177 H   0  0  0  0  0  0  0  0  0  0  0  0
    8.6344    3.5378   21.3824 H   0  0  0  0  0  0  0  0  0  0  0  0
    8.2053    2.3572   23.9017 H   0  0  0  0  0  0  0  0  0  0  0  0
    6.0605    1.8246   23.1038 H   0  0  0  0  0  0  0  0  0  0  0  0
    6.9343    0.4454   23.1340 H   0  0  0  0  0  0  0  0  0  0  0  0
    5.0353    2.5553   21.0969 H   0  0  0  0  0  0  0  0  0  0  0  0
    4.6327    2.2637   18.7546 H   0  0  0  0  0  0  0  0  0  0  0  0
    5.3212    1.2835   16.6059 H   0  0  0  0  0  0  0  0  0  0  0  0
    7.6098   -0.6296   18.5986 H   0  0  0  0  0  0  0  0  0  0  0  0
    8.0149   -0.3437   20.9410 H   0  0  0  0  0  0  0  0  0  0  0  0
    9.6093   -1.0743   24.7324 H   0  0  0  0  0  0  0  0  0  0  0  0
    8.6757    0.2528   24.9160 H   0  0  0  0  0  0  0  0  0  0  0  0
    8.3108   -0.8497   23.7680 H   0  0  0  0  0  0  0  0  0  0  0  0
   14.3819    0.9604   23.2529 H   0  0  0  0  0  0  0  0  0  0  0  0
   14.4528   -1.5279   22.9510 H   0  0  0  0  0  0  0  0  0  0  0  0
  1  2  1  0  0  0  0
  2  3  2  0  0  0  0
  2  4  1  0  0  0  0
  4  5  1  0  0  0  0
  5  6  1  0  0  0  0
  6  7  1  0  0  0  0
  7  8  2  0  0  0  0
  8  9  1  0  0  0  0
  9 10  2  0  0  0  0
 10 11  1  0  0  0  0
 10 12  1  0  0  0  0
 12 13  2  0  0  0  0
  5 14  1  0  0  0  0
 14 15  2  0  0  0  0
 14 16  1  0  0  0  0
 16 17  1  0  0  0  0
 16 18  1  0  0  0  0
 18 19  2  0  0  0  0
 19 20  1  0  0  0  0
 20 21  2  0  0  0  0
 21 22  1  0  0  0  0
 13  7  1  0  0  0  0
 22 18  1  0  0  0  0
  1 23  1  0  0  0  0
  1 24  1  0  0  0  0
  1 25  1  0  0  0  0
  4 26  1  0  0  0  0
  5 27  1  0  0  0  0
  6 28  1  0  0  0  0
  6 29  1  0  0  0  0
  8 30  1  0  0  0  0
  9 31  1  0  0  0  0
 11 32  1  0  0  0  0
 12 33  1  0  0  0  0
 13 34  1  0  0  0  0
 17 35  1  0  0  0  0
 17 36  1  0  0  0  0
 17 37  1  0  0  0  0
 20 38  1  0  0  0  0
 21 39  1  0  0  0  0
M  END
> <BIOSOLVEIT.HYDE_ESTIMATED_AFFINITY_LOWER_BOUNDARY [nM]>
119.414853

> <BIOSOLVEIT.HYDE_ESTIMATED_AFFINITY_UPPER_BOUNDARY [nM]>
11864.571713

> <BIOSOLVEIT.HYDE_LIGAND_EFFICIENCY range: ++, +, 0, -, -->
0

> <BIOSOLVEIT.HYDE_LIGAND_LIPOPHILIC_EFFICIENCY range: ++, +, 0, -, -->
0

> <BIOSOLVEIT.INTER_CLASH range: red, yellow, green>
green

> <BIOSOLVEIT.INTRA_CLASH range: red, yellow, green>
green

> <BIOSOLVEIT.LOGP>
1.5589

> <BIOSOLVEIT.MOLECULAR WEIGHT>
319.382

> <BIOSOLVEIT.MOLECULE_CHECKSUM>
LTMzLjgxNjI7MS41Mzcx

> <BIOSOLVEIT.TORSION_QUALITY range: red, yellow, green, not rotatable>
green

> <BIOSOLVEIT.TPSA>
82.53

> <BIOSOLVEIT.SEESAR_FAVORITE>
favorite

$$$$
mol_44_1_03
anSeeSAR  04022021533D 1   1.00000     0.00000     0
SeeSAR 9.2 andre
 39 39  0  0  0  0            999 V2000
   13.1363    1.4642   22.8327 C   0  0  0  0  0  0  0  0  0  0  0  0
   12.8394    0.3471   23.8438 C   0  0  1  0  0  0  0  0  0  0  0  0
   11.4065    0.5092   24.3921 C   0  0  0  0  0  0  0  0  0  0  0  0
   10.5958    1.3402   23.5003 N   0  0  0  0  0  0  0  0  0  0  0  0
    9.8912    0.8157   22.3629 C   0  0  0  0  0  0  0  0  0  0  0  0
    9.6985    1.5441   21.3531 O   0  0  0  0  0  0  0  0  0  0  0  0
    9.3728   -0.5710   22.3865 C   0  0  0  0  0  0  0  0  0  0  0  0
   10.1564   -1.5101   22.0779 O   0  0  0  0  0  0  0  0  0  0  0  0
    8.0135   -0.8841   22.7653 N   0  0  0  0  0  0  0  0  0  0  0  0
    7.7192   -2.2136   23.3088 C   0  0  0  0  0  0  0  0  0  0  0  0
    6.9018    0.0474   22.5177 C   0  0  0  0  0  0  0  0  0  0  0  0
    6.6387    0.2823   21.0390 C   0  0  0  0  0  0  0  0  0  0  0  0
    7.4450   -0.3392   20.0917 C   0  0  0  0  0  0  0  0  0  0  0  0
    7.2117   -0.1314   18.7360 C   0  0  0  0  0  0  0  0  0  0  0  0
    6.1678    0.7013   18.3471 C   0  0  0  0  0  0  0  0  0  0  0  0
    5.9321    0.9104   17.0345 O   0  0  0  0  0  0  0  0  0  0  0  0
    5.3568    1.3278   19.2878 C   0  0  0  0  0  0  0  0  0  0  0  0
    5.5974    1.1134   20.6409 C   0  0  0  0  0  0  0  0  0  0  0  0
   13.0447   -1.0351   23.1927 C   0  0  0  0  0  0  0  0  0  0  0  0
   13.4426   -0.8913   21.8750 F   0  0  0  0  0  0  0  0  0  0  0  0
   14.0227   -1.7477   23.8629 F   0  0  0  0  0  0  0  0  0  0  0  0
   14.0656    1.3559   22.4796 H   0  0  0  0  0  0  0  0  0  0  0  0
   12.4841    1.4112   22.0765 H   0  0  0  0  0  0  0  0  0  0  0  0
   13.0524    2.3528   23.2836 H   0  0  0  0  0  0  0  0  0  0  0  0
   13.4802    0.4342   24.6066 H   0  0  0  0  0  0  0  0  0  0  0  0
   11.4478    0.9404   25.2934 H   0  0  0  0  0  0  0  0  0  0  0  0
   10.9831   -0.3931   24.4732 H   0  0  0  0  0  0  0  0  0  0  0  0
   10.5291    2.3194   23.6917 H   0  0  0  0  0  0  0  0  0  0  0  0
    6.7443   -2.2783   23.5219 H   0  0  0  0  0  0  0  0  0  0  0  0
    7.9596   -2.9106   22.6332 H   0  0  0  0  0  0  0  0  0  0  0  0
    8.2529   -2.3588   24.1419 H   0  0  0  0  0  0  0  0  0  0  0  0
    7.1204    0.9246   22.9453 H   0  0  0  0  0  0  0  0  0  0  0  0
    6.0732   -0.3284   22.9326 H   0  0  0  0  0  0  0  0  0  0  0  0
    8.1924   -0.9354   20.3849 H   0  0  0  0  0  0  0  0  0  0  0  0
    7.7876   -0.5753   18.0495 H   0  0  0  0  0  0  0  0  0  0  0  0
    5.4941    1.7577   16.7340 H   0  0  0  0  0  0  0  0  0  0  0  0
    4.6101    1.9251   18.9949 H   0  0  0  0  0  0  0  0  0  0  0  0
    5.0214    1.5570   21.3275 H   0  0  0  0  0  0  0  0  0  0  0  0
   12.1852   -1.5452   23.2239 H   0  0  0  0  0  0  0  0  0  0  0  0
  1  2  1  0  0  0  0
  2  3  1  0  0  0  0
  3  4  1  0  0  0  0
  4  5  1  0  0  0  0
  5  6  2  0  0  0  0
  5  7  1  0  0  0  0
  7  8  2  0  0  0  0
  7  9  1  0  0  0  0
  9 10  1  0  0  0  0
  9 11  1  0  0  0  0
 11 12  1  0  0  0  0
 12 13  2  0  0  0  0
 13 14  1  0  0  0  0
 14 15  2  0  0  0  0
 15 16  1  0  0  0  0
 15 17  1  0  0  0  0
 17 18  2  0  0  0  0
  2 19  1  0  0  0  0
 19 20  1  0  0  0  0
 19 21  1  0  0  0  0
 18 12  1  0  0  0  0
  1 22  1  0  0  0  0
  1 23  1  0  0  0  0
  1 24  1  0  0  0  0
  2 25  1  0  0  0  0
  3 26  1  0  0  0  0
  3 27  1  0  0  0  0
  4 28  1  0  0  0  0
 10 29  1  0  0  0  0
 10 30  1  0  0  0  0
 10 31  1  0  0  0  0
 11 32  1  0  0  0  0
 11 33  1  0  0  0  0
 13 34  1  0  0  0  0
 14 35  1  0  0  0  0
 16 36  1  0  0  0  0
 17 37  1  0  0  0  0
 18 38  1  0  0  0  0
 19 39  1  0  0  0  0
M  END
> <BIOSOLVEIT.HYDE_ESTIMATED_AFFINITY_LOWER_BOUNDARY [nM]>
189.875427

> <BIOSOLVEIT.HYDE_ESTIMATED_AFFINITY_UPPER_BOUNDARY [nM]>
18865.246264

> <BIOSOLVEIT.HYDE_LIGAND_EFFICIENCY range: ++, +, 0, -, -->
0

> <BIOSOLVEIT.HYDE_LIGAND_LIPOPHILIC_EFFICIENCY range: ++, +, 0, -, -->
0

> <BIOSOLVEIT.INTER_CLASH range: red, yellow, green>
green

> <BIOSOLVEIT.INTRA_CLASH range: red, yellow, green>
yellow

> <BIOSOLVEIT.LOGP>
1.368

> <BIOSOLVEIT.MOLECULAR WEIGHT>
300.303

> <BIOSOLVEIT.MOLECULE_CHECKSUM>
LTMyLjY2NjY7MS41NTU1NQ==

> <BIOSOLVEIT.TORSION_QUALITY range: red, yellow, green, not rotatable>
red

> <BIOSOLVEIT.TPSA>
69.64

> <BIOSOLVEIT.SEESAR_FAVORITE>
favorite

$$$$
mol_27_1_03
anSeeSAR  04022021533D 1   1.00000     0.00000     0
SeeSAR 9.2 andre
 51 52  0  0  0  0            999 V2000
   13.1135    1.5237   22.8791 C   0  0  0  0  0  0  0  0  0  0  0  0
   12.8756    0.0672   23.3415 C   0  0  0  0  0  0  0  0  0  0  0  0
   13.4808   -0.8760   22.2752 C   0  0  0  0  0  0  0  0  0  0  0  0
   11.4502   -0.2003   23.5808 N   0  3  0  0  0  0  0  0  0  0  0  0
   11.1401   -0.0778   25.0145 C   0  0  0  0  0  0  0  0  0  0  0  0
    9.6844   -0.4082   25.3192 C   0  0  0  0  0  0  0  0  0  0  0  0
    8.9107   -0.7371   24.0535 C   0  0  0  0  0  0  0  0  0  0  0  0
    7.4885   -1.1149   24.3880 C   0  0  0  0  0  0  0  0  0  0  0  0
    7.0765   -2.2714   24.0987 O   0  0  0  0  0  0  0  0  0  0  0  0
    6.6045   -0.1786   25.0237 N   0  0  0  0  0  0  0  0  0  0  0  0
    6.7429    1.2616   24.8105 C   0  0  0  0  0  0  0  0  0  0  0  0
    6.6589    1.6055   23.3200 C   0  0  0  0  0  0  0  0  0  0  0  0
    5.5261    0.8278   22.6381 C   0  0  0  0  0  0  0  0  0  0  0  0
    5.6595    0.8771   21.1374 C   0  0  0  0  0  0  0  0  0  0  0  0
    6.6948    0.1770   20.4938 C   0  0  0  0  0  0  0  0  0  0  0  0
    6.8139    0.2152   19.1013 C   0  0  0  0  0  0  0  0  0  0  0  0
    5.8970    0.9489   18.3369 C   0  0  0  0  0  0  0  0  0  0  0  0
    6.0054    0.9943   16.9497 O   0  0  0  0  0  0  0  0  0  0  0  0
    4.8618    1.6425   18.9721 C   0  0  0  0  0  0  0  0  0  0  0  0
    4.7412    1.6075   20.3645 C   0  0  0  0  0  0  0  0  0  0  0  0
    9.6369   -1.8800   23.3560 C   0  0  0  0  0  0  0  0  0  0  0  0
   11.0844   -1.5263   23.0564 C   0  0  0  0  0  0  0  0  0  0  0  0
   12.7302    2.1545   23.5538 H   0  0  0  0  0  0  0  0  0  0  0  0
   14.0957    1.6887   22.7890 H   0  0  0  0  0  0  0  0  0  0  0  0
   12.6685    1.6699   21.9956 H   0  0  0  0  0  0  0  0  0  0  0  0
   13.3690   -0.0733   24.1999 H   0  0  0  0  0  0  0  0  0  0  0  0
   13.3393   -1.8265   22.5521 H   0  0  0  0  0  0  0  0  0  0  0  0
   13.0335   -0.7151   21.3954 H   0  0  0  0  0  0  0  0  0  0  0  0
   14.4607   -0.6963   22.1888 H   0  0  0  0  0  0  0  0  0  0  0  0
   10.9175    0.4872   23.0874 H   0  0  0  0  0  0  0  0  0  0  0  0
   11.3246    0.8612   25.3047 H   0  0  0  0  0  0  0  0  0  0  0  0
   11.7266   -0.7060   25.5256 H   0  0  0  0  0  0  0  0  0  0  0  0
    9.2588    0.3795   25.7646 H   0  0  0  0  0  0  0  0  0  0  0  0
    9.6519   -1.1964   25.9338 H   0  0  0  0  0  0  0  0  0  0  0  0
    8.9057    0.0634   23.4542 H   0  0  0  0  0  0  0  0  0  0  0  0
    5.8802   -0.5180   25.6239 H   0  0  0  0  0  0  0  0  0  0  0  0
    7.6282    1.5614   25.1660 H   0  0  0  0  0  0  0  0  0  0  0  0
    6.0100    1.7364   25.2977 H   0  0  0  0  0  0  0  0  0  0  0  0
    7.5264    1.3713   22.8811 H   0  0  0  0  0  0  0  0  0  0  0  0
    6.4887    2.5858   23.2199 H   0  0  0  0  0  0  0  0  0  0  0  0
    4.6493    1.2303   22.9013 H   0  0  0  0  0  0  0  0  0  0  0  0
    5.5585   -0.1257   22.9376 H   0  0  0  0  0  0  0  0  0  0  0  0
    7.3495   -0.3510   21.0347 H   0  0  0  0  0  0  0  0  0  0  0  0
    7.5549   -0.2820   18.6500 H   0  0  0  0  0  0  0  0  0  0  0  0
    5.7867    1.8374   16.4585 H   0  0  0  0  0  0  0  0  0  0  0  0
    4.2054    2.1653   18.4283 H   0  0  0  0  0  0  0  0  0  0  0  0
    3.9981    2.1046   20.8124 H   0  0  0  0  0  0  0  0  0  0  0  0
    9.1687   -2.0849   22.4964 H   0  0  0  0  0  0  0  0  0  0  0  0
    9.6159   -2.6862   23.9473 H   0  0  0  0  0  0  0  0  0  0  0  0
   11.2187   -1.5294   22.0654 H   0  0  0  0  0  0  0  0  0  0  0  0
   11.6777   -2.2137   23.4753 H   0  0  0  0  0  0  0  0  0  0  0  0
  1  2  1  0  0  0  0
  2  3  1  0  0  0  0
  2  4  1  0  0  0  0
  4  5  1  0  0  0  0
  5  6  1  0  0  0  0
  6  7  1  0  0  0  0
  7  8  1  0  0  0  0
  8  9  2  0  0  0  0
  8 10  1  0  0  0  0
 10 11  1  0  0  0  0
 11 12  1  0  0  0  0
 12 13  1  0  0  0  0
 13 14  1  0  0  0  0
 14 15  2  0  0  0  0
 15 16  1  0  0  0  0
 16 17  2  0  0  0  0
 17 18  1  0  0  0  0
 17 19  1  0  0  0  0
 19 20  2  0  0  0  0
  7 21  1  0  0  0  0
 21 22  1  0  0  0  0
 22  4  1  0  0  0  0
 20 14  1  0  0  0  0
  1 23  1  0  0  0  0
  1 24  1  0  0  0  0
  1 25  1  0  0  0  0
  2 26  1  0  0  0  0
  3 27  1  0  0  0  0
  3 28  1  0  0  0  0
  3 29  1  0  0  0  0
  4 30  1  0  0  0  0
  5 31  1  0  0  0  0
  5 32  1  0  0  0  0
  6 33  1  0  0  0  0
  6 34  1  0  0  0  0
  7 35  1  0  0  0  0
 10 36  1  0  0  0  0
 11 37  1  0  0  0  0
 11 38  1  0  0  0  0
 12 39  1  0  0  0  0
 12 40  1  0  0  0  0
 13 41  1  0  0  0  0
 13 42  1  0  0  0  0
 15 43  1  0  0  0  0
 16 44  1  0  0  0  0
 18 45  1  0  0  0  0
 19 46  1  0  0  0  0
 20 47  1  0  0  0  0
 21 48  1  0  0  0  0
 21 49  1  0  0  0  0
 22 50  1  0  0  0  0
 22 51  1  0  0  0  0
M  CHG  1   4   1
M  END
> <BIOSOLVEIT.HYDE_ESTIMATED_AFFINITY_LOWER_BOUNDARY [nM]>
220.580365

> <BIOSOLVEIT.HYDE_ESTIMATED_AFFINITY_UPPER_BOUNDARY [nM]>
21915.963485

> <BIOSOLVEIT.HYDE_LIGAND_EFFICIENCY range: ++, +, 0, -, -->
0

> <BIOSOLVEIT.HYDE_LIGAND_LIPOPHILIC_EFFICIENCY range: ++, +, 0, -, -->
0

> <BIOSOLVEIT.INTER_CLASH range: red, yellow, green>
green

> <BIOSOLVEIT.INTRA_CLASH range: red, yellow, green>
green

> <BIOSOLVEIT.LOGP>
1.1443

> <BIOSOLVEIT.MOLECULAR WEIGHT>
305.439

> <BIOSOLVEIT.MOLECULE_CHECKSUM>
LTMyLjI5NTsxLjQ2Nzk1

> <BIOSOLVEIT.TORSION_QUALITY range: red, yellow, green, not rotatable>
yellow

> <BIOSOLVEIT.TPSA>
53.77

> <BIOSOLVEIT.SEESAR_FAVORITE>
favorite

$$$$
mol_36_1_01
anSeeSAR  04022021533D 1   1.00000     0.00000     0
SeeSAR 9.2 andre
 40 40  0  0  0  0            999 V2000
   13.1631   -0.9577   22.6408 C   0  0  0  0  0  0  0  0  0  0  0  0
   13.0610   -0.2457   24.3185 S   0  0  0  0  0  0  0  0  0  0  0  0
   11.8709    1.1225   23.9967 C   0  0  1  0  0  0  0  0  0  0  0  0
   12.4027    2.0783   22.9208 C   0  0  0  0  0  0  0  0  0  0  0  0
   10.4572    0.5934   23.6675 C   0  0  0  0  0  0  0  0  0  0  0  0
    9.5976    0.3273   24.8775 C   0  0  0  0  0  0  0  0  0  0  0  0
   10.0790    0.3971   26.0419 O   0  0  0  0  0  0  0  0  0  0  0  0
    8.2176   -0.0188   24.6914 N   0  0  0  0  0  0  0  0  0  0  0  0
    7.4291    0.4709   23.5552 C   0  0  2  0  0  0  0  0  0  0  0  0
    6.1557    1.1648   24.0820 C   0  0  0  0  0  0  0  0  0  0  0  0
    5.3290    0.2616   24.7652 O   0  0  0  0  0  0  0  0  0  0  0  0
    7.0970   -0.7084   22.6118 C   0  0  0  0  0  0  0  0  0  0  0  0
    6.8452   -0.2681   21.1904 C   0  0  0  0  0  0  0  0  0  0  0  0
    5.6345    0.3539   20.8416 C   0  0  0  0  0  0  0  0  0  0  0  0
    5.4040    0.7601   19.5237 C   0  0  0  0  0  0  0  0  0  0  0  0
    6.3774    0.5426   18.5393 C   0  0  0  0  0  0  0  0  0  0  0  0
    6.1590    0.9439   17.2233 O   0  0  0  0  0  0  0  0  0  0  0  0
    7.5800   -0.0846   18.8797 C   0  0  0  0  0  0  0  0  0  0  0  0
    7.8133   -0.4914   20.1967 C   0  0  0  0  0  0  0  0  0  0  0  0
   13.7907   -1.7363   22.6467 H   0  0  0  0  0  0  0  0  0  0  0  0
   12.2556   -1.2633   22.3525 H   0  0  0  0  0  0  0  0  0  0  0  0
   13.4990   -0.2637   22.0040 H   0  0  0  0  0  0  0  0  0  0  0  0
   11.7957    1.6490   24.8434 H   0  0  0  0  0  0  0  0  0  0  0  0
   11.7381    2.8095   22.7666 H   0  0  0  0  0  0  0  0  0  0  0  0
   13.2691    2.4741   23.2252 H   0  0  0  0  0  0  0  0  0  0  0  0
   12.5474    1.5743   22.0692 H   0  0  0  0  0  0  0  0  0  0  0  0
   10.5534   -0.2614   23.1575 H   0  0  0  0  0  0  0  0  0  0  0  0
    9.9938    1.2716   23.0971 H   0  0  0  0  0  0  0  0  0  0  0  0
    7.7767   -0.6162   25.3613 H   0  0  0  0  0  0  0  0  0  0  0  0
    7.9743    1.1408   23.0514 H   0  0  0  0  0  0  0  0  0  0  0  0
    5.6503    1.5485   23.3092 H   0  0  0  0  0  0  0  0  0  0  0  0
    6.4200    1.9004   24.7058 H   0  0  0  0  0  0  0  0  0  0  0  0
    5.3958    0.4272   25.7491 H   0  0  0  0  0  0  0  0  0  0  0  0
    6.2780   -1.1696   22.9532 H   0  0  0  0  0  0  0  0  0  0  0  0
    7.8661   -1.3476   22.6167 H   0  0  0  0  0  0  0  0  0  0  0  0
    4.9345    0.5068   21.5391 H   0  0  0  0  0  0  0  0  0  0  0  0
    4.5424    1.2070   19.2829 H   0  0  0  0  0  0  0  0  0  0  0  0
    5.6680    1.7944   17.0349 H   0  0  0  0  0  0  0  0  0  0  0  0
    8.2754   -0.2426   18.1787 H   0  0  0  0  0  0  0  0  0  0  0  0
    8.6734   -0.9435   20.4328 H   0  0  0  0  0  0  0  0  0  0  0  0
  1  2  1  0  0  0  0
  2  3  1  0  0  0  0
  3  4  1  0  0  0  0
  3  5  1  0  0  0  0
  5  6  1  0  0  0  0
  6  7  2  0  0  0  0
  6  8  1  0  0  0  0
  8  9  1  0  0  0  0
  9 10  1  0  0  0  0
 10 11  1  0  0  0  0
  9 12  1  0  0  0  0
 12 13  1  0  0  0  0
 13 14  2  0  0  0  0
 14 15  1  0  0  0  0
 15 16  2  0  0  0  0
 16 17  1  0  0  0  0
 16 18  1  0  0  0  0
 18 19  2  0  0  0  0
 19 13  1  0  0  0  0
  1 20  1  0  0  0  0
  1 21  1  0  0  0  0
  1 22  1  0  0  0  0
  3 23  1  0  0  0  0
  4 24  1  0  0  0  0
  4 25  1  0  0  0  0
  4 26  1  0  0  0  0
  5 27  1  0  0  0  0
  5 28  1  0  0  0  0
  8 29  1  0  0  0  0
  9 30  1  0  0  0  0
 10 31  1  0  0  0  0
 10 32  1  0  0  0  0
 11 33  1  0  0  0  0
 12 34  1  0  0  0  0
 12 35  1  0  0  0  0
 14 36  1  0  0  0  0
 15 37  1  0  0  0  0
 17 38  1  0  0  0  0
 18 39  1  0  0  0  0
 19 40  1  0  0  0  0
M  END
> <BIOSOLVEIT.HYDE_ESTIMATED_AFFINITY_LOWER_BOUNDARY [nM]>
297.220067

> <BIOSOLVEIT.HYDE_ESTIMATED_AFFINITY_UPPER_BOUNDARY [nM]>
29530.570942

> <BIOSOLVEIT.HYDE_LIGAND_EFFICIENCY range: ++, +, 0, -, -->
0

> <BIOSOLVEIT.HYDE_LIGAND_LIPOPHILIC_EFFICIENCY range: ++, +, 0, -, -->
0

> <BIOSOLVEIT.INTER_CLASH range: red, yellow, green>
green

> <BIOSOLVEIT.INTRA_CLASH range: red, yellow, green>
green

> <BIOSOLVEIT.LOGP>
1.5534

> <BIOSOLVEIT.MOLECULAR WEIGHT>
283.389

> <BIOSOLVEIT.MOLECULE_CHECKSUM>
LTMxLjU1NTc7MS42NjA4Mw==

> <BIOSOLVEIT.TORSION_QUALITY range: red, yellow, green, not rotatable>
green

> <BIOSOLVEIT.TPSA>
69.56

> <BIOSOLVEIT.SEESAR_FAVORITE>
favorite

$$$$
mol_43_1_03
anSeeSAR  04022021533D 1   1.00000     0.00000     0
SeeSAR 9.2 andre
 61 62  0  0  0  0            999 V2000
   13.9459   -1.4574   20.7749 C   0  0  0  0  0  0  0  0  0  0  0  0
   12.8028   -1.2666   21.7698 C   0  0  0  0  0  0  0  0  0  0  0  0
   13.2964   -0.5775   23.0555 C   0  0  0  0  0  0  0  0  0  0  0  0
   12.4525    0.5614   23.4431 N   0  3  2  0  0  0  0  0  0  0  0  0
   12.2650    0.5736   24.9026 C   0  0  0  0  0  0  0  0  0  0  0  0
   10.8067    0.4884   25.3319 C   0  0  0  0  0  0  0  0  0  0  0  0
   10.0307    1.5997   24.6440 C   0  0  0  0  0  0  0  0  0  0  0  0
   10.2465    1.5748   23.1367 C   0  0  2  0  0  0  0  0  0  0  0  0
    8.9026    1.4405   22.4328 C   0  0  0  0  0  0  0  0  0  0  0  0
    8.7752    1.9645   21.2920 O   0  0  0  0  0  0  0  0  0  0  0  0
    7.7679    0.7483   23.0193 N   0  0  0  0  0  0  0  0  0  0  0  0
    6.3728    1.1312   22.7296 C   0  0  0  0  0  0  0  0  0  0  0  0
    6.0009    0.9961   21.2621 C   0  0  0  0  0  0  0  0  0  0  0  0
    6.5077   -0.0594   20.5101 C   0  0  0  0  0  0  0  0  0  0  0  0
    7.3298   -0.9638   21.0841 O   0  0  0  0  0  0  0  0  0  0  0  0
    8.7068   -1.1626   20.7683 C   0  0  0  0  0  0  0  0  0  0  0  0
    9.3446   -2.1521   21.7364 C   0  0  0  0  0  0  0  0  0  0  0  0
    6.1673   -0.1828   19.1672 C   0  0  0  0  0  0  0  0  0  0  0  0
    5.3199    0.7486   18.5761 C   0  0  0  0  0  0  0  0  0  0  0  0
    4.8134    1.8038   19.3280 C   0  0  0  0  0  0  0  0  0  0  0  0
    5.1538    1.9274   20.6708 C   0  0  0  0  0  0  0  0  0  0  0  0
    8.0183   -0.2995   24.0256 C   0  0  0  0  0  0  0  0  0  0  0  0
    6.8474   -1.2903   24.0921 C   0  0  1  0  0  0  0  0  0  0  0  0
    7.3618   -2.7272   24.2110 C   0  0  0  0  0  0  0  0  0  0  0  0
    6.0467   -0.9895   25.2051 O   0  0  0  0  0  0  0  0  0  0  0  0
   11.1926    0.4695   22.6861 C   0  0  0  0  0  0  0  0  0  0  0  0
   13.5993   -1.9058   19.9510 H   0  0  0  0  0  0  0  0  0  0  0  0
   14.3296   -0.5662   20.5330 H   0  0  0  0  0  0  0  0  0  0  0  0
   14.6572   -2.0252   21.1892 H   0  0  0  0  0  0  0  0  0  0  0  0
   12.4212   -2.1607   22.0043 H   0  0  0  0  0  0  0  0  0  0  0  0
   12.0936   -0.7017   21.3481 H   0  0  0  0  0  0  0  0  0  0  0  0
   14.2290   -0.2493   22.9056 H   0  0  0  0  0  0  0  0  0  0  0  0
   13.2938   -1.2462   23.7990 H   0  0  0  0  0  0  0  0  0  0  0  0
   12.9194    1.4050   23.1777 H   0  0  0  0  0  0  0  0  0  0  0  0
   12.6516    1.4223   25.2637 H   0  0  0  0  0  0  0  0  0  0  0  0
   12.7547   -0.2072   25.2905 H   0  0  0  0  0  0  0  0  0  0  0  0
   10.7410    0.5963   26.3239 H   0  0  0  0  0  0  0  0  0  0  0  0
   10.4293   -0.3991   25.0674 H   0  0  0  0  0  0  0  0  0  0  0  0
   10.3377    2.4814   25.0024 H   0  0  0  0  0  0  0  0  0  0  0  0
    9.0561    1.4832   24.8354 H   0  0  0  0  0  0  0  0  0  0  0  0
   10.6475    2.4509   22.8691 H   0  0  0  0  0  0  0  0  0  0  0  0
    6.2426    2.0842   23.0030 H   0  0  0  0  0  0  0  0  0  0  0  0
    5.7656    0.5446   23.2655 H   0  0  0  0  0  0  0  0  0  0  0  0
    9.1872   -0.2877   20.8294 H   0  0  0  0  0  0  0  0  0  0  0  0
    8.7818   -1.5197   19.8373 H   0  0  0  0  0  0  0  0  0  0  0  0
   10.3077   -2.2775   21.4985 H   0  0  0  0  0  0  0  0  0  0  0  0
    9.2749   -1.7980   22.6690 H   0  0  0  0  0  0  0  0  0  0  0  0
    8.8695   -3.0301   21.6768 H   0  0  0  0  0  0  0  0  0  0  0  0
    6.5318   -0.9410   18.6267 H   0  0  0  0  0  0  0  0  0  0  0  0
    5.0748    0.6596   17.6107 H   0  0  0  0  0  0  0  0  0  0  0  0
    4.2044    2.4735   18.9029 H   0  0  0  0  0  0  0  0  0  0  0  0
    4.7896    2.6859   21.2112 H   0  0  0  0  0  0  0  0  0  0  0  0
    8.1352    0.1290   24.9216 H   0  0  0  0  0  0  0  0  0  0  0  0
    8.8521   -0.7946   23.7815 H   0  0  0  0  0  0  0  0  0  0  0  0
    6.2984   -1.2060   23.2605 H   0  0  0  0  0  0  0  0  0  0  0  0
    6.5860   -3.3566   24.2530 H   0  0  0  0  0  0  0  0  0  0  0  0
    7.9261   -2.9461   23.4150 H   0  0  0  0  0  0  0  0  0  0  0  0
    7.9096   -2.8173   25.0428 H   0  0  0  0  0  0  0  0  0  0  0  0
    5.5813   -0.1173   25.0550 H   0  0  0  0  0  0  0  0  0  0  0  0
   11.3825    0.5712   21.7096 H   0  0  0  0  0  0  0  0  0  0  0  0
   10.7683   -0.4206   22.8523 H   0  0  0  0  0  0  0  0  0  0  0  0
  1  2  1  0  0  0  0
  2  3  1  0  0  0  0
  3  4  1  0  0  0  0
  4  5  1  0  0  0  0
  5  6  1  0  0  0  0
  6  7  1  0  0  0  0
  7  8  1  0  0  0  0
  8  9  1  0  0  0  0
  9 10  2  0  0  0  0
  9 11  1  0  0  0  0
 11 12  1  0  0  0  0
 12 13  1  0  0  0  0
 13 14  2  0  0  0  0
 14 15  1  0  0  0  0
 15 16  1  0  0  0  0
 16 17  1  0  0  0  0
 14 18  1  0  0  0  0
 18 19  2  0  0  0  0
 19 20  1  0  0  0  0
 20 21  2  0  0  0  0
 11 22  1  0  0  0  0
 22 23  1  0  0  0  0
 23 24  1  0  0  0  0
 23 25  1  0  0  0  0
  8 26  1  0  0  0  0
 26  4  1  0  0  0  0
 21 13  1  0  0  0  0
  1 27  1  0  0  0  0
  1 28  1  0  0  0  0
  1 29  1  0  0  0  0
  2 30  1  0  0  0  0
  2 31  1  0  0  0  0
  3 32  1  0  0  0  0
  3 33  1  0  0  0  0
  4 34  1  0  0  0  0
  5 35  1  0  0  0  0
  5 36  1  0  0  0  0
  6 37  1  0  0  0  0
  6 38  1  0  0  0  0
  7 39  1  0  0  0  0
  7 40  1  0  0  0  0
  8 41  1  0  0  0  0
 12 42  1  0  0  0  0
 12 43  1  0  0  0  0
 16 44  1  0  0  0  0
 16 45  1  0  0  0  0
 17 46  1  0  0  0  0
 17 47  1  0  0  0  0
 17 48  1  0  0  0  0
 18 49  1  0  0  0  0
 19 50  1  0  0  0  0
 20 51  1  0  0  0  0
 21 52  1  0  0  0  0
 22 53  1  0  0  0  0
 22 54  1  0  0  0  0
 23 55  1  0  0  0  0
 24 56  1  0  0  0  0
 24 57  1  0  0  0  0
 24 58  1  0  0  0  0
 25 59  1  0  0  0  0
 26 60  1  0  0  0  0
 26 61  1  0  0  0  0
M  CHG  1   4   1
M  END
> <BIOSOLVEIT.HYDE_ESTIMATED_AFFINITY_LOWER_BOUNDARY [nM]>
697.259141

> <BIOSOLVEIT.HYDE_ESTIMATED_AFFINITY_UPPER_BOUNDARY [nM]>
69276.818191

> <BIOSOLVEIT.HYDE_LIGAND_EFFICIENCY range: ++, +, 0, -, -->
-

> <BIOSOLVEIT.HYDE_LIGAND_LIPOPHILIC_EFFICIENCY range: ++, +, 0, -, -->
0

> <BIOSOLVEIT.INTER_CLASH range: red, yellow, green>
yellow

> <BIOSOLVEIT.INTRA_CLASH range: red, yellow, green>
red

> <BIOSOLVEIT.LOGP>
1.4996

> <BIOSOLVEIT.MOLECULAR WEIGHT>
363.519

> <BIOSOLVEIT.MOLECULE_CHECKSUM>
LTI5LjQ0MjsxLjEzMjM4

> <BIOSOLVEIT.TORSION_QUALITY range: red, yellow, green, not rotatable>
red

> <BIOSOLVEIT.TPSA>
54.21

> <BIOSOLVEIT.SEESAR_FAVORITE>
favorite

$$$$
mol_14_1_01
anSeeSAR  04022021533D 1   1.00000     0.00000     0
SeeSAR 9.2 andre
 51 53  0  0  0  0            999 V2000
    7.7635    4.2993   22.4716 C   0  0  0  0  0  0  0  0  0  0  0  0
    7.7570    2.8471   22.1175 C   0  0  0  0  0  0  0  0  0  0  0  0
    8.4365    2.4560   21.1305 O   0  0  0  0  0  0  0  0  0  0  0  0
    6.9831    1.9135   22.8873 N   0  0  0  0  0  0  0  0  0  0  0  0
    7.3670    0.5051   23.0515 C   0  0  2  0  0  0  0  0  0  0  0  0
    6.4104   -0.3964   22.2519 C   0  0  0  0  0  0  0  0  0  0  0  0
    6.3285    0.0319   20.8081 C   0  0  0  0  0  0  0  0  0  0  0  0
    7.3400   -0.3328   19.9040 C   0  0  0  0  0  0  0  0  0  0  0  0
    7.2769    0.0807   18.5701 C   0  0  0  0  0  0  0  0  0  0  0  0
    6.2010    0.8609   18.1254 C   0  0  0  0  0  0  0  0  0  0  0  0
    6.1285    1.2809   16.7992 O   0  0  0  0  0  0  0  0  0  0  0  0
    5.1894    1.2223   19.0208 C   0  0  0  0  0  0  0  0  0  0  0  0
    5.2496    0.8094   20.3552 C   0  0  0  0  0  0  0  0  0  0  0  0
    7.3537    0.1161   24.5085 C   0  0  0  0  0  0  0  0  0  0  0  0
    6.5562    0.6765   25.3100 O   0  0  0  0  0  0  0  0  0  0  0  0
    8.2440   -0.9068   24.9782 N   0  0  0  0  0  0  0  0  0  0  0  0
    9.1918   -1.5956   24.1036 C   0  0  0  0  0  0  0  0  0  0  0  0
   10.4585   -0.7524   23.8961 C   0  0  2  0  0  0  0  0  0  0  0  0
   11.0439   -0.2055   25.1822 C   0  0  0  0  0  0  0  0  0  0  0  0
   12.4473    0.1348   24.7406 C   0  0  0  0  0  0  0  0  0  0  0  0
   12.4665   -0.2943   23.2890 C   0  0  2  0  0  0  0  0  0  0  0  0
   13.8087   -0.4606   22.7115 N   0  3  0  0  0  0  0  0  0  0  0  0
   11.5740    0.7130   22.5901 C   0  0  0  0  0  0  0  0  0  0  0  0
   10.2724    0.3408   23.0149 O   0  0  0  0  0  0  0  0  0  0  0  0
   11.6268   -1.5312   23.3556 C   0  0  0  0  0  0  0  0  0  0  0  0
    7.1817    4.4501   23.2708 H   0  0  0  0  0  0  0  0  0  0  0  0
    8.6981    4.5872   22.6806 H   0  0  0  0  0  0  0  0  0  0  0  0
    7.4152    4.8320   21.7004 H   0  0  0  0  0  0  0  0  0  0  0  0
    6.1469    2.2362   23.3307 H   0  0  0  0  0  0  0  0  0  0  0  0
    8.2937    0.3827   22.6962 H   0  0  0  0  0  0  0  0  0  0  0  0
    5.4984   -0.3448   22.6588 H   0  0  0  0  0  0  0  0  0  0  0  0
    6.7410   -1.3392   22.2933 H   0  0  0  0  0  0  0  0  0  0  0  0
    8.1089   -0.8908   20.2160 H   0  0  0  0  0  0  0  0  0  0  0  0
    8.0010   -0.1807   17.9319 H   0  0  0  0  0  0  0  0  0  0  0  0
    6.8396    1.0116   16.1499 H   0  0  0  0  0  0  0  0  0  0  0  0
    4.4201    1.7779   18.7054 H   0  0  0  0  0  0  0  0  0  0  0  0
    4.5217    1.0687   20.9899 H   0  0  0  0  0  0  0  0  0  0  0  0
    8.2149   -1.1593   25.9454 H   0  0  0  0  0  0  0  0  0  0  0  0
    8.7593   -1.7603   23.2172 H   0  0  0  0  0  0  0  0  0  0  0  0
    9.4447   -2.4696   24.5186 H   0  0  0  0  0  0  0  0  0  0  0  0
   11.0443   -0.8942   25.9072 H   0  0  0  0  0  0  0  0  0  0  0  0
   10.5503    0.6064   25.4940 H   0  0  0  0  0  0  0  0  0  0  0  0
   13.1240   -0.3729   25.2737 H   0  0  0  0  0  0  0  0  0  0  0  0
   12.6225    1.1156   24.8270 H   0  0  0  0  0  0  0  0  0  0  0  0
   13.7302   -0.8383   21.7889 H   0  0  0  0  0  0  0  0  0  0  0  0
   14.2662    0.4276   22.6702 H   0  0  0  0  0  0  0  0  0  0  0  0
   14.3424   -1.0842   23.2827 H   0  0  0  0  0  0  0  0  0  0  0  0
   11.6613    0.6412   21.5965 H   0  0  0  0  0  0  0  0  0  0  0  0
   11.7921    1.6457   22.8773 H   0  0  0  0  0  0  0  0  0  0  0  0
   11.9772   -2.2230   23.9869 H   0  0  0  0  0  0  0  0  0  0  0  0
   11.4545   -1.9502   22.4641 H   0  0  0  0  0  0  0  0  0  0  0  0
  1  2  1  0  0  0  0
  2  3  2  0  0  0  0
  2  4  1  0  0  0  0
  4  5  1  0  0  0  0
  5  6  1  0  0  0  0
  6  7  1  0  0  0  0
  7  8  2  0  0  0  0
  8  9  1  0  0  0  0
  9 10  2  0  0  0  0
 10 11  1  0  0  0  0
 10 12  1  0  0  0  0
 12 13  2  0  0  0  0
  5 14  1  0  0  0  0
 14 15  2  0  0  0  0
 14 16  1  0  0  0  0
 16 17  1  0  0  0  0
 18 17  1  0  0  0  0
 18 19  1  0  0  0  0
 19 20  1  0  0  0  0
 20 21  1  0  0  0  0
 21 22  1  0  0  0  0
 21 23  1  0  0  0  0
 23 24  1  0  0  0  0
 21 25  1  0  0  0  0
 13  7  1  0  0  0  0
 24 18  1  0  0  0  0
 25 18  1  0  0  0  0
  1 26  1  0  0  0  0
  1 27  1  0  0  0  0
  1 28  1  0  0  0  0
  4 29  1  0  0  0  0
  5 30  1  0  0  0  0
  6 31  1  0  0  0  0
  6 32  1  0  0  0  0
  8 33  1  0  0  0  0
  9 34  1  0  0  0  0
 11 35  1  0  0  0  0
 12 36  1  0  0  0  0
 13 37  1  0  0  0  0
 16 38  1  0  0  0  0
 17 39  1  0  0  0  0
 17 40  1  0  0  0  0
 19 41  1  0  0  0  0
 19 42  1  0  0  0  0
 20 43  1  0  0  0  0
 20 44  1  0  0  0  0
 22 45  1  0  0  0  0
 22 46  1  0  0  0  0
 22 47  1  0  0  0  0
 23 48  1  0  0  0  0
 23 49  1  0  0  0  0
 25 50  1  0  0  0  0
 25 51  1  0  0  0  0
M  CHG  1  22   1
M  END
> <BIOSOLVEIT.HYDE_ESTIMATED_AFFINITY_LOWER_BOUNDARY [nM]>
768.361821

> <BIOSOLVEIT.HYDE_ESTIMATED_AFFINITY_UPPER_BOUNDARY [nM]>
76341.289823

> <BIOSOLVEIT.HYDE_LIGAND_EFFICIENCY range: ++, +, 0, -, -->
-

> <BIOSOLVEIT.HYDE_LIGAND_LIPOPHILIC_EFFICIENCY range: ++, +, 0, -, -->
+

> <BIOSOLVEIT.INTER_CLASH range: red, yellow, green>
green

> <BIOSOLVEIT.INTRA_CLASH range: red, yellow, green>
green

> <BIOSOLVEIT.LOGP>
-0.5108

> <BIOSOLVEIT.MOLECULAR WEIGHT>
348.42

> <BIOSOLVEIT.MOLECULE_CHECKSUM>
LTI5LjIwMTI7MS4xNjgwNQ==

> <BIOSOLVEIT.TORSION_QUALITY range: red, yellow, green, not rotatable>
green

> <BIOSOLVEIT.TPSA>
115.3

> <BIOSOLVEIT.SEESAR_FAVORITE>
favorite

$$$$
mol_8_1_02
anSeeSAR  04022021533D 1   1.00000     0.00000     0
SeeSAR 9.2 andre
 46 46  0  0  0  0            999 V2000
    5.6546    0.1271   26.1572 C   0  0  0  0  0  0  0  0  0  0  0  0
    6.2909   -0.1817   24.9368 O   0  0  0  0  0  0  0  0  0  0  0  0
    5.7596    0.6065   23.8869 C   0  0  0  0  0  0  0  0  0  0  0  0
    6.7341    0.6489   22.6984 C   0  0  1  0  0  0  0  0  0  0  0  0
    6.3551    1.7795   21.7237 C   0  0  0  0  0  0  0  0  0  0  0  0
    6.1712    1.2638   20.3166 C   0  0  0  0  0  0  0  0  0  0  0  0
    5.1634    1.7957   19.5194 C   0  0  0  0  0  0  0  0  0  0  0  0
    4.9990    1.3158   18.2244 C   0  0  0  0  0  0  0  0  0  0  0  0
    5.8318    0.3171   17.7324 C   0  0  0  0  0  0  0  0  0  0  0  0
    6.8372   -0.2094   18.5373 C   0  0  0  0  0  0  0  0  0  0  0  0
    7.0094    0.2640   19.8337 C   0  0  0  0  0  0  0  0  0  0  0  0
    8.1022    0.8500   23.1883 N   0  0  0  0  0  0  0  0  0  0  0  0
    9.1963    1.2030   22.3306 C   0  0  0  0  0  0  0  0  0  0  0  0
    8.9928    1.8841   21.2887 O   0  0  0  0  0  0  0  0  0  0  0  0
   10.5261    0.7911   22.6740 N   0  0  0  0  0  0  0  0  0  0  0  0
   11.7129    1.5670   22.3186 C   0  0  0  0  0  0  0  0  0  0  0  0
   12.8498    1.3529   23.3332 C   0  0  0  0  0  0  0  0  0  0  0  0
   13.6283    0.0158   23.2176 C   0  0  0  0  0  0  0  0  0  0  0  0
   13.1229   -0.8725   22.0722 C   0  0  0  0  0  0  0  0  0  0  0  0
   13.6794   -0.7669   24.5366 C   0  0  0  0  0  0  0  0  0  0  0  0
    6.0408   -0.4374   26.8867 H   0  0  0  0  0  0  0  0  0  0  0  0
    5.7971    1.0932   26.3724 H   0  0  0  0  0  0  0  0  0  0  0  0
    4.6746   -0.0556   26.0778 H   0  0  0  0  0  0  0  0  0  0  0  0
    5.6058    1.5370   24.2195 H   0  0  0  0  0  0  0  0  0  0  0  0
    4.8912    0.2121   23.5864 H   0  0  0  0  0  0  0  0  0  0  0  0
    6.6898   -0.2244   22.2131 H   0  0  0  0  0  0  0  0  0  0  0  0
    7.0821    2.4661   21.7250 H   0  0  0  0  0  0  0  0  0  0  0  0
    5.5003    2.1986   22.0298 H   0  0  0  0  0  0  0  0  0  0  0  0
    4.5643    2.5141   19.8729 H   0  0  0  0  0  0  0  0  0  0  0  0
    4.2771    1.6916   17.6433 H   0  0  0  0  0  0  0  0  0  0  0  0
    5.7082   -0.0229   16.8001 H   0  0  0  0  0  0  0  0  0  0  0  0
    7.4360   -0.9280   18.1836 H   0  0  0  0  0  0  0  0  0  0  0  0
    7.7310   -0.1119   20.4150 H   0  0  0  0  0  0  0  0  0  0  0  0
    8.2802    0.7357   24.1656 H   0  0  0  0  0  0  0  0  0  0  0  0
   10.6469   -0.0638   23.1785 H   0  0  0  0  0  0  0  0  0  0  0  0
   11.4729    2.5376   22.2990 H   0  0  0  0  0  0  0  0  0  0  0  0
   12.0276    1.2831   21.4129 H   0  0  0  0  0  0  0  0  0  0  0  0
   12.4528    1.3966   24.2500 H   0  0  0  0  0  0  0  0  0  0  0  0
   13.5058    2.0988   23.2182 H   0  0  0  0  0  0  0  0  0  0  0  0
   14.5729    0.2562   22.9940 H   0  0  0  0  0  0  0  0  0  0  0  0
   13.6577   -1.7169   22.0444 H   0  0  0  0  0  0  0  0  0  0  0  0
   12.1591   -1.0931   22.2219 H   0  0  0  0  0  0  0  0  0  0  0  0
   13.2225   -0.3860   21.2043 H   0  0  0  0  0  0  0  0  0  0  0  0
   14.1913   -1.6152   24.4012 H   0  0  0  0  0  0  0  0  0  0  0  0
   14.1313   -0.2128   25.2357 H   0  0  0  0  0  0  0  0  0  0  0  0
   12.7489   -0.9828   24.8324 H   0  0  0  0  0  0  0  0  0  0  0  0
  1  2  1  0  0  0  0
  2  3  1  0  0  0  0
  3  4  1  0  0  0  0
  4  5  1  0  0  0  0
  5  6  1  0  0  0  0
  6  7  2  0  0  0  0
  7  8  1  0  0  0  0
  8  9  2  0  0  0  0
  9 10  1  0  0  0  0
 10 11  2  0  0  0  0
  4 12  1  0  0  0  0
 12 13  1  0  0  0  0
 13 14  2  0  0  0  0
 13 15  1  0  0  0  0
 15 16  1  0  0  0  0
 16 17  1  0  0  0  0
 17 18  1  0  0  0  0
 18 19  1  0  0  0  0
 18 20  1  0  0  0  0
 11  6  1  0  0  0  0
  1 21  1  0  0  0  0
  1 22  1  0  0  0  0
  1 23  1  0  0  0  0
  3 24  1  0  0  0  0
  3 25  1  0  0  0  0
  4 26  1  0  0  0  0
  5 27  1  0  0  0  0
  5 28  1  0  0  0  0
  7 29  1  0  0  0  0
  8 30  1  0  0  0  0
  9 31  1  0  0  0  0
 10 32  1  0  0  0  0
 11 33  1  0  0  0  0
 12 34  1  0  0  0  0
 15 35  1  0  0  0  0
 16 36  1  0  0  0  0
 16 37  1  0  0  0  0
 17 38  1  0  0  0  0
 17 39  1  0  0  0  0
 18 40  1  0  0  0  0
 19 41  1  0  0  0  0
 19 42  1  0  0  0  0
 19 43  1  0  0  0  0
 20 44  1  0  0  0  0
 20 45  1  0  0  0  0
 20 46  1  0  0  0  0
M  END
> <BIOSOLVEIT.HYDE_ESTIMATED_AFFINITY_LOWER_BOUNDARY [nM]>
1618.534025

> <BIOSOLVEIT.HYDE_ESTIMATED_AFFINITY_UPPER_BOUNDARY [nM]>
160810.924915

> <BIOSOLVEIT.HYDE_LIGAND_EFFICIENCY range: ++, +, 0, -, -->
0

> <BIOSOLVEIT.HYDE_LIGAND_LIPOPHILIC_EFFICIENCY range: ++, +, 0, -, -->
-

> <BIOSOLVEIT.INTER_CLASH range: red, yellow, green>
yellow

> <BIOSOLVEIT.INTRA_CLASH range: red, yellow, green>
red

> <BIOSOLVEIT.LOGP>
2.5894

> <BIOSOLVEIT.MOLECULAR WEIGHT>
278.393

> <BIOSOLVEIT.MOLECULE_CHECKSUM>
LTI3LjM1NDQ7MS4zNjc3Mg==

> <BIOSOLVEIT.TORSION_QUALITY range: red, yellow, green, not rotatable>
red

> <BIOSOLVEIT.TPSA>
50.36

> <BIOSOLVEIT.SEESAR_FAVORITE>
favorite

$$$$
mol_76_1_01
anSeeSAR  04022021533D 1   1.00000     0.00000     0
SeeSAR 9.2 andre
 31 31  0  0  0  0            999 V2000
    9.6371    1.6539   21.3187 O   0  0  0  0  0  0  0  0  0  0  0  0
    9.8179    0.6912   22.1127 C   0  0  0  0  0  0  0  0  0  0  0  0
    9.4350   -0.6949   21.6922 C   0  0  0  0  0  0  0  0  0  0  0  0
    8.0581   -1.0614   22.2565 C   0  0  0  0  0  0  0  0  0  0  0  0
    6.9607   -0.3111   21.5302 C   0  0  0  0  0  0  0  0  0  0  0  0
    6.1118    0.6402   22.1677 C   0  0  0  0  0  0  0  0  0  0  0  0
    6.2387    0.9694   23.6440 C   0  0  0  0  0  0  0  0  0  0  0  0
    7.4391    1.6169   23.8728 F   0  0  0  0  0  0  0  0  0  0  0  0
    5.2146    1.7949   24.0768 F   0  0  0  0  0  0  0  0  0  0  0  0
    6.1891   -0.1905   24.3959 F   0  0  0  0  0  0  0  0  0  0  0  0
    5.1407    1.3081   21.3918 C   0  0  0  0  0  0  0  0  0  0  0  0
    4.9935    1.0305   20.0326 C   0  0  0  0  0  0  0  0  0  0  0  0
    5.8137    0.0890   19.4180 C   0  0  0  0  0  0  0  0  0  0  0  0
    6.7903   -0.5749   20.1583 C   0  0  0  0  0  0  0  0  0  0  0  0
   10.4230    0.9097   23.3948 N   0  0  0  0  0  0  0  0  0  0  0  0
   11.2253   -0.1052   24.0766 C   0  0  0  0  0  0  0  0  0  0  0  0
   12.7145    0.0631   23.7631 C   0  0  0  0  0  0  0  0  0  0  0  0
   12.9996    1.3827   23.4634 F   0  0  0  0  0  0  0  0  0  0  0  0
   13.4568   -0.3111   24.8680 F   0  0  0  0  0  0  0  0  0  0  0  0
   13.2348   -1.0530   22.2630 Br  0  0  0  0  0  0  0  0  0  0  0  0
   10.1150   -1.3432   22.0348 H   0  0  0  0  0  0  0  0  0  0  0  0
    9.4048   -0.7401   20.6937 H   0  0  0  0  0  0  0  0  0  0  0  0
    8.0287   -0.8256   23.2279 H   0  0  0  0  0  0  0  0  0  0  0  0
    7.9104   -2.0444   22.1476 H   0  0  0  0  0  0  0  0  0  0  0  0
    4.5495    1.9901   21.8223 H   0  0  0  0  0  0  0  0  0  0  0  0
    4.2968    1.5093   19.4984 H   0  0  0  0  0  0  0  0  0  0  0  0
    5.7023   -0.1113   18.4447 H   0  0  0  0  0  0  0  0  0  0  0  0
    7.3778   -1.2477   19.7086 H   0  0  0  0  0  0  0  0  0  0  0  0
   10.2904    1.7944   23.8417 H   0  0  0  0  0  0  0  0  0  0  0  0
   10.9290   -1.0116   23.7755 H   0  0  0  0  0  0  0  0  0  0  0  0
   11.0882   -0.0205   25.0635 H   0  0  0  0  0  0  0  0  0  0  0  0
  1  2  2  0  0  0  0
  2  3  1  0  0  0  0
  3  4  1  0  0  0  0
  4  5  1  0  0  0  0
  5  6  2  0  0  0  0
  6  7  1  0  0  0  0
  7  8  1  0  0  0  0
  7  9  1  0  0  0  0
  7 10  1  0  0  0  0
  6 11  1  0  0  0  0
 11 12  2  0  0  0  0
 12 13  1  0  0  0  0
 13 14  2  0  0  0  0
  2 15  1  0  0  0  0
 15 16  1  0  0  0  0
 16 17  1  0  0  0  0
 17 18  1  0  0  0  0
 17 19  1  0  0  0  0
 17 20  1  0  0  0  0
 14  5  1  0  0  0  0
  3 21  1  0  0  0  0
  3 22  1  0  0  0  0
  4 23  1  0  0  0  0
  4 24  1  0  0  0  0
 11 25  1  0  0  0  0
 12 26  1  0  0  0  0
 13 27  1  0  0  0  0
 14 28  1  0  0  0  0
 15 29  1  0  0  0  0
 16 30  1  0  0  0  0
 16 31  1  0  0  0  0
M  END
> <BIOSOLVEIT.HYDE_ESTIMATED_AFFINITY_LOWER_BOUNDARY [nM]>
2681.808620

> <BIOSOLVEIT.HYDE_ESTIMATED_AFFINITY_UPPER_BOUNDARY [nM]>
266453.542554

> <BIOSOLVEIT.HYDE_LIGAND_EFFICIENCY range: ++, +, 0, -, -->
0

> <BIOSOLVEIT.HYDE_LIGAND_LIPOPHILIC_EFFICIENCY range: ++, +, 0, -, -->
--

> <BIOSOLVEIT.INTER_CLASH range: red, yellow, green>
green

> <BIOSOLVEIT.INTRA_CLASH range: red, yellow, green>
green

> <BIOSOLVEIT.LOGP>
3.7419

> <BIOSOLVEIT.MOLECULAR WEIGHT>
360.119

> <BIOSOLVEIT.MOLECULE_CHECKSUM>
LTI2LjEwMjY7MS4zMDUxMw==

> <BIOSOLVEIT.TORSION_QUALITY range: red, yellow, green, not rotatable>
yellow

> <BIOSOLVEIT.TPSA>
29.1

> <BIOSOLVEIT.SEESAR_FAVORITE>
favorite

$$$$
mol_14_1_08
anSeeSAR  04022021533D 1   1.00000     0.00000     0
SeeSAR 9.2 andre
 51 53  0  0  0  0            999 V2000
    7.6614    4.0994   22.6028 C   0  0  0  0  0  0  0  0  0  0  0  0
    7.7793    2.6822   22.1426 C   0  0  0  0  0  0  0  0  0  0  0  0
    8.3717    2.4398   21.0567 O   0  0  0  0  0  0  0  0  0  0  0  0
    7.2206    1.6142   22.9238 N   0  0  0  0  0  0  0  0  0  0  0  0
    7.7826    0.2570   22.9350 C   0  0  2  0  0  0  0  0  0  0  0  0
    6.8434   -0.7063   22.1885 C   0  0  0  0  0  0  0  0  0  0  0  0
    6.6183   -0.2624   20.7648 C   0  0  0  0  0  0  0  0  0  0  0  0
    7.6010   -0.4944   19.7881 C   0  0  0  0  0  0  0  0  0  0  0  0
    7.4033   -0.0653   18.4724 C   0  0  0  0  0  0  0  0  0  0  0  0
    6.2207    0.5981   18.1187 C   0  0  0  0  0  0  0  0  0  0  0  0
    6.0135    1.0325   16.8116 O   0  0  0  0  0  0  0  0  0  0  0  0
    5.2376    0.8270   19.0867 C   0  0  0  0  0  0  0  0  0  0  0  0
    5.4323    0.3981   20.4031 C   0  0  0  0  0  0  0  0  0  0  0  0
    7.9987   -0.2181   24.3500 C   0  0  0  0  0  0  0  0  0  0  0  0
    7.2327    0.1681   25.2754 O   0  0  0  0  0  0  0  0  0  0  0  0
    9.0732   -1.1247   24.6379 N   0  0  0  0  0  0  0  0  0  0  0  0
   10.3245   -1.1368   23.8817 C   0  0  0  0  0  0  0  0  0  0  0  0
   10.9551    0.2630   23.8432 C   0  0  1  0  0  0  0  0  0  0  0  0
   10.3642    1.2087   24.8621 C   0  0  0  0  0  0  0  0  0  0  0  0
   10.8014    2.5657   24.3578 C   0  0  0  0  0  0  0  0  0  0  0  0
   11.5200    2.1967   23.0773 C   0  0  1  0  0  0  0  0  0  0  0  0
   11.6647    3.3162   22.1426 N   0  3  0  0  0  0  0  0  0  0  0  0
   12.7933    1.4103   23.3233 C   0  0  0  0  0  0  0  0  0  0  0  0
   12.3593    0.2585   24.0235 O   0  0  0  0  0  0  0  0  0  0  0  0
   10.7121    1.0302   22.5700 C   0  0  0  0  0  0  0  0  0  0  0  0
    7.1698    4.1274   23.4732 H   0  0  0  0  0  0  0  0  0  0  0  0
    8.5750    4.4878   22.7234 H   0  0  0  0  0  0  0  0  0  0  0  0
    7.1606    4.6311   21.9198 H   0  0  0  0  0  0  0  0  0  0  0  0
    6.4142    1.8027   23.4843 H   0  0  0  0  0  0  0  0  0  0  0  0
    8.6648    0.2722   22.4645 H   0  0  0  0  0  0  0  0  0  0  0  0
    5.9637   -0.7360   22.6631 H   0  0  0  0  0  0  0  0  0  0  0  0
    7.2507   -1.6196   22.1841 H   0  0  0  0  0  0  0  0  0  0  0  0
    8.4459   -0.9689   20.0351 H   0  0  0  0  0  0  0  0  0  0  0  0
    8.1074   -0.2320   17.7822 H   0  0  0  0  0  0  0  0  0  0  0  0
    6.7467    0.9532   16.1362 H   0  0  0  0  0  0  0  0  0  0  0  0
    4.3923    1.2991   18.8364 H   0  0  0  0  0  0  0  0  0  0  0  0
    4.7244    0.5622   21.0901 H   0  0  0  0  0  0  0  0  0  0  0  0
    8.9613   -1.7763   25.3882 H   0  0  0  0  0  0  0  0  0  0  0  0
   10.1388   -1.4381   22.9464 H   0  0  0  0  0  0  0  0  0  0  0  0
   10.9633   -1.7719   24.3158 H   0  0  0  0  0  0  0  0  0  0  0  0
   10.7309    1.0290   25.7749 H   0  0  0  0  0  0  0  0  0  0  0  0
    9.3670    1.1371   24.8835 H   0  0  0  0  0  0  0  0  0  0  0  0
   11.4169    3.0149   25.0054 H   0  0  0  0  0  0  0  0  0  0  0  0
   10.0164    3.1586   24.1780 H   0  0  0  0  0  0  0  0  0  0  0  0
   12.1792    3.0155   21.3395 H   0  0  0  0  0  0  0  0  0  0  0  0
   10.7595    3.6329   21.8592 H   0  0  0  0  0  0  0  0  0  0  0  0
   12.1542    4.0639   22.5913 H   0  0  0  0  0  0  0  0  0  0  0  0
   13.4365    1.9402   23.8761 H   0  0  0  0  0  0  0  0  0  0  0  0
   13.2269    1.1574   22.4584 H   0  0  0  0  0  0  0  0  0  0  0  0
   11.0985    0.5950   21.7567 H   0  0  0  0  0  0  0  0  0  0  0  0
    9.7496    1.2465   22.4067 H   0  0  0  0  0  0  0  0  0  0  0  0
  1  2  1  0  0  0  0
  2  3  2  0  0  0  0
  2  4  1  0  0  0  0
  4  5  1  0  0  0  0
  5  6  1  0  0  0  0
  6  7  1  0  0  0  0
  7  8  2  0  0  0  0
  8  9  1  0  0  0  0
  9 10  2  0  0  0  0
 10 11  1  0  0  0  0
 10 12  1  0  0  0  0
 12 13  2  0  0  0  0
  5 14  1  0  0  0  0
 14 15  2  0  0  0  0
 14 16  1  0  0  0  0
 16 17  1  0  0  0  0
 18 17  1  0  0  0  0
 18 19  1  0  0  0  0
 19 20  1  0  0  0  0
 20 21  1  0  0  0  0
 21 22  1  0  0  0  0
 21 23  1  0  0  0  0
 23 24  1  0  0  0  0
 21 25  1  0  0  0  0
 13  7  1  0  0  0  0
 24 18  1  0  0  0  0
 25 18  1  0  0  0  0
  1 26  1  0  0  0  0
  1 27  1  0  0  0  0
  1 28  1  0  0  0  0
  4 29  1  0  0  0  0
  5 30  1  0  0  0  0
  6 31  1  0  0  0  0
  6 32  1  0  0  0  0
  8 33  1  0  0  0  0
  9 34  1  0  0  0  0
 11 35  1  0  0  0  0
 12 36  1  0  0  0  0
 13 37  1  0  0  0  0
 16 38  1  0  0  0  0
 17 39  1  0  0  0  0
 17 40  1  0  0  0  0
 19 41  1  0  0  0  0
 19 42  1  0  0  0  0
 20 43  1  0  0  0  0
 20 44  1  0  0  0  0
 22 45  1  0  0  0  0
 22 46  1  0  0  0  0
 22 47  1  0  0  0  0
 23 48  1  0  0  0  0
 23 49  1  0  0  0  0
 25 50  1  0  0  0  0
 25 51  1  0  0  0  0
M  CHG  1  22   1
M  END
> <BIOSOLVEIT.HYDE_ESTIMATED_AFFINITY_LOWER_BOUNDARY [nM]>
2931.971965

> <BIOSOLVEIT.HYDE_ESTIMATED_AFFINITY_UPPER_BOUNDARY [nM]>
291308.749913

> <BIOSOLVEIT.HYDE_LIGAND_EFFICIENCY range: ++, +, 0, -, -->
-

> <BIOSOLVEIT.HYDE_LIGAND_LIPOPHILIC_EFFICIENCY range: ++, +, 0, -, -->
+

> <BIOSOLVEIT.INTER_CLASH range: red, yellow, green>
green

> <BIOSOLVEIT.INTRA_CLASH range: red, yellow, green>
red

> <BIOSOLVEIT.LOGP>
-0.5108

> <BIOSOLVEIT.MOLECULAR WEIGHT>
348.42

> <BIOSOLVEIT.MOLECULE_CHECKSUM>
LTI1Ljg4MTU7MS4wMzUyNg==

> <BIOSOLVEIT.TORSION_QUALITY range: red, yellow, green, not rotatable>
red

> <BIOSOLVEIT.TPSA>
115.3

> <BIOSOLVEIT.SEESAR_FAVORITE>
favorite

$$$$
mol_1_1_07
anSeeSAR  04022021533D 1   1.00000     0.00000     0
SeeSAR 9.2 andre
 51 52  0  0  0  0            999 V2000
    7.9208    4.1445   22.7080 C   0  0  0  0  0  0  0  0  0  0  0  0
    7.8839    2.7398   22.2016 C   0  0  0  0  0  0  0  0  0  0  0  0
    8.4842    2.4483   21.1316 O   0  0  0  0  0  0  0  0  0  0  0  0
    7.1610    1.7374   22.9313 N   0  0  0  0  0  0  0  0  0  0  0  0
    7.5414    0.3185   22.9261 C   0  0  2  0  0  0  0  0  0  0  0  0
    6.4972   -0.4999   22.1452 C   0  0  0  0  0  0  0  0  0  0  0  0
    6.3845   -0.0301   20.7164 C   0  0  0  0  0  0  0  0  0  0  0  0
    5.2899    0.7494   20.3070 C   0  0  0  0  0  0  0  0  0  0  0  0
    5.2025    1.2041   18.9880 C   0  0  0  0  0  0  0  0  0  0  0  0
    6.2057    0.8816   18.0641 C   0  0  0  0  0  0  0  0  0  0  0  0
    6.1311    1.3328   16.7488 O   0  0  0  0  0  0  0  0  0  0  0  0
    7.2936    0.0998   18.4655 C   0  0  0  0  0  0  0  0  0  0  0  0
    7.3836   -0.3558   19.7840 C   0  0  0  0  0  0  0  0  0  0  0  0
    7.6622   -0.2073   24.3353 C   0  0  0  0  0  0  0  0  0  0  0  0
    6.7189   -0.0484   25.1585 O   0  0  0  0  0  0  0  0  0  0  0  0
    8.8542   -0.9013   24.7351 N   0  0  0  0  0  0  0  0  0  0  0  0
   10.1689   -0.6002   24.1556 C   0  0  2  0  0  0  0  0  0  0  0  0
   10.6646   -1.8192   23.3635 C   0  0  0  0  0  0  0  0  0  0  0  0
   11.1528   -0.1966   25.2882 C   0  0  0  0  0  0  0  0  0  0  0  0
   12.3508    0.5260   24.7932 N   0  0  0  0  0  0  0  0  0  0  0  0
   11.9995    1.3484   23.6244 C   0  0  0  0  0  0  0  0  0  0  0  0
   13.2189    1.2900   22.7324 C   0  0  0  0  0  0  0  0  0  0  0  0
   13.6236   -0.1594   22.9008 C   0  0  0  0  0  0  0  0  0  0  0  0
   13.3963   -0.4131   24.3783 C   0  0  0  0  0  0  0  0  0  0  0  0
    7.3999    4.2057   23.5594 H   0  0  0  0  0  0  0  0  0  0  0  0
    8.8690    4.4131   22.8773 H   0  0  0  0  0  0  0  0  0  0  0  0
    7.5180    4.7553   22.0262 H   0  0  0  0  0  0  0  0  0  0  0  0
    6.3639    2.0170   23.4663 H   0  0  0  0  0  0  0  0  0  0  0  0
    8.4273    0.2254   22.4718 H   0  0  0  0  0  0  0  0  0  0  0  0
    5.6075   -0.4017   22.5910 H   0  0  0  0  0  0  0  0  0  0  0  0
    6.7683   -1.4625   22.1506 H   0  0  0  0  0  0  0  0  0  0  0  0
    4.5701    0.9800   20.9618 H   0  0  0  0  0  0  0  0  0  0  0  0
    4.4223    1.7608   18.7030 H   0  0  0  0  0  0  0  0  0  0  0  0
    6.8267    1.0570   16.0854 H   0  0  0  0  0  0  0  0  0  0  0  0
    8.0093   -0.1339   17.8074 H   0  0  0  0  0  0  0  0  0  0  0  0
    8.1628   -0.9161   20.0648 H   0  0  0  0  0  0  0  0  0  0  0  0
    8.7863   -1.6145   25.4328 H   0  0  0  0  0  0  0  0  0  0  0  0
   10.0717    0.1714   23.5268 H   0  0  0  0  0  0  0  0  0  0  0  0
   11.5602   -1.6175   22.9672 H   0  0  0  0  0  0  0  0  0  0  0  0
   10.7406   -2.6062   23.9758 H   0  0  0  0  0  0  0  0  0  0  0  0
   10.0156   -2.0276   22.6318 H   0  0  0  0  0  0  0  0  0  0  0  0
   11.4539   -1.0264   25.7581 H   0  0  0  0  0  0  0  0  0  0  0  0
   10.6691    0.3949   25.9333 H   0  0  0  0  0  0  0  0  0  0  0  0
   11.8095    2.2905   23.9006 H   0  0  0  0  0  0  0  0  0  0  0  0
   11.2011    0.9711   23.1551 H   0  0  0  0  0  0  0  0  0  0  0  0
   13.9360    1.9115   23.0480 H   0  0  0  0  0  0  0  0  0  0  0  0
   12.9902    1.5004   21.7819 H   0  0  0  0  0  0  0  0  0  0  0  0
   14.5842   -0.2941   22.6575 H   0  0  0  0  0  0  0  0  0  0  0  0
   13.0509   -0.7589   22.3417 H   0  0  0  0  0  0  0  0  0  0  0  0
   14.2373   -0.2464   24.8929 H   0  0  0  0  0  0  0  0  0  0  0  0
   13.0958   -1.3553   24.5268 H   0  0  0  0  0  0  0  0  0  0  0  0
  1  2  1  0  0  0  0
  2  3  2  0  0  0  0
  2  4  1  0  0  0  0
  4  5  1  0  0  0  0
  5  6  1  0  0  0  0
  6  7  1  0  0  0  0
  7  8  2  0  0  0  0
  8  9  1  0  0  0  0
  9 10  2  0  0  0  0
 10 11  1  0  0  0  0
 10 12  1  0  0  0  0
 12 13  2  0  0  0  0
  5 14  1  0  0  0  0
 14 15  2  0  0  0  0
 14 16  1  0  0  0  0
 16 17  1  0  0  0  0
 17 18  1  0  0  0  0
 17 19  1  0  0  0  0
 19 20  1  0  0  0  0
 20 21  1  0  0  0  0
 21 22  1  0  0  0  0
 22 23  1  0  0  0  0
 23 24  1  0  0  0  0
 13  7  1  0  0  0  0
 24 20  1  0  0  0  0
  1 25  1  0  0  0  0
  1 26  1  0  0  0  0
  1 27  1  0  0  0  0
  4 28  1  0  0  0  0
  5 29  1  0  0  0  0
  6 30  1  0  0  0  0
  6 31  1  0  0  0  0
  8 32  1  0  0  0  0
  9 33  1  0  0  0  0
 11 34  1  0  0  0  0
 12 35  1  0  0  0  0
 13 36  1  0  0  0  0
 16 37  1  0  0  0  0
 17 38  1  0  0  0  0
 18 39  1  0  0  0  0
 18 40  1  0  0  0  0
 18 41  1  0  0  0  0
 19 42  1  0  0  0  0
 19 43  1  0  0  0  0
 24 51  1  0  0  0  0
 21 44  1  0  0  0  0
 21 45  1  0  0  0  0
 22 46  1  0  0  0  0
 22 47  1  0  0  0  0
 23 48  1  0  0  0  0
 23 49  1  0  0  0  0
 24 50  1  0  0  0  0
M  END
> <BIOSOLVEIT.HYDE_ESTIMATED_AFFINITY_LOWER_BOUNDARY [nM]>
3523.044609

> <BIOSOLVEIT.HYDE_ESTIMATED_AFFINITY_UPPER_BOUNDARY [nM]>
350035.311753

> <BIOSOLVEIT.HYDE_LIGAND_EFFICIENCY range: ++, +, 0, -, -->
-

> <BIOSOLVEIT.HYDE_LIGAND_LIPOPHILIC_EFFICIENCY range: ++, +, 0, -, -->
-

> <BIOSOLVEIT.INTER_CLASH range: red, yellow, green>
green

> <BIOSOLVEIT.INTRA_CLASH range: red, yellow, green>
green

> <BIOSOLVEIT.LOGP>
1.0399

> <BIOSOLVEIT.MOLECULAR WEIGHT>
333.429

> <BIOSOLVEIT.MOLECULE_CHECKSUM>
LTI1LjQyNjI7MS4wNTk0Mw==

> <BIOSOLVEIT.TORSION_QUALITY range: red, yellow, green, not rotatable>
red

> <BIOSOLVEIT.TPSA>
81.67

> <BIOSOLVEIT.SEESAR_FAVORITE>
favorite

$$$$
mol_98_1_09
anSeeSAR  04022021533D 1   1.00000     0.00000     0
SeeSAR 9.2 andre
 40 41  0  0  0  0            999 V2000
    7.2458    5.7580   21.6355 C   0  0  0  0  0  0  0  0  0  0  0  0
    7.0478    4.4108   22.2515 C   0  0  0  0  0  0  0  0  0  0  0  0
    5.9592    4.1591   22.8351 O   0  0  0  0  0  0  0  0  0  0  0  0
    8.0809    3.4161   22.1746 N   0  0  0  0  0  0  0  0  0  0  0  0
    8.2720    2.3881   23.2021 C   0  0  1  0  0  0  0  0  0  0  0  0
    7.2362    1.2629   23.0181 C   0  0  0  0  0  0  0  0  0  0  0  0
    6.9795    0.9811   21.5587 C   0  0  0  0  0  0  0  0  0  0  0  0
    7.8558    0.1633   20.8259 C   0  0  0  0  0  0  0  0  0  0  0  0
    7.6258   -0.0777   19.4681 C   0  0  0  0  0  0  0  0  0  0  0  0
    6.5158    0.4920   18.8300 C   0  0  0  0  0  0  0  0  0  0  0  0
    6.2775    0.2601   17.4773 O   0  0  0  0  0  0  0  0  0  0  0  0
    5.6376    1.3017   19.5571 C   0  0  0  0  0  0  0  0  0  0  0  0
    5.8657    1.5452   20.9146 C   0  0  0  0  0  0  0  0  0  0  0  0
    9.6762    1.8600   23.1148 C   0  0  0  0  0  0  0  0  0  0  0  0
   10.7315    2.5529   22.7535 N   0  0  0  0  0  0  0  0  0  0  0  0
   11.7879    1.7652   22.7880 N   0  0  0  0  0  0  0  0  0  0  0  0
   11.3492    0.5854   23.1712 C   0  0  0  0  0  0  0  0  0  0  0  0
   12.2233   -0.6456   23.3463 C   0  0  0  0  0  0  0  0  0  0  0  0
   13.2475   -0.4201   24.4618 C   0  0  0  0  0  0  0  0  0  0  0  0
   12.9159   -1.0013   22.0280 C   0  0  0  0  0  0  0  0  0  0  0  0
   10.0502    0.6299   23.3790 O   0  0  0  0  0  0  0  0  0  0  0  0
    8.1518    5.8022   21.2146 H   0  0  0  0  0  0  0  0  0  0  0  0
    6.5462    5.9115   20.9377 H   0  0  0  0  0  0  0  0  0  0  0  0
    7.1718    6.4618   22.3421 H   0  0  0  0  0  0  0  0  0  0  0  0
    8.6962    3.4252   21.3864 H   0  0  0  0  0  0  0  0  0  0  0  0
    8.1397    2.8036   24.1020 H   0  0  0  0  0  0  0  0  0  0  0  0
    6.3780    1.5371   23.4519 H   0  0  0  0  0  0  0  0  0  0  0  0
    7.5792    0.4309   23.4542 H   0  0  0  0  0  0  0  0  0  0  0  0
    8.6476   -0.2481   21.2774 H   0  0  0  0  0  0  0  0  0  0  0  0
    8.2549   -0.6581   18.9510 H   0  0  0  0  0  0  0  0  0  0  0  0
    5.3409    0.1408   17.1479 H   0  0  0  0  0  0  0  0  0  0  0  0
    4.8438    1.7079   19.1044 H   0  0  0  0  0  0  0  0  0  0  0  0
    5.2330    2.1235   21.4297 H   0  0  0  0  0  0  0  0  0  0  0  0
   11.6369   -1.4118   23.6092 H   0  0  0  0  0  0  0  0  0  0  0  0
   13.8140   -1.2377   24.5645 H   0  0  0  0  0  0  0  0  0  0  0  0
   13.8277    0.3603   24.2287 H   0  0  0  0  0  0  0  0  0  0  0  0
   12.7697   -0.2355   25.3206 H   0  0  0  0  0  0  0  0  0  0  0  0
   13.4864   -1.8120   22.1593 H   0  0  0  0  0  0  0  0  0  0  0  0
   12.2258   -1.1889   21.3290 H   0  0  0  0  0  0  0  0  0  0  0  0
   13.4877   -0.2352   21.7347 H   0  0  0  0  0  0  0  0  0  0  0  0
  1  2  1  0  0  0  0
  2  3  2  0  0  0  0
  2  4  1  0  0  0  0
  4  5  1  0  0  0  0
  5  6  1  0  0  0  0
  6  7  1  0  0  0  0
  7  8  2  0  0  0  0
  8  9  1  0  0  0  0
  9 10  2  0  0  0  0
 10 11  1  0  0  0  0
 10 12  1  0  0  0  0
 12 13  2  0  0  0  0
  5 14  1  0  0  0  0
 14 15  2  0  0  0  0
 15 16  1  0  0  0  0
 16 17  2  0  0  0  0
 17 18  1  0  0  0  0
 18 19  1  0  0  0  0
 18 20  1  0  0  0  0
 17 21  1  0  0  0  0
 13  7  1  0  0  0  0
 21 14  1  0  0  0  0
  1 22  1  0  0  0  0
  1 23  1  0  0  0  0
  1 24  1  0  0  0  0
  4 25  1  0  0  0  0
  5 26  1  0  0  0  0
  6 27  1  0  0  0  0
  6 28  1  0  0  0  0
  8 29  1  0  0  0  0
  9 30  1  0  0  0  0
 11 31  1  0  0  0  0
 12 32  1  0  0  0  0
 13 33  1  0  0  0  0
 18 34  1  0  0  0  0
 19 35  1  0  0  0  0
 19 36  1  0  0  0  0
 19 37  1  0  0  0  0
 20 38  1  0  0  0  0
 20 39  1  0  0  0  0
 20 40  1  0  0  0  0
M  END
> <BIOSOLVEIT.HYDE_ESTIMATED_AFFINITY_LOWER_BOUNDARY [nM]>
3830.039436

> <BIOSOLVEIT.HYDE_ESTIMATED_AFFINITY_UPPER_BOUNDARY [nM]>
380537.062989

> <BIOSOLVEIT.HYDE_LIGAND_EFFICIENCY range: ++, +, 0, -, -->
-

> <BIOSOLVEIT.HYDE_LIGAND_LIPOPHILIC_EFFICIENCY range: ++, +, 0, -, -->
-

> <BIOSOLVEIT.INTER_CLASH range: red, yellow, green>
green

> <BIOSOLVEIT.INTRA_CLASH range: red, yellow, green>
green

> <BIOSOLVEIT.LOGP>
2.3185

> <BIOSOLVEIT.MOLECULAR WEIGHT>
289.333

> <BIOSOLVEIT.MOLECULE_CHECKSUM>
LTI1LjIxOTE7MS4yMDA5MQ==

> <BIOSOLVEIT.TORSION_QUALITY range: red, yellow, green, not rotatable>
green

> <BIOSOLVEIT.TPSA>
88.25

> <BIOSOLVEIT.SEESAR_FAVORITE>
favorite

$$$$
mol_60_1_03
anSeeSAR  04022021533D 1   1.00000     0.00000     0
SeeSAR 9.2 andre
 40 41  0  0  0  0            999 V2000
    7.3124    4.1600   22.0090 C   0  0  0  0  0  0  0  0  0  0  0  0
    7.5547    2.6900   21.8881 C   0  0  0  0  0  0  0  0  0  0  0  0
    8.5105    2.2850   21.1731 O   0  0  0  0  0  0  0  0  0  0  0  0
    6.7067    1.7538   22.5718 N   0  0  0  0  0  0  0  0  0  0  0  0
    7.1800    0.4433   23.0371 C   0  0  2  0  0  0  0  0  0  0  0  0
    6.6804   -0.6608   22.0882 C   0  0  0  0  0  0  0  0  0  0  0  0
    6.5291   -0.1485   20.6777 C   0  0  0  0  0  0  0  0  0  0  0  0
    5.3488    0.4999   20.2776 C   0  0  0  0  0  0  0  0  0  0  0  0
    5.2217    0.9922   18.9752 C   0  0  0  0  0  0  0  0  0  0  0  0
    6.2705    0.8382   18.0586 C   0  0  0  0  0  0  0  0  0  0  0  0
    6.1555    1.3261   16.7590 O   0  0  0  0  0  0  0  0  0  0  0  0
    7.4449    0.1883   18.4510 C   0  0  0  0  0  0  0  0  0  0  0  0
    7.5750   -0.3043   19.7528 C   0  0  0  0  0  0  0  0  0  0  0  0
    6.7045    0.1723   24.4429 C   0  0  0  0  0  0  0  0  0  0  0  0
    6.0077    1.0270   25.0570 O   0  0  0  0  0  0  0  0  0  0  0  0
    7.0428   -1.0678   25.0811 N   0  0  0  0  0  0  0  0  0  0  0  0
    8.2756   -1.7912   24.7825 C   0  0  0  0  0  0  0  0  0  0  0  0
    9.4612   -0.9333   25.0857 C   0  0  0  0  0  0  0  0  0  0  0  0
    9.5652   -0.1051   26.0994 N   0  0  0  0  0  0  0  0  0  0  0  0
   10.7431    0.4842   26.0461 N   0  0  0  0  0  0  0  0  0  0  0  0
   11.3450    0.0006   24.9805 C   0  0  0  0  0  0  0  0  0  0  0  0
   12.6249    0.3676   24.5515 N   0  0  0  0  0  0  0  0  0  0  0  0
   10.5667   -0.8767   24.3805 O   0  0  0  0  0  0  0  0  0  0  0  0
    6.5257    4.3203   22.6051 H   0  0  0  0  0  0  0  0  0  0  0  0
    8.1212    4.6002   22.3989 H   0  0  0  0  0  0  0  0  0  0  0  0
    7.1282    4.5430   21.1038 H   0  0  0  0  0  0  0  0  0  0  0  0
    5.7531    2.0048   22.7381 H   0  0  0  0  0  0  0  0  0  0  0  0
    8.1800    0.4429   23.0312 H   0  0  0  0  0  0  0  0  0  0  0  0
    5.7933   -0.9904   22.4113 H   0  0  0  0  0  0  0  0  0  0  0  0
    7.3376   -1.4145   22.0917 H   0  0  0  0  0  0  0  0  0  0  0  0
    4.5963    0.6097   20.9270 H   0  0  0  0  0  0  0  0  0  0  0  0
    4.3803    1.4555   18.6970 H   0  0  0  0  0  0  0  0  0  0  0  0
    6.8312    1.0707   16.0675 H   0  0  0  0  0  0  0  0  0  0  0  0
    8.1941    0.0756   17.7983 H   0  0  0  0  0  0  0  0  0  0  0  0
    8.4166   -0.7698   20.0270 H   0  0  0  0  0  0  0  0  0  0  0  0
    6.4110   -1.4506   25.7551 H   0  0  0  0  0  0  0  0  0  0  0  0
    8.2866   -2.0402   23.8140 H   0  0  0  0  0  0  0  0  0  0  0  0
    8.3159   -2.6202   25.3403 H   0  0  0  0  0  0  0  0  0  0  0  0
   12.7409    1.1420   23.9295 H   0  0  0  0  0  0  0  0  0  0  0  0
   13.4239   -0.1445   24.8667 H   0  0  0  0  0  0  0  0  0  0  0  0
  1  2  1  0  0  0  0
  2  3  2  0  0  0  0
  2  4  1  0  0  0  0
  4  5  1  0  0  0  0
  5  6  1  0  0  0  0
  6  7  1  0  0  0  0
  7  8  2  0  0  0  0
  8  9  1  0  0  0  0
  9 10  2  0  0  0  0
 10 11  1  0  0  0  0
 10 12  1  0  0  0  0
 12 13  2  0  0  0  0
  5 14  1  0  0  0  0
 14 15  2  0  0  0  0
 14 16  1  0  0  0  0
 16 17  1  0  0  0  0
 17 18  1  0  0  0  0
 18 19  2  0  0  0  0
 19 20  1  0  0  0  0
 20 21  2  0  0  0  0
 21 22  1  0  0  0  0
 21 23  1  0  0  0  0
 13  7  1  0  0  0  0
 23 18  1  0  0  0  0
  1 24  1  0  0  0  0
  1 25  1  0  0  0  0
  1 26  1  0  0  0  0
  4 27  1  0  0  0  0
  5 28  1  0  0  0  0
  6 29  1  0  0  0  0
  6 30  1  0  0  0  0
  8 31  1  0  0  0  0
  9 32  1  0  0  0  0
 11 33  1  0  0  0  0
 12 34  1  0  0  0  0
 13 35  1  0  0  0  0
 16 36  1  0  0  0  0
 17 37  1  0  0  0  0
 17 38  1  0  0  0  0
 22 39  1  0  0  0  0
 22 40  1  0  0  0  0
M  END
> <BIOSOLVEIT.HYDE_ESTIMATED_AFFINITY_LOWER_BOUNDARY [nM]>
11140.152236

> <BIOSOLVEIT.HYDE_ESTIMATED_AFFINITY_UPPER_BOUNDARY [nM]>
1106839.990474

> <BIOSOLVEIT.HYDE_LIGAND_EFFICIENCY range: ++, +, 0, -, -->
-

> <BIOSOLVEIT.HYDE_LIGAND_LIPOPHILIC_EFFICIENCY range: ++, +, 0, -, -->
0

> <BIOSOLVEIT.INTER_CLASH range: red, yellow, green>
green

> <BIOSOLVEIT.INTRA_CLASH range: red, yellow, green>
green

> <BIOSOLVEIT.LOGP>
-0.279

> <BIOSOLVEIT.MOLECULAR WEIGHT>
319.319

> <BIOSOLVEIT.MOLECULE_CHECKSUM>
LTIyLjU3MjQ7MC45ODE0MDg=

> <BIOSOLVEIT.TORSION_QUALITY range: red, yellow, green, not rotatable>
yellow

> <BIOSOLVEIT.TPSA>
143.37

$$$$
mol_29_1_07
anSeeSAR  04022021533D 1   1.00000     0.00000     0
SeeSAR 9.2 andre
 55 57  0  0  0  0            999 V2000
   13.3609   -1.1320   22.1066 C   0  0  0  0  0  0  0  0  0  0  0  0
   12.1617   -1.0447   23.0404 C   0  0  2  0  0  0  0  0  0  0  0  0
   10.9604   -0.5985   22.2212 C   0  0  0  0  0  0  0  0  0  0  0  0
   10.4365    0.6650   22.7623 N   0  3  2  0  0  0  0  0  0  0  0  0
   11.5232    1.6555   22.6816 C   0  0  0  0  0  0  0  0  0  0  0  0
   12.6266    1.2876   23.6644 C   0  0  0  0  0  0  0  0  0  0  0  0
   12.3669   -0.0797   24.1362 N   0  3  1  0  0  0  0  0  0  0  0  0
   11.1678    0.0465   24.9804 C   0  0  0  0  0  0  0  0  0  0  0  0
    9.9670    0.4581   24.1406 C   0  0  1  0  0  0  0  0  0  0  0  0
    9.2591    1.6784   24.7233 C   0  0  0  0  0  0  0  0  0  0  0  0
    9.9073    2.7492   24.8754 O   0  0  0  0  0  0  0  0  0  0  0  0
    7.8365    1.6757   25.0123 N   0  0  0  0  0  0  0  0  0  0  0  0
    7.1415    2.8507   25.5658 C   0  0  0  0  0  0  0  0  0  0  0  0
    6.0960    3.3706   24.6111 C   0  0  0  0  0  0  0  0  0  0  0  0
    4.8865    3.0584   24.7941 O   0  0  0  0  0  0  0  0  0  0  0  0
    6.4491    4.2363   23.5109 N   0  0  0  0  0  0  0  0  0  0  0  0
    5.5087    5.2502   23.0216 C   0  0  0  0  0  0  0  0  0  0  0  0
    7.7675    4.0925   22.8853 C   0  0  0  0  0  0  0  0  0  0  0  0
    7.0595    0.4380   24.8421 C   0  0  0  0  0  0  0  0  0  0  0  0
    6.7933    0.1886   23.3811 C   0  0  0  0  0  0  0  0  0  0  0  0
    7.4545   -0.8495   22.7030 C   0  0  0  0  0  0  0  0  0  0  0  0
    7.2154   -1.0672   21.3426 C   0  0  0  0  0  0  0  0  0  0  0  0
    6.3156   -0.2519   20.6490 C   0  0  0  0  0  0  0  0  0  0  0  0
    5.9921   -0.5501   18.7907 Br  0  0  0  0  0  0  0  0  0  0  0  0
    5.6534    0.7824   21.3177 C   0  0  0  0  0  0  0  0  0  0  0  0
    5.8900    1.0028   22.6778 C   0  0  0  0  0  0  0  0  0  0  0  0
   14.1654   -1.4244   22.6237 H   0  0  0  0  0  0  0  0  0  0  0  0
   13.1715   -1.7946   21.3820 H   0  0  0  0  0  0  0  0  0  0  0  0
   13.5335   -0.2345   21.7009 H   0  0  0  0  0  0  0  0  0  0  0  0
   11.9791   -1.9485   23.4274 H   0  0  0  0  0  0  0  0  0  0  0  0
   10.2488   -1.2997   22.2647 H   0  0  0  0  0  0  0  0  0  0  0  0
   11.2377   -0.4636   21.2699 H   0  0  0  0  0  0  0  0  0  0  0  0
    9.6705    0.9715   22.1972 H   0  0  0  0  0  0  0  0  0  0  0  0
   11.1649    2.5612   22.9079 H   0  0  0  0  0  0  0  0  0  0  0  0
   11.8948    1.6664   21.7533 H   0  0  0  0  0  0  0  0  0  0  0  0
   12.6195    1.9218   24.4375 H   0  0  0  0  0  0  0  0  0  0  0  0
   13.5158    1.3275   23.2086 H   0  0  0  0  0  0  0  0  0  0  0  0
   13.1347   -0.3830   24.7005 H   0  0  0  0  0  0  0  0  0  0  0  0
   11.3311    0.7390   25.6831 H   0  0  0  0  0  0  0  0  0  0  0  0
   10.9783   -0.8330   25.4170 H   0  0  0  0  0  0  0  0  0  0  0  0
    9.3180   -0.3026   24.1353 H   0  0  0  0  0  0  0  0  0  0  0  0
    7.8110    3.5728   25.7401 H   0  0  0  0  0  0  0  0  0  0  0  0
    6.6987    2.5925   26.4244 H   0  0  0  0  0  0  0  0  0  0  0  0
    5.9236    5.7504   22.2615 H   0  0  0  0  0  0  0  0  0  0  0  0
    4.6703    4.8039   22.7088 H   0  0  0  0  0  0  0  0  0  0  0  0
    5.2913    5.8875   23.7608 H   0  0  0  0  0  0  0  0  0  0  0  0
    7.8594    4.7582   22.1448 H   0  0  0  0  0  0  0  0  0  0  0  0
    8.4799    4.2533   23.5684 H   0  0  0  0  0  0  0  0  0  0  0  0
    7.8623    3.1680   22.5162 H   0  0  0  0  0  0  0  0  0  0  0  0
    6.1890    0.5251   25.3265 H   0  0  0  0  0  0  0  0  0  0  0  0
    7.5757   -0.3307   25.2199 H   0  0  0  0  0  0  0  0  0  0  0  0
    8.0986   -1.4349   23.1953 H   0  0  0  0  0  0  0  0  0  0  0  0
    7.6887   -1.8073   20.8648 H   0  0  0  0  0  0  0  0  0  0  0  0
    5.0096    1.3653   20.8222 H   0  0  0  0  0  0  0  0  0  0  0  0
    5.4141    1.7433   23.1522 H   0  0  0  0  0  0  0  0  0  0  0  0
  1  2  1  0  0  0  0
  2  3  1  0  0  0  0
  3  4  1  0  0  0  0
  4  5  1  0  0  0  0
  5  6  1  0  0  0  0
  6  7  1  0  0  0  0
  7  8  1  0  0  0  0
  8  9  1  0  0  0  0
  9 10  1  0  0  0  0
 10 11  2  0  0  0  0
 10 12  1  0  0  0  0
 12 13  1  0  0  0  0
 13 14  1  0  0  0  0
 14 15  2  0  0  0  0
 14 16  1  0  0  0  0
 16 17  1  0  0  0  0
 16 18  1  0  0  0  0
 12 19  1  0  0  0  0
 19 20  1  0  0  0  0
 20 21  2  0  0  0  0
 21 22  1  0  0  0  0
 22 23  2  0  0  0  0
 23 24  1  0  0  0  0
 23 25  1  0  0  0  0
 25 26  2  0  0  0  0
  7  2  1  0  0  0  0
 26 20  1  0  0  0  0
  9  4  1  0  0  0  0
  1 27  1  0  0  0  0
  1 28  1  0  0  0  0
  1 29  1  0  0  0  0
  2 30  1  0  0  0  0
  3 31  1  0  0  0  0
  3 32  1  0  0  0  0
  4 33  1  0  0  0  0
  5 34  1  0  0  0  0
  5 35  1  0  0  0  0
  6 36  1  0  0  0  0
  6 37  1  0  0  0  0
  7 38  1  0  0  0  0
  8 39  1  0  0  0  0
  8 40  1  0  0  0  0
  9 41  1  0  0  0  0
 13 42  1  0  0  0  0
 13 43  1  0  0  0  0
 17 44  1  0  0  0  0
 17 45  1  0  0  0  0
 17 46  1  0  0  0  0
 18 47  1  0  0  0  0
 18 48  1  0  0  0  0
 18 49  1  0  0  0  0
 19 50  1  0  0  0  0
 19 51  1  0  0  0  0
 21 52  1  0  0  0  0
 22 53  1  0  0  0  0
 25 54  1  0  0  0  0
 26 55  1  0  0  0  0
M  CHG  2   4   1   7   1
M  END
> <BIOSOLVEIT.HYDE_ESTIMATED_AFFINITY_LOWER_BOUNDARY [nM]>
11206.351313

> <BIOSOLVEIT.HYDE_ESTIMATED_AFFINITY_UPPER_BOUNDARY [nM]>
1113417.260104

> <BIOSOLVEIT.HYDE_LIGAND_EFFICIENCY range: ++, +, 0, -, -->
-

> <BIOSOLVEIT.HYDE_LIGAND_LIPOPHILIC_EFFICIENCY range: ++, +, 0, -, -->
+

> <BIOSOLVEIT.INTER_CLASH range: red, yellow, green>
green

> <BIOSOLVEIT.INTRA_CLASH range: red, yellow, green>
green

> <BIOSOLVEIT.LOGP>
-1.58

> <BIOSOLVEIT.MOLECULAR WEIGHT>
425.368

> <BIOSOLVEIT.MOLECULE_CHECKSUM>
LTIyLjU1Nzc7MC44Njc2MDQ=

> <BIOSOLVEIT.TORSION_QUALITY range: red, yellow, green, not rotatable>
red

> <BIOSOLVEIT.TPSA>
49.5

$$$$
mol_90_1_05
anSeeSAR  04022021533D 1   1.00000     0.00000     0
SeeSAR 9.2 andre
 35 35  0  0  0  0            999 V2000
    8.9352    1.0648   26.1050 O   0  0  0  0  0  0  0  0  0  0  0  0
    8.7620    0.6961   24.7588 C   0  0  1  0  0  0  0  0  0  0  0  0
    9.7597   -0.4136   24.3857 C   0  0  0  0  0  0  0  0  0  0  0  0
   11.4554    0.0206   24.9206 S   0  0  0  0  0  0  0  0  0  0  0  0
   11.7844    1.2165   23.5776 C   0  0  0  0  0  0  0  0  0  0  0  0
   13.1673    0.9750   22.9693 C   0  0  0  0  0  0  0  0  0  0  0  0
   13.5835   -0.4867   23.1108 C   0  0  0  0  0  0  0  0  0  0  0  0
   13.5630   -1.0978   21.8706 F   0  0  0  0  0  0  0  0  0  0  0  0
    7.3011    0.2682   24.4986 C   0  0  0  0  0  0  0  0  0  0  0  0
    6.9857    0.2520   23.0240 C   0  0  0  0  0  0  0  0  0  0  0  0
    7.2705   -0.8853   22.2525 C   0  0  0  0  0  0  0  0  0  0  0  0
    6.9785   -0.9044   20.8859 C   0  0  0  0  0  0  0  0  0  0  0  0
    6.3761    0.2062   20.2703 C   0  0  0  0  0  0  0  0  0  0  0  0
    6.1076    0.2047   18.7863 C   0  0  0  0  0  0  0  0  0  0  0  0
    5.8274   -1.0756   18.3417 F   0  0  0  0  0  0  0  0  0  0  0  0
    5.0254    1.0134   18.4845 F   0  0  0  0  0  0  0  0  0  0  0  0
    7.2231    0.6785   18.1217 F   0  0  0  0  0  0  0  0  0  0  0  0
    6.1122    1.3520   21.0404 C   0  0  0  0  0  0  0  0  0  0  0  0
    6.4041    1.3705   22.4073 C   0  0  0  0  0  0  0  0  0  0  0  0
    8.4899    1.9450   26.2695 H   0  0  0  0  0  0  0  0  0  0  0  0
    8.9581    1.4948   24.1899 H   0  0  0  0  0  0  0  0  0  0  0  0
    9.7522   -0.5399   23.3937 H   0  0  0  0  0  0  0  0  0  0  0  0
    9.4840   -1.2648   24.8322 H   0  0  0  0  0  0  0  0  0  0  0  0
   11.7453    2.1448   23.9472 H   0  0  0  0  0  0  0  0  0  0  0  0
   11.0894    1.1113   22.8663 H   0  0  0  0  0  0  0  0  0  0  0  0
   13.8358    1.5516   23.4390 H   0  0  0  0  0  0  0  0  0  0  0  0
   13.1435    1.2151   21.9988 H   0  0  0  0  0  0  0  0  0  0  0  0
   12.9474   -0.9559   23.7234 H   0  0  0  0  0  0  0  0  0  0  0  0
   14.5077   -0.5343   23.4899 H   0  0  0  0  0  0  0  0  0  0  0  0
    6.6874    0.9122   24.9554 H   0  0  0  0  0  0  0  0  0  0  0  0
    7.1596   -0.6488   24.8715 H   0  0  0  0  0  0  0  0  0  0  0  0
    7.6849   -1.6870   22.6834 H   0  0  0  0  0  0  0  0  0  0  0  0
    7.1997   -1.7140   20.3422 H   0  0  0  0  0  0  0  0  0  0  0  0
    5.7127    2.1600   20.6072 H   0  0  0  0  0  0  0  0  0  0  0  0
    6.1972    2.1854   22.9488 H   0  0  0  0  0  0  0  0  0  0  0  0
  1  2  1  0  0  0  0
  2  3  1  0  0  0  0
  3  4  1  0  0  0  0
  4  5  1  0  0  0  0
  5  6  1  0  0  0  0
  6  7  1  0  0  0  0
  7  8  1  0  0  0  0
  2  9  1  0  0  0  0
  9 10  1  0  0  0  0
 10 11  2  0  0  0  0
 11 12  1  0  0  0  0
 12 13  2  0  0  0  0
 13 14  1  0  0  0  0
 14 15  1  0  0  0  0
 14 16  1  0  0  0  0
 14 17  1  0  0  0  0
 13 18  1  0  0  0  0
 18 19  2  0  0  0  0
 19 10  1  0  0  0  0
  1 20  1  0  0  0  0
  2 21  1  0  0  0  0
  3 22  1  0  0  0  0
  3 23  1  0  0  0  0
  5 24  1  0  0  0  0
  5 25  1  0  0  0  0
  6 26  1  0  0  0  0
  6 27  1  0  0  0  0
  7 28  1  0  0  0  0
  7 29  1  0  0  0  0
  9 30  1  0  0  0  0
  9 31  1  0  0  0  0
 11 32  1  0  0  0  0
 12 33  1  0  0  0  0
 18 34  1  0  0  0  0
 19 35  1  0  0  0  0
M  END
> <BIOSOLVEIT.HYDE_ESTIMATED_AFFINITY_LOWER_BOUNDARY [nM]>
11880.006108

> <BIOSOLVEIT.HYDE_ESTIMATED_AFFINITY_UPPER_BOUNDARY [nM]>
1180348.846935

> <BIOSOLVEIT.HYDE_LIGAND_EFFICIENCY range: ++, +, 0, -, -->
-

> <BIOSOLVEIT.HYDE_LIGAND_LIPOPHILIC_EFFICIENCY range: ++, +, 0, -, -->
--

> <BIOSOLVEIT.INTER_CLASH range: red, yellow, green>
green

> <BIOSOLVEIT.INTRA_CLASH range: red, yellow, green>
green

> <BIOSOLVEIT.LOGP>
3.7016

> <BIOSOLVEIT.MOLECULAR WEIGHT>
296.325

> <BIOSOLVEIT.MOLECULE_CHECKSUM>
LTIyLjQxMzsxLjE3OTYz

> <BIOSOLVEIT.TORSION_QUALITY range: red, yellow, green, not rotatable>
red

> <BIOSOLVEIT.TPSA>
20.23

$$$$
mol_79_1_04
anSeeSAR  04022021533D 1   1.00000     0.00000     0
SeeSAR 9.2 andre
 34 34  0  0  0  0            999 V2000
    7.4923   -1.9353   21.4733 C   0  0  0  0  0  0  0  0  0  0  0  0
    7.7125   -0.5167   21.1695 N   0  0  0  0  0  0  0  0  0  0  0  0
    8.8529    0.1815   21.7121 C   0  0  0  0  0  0  0  0  0  0  0  0
    9.3080    1.1910   21.1106 O   0  0  0  0  0  0  0  0  0  0  0  0
    9.4490   -0.2597   22.9486 N   0  0  0  0  0  0  0  0  0  0  0  0
   10.1173    0.6046   23.9455 C   0  0  0  0  0  0  0  0  0  0  0  0
    9.5392    2.0361   23.8965 C   0  0  0  0  0  0  0  0  0  0  0  0
    9.8383    0.0304   25.3543 C   0  0  0  0  0  0  0  0  0  0  0  0
   11.6507    0.6186   23.7048 C   0  0  0  0  0  0  0  0  0  0  0  0
   11.9515    0.4373   22.3675 F   0  0  0  0  0  0  0  0  0  0  0  0
   12.2540   -0.3958   24.4282 F   0  0  0  0  0  0  0  0  0  0  0  0
   12.1931    1.8282   24.1058 F   0  0  0  0  0  0  0  0  0  0  0  0
    6.7501    0.1754   20.4247 C   0  0  0  0  0  0  0  0  0  0  0  0
    6.8957    0.2750   19.0451 C   0  0  0  0  0  0  0  0  0  0  0  0
    5.9329    0.9651   18.3164 C   0  0  0  0  0  0  0  0  0  0  0  0
    6.0638    1.0680   16.9766 O   0  0  0  0  0  0  0  0  0  0  0  0
    4.8387    1.5494   18.9458 C   0  0  0  0  0  0  0  0  0  0  0  0
    4.7121    1.4381   20.3265 C   0  0  0  0  0  0  0  0  0  0  0  0
    5.6637    0.7522   21.0743 C   0  0  0  0  0  0  0  0  0  0  0  0
    6.6605   -2.2491   21.0154 H   0  0  0  0  0  0  0  0  0  0  0  0
    8.2728   -2.4704   21.1502 H   0  0  0  0  0  0  0  0  0  0  0  0
    7.3935   -2.0532   22.4614 H   0  0  0  0  0  0  0  0  0  0  0  0
    9.4067   -1.2382   23.1503 H   0  0  0  0  0  0  0  0  0  0  0  0
   10.0018    2.6058   24.5759 H   0  0  0  0  0  0  0  0  0  0  0  0
    9.6817    2.4221   22.9851 H   0  0  0  0  0  0  0  0  0  0  0  0
    8.5599    2.0072   24.0969 H   0  0  0  0  0  0  0  0  0  0  0  0
   10.2836    0.6037   26.0421 H   0  0  0  0  0  0  0  0  0  0  0  0
    8.8521    0.0170   25.5194 H   0  0  0  0  0  0  0  0  0  0  0  0
   10.1987   -0.9006   25.4122 H   0  0  0  0  0  0  0  0  0  0  0  0
    7.6793   -0.1425   18.5850 H   0  0  0  0  0  0  0  0  0  0  0  0
    5.8144    1.9186   16.5137 H   0  0  0  0  0  0  0  0  0  0  0  0
    4.1518    2.0431   18.4124 H   0  0  0  0  0  0  0  0  0  0  0  0
    3.9285    1.8557   20.7865 H   0  0  0  0  0  0  0  0  0  0  0  0
    5.5680    0.6748   22.0667 H   0  0  0  0  0  0  0  0  0  0  0  0
  1  2  1  0  0  0  0
  2  3  1  0  0  0  0
  3  4  2  0  0  0  0
  3  5  1  0  0  0  0
  5  6  1  0  0  0  0
  6  7  1  0  0  0  0
  6  8  1  0  0  0  0
  6  9  1  0  0  0  0
  9 10  1  0  0  0  0
  9 11  1  0  0  0  0
  9 12  1  0  0  0  0
  2 13  1  0  0  0  0
 13 14  2  0  0  0  0
 14 15  1  0  0  0  0
 15 16  1  0  0  0  0
 15 17  2  0  0  0  0
 17 18  1  0  0  0  0
 18 19  2  0  0  0  0
 19 13  1  0  0  0  0
  1 20  1  0  0  0  0
  1 21  1  0  0  0  0
  1 22  1  0  0  0  0
  5 23  1  0  0  0  0
  7 24  1  0  0  0  0
  7 25  1  0  0  0  0
  7 26  1  0  0  0  0
  8 27  1  0  0  0  0
  8 28  1  0  0  0  0
  8 29  1  0  0  0  0
 14 30  1  0  0  0  0
 16 31  1  0  0  0  0
 17 32  1  0  0  0  0
 18 33  1  0  0  0  0
 19 34  1  0  0  0  0
M  END
> <BIOSOLVEIT.HYDE_ESTIMATED_AFFINITY_LOWER_BOUNDARY [nM]>
13911.813913

> <BIOSOLVEIT.HYDE_ESTIMATED_AFFINITY_UPPER_BOUNDARY [nM]>
1382220.965434

> <BIOSOLVEIT.HYDE_LIGAND_EFFICIENCY range: ++, +, 0, -, -->
-

> <BIOSOLVEIT.HYDE_LIGAND_LIPOPHILIC_EFFICIENCY range: ++, +, 0, -, -->
--

> <BIOSOLVEIT.INTER_CLASH range: red, yellow, green>
green

> <BIOSOLVEIT.INTRA_CLASH range: red, yellow, green>
green

> <BIOSOLVEIT.LOGP>
2.8789

> <BIOSOLVEIT.MOLECULAR WEIGHT>
276.257

> <BIOSOLVEIT.MOLECULE_CHECKSUM>
LTIyLjAyMTY7MS4xNTkwMw==

> <BIOSOLVEIT.TORSION_QUALITY range: red, yellow, green, not rotatable>
yellow

> <BIOSOLVEIT.TPSA>
52.57

$$$$
mol_84_1_03
anSeeSAR  04022021533D 1   1.00000     0.00000     0
SeeSAR 9.2 andre
 61 62  0  0  0  0            999 V2000
   11.2326    4.5916   23.5048 C   0  0  0  0  0  0  0  0  0  0  0  0
   12.4613    3.2919   23.1718 S   0  0  0  0  0  0  0  0  0  0  0  0
   11.2629    2.1389   22.6679 C   0  0  0  0  0  0  0  0  0  0  0  0
    9.9863    2.3668   22.4504 N   0  0  0  0  0  0  0  0  0  0  0  0
    9.4007    1.2414   22.0792 N   0  0  0  0  0  0  0  0  0  0  0  0
   10.3096    0.3018   22.0697 C   0  0  0  0  0  0  0  0  0  0  0  0
   10.0763   -1.1403   21.7157 C   0  0  0  0  0  0  0  0  0  0  0  0
    9.3787   -1.9056   22.8511 C   0  0  0  0  0  0  0  0  0  0  0  0
    7.9353   -2.3050   22.5166 C   0  0  0  0  0  0  0  0  0  0  0  0
    7.0461   -2.0495   23.6512 N   0  0  0  0  0  0  0  0  0  0  0  0
    6.7970   -0.7271   24.1633 C   0  0  0  0  0  0  0  0  0  0  0  0
    6.5328   -0.5735   25.3865 O   0  0  0  0  0  0  0  0  0  0  0  0
    6.8724    0.5117   23.2945 C   0  0  1  0  0  0  0  0  0  0  0  0
    5.5436    0.9511   22.6385 C   0  0  0  0  0  0  0  0  0  0  0  0
    5.6220    0.8913   21.1318 C   0  0  0  0  0  0  0  0  0  0  0  0
    4.6993    1.5966   20.3406 C   0  0  0  0  0  0  0  0  0  0  0  0
    4.7837    1.5489   18.9459 C   0  0  0  0  0  0  0  0  0  0  0  0
    5.7851    0.7897   18.3264 C   0  0  0  0  0  0  0  0  0  0  0  0
    5.8807    0.7382   16.9378 O   0  0  0  0  0  0  0  0  0  0  0  0
    6.6990    0.0769   19.1090 C   0  0  0  0  0  0  0  0  0  0  0  0
    6.6189    0.1248   20.5039 C   0  0  0  0  0  0  0  0  0  0  0  0
    7.5187    1.6176   24.0178 N   0  0  0  0  0  0  0  0  0  0  0  0
    6.9255    2.4621   25.0237 C   0  0  0  0  0  0  0  0  0  0  0  0
    7.6814    3.5350   25.7468 C   0  0  0  0  0  0  0  0  0  0  0  0
    5.7241    2.2638   25.3472 O   0  0  0  0  0  0  0  0  0  0  0  0
   11.5107    0.8308   22.4294 N   0  0  0  0  0  0  0  0  0  0  0  0
   12.7982    0.1308   22.5383 C   0  0  0  0  0  0  0  0  0  0  0  0
   12.7888   -0.8859   23.6985 C   0  0  0  0  0  0  0  0  0  0  0  0
   12.8970   -0.1560   25.0424 C   0  0  0  0  0  0  0  0  0  0  0  0
   13.9227   -1.9104   23.5615 C   0  0  0  0  0  0  0  0  0  0  0  0
   11.6980    5.4151   23.8291 H   0  0  0  0  0  0  0  0  0  0  0  0
   10.7323    4.8005   22.6646 H   0  0  0  0  0  0  0  0  0  0  0  0
   10.5920    4.2736   24.2038 H   0  0  0  0  0  0  0  0  0  0  0  0
   10.9579   -1.5735   21.5283 H   0  0  0  0  0  0  0  0  0  0  0  0
    9.5032   -1.1834   20.8974 H   0  0  0  0  0  0  0  0  0  0  0  0
    9.3668   -1.3246   23.6649 H   0  0  0  0  0  0  0  0  0  0  0  0
    9.9017   -2.7362   23.0421 H   0  0  0  0  0  0  0  0  0  0  0  0
    7.9087   -3.2792   22.2928 H   0  0  0  0  0  0  0  0  0  0  0  0
    7.6226   -1.7734   21.7295 H   0  0  0  0  0  0  0  0  0  0  0  0
    6.5927   -2.8260   24.0888 H   0  0  0  0  0  0  0  0  0  0  0  0
    7.4873    0.2808   22.5405 H   0  0  0  0  0  0  0  0  0  0  0  0
    5.3394    1.8899   22.9160 H   0  0  0  0  0  0  0  0  0  0  0  0
    4.8118    0.3448   22.9498 H   0  0  0  0  0  0  0  0  0  0  0  0
    3.9788    2.1352   20.7774 H   0  0  0  0  0  0  0  0  0  0  0  0
    4.1276    2.0581   18.3889 H   0  0  0  0  0  0  0  0  0  0  0  0
    6.7706    0.6014   16.5026 H   0  0  0  0  0  0  0  0  0  0  0  0
    7.4122   -0.4689   18.6692 H   0  0  0  0  0  0  0  0  0  0  0  0
    7.2742   -0.3888   21.0577 H   0  0  0  0  0  0  0  0  0  0  0  0
    8.4735    1.8037   23.7863 H   0  0  0  0  0  0  0  0  0  0  0  0
    7.0732    3.9914   26.3962 H   0  0  0  0  0  0  0  0  0  0  0  0
    8.4497    3.1268   26.2399 H   0  0  0  0  0  0  0  0  0  0  0  0
    8.0258    4.2026   25.0868 H   0  0  0  0  0  0  0  0  0  0  0  0
   13.5212    0.8024   22.7000 H   0  0  0  0  0  0  0  0  0  0  0  0
   12.9787   -0.3538   21.6824 H   0  0  0  0  0  0  0  0  0  0  0  0
   11.9181   -1.3772   23.6778 H   0  0  0  0  0  0  0  0  0  0  0  0
   12.8900   -0.8244   25.7862 H   0  0  0  0  0  0  0  0  0  0  0  0
   13.7499    0.3653   25.0708 H   0  0  0  0  0  0  0  0  0  0  0  0
   12.1219    0.4670   25.1467 H   0  0  0  0  0  0  0  0  0  0  0  0
   13.8867   -2.5519   24.3278 H   0  0  0  0  0  0  0  0  0  0  0  0
   13.8174   -2.4112   22.7023 H   0  0  0  0  0  0  0  0  0  0  0  0
   14.8029   -1.4359   23.5650 H   0  0  0  0  0  0  0  0  0  0  0  0
  1  2  1  0  0  0  0
  2  3  1  0  0  0  0
  3  4  2  0  0  0  0
  4  5  1  0  0  0  0
  5  6  2  0  0  0  0
  6  7  1  0  0  0  0
  7  8  1  0  0  0  0
  8  9  1  0  0  0  0
  9 10  1  0  0  0  0
 10 11  1  0  0  0  0
 11 12  2  0  0  0  0
 11 13  1  0  0  0  0
 13 14  1  0  0  0  0
 14 15  1  0  0  0  0
 15 16  2  0  0  0  0
 16 17  1  0  0  0  0
 17 18  2  0  0  0  0
 18 19  1  0  0  0  0
 18 20  1  0  0  0  0
 20 21  2  0  0  0  0
 13 22  1  0  0  0  0
 22 23  1  0  0  0  0
 23 24  1  0  0  0  0
 23 25  2  0  0  0  0
  6 26  1  0  0  0  0
 26 27  1  0  0  0  0
 27 28  1  0  0  0  0
 28 29  1  0  0  0  0
 28 30  1  0  0  0  0
 26  3  1  0  0  0  0
 21 15  1  0  0  0  0
  1 31  1  0  0  0  0
  1 32  1  0  0  0  0
  1 33  1  0  0  0  0
  7 34  1  0  0  0  0
  7 35  1  0  0  0  0
  8 36  1  0  0  0  0
  8 37  1  0  0  0  0
  9 38  1  0  0  0  0
  9 39  1  0  0  0  0
 10 40  1  0  0  0  0
 13 41  1  0  0  0  0
 14 42  1  0  0  0  0
 14 43  1  0  0  0  0
 16 44  1  0  0  0  0
 17 45  1  0  0  0  0
 19 46  1  0  0  0  0
 20 47  1  0  0  0  0
 21 48  1  0  0  0  0
 22 49  1  0  0  0  0
 24 50  1  0  0  0  0
 24 51  1  0  0  0  0
 24 52  1  0  0  0  0
 27 53  1  0  0  0  0
 27 54  1  0  0  0  0
 28 55  1  0  0  0  0
 29 56  1  0  0  0  0
 29 57  1  0  0  0  0
 29 58  1  0  0  0  0
 30 59  1  0  0  0  0
 30 60  1  0  0  0  0
 30 61  1  0  0  0  0
M  END
> <BIOSOLVEIT.HYDE_ESTIMATED_AFFINITY_LOWER_BOUNDARY [nM]>
15934.272032

> <BIOSOLVEIT.HYDE_ESTIMATED_AFFINITY_UPPER_BOUNDARY [nM]>
1583164.137298

> <BIOSOLVEIT.HYDE_LIGAND_EFFICIENCY range: ++, +, 0, -, -->
--

> <BIOSOLVEIT.HYDE_LIGAND_LIPOPHILIC_EFFICIENCY range: ++, +, 0, -, -->
--

> <BIOSOLVEIT.INTER_CLASH range: red, yellow, green>
green

> <BIOSOLVEIT.INTRA_CLASH range: red, yellow, green>
yellow

> <BIOSOLVEIT.LOGP>
2.1578

> <BIOSOLVEIT.MOLECULAR WEIGHT>
433.573

> <BIOSOLVEIT.MOLECULE_CHECKSUM>
LTIxLjY4NTE7MC43MjI4Mzg=

> <BIOSOLVEIT.TORSION_QUALITY range: red, yellow, green, not rotatable>
red

> <BIOSOLVEIT.TPSA>
109.14

$$$$
mol_18_1_02
anSeeSAR  04022021533D 1   1.00000     0.00000     0
SeeSAR 9.2 andre
 48 49  0  0  0  0            999 V2000
    8.7514   -2.7747   23.3245 C   0  0  0  0  0  0  0  0  0  0  0  0
    8.3145   -1.3822   22.9766 C   0  0  0  0  0  0  0  0  0  0  0  0
    7.0834   -1.1108   23.0250 O   0  0  0  0  0  0  0  0  0  0  0  0
    9.2628   -0.3564   22.5999 N   0  0  0  0  0  0  0  0  0  0  0  0
    8.8597    0.8024   21.7862 C   0  0  0  0  0  0  0  0  0  0  0  0
    8.2072    1.8657   22.6241 C   0  0  0  0  0  0  0  0  0  0  0  0
    7.6415    1.5627   23.7108 O   0  0  0  0  0  0  0  0  0  0  0  0
    8.2387    3.2287   22.1785 N   0  0  0  0  0  0  0  0  0  0  0  0
    7.6235    4.3301   22.9273 C   0  0  1  0  0  0  0  0  0  0  0  0
    8.6609    5.0383   23.7875 C   0  0  0  0  0  0  0  0  0  0  0  0
    8.1526    6.4616   23.9235 C   0  0  0  0  0  0  0  0  0  0  0  0
    7.4487    6.7759   22.6100 C   0  0  0  0  0  0  0  0  0  0  0  0
    7.0713    5.4202   21.9769 C   0  0  2  0  0  0  0  0  0  0  0  0
    5.6142    5.3093   21.6691 N   0  3  0  0  0  0  0  0  0  0  0  0
    5.2219    3.9042   21.4557 C   0  0  0  0  0  0  0  0  0  0  0  0
    4.7182    5.9376   22.6660 C   0  0  0  0  0  0  0  0  0  0  0  0
   10.6016   -0.3956   23.1291 C   0  0  0  0  0  0  0  0  0  0  0  0
   11.6157   -0.9844   22.3815 C   0  0  0  0  0  0  0  0  0  0  0  0
   12.9063   -1.0195   22.8986 C   0  0  0  0  0  0  0  0  0  0  0  0
   13.1798   -0.4726   24.1473 C   0  0  0  0  0  0  0  0  0  0  0  0
   12.1589    0.1142   24.8884 C   0  0  0  0  0  0  0  0  0  0  0  0
   10.8650    0.1540   24.3797 C   0  0  0  0  0  0  0  0  0  0  0  0
    9.7457   -2.8423   23.2427 H   0  0  0  0  0  0  0  0  0  0  0  0
    8.4791   -2.9847   24.2635 H   0  0  0  0  0  0  0  0  0  0  0  0
    8.3205   -3.4253   22.6991 H   0  0  0  0  0  0  0  0  0  0  0  0
    8.2134    0.4986   21.0863 H   0  0  0  0  0  0  0  0  0  0  0  0
    9.6707    1.1880   21.3462 H   0  0  0  0  0  0  0  0  0  0  0  0
    8.7016    3.4380   21.3171 H   0  0  0  0  0  0  0  0  0  0  0  0
    6.8868    3.9783   23.5048 H   0  0  0  0  0  0  0  0  0  0  0  0
    9.5556    5.0258   23.3409 H   0  0  0  0  0  0  0  0  0  0  0  0
    8.7301    4.6026   24.6849 H   0  0  0  0  0  0  0  0  0  0  0  0
    8.9153    7.0916   24.0696 H   0  0  0  0  0  0  0  0  0  0  0  0
    7.5115    6.5313   24.6878 H   0  0  0  0  0  0  0  0  0  0  0  0
    8.0613    7.2817   22.0026 H   0  0  0  0  0  0  0  0  0  0  0  0
    6.6260    7.3181   22.7805 H   0  0  0  0  0  0  0  0  0  0  0  0
    7.5675    5.3441   21.1120 H   0  0  0  0  0  0  0  0  0  0  0  0
    5.4639    5.7866   20.8033 H   0  0  0  0  0  0  0  0  0  0  0  0
    4.2440    3.8584   21.2519 H   0  0  0  0  0  0  0  0  0  0  0  0
    5.7403    3.5262   20.6887 H   0  0  0  0  0  0  0  0  0  0  0  0
    5.4153    3.3750   22.2819 H   0  0  0  0  0  0  0  0  0  0  0  0
    3.7670    5.8165   22.3822 H   0  0  0  0  0  0  0  0  0  0  0  0
    4.8575    5.5068   23.5576 H   0  0  0  0  0  0  0  0  0  0  0  0
    4.9249    6.9138   22.7315 H   0  0  0  0  0  0  0  0  0  0  0  0
   11.4194   -1.3777   21.4833 H   0  0  0  0  0  0  0  0  0  0  0  0
   13.6424   -1.4408   22.3689 H   0  0  0  0  0  0  0  0  0  0  0  0
   14.1102   -0.5010   24.5127 H   0  0  0  0  0  0  0  0  0  0  0  0
   12.3554    0.5072   25.7866 H   0  0  0  0  0  0  0  0  0  0  0  0
   10.1287    0.5751   24.9095 H   0  0  0  0  0  0  0  0  0  0  0  0
  1  2  1  0  0  0  0
  2  3  2  0  0  0  0
  2  4  1  0  0  0  0
  4  5  1  0  0  0  0
  5  6  1  0  0  0  0
  6  7  2  0  0  0  0
  6  8  1  0  0  0  0
  8  9  1  0  0  0  0
  9 10  1  0  0  0  0
 10 11  1  0  0  0  0
 11 12  1  0  0  0  0
 12 13  1  0  0  0  0
 13 14  1  0  0  0  0
 14 15  1  0  0  0  0
 14 16  1  0  0  0  0
  4 17  1  0  0  0  0
 17 18  2  0  0  0  0
 18 19  1  0  0  0  0
 19 20  2  0  0  0  0
 20 21  1  0  0  0  0
 21 22  2  0  0  0  0
 13  9  1  0  0  0  0
 22 17  1  0  0  0  0
  1 23  1  0  0  0  0
  1 24  1  0  0  0  0
  1 25  1  0  0  0  0
  5 26  1  0  0  0  0
  5 27  1  0  0  0  0
  8 28  1  0  0  0  0
  9 29  1  0  0  0  0
 10 30  1  0  0  0  0
 10 31  1  0  0  0  0
 11 32  1  0  0  0  0
 11 33  1  0  0  0  0
 12 34  1  0  0  0  0
 12 35  1  0  0  0  0
 13 36  1  0  0  0  0
 14 37  1  0  0  0  0
 15 38  1  0  0  0  0
 15 39  1  0  0  0  0
 15 40  1  0  0  0  0
 16 41  1  0  0  0  0
 16 42  1  0  0  0  0
 16 43  1  0  0  0  0
 18 44  1  0  0  0  0
 19 45  1  0  0  0  0
 20 46  1  0  0  0  0
 21 47  1  0  0  0  0
 22 48  1  0  0  0  0
M  CHG  1  14   1
M  END
> <BIOSOLVEIT.HYDE_ESTIMATED_AFFINITY_LOWER_BOUNDARY [nM]>
27866.393633

> <BIOSOLVEIT.HYDE_ESTIMATED_AFFINITY_UPPER_BOUNDARY [nM]>
2768690.966616

> <BIOSOLVEIT.HYDE_LIGAND_EFFICIENCY range: ++, +, 0, -, -->
-

> <BIOSOLVEIT.HYDE_LIGAND_LIPOPHILIC_EFFICIENCY range: ++, +, 0, -, -->
-

> <BIOSOLVEIT.INTER_CLASH range: red, yellow, green>
green

> <BIOSOLVEIT.INTRA_CLASH range: red, yellow, green>
green

> <BIOSOLVEIT.LOGP>
0.2213

> <BIOSOLVEIT.MOLECULAR WEIGHT>
304.411

> <BIOSOLVEIT.MOLECULE_CHECKSUM>
LTIwLjI5OTU7MC45MjI3MDU=

> <BIOSOLVEIT.TORSION_QUALITY range: red, yellow, green, not rotatable>
green

> <BIOSOLVEIT.TPSA>
53.85

$$$$
mol_82_1_06
anSeeSAR  04022021533D 1   1.00000     0.00000     0
SeeSAR 9.2 andre
 54 56  0  0  0  0            999 V2000
    5.3213   -5.2132   24.9608 C   0  0  0  0  0  0  0  0  0  0  0  0
    5.7198   -4.9832   26.4143 C   0  0  0  0  0  0  0  0  0  0  0  0
    6.9924   -4.3700   26.4841 O   0  0  0  0  0  0  0  0  0  0  0  0
    6.9574   -3.2518   27.3608 C   0  0  1  0  0  0  0  0  0  0  0  0
    8.1919   -2.3964   27.1894 C   0  0  0  0  0  0  0  0  0  0  0  0
    7.3331   -1.2494   26.7135 C   0  0  1  0  0  0  0  0  0  0  0  0
    7.6464   -0.9239   25.3191 N   0  0  0  0  0  0  0  0  0  0  0  0
    7.1191    0.2361   24.6595 C   0  0  0  0  0  0  0  0  0  0  0  0
    6.3532    1.0254   25.2779 O   0  0  0  0  0  0  0  0  0  0  0  0
    7.4238    0.4757   23.2042 C   0  0  1  0  0  0  0  0  0  0  0  0
    6.7897   -0.6308   22.3462 C   0  0  0  0  0  0  0  0  0  0  0  0
    6.6035   -0.1800   20.9186 C   0  0  0  0  0  0  0  0  0  0  0  0
    7.6197   -0.3906   19.9715 C   0  0  0  0  0  0  0  0  0  0  0  0
    7.4565    0.0437   18.6529 C   0  0  0  0  0  0  0  0  0  0  0  0
    6.2779    0.6888   18.2651 C   0  0  0  0  0  0  0  0  0  0  0  0
    6.1298    1.1180   16.9484 O   0  0  0  0  0  0  0  0  0  0  0  0
    5.2582    0.8967   19.2037 C   0  0  0  0  0  0  0  0  0  0  0  0
    5.4188    0.4636   20.5232 C   0  0  0  0  0  0  0  0  0  0  0  0
    6.9121    1.7882   22.7912 N   0  0  0  0  0  0  0  0  0  0  0  0
    7.6721    2.7148   22.0024 C   0  0  0  0  0  0  0  0  0  0  0  0
    7.4178    4.1809   22.1292 C   0  0  0  0  0  0  0  0  0  0  0  0
    8.5285    2.3031   21.1740 O   0  0  0  0  0  0  0  0  0  0  0  0
    6.1069   -2.1322   26.7985 C   0  0  2  0  0  0  0  0  0  0  0  0
    5.1538   -1.6328   27.8001 N   0  0  0  0  0  0  0  0  0  0  0  0
    4.4426   -0.4759   27.6906 C   0  0  0  0  0  0  0  0  0  0  0  0
    3.6797   -0.3775   28.8152 C   0  0  0  0  0  0  0  0  0  0  0  0
    3.9696   -1.5278   29.5862 C   0  0  0  0  0  0  0  0  0  0  0  0
    4.8629   -2.2372   28.9295 N   0  0  0  0  0  0  0  0  0  0  0  0
    4.4208   -5.6468   24.9266 H   0  0  0  0  0  0  0  0  0  0  0  0
    5.2874   -4.3361   24.4816 H   0  0  0  0  0  0  0  0  0  0  0  0
    5.9944   -5.8076   24.5206 H   0  0  0  0  0  0  0  0  0  0  0  0
    5.7507   -5.8619   26.8908 H   0  0  0  0  0  0  0  0  0  0  0  0
    5.0437   -4.3904   26.8518 H   0  0  0  0  0  0  0  0  0  0  0  0
    6.7503   -3.4842   28.3111 H   0  0  0  0  0  0  0  0  0  0  0  0
    8.8331   -2.7384   26.5024 H   0  0  0  0  0  0  0  0  0  0  0  0
    8.6825   -2.2127   28.0411 H   0  0  0  0  0  0  0  0  0  0  0  0
    7.3184   -0.4612   27.3287 H   0  0  0  0  0  0  0  0  0  0  0  0
    8.2512   -1.5341   24.8075 H   0  0  0  0  0  0  0  0  0  0  0  0
    8.4152    0.4588   23.0738 H   0  0  0  0  0  0  0  0  0  0  0  0
    5.8982   -0.8704   22.7308 H   0  0  0  0  0  0  0  0  0  0  0  0
    7.3850   -1.4341   22.3589 H   0  0  0  0  0  0  0  0  0  0  0  0
    8.4638   -0.8535   20.2421 H   0  0  0  0  0  0  0  0  0  0  0  0
    8.1850   -0.1074   17.9847 H   0  0  0  0  0  0  0  0  0  0  0  0
    6.8350    0.9071   16.2714 H   0  0  0  0  0  0  0  0  0  0  0  0
    4.4135    1.3560   18.9288 H   0  0  0  0  0  0  0  0  0  0  0  0
    4.6873    0.6125   21.1885 H   0  0  0  0  0  0  0  0  0  0  0  0
    5.9889    2.0491   23.0735 H   0  0  0  0  0  0  0  0  0  0  0  0
    8.0285    4.6796   21.5142 H   0  0  0  0  0  0  0  0  0  0  0  0
    6.4677    4.3767   21.8864 H   0  0  0  0  0  0  0  0  0  0  0  0
    7.5868    4.4682   23.0720 H   0  0  0  0  0  0  0  0  0  0  0  0
    5.6936   -2.3410   25.9122 H   0  0  0  0  0  0  0  0  0  0  0  0
    4.4744    0.1749   26.9320 H   0  0  0  0  0  0  0  0  0  0  0  0
    3.0439    0.3583   29.0483 H   0  0  0  0  0  0  0  0  0  0  0  0
    3.5676   -1.7604   30.4719 H   0  0  0  0  0  0  0  0  0  0  0  0
  1  2  1  0  0  0  0
  2  3  1  0  0  0  0
  3  4  1  0  0  0  0
  4  5  1  0  0  0  0
  5  6  1  0  0  0  0
  6  7  1  0  0  0  0
  7  8  1  0  0  0  0
  8  9  2  0  0  0  0
  8 10  1  0  0  0  0
 10 11  1  0  0  0  0
 11 12  1  0  0  0  0
 12 13  2  0  0  0  0
 13 14  1  0  0  0  0
 14 15  2  0  0  0  0
 15 16  1  0  0  0  0
 15 17  1  0  0  0  0
 17 18  2  0  0  0  0
 10 19  1  0  0  0  0
 19 20  1  0  0  0  0
 20 21  1  0  0  0  0
 20 22  2  0  0  0  0
  6 23  1  0  0  0  0
 23 24  1  0  0  0  0
 24 25  1  0  0  0  0
 25 26  2  0  0  0  0
 26 27  1  0  0  0  0
 27 28  2  0  0  0  0
 23  4  1  0  0  0  0
 28 24  1  0  0  0  0
 18 12  1  0  0  0  0
  1 29  1  0  0  0  0
  1 30  1  0  0  0  0
  1 31  1  0  0  0  0
  2 32  1  0  0  0  0
  2 33  1  0  0  0  0
  4 34  1  0  0  0  0
  5 35  1  0  0  0  0
  5 36  1  0  0  0  0
  6 37  1  0  0  0  0
  7 38  1  0  0  0  0
 10 39  1  0  0  0  0
 11 40  1  0  0  0  0
 11 41  1  0  0  0  0
 13 42  1  0  0  0  0
 14 43  1  0  0  0  0
 16 44  1  0  0  0  0
 17 45  1  0  0  0  0
 18 46  1  0  0  0  0
 19 47  1  0  0  0  0
 21 48  1  0  0  0  0
 21 49  1  0  0  0  0
 21 50  1  0  0  0  0
 23 51  1  0  0  0  0
 25 52  1  0  0  0  0
 26 53  1  0  0  0  0
 27 54  1  0  0  0  0
M  END
> <BIOSOLVEIT.HYDE_ESTIMATED_AFFINITY_LOWER_BOUNDARY [nM]>
46748.295920

> <BIOSOLVEIT.HYDE_ESTIMATED_AFFINITY_UPPER_BOUNDARY [nM]>
4644719.597419

> <BIOSOLVEIT.HYDE_LIGAND_EFFICIENCY range: ++, +, 0, -, -->
--

> <BIOSOLVEIT.HYDE_LIGAND_LIPOPHILIC_EFFICIENCY range: ++, +, 0, -, -->
-

> <BIOSOLVEIT.INTER_CLASH range: red, yellow, green>
green

> <BIOSOLVEIT.INTRA_CLASH range: red, yellow, green>
green

> <BIOSOLVEIT.LOGP>
1.1708

> <BIOSOLVEIT.MOLECULAR WEIGHT>
386.449

> <BIOSOLVEIT.MOLECULE_CHECKSUM>
LTE5LjAxNzswLjY3OTE3OQ==

> <BIOSOLVEIT.TORSION_QUALITY range: red, yellow, green, not rotatable>
yellow

> <BIOSOLVEIT.TPSA>
105.48

$$$$
mol_25_1_09
anSeeSAR  04022021533D 1   1.00000     0.00000     0
SeeSAR 9.2 andre
 48 49  0  0  0  0            999 V2000
    1.4983    4.2855   21.1649 C   0  0  0  0  0  0  0  0  0  0  0  0
    1.8746    3.3919   19.9835 C   0  0  0  0  0  0  0  0  0  0  0  0
    3.3458    3.0742   19.9240 C   0  0  0  0  0  0  0  0  0  0  0  0
    4.1316    3.5074   20.8136 O   0  0  0  0  0  0  0  0  0  0  0  0
    3.8381    2.2376   18.8642 N   0  0  0  0  0  0  0  0  0  0  0  0
    4.9266    1.3655   18.9887 C   0  0  0  0  0  0  0  0  0  0  0  0
    5.4918    0.7984   17.8512 C   0  0  0  0  0  0  0  0  0  0  0  0
    6.5722   -0.0663   17.9916 C   0  0  0  0  0  0  0  0  0  0  0  0
    7.0881   -0.3650   19.2479 C   0  0  0  0  0  0  0  0  0  0  0  0
    6.5088    0.2126   20.3732 C   0  0  0  0  0  0  0  0  0  0  0  0
    7.0509   -0.0987   21.7198 C   0  0  0  0  0  0  0  0  0  0  0  0
    7.1565    0.8232   22.5721 O   0  0  0  0  0  0  0  0  0  0  0  0
    7.4390   -1.4350   22.0728 N   0  0  0  0  0  0  0  0  0  0  0  0
    8.4946   -1.7125   23.0522 C   0  0  2  0  0  0  0  0  0  0  0  0
    8.9272   -3.1706   23.0018 C   0  0  0  0  0  0  0  0  0  0  0  0
    7.7797   -4.1180   23.3155 C   0  0  0  0  0  0  0  0  0  0  0  0
    6.7470   -3.4167   24.0935 N   0  3  1  0  0  0  0  0  0  0  0  0
    5.9172   -4.4559   24.7218 C   0  0  0  0  0  0  0  0  0  0  0  0
    7.3792   -2.5477   25.0987 C   0  0  2  0  0  0  0  0  0  0  0  0
    6.3777   -2.0294   26.1194 C   0  0  0  0  0  0  0  0  0  0  0  0
    8.0527   -1.3439   24.4598 C   0  0  0  0  0  0  0  0  0  0  0  0
    5.4272    1.0796   20.2544 C   0  0  0  0  0  0  0  0  0  0  0  0
    0.5138    4.4602   21.1503 H   0  0  0  0  0  0  0  0  0  0  0  0
    1.7431    3.8283   22.0199 H   0  0  0  0  0  0  0  0  0  0  0  0
    1.9918    5.1526   21.0973 H   0  0  0  0  0  0  0  0  0  0  0  0
    1.6157    3.8579   19.1375 H   0  0  0  0  0  0  0  0  0  0  0  0
    1.3671    2.5336   20.0600 H   0  0  0  0  0  0  0  0  0  0  0  0
    3.3730    2.2811   17.9801 H   0  0  0  0  0  0  0  0  0  0  0  0
    5.1264    1.0096   16.9446 H   0  0  0  0  0  0  0  0  0  0  0  0
    6.9832   -0.4786   17.1785 H   0  0  0  0  0  0  0  0  0  0  0  0
    7.8656   -0.9870   19.3412 H   0  0  0  0  0  0  0  0  0  0  0  0
    6.9730   -2.2040   21.6351 H   0  0  0  0  0  0  0  0  0  0  0  0
    9.2866   -1.1478   22.8201 H   0  0  0  0  0  0  0  0  0  0  0  0
    9.6562   -3.3142   23.6710 H   0  0  0  0  0  0  0  0  0  0  0  0
    9.2715   -3.3734   22.0851 H   0  0  0  0  0  0  0  0  0  0  0  0
    8.1250   -4.8923   23.8458 H   0  0  0  0  0  0  0  0  0  0  0  0
    7.3815   -4.4506   22.4606 H   0  0  0  0  0  0  0  0  0  0  0  0
    6.1834   -2.8637   23.4798 H   0  0  0  0  0  0  0  0  0  0  0  0
    5.1968   -4.0243   25.2646 H   0  0  0  0  0  0  0  0  0  0  0  0
    5.5035   -5.0264   24.0123 H   0  0  0  0  0  0  0  0  0  0  0  0
    6.4872   -5.0237   25.3157 H   0  0  0  0  0  0  0  0  0  0  0  0
    8.0753   -3.0790   25.5816 H   0  0  0  0  0  0  0  0  0  0  0  0
    6.8480   -1.4455   26.7810 H   0  0  0  0  0  0  0  0  0  0  0  0
    5.6692   -1.5004   25.6523 H   0  0  0  0  0  0  0  0  0  0  0  0
    5.9574   -2.8017   26.5959 H   0  0  0  0  0  0  0  0  0  0  0  0
    8.8494   -1.0783   25.0026 H   0  0  0  0  0  0  0  0  0  0  0  0
    7.4074   -0.5810   24.4196 H   0  0  0  0  0  0  0  0  0  0  0  0
    5.0157    1.4914   21.0675 H   0  0  0  0  0  0  0  0  0  0  0  0
  1  2  1  0  0  0  0
  2  3  1  0  0  0  0
  3  4  2  0  0  0  0
  3  5  1  0  0  0  0
  5  6  1  0  0  0  0
  6  7  2  0  0  0  0
  7  8  1  0  0  0  0
  8  9  2  0  0  0  0
  9 10  1  0  0  0  0
 10 11  1  0  0  0  0
 11 12  2  0  0  0  0
 11 13  1  0  0  0  0
 13 14  1  0  0  0  0
 14 15  1  0  0  0  0
 15 16  1  0  0  0  0
 16 17  1  0  0  0  0
 17 18  1  0  0  0  0
 17 19  1  0  0  0  0
 19 20  1  0  0  0  0
 19 21  1  0  0  0  0
 10 22  2  0  0  0  0
 22  6  1  0  0  0  0
 21 14  1  0  0  0  0
  1 23  1  0  0  0  0
  1 24  1  0  0  0  0
  1 25  1  0  0  0  0
  2 26  1  0  0  0  0
  2 27  1  0  0  0  0
  5 28  1  0  0  0  0
  7 29  1  0  0  0  0
  8 30  1  0  0  0  0
  9 31  1  0  0  0  0
 13 32  1  0  0  0  0
 14 33  1  0  0  0  0
 15 34  1  0  0  0  0
 15 35  1  0  0  0  0
 16 36  1  0  0  0  0
 16 37  1  0  0  0  0
 17 38  1  0  0  0  0
 18 39  1  0  0  0  0
 18 40  1  0  0  0  0
 18 41  1  0  0  0  0
 19 42  1  0  0  0  0
 20 43  1  0  0  0  0
 20 44  1  0  0  0  0
 20 45  1  0  0  0  0
 21 46  1  0  0  0  0
 21 47  1  0  0  0  0
 22 48  1  0  0  0  0
M  CHG  1  17   1
M  END
> <BIOSOLVEIT.HYDE_ESTIMATED_AFFINITY_LOWER_BOUNDARY [nM]>
51253.652304

> <BIOSOLVEIT.HYDE_ESTIMATED_AFFINITY_UPPER_BOUNDARY [nM]>
5092353.392018

> <BIOSOLVEIT.HYDE_LIGAND_EFFICIENCY range: ++, +, 0, -, -->
-

> <BIOSOLVEIT.HYDE_LIGAND_LIPOPHILIC_EFFICIENCY range: ++, +, 0, -, -->
-

> <BIOSOLVEIT.INTER_CLASH range: red, yellow, green>
green

> <BIOSOLVEIT.INTRA_CLASH range: red, yellow, green>
yellow

> <BIOSOLVEIT.LOGP>
0.8305

> <BIOSOLVEIT.MOLECULAR WEIGHT>
304.411

> <BIOSOLVEIT.MOLECULE_CHECKSUM>
LTE4Ljc4ODk7MC44NTQwNDI=

> <BIOSOLVEIT.TORSION_QUALITY range: red, yellow, green, not rotatable>
green

> <BIOSOLVEIT.TPSA>
62.64

$$$$
mol_34_1_07
anSeeSAR  04022021533D 1   1.00000     0.00000     0
SeeSAR 9.2 andre
 42 42  0  0  0  0            999 V2000
    2.4515   -5.7884   23.2151 C   0  0  0  0  0  0  0  0  0  0  0  0
    3.9080   -6.0369   22.8344 C   0  0  0  0  0  0  0  0  0  0  0  0
    4.8622   -5.4203   23.8668 C   0  0  0  0  0  0  0  0  0  0  0  0
    6.3270   -5.5300   23.4354 C   0  0  0  0  0  0  0  0  0  0  0  0
    7.4214   -4.6310   24.5945 S   0  0  0  0  0  0  0  0  0  0  0  0
    8.5208   -3.9388   23.3032 C   0  0  0  0  0  0  0  0  0  0  0  0
    7.9114   -2.7562   22.5902 C   0  0  0  0  0  0  0  0  0  0  0  0
    7.1336   -2.9589   21.6168 O   0  0  0  0  0  0  0  0  0  0  0  0
    8.2007   -1.3964   22.9966 N   0  0  0  0  0  0  0  0  0  0  0  0
    9.5186   -1.0798   23.5692 C   0  0  0  0  0  0  0  0  0  0  0  0
   10.6339   -1.6363   22.6821 C   0  0  0  0  0  0  0  0  0  0  0  0
   10.5728   -1.0600   21.4061 O   0  0  0  0  0  0  0  0  0  0  0  0
    7.2212   -0.3107   22.8173 C   0  0  0  0  0  0  0  0  0  0  0  0
    6.9057   -0.0988   21.3454 C   0  0  0  0  0  0  0  0  0  0  0  0
    7.8914   -0.3274   20.3905 C   0  0  0  0  0  0  0  0  0  0  0  0
    7.6112   -0.1353   19.0417 C   0  0  0  0  0  0  0  0  0  0  0  0
    6.3392    0.2855   18.6666 C   0  0  0  0  0  0  0  0  0  0  0  0
    6.0606    0.4718   17.3799 F   0  0  0  0  0  0  0  0  0  0  0  0
    5.3474    0.5165   19.6141 C   0  0  0  0  0  0  0  0  0  0  0  0
    5.6367    0.3216   20.9605 C   0  0  0  0  0  0  0  0  0  0  0  0
    1.8525   -6.1994   22.5278 H   0  0  0  0  0  0  0  0  0  0  0  0
    2.2655   -6.1992   24.1077 H   0  0  0  0  0  0  0  0  0  0  0  0
    2.2818   -4.8039   23.2594 H   0  0  0  0  0  0  0  0  0  0  0  0
    4.0861   -5.6273   21.9396 H   0  0  0  0  0  0  0  0  0  0  0  0
    4.0699   -7.0226   22.7879 H   0  0  0  0  0  0  0  0  0  0  0  0
    4.7461   -5.8970   24.7381 H   0  0  0  0  0  0  0  0  0  0  0  0
    4.6316   -4.4541   23.9821 H   0  0  0  0  0  0  0  0  0  0  0  0
    6.4286   -5.1396   22.5204 H   0  0  0  0  0  0  0  0  0  0  0  0
    6.5913   -6.4943   23.4176 H   0  0  0  0  0  0  0  0  0  0  0  0
    8.7131   -4.6533   22.6305 H   0  0  0  0  0  0  0  0  0  0  0  0
    9.3751   -3.6472   23.7334 H   0  0  0  0  0  0  0  0  0  0  0  0
    9.5884   -1.4866   24.4801 H   0  0  0  0  0  0  0  0  0  0  0  0
    9.6176   -0.0872   23.6390 H   0  0  0  0  0  0  0  0  0  0  0  0
   10.5282   -2.6275   22.6019 H   0  0  0  0  0  0  0  0  0  0  0  0
   11.5200   -1.4279   23.0962 H   0  0  0  0  0  0  0  0  0  0  0  0
   11.0103   -1.6687   20.7441 H   0  0  0  0  0  0  0  0  0  0  0  0
    7.5975    0.5349   23.1961 H   0  0  0  0  0  0  0  0  0  0  0  0
    6.3789   -0.5471   23.3016 H   0  0  0  0  0  0  0  0  0  0  0  0
    8.8015   -0.6299   20.6739 H   0  0  0  0  0  0  0  0  0  0  0  0
    8.3152   -0.2975   18.3503 H   0  0  0  0  0  0  0  0  0  0  0  0
    4.4375    0.8192   19.3306 H   0  0  0  0  0  0  0  0  0  0  0  0
    4.9325    0.4836   21.6518 H   0  0  0  0  0  0  0  0  0  0  0  0
  1  2  1  0  0  0  0
  2  3  1  0  0  0  0
  3  4  1  0  0  0  0
  4  5  1  0  0  0  0
  5  6  1  0  0  0  0
  6  7  1  0  0  0  0
  7  8  2  0  0  0  0
  7  9  1  0  0  0  0
  9 10  1  0  0  0  0
 10 11  1  0  0  0  0
 11 12  1  0  0  0  0
  9 13  1  0  0  0  0
 13 14  1  0  0  0  0
 14 15  2  0  0  0  0
 15 16  1  0  0  0  0
 16 17  2  0  0  0  0
 17 18  1  0  0  0  0
 17 19  1  0  0  0  0
 19 20  2  0  0  0  0
 20 14  1  0  0  0  0
  1 21  1  0  0  0  0
  1 22  1  0  0  0  0
  1 23  1  0  0  0  0
  2 24  1  0  0  0  0
  2 25  1  0  0  0  0
  3 26  1  0  0  0  0
  3 27  1  0  0  0  0
  4 28  1  0  0  0  0
  4 29  1  0  0  0  0
  6 30  1  0  0  0  0
  6 31  1  0  0  0  0
 10 32  1  0  0  0  0
 10 33  1  0  0  0  0
 11 34  1  0  0  0  0
 11 35  1  0  0  0  0
 12 36  1  0  0  0  0
 13 37  1  0  0  0  0
 13 38  1  0  0  0  0
 15 39  1  0  0  0  0
 16 40  1  0  0  0  0
 19 41  1  0  0  0  0
 20 42  1  0  0  0  0
M  END
> <BIOSOLVEIT.HYDE_ESTIMATED_AFFINITY_LOWER_BOUNDARY [nM]>
52282.923694

> <BIOSOLVEIT.HYDE_ESTIMATED_AFFINITY_UPPER_BOUNDARY [nM]>
5194617.590152

> <BIOSOLVEIT.HYDE_LIGAND_EFFICIENCY range: ++, +, 0, -, -->
-

> <BIOSOLVEIT.HYDE_LIGAND_LIPOPHILIC_EFFICIENCY range: ++, +, 0, -, -->
--

> <BIOSOLVEIT.INTER_CLASH range: red, yellow, green>
green

> <BIOSOLVEIT.INTRA_CLASH range: red, yellow, green>
yellow

> <BIOSOLVEIT.LOGP>
2.6799

> <BIOSOLVEIT.MOLECULAR WEIGHT>
299.407

> <BIOSOLVEIT.MOLECULE_CHECKSUM>
LTE4LjczOTY7MC45MzY5ODI=

> <BIOSOLVEIT.TORSION_QUALITY range: red, yellow, green, not rotatable>
yellow

> <BIOSOLVEIT.TPSA>
40.54

$$$$
mol_83_1_10
anSeeSAR  04022021533D 1   1.00000     0.00000     0
SeeSAR 9.2 andre
 57 58  0  0  0  0            999 V2000
    7.2741   -5.2669   24.4765 C   0  0  0  0  0  0  0  0  0  0  0  0
    7.6900   -5.0067   23.0334 C   0  0  0  0  0  0  0  0  0  0  0  0
    7.1195   -3.7945   22.5710 O   0  0  0  0  0  0  0  0  0  0  0  0
    7.9924   -2.7020   22.7821 C   0  0  0  0  0  0  0  0  0  0  0  0
    8.3685   -2.0592   21.4424 C   0  0  0  0  0  0  0  0  0  0  0  0
    8.2946   -0.5905   21.5121 N   0  0  0  0  0  0  0  0  0  0  0  0
    9.4446    0.2336   21.8070 C   0  0  0  0  0  0  0  0  0  0  0  0
    9.5925    1.3106   21.1656 O   0  0  0  0  0  0  0  0  0  0  0  0
   10.3969   -0.0950   22.8409 N   0  0  0  0  0  0  0  0  0  0  0  0
   11.8161    0.2677   22.8627 C   0  0  0  0  0  0  0  0  0  0  0  0
   12.1237    0.4793   24.3316 C   0  0  0  0  0  0  0  0  0  0  0  0
   11.0331   -0.2460   25.0977 C   0  0  1  0  0  0  0  0  0  0  0  0
   10.3275    0.7167   25.8691 O   0  0  0  0  0  0  0  0  0  0  0  0
    8.9316    0.6391   25.6327 C   0  0  0  0  0  0  0  0  0  0  0  0
    8.3748    2.0386   25.3345 C   0  0  0  0  0  0  0  0  0  0  0  0
    7.1389    2.3936   26.1919 C   0  0  0  0  0  0  0  0  0  0  0  0
    7.2968    3.7528   26.8928 C   0  0  0  0  0  0  0  0  0  0  0  0
    6.8914    1.2948   27.2333 C   0  0  0  0  0  0  0  0  0  0  0  0
   10.1360   -0.8750   24.0492 C   0  0  0  0  0  0  0  0  0  0  0  0
    7.1328    0.0550   21.0721 C   0  0  0  0  0  0  0  0  0  0  0  0
    6.7935    0.0032   19.7238 C   0  0  0  0  0  0  0  0  0  0  0  0
    5.6419    0.6389   19.2718 C   0  0  0  0  0  0  0  0  0  0  0  0
    4.8421    1.3219   20.1824 C   0  0  0  0  0  0  0  0  0  0  0  0
    3.3655    2.1412   19.6195 Cl  0  0  0  0  0  0  0  0  0  0  0  0
    5.1787    1.3756   21.5309 C   0  0  0  0  0  0  0  0  0  0  0  0
    6.3309    0.7387   21.9803 C   0  0  0  0  0  0  0  0  0  0  0  0
    7.6820   -6.1238   24.7917 H   0  0  0  0  0  0  0  0  0  0  0  0
    7.5898   -4.5148   25.0551 H   0  0  0  0  0  0  0  0  0  0  0  0
    6.2777   -5.3327   24.5296 H   0  0  0  0  0  0  0  0  0  0  0  0
    7.3746   -5.7610   22.4576 H   0  0  0  0  0  0  0  0  0  0  0  0
    8.6867   -4.9431   22.9831 H   0  0  0  0  0  0  0  0  0  0  0  0
    8.8218   -3.0250   23.2380 H   0  0  0  0  0  0  0  0  0  0  0  0
    7.5382   -2.0228   23.3586 H   0  0  0  0  0  0  0  0  0  0  0  0
    7.7378   -2.3837   20.7374 H   0  0  0  0  0  0  0  0  0  0  0  0
    9.3018   -2.3272   21.2035 H   0  0  0  0  0  0  0  0  0  0  0  0
   11.9757    1.1067   22.3425 H   0  0  0  0  0  0  0  0  0  0  0  0
   12.3764   -0.4699   22.4858 H   0  0  0  0  0  0  0  0  0  0  0  0
   12.1126    1.4547   24.5516 H   0  0  0  0  0  0  0  0  0  0  0  0
   13.0197    0.0968   24.5573 H   0  0  0  0  0  0  0  0  0  0  0  0
   11.4278   -0.9489   25.6894 H   0  0  0  0  0  0  0  0  0  0  0  0
    8.4781    0.2672   26.4426 H   0  0  0  0  0  0  0  0  0  0  0  0
    8.7603    0.0403   24.8503 H   0  0  0  0  0  0  0  0  0  0  0  0
    8.1153    2.0791   24.3696 H   0  0  0  0  0  0  0  0  0  0  0  0
    9.0919    2.7118   25.5154 H   0  0  0  0  0  0  0  0  0  0  0  0
    6.3419    2.4412   25.5898 H   0  0  0  0  0  0  0  0  0  0  0  0
    6.4791    3.9450   27.4354 H   0  0  0  0  0  0  0  0  0  0  0  0
    8.0966    3.7276   27.4925 H   0  0  0  0  0  0  0  0  0  0  0  0
    7.4174    4.4698   26.2063 H   0  0  0  0  0  0  0  0  0  0  0  0
    6.0908    1.5315   27.7837 H   0  0  0  0  0  0  0  0  0  0  0  0
    6.7304    0.4246   26.7677 H   0  0  0  0  0  0  0  0  0  0  0  0
    7.6917    1.2121   27.8272 H   0  0  0  0  0  0  0  0  0  0  0  0
    9.1749   -0.8048   24.3162 H   0  0  0  0  0  0  0  0  0  0  0  0
   10.3738   -1.8362   23.9092 H   0  0  0  0  0  0  0  0  0  0  0  0
    7.3774   -0.4911   19.0798 H   0  0  0  0  0  0  0  0  0  0  0  0
    5.3919    0.6054   18.3041 H   0  0  0  0  0  0  0  0  0  0  0  0
    4.5947    1.8699   22.1747 H   0  0  0  0  0  0  0  0  0  0  0  0
    6.5807    0.7721   22.9480 H   0  0  0  0  0  0  0  0  0  0  0  0
  1  2  1  0  0  0  0
  2  3  1  0  0  0  0
  3  4  1  0  0  0  0
  4  5  1  0  0  0  0
  5  6  1  0  0  0  0
  6  7  1  0  0  0  0
  7  8  2  0  0  0  0
  7  9  1  0  0  0  0
  9 10  1  0  0  0  0
 10 11  1  0  0  0  0
 11 12  1  0  0  0  0
 12 13  1  0  0  0  0
 13 14  1  0  0  0  0
 14 15  1  0  0  0  0
 15 16  1  0  0  0  0
 16 17  1  0  0  0  0
 16 18  1  0  0  0  0
 12 19  1  0  0  0  0
  6 20  1  0  0  0  0
 20 21  2  0  0  0  0
 21 22  1  0  0  0  0
 22 23  2  0  0  0  0
 23 24  1  0  0  0  0
 23 25  1  0  0  0  0
 25 26  2  0  0  0  0
 19  9  1  0  0  0  0
 26 20  1  0  0  0  0
  1 27  1  0  0  0  0
  1 28  1  0  0  0  0
  1 29  1  0  0  0  0
  2 30  1  0  0  0  0
  2 31  1  0  0  0  0
  4 32  1  0  0  0  0
  4 33  1  0  0  0  0
  5 34  1  0  0  0  0
  5 35  1  0  0  0  0
 10 36  1  0  0  0  0
 10 37  1  0  0  0  0
 11 38  1  0  0  0  0
 11 39  1  0  0  0  0
 12 40  1  0  0  0  0
 14 41  1  0  0  0  0
 14 42  1  0  0  0  0
 15 43  1  0  0  0  0
 15 44  1  0  0  0  0
 16 45  1  0  0  0  0
 17 46  1  0  0  0  0
 17 47  1  0  0  0  0
 17 48  1  0  0  0  0
 18 49  1  0  0  0  0
 18 50  1  0  0  0  0
 18 51  1  0  0  0  0
 19 52  1  0  0  0  0
 19 53  1  0  0  0  0
 21 54  1  0  0  0  0
 22 55  1  0  0  0  0
 25 56  1  0  0  0  0
 26 57  1  0  0  0  0
M  END
> <BIOSOLVEIT.HYDE_ESTIMATED_AFFINITY_LOWER_BOUNDARY [nM]>
57887.411506

> <BIOSOLVEIT.HYDE_ESTIMATED_AFFINITY_UPPER_BOUNDARY [nM]>
5751456.590563

> <BIOSOLVEIT.HYDE_LIGAND_EFFICIENCY range: ++, +, 0, -, -->
--

> <BIOSOLVEIT.HYDE_LIGAND_LIPOPHILIC_EFFICIENCY range: ++, +, 0, -, -->
--

> <BIOSOLVEIT.INTER_CLASH range: red, yellow, green>
yellow

> <BIOSOLVEIT.INTRA_CLASH range: red, yellow, green>
green

> <BIOSOLVEIT.LOGP>
4.4399

> <BIOSOLVEIT.MOLECULAR WEIGHT>
382.929

> <BIOSOLVEIT.MOLECULE_CHECKSUM>
LTE4LjQ4NzI7MC43MTEwNDY=

> <BIOSOLVEIT.TORSION_QUALITY range: red, yellow, green, not rotatable>
red

> <BIOSOLVEIT.TPSA>
42.01

$$$$
mol_42_1_09
anSeeSAR  04022021533D 1   1.00000     0.00000     0
SeeSAR 9.2 andre
 45 45  0  0  0  0            999 V2000
   10.4043    7.2002   26.4349 C   0  0  0  0  0  0  0  0  0  0  0  0
    8.8855    7.4404   26.4393 C   0  0  0  0  0  0  0  0  0  0  0  0
    8.2642    6.6611   27.6122 C   0  0  0  0  0  0  0  0  0  0  0  0
    8.6232    8.9500   26.5991 C   0  0  0  0  0  0  0  0  0  0  0  0
    8.2364    6.7993   24.8327 S   0  0  0  0  0  0  0  0  0  0  0  0
    8.5572    5.0097   25.0311 C   0  0  0  0  0  0  0  0  0  0  0  0
    9.3940    4.5277   23.8895 C   0  0  0  0  0  0  0  0  0  0  0  0
   10.6436    4.6955   23.9177 O   0  0  0  0  0  0  0  0  0  0  0  0
    8.7745    3.8927   22.7637 N   0  0  0  0  0  0  0  0  0  0  0  0
    7.5450    3.1119   22.9082 C   0  0  0  0  0  0  0  0  0  0  0  0
    7.8408    1.6098   23.1386 C   0  0  1  0  0  0  0  0  0  0  0  0
    6.6362    0.6992   22.7890 C   0  0  0  0  0  0  0  0  0  0  0  0
    6.3303    0.6458   21.3103 C   0  0  0  0  0  0  0  0  0  0  0  0
    6.9720   -0.2912   20.4824 C   0  0  0  0  0  0  0  0  0  0  0  0
    6.6851   -0.3369   19.1147 C   0  0  0  0  0  0  0  0  0  0  0  0
    5.7520    0.5462   18.5642 C   0  0  0  0  0  0  0  0  0  0  0  0
    5.4757    0.5005   17.2377 F   0  0  0  0  0  0  0  0  0  0  0  0
    5.1010    1.4738   19.3822 C   0  0  0  0  0  0  0  0  0  0  0  0
    5.3842    1.5220   20.7505 C   0  0  0  0  0  0  0  0  0  0  0  0
    9.0860    1.1630   22.4043 C   0  0  0  0  0  0  0  0  0  0  0  0
    9.8918    0.1124   22.9390 N   0  0  0  0  0  0  0  0  0  0  0  0
    9.4234    1.7054   21.3168 O   0  0  0  0  0  0  0  0  0  0  0  0
   10.8190    7.7023   25.6760 H   0  0  0  0  0  0  0  0  0  0  0  0
   10.7948    7.5192   27.2985 H   0  0  0  0  0  0  0  0  0  0  0  0
   10.5870    6.2229   26.3273 H   0  0  0  0  0  0  0  0  0  0  0  0
    7.2754    6.8101   27.6249 H   0  0  0  0  0  0  0  0  0  0  0  0
    8.4528    5.6854   27.5013 H   0  0  0  0  0  0  0  0  0  0  0  0
    8.6606    6.9816   28.4725 H   0  0  0  0  0  0  0  0  0  0  0  0
    7.6375    9.1184   26.6033 H   0  0  0  0  0  0  0  0  0  0  0  0
    9.0194    9.2678   27.4605 H   0  0  0  0  0  0  0  0  0  0  0  0
    9.0424    9.4436   25.8371 H   0  0  0  0  0  0  0  0  0  0  0  0
    7.6888    4.5139   25.0415 H   0  0  0  0  0  0  0  0  0  0  0  0
    9.0421    4.8507   25.8911 H   0  0  0  0  0  0  0  0  0  0  0  0
    9.1916    3.9851   21.8596 H   0  0  0  0  0  0  0  0  0  0  0  0
    6.9995    3.2104   22.0759 H   0  0  0  0  0  0  0  0  0  0  0  0
    7.0283    3.4634   23.6889 H   0  0  0  0  0  0  0  0  0  0  0  0
    8.0206    1.4941   24.1155 H   0  0  0  0  0  0  0  0  0  0  0  0
    5.8288    1.0450   23.2670 H   0  0  0  0  0  0  0  0  0  0  0  0
    6.8384   -0.2281   23.1041 H   0  0  0  0  0  0  0  0  0  0  0  0
    7.6366   -0.9279   20.8732 H   0  0  0  0  0  0  0  0  0  0  0  0
    7.1483   -1.0024   18.5295 H   0  0  0  0  0  0  0  0  0  0  0  0
    4.4319    2.1039   18.9883 H   0  0  0  0  0  0  0  0  0  0  0  0
    4.9116    2.1828   21.3336 H   0  0  0  0  0  0  0  0  0  0  0  0
   10.7147   -0.1830   22.4538 H   0  0  0  0  0  0  0  0  0  0  0  0
    9.6331   -0.3280   23.7988 H   0  0  0  0  0  0  0  0  0  0  0  0
  1  2  1  0  0  0  0
  2  3  1  0  0  0  0
  2  4  1  0  0  0  0
  2  5  1  0  0  0  0
  5  6  1  0  0  0  0
  6  7  1  0  0  0  0
  7  8  2  0  0  0  0
  7  9  1  0  0  0  0
  9 10  1  0  0  0  0
 10 11  1  0  0  0  0
 11 12  1  0  0  0  0
 12 13  1  0  0  0  0
 13 14  2  0  0  0  0
 14 15  1  0  0  0  0
 15 16  2  0  0  0  0
 16 17  1  0  0  0  0
 16 18  1  0  0  0  0
 18 19  2  0  0  0  0
 11 20  1  0  0  0  0
 20 21  1  0  0  0  0
 20 22  2  0  0  0  0
 19 13  1  0  0  0  0
  1 23  1  0  0  0  0
  1 24  1  0  0  0  0
  1 25  1  0  0  0  0
  3 26  1  0  0  0  0
  3 27  1  0  0  0  0
  3 28  1  0  0  0  0
  4 29  1  0  0  0  0
  4 30  1  0  0  0  0
  4 31  1  0  0  0  0
  6 32  1  0  0  0  0
  6 33  1  0  0  0  0
  9 34  1  0  0  0  0
 10 35  1  0  0  0  0
 10 36  1  0  0  0  0
 11 37  1  0  0  0  0
 12 38  1  0  0  0  0
 12 39  1  0  0  0  0
 14 40  1  0  0  0  0
 15 41  1  0  0  0  0
 18 42  1  0  0  0  0
 19 43  1  0  0  0  0
 21 44  1  0  0  0  0
 21 45  1  0  0  0  0
M  END
> <BIOSOLVEIT.HYDE_ESTIMATED_AFFINITY_LOWER_BOUNDARY [nM]>
76639.169166

> <BIOSOLVEIT.HYDE_ESTIMATED_AFFINITY_UPPER_BOUNDARY [nM]>
7614554.583233

> <BIOSOLVEIT.HYDE_LIGAND_EFFICIENCY range: ++, +, 0, -, -->
--

> <BIOSOLVEIT.HYDE_LIGAND_LIPOPHILIC_EFFICIENCY range: ++, +, 0, -, -->
--

> <BIOSOLVEIT.INTER_CLASH range: red, yellow, green>
green

> <BIOSOLVEIT.INTRA_CLASH range: red, yellow, green>
green

> <BIOSOLVEIT.LOGP>
2.1176

> <BIOSOLVEIT.MOLECULAR WEIGHT>
326.433

> <BIOSOLVEIT.MOLECULE_CHECKSUM>
LTE3Ljc5MTY7MC44MDg3MDk=

> <BIOSOLVEIT.TORSION_QUALITY range: red, yellow, green, not rotatable>
green

> <BIOSOLVEIT.TPSA>
72.19

$$$$
mol_67_1_02
anSeeSAR  04022021533D 1   1.00000     0.00000     0
SeeSAR 9.2 andre
 48 48  0  0  0  0            999 V2000
    7.8477   -6.0637   23.3751 C   0  0  0  0  0  0  0  0  0  0  0  0
    6.7631   -4.9971   23.5212 C   0  0  0  0  0  0  0  0  0  0  0  0
    7.2685   -3.7503   24.2566 C   0  0  0  0  0  0  0  0  0  0  0  0
    8.3977   -2.7586   23.2118 S   0  0  0  0  0  0  0  0  0  0  0  0
    8.8343   -1.5403   24.4987 C   0  0  0  0  0  0  0  0  0  0  0  0
    9.7185   -0.4892   23.9081 C   0  0  0  0  0  0  0  0  0  0  0  0
   10.9023   -0.7823   23.5880 O   0  0  0  0  0  0  0  0  0  0  0  0
    9.2183    0.8437   23.7222 N   0  0  0  0  0  0  0  0  0  0  0  0
    7.8524    1.2443   24.0749 C   0  0  0  0  0  0  0  0  0  0  0  0
    6.9710    1.5632   22.8237 C   0  0  2  0  0  0  0  0  0  0  0  0
    5.6366    2.1574   23.3466 C   0  0  0  0  0  0  0  0  0  0  0  0
    6.6606    0.2254   22.0668 C   0  0  0  0  0  0  0  0  0  0  0  0
    6.3133    0.3938   20.6023 C   0  0  0  0  0  0  0  0  0  0  0  0
    5.1684    1.1163   20.2212 C   0  0  0  0  0  0  0  0  0  0  0  0
    4.8360    1.2523   18.8701 C   0  0  0  0  0  0  0  0  0  0  0  0
    5.6324    0.6562   17.8893 C   0  0  0  0  0  0  0  0  0  0  0  0
    6.7586   -0.0835   18.2585 C   0  0  0  0  0  0  0  0  0  0  0  0
    7.0947   -0.2221   19.6085 C   0  0  0  0  0  0  0  0  0  0  0  0
    7.6671    2.5904   21.8574 C   0  0  1  0  0  0  0  0  0  0  0  0
    7.8108    4.0097   22.4334 C   0  0  0  0  0  0  0  0  0  0  0  0
    8.9372    2.1203   21.4804 O   0  0  0  0  0  0  0  0  0  0  0  0
    7.4740   -6.8552   22.8915 H   0  0  0  0  0  0  0  0  0  0  0  0
    8.6163   -5.6888   22.8568 H   0  0  0  0  0  0  0  0  0  0  0  0
    8.1626   -6.3452   24.2815 H   0  0  0  0  0  0  0  0  0  0  0  0
    5.9976   -5.3851   24.0345 H   0  0  0  0  0  0  0  0  0  0  0  0
    6.4513   -4.7286   22.6098 H   0  0  0  0  0  0  0  0  0  0  0  0
    7.7571   -4.0362   25.0809 H   0  0  0  0  0  0  0  0  0  0  0  0
    6.4843   -3.1853   24.5130 H   0  0  0  0  0  0  0  0  0  0  0  0
    9.3157   -2.0008   25.2445 H   0  0  0  0  0  0  0  0  0  0  0  0
    8.0009   -1.1153   24.8521 H   0  0  0  0  0  0  0  0  0  0  0  0
    9.8307    1.5320   23.3334 H   0  0  0  0  0  0  0  0  0  0  0  0
    7.8977    2.0611   24.6501 H   0  0  0  0  0  0  0  0  0  0  0  0
    7.4233    0.4998   24.5864 H   0  0  0  0  0  0  0  0  0  0  0  0
    5.0427    2.3754   22.5722 H   0  0  0  0  0  0  0  0  0  0  0  0
    5.1830    1.4897   23.9369 H   0  0  0  0  0  0  0  0  0  0  0  0
    5.8240    2.9900   23.8677 H   0  0  0  0  0  0  0  0  0  0  0  0
    5.8880   -0.2178   22.5214 H   0  0  0  0  0  0  0  0  0  0  0  0
    7.4668   -0.3629   22.1303 H   0  0  0  0  0  0  0  0  0  0  0  0
    4.5889    1.5349   20.9205 H   0  0  0  0  0  0  0  0  0  0  0  0
    4.0270    1.7772   18.6054 H   0  0  0  0  0  0  0  0  0  0  0  0
    5.3963    0.7588   16.9230 H   0  0  0  0  0  0  0  0  0  0  0  0
    7.3251   -0.5144   17.5561 H   0  0  0  0  0  0  0  0  0  0  0  0
    7.8951   -0.7622   19.8688 H   0  0  0  0  0  0  0  0  0  0  0  0
    7.1094    2.6541   21.0299 H   0  0  0  0  0  0  0  0  0  0  0  0
    8.2603    4.5982   21.7614 H   0  0  0  0  0  0  0  0  0  0  0  0
    6.9050    4.3768   22.6450 H   0  0  0  0  0  0  0  0  0  0  0  0
    8.3605    3.9766   23.2681 H   0  0  0  0  0  0  0  0  0  0  0  0
    8.8857    1.1409   21.2852 H   0  0  0  0  0  0  0  0  0  0  0  0
  1  2  1  0  0  0  0
  2  3  1  0  0  0  0
  3  4  1  0  0  0  0
  4  5  1  0  0  0  0
  5  6  1  0  0  0  0
  6  7  2  0  0  0  0
  6  8  1  0  0  0  0
  8  9  1  0  0  0  0
 10  9  1  0  0  0  0
 10 11  1  0  0  0  0
 10 12  1  0  0  0  0
 12 13  1  0  0  0  0
 13 14  2  0  0  0  0
 14 15  1  0  0  0  0
 15 16  2  0  0  0  0
 16 17  1  0  0  0  0
 17 18  2  0  0  0  0
 10 19  1  0  0  0  0
 19 20  1  0  0  0  0
 19 21  1  0  0  0  0
 18 13  1  0  0  0  0
  1 22  1  0  0  0  0
  1 23  1  0  0  0  0
  1 24  1  0  0  0  0
  2 25  1  0  0  0  0
  2 26  1  0  0  0  0
  3 27  1  0  0  0  0
  3 28  1  0  0  0  0
  5 29  1  0  0  0  0
  5 30  1  0  0  0  0
  8 31  1  0  0  0  0
  9 32  1  0  0  0  0
  9 33  1  0  0  0  0
 11 34  1  0  0  0  0
 11 35  1  0  0  0  0
 11 36  1  0  0  0  0
 12 37  1  0  0  0  0
 12 38  1  0  0  0  0
 14 39  1  0  0  0  0
 15 40  1  0  0  0  0
 16 41  1  0  0  0  0
 17 42  1  0  0  0  0
 18 43  1  0  0  0  0
 19 44  1  0  0  0  0
 20 45  1  0  0  0  0
 20 46  1  0  0  0  0
 20 47  1  0  0  0  0
 21 48  1  0  0  0  0
M  END
> <BIOSOLVEIT.HYDE_ESTIMATED_AFFINITY_LOWER_BOUNDARY [nM]>
93993.091514

> <BIOSOLVEIT.HYDE_ESTIMATED_AFFINITY_UPPER_BOUNDARY [nM]>
9338769.373063

> <BIOSOLVEIT.HYDE_LIGAND_EFFICIENCY range: ++, +, 0, -, -->
--

> <BIOSOLVEIT.HYDE_LIGAND_LIPOPHILIC_EFFICIENCY range: ++, +, 0, -, -->
--

> <BIOSOLVEIT.INTER_CLASH range: red, yellow, green>
green

> <BIOSOLVEIT.INTRA_CLASH range: red, yellow, green>
green

> <BIOSOLVEIT.LOGP>
2.8756

> <BIOSOLVEIT.MOLECULAR WEIGHT>
309.47

> <BIOSOLVEIT.MOLECULE_CHECKSUM>
LTE3LjI4NTY7MC44MjMxMjQ=

> <BIOSOLVEIT.TORSION_QUALITY range: red, yellow, green, not rotatable>
green

> <BIOSOLVEIT.TPSA>
49.33

$$$$
mol_11_1_07
anSeeSAR  04022021533D 1   1.00000     0.00000     0
SeeSAR 9.2 andre
 41 42  0  0  0  0            999 V2000
   13.2272   -1.1990   22.0686 C   0  0  0  0  0  0  0  0  0  0  0  0
   11.7857   -1.0309   22.5482 C   0  0  0  0  0  0  0  0  0  0  0  0
   11.3913    0.4422   22.8036 C   0  0  1  0  0  0  0  0  0  0  0  0
   10.0054    0.4947   23.2831 N   0  0  0  0  0  0  0  0  0  0  0  0
    9.2726    1.7249   23.3844 C   0  0  0  0  0  0  0  0  0  0  0  0
    9.8178    2.8140   23.0552 O   0  0  0  0  0  0  0  0  0  0  0  0
    7.9624    1.7231   23.8774 N   0  0  0  0  0  0  0  0  0  0  0  0
    7.4259    2.8744   24.6236 C   0  0  0  0  0  0  0  0  0  0  0  0
    5.9064    2.8983   24.6535 C   0  0  0  0  0  0  0  0  0  0  0  0
    5.4603    1.5981   25.1743 N   0  0  0  0  0  0  0  0  0  0  0  0
    6.0499    0.4185   24.7063 C   0  0  0  0  0  0  0  0  0  0  0  0
    5.7073   -0.6617   25.1608 O   0  0  0  0  0  0  0  0  0  0  0  0
    7.1215    0.5415   23.6345 C   0  0  1  0  0  0  0  0  0  0  0  0
    6.4077    0.6419   22.2961 C   0  0  0  0  0  0  0  0  0  0  0  0
    6.7500   -0.2201   21.2593 C   0  0  0  0  0  0  0  0  0  0  0  0
    8.0215   -1.4457   21.4836 Cl  0  0  0  0  0  0  0  0  0  0  0  0
    6.1028   -0.1358   20.0305 C   0  0  0  0  0  0  0  0  0  0  0  0
    5.1092    0.8215   19.8532 C   0  0  0  0  0  0  0  0  0  0  0  0
    4.7598    1.6883   20.8837 C   0  0  0  0  0  0  0  0  0  0  0  0
    5.4129    1.5959   22.1084 C   0  0  0  0  0  0  0  0  0  0  0  0
   12.3170    1.1460   23.8156 C   0  0  0  0  0  0  0  0  0  0  0  0
   12.8310    0.2427   24.7299 F   0  0  0  0  0  0  0  0  0  0  0  0
   13.3556    1.7898   23.1681 F   0  0  0  0  0  0  0  0  0  0  0  0
   13.4188   -2.1695   21.9223 H   0  0  0  0  0  0  0  0  0  0  0  0
   13.3531   -0.7013   21.2104 H   0  0  0  0  0  0  0  0  0  0  0  0
   13.8527   -0.8361   22.7592 H   0  0  0  0  0  0  0  0  0  0  0  0
   11.6737   -1.5414   23.4008 H   0  0  0  0  0  0  0  0  0  0  0  0
   11.1741   -1.4066   21.8519 H   0  0  0  0  0  0  0  0  0  0  0  0
   11.4421    0.9359   21.9354 H   0  0  0  0  0  0  0  0  0  0  0  0
    9.5550   -0.3576   23.5490 H   0  0  0  0  0  0  0  0  0  0  0  0
    7.7505    3.7154   24.1908 H   0  0  0  0  0  0  0  0  0  0  0  0
    7.7637    2.8316   25.5639 H   0  0  0  0  0  0  0  0  0  0  0  0
    5.5479    3.0387   23.7306 H   0  0  0  0  0  0  0  0  0  0  0  0
    5.5871    3.6342   25.2506 H   0  0  0  0  0  0  0  0  0  0  0  0
    4.7361    1.5566   25.8626 H   0  0  0  0  0  0  0  0  0  0  0  0
    7.6935   -0.2787   23.6433 H   0  0  0  0  0  0  0  0  0  0  0  0
    6.3487   -0.7551   19.2848 H   0  0  0  0  0  0  0  0  0  0  0  0
    4.6395    0.8874   18.9728 H   0  0  0  0  0  0  0  0  0  0  0  0
    4.0443    2.3730   20.7449 H   0  0  0  0  0  0  0  0  0  0  0  0
    5.1671    2.2153   22.8540 H   0  0  0  0  0  0  0  0  0  0  0  0
   11.7816    1.8292   24.3123 H   0  0  0  0  0  0  0  0  0  0  0  0
  1  2  1  0  0  0  0
  2  3  1  0  0  0  0
  3  4  1  0  0  0  0
  4  5  1  0  0  0  0
  5  6  2  0  0  0  0
  5  7  1  0  0  0  0
  7  8  1  0  0  0  0
  8  9  1  0  0  0  0
  9 10  1  0  0  0  0
 10 11  1  0  0  0  0
 11 12  2  0  0  0  0
 11 13  1  0  0  0  0
 13 14  1  0  0  0  0
 14 15  2  0  0  0  0
 15 16  1  0  0  0  0
 15 17  1  0  0  0  0
 17 18  2  0  0  0  0
 18 19  1  0  0  0  0
 19 20  2  0  0  0  0
  3 21  1  0  0  0  0
 21 22  1  0  0  0  0
 21 23  1  0  0  0  0
 13  7  1  0  0  0  0
 20 14  1  0  0  0  0
  1 24  1  0  0  0  0
  1 25  1  0  0  0  0
  1 26  1  0  0  0  0
  2 27  1  0  0  0  0
  2 28  1  0  0  0  0
  3 29  1  0  0  0  0
  4 30  1  0  0  0  0
  8 31  1  0  0  0  0
  8 32  1  0  0  0  0
  9 33  1  0  0  0  0
  9 34  1  0  0  0  0
 10 35  1  0  0  0  0
 13 36  1  0  0  0  0
 17 37  1  0  0  0  0
 18 38  1  0  0  0  0
 19 39  1  0  0  0  0
 20 40  1  0  0  0  0
 21 41  1  0  0  0  0
M  END
> <BIOSOLVEIT.HYDE_ESTIMATED_AFFINITY_LOWER_BOUNDARY [nM]>
96405.630728

> <BIOSOLVEIT.HYDE_ESTIMATED_AFFINITY_UPPER_BOUNDARY [nM]>
9578469.408065

> <BIOSOLVEIT.HYDE_LIGAND_EFFICIENCY range: ++, +, 0, -, -->
--

> <BIOSOLVEIT.HYDE_LIGAND_LIPOPHILIC_EFFICIENCY range: ++, +, 0, -, -->
--

> <BIOSOLVEIT.INTER_CLASH range: red, yellow, green>
green

> <BIOSOLVEIT.INTRA_CLASH range: red, yellow, green>
yellow

> <BIOSOLVEIT.LOGP>
2.5662

> <BIOSOLVEIT.MOLECULAR WEIGHT>
345.775

> <BIOSOLVEIT.MOLECULE_CHECKSUM>
LTE3LjIyMjg7MC43NDg4MTc=

> <BIOSOLVEIT.TORSION_QUALITY range: red, yellow, green, not rotatable>
green

> <BIOSOLVEIT.TPSA>
61.44

$$$$
mol_93_1_09
anSeeSAR  04022021533D 1   1.00000     0.00000     0
SeeSAR 9.2 andre
 41 43  0  0  0  0            999 V2000
    6.7291    4.7749   22.0010 C   0  0  0  0  0  0  0  0  0  0  0  0
    5.8619    3.7987   22.7293 C   0  0  0  0  0  0  0  0  0  0  0  0
    4.6493    4.0918   22.9302 O   0  0  0  0  0  0  0  0  0  0  0  0
    6.4079    2.5467   23.1931 N   0  0  0  0  0  0  0  0  0  0  0  0
    5.6412    1.3020   23.3322 C   0  0  1  0  0  0  0  0  0  0  0  0
    6.2836    0.1426   22.5393 C   0  0  0  0  0  0  0  0  0  0  0  0
    6.2151    0.3779   21.0390 C   0  0  0  0  0  0  0  0  0  0  0  0
    5.1339    1.0677   20.5016 C   0  0  0  0  0  0  0  0  0  0  0  0
    5.0625    1.2890   19.1299 C   0  0  0  0  0  0  0  0  0  0  0  0
    6.0816    0.8127   18.3120 C   0  0  0  0  0  0  0  0  0  0  0  0
    6.0230    1.0214   16.9796 O   0  0  0  0  0  0  0  0  0  0  0  0
    7.1664    0.1208   18.8408 C   0  0  0  0  0  0  0  0  0  0  0  0
    7.2293   -0.0949   20.2135 C   0  0  0  0  0  0  0  0  0  0  0  0
    5.4463    0.9585   24.7925 C   0  0  0  0  0  0  0  0  0  0  0  0
    4.2830    0.7608   25.2366 O   0  0  0  0  0  0  0  0  0  0  0  0
    6.5750    0.8387   25.6798 N   0  0  0  0  0  0  0  0  0  0  0  0
    7.9190    0.3979   25.2977 C   0  0  0  0  0  0  0  0  0  0  0  0
    8.3155   -0.2904   26.5786 C   0  0  0  0  0  0  0  0  0  0  0  0
    7.6169    0.4530   27.6334 N   0  0  0  0  0  0  0  0  0  0  0  0
    7.6807    0.6875   28.9252 N   0  0  0  0  0  0  0  0  0  0  0  0
    6.6750    1.4631   29.2598 C   0  0  0  0  0  0  0  0  0  0  0  0
    5.9536    1.7371   28.0756 C   0  0  0  0  0  0  0  0  0  0  0  0
    6.5859    1.0927   27.0546 C   0  0  0  0  0  0  0  0  0  0  0  0
    7.6541    4.4036   21.9205 H   0  0  0  0  0  0  0  0  0  0  0  0
    6.3545    4.9372   21.0882 H   0  0  0  0  0  0  0  0  0  0  0  0
    6.7588    5.6367   22.5073 H   0  0  0  0  0  0  0  0  0  0  0  0
    7.3774    2.5249   23.4372 H   0  0  0  0  0  0  0  0  0  0  0  0
    4.7354    1.4646   22.9409 H   0  0  0  0  0  0  0  0  0  0  0  0
    5.7996   -0.7051   22.7564 H   0  0  0  0  0  0  0  0  0  0  0  0
    7.2425    0.0576   22.8101 H   0  0  0  0  0  0  0  0  0  0  0  0
    4.4079    1.4047   21.1010 H   0  0  0  0  0  0  0  0  0  0  0  0
    4.2879    1.7845   18.7369 H   0  0  0  0  0  0  0  0  0  0  0  0
    5.7058    1.9009   16.6247 H   0  0  0  0  0  0  0  0  0  0  0  0
    7.8920   -0.2173   18.2415 H   0  0  0  0  0  0  0  0  0  0  0  0
    8.0040   -0.5900   20.6067 H   0  0  0  0  0  0  0  0  0  0  0  0
    8.5197    1.1685   25.0847 H   0  0  0  0  0  0  0  0  0  0  0  0
    7.9000   -0.2340   24.5229 H   0  0  0  0  0  0  0  0  0  0  0  0
    9.3056   -0.2446   26.7115 H   0  0  0  0  0  0  0  0  0  0  0  0
    8.0243   -1.2470   26.5695 H   0  0  0  0  0  0  0  0  0  0  0  0
    6.4604    1.7964   30.1779 H   0  0  0  0  0  0  0  0  0  0  0  0
    5.1307    2.3003   28.0007 H   0  0  0  0  0  0  0  0  0  0  0  0
  1  2  1  0  0  0  0
  2  3  2  0  0  0  0
  2  4  1  0  0  0  0
  4  5  1  0  0  0  0
  5  6  1  0  0  0  0
  6  7  1  0  0  0  0
  7  8  2  0  0  0  0
  8  9  1  0  0  0  0
  9 10  2  0  0  0  0
 10 11  1  0  0  0  0
 10 12  1  0  0  0  0
 12 13  2  0  0  0  0
  5 14  1  0  0  0  0
 14 15  2  0  0  0  0
 14 16  1  0  0  0  0
 16 17  1  0  0  0  0
 17 18  1  0  0  0  0
 18 19  1  0  0  0  0
 19 20  1  0  0  0  0
 20 21  2  0  0  0  0
 21 22  1  0  0  0  0
 22 23  2  0  0  0  0
 13  7  1  0  0  0  0
 23 16  1  0  0  0  0
 23 19  1  0  0  0  0
  1 24  1  0  0  0  0
  1 25  1  0  0  0  0
  1 26  1  0  0  0  0
  4 27  1  0  0  0  0
  5 28  1  0  0  0  0
  6 29  1  0  0  0  0
  6 30  1  0  0  0  0
  8 31  1  0  0  0  0
  9 32  1  0  0  0  0
 11 33  1  0  0  0  0
 12 34  1  0  0  0  0
 13 35  1  0  0  0  0
 17 36  1  0  0  0  0
 17 37  1  0  0  0  0
 18 38  1  0  0  0  0
 18 39  1  0  0  0  0
 21 40  1  0  0  0  0
 22 41  1  0  0  0  0
M  END
> <BIOSOLVEIT.HYDE_ESTIMATED_AFFINITY_LOWER_BOUNDARY [nM]>
130505.007465

> <BIOSOLVEIT.HYDE_ESTIMATED_AFFINITY_UPPER_BOUNDARY [nM]>
12966444.098305

> <BIOSOLVEIT.HYDE_LIGAND_EFFICIENCY range: ++, +, 0, -, -->
--

> <BIOSOLVEIT.HYDE_LIGAND_LIPOPHILIC_EFFICIENCY range: ++, +, 0, -, -->
-

> <BIOSOLVEIT.INTER_CLASH range: red, yellow, green>
green

> <BIOSOLVEIT.INTRA_CLASH range: red, yellow, green>
green

> <BIOSOLVEIT.LOGP>
0.6827

> <BIOSOLVEIT.MOLECULAR WEIGHT>
314.343

> <BIOSOLVEIT.MOLECULE_CHECKSUM>
LTE2LjQ3MjswLjcxNjE3NQ==

> <BIOSOLVEIT.TORSION_QUALITY range: red, yellow, green, not rotatable>
yellow

> <BIOSOLVEIT.TPSA>
87.46

$$$$
mol_62_1_07
anSeeSAR  04022021533D 1   1.00000     0.00000     0
SeeSAR 9.2 andre
 32 32  0  0  0  0            999 V2000
    8.7076    1.1128   20.9066 O   0  0  0  0  0  0  0  0  0  0  0  0
    9.0909    1.4244   22.0669 C   0  0  0  0  0  0  0  0  0  0  0  0
    8.8781    0.4580   23.2003 C   0  0  0  0  0  0  0  0  0  0  0  0
    7.6957   -0.3973   22.9763 N   0  3  0  0  0  0  0  0  0  0  0  0
    6.4177    0.2805   23.2762 C   0  0  0  0  0  0  0  0  0  0  0  0
    5.7376    0.9677   22.1035 C   0  0  0  0  0  0  0  0  0  0  0  0
    5.6895    0.3407   20.8621 C   0  0  0  0  0  0  0  0  0  0  0  0
    6.2470   -0.8783   20.6994 O   0  0  0  0  0  0  0  0  0  0  0  0
    5.0673    0.9698   19.7891 C   0  0  0  0  0  0  0  0  0  0  0  0
    4.4925    2.2253   19.9569 C   0  0  0  0  0  0  0  0  0  0  0  0
    4.5407    2.8521   21.1980 C   0  0  0  0  0  0  0  0  0  0  0  0
    5.1631    2.2233   22.2711 C   0  0  0  0  0  0  0  0  0  0  0  0
    9.6931    2.7025   22.3104 N   0  0  0  0  0  0  0  0  0  0  0  0
   10.6915    2.8867   23.3639 C   0  0  0  0  0  0  0  0  0  0  0  0
   12.1103    2.7181   22.8211 C   0  0  0  0  0  0  0  0  0  0  0  0
   12.1576    3.1008   21.4923 F   0  0  0  0  0  0  0  0  0  0  0  0
   12.9931    3.4924   23.5527 F   0  0  0  0  0  0  0  0  0  0  0  0
   12.4871    1.3914   22.9204 F   0  0  0  0  0  0  0  0  0  0  0  0
    8.7481    0.9749   24.0464 H   0  0  0  0  0  0  0  0  0  0  0  0
    9.6869   -0.1237   23.2859 H   0  0  0  0  0  0  0  0  0  0  0  0
    7.7721   -1.2040   23.5623 H   0  0  0  0  0  0  0  0  0  0  0  0
    7.6867   -0.6814   22.0175 H   0  0  0  0  0  0  0  0  0  0  0  0
    6.5951    0.9728   23.9757 H   0  0  0  0  0  0  0  0  0  0  0  0
    5.7854   -0.4046   23.6381 H   0  0  0  0  0  0  0  0  0  0  0  0
    5.8340   -1.5371   20.0705 H   0  0  0  0  0  0  0  0  0  0  0  0
    5.0331    0.5194   18.8969 H   0  0  0  0  0  0  0  0  0  0  0  0
    4.0447    2.6774   19.1855 H   0  0  0  0  0  0  0  0  0  0  0  0
    4.1277    3.7548   21.3186 H   0  0  0  0  0  0  0  0  0  0  0  0
    5.1975    2.6738   23.1632 H   0  0  0  0  0  0  0  0  0  0  0  0
    9.4250    3.4848   21.7482 H   0  0  0  0  0  0  0  0  0  0  0  0
   10.5352    2.2092   24.0827 H   0  0  0  0  0  0  0  0  0  0  0  0
   10.5960    3.8059   23.7459 H   0  0  0  0  0  0  0  0  0  0  0  0
  1  2  2  0  0  0  0
  2  3  1  0  0  0  0
  3  4  1  0  0  0  0
  4  5  1  0  0  0  0
  5  6  1  0  0  0  0
  6  7  2  0  0  0  0
  7  8  1  0  0  0  0
  7  9  1  0  0  0  0
  9 10  2  0  0  0  0
 10 11  1  0  0  0  0
 11 12  2  0  0  0  0
  2 13  1  0  0  0  0
 13 14  1  0  0  0  0
 14 15  1  0  0  0  0
 15 16  1  0  0  0  0
 15 17  1  0  0  0  0
 15 18  1  0  0  0  0
 12  6  1  0  0  0  0
  3 19  1  0  0  0  0
  3 20  1  0  0  0  0
  4 21  1  0  0  0  0
  4 22  1  0  0  0  0
  5 23  1  0  0  0  0
  5 24  1  0  0  0  0
  8 25  1  0  0  0  0
  9 26  1  0  0  0  0
 10 27  1  0  0  0  0
 11 28  1  0  0  0  0
 12 29  1  0  0  0  0
 13 30  1  0  0  0  0
 14 31  1  0  0  0  0
 14 32  1  0  0  0  0
M  CHG  1   4   1
M  END
> <BIOSOLVEIT.HYDE_ESTIMATED_AFFINITY_LOWER_BOUNDARY [nM]>
151188.029329

> <BIOSOLVEIT.HYDE_ESTIMATED_AFFINITY_UPPER_BOUNDARY [nM]>
15021424.608226

> <BIOSOLVEIT.HYDE_LIGAND_EFFICIENCY range: ++, +, 0, -, -->
-

> <BIOSOLVEIT.HYDE_LIGAND_LIPOPHILIC_EFFICIENCY range: ++, +, 0, -, -->
-

> <BIOSOLVEIT.INTER_CLASH range: red, yellow, green>
green

> <BIOSOLVEIT.INTRA_CLASH range: red, yellow, green>
green

> <BIOSOLVEIT.LOGP>
0.1341

> <BIOSOLVEIT.MOLECULAR WEIGHT>
263.238

> <BIOSOLVEIT.MOLECULE_CHECKSUM>
LTE2LjEwNzM7MC44OTQ4NTM=

> <BIOSOLVEIT.TORSION_QUALITY range: red, yellow, green, not rotatable>
green

> <BIOSOLVEIT.TPSA>
65.94

$$$$
mol_24_1_02
anSeeSAR  04022021533D 1   1.00000     0.00000     0
SeeSAR 9.2 andre
 50 50  0  0  0  0            999 V2000
   10.5044   -1.7766   23.1849 C   0  0  0  0  0  0  0  0  0  0  0  0
    9.1935   -1.4766   23.7462 N   0  0  0  0  0  0  0  0  0  0  0  0
    8.8772   -0.1748   24.2644 C   0  0  0  0  0  0  0  0  0  0  0  0
    9.7905    0.5360   24.7662 O   0  0  0  0  0  0  0  0  0  0  0  0
    7.4587    0.3519   24.2659 C   0  0  1  0  0  0  0  0  0  0  0  0
    7.4004    1.8571   23.9213 C   0  0  0  0  0  0  0  0  0  0  0  0
    8.1358    2.6534   24.9041 N   0  0  0  0  0  0  0  0  0  0  0  0
    9.2383    3.5002   24.5502 C   0  0  0  0  0  0  0  0  0  0  0  0
    9.9669    3.1995   23.5673 O   0  0  0  0  0  0  0  0  0  0  0  0
    9.4983    4.6840   25.3264 N   0  0  0  0  0  0  0  0  0  0  0  0
   10.1075    5.9361   24.8275 C   0  0  0  0  0  0  0  0  0  0  0  0
   10.3496    6.9225   25.9914 C   0  0  0  0  0  0  0  0  0  0  0  0
    9.1164    6.6015   23.8442 C   0  0  0  0  0  0  0  0  0  0  0  0
   11.4306    5.6301   24.0752 C   0  0  0  0  0  0  0  0  0  0  0  0
   11.1844    5.4128   22.7296 F   0  0  0  0  0  0  0  0  0  0  0  0
   12.0239    4.4962   24.6034 F   0  0  0  0  0  0  0  0  0  0  0  0
   12.3257    6.6783   24.1805 F   0  0  0  0  0  0  0  0  0  0  0  0
    6.5235   -0.5155   23.3897 C   0  0  0  0  0  0  0  0  0  0  0  0
    6.5478   -0.1581   21.9220 C   0  0  0  0  0  0  0  0  0  0  0  0
    7.5725   -0.6403   21.0923 C   0  0  0  0  0  0  0  0  0  0  0  0
    7.5960   -0.3136   19.7335 C   0  0  0  0  0  0  0  0  0  0  0  0
    8.6037   -0.7758   18.9520 F   0  0  0  0  0  0  0  0  0  0  0  0
    6.5887    0.4853   19.1776 C   0  0  0  0  0  0  0  0  0  0  0  0
    6.6547    0.7900   17.8097 O   0  0  0  0  0  0  0  0  0  0  0  0
    5.7685    1.6811   17.1404 C   0  0  0  0  0  0  0  0  0  0  0  0
    5.5483    0.9514   20.0039 C   0  0  0  0  0  0  0  0  0  0  0  0
    5.5268    0.6257   21.3629 C   0  0  0  0  0  0  0  0  0  0  0  0
   10.5266   -2.7289   22.8805 H   0  0  0  0  0  0  0  0  0  0  0  0
   10.6797   -1.1737   22.4066 H   0  0  0  0  0  0  0  0  0  0  0  0
   11.2064   -1.6332   23.8824 H   0  0  0  0  0  0  0  0  0  0  0  0
    8.4975   -2.1941   23.7713 H   0  0  0  0  0  0  0  0  0  0  0  0
    7.1265    0.2645   25.2051 H   0  0  0  0  0  0  0  0  0  0  0  0
    6.4451    2.1527   23.9109 H   0  0  0  0  0  0  0  0  0  0  0  0
    7.8037    2.0008   23.0175 H   0  0  0  0  0  0  0  0  0  0  0  0
    7.8579    2.6052   25.8636 H   0  0  0  0  0  0  0  0  0  0  0  0
    9.2433    4.6575   26.2930 H   0  0  0  0  0  0  0  0  0  0  0  0
   10.7612    7.7620   25.6367 H   0  0  0  0  0  0  0  0  0  0  0  0
    9.4783    7.1387   26.4319 H   0  0  0  0  0  0  0  0  0  0  0  0
   10.9662    6.5053   26.6590 H   0  0  0  0  0  0  0  0  0  0  0  0
    9.5121    7.4512   23.4959 H   0  0  0  0  0  0  0  0  0  0  0  0
    8.9362    5.9805   23.0813 H   0  0  0  0  0  0  0  0  0  0  0  0
    8.2599    6.8029   24.3194 H   0  0  0  0  0  0  0  0  0  0  0  0
    5.5877   -0.4051   23.7244 H   0  0  0  0  0  0  0  0  0  0  0  0
    6.8010   -1.4715   23.4849 H   0  0  0  0  0  0  0  0  0  0  0  0
    8.2903   -1.2214   21.4760 H   0  0  0  0  0  0  0  0  0  0  0  0
    6.0165    1.7339   16.1731 H   0  0  0  0  0  0  0  0  0  0  0  0
    4.8305    1.3452   17.2262 H   0  0  0  0  0  0  0  0  0  0  0  0
    5.8360    2.5900   17.5520 H   0  0  0  0  0  0  0  0  0  0  0  0
    4.8212    1.5183   19.6166 H   0  0  0  0  0  0  0  0  0  0  0  0
    4.7791    0.9532   21.9405 H   0  0  0  0  0  0  0  0  0  0  0  0
  1  2  1  0  0  0  0
  2  3  1  0  0  0  0
  3  4  2  0  0  0  0
  3  5  1  0  0  0  0
  5  6  1  0  0  0  0
  6  7  1  0  0  0  0
  7  8  1  0  0  0  0
  8  9  2  0  0  0  0
  8 10  1  0  0  0  0
 10 11  1  0  0  0  0
 11 12  1  0  0  0  0
 11 13  1  0  0  0  0
 11 14  1  0  0  0  0
 14 15  1  0  0  0  0
 14 16  1  0  0  0  0
 14 17  1  0  0  0  0
  5 18  1  0  0  0  0
 18 19  1  0  0  0  0
 19 20  2  0  0  0  0
 20 21  1  0  0  0  0
 21 22  1  0  0  0  0
 21 23  2  0  0  0  0
 23 24  1  0  0  0  0
 24 25  1  0  0  0  0
 23 26  1  0  0  0  0
 26 27  2  0  0  0  0
 27 19  1  0  0  0  0
  1 28  1  0  0  0  0
  1 29  1  0  0  0  0
  1 30  1  0  0  0  0
  2 31  1  0  0  0  0
  5 32  1  0  0  0  0
  6 33  1  0  0  0  0
  6 34  1  0  0  0  0
  7 35  1  0  0  0  0
 10 36  1  0  0  0  0
 12 37  1  0  0  0  0
 12 38  1  0  0  0  0
 12 39  1  0  0  0  0
 13 40  1  0  0  0  0
 13 41  1  0  0  0  0
 13 42  1  0  0  0  0
 18 43  1  0  0  0  0
 18 44  1  0  0  0  0
 20 45  1  0  0  0  0
 25 46  1  0  0  0  0
 25 47  1  0  0  0  0
 25 48  1  0  0  0  0
 26 49  1  0  0  0  0
 27 50  1  0  0  0  0
M  END
> <BIOSOLVEIT.HYDE_ESTIMATED_AFFINITY_LOWER_BOUNDARY [nM]>
155983.875495

> <BIOSOLVEIT.HYDE_ESTIMATED_AFFINITY_UPPER_BOUNDARY [nM]>
15497920.280069

> <BIOSOLVEIT.HYDE_LIGAND_EFFICIENCY range: ++, +, 0, -, -->
--

> <BIOSOLVEIT.HYDE_LIGAND_LIPOPHILIC_EFFICIENCY range: ++, +, 0, -, -->
--

> <BIOSOLVEIT.INTER_CLASH range: red, yellow, green>
yellow

> <BIOSOLVEIT.INTRA_CLASH range: red, yellow, green>
yellow

> <BIOSOLVEIT.LOGP>
2.3791

> <BIOSOLVEIT.MOLECULAR WEIGHT>
393.379

> <BIOSOLVEIT.MOLECULE_CHECKSUM>
LTE2LjAyOTk7MC41OTM3MDE=

> <BIOSOLVEIT.TORSION_QUALITY range: red, yellow, green, not rotatable>
yellow

> <BIOSOLVEIT.TPSA>
79.46

$$$$
mol_89_1_06
anSeeSAR  04022021533D 1   1.00000     0.00000     0
SeeSAR 9.2 andre
 42 42  0  0  0  0            999 V2000
    7.3221    5.9142   21.8537 C   0  0  0  0  0  0  0  0  0  0  0  0
    7.8987    5.4098   22.9514 C   0  0  0  0  0  0  0  0  0  0  0  0
    8.5648    6.3432   23.9429 C   0  0  0  0  0  0  0  0  0  0  0  0
    9.7686    5.7105   24.6799 C   0  0  0  0  0  0  0  0  0  0  0  0
   10.2934    6.6007   25.8151 C   0  0  0  0  0  0  0  0  0  0  0  0
   10.9025    5.3300   23.7185 C   0  0  0  0  0  0  0  0  0  0  0  0
    7.9014    3.9485   23.2052 C   0  0  0  0  0  0  0  0  0  0  0  0
    7.1304    3.4769   24.0850 O   0  0  0  0  0  0  0  0  0  0  0  0
    8.7340    3.0607   22.4397 N   0  0  0  0  0  0  0  0  0  0  0  0
    9.2331    1.7989   22.9816 C   0  0  0  0  0  0  0  0  0  0  0  0
    8.1265    0.7386   22.9683 C   0  0  0  0  0  0  0  0  0  0  0  0
    7.3861    0.7388   21.6404 C   0  0  0  0  0  0  0  0  0  0  0  0
    7.9957    0.1885   20.5175 C   0  0  0  0  0  0  0  0  0  0  0  0
    7.3134    0.1918   19.3053 C   0  0  0  0  0  0  0  0  0  0  0  0
    7.8945   -0.3387   18.2081 O   0  0  0  0  0  0  0  0  0  0  0  0
    6.0374    0.7396   19.2206 C   0  0  0  0  0  0  0  0  0  0  0  0
    5.2824    0.7489   17.9013 C   0  0  0  0  0  0  0  0  0  0  0  0
    5.4361    1.2884   20.3483 C   0  0  0  0  0  0  0  0  0  0  0  0
    6.1106    1.2894   21.5655 C   0  0  0  0  0  0  0  0  0  0  0  0
    6.8809    5.3043   21.1955 H   0  0  0  0  0  0  0  0  0  0  0  0
    7.3326    6.9010   21.6920 H   0  0  0  0  0  0  0  0  0  0  0  0
    7.8858    6.6170   24.6241 H   0  0  0  0  0  0  0  0  0  0  0  0
    8.8861    7.1513   23.4491 H   0  0  0  0  0  0  0  0  0  0  0  0
    9.4430    4.8629   25.0989 H   0  0  0  0  0  0  0  0  0  0  0  0
   11.0681    6.1514   26.2600 H   0  0  0  0  0  0  0  0  0  0  0  0
   10.5881    7.4797   25.4404 H   0  0  0  0  0  0  0  0  0  0  0  0
    9.5657    6.7508   26.4845 H   0  0  0  0  0  0  0  0  0  0  0  0
   11.6569    4.9262   24.2361 H   0  0  0  0  0  0  0  0  0  0  0  0
   10.5645    4.6673   23.0501 H   0  0  0  0  0  0  0  0  0  0  0  0
   11.2249    6.1483   23.2428 H   0  0  0  0  0  0  0  0  0  0  0  0
    8.9800    3.3156   21.5045 H   0  0  0  0  0  0  0  0  0  0  0  0
    9.5407    1.9427   23.9222 H   0  0  0  0  0  0  0  0  0  0  0  0
   10.0007    1.4814   22.4248 H   0  0  0  0  0  0  0  0  0  0  0  0
    7.4780    0.9338   23.7040 H   0  0  0  0  0  0  0  0  0  0  0  0
    8.5352   -0.1622   23.1144 H   0  0  0  0  0  0  0  0  0  0  0  0
    8.9130   -0.2046   20.5810 H   0  0  0  0  0  0  0  0  0  0  0  0
    7.8459    0.1440   17.3337 H   0  0  0  0  0  0  0  0  0  0  0  0
    4.3892    1.1794   18.0314 H   0  0  0  0  0  0  0  0  0  0  0  0
    5.8049    1.2641   17.2219 H   0  0  0  0  0  0  0  0  0  0  0  0
    5.1564   -0.1906   17.5827 H   0  0  0  0  0  0  0  0  0  0  0  0
    4.5191    1.6821   20.2845 H   0  0  0  0  0  0  0  0  0  0  0  0
    5.6822    1.6825   22.3792 H   0  0  0  0  0  0  0  0  0  0  0  0
  1  2  2  0  0  0  0
  2  3  1  0  0  0  0
  3  4  1  0  0  0  0
  4  5  1  0  0  0  0
  4  6  1  0  0  0  0
  2  7  1  0  0  0  0
  7  8  2  0  0  0  0
  7  9  1  0  0  0  0
  9 10  1  0  0  0  0
 10 11  1  0  0  0  0
 11 12  1  0  0  0  0
 12 13  2  0  0  0  0
 13 14  1  0  0  0  0
 14 15  1  0  0  0  0
 14 16  2  0  0  0  0
 16 17  1  0  0  0  0
 16 18  1  0  0  0  0
 18 19  2  0  0  0  0
 19 12  1  0  0  0  0
  1 20  1  0  0  0  0
  1 21  1  0  0  0  0
  3 22  1  0  0  0  0
  3 23  1  0  0  0  0
  4 24  1  0  0  0  0
  5 25  1  0  0  0  0
  5 26  1  0  0  0  0
  5 27  1  0  0  0  0
  6 28  1  0  0  0  0
  6 29  1  0  0  0  0
  6 30  1  0  0  0  0
  9 31  1  0  0  0  0
 10 32  1  0  0  0  0
 10 33  1  0  0  0  0
 11 34  1  0  0  0  0
 11 35  1  0  0  0  0
 13 36  1  0  0  0  0
 15 37  1  0  0  0  0
 17 38  1  0  0  0  0
 17 39  1  0  0  0  0
 17 40  1  0  0  0  0
 18 41  1  0  0  0  0
 19 42  1  0  0  0  0
M  END
> <BIOSOLVEIT.HYDE_ESTIMATED_AFFINITY_LOWER_BOUNDARY [nM]>
178095.161868

> <BIOSOLVEIT.HYDE_ESTIMATED_AFFINITY_UPPER_BOUNDARY [nM]>
17694807.313476

> <BIOSOLVEIT.HYDE_LIGAND_EFFICIENCY range: ++, +, 0, -, -->
--

> <BIOSOLVEIT.HYDE_LIGAND_LIPOPHILIC_EFFICIENCY range: ++, +, 0, -, -->
--

> <BIOSOLVEIT.INTER_CLASH range: red, yellow, green>
green

> <BIOSOLVEIT.INTRA_CLASH range: red, yellow, green>
green

> <BIOSOLVEIT.LOGP>
2.96162

> <BIOSOLVEIT.MOLECULAR WEIGHT>
261.363

> <BIOSOLVEIT.MOLECULE_CHECKSUM>
LTE1LjcwMTM7MC44MjYzODU=

> <BIOSOLVEIT.TORSION_QUALITY range: red, yellow, green, not rotatable>
green

> <BIOSOLVEIT.TPSA>
49.33

$$$$
mol_50_1_01
anSeeSAR  04022021533D 1   1.00000     0.00000     0
SeeSAR 9.2 andre
 46 46  0  0  0  0            999 V2000
    6.4475   -5.5428   25.6450 C   0  0  0  0  0  0  0  0  0  0  0  0
    5.9553   -5.2196   24.2259 C   0  0  1  0  0  0  0  0  0  0  0  0
    6.9237   -5.7326   23.1326 C   0  0  0  0  0  0  0  0  0  0  0  0
    8.2782   -5.0074   23.0735 C   0  0  0  0  0  0  0  0  0  0  0  0
    8.1487   -3.6343   23.5600 N   0  0  0  0  0  0  0  0  0  0  0  0
    7.7842   -2.5635   22.6759 C   0  0  0  0  0  0  0  0  0  0  0  0
    7.0482   -2.8101   21.6812 O   0  0  0  0  0  0  0  0  0  0  0  0
    8.2404   -1.2114   22.9157 N   0  0  0  0  0  0  0  0  0  0  0  0
    7.4303   -0.0531   22.5039 C   0  0  0  0  0  0  0  0  0  0  0  0
    7.1168   -0.1167   21.0184 C   0  0  0  0  0  0  0  0  0  0  0  0
    8.1538   -0.2850   20.1071 C   0  0  0  0  0  0  0  0  0  0  0  0
    7.8601   -0.3419   18.7488 C   0  0  0  0  0  0  0  0  0  0  0  0
    6.5463   -0.2323   18.3072 C   0  0  0  0  0  0  0  0  0  0  0  0
    5.5153   -0.0638   19.2261 C   0  0  0  0  0  0  0  0  0  0  0  0
    5.7990   -0.0057   20.5865 C   0  0  0  0  0  0  0  0  0  0  0  0
    9.5314   -0.9706   23.5809 C   0  0  0  0  0  0  0  0  0  0  0  0
   10.6770   -0.8790   22.5564 C   0  0  1  0  0  0  0  0  0  0  0  0
   12.0452   -0.9743   23.2334 C   0  0  0  0  0  0  0  0  0  0  0  0
   10.5610   -1.9244   21.6270 O   0  0  0  0  0  0  0  0  0  0  0  0
    4.5008   -5.6793   24.0072 C   0  0  0  0  0  0  0  0  0  0  0  0
    3.6101   -4.8945   24.7190 F   0  0  0  0  0  0  0  0  0  0  0  0
    4.1829   -5.6006   22.6627 F   0  0  0  0  0  0  0  0  0  0  0  0
    5.7911   -5.1927   26.3133 H   0  0  0  0  0  0  0  0  0  0  0  0
    6.5341   -6.5334   25.7502 H   0  0  0  0  0  0  0  0  0  0  0  0
    7.3376   -5.1125   25.7952 H   0  0  0  0  0  0  0  0  0  0  0  0
    5.9493   -4.2225   24.1507 H   0  0  0  0  0  0  0  0  0  0  0  0
    6.4751   -5.6252   22.2453 H   0  0  0  0  0  0  0  0  0  0  0  0
    7.0981   -6.7025   23.3026 H   0  0  0  0  0  0  0  0  0  0  0  0
    8.6015   -4.9917   22.1274 H   0  0  0  0  0  0  0  0  0  0  0  0
    8.9382   -5.4970   23.6433 H   0  0  0  0  0  0  0  0  0  0  0  0
    8.3170   -3.4378   24.5259 H   0  0  0  0  0  0  0  0  0  0  0  0
    7.9373    0.7871   22.6966 H   0  0  0  0  0  0  0  0  0  0  0  0
    6.5739   -0.0515   23.0202 H   0  0  0  0  0  0  0  0  0  0  0  0
    9.0988   -0.3640   20.4245 H   0  0  0  0  0  0  0  0  0  0  0  0
    8.5986   -0.4625   18.0856 H   0  0  0  0  0  0  0  0  0  0  0  0
    6.3424   -0.2745   17.3291 H   0  0  0  0  0  0  0  0  0  0  0  0
    4.5704    0.0155   18.9085 H   0  0  0  0  0  0  0  0  0  0  0  0
    5.0606    0.1152   21.2499 H   0  0  0  0  0  0  0  0  0  0  0  0
    9.7182   -1.7228   24.2127 H   0  0  0  0  0  0  0  0  0  0  0  0
    9.4805   -0.1118   24.0909 H   0  0  0  0  0  0  0  0  0  0  0  0
   10.6129   -0.0057   22.0736 H   0  0  0  0  0  0  0  0  0  0  0  0
   12.7645   -0.9117   22.5416 H   0  0  0  0  0  0  0  0  0  0  0  0
   12.1461   -0.2251   23.8880 H   0  0  0  0  0  0  0  0  0  0  0  0
   12.1195   -1.8485   23.7133 H   0  0  0  0  0  0  0  0  0  0  0  0
   10.9027   -1.6196   20.7380 H   0  0  0  0  0  0  0  0  0  0  0  0
    4.4107   -6.6287   24.3081 H   0  0  0  0  0  0  0  0  0  0  0  0
  1  2  1  0  0  0  0
  2  3  1  0  0  0  0
  3  4  1  0  0  0  0
  4  5  1  0  0  0  0
  5  6  1  0  0  0  0
  6  7  2  0  0  0  0
  6  8  1  0  0  0  0
  8  9  1  0  0  0  0
  9 10  1  0  0  0  0
 10 11  2  0  0  0  0
 11 12  1  0  0  0  0
 12 13  2  0  0  0  0
 13 14  1  0  0  0  0
 14 15  2  0  0  0  0
  8 16  1  0  0  0  0
 16 17  1  0  0  0  0
 17 18  1  0  0  0  0
 17 19  1  0  0  0  0
  2 20  1  0  0  0  0
 20 21  1  0  0  0  0
 20 22  1  0  0  0  0
 15 10  1  0  0  0  0
  1 23  1  0  0  0  0
  1 24  1  0  0  0  0
  1 25  1  0  0  0  0
  2 26  1  0  0  0  0
  3 27  1  0  0  0  0
  3 28  1  0  0  0  0
  4 29  1  0  0  0  0
  4 30  1  0  0  0  0
  5 31  1  0  0  0  0
  9 32  1  0  0  0  0
  9 33  1  0  0  0  0
 11 34  1  0  0  0  0
 12 35  1  0  0  0  0
 13 36  1  0  0  0  0
 14 37  1  0  0  0  0
 15 38  1  0  0  0  0
 16 39  1  0  0  0  0
 16 40  1  0  0  0  0
 17 41  1  0  0  0  0
 18 42  1  0  0  0  0
 18 43  1  0  0  0  0
 18 44  1  0  0  0  0
 19 45  1  0  0  0  0
 20 46  1  0  0  0  0
M  END
> <BIOSOLVEIT.HYDE_ESTIMATED_AFFINITY_LOWER_BOUNDARY [nM]>
227973.537435

> <BIOSOLVEIT.HYDE_ESTIMATED_AFFINITY_UPPER_BOUNDARY [nM]>
22650518.830359

> <BIOSOLVEIT.HYDE_LIGAND_EFFICIENCY range: ++, +, 0, -, -->
--

> <BIOSOLVEIT.HYDE_LIGAND_LIPOPHILIC_EFFICIENCY range: ++, +, 0, -, -->
--

> <BIOSOLVEIT.INTER_CLASH range: red, yellow, green>
green

> <BIOSOLVEIT.INTRA_CLASH range: red, yellow, green>
yellow

> <BIOSOLVEIT.LOGP>
2.8703

> <BIOSOLVEIT.MOLECULAR WEIGHT>
314.374

> <BIOSOLVEIT.MOLECULE_CHECKSUM>
LTE1LjA4OTI7MC42ODU4NzQ=

> <BIOSOLVEIT.TORSION_QUALITY range: red, yellow, green, not rotatable>
red

> <BIOSOLVEIT.TPSA>
52.57

$$$$
mol_80_1_02
anSeeSAR  04022021533D 1   1.00000     0.00000     0
SeeSAR 9.2 andre
 37 37  0  0  0  0            999 V2000
    8.2579   -4.5312   23.4375 C   0  0  0  0  0  0  0  0  0  0  0  0
    8.2445   -3.1785   22.7228 C   0  0  1  0  0  0  0  0  0  0  0  0
    7.1318   -3.1168   21.8678 O   0  0  0  0  0  0  0  0  0  0  0  0
    8.2609   -1.9879   23.7136 C   0  0  0  0  0  0  0  0  0  0  0  0
    8.2485   -0.6698   23.0440 N   0  0  0  0  0  0  0  0  0  0  0  0
    6.9696    0.0177   22.7879 C   0  0  0  0  0  0  0  0  0  0  0  0
    6.6982    0.1752   21.3010 C   0  0  0  0  0  0  0  0  0  0  0  0
    7.5702   -0.3987   20.3821 C   0  0  0  0  0  0  0  0  0  0  0  0
    7.3163   -0.2504   19.0227 C   0  0  0  0  0  0  0  0  0  0  0  0
    6.2048    0.4624   18.5875 C   0  0  0  0  0  0  0  0  0  0  0  0
    5.3381    1.0334   19.5141 C   0  0  0  0  0  0  0  0  0  0  0  0
    5.5835    0.8906   20.8757 C   0  0  0  0  0  0  0  0  0  0  0  0
    9.4863   -0.0519   22.6151 C   0  0  0  0  0  0  0  0  0  0  0  0
   10.7305   -0.9843   22.0703 S   0  0  0  0  0  0  0  0  0  0  0  0
    9.6382    1.3792   22.6857 N   0  0  0  0  0  0  0  0  0  0  0  0
   10.8317    2.1054   22.2469 C   0  0  0  0  0  0  0  0  0  0  0  0
   11.7699    2.3738   23.4236 C   0  0  0  0  0  0  0  0  0  0  0  0
   11.6340    1.3642   24.3587 F   0  0  0  0  0  0  0  0  0  0  0  0
   11.4478    3.5815   24.0165 F   0  0  0  0  0  0  0  0  0  0  0  0
   13.0844    2.4137   22.9971 F   0  0  0  0  0  0  0  0  0  0  0  0
    9.0492   -4.5783   24.0472 H   0  0  0  0  0  0  0  0  0  0  0  0
    7.4189   -4.6343   23.9718 H   0  0  0  0  0  0  0  0  0  0  0  0
    8.3144   -5.2653   22.7608 H   0  0  0  0  0  0  0  0  0  0  0  0
    9.0686   -3.1206   22.1593 H   0  0  0  0  0  0  0  0  0  0  0  0
    6.3118   -2.9114   22.4021 H   0  0  0  0  0  0  0  0  0  0  0  0
    9.0872   -2.0520   24.2732 H   0  0  0  0  0  0  0  0  0  0  0  0
    7.4544   -2.0529   24.3013 H   0  0  0  0  0  0  0  0  0  0  0  0
    7.0000    0.9243   23.2087 H   0  0  0  0  0  0  0  0  0  0  0  0
    6.2287   -0.5150   23.1970 H   0  0  0  0  0  0  0  0  0  0  0  0
    8.3696   -0.9116   20.6948 H   0  0  0  0  0  0  0  0  0  0  0  0
    7.9374   -0.6591   18.3539 H   0  0  0  0  0  0  0  0  0  0  0  0
    6.0282    0.5647   17.6085 H   0  0  0  0  0  0  0  0  0  0  0  0
    4.5388    1.5465   19.2012 H   0  0  0  0  0  0  0  0  0  0  0  0
    4.9627    1.2995   21.5445 H   0  0  0  0  0  0  0  0  0  0  0  0
    8.8785    1.9116   23.0590 H   0  0  0  0  0  0  0  0  0  0  0  0
   10.5545    2.9774   21.8435 H   0  0  0  0  0  0  0  0  0  0  0  0
   11.3137    1.5594   21.5617 H   0  0  0  0  0  0  0  0  0  0  0  0
  1  2  1  0  0  0  0
  2  3  1  0  0  0  0
  2  4  1  0  0  0  0
  4  5  1  0  0  0  0
  5  6  1  0  0  0  0
  6  7  1  0  0  0  0
  7  8  2  0  0  0  0
  8  9  1  0  0  0  0
  9 10  2  0  0  0  0
 10 11  1  0  0  0  0
 11 12  2  0  0  0  0
  5 13  1  0  0  0  0
 13 14  2  0  0  0  0
 13 15  1  0  0  0  0
 15 16  1  0  0  0  0
 16 17  1  0  0  0  0
 17 18  1  0  0  0  0
 17 19  1  0  0  0  0
 17 20  1  0  0  0  0
 12  7  1  0  0  0  0
  1 21  1  0  0  0  0
  1 22  1  0  0  0  0
  1 23  1  0  0  0  0
  2 24  1  0  0  0  0
  3 25  1  0  0  0  0
  4 26  1  0  0  0  0
  4 27  1  0  0  0  0
  6 28  1  0  0  0  0
  6 29  1  0  0  0  0
  8 30  1  0  0  0  0
  9 31  1  0  0  0  0
 10 32  1  0  0  0  0
 11 33  1  0  0  0  0
 12 34  1  0  0  0  0
 15 35  1  0  0  0  0
 16 36  1  0  0  0  0
 16 37  1  0  0  0  0
M  END
> <BIOSOLVEIT.HYDE_ESTIMATED_AFFINITY_LOWER_BOUNDARY [nM]>
310258.891887

> <BIOSOLVEIT.HYDE_ESTIMATED_AFFINITY_UPPER_BOUNDARY [nM]>
30826055.304703

> <BIOSOLVEIT.HYDE_LIGAND_EFFICIENCY range: ++, +, 0, -, -->
--

> <BIOSOLVEIT.HYDE_LIGAND_LIPOPHILIC_EFFICIENCY range: ++, +, 0, -, -->
--

> <BIOSOLVEIT.INTER_CLASH range: red, yellow, green>
green

> <BIOSOLVEIT.INTRA_CLASH range: red, yellow, green>
yellow

> <BIOSOLVEIT.LOGP>
2.3062

> <BIOSOLVEIT.MOLECULAR WEIGHT>
306.349

> <BIOSOLVEIT.MOLECULE_CHECKSUM>
LTE0LjMyNTM7MC43MTYyNjQ=

> <BIOSOLVEIT.TORSION_QUALITY range: red, yellow, green, not rotatable>
yellow

> <BIOSOLVEIT.TPSA>
35.5

$$$$
mol_12_1_01
anSeeSAR  04022021533D 1   1.00000     0.00000     0
SeeSAR 9.2 andre
 50 50  0  0  0  0            999 V2000
    1.8782    5.3020   20.9931 C   0  0  0  0  0  0  0  0  0  0  0  0
    3.3211    5.1980   21.4872 C   0  0  0  0  0  0  0  0  0  0  0  0
    4.0031    3.8650   21.1120 C   0  0  1  0  0  0  0  0  0  0  0  0
    5.4149    3.9295   21.5020 N   0  0  0  0  0  0  0  0  0  0  0  0
    6.2765    2.7832   21.5367 C   0  0  0  0  0  0  0  0  0  0  0  0
    6.0825    1.8190   20.7474 O   0  0  0  0  0  0  0  0  0  0  0  0
    7.3532    2.7361   22.4874 N   0  0  0  0  0  0  0  0  0  0  0  0
    7.8785    1.4994   23.0875 C   0  0  1  0  0  0  0  0  0  0  0  0
    6.7720    0.4334   23.2517 C   0  0  0  0  0  0  0  0  0  0  0  0
    6.1052    0.5199   24.6031 C   0  0  0  0  0  0  0  0  0  0  0  0
    4.9752    1.3156   24.7586 C   0  0  0  0  0  0  0  0  0  0  0  0
    4.3659    1.3913   26.0066 C   0  0  0  0  0  0  0  0  0  0  0  0
    4.8796    0.6803   27.0854 C   0  0  0  0  0  0  0  0  0  0  0  0
    6.0107   -0.1129   26.9206 C   0  0  0  0  0  0  0  0  0  0  0  0
    6.6270   -0.1950   25.6764 C   0  0  0  0  0  0  0  0  0  0  0  0
    9.0535    0.9571   22.3078 C   0  0  0  0  0  0  0  0  0  0  0  0
    9.3530    1.4442   21.1828 O   0  0  0  0  0  0  0  0  0  0  0  0
    9.8508   -0.0985   22.8617 N   0  0  0  0  0  0  0  0  0  0  0  0
   10.9640   -0.6848   22.1156 C   0  0  0  0  0  0  0  0  0  0  0  0
   11.9347   -1.4013   23.0522 C   0  0  0  0  0  0  0  0  0  0  0  0
   12.4800   -0.4641   23.9561 O   0  0  0  0  0  0  0  0  0  0  0  0
   13.0963    0.5775   23.2331 C   0  0  0  0  0  0  0  0  0  0  0  0
    3.3581    2.6393   21.7826 C   0  0  0  0  0  0  0  0  0  0  0  0
    2.3587    2.1114   20.9857 F   0  0  0  0  0  0  0  0  0  0  0  0
    2.8363    2.9681   23.0218 F   0  0  0  0  0  0  0  0  0  0  0  0
    1.4949    6.1840   21.2670 H   0  0  0  0  0  0  0  0  0  0  0  0
    1.8610    5.2261   19.9961 H   0  0  0  0  0  0  0  0  0  0  0  0
    1.3350    4.5638   21.3930 H   0  0  0  0  0  0  0  0  0  0  0  0
    3.3221    5.2851   22.4834 H   0  0  0  0  0  0  0  0  0  0  0  0
    3.8481    5.9475   21.0866 H   0  0  0  0  0  0  0  0  0  0  0  0
    3.9517    3.7492   20.1201 H   0  0  0  0  0  0  0  0  0  0  0  0
    5.7967    4.8179   21.7569 H   0  0  0  0  0  0  0  0  0  0  0  0
    7.7736    3.6017   22.7593 H   0  0  0  0  0  0  0  0  0  0  0  0
    8.2089    1.7294   24.0029 H   0  0  0  0  0  0  0  0  0  0  0  0
    7.1793   -0.4741   23.1494 H   0  0  0  0  0  0  0  0  0  0  0  0
    6.0820    0.5711   22.5411 H   0  0  0  0  0  0  0  0  0  0  0  0
    4.6055    1.8269   23.9829 H   0  0  0  0  0  0  0  0  0  0  0  0
    3.5531    1.9608   26.1288 H   0  0  0  0  0  0  0  0  0  0  0  0
    4.4361    0.7391   27.9797 H   0  0  0  0  0  0  0  0  0  0  0  0
    6.3804   -0.6240   27.6965 H   0  0  0  0  0  0  0  0  0  0  0  0
    7.4401   -0.7642   25.5542 H   0  0  0  0  0  0  0  0  0  0  0  0
    9.6412   -0.4410   23.7775 H   0  0  0  0  0  0  0  0  0  0  0  0
   11.4524    0.0419   21.6324 H   0  0  0  0  0  0  0  0  0  0  0  0
   10.6037   -1.3417   21.4534 H   0  0  0  0  0  0  0  0  0  0  0  0
   12.6699   -1.8180   22.5177 H   0  0  0  0  0  0  0  0  0  0  0  0
   11.4475   -2.1119   23.5597 H   0  0  0  0  0  0  0  0  0  0  0  0
   13.4834    1.2428   23.8715 H   0  0  0  0  0  0  0  0  0  0  0  0
   13.8253    0.2006   22.6617 H   0  0  0  0  0  0  0  0  0  0  0  0
   12.4174    1.0279   22.6532 H   0  0  0  0  0  0  0  0  0  0  0  0
    4.0626    1.9412   21.9108 H   0  0  0  0  0  0  0  0  0  0  0  0
  1  2  1  0  0  0  0
  2  3  1  0  0  0  0
  3  4  1  0  0  0  0
  4  5  1  0  0  0  0
  5  6  2  0  0  0  0
  5  7  1  0  0  0  0
  7  8  1  0  0  0  0
  8  9  1  0  0  0  0
  9 10  1  0  0  0  0
 10 11  2  0  0  0  0
 11 12  1  0  0  0  0
 12 13  2  0  0  0  0
 13 14  1  0  0  0  0
 14 15  2  0  0  0  0
  8 16  1  0  0  0  0
 16 17  2  0  0  0  0
 16 18  1  0  0  0  0
 18 19  1  0  0  0  0
 19 20  1  0  0  0  0
 20 21  1  0  0  0  0
 21 22  1  0  0  0  0
  3 23  1  0  0  0  0
 23 24  1  0  0  0  0
 23 25  1  0  0  0  0
 15 10  1  0  0  0  0
  1 26  1  0  0  0  0
  1 27  1  0  0  0  0
  1 28  1  0  0  0  0
  2 29  1  0  0  0  0
  2 30  1  0  0  0  0
  3 31  1  0  0  0  0
  4 32  1  0  0  0  0
  7 33  1  0  0  0  0
  8 34  1  0  0  0  0
  9 35  1  0  0  0  0
  9 36  1  0  0  0  0
 11 37  1  0  0  0  0
 12 38  1  0  0  0  0
 13 39  1  0  0  0  0
 14 40  1  0  0  0  0
 15 41  1  0  0  0  0
 18 42  1  0  0  0  0
 19 43  1  0  0  0  0
 19 44  1  0  0  0  0
 20 45  1  0  0  0  0
 20 46  1  0  0  0  0
 22 47  1  0  0  0  0
 22 48  1  0  0  0  0
 22 49  1  0  0  0  0
 23 50  1  0  0  0  0
M  END
> <BIOSOLVEIT.HYDE_ESTIMATED_AFFINITY_LOWER_BOUNDARY [nM]>
313983.338689

> <BIOSOLVEIT.HYDE_ESTIMATED_AFFINITY_UPPER_BOUNDARY [nM]>
31196101.115210

> <BIOSOLVEIT.HYDE_LIGAND_EFFICIENCY range: ++, +, 0, -, -->
--

> <BIOSOLVEIT.HYDE_LIGAND_LIPOPHILIC_EFFICIENCY range: ++, +, 0, -, -->
--

> <BIOSOLVEIT.INTER_CLASH range: red, yellow, green>
green

> <BIOSOLVEIT.INTRA_CLASH range: red, yellow, green>
green

> <BIOSOLVEIT.LOGP>
1.7032

> <BIOSOLVEIT.MOLECULAR WEIGHT>
357.399

> <BIOSOLVEIT.MOLECULE_CHECKSUM>
LTE0LjI5NTc7MC41NzE4Mjg=

> <BIOSOLVEIT.TORSION_QUALITY range: red, yellow, green, not rotatable>
red

> <BIOSOLVEIT.TPSA>
79.46

$$$$
mol_9_1_01
anSeeSAR  04022021533D 1   1.00000     0.00000     0
SeeSAR 9.2 andre
 62 63  0  0  0  0            999 V2000
    7.7130   -3.3951   23.0418 C   0  0  0  0  0  0  0  0  0  0  0  0
    7.7597   -2.4783   21.8237 C   0  0  0  0  0  0  0  0  0  0  0  0
    7.0858   -1.2475   22.0874 O   0  0  0  0  0  0  0  0  0  0  0  0
    6.4320   -0.4915   21.1793 C   0  0  0  0  0  0  0  0  0  0  0  0
    5.9759    0.7754   21.5278 C   0  0  0  0  0  0  0  0  0  0  0  0
    6.2131    1.3092   22.9315 C   0  0  2  0  0  0  0  0  0  0  0  0
    7.5909    1.9672   23.1641 C   0  0  0  0  0  0  0  0  0  0  0  0
    8.5162    1.6892   22.0142 C   0  0  0  0  0  0  0  0  0  0  0  0
    8.4591    2.4149   20.9844 O   0  0  0  0  0  0  0  0  0  0  0  0
    9.4639    0.6141   22.0949 N   0  0  0  0  0  0  0  0  0  0  0  0
    9.5666   -0.2565   23.2731 C   0  0  1  0  0  0  0  0  0  0  0  0
   10.4256   -1.4876   23.0803 C   0  0  0  0  0  0  0  0  0  0  0  0
   11.6183   -0.6666   23.5213 C   0  0  1  0  0  0  0  0  0  0  0  0
   12.3025    0.0162   22.4778 O   0  0  0  0  0  0  0  0  0  0  0  0
   13.6940   -0.1613   22.6233 C   0  0  0  0  0  0  0  0  0  0  0  0
   10.6048    0.1415   24.3024 C   0  0  0  0  0  0  0  0  0  0  0  0
   10.9041    1.6323   24.3247 C   0  0  0  0  0  0  0  0  0  0  0  0
    9.8689    2.5461   24.9981 C   0  0  0  0  0  0  0  0  0  0  0  0
   10.3315   -0.3828   25.7060 C   0  0  0  0  0  0  0  0  0  0  0  0
    8.8519   -0.6555   25.9956 C   0  0  0  0  0  0  0  0  0  0  0  0
    5.9621    0.2588   23.9265 N   0  0  0  0  0  0  0  0  0  0  0  0
    5.3690    0.4922   25.2131 C   0  0  0  0  0  0  0  0  0  0  0  0
    4.9926    1.8805   25.6142 C   0  0  0  0  0  0  0  0  0  0  0  0
    5.1827   -0.4589   26.0191 O   0  0  0  0  0  0  0  0  0  0  0  0
    5.3019    1.5535   20.5929 C   0  0  0  0  0  0  0  0  0  0  0  0
    5.0843    1.0651   19.3089 C   0  0  0  0  0  0  0  0  0  0  0  0
    5.5400   -0.2017   18.9602 C   0  0  0  0  0  0  0  0  0  0  0  0
    6.2148   -0.9796   19.8948 C   0  0  0  0  0  0  0  0  0  0  0  0
    8.1900   -4.2492   22.8346 H   0  0  0  0  0  0  0  0  0  0  0  0
    8.1577   -2.9442   23.8156 H   0  0  0  0  0  0  0  0  0  0  0  0
    6.7606   -3.5930   23.2737 H   0  0  0  0  0  0  0  0  0  0  0  0
    7.3169   -2.9356   21.0524 H   0  0  0  0  0  0  0  0  0  0  0  0
    8.7140   -2.2867   21.5944 H   0  0  0  0  0  0  0  0  0  0  0  0
    5.5269    2.0199   23.0867 H   0  0  0  0  0  0  0  0  0  0  0  0
    7.9918    1.6004   24.0035 H   0  0  0  0  0  0  0  0  0  0  0  0
    7.4706    2.9557   23.2564 H   0  0  0  0  0  0  0  0  0  0  0  0
   10.0761    0.4522   21.3211 H   0  0  0  0  0  0  0  0  0  0  0  0
    8.6772   -0.4644   23.6802 H   0  0  0  0  0  0  0  0  0  0  0  0
   10.4741   -1.8156   22.1368 H   0  0  0  0  0  0  0  0  0  0  0  0
   10.1998   -2.2498   23.6870 H   0  0  0  0  0  0  0  0  0  0  0  0
   12.2386   -1.1798   24.1145 H   0  0  0  0  0  0  0  0  0  0  0  0
   14.1702    0.3204   21.8877 H   0  0  0  0  0  0  0  0  0  0  0  0
   13.9863    0.2060   23.5063 H   0  0  0  0  0  0  0  0  0  0  0  0
   13.9120   -1.1363   22.5792 H   0  0  0  0  0  0  0  0  0  0  0  0
   10.9999    1.9341   23.3761 H   0  0  0  0  0  0  0  0  0  0  0  0
   11.7728    1.7576   24.8037 H   0  0  0  0  0  0  0  0  0  0  0  0
   10.1792    3.4954   24.9474 H   0  0  0  0  0  0  0  0  0  0  0  0
    8.9903    2.4571   24.5288 H   0  0  0  0  0  0  0  0  0  0  0  0
    9.7633    2.2806   25.9564 H   0  0  0  0  0  0  0  0  0  0  0  0
   10.6605    0.2948   26.3637 H   0  0  0  0  0  0  0  0  0  0  0  0
   10.8375   -1.2369   25.8260 H   0  0  0  0  0  0  0  0  0  0  0  0
    8.7524   -0.9953   26.9308 H   0  0  0  0  0  0  0  0  0  0  0  0
    8.3303    0.1913   25.8914 H   0  0  0  0  0  0  0  0  0  0  0  0
    8.5073   -1.3404   25.3537 H   0  0  0  0  0  0  0  0  0  0  0  0
    6.2207   -0.6786   23.6932 H   0  0  0  0  0  0  0  0  0  0  0  0
    4.5958    1.8663   26.5320 H   0  0  0  0  0  0  0  0  0  0  0  0
    5.8072    2.4605   25.6122 H   0  0  0  0  0  0  0  0  0  0  0  0
    4.3227    2.2443   24.9671 H   0  0  0  0  0  0  0  0  0  0  0  0
    4.9737    2.4641   20.8438 H   0  0  0  0  0  0  0  0  0  0  0  0
    4.6002    1.6250   18.6364 H   0  0  0  0  0  0  0  0  0  0  0  0
    5.3825   -0.5532   18.0374 H   0  0  0  0  0  0  0  0  0  0  0  0
    6.5438   -1.8899   19.6435 H   0  0  0  0  0  0  0  0  0  0  0  0
  1  2  1  0  0  0  0
  2  3  1  0  0  0  0
  3  4  1  0  0  0  0
  4  5  2  0  0  0  0
  5  6  1  0  0  0  0
  6  7  1  0  0  0  0
  7  8  1  0  0  0  0
  8  9  2  0  0  0  0
  8 10  1  0  0  0  0
 10 11  1  0  0  0  0
 11 12  1  0  0  0  0
 12 13  1  0  0  0  0
 13 14  1  0  0  0  0
 14 15  1  0  0  0  0
 13 16  1  0  0  0  0
 16 17  1  0  0  0  0
 17 18  1  0  0  0  0
 16 19  1  0  0  0  0
 19 20  1  0  0  0  0
  6 21  1  0  0  0  0
 21 22  1  0  0  0  0
 22 23  1  0  0  0  0
 22 24  2  0  0  0  0
  5 25  1  0  0  0  0
 25 26  2  0  0  0  0
 26 27  1  0  0  0  0
 27 28  2  0  0  0  0
 28  4  1  0  0  0  0
 16 11  1  0  0  0  0
  1 29  1  0  0  0  0
  1 30  1  0  0  0  0
  1 31  1  0  0  0  0
  2 32  1  0  0  0  0
  2 33  1  0  0  0  0
  6 34  1  0  0  0  0
  7 35  1  0  0  0  0
  7 36  1  0  0  0  0
 10 37  1  0  0  0  0
 11 38  1  0  0  0  0
 12 39  1  0  0  0  0
 12 40  1  0  0  0  0
 13 41  1  0  0  0  0
 15 42  1  0  0  0  0
 15 43  1  0  0  0  0
 15 44  1  0  0  0  0
 17 45  1  0  0  0  0
 17 46  1  0  0  0  0
 18 47  1  0  0  0  0
 18 48  1  0  0  0  0
 18 49  1  0  0  0  0
 19 50  1  0  0  0  0
 19 51  1  0  0  0  0
 20 52  1  0  0  0  0
 20 53  1  0  0  0  0
 20 54  1  0  0  0  0
 21 55  1  0  0  0  0
 23 56  1  0  0  0  0
 23 57  1  0  0  0  0
 23 58  1  0  0  0  0
 25 59  1  0  0  0  0
 26 60  1  0  0  0  0
 27 61  1  0  0  0  0
 28 62  1  0  0  0  0
M  END
> <BIOSOLVEIT.HYDE_ESTIMATED_AFFINITY_LOWER_BOUNDARY [nM]>
328971.045414

> <BIOSOLVEIT.HYDE_ESTIMATED_AFFINITY_UPPER_BOUNDARY [nM]>
32685218.392663

> <BIOSOLVEIT.HYDE_LIGAND_EFFICIENCY range: ++, +, 0, -, -->
--

> <BIOSOLVEIT.HYDE_LIGAND_LIPOPHILIC_EFFICIENCY range: ++, +, 0, -, -->
--

> <BIOSOLVEIT.INTER_CLASH range: red, yellow, green>
green

> <BIOSOLVEIT.INTRA_CLASH range: red, yellow, green>
yellow

> <BIOSOLVEIT.LOGP>
3.3625

> <BIOSOLVEIT.MOLECULAR WEIGHT>
390.521

> <BIOSOLVEIT.MOLECULE_CHECKSUM>
LTE0LjE4MDE7MC41MDY0MzI=

> <BIOSOLVEIT.TORSION_QUALITY range: red, yellow, green, not rotatable>
red

> <BIOSOLVEIT.TPSA>
76.66

$$$$
mol_72_1_04
anSeeSAR  04022021533D 1   1.00000     0.00000     0
SeeSAR 9.2 andre
 34 34  0  0  0  0            999 V2000
    6.6955    0.5733   23.3886 C   0  0  0  0  0  0  0  0  0  0  0  0
    5.6124    1.3884   22.6512 C   0  0  1  0  0  0  0  0  0  0  0  0
    4.3501    1.0171   23.1620 O   0  0  0  0  0  0  0  0  0  0  0  0
    5.8337    2.9054   22.8972 C   0  0  0  0  0  0  0  0  0  0  0  0
    7.2197    3.3013   22.6365 N   0  0  0  0  0  0  0  0  0  0  0  0
    7.8008    4.4493   23.2663 C   0  0  0  0  0  0  0  0  0  0  0  0
    7.1166    5.1452   24.0659 O   0  0  0  0  0  0  0  0  0  0  0  0
    9.1646    4.7975   22.9913 N   0  0  0  0  0  0  0  0  0  0  0  0
   10.0253    5.4652   23.9670 C   0  0  0  0  0  0  0  0  0  0  0  0
   11.4806    5.0285   23.8006 C   0  0  0  0  0  0  0  0  0  0  0  0
   11.9146    5.3531   22.5284 F   0  0  0  0  0  0  0  0  0  0  0  0
   11.5992    3.6623   23.9780 F   0  0  0  0  0  0  0  0  0  0  0  0
   12.2769    5.6786   24.7263 F   0  0  0  0  0  0  0  0  0  0  0  0
    5.6801    1.0800   21.1648 C   0  0  0  0  0  0  0  0  0  0  0  0
    6.6047    0.1507   20.7004 C   0  0  0  0  0  0  0  0  0  0  0  0
    6.6618   -0.1266   19.3387 C   0  0  0  0  0  0  0  0  0  0  0  0
    5.8053    0.5168   18.4525 C   0  0  0  0  0  0  0  0  0  0  0  0
    4.8837    1.4454   18.9260 C   0  0  0  0  0  0  0  0  0  0  0  0
    4.8190    1.7294   20.2861 C   0  0  0  0  0  0  0  0  0  0  0  0
    7.5979    0.8244   23.0383 H   0  0  0  0  0  0  0  0  0  0  0  0
    6.6516    0.7701   24.3681 H   0  0  0  0  0  0  0  0  0  0  0  0
    6.5390   -0.4027   23.2374 H   0  0  0  0  0  0  0  0  0  0  0  0
    4.3879    0.9960   24.1611 H   0  0  0  0  0  0  0  0  0  0  0  0
    5.6107    3.1150   23.8493 H   0  0  0  0  0  0  0  0  0  0  0  0
    5.2296    3.4232   22.2916 H   0  0  0  0  0  0  0  0  0  0  0  0
    7.7727    2.7581   22.0047 H   0  0  0  0  0  0  0  0  0  0  0  0
    9.5435    4.5741   22.0933 H   0  0  0  0  0  0  0  0  0  0  0  0
    9.7170    5.2318   24.8892 H   0  0  0  0  0  0  0  0  0  0  0  0
    9.9633    6.4545   23.8353 H   0  0  0  0  0  0  0  0  0  0  0  0
    7.2208   -0.3124   21.3377 H   0  0  0  0  0  0  0  0  0  0  0  0
    7.3232   -0.7931   18.9948 H   0  0  0  0  0  0  0  0  0  0  0  0
    5.8516    0.3122   17.4747 H   0  0  0  0  0  0  0  0  0  0  0  0
    4.2679    1.9085   18.2886 H   0  0  0  0  0  0  0  0  0  0  0  0
    4.1578    2.3961   20.6300 H   0  0  0  0  0  0  0  0  0  0  0  0
  1  2  1  0  0  0  0
  2  3  1  0  0  0  0
  2  4  1  0  0  0  0
  4  5  1  0  0  0  0
  5  6  1  0  0  0  0
  6  7  2  0  0  0  0
  6  8  1  0  0  0  0
  8  9  1  0  0  0  0
  9 10  1  0  0  0  0
 10 11  1  0  0  0  0
 10 12  1  0  0  0  0
 10 13  1  0  0  0  0
  2 14  1  0  0  0  0
 14 15  2  0  0  0  0
 15 16  1  0  0  0  0
 16 17  2  0  0  0  0
 17 18  1  0  0  0  0
 18 19  2  0  0  0  0
 19 14  1  0  0  0  0
  1 20  1  0  0  0  0
  1 21  1  0  0  0  0
  1 22  1  0  0  0  0
  3 23  1  0  0  0  0
  4 24  1  0  0  0  0
  4 25  1  0  0  0  0
  5 26  1  0  0  0  0
  8 27  1  0  0  0  0
  9 28  1  0  0  0  0
  9 29  1  0  0  0  0
 15 30  1  0  0  0  0
 16 31  1  0  0  0  0
 17 32  1  0  0  0  0
 18 33  1  0  0  0  0
 19 34  1  0  0  0  0
M  END
> <BIOSOLVEIT.HYDE_ESTIMATED_AFFINITY_LOWER_BOUNDARY [nM]>
369836.835705

> <BIOSOLVEIT.HYDE_ESTIMATED_AFFINITY_UPPER_BOUNDARY [nM]>
36745476.275700

> <BIOSOLVEIT.HYDE_LIGAND_EFFICIENCY range: ++, +, 0, -, -->
--

> <BIOSOLVEIT.HYDE_LIGAND_LIPOPHILIC_EFFICIENCY range: ++, +, 0, -, -->
--

> <BIOSOLVEIT.INTER_CLASH range: red, yellow, green>
green

> <BIOSOLVEIT.INTRA_CLASH range: red, yellow, green>
green

> <BIOSOLVEIT.LOGP>
1.7556

> <BIOSOLVEIT.MOLECULAR WEIGHT>
276.257

> <BIOSOLVEIT.MOLECULE_CHECKSUM>
LTEzLjg4OTg7MC43MzEwNDQ=

> <BIOSOLVEIT.TORSION_QUALITY range: red, yellow, green, not rotatable>
yellow

> <BIOSOLVEIT.TPSA>
61.36

$$$$
mol_30_1_05
anSeeSAR  04022021533D 1   1.00000     0.00000     0
SeeSAR 9.2 andre
 35 35  0  0  0  0            999 V2000
    7.1071    5.8198   21.8389 C   0  0  0  0  0  0  0  0  0  0  0  0
    6.8921    4.4107   22.2858 C   0  0  0  0  0  0  0  0  0  0  0  0
    5.8218    4.1018   22.8765 O   0  0  0  0  0  0  0  0  0  0  0  0
    7.9052    3.4233   22.0429 N   0  0  0  0  0  0  0  0  0  0  0  0
    8.1289    2.2653   22.9201 C   0  0  1  0  0  0  0  0  0  0  0  0
    6.9822    1.2486   22.6691 C   0  0  0  0  0  0  0  0  0  0  0  0
    6.6363    1.0417   21.2155 C   0  0  0  0  0  0  0  0  0  0  0  0
    7.4691    0.2635   20.3918 C   0  0  0  0  0  0  0  0  0  0  0  0
    7.1549    0.0811   19.0417 C   0  0  0  0  0  0  0  0  0  0  0  0
    6.0170    0.6842   18.4991 C   0  0  0  0  0  0  0  0  0  0  0  0
    5.7145    0.5062   17.1896 F   0  0  0  0  0  0  0  0  0  0  0  0
    5.1954    1.4771   19.3048 C   0  0  0  0  0  0  0  0  0  0  0  0
    5.5057    1.6625   20.6554 C   0  0  0  0  0  0  0  0  0  0  0  0
    9.5944    1.7339   22.7259 C   0  0  0  0  0  0  0  0  0  0  0  0
   10.5549    2.3329   23.7786 C   0  0  0  0  0  0  0  0  0  0  0  0
    9.6607    0.1904   22.7881 C   0  0  0  0  0  0  0  0  0  0  0  0
   10.0262    2.1589   21.4511 O   0  0  0  0  0  0  0  0  0  0  0  0
    7.9982    5.8952   21.3914 H   0  0  0  0  0  0  0  0  0  0  0  0
    6.3875    6.0786   21.1946 H   0  0  0  0  0  0  0  0  0  0  0  0
    7.0796    6.4287   22.6317 H   0  0  0  0  0  0  0  0  0  0  0  0
    8.4877    3.5285   21.2369 H   0  0  0  0  0  0  0  0  0  0  0  0
    8.0472    2.5835   23.8646 H   0  0  0  0  0  0  0  0  0  0  0  0
    6.1642    1.5777   23.1410 H   0  0  0  0  0  0  0  0  0  0  0  0
    7.2567    0.3672   23.0534 H   0  0  0  0  0  0  0  0  0  0  0  0
    8.2899   -0.1614   20.7736 H   0  0  0  0  0  0  0  0  0  0  0  0
    7.7453   -0.4819   18.4634 H   0  0  0  0  0  0  0  0  0  0  0  0
    4.3842    1.9127   18.9147 H   0  0  0  0  0  0  0  0  0  0  0  0
    4.9209    2.2393   21.2257 H   0  0  0  0  0  0  0  0  0  0  0  0
   11.4773    1.9767   23.6292 H   0  0  0  0  0  0  0  0  0  0  0  0
   10.5644    3.3292   23.6925 H   0  0  0  0  0  0  0  0  0  0  0  0
   10.2444    2.0805   24.6950 H   0  0  0  0  0  0  0  0  0  0  0  0
   10.6066   -0.1080   22.6607 H   0  0  0  0  0  0  0  0  0  0  0  0
    9.3298   -0.1218   23.6786 H   0  0  0  0  0  0  0  0  0  0  0  0
    9.0886   -0.1972   22.0653 H   0  0  0  0  0  0  0  0  0  0  0  0
   11.0181    2.2856   21.4603 H   0  0  0  0  0  0  0  0  0  0  0  0
  1  2  1  0  0  0  0
  2  3  2  0  0  0  0
  2  4  1  0  0  0  0
  4  5  1  0  0  0  0
  5  6  1  0  0  0  0
  6  7  1  0  0  0  0
  7  8  2  0  0  0  0
  8  9  1  0  0  0  0
  9 10  2  0  0  0  0
 10 11  1  0  0  0  0
 10 12  1  0  0  0  0
 12 13  2  0  0  0  0
  5 14  1  0  0  0  0
 14 15  1  0  0  0  0
 14 16  1  0  0  0  0
 14 17  1  0  0  0  0
 13  7  1  0  0  0  0
  1 18  1  0  0  0  0
  1 19  1  0  0  0  0
  1 20  1  0  0  0  0
  4 21  1  0  0  0  0
  5 22  1  0  0  0  0
  6 23  1  0  0  0  0
  6 24  1  0  0  0  0
  8 25  1  0  0  0  0
  9 26  1  0  0  0  0
 12 27  1  0  0  0  0
 13 28  1  0  0  0  0
 15 29  1  0  0  0  0
 15 30  1  0  0  0  0
 15 31  1  0  0  0  0
 16 32  1  0  0  0  0
 16 33  1  0  0  0  0
 16 34  1  0  0  0  0
 17 35  1  0  0  0  0
M  END
> <BIOSOLVEIT.HYDE_ESTIMATED_AFFINITY_LOWER_BOUNDARY [nM]>
376947.280430

> <BIOSOLVEIT.HYDE_ESTIMATED_AFFINITY_UPPER_BOUNDARY [nM]>
37451940.999402

> <BIOSOLVEIT.HYDE_LIGAND_EFFICIENCY range: ++, +, 0, -, -->
--

> <BIOSOLVEIT.HYDE_LIGAND_LIPOPHILIC_EFFICIENCY range: ++, +, 0, -, -->
--

> <BIOSOLVEIT.INTER_CLASH range: red, yellow, green>
green

> <BIOSOLVEIT.INTRA_CLASH range: red, yellow, green>
green

> <BIOSOLVEIT.LOGP>
1.6438

> <BIOSOLVEIT.MOLECULAR WEIGHT>
239.288

> <BIOSOLVEIT.MOLECULE_CHECKSUM>
LTEzLjg0MjY7MC44MTQyNzI=

> <BIOSOLVEIT.TORSION_QUALITY range: red, yellow, green, not rotatable>
yellow

> <BIOSOLVEIT.TPSA>
49.33

$$$$
mol_53_1_05
anSeeSAR  04022021533D 1   1.00000     0.00000     0
SeeSAR 9.2 andre
 43 43  0  0  0  0            999 V2000
    4.7550    9.6471   20.0225 C   0  0  0  0  0  0  0  0  0  0  0  0
    4.6884    8.4792   21.0032 C   0  0  0  0  0  0  0  0  0  0  0  0
    6.0719    7.8333   21.1901 C   0  0  0  0  0  0  0  0  0  0  0  0
    6.1205    6.5509   22.0104 C   0  0  0  0  0  0  0  0  0  0  0  0
    4.8526    6.1952   22.7452 C   0  0  0  0  0  0  0  0  0  0  0  0
    7.2372    5.7888   22.1116 C   0  0  0  0  0  0  0  0  0  0  0  0
    7.3644    4.5314   22.8877 C   0  0  0  0  0  0  0  0  0  0  0  0
    6.7702    4.3855   23.9888 O   0  0  0  0  0  0  0  0  0  0  0  0
    8.1641    3.4615   22.3549 N   0  0  0  0  0  0  0  0  0  0  0  0
    8.3581    2.1584   23.0075 C   0  0  2  0  0  0  0  0  0  0  0  0
    9.6506    1.4909   22.5141 C   0  0  0  0  0  0  0  0  0  0  0  0
   10.1062    2.1317   21.3543 O   0  0  0  0  0  0  0  0  0  0  0  0
    7.1286    1.2411   22.8227 C   0  0  0  0  0  0  0  0  0  0  0  0
    6.8419    0.9769   21.3649 C   0  0  0  0  0  0  0  0  0  0  0  0
    5.7982    1.6552   20.7138 C   0  0  0  0  0  0  0  0  0  0  0  0
    5.5425    1.4224   19.3591 C   0  0  0  0  0  0  0  0  0  0  0  0
    6.3237    0.5107   18.6418 C   0  0  0  0  0  0  0  0  0  0  0  0
    6.0593    0.2910   17.2919 O   0  0  0  0  0  0  0  0  0  0  0  0
    7.3635   -0.1722   19.2868 C   0  0  0  0  0  0  0  0  0  0  0  0
    7.6199    0.0568   20.6418 C   0  0  0  0  0  0  0  0  0  0  0  0
    3.8447   10.0480   19.9194 H   0  0  0  0  0  0  0  0  0  0  0  0
    5.3867   10.3395   20.3712 H   0  0  0  0  0  0  0  0  0  0  0  0
    5.0772    9.3188   19.1346 H   0  0  0  0  0  0  0  0  0  0  0  0
    4.0524    7.7927   20.6507 H   0  0  0  0  0  0  0  0  0  0  0  0
    4.3619    8.8134   21.8873 H   0  0  0  0  0  0  0  0  0  0  0  0
    6.6615    8.5039   21.6402 H   0  0  0  0  0  0  0  0  0  0  0  0
    6.4353    7.6263   20.2818 H   0  0  0  0  0  0  0  0  0  0  0  0
    4.9878    5.3426   23.2499 H   0  0  0  0  0  0  0  0  0  0  0  0
    4.6213    6.9282   23.3849 H   0  0  0  0  0  0  0  0  0  0  0  0
    4.1079    6.0790   22.0880 H   0  0  0  0  0  0  0  0  0  0  0  0
    8.0484    6.1029   21.6183 H   0  0  0  0  0  0  0  0  0  0  0  0
    8.6205    3.6147   21.4784 H   0  0  0  0  0  0  0  0  0  0  0  0
    8.4625    2.3263   23.9877 H   0  0  0  0  0  0  0  0  0  0  0  0
    9.4702    0.5283   22.3118 H   0  0  0  0  0  0  0  0  0  0  0  0
   10.3501    1.5566   23.2257 H   0  0  0  0  0  0  0  0  0  0  0  0
   11.0677    2.3820   21.4675 H   0  0  0  0  0  0  0  0  0  0  0  0
    6.3311    1.6815   23.2350 H   0  0  0  0  0  0  0  0  0  0  0  0
    7.3027    0.3698   23.2816 H   0  0  0  0  0  0  0  0  0  0  0  0
    5.2355    2.3076   21.2215 H   0  0  0  0  0  0  0  0  0  0  0  0
    4.7986    1.9094   18.9015 H   0  0  0  0  0  0  0  0  0  0  0  0
    5.1156    0.1888   16.9774 H   0  0  0  0  0  0  0  0  0  0  0  0
    7.9234   -0.8250   18.7766 H   0  0  0  0  0  0  0  0  0  0  0  0
    8.3603   -0.4363   21.0986 H   0  0  0  0  0  0  0  0  0  0  0  0
  1  2  1  0  0  0  0
  2  3  1  0  0  0  0
  3  4  1  0  0  0  0
  4  5  1  0  0  0  0
  4  6  2  0  0  0  0
  6  7  1  0  0  0  0
  7  8  2  0  0  0  0
  7  9  1  0  0  0  0
  9 10  1  0  0  0  0
 10 11  1  0  0  0  0
 11 12  1  0  0  0  0
 10 13  1  0  0  0  0
 13 14  1  0  0  0  0
 14 15  2  0  0  0  0
 15 16  1  0  0  0  0
 16 17  2  0  0  0  0
 17 18  1  0  0  0  0
 17 19  1  0  0  0  0
 19 20  2  0  0  0  0
 20 14  1  0  0  0  0
  1 21  1  0  0  0  0
  1 22  1  0  0  0  0
  1 23  1  0  0  0  0
  2 24  1  0  0  0  0
  2 25  1  0  0  0  0
  3 26  1  0  0  0  0
  3 27  1  0  0  0  0
  5 28  1  0  0  0  0
  5 29  1  0  0  0  0
  5 30  1  0  0  0  0
  6 31  1  0  0  0  0
  9 32  1  0  0  0  0
 10 33  1  0  0  0  0
 11 34  1  0  0  0  0
 11 35  1  0  0  0  0
 12 36  1  0  0  0  0
 13 37  1  0  0  0  0
 13 38  1  0  0  0  0
 15 39  1  0  0  0  0
 16 40  1  0  0  0  0
 18 41  1  0  0  0  0
 19 42  1  0  0  0  0
 20 43  1  0  0  0  0
M  END
> <BIOSOLVEIT.HYDE_ESTIMATED_AFFINITY_LOWER_BOUNDARY [nM]>
387020.553583

> <BIOSOLVEIT.HYDE_ESTIMATED_AFFINITY_UPPER_BOUNDARY [nM]>
38452780.245064

> <BIOSOLVEIT.HYDE_LIGAND_EFFICIENCY range: ++, +, 0, -, -->
--

> <BIOSOLVEIT.HYDE_LIGAND_LIPOPHILIC_EFFICIENCY range: ++, +, 0, -, -->
--

> <BIOSOLVEIT.INTER_CLASH range: red, yellow, green>
green

> <BIOSOLVEIT.INTRA_CLASH range: red, yellow, green>
green

> <BIOSOLVEIT.LOGP>
2.1582

> <BIOSOLVEIT.MOLECULAR WEIGHT>
277.362

> <BIOSOLVEIT.MOLECULE_CHECKSUM>
LTEzLjc3NzI7MC42ODg4NjI=

> <BIOSOLVEIT.TORSION_QUALITY range: red, yellow, green, not rotatable>
red

> <BIOSOLVEIT.TPSA>
69.56

$$$$
mol_49_1_02
anSeeSAR  04022021533D 1   1.00000     0.00000     0
SeeSAR 9.2 andre
 37 37  0  0  0  0            999 V2000
    3.6528    1.8766   24.8787 C   0  0  0  0  0  0  0  0  0  0  0  0
    4.9755    1.1922   24.7642 C   0  0  0  0  0  0  0  0  0  0  0  0
    5.1478    0.0713   25.3155 O   0  0  0  0  0  0  0  0  0  0  0  0
    6.0399    1.8127   24.0298 N   0  0  0  0  0  0  0  0  0  0  0  0
    7.0682    1.0314   23.3334 C   0  0  2  0  0  0  0  0  0  0  0  0
    8.4449    1.7231   23.4665 C   0  0  0  0  0  0  0  0  0  0  0  0
    9.5013    1.1876   22.5339 C   0  0  0  0  0  0  0  0  0  0  0  0
    9.6460    1.6699   21.3772 O   0  0  0  0  0  0  0  0  0  0  0  0
   10.3363    0.1066   22.9719 N   0  0  0  0  0  0  0  0  0  0  0  0
   11.7070   -0.0850   22.4961 C   0  0  0  0  0  0  0  0  0  0  0  0
   12.7035    0.6913   23.3664 C   0  0  0  0  0  0  0  0  0  0  0  0
   13.9952    0.3464   23.0041 F   0  0  0  0  0  0  0  0  0  0  0  0
   12.5149    0.3412   24.6919 F   0  0  0  0  0  0  0  0  0  0  0  0
   12.5154    2.1740   23.2262 C   0  0  0  0  0  0  0  0  0  0  0  0
   11.6862    2.7791   23.9561 O   0  0  0  0  0  0  0  0  0  0  0  0
   13.2581    2.8906   22.2956 O   0  5  0  0  0  0  0  0  0  0  0  0
    6.6734    0.8531   21.8794 C   0  0  0  0  0  0  0  0  0  0  0  0
    7.0009   -0.3267   21.1859 C   0  0  0  0  0  0  0  0  0  0  0  0
    6.6421   -0.4810   19.8437 C   0  0  0  0  0  0  0  0  0  0  0  0
    5.9583    0.5409   19.1784 C   0  0  0  0  0  0  0  0  0  0  0  0
    5.5094    0.3453   17.4940 Cl  0  0  0  0  0  0  0  0  0  0  0  0
    5.6361    1.7204   19.8563 C   0  0  0  0  0  0  0  0  0  0  0  0
    5.9937    1.8786   21.1984 C   0  0  0  0  0  0  0  0  0  0  0  0
    3.6847    2.7478   24.3888 H   0  0  0  0  0  0  0  0  0  0  0  0
    2.9418    1.2965   24.4813 H   0  0  0  0  0  0  0  0  0  0  0  0
    3.4463    2.0437   25.8428 H   0  0  0  0  0  0  0  0  0  0  0  0
    6.0825    2.8111   23.9911 H   0  0  0  0  0  0  0  0  0  0  0  0
    7.1240    0.1287   23.7601 H   0  0  0  0  0  0  0  0  0  0  0  0
    8.7663    1.6028   24.4057 H   0  0  0  0  0  0  0  0  0  0  0  0
    8.3253    2.6977   23.2774 H   0  0  0  0  0  0  0  0  0  0  0  0
    9.9649   -0.5458   23.6326 H   0  0  0  0  0  0  0  0  0  0  0  0
   11.7742    0.2398   21.5527 H   0  0  0  0  0  0  0  0  0  0  0  0
   11.9321   -1.0587   22.5302 H   0  0  0  0  0  0  0  0  0  0  0  0
    7.4933   -1.0591   21.6561 H   0  0  0  0  0  0  0  0  0  0  0  0
    6.8751   -1.3238   19.3585 H   0  0  0  0  0  0  0  0  0  0  0  0
    5.1488    2.4525   19.3801 H   0  0  0  0  0  0  0  0  0  0  0  0
    5.7648    2.7262   21.6772 H   0  0  0  0  0  0  0  0  0  0  0  0
  1  2  1  0  0  0  0
  2  3  2  0  0  0  0
  2  4  1  0  0  0  0
  4  5  1  0  0  0  0
  5  6  1  0  0  0  0
  6  7  1  0  0  0  0
  7  8  2  0  0  0  0
  7  9  1  0  0  0  0
  9 10  1  0  0  0  0
 10 11  1  0  0  0  0
 11 12  1  0  0  0  0
 11 13  1  0  0  0  0
 11 14  1  0  0  0  0
 14 15  2  0  0  0  0
 14 16  1  0  0  0  0
  5 17  1  0  0  0  0
 17 18  2  0  0  0  0
 18 19  1  0  0  0  0
 19 20  2  0  0  0  0
 20 21  1  0  0  0  0
 20 22  1  0  0  0  0
 22 23  2  0  0  0  0
 23 17  1  0  0  0  0
  1 24  1  0  0  0  0
  1 25  1  0  0  0  0
  1 26  1  0  0  0  0
  4 27  1  0  0  0  0
  5 28  1  0  0  0  0
  6 29  1  0  0  0  0
  6 30  1  0  0  0  0
  9 31  1  0  0  0  0
 10 32  1  0  0  0  0
 10 33  1  0  0  0  0
 18 34  1  0  0  0  0
 19 35  1  0  0  0  0
 22 36  1  0  0  0  0
 23 37  1  0  0  0  0
M  CHG  1  16  -1
M  END
> <BIOSOLVEIT.HYDE_ESTIMATED_AFFINITY_LOWER_BOUNDARY [nM]>
419725.706261

> <BIOSOLVEIT.HYDE_ESTIMATED_AFFINITY_UPPER_BOUNDARY [nM]>
41702230.531807

> <BIOSOLVEIT.HYDE_LIGAND_EFFICIENCY range: ++, +, 0, -, -->
--

> <BIOSOLVEIT.HYDE_LIGAND_LIPOPHILIC_EFFICIENCY range: ++, +, 0, -, -->
--

> <BIOSOLVEIT.INTER_CLASH range: red, yellow, green>
green

> <BIOSOLVEIT.INTRA_CLASH range: red, yellow, green>
green

> <BIOSOLVEIT.LOGP>
0.4087

> <BIOSOLVEIT.MOLECULAR WEIGHT>
347.724

> <BIOSOLVEIT.MOLECULE_CHECKSUM>
LTEzLjU3NjE7MC41OTAyNjc=

> <BIOSOLVEIT.TORSION_QUALITY range: red, yellow, green, not rotatable>
yellow

> <BIOSOLVEIT.TPSA>
98.33

$$$$
mol_19_1_10
anSeeSAR  04022021533D 1   1.00000     0.00000     0
SeeSAR 9.2 andre
 38 38  0  0  0  0            999 V2000
    5.4292    0.4811   27.2652 C   0  0  0  0  0  0  0  0  0  0  0  0
    5.7856    0.0272   25.8875 C   0  0  0  0  0  0  0  0  0  0  0  0
    5.7374   -1.2001   25.6024 O   0  0  0  0  0  0  0  0  0  0  0  0
    6.1801    0.9880   24.8989 N   0  0  0  0  0  0  0  0  0  0  0  0
    7.1144    0.6561   23.8164 C   0  0  2  0  0  0  0  0  0  0  0  0
    8.4420    1.4233   23.9762 C   0  0  0  0  0  0  0  0  0  0  0  0
    9.2700    0.8580   25.0955 C   0  0  0  0  0  0  0  0  0  0  0  0
    8.8132    0.8749   26.2710 O   0  0  0  0  0  0  0  0  0  0  0  0
   10.5678    0.3055   24.8286 N   0  0  0  0  0  0  0  0  0  0  0  0
   11.1543    0.2558   23.4895 C   0  0  0  0  0  0  0  0  0  0  0  0
   11.9362   -1.0479   23.2770 C   0  0  0  0  0  0  0  0  0  0  0  0
   13.4345   -0.9113   23.5688 C   0  0  0  0  0  0  0  0  0  0  0  0
   13.6408   -0.5284   24.8804 F   0  0  0  0  0  0  0  0  0  0  0  0
   13.9730    0.0542   22.7382 F   0  0  0  0  0  0  0  0  0  0  0  0
   14.0833   -2.1108   23.3346 F   0  0  0  0  0  0  0  0  0  0  0  0
    6.4856    0.9631   22.4705 C   0  0  0  0  0  0  0  0  0  0  0  0
    6.0665    2.2688   22.1367 C   0  0  0  0  0  0  0  0  0  0  0  0
    6.2039    3.2909   23.0188 F   0  0  0  0  0  0  0  0  0  0  0  0
    5.4903    2.5256   20.8883 C   0  0  0  0  0  0  0  0  0  0  0  0
    5.3259    1.4920   19.9633 C   0  0  0  0  0  0  0  0  0  0  0  0
    4.7665    1.7463   18.7547 F   0  0  0  0  0  0  0  0  0  0  0  0
    5.7369    0.1966   20.2841 C   0  0  0  0  0  0  0  0  0  0  0  0
    6.3133   -0.0685   21.5294 C   0  0  0  0  0  0  0  0  0  0  0  0
    5.5193    1.4754   27.3223 H   0  0  0  0  0  0  0  0  0  0  0  0
    4.4856    0.2197   27.4687 H   0  0  0  0  0  0  0  0  0  0  0  0
    6.0440    0.0521   27.9270 H   0  0  0  0  0  0  0  0  0  0  0  0
    5.8066    1.9143   24.9484 H   0  0  0  0  0  0  0  0  0  0  0  0
    7.3094   -0.3239   23.8573 H   0  0  0  0  0  0  0  0  0  0  0  0
    8.2416    2.3832   24.1723 H   0  0  0  0  0  0  0  0  0  0  0  0
    8.9600    1.3584   23.1233 H   0  0  0  0  0  0  0  0  0  0  0  0
   11.0956   -0.0627   25.5941 H   0  0  0  0  0  0  0  0  0  0  0  0
   11.7753    1.0313   23.3759 H   0  0  0  0  0  0  0  0  0  0  0  0
   10.4227    0.3123   22.8101 H   0  0  0  0  0  0  0  0  0  0  0  0
   11.8230   -1.3343   22.3256 H   0  0  0  0  0  0  0  0  0  0  0  0
   11.5574   -1.7474   23.8830 H   0  0  0  0  0  0  0  0  0  0  0  0
    5.1950    3.4526   20.6572 H   0  0  0  0  0  0  0  0  0  0  0  0
    5.6185   -0.5430   19.6214 H   0  0  0  0  0  0  0  0  0  0  0  0
    6.6056   -0.9983   21.7532 H   0  0  0  0  0  0  0  0  0  0  0  0
  1  2  1  0  0  0  0
  2  3  2  0  0  0  0
  2  4  1  0  0  0  0
  4  5  1  0  0  0  0
  5  6  1  0  0  0  0
  6  7  1  0  0  0  0
  7  8  2  0  0  0  0
  7  9  1  0  0  0  0
  9 10  1  0  0  0  0
 10 11  1  0  0  0  0
 11 12  1  0  0  0  0
 12 13  1  0  0  0  0
 12 14  1  0  0  0  0
 12 15  1  0  0  0  0
  5 16  1  0  0  0  0
 16 17  2  0  0  0  0
 17 18  1  0  0  0  0
 17 19  1  0  0  0  0
 19 20  2  0  0  0  0
 20 21  1  0  0  0  0
 20 22  1  0  0  0  0
 22 23  2  0  0  0  0
 23 16  1  0  0  0  0
  1 24  1  0  0  0  0
  1 25  1  0  0  0  0
  1 26  1  0  0  0  0
  4 27  1  0  0  0  0
  5 28  1  0  0  0  0
  6 29  1  0  0  0  0
  6 30  1  0  0  0  0
  9 31  1  0  0  0  0
 10 32  1  0  0  0  0
 10 33  1  0  0  0  0
 11 34  1  0  0  0  0
 11 35  1  0  0  0  0
 19 36  1  0  0  0  0
 22 37  1  0  0  0  0
 23 38  1  0  0  0  0
M  END
> <BIOSOLVEIT.HYDE_ESTIMATED_AFFINITY_LOWER_BOUNDARY [nM]>
520508.438972

> <BIOSOLVEIT.HYDE_ESTIMATED_AFFINITY_UPPER_BOUNDARY [nM]>
51715590.901350

> <BIOSOLVEIT.HYDE_LIGAND_EFFICIENCY range: ++, +, 0, -, -->
--

> <BIOSOLVEIT.HYDE_LIGAND_LIPOPHILIC_EFFICIENCY range: ++, +, 0, -, -->
--

> <BIOSOLVEIT.INTER_CLASH range: red, yellow, green>
green

> <BIOSOLVEIT.INTRA_CLASH range: red, yellow, green>
green

> <BIOSOLVEIT.LOGP>
2.6007

> <BIOSOLVEIT.MOLECULAR WEIGHT>
338.275

> <BIOSOLVEIT.MOLECULE_CHECKSUM>
LTEzLjA0Mjc7MC41NjcwNzI=

> <BIOSOLVEIT.TORSION_QUALITY range: red, yellow, green, not rotatable>
yellow

> <BIOSOLVEIT.TPSA>
58.2

$$$$
LIG_A_1101_1_02
anSeeSAR  04022021533D 1   1.00000     0.00000     0
SeeSAR 9.2 andre
 35 35  0  0  0  0            999 V2000
    7.4944    5.7231   21.9620 C   0  0  0  0  0  0  0  0  0  0  0  0
    7.2353    0.3381   20.2966 C   0  0  0  0  0  0  0  0  0  0  0  0
    9.2139    1.3441   22.4191 C   0  0  0  0  0  0  0  0  0  0  0  0
   10.2861   -0.8108   22.2137 C   0  0  0  0  0  0  0  0  0  0  0  0
   11.5638   -0.7243   22.9223 C   0  0  0  0  0  0  0  0  0  0  0  0
   12.5824   -0.8155   23.5475 C   0  0  0  0  0  0  0  0  0  0  0  0
    7.1688    4.3773   22.5267 C   0  0  0  0  0  0  0  0  0  0  0  0
    7.9683    2.0936   22.8732 C   0  0  2  0  0  0  0  0  0  0  0  0
    6.6911    1.2971   22.5593 C   0  0  0  0  0  0  0  0  0  0  0  0
    6.4350    1.1551   21.0789 C   0  0  0  0  0  0  0  0  0  0  0  0
    5.4192    1.8628   20.4532 C   0  0  0  0  0  0  0  0  0  0  0  0
    5.2009    1.7566   19.0899 C   0  0  0  0  0  0  0  0  0  0  0  0
    6.0139    0.9318   18.3325 C   0  0  0  0  0  0  0  0  0  0  0  0
    7.0342    0.2254   18.9340 C   0  0  0  0  0  0  0  0  0  0  0  0
    7.9960    3.3870   22.2052 N   0  0  0  0  0  0  0  0  0  0  0  0
    9.3189    0.0811   22.8165 N   0  0  0  0  0  0  0  0  0  0  0  0
    6.1775    4.1769   23.2196 O   0  0  0  0  0  0  0  0  0  0  0  0
    5.8481    0.8219   16.9937 O   0  0  0  0  0  0  0  0  0  0  0  0
   10.0444    1.8899   21.6947 O   0  0  0  0  0  0  0  0  0  0  0  0
   14.1434   -1.1650   24.6292 Br  0  0  0  0  0  0  0  0  0  0  0  0
    6.8110    6.3866   22.2667 H   0  0  0  0  0  0  0  0  0  0  0  0
    8.3993    6.0074   22.2786 H   0  0  0  0  0  0  0  0  0  0  0  0
    7.4905    5.6754   20.9632 H   0  0  0  0  0  0  0  0  0  0  0  0
    7.9739   -0.1808   20.7269 H   0  0  0  0  0  0  0  0  0  0  0  0
    9.9446   -1.7495   22.2618 H   0  0  0  0  0  0  0  0  0  0  0  0
   10.4210   -0.5538   21.2568 H   0  0  0  0  0  0  0  0  0  0  0  0
    8.0224    2.2398   23.8610 H   0  0  0  0  0  0  0  0  0  0  0  0
    5.9120    1.7673   22.9739 H   0  0  0  0  0  0  0  0  0  0  0  0
    6.7791    0.3837   22.9567 H   0  0  0  0  0  0  0  0  0  0  0  0
    4.8325    2.4622   20.9978 H   0  0  0  0  0  0  0  0  0  0  0  0
    4.4616    2.2717   18.6563 H   0  0  0  0  0  0  0  0  0  0  0  0
    7.6261   -0.3660   18.3864 H   0  0  0  0  0  0  0  0  0  0  0  0
    8.6634    3.5366   21.4757 H   0  0  0  0  0  0  0  0  0  0  0  0
    8.7210   -0.2584   23.5426 H   0  0  0  0  0  0  0  0  0  0  0  0
    5.4336    1.5717   16.4780 H   0  0  0  0  0  0  0  0  0  0  0  0
  1  7  1  0  0  0  0
  2 10  2  0  0  0  0
  2 14  1  0  0  0  0
  3  8  1  0  0  0  0
  3 16  1  0  0  0  0
  3 19  2  0  0  0  0
  4  5  1  0  0  0  0
  4 16  1  0  0  0  0
  5  6  3  0  0  0  0
  6 20  1  0  0  0  0
  7 15  1  0  0  0  0
  7 17  2  0  0  0  0
  8  9  1  0  0  0  0
  8 15  1  0  0  0  0
  9 10  1  0  0  0  0
 10 11  1  0  0  0  0
 11 12  2  0  0  0  0
 12 13  1  0  0  0  0
 13 14  2  0  0  0  0
 13 18  1  0  0  0  0
  1 21  1  0  0  0  0
  1 22  1  0  0  0  0
  1 23  1  0  0  0  0
  2 24  1  0  0  0  0
  4 25  1  0  0  0  0
  4 26  1  0  0  0  0
  8 27  1  0  0  0  0
  9 28  1  0  0  0  0
  9 29  1  0  0  0  0
 11 30  1  0  0  0  0
 12 31  1  0  0  0  0
 14 32  1  0  0  0  0
 15 33  1  0  0  0  0
 16 34  1  0  0  0  0
 18 35  1  0  0  0  0
M  END
> <BIOSOLVEIT.HYDE_ESTIMATED_AFFINITY_LOWER_BOUNDARY [nM]>
528352.538330

> <BIOSOLVEIT.HYDE_ESTIMATED_AFFINITY_UPPER_BOUNDARY [nM]>
52494948.550538

> <BIOSOLVEIT.HYDE_LIGAND_EFFICIENCY range: ++, +, 0, -, -->
--

> <BIOSOLVEIT.HYDE_LIGAND_LIPOPHILIC_EFFICIENCY range: ++, +, 0, -, -->
--

> <BIOSOLVEIT.INTER_CLASH range: red, yellow, green>
yellow

> <BIOSOLVEIT.INTRA_CLASH range: red, yellow, green>
green

> <BIOSOLVEIT.LOGP>
0.9114

> <BIOSOLVEIT.MOLECULAR WEIGHT>
339.188

> <BIOSOLVEIT.MOLECULE_CHECKSUM>
LTEzLjAwNTY7MC42NTAyNzk=

> <BIOSOLVEIT.TORSION_QUALITY range: red, yellow, green, not rotatable>
green

> <BIOSOLVEIT.TPSA>
78.43

$$$$
mol_58_1_08
anSeeSAR  04022021533D 1   1.00000     0.00000     0
SeeSAR 9.2 andre
 52 52  0  0  0  0            999 V2000
    6.6025   -3.2036   31.5251 C   0  0  0  0  0  0  0  0  0  0  0  0
    6.0999   -3.5030   30.1129 C   0  0  0  0  0  0  0  0  0  0  0  0
    7.2307   -3.9472   29.1778 C   0  0  0  0  0  0  0  0  0  0  0  0
    6.7140   -4.2401   27.7943 C   0  0  0  0  0  0  0  0  0  0  0  0
    7.1645   -3.5791   26.7160 C   0  0  0  0  0  0  0  0  0  0  0  0
    6.6471   -3.8722   25.3297 C   0  0  1  0  0  0  0  0  0  0  0  0
    5.2897   -3.5223   25.2368 O   0  0  0  0  0  0  0  0  0  0  0  0
    7.4521   -3.1261   24.3008 C   0  0  0  0  0  0  0  0  0  0  0  0
    8.1059   -3.7612   23.4285 O   0  0  0  0  0  0  0  0  0  0  0  0
    7.4680   -1.6912   24.3118 N   0  0  0  0  0  0  0  0  0  0  0  0
    8.6120   -0.9089   23.8429 C   0  0  0  0  0  0  0  0  0  0  0  0
    8.3294   -0.2679   22.4688 C   0  0  1  0  0  0  0  0  0  0  0  0
    6.8535   -0.4615   22.0572 C   0  0  0  0  0  0  0  0  0  0  0  0
    6.5785    0.0373   20.6589 C   0  0  0  0  0  0  0  0  0  0  0  0
    7.4377   -0.3053   19.6007 C   0  0  0  0  0  0  0  0  0  0  0  0
    7.1858    0.1638   18.3079 C   0  0  0  0  0  0  0  0  0  0  0  0
    6.0740    0.9739   18.0603 C   0  0  0  0  0  0  0  0  0  0  0  0
    5.8322    1.4288   16.8062 F   0  0  0  0  0  0  0  0  0  0  0  0
    5.2103    1.3129   19.1056 C   0  0  0  0  0  0  0  0  0  0  0  0
    5.4576    0.8446   20.3995 C   0  0  0  0  0  0  0  0  0  0  0  0
    8.7672    1.1865   22.3851 C   0  0  0  0  0  0  0  0  0  0  0  0
    9.3542    1.5640   21.3340 O   0  0  0  0  0  0  0  0  0  0  0  0
    8.4648    2.1646   23.4031 N   0  0  0  0  0  0  0  0  0  0  0  0
    9.3564    3.3200   23.5406 C   0  0  0  0  0  0  0  0  0  0  0  0
    7.4073    1.9419   24.3930 C   0  0  0  0  0  0  0  0  0  0  0  0
    5.8346   -2.9186   32.0988 H   0  0  0  0  0  0  0  0  0  0  0  0
    7.0201   -4.0259   31.9116 H   0  0  0  0  0  0  0  0  0  0  0  0
    7.2815   -2.4704   31.4888 H   0  0  0  0  0  0  0  0  0  0  0  0
    5.6787   -2.6766   29.7390 H   0  0  0  0  0  0  0  0  0  0  0  0
    5.4172   -4.2321   30.1618 H   0  0  0  0  0  0  0  0  0  0  0  0
    7.6545   -4.7735   29.5489 H   0  0  0  0  0  0  0  0  0  0  0  0
    7.9133   -3.2184   29.1230 H   0  0  0  0  0  0  0  0  0  0  0  0
    6.0162   -4.9464   27.6752 H   0  0  0  0  0  0  0  0  0  0  0  0
    7.8624   -2.8729   26.8352 H   0  0  0  0  0  0  0  0  0  0  0  0
    6.7369   -4.8529   25.1560 H   0  0  0  0  0  0  0  0  0  0  0  0
    4.7495   -4.3364   25.0237 H   0  0  0  0  0  0  0  0  0  0  0  0
    6.6636   -1.2057   24.6542 H   0  0  0  0  0  0  0  0  0  0  0  0
    9.4071   -1.5103   23.7641 H   0  0  0  0  0  0  0  0  0  0  0  0
    8.8054   -0.1857   24.5058 H   0  0  0  0  0  0  0  0  0  0  0  0
    8.8796   -0.7700   21.8015 H   0  0  0  0  0  0  0  0  0  0  0  0
    6.2725    0.0406   22.6978 H   0  0  0  0  0  0  0  0  0  0  0  0
    6.6327   -1.4358   22.1003 H   0  0  0  0  0  0  0  0  0  0  0  0
    8.2326   -0.8870   19.7732 H   0  0  0  0  0  0  0  0  0  0  0  0
    7.8020   -0.0806   17.5592 H   0  0  0  0  0  0  0  0  0  0  0  0
    4.4142    1.8914   18.9277 H   0  0  0  0  0  0  0  0  0  0  0  0
    4.8343    1.0851   21.1436 H   0  0  0  0  0  0  0  0  0  0  0  0
    9.0275    3.9089   24.2788 H   0  0  0  0  0  0  0  0  0  0  0  0
   10.2811    3.0040   23.7532 H   0  0  0  0  0  0  0  0  0  0  0  0
    9.3690    3.8352   22.6836 H   0  0  0  0  0  0  0  0  0  0  0  0
    7.3539    2.7297   25.0067 H   0  0  0  0  0  0  0  0  0  0  0  0
    6.5316    1.8243   23.9246 H   0  0  0  0  0  0  0  0  0  0  0  0
    7.6147    1.1198   24.9232 H   0  0  0  0  0  0  0  0  0  0  0  0
  1  2  1  0  0  0  0
  2  3  1  0  0  0  0
  3  4  1  0  0  0  0
  4  5  2  0  0  0  0
  5  6  1  0  0  0  0
  6  7  1  0  0  0  0
  6  8  1  0  0  0  0
  8  9  2  0  0  0  0
  8 10  1  0  0  0  0
 10 11  1  0  0  0  0
 11 12  1  0  0  0  0
 12 13  1  0  0  0  0
 13 14  1  0  0  0  0
 14 15  2  0  0  0  0
 15 16  1  0  0  0  0
 16 17  2  0  0  0  0
 17 18  1  0  0  0  0
 17 19  1  0  0  0  0
 19 20  2  0  0  0  0
 12 21  1  0  0  0  0
 21 22  2  0  0  0  0
 21 23  1  0  0  0  0
 23 24  1  0  0  0  0
 23 25  1  0  0  0  0
 20 14  1  0  0  0  0
  1 26  1  0  0  0  0
  1 27  1  0  0  0  0
  1 28  1  0  0  0  0
  2 29  1  0  0  0  0
  2 30  1  0  0  0  0
  3 31  1  0  0  0  0
  3 32  1  0  0  0  0
  4 33  1  0  0  0  0
  5 34  1  0  0  0  0
  6 35  1  0  0  0  0
  7 36  1  0  0  0  0
 10 37  1  0  0  0  0
 11 38  1  0  0  0  0
 11 39  1  0  0  0  0
 12 40  1  0  0  0  0
 13 41  1  0  0  0  0
 13 42  1  0  0  0  0
 15 43  1  0  0  0  0
 16 44  1  0  0  0  0
 19 45  1  0  0  0  0
 20 46  1  0  0  0  0
 24 47  1  0  0  0  0
 24 48  1  0  0  0  0
 24 49  1  0  0  0  0
 25 50  1  0  0  0  0
 25 51  1  0  0  0  0
 25 52  1  0  0  0  0
M  END
> <BIOSOLVEIT.HYDE_ESTIMATED_AFFINITY_LOWER_BOUNDARY [nM]>
536672.092750

> <BIOSOLVEIT.HYDE_ESTIMATED_AFFINITY_UPPER_BOUNDARY [nM]>
53321545.471229

> <BIOSOLVEIT.HYDE_LIGAND_EFFICIENCY range: ++, +, 0, -, -->
--

> <BIOSOLVEIT.HYDE_LIGAND_LIPOPHILIC_EFFICIENCY range: ++, +, 0, -, -->
--

> <BIOSOLVEIT.INTER_CLASH range: red, yellow, green>
green

> <BIOSOLVEIT.INTRA_CLASH range: red, yellow, green>
green

> <BIOSOLVEIT.LOGP>
1.906

> <BIOSOLVEIT.MOLECULAR WEIGHT>
350.431

> <BIOSOLVEIT.MOLECULE_CHECKSUM>
LTEyLjk2Njk7MC41MTg2NzQ=

> <BIOSOLVEIT.TORSION_QUALITY range: red, yellow, green, not rotatable>
red

> <BIOSOLVEIT.TPSA>
69.64

$$$$
mol_69_1_02
anSeeSAR  04022021533D 1   1.00000     0.00000     0
SeeSAR 9.2 andre
 39 39  0  0  0  0            999 V2000
    3.4856   -5.3524   24.5371 C   0  0  0  0  0  0  0  0  0  0  0  0
    4.0998   -5.9604   23.2778 C   0  0  0  0  0  0  0  0  0  0  0  0
    5.6236   -5.7901   23.2257 C   0  0  0  0  0  0  0  0  0  0  0  0
    6.4216   -5.7321   24.8797 S   0  0  0  0  0  0  0  0  0  0  0  0
    7.6519   -4.4108   24.5665 C   0  0  0  0  0  0  0  0  0  0  0  0
    7.0004   -3.0871   24.3051 C   0  0  0  0  0  0  0  0  0  0  0  0
    5.9441   -2.7831   24.9232 O   0  0  0  0  0  0  0  0  0  0  0  0
    7.5752   -2.1727   23.3600 N   0  0  0  0  0  0  0  0  0  0  0  0
    7.4320   -0.7202   23.5002 C   0  0  1  0  0  0  0  0  0  0  0  0
    8.8059   -0.0483   23.6817 C   0  0  0  0  0  0  0  0  0  0  0  0
    9.4512   -0.5507   24.8382 O   0  0  0  0  0  0  0  0  0  0  0  0
   10.8003   -0.1397   24.8696 C   0  0  0  0  0  0  0  0  0  0  0  0
    6.7169   -0.1600   22.2889 C   0  0  0  0  0  0  0  0  0  0  0  0
    7.0348   -0.6144   20.9952 C   0  0  0  0  0  0  0  0  0  0  0  0
    6.3499   -0.1171   19.8834 C   0  0  0  0  0  0  0  0  0  0  0  0
    5.3447    0.8381   20.0494 C   0  0  0  0  0  0  0  0  0  0  0  0
    5.0213    1.2984   21.3293 C   0  0  0  0  0  0  0  0  0  0  0  0
    3.6427    2.6006   21.5547 Br  0  0  0  0  0  0  0  0  0  0  0  0
    5.7035    0.8016   22.4456 C   0  0  0  0  0  0  0  0  0  0  0  0
    2.4950   -5.4887   24.5241 H   0  0  0  0  0  0  0  0  0  0  0  0
    3.8726   -5.7971   25.3449 H   0  0  0  0  0  0  0  0  0  0  0  0
    3.6869   -4.3733   24.5670 H   0  0  0  0  0  0  0  0  0  0  0  0
    3.6997   -5.5131   22.4779 H   0  0  0  0  0  0  0  0  0  0  0  0
    3.8854   -6.9368   23.2558 H   0  0  0  0  0  0  0  0  0  0  0  0
    5.8291   -4.9367   22.7467 H   0  0  0  0  0  0  0  0  0  0  0  0
    6.0094   -6.5594   22.7165 H   0  0  0  0  0  0  0  0  0  0  0  0
    8.2010   -4.6632   23.7698 H   0  0  0  0  0  0  0  0  0  0  0  0
    8.2453   -4.3260   25.3670 H   0  0  0  0  0  0  0  0  0  0  0  0
    8.0885   -2.5369   22.5829 H   0  0  0  0  0  0  0  0  0  0  0  0
    6.8774   -0.5327   24.3110 H   0  0  0  0  0  0  0  0  0  0  0  0
    8.6800    0.9391   23.7771 H   0  0  0  0  0  0  0  0  0  0  0  0
    9.3731   -0.2361   22.8798 H   0  0  0  0  0  0  0  0  0  0  0  0
   11.2402   -0.5024   25.6912 H   0  0  0  0  0  0  0  0  0  0  0  0
   11.2728   -0.4845   24.0586 H   0  0  0  0  0  0  0  0  0  0  0  0
   10.8442    0.8593   24.8815 H   0  0  0  0  0  0  0  0  0  0  0  0
    7.7549   -1.2970   20.8710 H   0  0  0  0  0  0  0  0  0  0  0  0
    6.5799   -0.4458   18.9674 H   0  0  0  0  0  0  0  0  0  0  0  0
    4.8560    1.1930   19.2523 H   0  0  0  0  0  0  0  0  0  0  0  0
    5.4688    1.1324   23.3596 H   0  0  0  0  0  0  0  0  0  0  0  0
  1  2  1  0  0  0  0
  2  3  1  0  0  0  0
  3  4  1  0  0  0  0
  4  5  1  0  0  0  0
  5  6  1  0  0  0  0
  6  7  2  0  0  0  0
  6  8  1  0  0  0  0
  8  9  1  0  0  0  0
  9 10  1  0  0  0  0
 10 11  1  0  0  0  0
 11 12  1  0  0  0  0
  9 13  1  0  0  0  0
 13 14  2  0  0  0  0
 14 15  1  0  0  0  0
 15 16  2  0  0  0  0
 16 17  1  0  0  0  0
 17 18  1  0  0  0  0
 17 19  2  0  0  0  0
 19 13  1  0  0  0  0
  1 20  1  0  0  0  0
  1 21  1  0  0  0  0
  1 22  1  0  0  0  0
  2 23  1  0  0  0  0
  2 24  1  0  0  0  0
  3 25  1  0  0  0  0
  3 26  1  0  0  0  0
  5 27  1  0  0  0  0
  5 28  1  0  0  0  0
  8 29  1  0  0  0  0
  9 30  1  0  0  0  0
 10 31  1  0  0  0  0
 10 32  1  0  0  0  0
 12 33  1  0  0  0  0
 12 34  1  0  0  0  0
 12 35  1  0  0  0  0
 14 36  1  0  0  0  0
 15 37  1  0  0  0  0
 16 38  1  0  0  0  0
 19 39  1  0  0  0  0
M  END
> <BIOSOLVEIT.HYDE_ESTIMATED_AFFINITY_LOWER_BOUNDARY [nM]>
596088.341431

> <BIOSOLVEIT.HYDE_ESTIMATED_AFFINITY_UPPER_BOUNDARY [nM]>
59224901.074407

> <BIOSOLVEIT.HYDE_LIGAND_EFFICIENCY range: ++, +, 0, -, -->
--

> <BIOSOLVEIT.HYDE_LIGAND_LIPOPHILIC_EFFICIENCY range: ++, +, 0, -, -->
--

> <BIOSOLVEIT.INTER_CLASH range: red, yellow, green>
green

> <BIOSOLVEIT.INTRA_CLASH range: red, yellow, green>
green

> <BIOSOLVEIT.LOGP>
3.396

> <BIOSOLVEIT.MOLECULAR WEIGHT>
346.286

> <BIOSOLVEIT.MOLECULE_CHECKSUM>
LTEyLjcwNjY7MC42Njg3NjY=

> <BIOSOLVEIT.TORSION_QUALITY range: red, yellow, green, not rotatable>
yellow

> <BIOSOLVEIT.TPSA>
38.33

$$$$
mol_81_1_04
anSeeSAR  04022021533D 1   1.00000     0.00000     0
SeeSAR 9.2 andre
 33 33  0  0  0  0            999 V2000
    2.9209    2.7575   19.8965 C   0  0  0  0  0  0  0  0  0  0  0  0
    3.7360    1.9647   19.0395 O   0  0  0  0  0  0  0  0  0  0  0  0
    4.8880    1.3715   19.4178 C   0  0  0  0  0  0  0  0  0  0  0  0
    5.6152    0.6390   18.4855 C   0  0  0  0  0  0  0  0  0  0  0  0
    6.8016    0.0302   18.8819 C   0  0  0  0  0  0  0  0  0  0  0  0
    7.2630    0.1469   20.1892 C   0  0  0  0  0  0  0  0  0  0  0  0
    6.5208    0.8843   21.1052 C   0  0  0  0  0  0  0  0  0  0  0  0
    7.0063    1.0246   22.5381 C   0  0  0  0  0  0  0  0  0  0  0  0
    8.1283    2.0784   22.6478 C   0  0  2  0  0  0  0  0  0  0  0  0
    7.8761    3.1833   21.8133 O   0  0  0  0  0  0  0  0  0  0  0  0
    9.4789    1.4586   22.3645 C   0  0  0  0  0  0  0  0  0  0  0  0
   10.0511    1.7336   21.2743 O   0  0  0  0  0  0  0  0  0  0  0  0
   10.1106    0.5594   23.2934 N   0  0  0  0  0  0  0  0  0  0  0  0
   10.9973   -0.5217   22.8620 C   0  0  0  0  0  0  0  0  0  0  0  0
   12.4641   -0.0845   22.8972 C   0  0  0  0  0  0  0  0  0  0  0  0
   12.5394    1.2741   22.6508 F   0  0  0  0  0  0  0  0  0  0  0  0
   13.1918   -0.7519   21.9291 F   0  0  0  0  0  0  0  0  0  0  0  0
   13.2479   -0.4399   24.6365 Br  0  0  0  0  0  0  0  0  0  0  0  0
    5.3316    1.5005   20.7295 C   0  0  0  0  0  0  0  0  0  0  0  0
    2.1244    3.0860   19.3889 H   0  0  0  0  0  0  0  0  0  0  0  0
    2.6170    2.2048   20.6725 H   0  0  0  0  0  0  0  0  0  0  0  0
    3.4490    3.5385   20.2301 H   0  0  0  0  0  0  0  0  0  0  0  0
    5.2899    0.5513   17.5439 H   0  0  0  0  0  0  0  0  0  0  0  0
    7.3302   -0.4986   18.2178 H   0  0  0  0  0  0  0  0  0  0  0  0
    8.1168   -0.2937   20.4664 H   0  0  0  0  0  0  0  0  0  0  0  0
    7.3564    0.1419   22.8515 H   0  0  0  0  0  0  0  0  0  0  0  0
    6.2396    1.3034   23.1163 H   0  0  0  0  0  0  0  0  0  0  0  0
    8.1401    2.4094   23.5914 H   0  0  0  0  0  0  0  0  0  0  0  0
    8.7430    3.6047   21.5471 H   0  0  0  0  0  0  0  0  0  0  0  0
    9.9370    0.6778   24.2711 H   0  0  0  0  0  0  0  0  0  0  0  0
   10.7583   -0.7860   21.9276 H   0  0  0  0  0  0  0  0  0  0  0  0
   10.8761   -1.3053   23.4713 H   0  0  0  0  0  0  0  0  0  0  0  0
    4.8029    2.0291   21.3936 H   0  0  0  0  0  0  0  0  0  0  0  0
  1  2  1  0  0  0  0
  2  3  1  0  0  0  0
  3  4  2  0  0  0  0
  4  5  1  0  0  0  0
  5  6  2  0  0  0  0
  6  7  1  0  0  0  0
  7  8  1  0  0  0  0
  8  9  1  0  0  0  0
  9 10  1  0  0  0  0
  9 11  1  0  0  0  0
 11 12  2  0  0  0  0
 11 13  1  0  0  0  0
 13 14  1  0  0  0  0
 14 15  1  0  0  0  0
 15 16  1  0  0  0  0
 15 17  1  0  0  0  0
 15 18  1  0  0  0  0
  7 19  2  0  0  0  0
 19  3  1  0  0  0  0
  1 20  1  0  0  0  0
  1 21  1  0  0  0  0
  1 22  1  0  0  0  0
  4 23  1  0  0  0  0
  5 24  1  0  0  0  0
  6 25  1  0  0  0  0
  8 26  1  0  0  0  0
  8 27  1  0  0  0  0
  9 28  1  0  0  0  0
 10 29  1  0  0  0  0
 13 30  1  0  0  0  0
 14 31  1  0  0  0  0
 14 32  1  0  0  0  0
 19 33  1  0  0  0  0
M  END
> <BIOSOLVEIT.HYDE_ESTIMATED_AFFINITY_LOWER_BOUNDARY [nM]>
622822.596993

> <BIOSOLVEIT.HYDE_ESTIMATED_AFFINITY_UPPER_BOUNDARY [nM]>
61881107.429843

> <BIOSOLVEIT.HYDE_LIGAND_EFFICIENCY range: ++, +, 0, -, -->
--

> <BIOSOLVEIT.HYDE_LIGAND_LIPOPHILIC_EFFICIENCY range: ++, +, 0, -, -->
--

> <BIOSOLVEIT.INTER_CLASH range: red, yellow, green>
green

> <BIOSOLVEIT.INTRA_CLASH range: red, yellow, green>
green

> <BIOSOLVEIT.LOGP>
1.7025

> <BIOSOLVEIT.MOLECULAR WEIGHT>
338.147

> <BIOSOLVEIT.MOLECULE_CHECKSUM>
LTEyLjU5Nzg7MC42NjMwNDI=

> <BIOSOLVEIT.TORSION_QUALITY range: red, yellow, green, not rotatable>
green

> <BIOSOLVEIT.TPSA>
58.56

$$$$
mol_75_1_08
anSeeSAR  04022021533D 1   1.00000     0.00000     0
SeeSAR 9.2 andre
 36 37  0  0  0  0            999 V2000
    9.5300    3.0794   24.8597 O   0  0  0  0  0  0  0  0  0  0  0  0
    8.6780    2.1544   24.9699 C   0  0  0  0  0  0  0  0  0  0  0  0
    7.5055    2.3501   25.7716 N   0  0  0  0  0  0  0  0  0  0  0  0
    7.5209    3.2356   26.9374 C   0  0  0  0  0  0  0  0  0  0  0  0
    7.3124    4.6991   26.5402 C   0  0  0  0  0  0  0  0  0  0  0  0
    8.5349    5.3288   26.3876 F   0  0  0  0  0  0  0  0  0  0  0  0
    6.6002    5.3440   27.5348 F   0  0  0  0  0  0  0  0  0  0  0  0
    6.3110    4.8299   24.8828 Br  0  0  0  0  0  0  0  0  0  0  0  0
    8.9094    0.8254   24.2538 C   0  0  2  0  0  0  0  0  0  0  0  0
    9.5141    0.9735   22.8720 C   0  0  0  0  0  0  0  0  0  0  0  0
    8.3015    1.3128   22.0286 C   0  0  0  0  0  0  0  0  0  0  0  0
    8.3042    1.9392   20.9806 O   0  0  0  0  0  0  0  0  0  0  0  0
    7.1807    0.7822   22.6709 N   0  0  0  0  0  0  0  0  0  0  0  0
    5.8027    0.8820   22.1939 C   0  0  0  0  0  0  0  0  0  0  0  0
    5.7585    0.7121   20.6848 C   0  0  0  0  0  0  0  0  0  0  0  0
    6.2836   -0.4347   20.0989 C   0  0  0  0  0  0  0  0  0  0  0  0
    6.8221   -1.3800   20.8644 F   0  0  0  0  0  0  0  0  0  0  0  0
    6.2488   -0.5996   18.7181 C   0  0  0  0  0  0  0  0  0  0  0  0
    5.6831    0.3941   17.9263 C   0  0  0  0  0  0  0  0  0  0  0  0
    5.1570    1.5433   18.5078 C   0  0  0  0  0  0  0  0  0  0  0  0
    5.1942    1.7028   19.8886 C   0  0  0  0  0  0  0  0  0  0  0  0
    7.6132    0.1245   23.9040 C   0  0  0  0  0  0  0  0  0  0  0  0
    6.6608    1.8726   25.5297 H   0  0  0  0  0  0  0  0  0  0  0  0
    8.4035    3.1478   27.3992 H   0  0  0  0  0  0  0  0  0  0  0  0
    6.7893    2.9619   27.5618 H   0  0  0  0  0  0  0  0  0  0  0  0
    9.4812    0.2281   24.8161 H   0  0  0  0  0  0  0  0  0  0  0  0
    9.9398    0.1209   22.5689 H   0  0  0  0  0  0  0  0  0  0  0  0
   10.1900    1.7102   22.8487 H   0  0  0  0  0  0  0  0  0  0  0  0
    5.4329    1.7788   22.4366 H   0  0  0  0  0  0  0  0  0  0  0  0
    5.2515    0.1667   22.6235 H   0  0  0  0  0  0  0  0  0  0  0  0
    6.6270   -1.4249   18.2987 H   0  0  0  0  0  0  0  0  0  0  0  0
    5.6543    0.2819   16.9330 H   0  0  0  0  0  0  0  0  0  0  0  0
    4.7522    2.2544   17.9330 H   0  0  0  0  0  0  0  0  0  0  0  0
    4.8161    2.5280   20.3082 H   0  0  0  0  0  0  0  0  0  0  0  0
    7.7663   -0.8519   23.7518 H   0  0  0  0  0  0  0  0  0  0  0  0
    6.9355    0.2467   24.6291 H   0  0  0  0  0  0  0  0  0  0  0  0
  1  2  2  0  0  0  0
  2  3  1  0  0  0  0
  3  4  1  0  0  0  0
  4  5  1  0  0  0  0
  5  6  1  0  0  0  0
  5  7  1  0  0  0  0
  5  8  1  0  0  0  0
  2  9  1  0  0  0  0
  9 10  1  0  0  0  0
 10 11  1  0  0  0  0
 11 12  2  0  0  0  0
 11 13  1  0  0  0  0
 13 14  1  0  0  0  0
 14 15  1  0  0  0  0
 15 16  2  0  0  0  0
 16 17  1  0  0  0  0
 16 18  1  0  0  0  0
 18 19  2  0  0  0  0
 19 20  1  0  0  0  0
 20 21  2  0  0  0  0
 13 22  1  0  0  0  0
 22  9  1  0  0  0  0
 21 15  1  0  0  0  0
  3 23  1  0  0  0  0
  4 24  1  0  0  0  0
  4 25  1  0  0  0  0
  9 26  1  0  0  0  0
 10 27  1  0  0  0  0
 10 28  1  0  0  0  0
 14 29  1  0  0  0  0
 14 30  1  0  0  0  0
 18 31  1  0  0  0  0
 19 32  1  0  0  0  0
 20 33  1  0  0  0  0
 21 34  1  0  0  0  0
 22 35  1  0  0  0  0
 22 36  1  0  0  0  0
M  END
> <BIOSOLVEIT.HYDE_ESTIMATED_AFFINITY_LOWER_BOUNDARY [nM]>
625820.775328

> <BIOSOLVEIT.HYDE_ESTIMATED_AFFINITY_UPPER_BOUNDARY [nM]>
62178994.174123

> <BIOSOLVEIT.HYDE_LIGAND_EFFICIENCY range: ++, +, 0, -, -->
--

> <BIOSOLVEIT.HYDE_LIGAND_LIPOPHILIC_EFFICIENCY range: ++, +, 0, -, -->
--

> <BIOSOLVEIT.INTER_CLASH range: red, yellow, green>
green

> <BIOSOLVEIT.INTRA_CLASH range: red, yellow, green>
yellow

> <BIOSOLVEIT.LOGP>
2.2781

> <BIOSOLVEIT.MOLECULAR WEIGHT>
379.175

> <BIOSOLVEIT.MOLECULE_CHECKSUM>
LTEyLjU4NTk7MC41NzIwODY=

> <BIOSOLVEIT.TORSION_QUALITY range: red, yellow, green, not rotatable>
yellow

> <BIOSOLVEIT.TPSA>
49.41

$$$$
mol_85_1_08
anSeeSAR  04022021533D 1   1.00000     0.00000     0
SeeSAR 9.2 andre
 59 60  0  0  0  0            999 V2000
    9.1069   -0.5134   26.0907 C   0  0  0  0  0  0  0  0  0  0  0  0
    9.0906    0.9399   25.6182 C   0  0  0  0  0  0  0  0  0  0  0  0
   10.4123    1.3173   24.9402 C   0  0  0  0  0  0  0  0  0  0  0  0
   11.4627    0.2133   25.1297 C   0  0  0  0  0  0  0  0  0  0  0  0
   12.7198    0.4504   24.2749 C   0  0  0  0  0  0  0  0  0  0  0  0
   13.7217   -0.7123   24.3732 C   0  0  0  0  0  0  0  0  0  0  0  0
   13.6207   -1.6890   23.1861 C   0  0  0  0  0  0  0  0  0  0  0  0
   12.7463   -1.1857   22.0264 C   0  0  0  0  0  0  0  0  0  0  0  0
   11.2696   -1.3305   22.3292 C   0  0  0  0  0  0  0  0  0  0  0  0
   10.6278   -2.3746   22.8248 N   0  0  0  0  0  0  0  0  0  0  0  0
    9.3221   -2.2311   22.9898 N   0  0  0  0  0  0  0  0  0  0  0  0
    8.8395   -1.0636   22.6335 C   0  0  0  0  0  0  0  0  0  0  0  0
    7.4857   -0.6055   22.6911 N   0  0  0  0  0  0  0  0  0  0  0  0
    7.1393    0.7786   22.8244 C   0  0  0  0  0  0  0  0  0  0  0  0
    7.9048    1.6570   22.3477 O   0  0  0  0  0  0  0  0  0  0  0  0
    5.7892    1.1716   23.3807 C   0  0  1  0  0  0  0  0  0  0  0  0
    4.5964    1.0185   22.4029 C   0  0  0  0  0  0  0  0  0  0  0  0
    4.9605    0.9949   20.9271 C   0  0  0  0  0  0  0  0  0  0  0  0
    5.6390   -0.1012   20.4056 C   0  0  0  0  0  0  0  0  0  0  0  0
    5.9759   -0.1328   19.0562 C   0  0  0  0  0  0  0  0  0  0  0  0
    5.6260    0.9410   18.2443 C   0  0  0  0  0  0  0  0  0  0  0  0
    5.9477    0.9214   16.9335 O   0  0  0  0  0  0  0  0  0  0  0  0
    4.9481    2.0419   18.7577 C   0  0  0  0  0  0  0  0  0  0  0  0
    4.6150    2.0640   20.1079 C   0  0  0  0  0  0  0  0  0  0  0  0
    5.5021    0.5738   24.6987 N   0  0  0  0  0  0  0  0  0  0  0  0
    4.5173    0.9740   25.6768 C   0  0  0  0  0  0  0  0  0  0  0  0
    3.9645    2.3640   25.8020 C   0  0  0  0  0  0  0  0  0  0  0  0
    4.0256    0.0855   26.4245 O   0  0  0  0  0  0  0  0  0  0  0  0
   10.1238   -0.1066   22.0759 S   0  0  0  0  0  0  0  0  0  0  0  0
    8.2344   -0.7315   26.5281 H   0  0  0  0  0  0  0  0  0  0  0  0
    9.2466   -1.1174   25.3061 H   0  0  0  0  0  0  0  0  0  0  0  0
    9.8502   -0.6422   26.7471 H   0  0  0  0  0  0  0  0  0  0  0  0
    8.9463    1.5377   26.4068 H   0  0  0  0  0  0  0  0  0  0  0  0
    8.3427    1.0624   24.9658 H   0  0  0  0  0  0  0  0  0  0  0  0
   10.7547    2.1668   25.3413 H   0  0  0  0  0  0  0  0  0  0  0  0
   10.2516    1.4514   23.9623 H   0  0  0  0  0  0  0  0  0  0  0  0
   11.0580   -0.6635   24.8701 H   0  0  0  0  0  0  0  0  0  0  0  0
   11.7294    0.1852   26.0930 H   0  0  0  0  0  0  0  0  0  0  0  0
   13.1678    1.2880   24.5876 H   0  0  0  0  0  0  0  0  0  0  0  0
   12.4436    0.5568   23.3197 H   0  0  0  0  0  0  0  0  0  0  0  0
   13.5439   -1.2167   25.2181 H   0  0  0  0  0  0  0  0  0  0  0  0
   14.6475   -0.3350   24.3987 H   0  0  0  0  0  0  0  0  0  0  0  0
   13.2341   -2.5487   23.5198 H   0  0  0  0  0  0  0  0  0  0  0  0
   14.5429   -1.8521   22.8353 H   0  0  0  0  0  0  0  0  0  0  0  0
   12.9616   -1.7150   21.2057 H   0  0  0  0  0  0  0  0  0  0  0  0
   12.9498   -0.2203   21.8633 H   0  0  0  0  0  0  0  0  0  0  0  0
    6.7495   -1.2800   22.6361 H   0  0  0  0  0  0  0  0  0  0  0  0
    5.8573    2.1544   23.5525 H   0  0  0  0  0  0  0  0  0  0  0  0
    3.9731    1.7857   22.5545 H   0  0  0  0  0  0  0  0  0  0  0  0
    4.1287    0.1614   22.6189 H   0  0  0  0  0  0  0  0  0  0  0  0
    5.8847   -0.8666   21.0005 H   0  0  0  0  0  0  0  0  0  0  0  0
    6.4637   -0.9179   18.6746 H   0  0  0  0  0  0  0  0  0  0  0  0
    5.8418    1.7477   16.3803 H   0  0  0  0  0  0  0  0  0  0  0  0
    4.7033    2.8079   18.1634 H   0  0  0  0  0  0  0  0  0  0  0  0
    4.1269    2.8489   20.4896 H   0  0  0  0  0  0  0  0  0  0  0  0
    6.0648   -0.2142   24.9485 H   0  0  0  0  0  0  0  0  0  0  0  0
    3.3005    2.3927   26.5492 H   0  0  0  0  0  0  0  0  0  0  0  0
    4.7095    3.0030   25.9935 H   0  0  0  0  0  0  0  0  0  0  0  0
    3.5153    2.6224   24.9468 H   0  0  0  0  0  0  0  0  0  0  0  0
  1  2  1  0  0  0  0
  2  3  1  0  0  0  0
  3  4  1  0  0  0  0
  4  5  1  0  0  0  0
  5  6  1  0  0  0  0
  6  7  1  0  0  0  0
  7  8  1  0  0  0  0
  8  9  1  0  0  0  0
  9 10  2  0  0  0  0
 10 11  1  0  0  0  0
 11 12  2  0  0  0  0
 12 13  1  0  0  0  0
 13 14  1  0  0  0  0
 14 15  2  0  0  0  0
 14 16  1  0  0  0  0
 16 17  1  0  0  0  0
 17 18  1  0  0  0  0
 18 19  2  0  0  0  0
 19 20  1  0  0  0  0
 20 21  2  0  0  0  0
 21 22  1  0  0  0  0
 21 23  1  0  0  0  0
 23 24  2  0  0  0  0
 16 25  1  0  0  0  0
 25 26  1  0  0  0  0
 26 27  1  0  0  0  0
 26 28  2  0  0  0  0
 12 29  1  0  0  0  0
 29  9  1  0  0  0  0
 24 18  1  0  0  0  0
  1 30  1  0  0  0  0
  1 31  1  0  0  0  0
  1 32  1  0  0  0  0
  2 33  1  0  0  0  0
  2 34  1  0  0  0  0
  3 35  1  0  0  0  0
  3 36  1  0  0  0  0
  4 37  1  0  0  0  0
  4 38  1  0  0  0  0
  5 39  1  0  0  0  0
  5 40  1  0  0  0  0
  6 41  1  0  0  0  0
  6 42  1  0  0  0  0
  7 43  1  0  0  0  0
  7 44  1  0  0  0  0
  8 45  1  0  0  0  0
  8 46  1  0  0  0  0
 13 47  1  0  0  0  0
 16 48  1  0  0  0  0
 17 49  1  0  0  0  0
 17 50  1  0  0  0  0
 19 51  1  0  0  0  0
 20 52  1  0  0  0  0
 22 53  1  0  0  0  0
 23 54  1  0  0  0  0
 24 55  1  0  0  0  0
 25 56  1  0  0  0  0
 27 57  1  0  0  0  0
 27 58  1  0  0  0  0
 27 59  1  0  0  0  0
M  END
> <BIOSOLVEIT.HYDE_ESTIMATED_AFFINITY_LOWER_BOUNDARY [nM]>
698291.498789

> <BIOSOLVEIT.HYDE_ESTIMATED_AFFINITY_UPPER_BOUNDARY [nM]>
69379389.030813

> <BIOSOLVEIT.HYDE_LIGAND_EFFICIENCY range: ++, +, 0, -, -->
--

> <BIOSOLVEIT.HYDE_LIGAND_LIPOPHILIC_EFFICIENCY range: ++, +, 0, -, -->
--

> <BIOSOLVEIT.INTER_CLASH range: red, yellow, green>
green

> <BIOSOLVEIT.INTRA_CLASH range: red, yellow, green>
yellow

> <BIOSOLVEIT.LOGP>
3.8326

> <BIOSOLVEIT.MOLECULAR WEIGHT>
418.558

> <BIOSOLVEIT.MOLECULE_CHECKSUM>
LTEyLjMxNDM7MC40MjQ2Mw==

> <BIOSOLVEIT.TORSION_QUALITY range: red, yellow, green, not rotatable>
red

> <BIOSOLVEIT.TPSA>
104.21

$$$$
mol_68_1_10
anSeeSAR  04022021533D 1   1.00000     0.00000     0
SeeSAR 9.2 andre
 42 42  0  0  0  0            999 V2000
    6.9369    1.8858   21.8072 C   0  0  0  0  0  0  0  0  0  0  0  0
    7.8498    0.7394   21.5122 C   0  0  0  0  0  0  0  0  0  0  0  0
    8.7508    0.8809   20.6414 O   0  0  0  0  0  0  0  0  0  0  0  0
    7.6999   -0.5083   22.2055 N   0  0  0  0  0  0  0  0  0  0  0  0
    8.5635   -1.6586   21.9472 C   0  0  0  0  0  0  0  0  0  0  0  0
    9.7442   -1.6726   22.9213 C   0  0  0  0  0  0  0  0  0  0  0  0
    9.2666   -1.5464   24.3071 N   0  0  0  0  0  0  0  0  0  0  0  0
    9.9393   -0.5826   25.1935 C   0  0  0  0  0  0  0  0  0  0  0  0
   10.0623    0.7603   24.5308 C   0  0  0  0  0  0  0  0  0  0  0  0
    9.0940    1.6965   24.7294 C   0  0  0  0  0  0  0  0  0  0  0  0
    9.5908    3.0539   23.8285 S   0  0  0  0  0  0  0  0  0  0  0  0
   11.0375    2.4012   23.2020 C   0  0  0  0  0  0  0  0  0  0  0  0
   11.1397    1.1324   23.6887 C   0  0  0  0  0  0  0  0  0  0  0  0
    8.2001   -2.4120   24.7718 C   0  0  0  0  0  0  0  0  0  0  0  0
    8.0432   -3.5432   24.2344 O   0  0  0  0  0  0  0  0  0  0  0  0
    7.3041   -2.0517   25.9300 C   0  0  0  0  0  0  0  0  0  0  0  0
    6.5203   -0.4187   25.6675 S   0  0  0  0  0  0  0  0  0  0  0  0
    6.5165    0.1033   27.4249 C   0  0  0  0  0  0  0  0  0  0  0  0
    6.6486    1.6240   27.5128 C   0  0  0  0  0  0  0  0  0  0  0  0
    7.6713   -0.5797   28.1550 C   0  0  0  0  0  0  0  0  0  0  0  0
    6.2829    1.6176   22.5145 H   0  0  0  0  0  0  0  0  0  0  0  0
    7.4742    2.6656   22.1284 H   0  0  0  0  0  0  0  0  0  0  0  0
    6.4430    2.1410   20.9760 H   0  0  0  0  0  0  0  0  0  0  0  0
    6.9772   -0.5937   22.8914 H   0  0  0  0  0  0  0  0  0  0  0  0
    8.9102   -1.6060   21.0107 H   0  0  0  0  0  0  0  0  0  0  0  0
    8.0340   -2.4994   22.0599 H   0  0  0  0  0  0  0  0  0  0  0  0
   10.3535   -0.9079   22.7117 H   0  0  0  0  0  0  0  0  0  0  0  0
   10.2433   -2.5334   22.8218 H   0  0  0  0  0  0  0  0  0  0  0  0
   10.8530   -0.9236   25.4145 H   0  0  0  0  0  0  0  0  0  0  0  0
    9.4074   -0.4851   26.0347 H   0  0  0  0  0  0  0  0  0  0  0  0
    8.2676    1.6064   25.2853 H   0  0  0  0  0  0  0  0  0  0  0  0
   11.6853    2.8610   22.5947 H   0  0  0  0  0  0  0  0  0  0  0  0
   11.9021    0.5224   23.4724 H   0  0  0  0  0  0  0  0  0  0  0  0
    7.8487   -2.0224   26.7682 H   0  0  0  0  0  0  0  0  0  0  0  0
    6.5906   -2.7465   26.0202 H   0  0  0  0  0  0  0  0  0  0  0  0
    5.6533   -0.1747   27.8465 H   0  0  0  0  0  0  0  0  0  0  0  0
    6.6460    1.9039   28.4729 H   0  0  0  0  0  0  0  0  0  0  0  0
    7.5061    1.9094   27.0847 H   0  0  0  0  0  0  0  0  0  0  0  0
    5.8801    2.0534   27.0384 H   0  0  0  0  0  0  0  0  0  0  0  0
    7.6726   -0.2975   29.1144 H   0  0  0  0  0  0  0  0  0  0  0  0
    7.5603   -1.5720   28.0997 H   0  0  0  0  0  0  0  0  0  0  0  0
    8.5370   -0.3169   27.7290 H   0  0  0  0  0  0  0  0  0  0  0  0
  1  2  1  0  0  0  0
  2  3  2  0  0  0  0
  2  4  1  0  0  0  0
  4  5  1  0  0  0  0
  5  6  1  0  0  0  0
  6  7  1  0  0  0  0
  7  8  1  0  0  0  0
  8  9  1  0  0  0  0
  9 10  2  0  0  0  0
 10 11  1  0  0  0  0
 11 12  1  0  0  0  0
 12 13  2  0  0  0  0
  7 14  1  0  0  0  0
 14 15  2  0  0  0  0
 14 16  1  0  0  0  0
 16 17  1  0  0  0  0
 17 18  1  0  0  0  0
 18 19  1  0  0  0  0
 18 20  1  0  0  0  0
 13  9  1  0  0  0  0
  1 21  1  0  0  0  0
  1 22  1  0  0  0  0
  1 23  1  0  0  0  0
  4 24  1  0  0  0  0
  5 25  1  0  0  0  0
  5 26  1  0  0  0  0
  6 27  1  0  0  0  0
  6 28  1  0  0  0  0
  8 29  1  0  0  0  0
  8 30  1  0  0  0  0
 10 31  1  0  0  0  0
 12 32  1  0  0  0  0
 13 33  1  0  0  0  0
 16 34  1  0  0  0  0
 16 35  1  0  0  0  0
 18 36  1  0  0  0  0
 19 37  1  0  0  0  0
 19 38  1  0  0  0  0
 19 39  1  0  0  0  0
 20 40  1  0  0  0  0
 20 41  1  0  0  0  0
 20 42  1  0  0  0  0
M  END
> <BIOSOLVEIT.HYDE_ESTIMATED_AFFINITY_LOWER_BOUNDARY [nM]>
724058.572199

> <BIOSOLVEIT.HYDE_ESTIMATED_AFFINITY_UPPER_BOUNDARY [nM]>
71939500.121048

> <BIOSOLVEIT.HYDE_LIGAND_EFFICIENCY range: ++, +, 0, -, -->
--

> <BIOSOLVEIT.HYDE_LIGAND_LIPOPHILIC_EFFICIENCY range: ++, +, 0, -, -->
--

> <BIOSOLVEIT.INTER_CLASH range: red, yellow, green>
green

> <BIOSOLVEIT.INTRA_CLASH range: red, yellow, green>
green

> <BIOSOLVEIT.LOGP>
2.3544

> <BIOSOLVEIT.MOLECULAR WEIGHT>
314.47

> <BIOSOLVEIT.MOLECULE_CHECKSUM>
LTEyLjIyNDQ7MC42MTEyMjI=

> <BIOSOLVEIT.TORSION_QUALITY range: red, yellow, green, not rotatable>
yellow

> <BIOSOLVEIT.TPSA>
49.41

$$$$
mol_26_1_07
anSeeSAR  04022021533D 1   1.00000     0.00000     0
SeeSAR 9.2 andre
 53 54  0  0  0  0            999 V2000
   10.2171    0.4066   23.1792 C   0  0  0  0  0  0  0  0  0  0  0  0
    9.3944    1.3827   22.3904 C   0  0  0  0  0  0  0  0  0  0  0  0
    9.6276    1.5242   21.1949 O   0  0  0  0  0  0  0  0  0  0  0  0
    8.3523    2.2396   23.0844 C   0  0  2  0  0  0  0  0  0  0  0  0
    6.9749    1.5446   23.2037 C   0  0  0  0  0  0  0  0  0  0  0  0
    6.3694    1.2244   21.8537 C   0  0  0  0  0  0  0  0  0  0  0  0
    6.6546    0.0063   21.2097 C   0  0  0  0  0  0  0  0  0  0  0  0
    6.1368   -0.2627   19.9403 C   0  0  0  0  0  0  0  0  0  0  0  0
    5.3113    0.6718   19.3132 C   0  0  0  0  0  0  0  0  0  0  0  0
    4.9838    1.8675   19.9647 C   0  0  0  0  0  0  0  0  0  0  0  0
    5.5061    2.1425   21.2311 C   0  0  0  0  0  0  0  0  0  0  0  0
    8.2077    3.4916   22.3356 N   0  0  0  0  0  0  0  0  0  0  0  0
    7.4212    4.5902   22.8223 C   0  0  0  0  0  0  0  0  0  0  0  0
    6.8210    4.5049   23.9312 O   0  0  0  0  0  0  0  0  0  0  0  0
    7.2835    5.8436   22.0023 C   0  0  0  0  0  0  0  0  0  0  0  0
    6.4390    6.8532   22.6789 N   0  3  1  0  0  0  0  0  0  0  0  0
    7.2292    7.5772   23.6861 C   0  0  0  0  0  0  0  0  0  0  0  0
    6.3722    8.5902   24.4295 C   0  0  0  0  0  0  0  0  0  0  0  0
    5.7582    9.5633   23.4347 C   0  0  0  0  0  0  0  0  0  0  0  0
    4.9429    8.7925   22.4085 C   0  0  1  0  0  0  0  0  0  0  0  0
    4.3273    9.7560   21.4065 C   0  0  1  0  0  0  0  0  0  0  0  0
    2.7997    9.8095   21.5108 C   0  0  0  0  0  0  0  0  0  0  0  0
    4.8433   11.0550   21.5762 O   0  0  0  0  0  0  0  0  0  0  0  0
    5.8321    7.7766   21.7083 C   0  0  0  0  0  0  0  0  0  0  0  0
    9.9097    0.4041   24.1308 H   0  0  0  0  0  0  0  0  0  0  0  0
   10.1101   -0.5091   22.7919 H   0  0  0  0  0  0  0  0  0  0  0  0
   11.1798    0.6744   23.1407 H   0  0  0  0  0  0  0  0  0  0  0  0
    8.6799    2.4555   24.0042 H   0  0  0  0  0  0  0  0  0  0  0  0
    6.3521    2.1499   23.6994 H   0  0  0  0  0  0  0  0  0  0  0  0
    7.0886    0.6926   23.7146 H   0  0  0  0  0  0  0  0  0  0  0  0
    7.2322   -0.6719   21.6640 H   0  0  0  0  0  0  0  0  0  0  0  0
    6.3574   -1.1235   19.4816 H   0  0  0  0  0  0  0  0  0  0  0  0
    4.9533    0.4873   18.3979 H   0  0  0  0  0  0  0  0  0  0  0  0
    4.3747    2.5258   19.5225 H   0  0  0  0  0  0  0  0  0  0  0  0
    5.2652    2.9947   21.6957 H   0  0  0  0  0  0  0  0  0  0  0  0
    8.6729    3.5839   21.4552 H   0  0  0  0  0  0  0  0  0  0  0  0
    6.8681    5.6110   21.1229 H   0  0  0  0  0  0  0  0  0  0  0  0
    8.1923    6.2317   21.8494 H   0  0  0  0  0  0  0  0  0  0  0  0
    5.7007    6.3724   23.1520 H   0  0  0  0  0  0  0  0  0  0  0  0
    7.9795    8.0561   23.2302 H   0  0  0  0  0  0  0  0  0  0  0  0
    7.6023    6.9211   24.3420 H   0  0  0  0  0  0  0  0  0  0  0  0
    6.9405    9.0935   25.0805 H   0  0  0  0  0  0  0  0  0  0  0  0
    5.6441    8.1132   24.9218 H   0  0  0  0  0  0  0  0  0  0  0  0
    6.4856   10.0690   22.9707 H   0  0  0  0  0  0  0  0  0  0  0  0
    5.1634   10.2046   23.9194 H   0  0  0  0  0  0  0  0  0  0  0  0
    4.2080    8.3059   22.8808 H   0  0  0  0  0  0  0  0  0  0  0  0
    4.5660    9.4437   20.4870 H   0  0  0  0  0  0  0  0  0  0  0  0
    2.4418   10.4539   20.8350 H   0  0  0  0  0  0  0  0  0  0  0  0
    2.4217    8.9002   21.3372 H   0  0  0  0  0  0  0  0  0  0  0  0
    2.5385   10.1095   22.4283 H   0  0  0  0  0  0  0  0  0  0  0  0
    4.4940   11.6496   20.8519 H   0  0  0  0  0  0  0  0  0  0  0  0
    6.5576    8.2595   21.2179 H   0  0  0  0  0  0  0  0  0  0  0  0
    5.2817    7.2529   21.0581 H   0  0  0  0  0  0  0  0  0  0  0  0
  1  2  1  0  0  0  0
  2  3  2  0  0  0  0
  2  4  1  0  0  0  0
  4  5  1  0  0  0  0
  5  6  1  0  0  0  0
  6  7  2  0  0  0  0
  7  8  1  0  0  0  0
  8  9  2  0  0  0  0
  9 10  1  0  0  0  0
 10 11  2  0  0  0  0
  4 12  1  0  0  0  0
 12 13  1  0  0  0  0
 13 14  2  0  0  0  0
 13 15  1  0  0  0  0
 15 16  1  0  0  0  0
 16 17  1  0  0  0  0
 17 18  1  0  0  0  0
 18 19  1  0  0  0  0
 19 20  1  0  0  0  0
 20 21  1  0  0  0  0
 21 22  1  0  0  0  0
 21 23  1  0  0  0  0
 20 24  1  0  0  0  0
 11  6  1  0  0  0  0
 24 16  1  0  0  0  0
  1 25  1  0  0  0  0
  1 26  1  0  0  0  0
  1 27  1  0  0  0  0
  4 28  1  0  0  0  0
  5 29  1  0  0  0  0
  5 30  1  0  0  0  0
  7 31  1  0  0  0  0
  8 32  1  0  0  0  0
  9 33  1  0  0  0  0
 10 34  1  0  0  0  0
 11 35  1  0  0  0  0
 12 36  1  0  0  0  0
 15 37  1  0  0  0  0
 15 38  1  0  0  0  0
 16 39  1  0  0  0  0
 17 40  1  0  0  0  0
 17 41  1  0  0  0  0
 18 42  1  0  0  0  0
 18 43  1  0  0  0  0
 19 44  1  0  0  0  0
 19 45  1  0  0  0  0
 20 46  1  0  0  0  0
 21 47  1  0  0  0  0
 22 48  1  0  0  0  0
 22 49  1  0  0  0  0
 22 50  1  0  0  0  0
 23 51  1  0  0  0  0
 24 52  1  0  0  0  0
 24 53  1  0  0  0  0
M  CHG  1  16   1
M  END
> <BIOSOLVEIT.HYDE_ESTIMATED_AFFINITY_LOWER_BOUNDARY [nM]>
759345.731804

> <BIOSOLVEIT.HYDE_ESTIMATED_AFFINITY_UPPER_BOUNDARY [nM]>
75445488.061972

> <BIOSOLVEIT.HYDE_LIGAND_EFFICIENCY range: ++, +, 0, -, -->
--

> <BIOSOLVEIT.HYDE_LIGAND_LIPOPHILIC_EFFICIENCY range: ++, +, 0, -, -->
-

> <BIOSOLVEIT.INTER_CLASH range: red, yellow, green>
green

> <BIOSOLVEIT.INTRA_CLASH range: red, yellow, green>
green

> <BIOSOLVEIT.LOGP>
-0.0214

> <BIOSOLVEIT.MOLECULAR WEIGHT>
333.449

> <BIOSOLVEIT.MOLECULE_CHECKSUM>
LTEyLjEwNjU7MC41MDQ0Mzc=

> <BIOSOLVEIT.TORSION_QUALITY range: red, yellow, green, not rotatable>
yellow

> <BIOSOLVEIT.TPSA>
70.84

$$$$
mol_99_1_02
anSeeSAR  04022021533D 1   1.00000     0.00000     0
SeeSAR 9.2 andre
 38 38  0  0  0  0            999 V2000
   12.1624    5.9422   24.5902 C   0  0  0  0  0  0  0  0  0  0  0  0
   10.9831    5.2591   23.8993 C   0  0  0  0  0  0  0  0  0  0  0  0
    9.7027    5.3204   24.7400 C   0  0  0  0  0  0  0  0  0  0  0  0
    8.6304    6.7203   24.2408 S   0  0  0  0  0  0  0  0  0  0  0  0
    8.1504    6.0476   22.6049 C   0  0  0  0  0  0  0  0  0  0  0  0
    7.4116    4.7430   22.7073 C   0  0  0  0  0  0  0  0  0  0  0  0
    6.2438    4.7005   23.1835 O   0  0  0  0  0  0  0  0  0  0  0  0
    8.0478    3.5396   22.2612 N   0  0  0  0  0  0  0  0  0  0  0  0
    7.7433    2.2438   22.8732 C   0  0  0  0  0  0  0  0  0  0  0  0
    6.3077    1.7650   22.5609 C   0  0  2  0  0  0  0  0  0  0  0  0
    5.8707    0.7419   23.5239 N   0  3  0  0  0  0  0  0  0  0  0  0
    6.1734    1.3246   21.1061 C   0  0  0  0  0  0  0  0  0  0  0  0
    5.0852    1.8045   20.3527 C   0  0  0  0  0  0  0  0  0  0  0  0
    4.9270    1.4369   19.0135 C   0  0  0  0  0  0  0  0  0  0  0  0
    5.8525    0.5861   18.4068 C   0  0  0  0  0  0  0  0  0  0  0  0
    5.6981    0.2314   17.1073 F   0  0  0  0  0  0  0  0  0  0  0  0
    6.9382    0.1017   19.1391 C   0  0  0  0  0  0  0  0  0  0  0  0
    7.1017    0.4656   20.4794 C   0  0  0  0  0  0  0  0  0  0  0  0
   12.9728    5.8780   24.0077 H   0  0  0  0  0  0  0  0  0  0  0  0
   11.9428    6.9045   24.7508 H   0  0  0  0  0  0  0  0  0  0  0  0
   12.3436    5.4913   25.4642 H   0  0  0  0  0  0  0  0  0  0  0  0
   11.2164    4.3002   23.7377 H   0  0  0  0  0  0  0  0  0  0  0  0
   10.8157    5.7134   23.0244 H   0  0  0  0  0  0  0  0  0  0  0  0
    9.9517    5.4300   25.7023 H   0  0  0  0  0  0  0  0  0  0  0  0
    9.1963    4.4662   24.6219 H   0  0  0  0  0  0  0  0  0  0  0  0
    8.9783    5.9045   22.0626 H   0  0  0  0  0  0  0  0  0  0  0  0
    7.5620    6.7131   22.1456 H   0  0  0  0  0  0  0  0  0  0  0  0
    8.7137    3.5849   21.5165 H   0  0  0  0  0  0  0  0  0  0  0  0
    7.8456    2.3254   23.8646 H   0  0  0  0  0  0  0  0  0  0  0  0
    8.3904    1.5651   22.5261 H   0  0  0  0  0  0  0  0  0  0  0  0
    5.7055    2.5541   22.6822 H   0  0  0  0  0  0  0  0  0  0  0  0
    6.1869   -0.1573   23.2214 H   0  0  0  0  0  0  0  0  0  0  0  0
    6.2559    0.9453   24.4240 H   0  0  0  0  0  0  0  0  0  0  0  0
    4.8723    0.7424   23.5807 H   0  0  0  0  0  0  0  0  0  0  0  0
    4.4183    2.4149   20.7802 H   0  0  0  0  0  0  0  0  0  0  0  0
    4.1495    1.7840   18.4891 H   0  0  0  0  0  0  0  0  0  0  0  0
    7.6011   -0.5074   18.7037 H   0  0  0  0  0  0  0  0  0  0  0  0
    7.8818    0.1148   20.9975 H   0  0  0  0  0  0  0  0  0  0  0  0
  1  2  1  0  0  0  0
  2  3  1  0  0  0  0
  3  4  1  0  0  0  0
  4  5  1  0  0  0  0
  5  6  1  0  0  0  0
  6  7  2  0  0  0  0
  6  8  1  0  0  0  0
  8  9  1  0  0  0  0
  9 10  1  0  0  0  0
 10 11  1  0  0  0  0
 10 12  1  0  0  0  0
 12 13  2  0  0  0  0
 13 14  1  0  0  0  0
 14 15  2  0  0  0  0
 15 16  1  0  0  0  0
 15 17  1  0  0  0  0
 17 18  2  0  0  0  0
 18 12  1  0  0  0  0
  1 19  1  0  0  0  0
  1 20  1  0  0  0  0
  1 21  1  0  0  0  0
  2 22  1  0  0  0  0
  2 23  1  0  0  0  0
  3 24  1  0  0  0  0
  3 25  1  0  0  0  0
  5 26  1  0  0  0  0
  5 27  1  0  0  0  0
  8 28  1  0  0  0  0
  9 29  1  0  0  0  0
  9 30  1  0  0  0  0
 10 31  1  0  0  0  0
 11 32  1  0  0  0  0
 11 33  1  0  0  0  0
 11 34  1  0  0  0  0
 13 35  1  0  0  0  0
 14 36  1  0  0  0  0
 17 37  1  0  0  0  0
 18 38  1  0  0  0  0
M  CHG  1  11   1
M  END
> <BIOSOLVEIT.HYDE_ESTIMATED_AFFINITY_LOWER_BOUNDARY [nM]>
1000076.354768

> <BIOSOLVEIT.HYDE_ESTIMATED_AFFINITY_UPPER_BOUNDARY [nM]>
99363498.765580

> <BIOSOLVEIT.HYDE_LIGAND_EFFICIENCY range: ++, +, 0, -, -->
--

> <BIOSOLVEIT.HYDE_LIGAND_LIPOPHILIC_EFFICIENCY range: ++, +, 0, -, -->
--

> <BIOSOLVEIT.INTER_CLASH range: red, yellow, green>
green

> <BIOSOLVEIT.INTRA_CLASH range: red, yellow, green>
green

> <BIOSOLVEIT.LOGP>
1.3681

> <BIOSOLVEIT.MOLECULAR WEIGHT>
271.377

> <BIOSOLVEIT.MOLECULE_CHECKSUM>
LTExLjQyMzg7MC42MzQ2NTg=

> <BIOSOLVEIT.TORSION_QUALITY range: red, yellow, green, not rotatable>
yellow

> <BIOSOLVEIT.TPSA>
56.74

$$$$
mol_78_1_01
anSeeSAR  04022021533D 1   1.00000     0.00000     0
SeeSAR 9.2 andre
 38 38  0  0  0  0            999 V2000
    6.4726   -0.1043   26.1288 C   0  0  0  0  0  0  0  0  0  0  0  0
    7.8442    0.1238   26.5722 N   0  0  0  0  0  0  0  0  0  0  0  0
    8.9792    0.0383   25.6951 C   0  0  0  0  0  0  0  0  0  0  0  0
   10.1412    0.2465   26.1388 O   0  0  0  0  0  0  0  0  0  0  0  0
    8.8030   -0.3093   24.2346 C   0  0  2  0  0  0  0  0  0  0  0  0
    9.7881   -1.4262   23.8339 C   0  0  0  0  0  0  0  0  0  0  0  0
   11.1796   -1.0054   24.0079 N   0  0  0  0  0  0  0  0  0  0  0  0
   12.1763   -1.2944   23.0201 C   0  0  0  0  0  0  0  0  0  0  0  0
   13.6016   -1.4741   23.4300 C   0  0  0  0  0  0  0  0  0  0  0  0
   11.8601   -1.3859   21.8028 O   0  0  0  0  0  0  0  0  0  0  0  0
    8.9746    0.9423   23.3430 C   0  0  0  0  0  0  0  0  0  0  0  0
    8.1980    0.8255   22.0540 C   0  0  0  0  0  0  0  0  0  0  0  0
    7.1504    1.7154   21.7709 C   0  0  0  0  0  0  0  0  0  0  0  0
    6.4277    1.6001   20.5802 C   0  0  0  0  0  0  0  0  0  0  0  0
    6.7303    0.5833   19.6581 C   0  0  0  0  0  0  0  0  0  0  0  0
    5.9828    0.4896   18.3518 C   0  0  0  0  0  0  0  0  0  0  0  0
    4.6786    0.9277   18.5025 F   0  0  0  0  0  0  0  0  0  0  0  0
    6.6160    1.2762   17.4079 F   0  0  0  0  0  0  0  0  0  0  0  0
    5.9496   -0.8185   17.9003 F   0  0  0  0  0  0  0  0  0  0  0  0
    7.8005   -0.2864   19.9298 C   0  0  0  0  0  0  0  0  0  0  0  0
    8.5223   -0.1713   21.1211 C   0  0  0  0  0  0  0  0  0  0  0  0
    5.8492    0.0071   26.9027 H   0  0  0  0  0  0  0  0  0  0  0  0
    6.2389    0.5558   25.4149 H   0  0  0  0  0  0  0  0  0  0  0  0
    6.3898   -1.0320   25.7649 H   0  0  0  0  0  0  0  0  0  0  0  0
    8.0018    0.3507   27.5333 H   0  0  0  0  0  0  0  0  0  0  0  0
    7.8734   -0.6553   24.1079 H   0  0  0  0  0  0  0  0  0  0  0  0
    9.6381   -1.6622   22.8738 H   0  0  0  0  0  0  0  0  0  0  0  0
    9.6180   -2.2292   24.4051 H   0  0  0  0  0  0  0  0  0  0  0  0
   11.4400   -0.5057   24.8340 H   0  0  0  0  0  0  0  0  0  0  0  0
   14.1587   -1.6683   22.6225 H   0  0  0  0  0  0  0  0  0  0  0  0
   13.9304   -0.6377   23.8685 H   0  0  0  0  0  0  0  0  0  0  0  0
   13.6699   -2.2367   24.0732 H   0  0  0  0  0  0  0  0  0  0  0  0
    9.9445    1.0550   23.1271 H   0  0  0  0  0  0  0  0  0  0  0  0
    8.6494    1.7438   23.8449 H   0  0  0  0  0  0  0  0  0  0  0  0
    6.9198    2.4361   22.4248 H   0  0  0  0  0  0  0  0  0  0  0  0
    5.6900    2.2457   20.3828 H   0  0  0  0  0  0  0  0  0  0  0  0
    8.0471   -0.9926   19.2661 H   0  0  0  0  0  0  0  0  0  0  0  0
    9.2743   -0.8029   21.3097 H   0  0  0  0  0  0  0  0  0  0  0  0
  1  2  1  0  0  0  0
  2  3  1  0  0  0  0
  3  4  2  0  0  0  0
  3  5  1  0  0  0  0
  5  6  1  0  0  0  0
  6  7  1  0  0  0  0
  7  8  1  0  0  0  0
  8  9  1  0  0  0  0
  8 10  2  0  0  0  0
  5 11  1  0  0  0  0
 11 12  1  0  0  0  0
 12 13  2  0  0  0  0
 13 14  1  0  0  0  0
 14 15  2  0  0  0  0
 15 16  1  0  0  0  0
 16 17  1  0  0  0  0
 16 18  1  0  0  0  0
 16 19  1  0  0  0  0
 15 20  1  0  0  0  0
 20 21  2  0  0  0  0
 21 12  1  0  0  0  0
  1 22  1  0  0  0  0
  1 23  1  0  0  0  0
  1 24  1  0  0  0  0
  2 25  1  0  0  0  0
  5 26  1  0  0  0  0
  6 27  1  0  0  0  0
  6 28  1  0  0  0  0
  7 29  1  0  0  0  0
  9 30  1  0  0  0  0
  9 31  1  0  0  0  0
  9 32  1  0  0  0  0
 11 33  1  0  0  0  0
 11 34  1  0  0  0  0
 13 35  1  0  0  0  0
 14 36  1  0  0  0  0
 20 37  1  0  0  0  0
 21 38  1  0  0  0  0
M  END
> <BIOSOLVEIT.HYDE_ESTIMATED_AFFINITY_LOWER_BOUNDARY [nM]>
1188668.668580

> <BIOSOLVEIT.HYDE_ESTIMATED_AFFINITY_UPPER_BOUNDARY [nM]>
118101260.188780

> <BIOSOLVEIT.HYDE_LIGAND_EFFICIENCY range: ++, +, 0, -, -->
--

> <BIOSOLVEIT.HYDE_LIGAND_LIPOPHILIC_EFFICIENCY range: ++, +, 0, -, -->
--

> <BIOSOLVEIT.INTER_CLASH range: red, yellow, green>
green

> <BIOSOLVEIT.INTRA_CLASH range: red, yellow, green>
green

> <BIOSOLVEIT.LOGP>
1.7462

> <BIOSOLVEIT.MOLECULAR WEIGHT>
302.294

> <BIOSOLVEIT.MOLECULE_CHECKSUM>
LTEwLjk5NTY7MC41MjM1OTk=

> <BIOSOLVEIT.TORSION_QUALITY range: red, yellow, green, not rotatable>
green

> <BIOSOLVEIT.TPSA>
58.2

$$$$
mol_56_1_03
anSeeSAR  04022021533D 1   1.00000     0.00000     0
SeeSAR 9.2 andre
 37 37  0  0  0  0            999 V2000
    9.3267   -1.2725   20.9595 N   0  0  0  0  0  0  0  0  0  0  0  0
    8.6684   -0.1114   21.4705 C   0  0  0  0  0  0  0  0  0  0  0  0
    8.9125    1.0132   20.9572 O   0  0  0  0  0  0  0  0  0  0  0  0
    7.6979   -0.2078   22.6243 C   0  0  1  0  0  0  0  0  0  0  0  0
    8.2485    0.5512   23.8494 C   0  0  0  0  0  0  0  0  0  0  0  0
    8.6661    1.9100   23.4979 N   0  0  0  0  0  0  0  0  0  0  0  0
   10.0169    2.3489   23.6862 C   0  0  0  0  0  0  0  0  0  0  0  0
   10.7163    1.8597   24.6153 O   0  0  0  0  0  0  0  0  0  0  0  0
   10.5723    3.3386   22.8092 N   0  0  0  0  0  0  0  0  0  0  0  0
   11.6093    4.2798   23.2303 C   0  0  0  0  0  0  0  0  0  0  0  0
   12.9425    3.9625   22.5536 C   0  0  0  0  0  0  0  0  0  0  0  0
   12.8186    4.0430   21.1787 F   0  0  0  0  0  0  0  0  0  0  0  0
   13.3554    2.6882   22.8996 F   0  0  0  0  0  0  0  0  0  0  0  0
   13.8968    4.8722   22.9702 F   0  0  0  0  0  0  0  0  0  0  0  0
    6.3028    0.3181   22.2145 C   0  0  0  0  0  0  0  0  0  0  0  0
    6.0892    0.2441   20.7113 C   0  0  0  0  0  0  0  0  0  0  0  0
    5.7475    1.3901   20.0005 C   0  0  0  0  0  0  0  0  0  0  0  0
    5.5568    2.9503   20.8361 Cl  0  0  0  0  0  0  0  0  0  0  0  0
    5.5494    1.3327   18.6245 C   0  0  0  0  0  0  0  0  0  0  0  0
    5.6977    0.1143   17.9697 C   0  0  0  0  0  0  0  0  0  0  0  0
    6.0387   -1.0375   18.6716 C   0  0  0  0  0  0  0  0  0  0  0  0
    6.2347   -0.9694   20.0471 C   0  0  0  0  0  0  0  0  0  0  0  0
    9.1402   -2.1697   21.3596 H   0  0  0  0  0  0  0  0  0  0  0  0
    9.9738   -1.1876   20.2018 H   0  0  0  0  0  0  0  0  0  0  0  0
    7.6055   -1.1721   22.8724 H   0  0  0  0  0  0  0  0  0  0  0  0
    9.0360    0.0534   24.2127 H   0  0  0  0  0  0  0  0  0  0  0  0
    7.5347    0.6015   24.5479 H   0  0  0  0  0  0  0  0  0  0  0  0
    7.9939    2.5455   23.1181 H   0  0  0  0  0  0  0  0  0  0  0  0
   10.2359    3.3870   21.8687 H   0  0  0  0  0  0  0  0  0  0  0  0
   11.7230    4.2192   24.2220 H   0  0  0  0  0  0  0  0  0  0  0  0
   11.3293    5.2074   22.9829 H   0  0  0  0  0  0  0  0  0  0  0  0
    6.2176    1.2706   22.5068 H   0  0  0  0  0  0  0  0  0  0  0  0
    5.6031   -0.2337   22.6682 H   0  0  0  0  0  0  0  0  0  0  0  0
    5.3037    2.1561   18.1131 H   0  0  0  0  0  0  0  0  0  0  0  0
    5.5573    0.0657   16.9808 H   0  0  0  0  0  0  0  0  0  0  0  0
    6.1422   -1.9081   18.1907 H   0  0  0  0  0  0  0  0  0  0  0  0
    6.4802   -1.7929   20.5585 H   0  0  0  0  0  0  0  0  0  0  0  0
  1  2  1  0  0  0  0
  2  3  2  0  0  0  0
  2  4  1  0  0  0  0
  4  5  1  0  0  0  0
  5  6  1  0  0  0  0
  6  7  1  0  0  0  0
  7  8  2  0  0  0  0
  7  9  1  0  0  0  0
  9 10  1  0  0  0  0
 10 11  1  0  0  0  0
 11 12  1  0  0  0  0
 11 13  1  0  0  0  0
 11 14  1  0  0  0  0
  4 15  1  0  0  0  0
 15 16  1  0  0  0  0
 16 17  2  0  0  0  0
 17 18  1  0  0  0  0
 17 19  1  0  0  0  0
 19 20  2  0  0  0  0
 20 21  1  0  0  0  0
 21 22  2  0  0  0  0
 22 16  1  0  0  0  0
  1 23  1  0  0  0  0
  1 24  1  0  0  0  0
  4 25  1  0  0  0  0
  5 26  1  0  0  0  0
  5 27  1  0  0  0  0
  6 28  1  0  0  0  0
  9 29  1  0  0  0  0
 10 30  1  0  0  0  0
 10 31  1  0  0  0  0
 15 32  1  0  0  0  0
 15 33  1  0  0  0  0
 19 34  1  0  0  0  0
 20 35  1  0  0  0  0
 21 36  1  0  0  0  0
 22 37  1  0  0  0  0
M  END
> <BIOSOLVEIT.HYDE_ESTIMATED_AFFINITY_LOWER_BOUNDARY [nM]>
1224040.667385

> <BIOSOLVEIT.HYDE_ESTIMATED_AFFINITY_UPPER_BOUNDARY [nM]>
121615677.405881

> <BIOSOLVEIT.HYDE_LIGAND_EFFICIENCY range: ++, +, 0, -, -->
--

> <BIOSOLVEIT.HYDE_LIGAND_LIPOPHILIC_EFFICIENCY range: ++, +, 0, -, -->
--

> <BIOSOLVEIT.INTER_CLASH range: red, yellow, green>
green

> <BIOSOLVEIT.INTRA_CLASH range: red, yellow, green>
yellow

> <BIOSOLVEIT.LOGP>
1.8455

> <BIOSOLVEIT.MOLECULAR WEIGHT>
337.728

> <BIOSOLVEIT.MOLECULE_CHECKSUM>
LTEwLjkyMjk7MC40OTY0OTU=

> <BIOSOLVEIT.TORSION_QUALITY range: red, yellow, green, not rotatable>
yellow

> <BIOSOLVEIT.TPSA>
84.22

$$$$
mol_28_1_09
anSeeSAR  04022021533D 1   1.00000     0.00000     0
SeeSAR 9.2 andre
 48 48  0  0  0  0            999 V2000
   13.0939    2.6596   22.6528 C   0  0  0  0  0  0  0  0  0  0  0  0
   12.9809    1.3284   23.3958 C   0  0  0  0  0  0  0  0  0  0  0  0
   13.5929    0.1621   22.6106 C   0  0  0  0  0  0  0  0  0  0  0  0
   13.2536   -1.1702   23.2376 C   0  0  0  0  0  0  0  0  0  0  0  0
   12.0101   -1.6750   23.3382 C   0  0  0  0  0  0  0  0  0  0  0  0
   10.7704   -0.9816   22.8380 C   0  0  0  0  0  0  0  0  0  0  0  0
   10.1358   -0.2486   23.8832 O   0  0  0  0  0  0  0  0  0  0  0  0
    9.5267    0.9964   23.6921 C   0  0  0  0  0  0  0  0  0  0  0  0
    9.9537    1.7971   22.8155 O   0  0  0  0  0  0  0  0  0  0  0  0
    8.3971    1.4036   24.5863 C   0  0  0  0  0  0  0  0  0  0  0  0
    7.2295    0.4077   24.4769 C   0  0  2  0  0  0  0  0  0  0  0  0
    7.6191   -0.8967   25.0257 N   0  0  0  0  0  0  0  0  0  0  0  0
    8.0441   -1.0836   26.3836 C   0  0  0  0  0  0  0  0  0  0  0  0
    7.7744   -2.3804   27.0730 C   0  0  0  0  0  0  0  0  0  0  0  0
    8.6322   -0.1591   27.0067 O   0  0  0  0  0  0  0  0  0  0  0  0
    6.7819    0.2450   23.0331 C   0  0  0  0  0  0  0  0  0  0  0  0
    5.7079    0.9909   22.5599 C   0  0  0  0  0  0  0  0  0  0  0  0
    5.2913    0.8499   21.2400 C   0  0  0  0  0  0  0  0  0  0  0  0
    5.9608   -0.0420   20.4088 C   0  0  0  0  0  0  0  0  0  0  0  0
    5.5653   -0.1872   19.1264 O   0  0  0  0  0  0  0  0  0  0  0  0
    5.4304    0.8864   18.2007 C   0  0  0  0  0  0  0  0  0  0  0  0
    7.0355   -0.7928   20.8741 C   0  0  0  0  0  0  0  0  0  0  0  0
    7.4451   -0.6444   22.1950 C   0  0  0  0  0  0  0  0  0  0  0  0
   12.6821    3.3851   23.2041 H   0  0  0  0  0  0  0  0  0  0  0  0
   14.0580    2.8703   22.4911 H   0  0  0  0  0  0  0  0  0  0  0  0
   12.6156    2.5941   21.7770 H   0  0  0  0  0  0  0  0  0  0  0  0
   12.0137    1.1330   23.5579 H   0  0  0  0  0  0  0  0  0  0  0  0
   13.4560    1.4092   24.2720 H   0  0  0  0  0  0  0  0  0  0  0  0
   14.5871    0.2688   22.5935 H   0  0  0  0  0  0  0  0  0  0  0  0
   13.2396    0.1799   21.6753 H   0  0  0  0  0  0  0  0  0  0  0  0
   14.0072   -1.7161   23.6040 H   0  0  0  0  0  0  0  0  0  0  0  0
   11.9024   -2.5688   23.7735 H   0  0  0  0  0  0  0  0  0  0  0  0
   10.1327   -1.6665   22.4855 H   0  0  0  0  0  0  0  0  0  0  0  0
   11.0223   -0.3515   22.1035 H   0  0  0  0  0  0  0  0  0  0  0  0
    8.0788    2.3132   24.3193 H   0  0  0  0  0  0  0  0  0  0  0  0
    8.7200    1.4280   25.5324 H   0  0  0  0  0  0  0  0  0  0  0  0
    6.4604    0.7599   25.0102 H   0  0  0  0  0  0  0  0  0  0  0  0
    7.5868   -1.6945   24.4237 H   0  0  0  0  0  0  0  0  0  0  0  0
    8.1333   -2.3431   28.0057 H   0  0  0  0  0  0  0  0  0  0  0  0
    6.7883   -2.5440   27.1016 H   0  0  0  0  0  0  0  0  0  0  0  0
    8.2211   -3.1227   26.5735 H   0  0  0  0  0  0  0  0  0  0  0  0
    5.2352    1.6285   23.1681 H   0  0  0  0  0  0  0  0  0  0  0  0
    4.5198    1.3832   20.8931 H   0  0  0  0  0  0  0  0  0  0  0  0
    5.1253    0.5291   17.3179 H   0  0  0  0  0  0  0  0  0  0  0  0
    4.7580    1.5414   18.5455 H   0  0  0  0  0  0  0  0  0  0  0  0
    6.3131    1.3428   18.0884 H   0  0  0  0  0  0  0  0  0  0  0  0
    7.5076   -1.4314   20.2664 H   0  0  0  0  0  0  0  0  0  0  0  0
    8.2168   -1.1775   22.5420 H   0  0  0  0  0  0  0  0  0  0  0  0
  1  2  1  0  0  0  0
  2  3  1  0  0  0  0
  3  4  1  0  0  0  0
  4  5  2  0  0  0  0
  5  6  1  0  0  0  0
  6  7  1  0  0  0  0
  7  8  1  0  0  0  0
  8  9  2  0  0  0  0
  8 10  1  0  0  0  0
 10 11  1  0  0  0  0
 11 12  1  0  0  0  0
 12 13  1  0  0  0  0
 13 14  1  0  0  0  0
 13 15  2  0  0  0  0
 11 16  1  0  0  0  0
 16 17  2  0  0  0  0
 17 18  1  0  0  0  0
 18 19  2  0  0  0  0
 19 20  1  0  0  0  0
 20 21  1  0  0  0  0
 19 22  1  0  0  0  0
 22 23  2  0  0  0  0
 23 16  1  0  0  0  0
  1 24  1  0  0  0  0
  1 25  1  0  0  0  0
  1 26  1  0  0  0  0
  2 27  1  0  0  0  0
  2 28  1  0  0  0  0
  3 29  1  0  0  0  0
  3 30  1  0  0  0  0
  4 31  1  0  0  0  0
  5 32  1  0  0  0  0
  6 33  1  0  0  0  0
  6 34  1  0  0  0  0
 10 35  1  0  0  0  0
 10 36  1  0  0  0  0
 11 37  1  0  0  0  0
 12 38  1  0  0  0  0
 14 39  1  0  0  0  0
 14 40  1  0  0  0  0
 14 41  1  0  0  0  0
 17 42  1  0  0  0  0
 18 43  1  0  0  0  0
 21 44  1  0  0  0  0
 21 45  1  0  0  0  0
 21 46  1  0  0  0  0
 22 47  1  0  0  0  0
 23 48  1  0  0  0  0
M  END
> <BIOSOLVEIT.HYDE_ESTIMATED_AFFINITY_LOWER_BOUNDARY [nM]>
1339630.782701

> <BIOSOLVEIT.HYDE_ESTIMATED_AFFINITY_UPPER_BOUNDARY [nM]>
133100238.785384

> <BIOSOLVEIT.HYDE_LIGAND_EFFICIENCY range: ++, +, 0, -, -->
--

> <BIOSOLVEIT.HYDE_LIGAND_LIPOPHILIC_EFFICIENCY range: ++, +, 0, -, -->
--

> <BIOSOLVEIT.INTER_CLASH range: red, yellow, green>
green

> <BIOSOLVEIT.INTRA_CLASH range: red, yellow, green>
yellow

> <BIOSOLVEIT.LOGP>
3.162

> <BIOSOLVEIT.MOLECULAR WEIGHT>
319.399

> <BIOSOLVEIT.MOLECULE_CHECKSUM>
LTEwLjY5OTI7MC40NjUxODI=

> <BIOSOLVEIT.TORSION_QUALITY range: red, yellow, green, not rotatable>
red

> <BIOSOLVEIT.TPSA>
64.63

$$$$
mol_15_1_05
anSeeSAR  04022021533D 1   1.00000     0.00000     0
SeeSAR 9.2 andre
 52 53  0  0  0  0            999 V2000
    5.7768    1.5420   17.2010 C   0  0  0  0  0  0  0  0  0  0  0  0
    6.5963    0.6404   17.9378 O   0  0  0  0  0  0  0  0  0  0  0  0
    6.5588    0.5000   19.2801 C   0  0  0  0  0  0  0  0  0  0  0  0
    7.6678   -0.0644   19.9210 C   0  0  0  0  0  0  0  0  0  0  0  0
    7.6782   -0.2304   21.3088 C   0  0  0  0  0  0  0  0  0  0  0  0
    6.5714    0.1613   22.0772 C   0  0  0  0  0  0  0  0  0  0  0  0
    6.5979    0.0109   23.5778 C   0  0  0  0  0  0  0  0  0  0  0  0
    7.1658    1.2636   24.2671 C   0  0  2  0  0  0  0  0  0  0  0  0
    6.8460    1.2213   25.6965 N   0  0  0  0  0  0  0  0  0  0  0  0
    7.3165    2.1948   26.6401 C   0  0  0  0  0  0  0  0  0  0  0  0
    8.0452    3.1512   26.2584 O   0  0  0  0  0  0  0  0  0  0  0  0
    6.9488    2.0787   28.0218 N   0  0  0  0  0  0  0  0  0  0  0  0
    6.7993    3.2473   28.8955 C   0  0  2  0  0  0  0  0  0  0  0  0
    6.1381    2.9114   30.2232 C   0  0  0  0  0  0  0  0  0  0  0  0
    4.6765    2.5189   30.0534 C   0  0  0  0  0  0  0  0  0  0  0  0
    4.2522    2.5676   28.6466 N   0  3  1  0  0  0  0  0  0  0  0  0
    2.8354    2.1922   28.5176 C   0  0  0  0  0  0  0  0  0  0  0  0
    4.5040    3.8960   28.0692 C   0  0  2  0  0  0  0  0  0  0  0  0
    4.1603    3.9289   26.5892 C   0  0  0  0  0  0  0  0  0  0  0  0
    5.9401    4.3455   28.2814 C   0  0  0  0  0  0  0  0  0  0  0  0
    6.5956    2.5203   23.6713 C   0  0  0  0  0  0  0  0  0  0  0  0
    7.3311    3.2949   23.0047 O   0  0  0  0  0  0  0  0  0  0  0  0
    5.2540    2.8358   23.8517 O   0  5  0  0  0  0  0  0  0  0  0  0
    5.4608    0.7350   21.4391 C   0  0  0  0  0  0  0  0  0  0  0  0
    5.4508    0.9011   20.0510 C   0  0  0  0  0  0  0  0  0  0  0  0
    5.9876    1.4637   16.2266 H   0  0  0  0  0  0  0  0  0  0  0  0
    4.8142    1.3176   17.3529 H   0  0  0  0  0  0  0  0  0  0  0  0
    5.9530    2.4779   17.5061 H   0  0  0  0  0  0  0  0  0  0  0  0
    8.4593   -0.3513   19.3815 H   0  0  0  0  0  0  0  0  0  0  0  0
    8.4782   -0.6302   21.7562 H   0  0  0  0  0  0  0  0  0  0  0  0
    7.1685   -0.7756   23.8144 H   0  0  0  0  0  0  0  0  0  0  0  0
    5.6654   -0.1436   23.9043 H   0  0  0  0  0  0  0  0  0  0  0  0
    8.1596    1.2732   24.1565 H   0  0  0  0  0  0  0  0  0  0  0  0
    6.2702    0.4756   26.0318 H   0  0  0  0  0  0  0  0  0  0  0  0
    6.7886    1.1682   28.4031 H   0  0  0  0  0  0  0  0  0  0  0  0
    7.7076    3.6225   29.0803 H   0  0  0  0  0  0  0  0  0  0  0  0
    6.1897    3.7117   30.8205 H   0  0  0  0  0  0  0  0  0  0  0  0
    6.6297    2.1490   30.6442 H   0  0  0  0  0  0  0  0  0  0  0  0
    4.1094    3.1494   30.5835 H   0  0  0  0  0  0  0  0  0  0  0  0
    4.5503    1.5882   30.3965 H   0  0  0  0  0  0  0  0  0  0  0  0
    4.7961    1.9011   28.1367 H   0  0  0  0  0  0  0  0  0  0  0  0
    2.5664    2.2313   27.5552 H   0  0  0  0  0  0  0  0  0  0  0  0
    2.7040    1.2629   28.8628 H   0  0  0  0  0  0  0  0  0  0  0  0
    2.2727    2.8271   29.0470 H   0  0  0  0  0  0  0  0  0  0  0  0
    3.9077    4.5495   28.5356 H   0  0  0  0  0  0  0  0  0  0  0  0
    4.3414    4.8425   26.2251 H   0  0  0  0  0  0  0  0  0  0  0  0
    4.7204    3.2589   26.1020 H   0  0  0  0  0  0  0  0  0  0  0  0
    3.1930    3.7069   26.4666 H   0  0  0  0  0  0  0  0  0  0  0  0
    5.9433    5.1371   28.8923 H   0  0  0  0  0  0  0  0  0  0  0  0
    6.3307    4.6045   27.3980 H   0  0  0  0  0  0  0  0  0  0  0  0
    4.6721    1.0265   21.9804 H   0  0  0  0  0  0  0  0  0  0  0  0
    4.6536    1.3065   19.6038 H   0  0  0  0  0  0  0  0  0  0  0  0
  1  2  1  0  0  0  0
  2  3  1  0  0  0  0
  3  4  2  0  0  0  0
  4  5  1  0  0  0  0
  5  6  2  0  0  0  0
  6  7  1  0  0  0  0
  7  8  1  0  0  0  0
  8  9  1  0  0  0  0
  9 10  1  0  0  0  0
 10 11  2  0  0  0  0
 10 12  1  0  0  0  0
 12 13  1  0  0  0  0
 13 14  1  0  0  0  0
 14 15  1  0  0  0  0
 15 16  1  0  0  0  0
 16 17  1  0  0  0  0
 16 18  1  0  0  0  0
 18 19  1  0  0  0  0
 18 20  1  0  0  0  0
  8 21  1  0  0  0  0
 21 22  2  0  0  0  0
 21 23  1  0  0  0  0
  6 24  1  0  0  0  0
 24 25  2  0  0  0  0
 25  3  1  0  0  0  0
 20 13  1  0  0  0  0
  1 26  1  0  0  0  0
  1 27  1  0  0  0  0
  1 28  1  0  0  0  0
  4 29  1  0  0  0  0
  5 30  1  0  0  0  0
  7 31  1  0  0  0  0
  7 32  1  0  0  0  0
  8 33  1  0  0  0  0
  9 34  1  0  0  0  0
 12 35  1  0  0  0  0
 13 36  1  0  0  0  0
 14 37  1  0  0  0  0
 14 38  1  0  0  0  0
 15 39  1  0  0  0  0
 15 40  1  0  0  0  0
 16 41  1  0  0  0  0
 17 42  1  0  0  0  0
 17 43  1  0  0  0  0
 17 44  1  0  0  0  0
 18 45  1  0  0  0  0
 19 46  1  0  0  0  0
 19 47  1  0  0  0  0
 19 48  1  0  0  0  0
 20 49  1  0  0  0  0
 20 50  1  0  0  0  0
 24 51  1  0  0  0  0
 25 52  1  0  0  0  0
M  CHG  2  16   1  23  -1
M  END
> <BIOSOLVEIT.HYDE_ESTIMATED_AFFINITY_LOWER_BOUNDARY [nM]>
1360525.534707

> <BIOSOLVEIT.HYDE_ESTIMATED_AFFINITY_UPPER_BOUNDARY [nM]>
135176255.936674

> <BIOSOLVEIT.HYDE_LIGAND_EFFICIENCY range: ++, +, 0, -, -->
--

> <BIOSOLVEIT.HYDE_LIGAND_LIPOPHILIC_EFFICIENCY range: ++, +, 0, -, -->
-

> <BIOSOLVEIT.INTER_CLASH range: red, yellow, green>
yellow

> <BIOSOLVEIT.INTRA_CLASH range: red, yellow, green>
green

> <BIOSOLVEIT.LOGP>
-1.279

> <BIOSOLVEIT.MOLECULAR WEIGHT>
349.428

> <BIOSOLVEIT.MOLECULE_CHECKSUM>
LTEwLjY2MDg7MC40MjY0MzM=

> <BIOSOLVEIT.TORSION_QUALITY range: red, yellow, green, not rotatable>
yellow

> <BIOSOLVEIT.TPSA>
94.93

$$$$
mol_32_1_04
anSeeSAR  04022021533D 1   1.00000     0.00000     0
SeeSAR 9.2 andre
 53 54  0  0  0  0            999 V2000
    4.5428    8.3091   21.7352 C   0  0  0  0  0  0  0  0  0  0  0  0
    5.9769    8.0213   22.2010 C   0  0  0  0  0  0  0  0  0  0  0  0
    6.2163    8.5783   23.6109 C   0  0  0  0  0  0  0  0  0  0  0  0
    6.3488    6.5238   22.0838 C   0  0  0  0  0  0  0  0  0  0  0  0
    7.8069    6.1948   22.4247 C   0  0  0  0  0  0  0  0  0  0  0  0
    7.8982    5.9132   23.8064 O   0  0  0  0  0  0  0  0  0  0  0  0
    7.7113    4.5256   24.0454 C   0  0  2  0  0  0  0  0  0  0  0  0
    8.7455    4.0017   25.0169 C   0  0  0  0  0  0  0  0  0  0  0  0
    8.6853    2.5240   24.7029 C   0  0  0  0  0  0  0  0  0  0  0  0
    8.6402    2.4899   23.2403 N   0  0  0  0  0  0  0  0  0  0  0  0
    9.1057    1.4117   22.4076 C   0  0  0  0  0  0  0  0  0  0  0  0
    9.5625    1.6716   21.2622 O   0  0  0  0  0  0  0  0  0  0  0  0
    9.0811    0.0076   22.8783 C   0  0  0  0  0  0  0  0  0  0  0  0
    9.9282   -0.3489   23.7418 O   0  0  0  0  0  0  0  0  0  0  0  0
    8.1238   -0.9567   22.3794 N   0  0  0  0  0  0  0  0  0  0  0  0
    7.7053   -2.1009   23.1977 C   0  0  0  0  0  0  0  0  0  0  0  0
    7.6097   -0.8260   21.0072 C   0  0  0  0  0  0  0  0  0  0  0  0
    6.4351    0.1381   20.9671 C   0  0  0  0  0  0  0  0  0  0  0  0
    5.9465    0.5592   19.7355 C   0  0  0  0  0  0  0  0  0  0  0  0
    4.8717    1.4418   19.7030 C   0  0  0  0  0  0  0  0  0  0  0  0
    4.3866    1.8606   18.5145 O   0  0  0  0  0  0  0  0  0  0  0  0
    4.2884    1.9016   20.8801 C   0  0  0  0  0  0  0  0  0  0  0  0
    4.7902    1.4701   22.1033 C   0  0  0  0  0  0  0  0  0  0  0  0
    5.8639    0.5873   22.1531 C   0  0  0  0  0  0  0  0  0  0  0  0
    8.0566    3.7566   22.7835 C   0  0  0  0  0  0  0  0  0  0  0  0
    4.4100    7.9380   20.8162 H   0  0  0  0  0  0  0  0  0  0  0  0
    3.8953    7.8798   22.3649 H   0  0  0  0  0  0  0  0  0  0  0  0
    4.3889    9.2971   21.7211 H   0  0  0  0  0  0  0  0  0  0  0  0
    6.5868    8.5201   21.5852 H   0  0  0  0  0  0  0  0  0  0  0  0
    7.1549    8.3795   23.8929 H   0  0  0  0  0  0  0  0  0  0  0  0
    6.0718    9.5678   23.6074 H   0  0  0  0  0  0  0  0  0  0  0  0
    5.5782    8.1505   24.2511 H   0  0  0  0  0  0  0  0  0  0  0  0
    6.1761    6.2332   21.1427 H   0  0  0  0  0  0  0  0  0  0  0  0
    5.7598    6.0075   22.7055 H   0  0  0  0  0  0  0  0  0  0  0  0
    8.3890    6.9766   22.2017 H   0  0  0  0  0  0  0  0  0  0  0  0
    8.1034    5.3976   21.8988 H   0  0  0  0  0  0  0  0  0  0  0  0
    6.7813    4.3271   24.3548 H   0  0  0  0  0  0  0  0  0  0  0  0
    8.4908    4.1893   25.9656 H   0  0  0  0  0  0  0  0  0  0  0  0
    9.6519    4.3824   24.8337 H   0  0  0  0  0  0  0  0  0  0  0  0
    7.8654    2.1077   25.0961 H   0  0  0  0  0  0  0  0  0  0  0  0
    9.4967    2.0516   25.0471 H   0  0  0  0  0  0  0  0  0  0  0  0
    7.0443   -2.6514   22.6878 H   0  0  0  0  0  0  0  0  0  0  0  0
    8.5033   -2.6605   23.4211 H   0  0  0  0  0  0  0  0  0  0  0  0
    7.2831   -1.7703   24.0418 H   0  0  0  0  0  0  0  0  0  0  0  0
    7.3104   -1.7228   20.6813 H   0  0  0  0  0  0  0  0  0  0  0  0
    8.3379   -0.4820   20.4145 H   0  0  0  0  0  0  0  0  0  0  0  0
    6.3612    0.2328   18.8862 H   0  0  0  0  0  0  0  0  0  0  0  0
    3.4482    2.2001   18.4490 H   0  0  0  0  0  0  0  0  0  0  0  0
    3.5161    2.5359   20.8466 H   0  0  0  0  0  0  0  0  0  0  0  0
    4.3762    1.7968   22.9529 H   0  0  0  0  0  0  0  0  0  0  0  0
    6.2222    0.2783   23.0341 H   0  0  0  0  0  0  0  0  0  0  0  0
    7.2332    3.5864   22.2421 H   0  0  0  0  0  0  0  0  0  0  0  0
    8.7175    4.2672   22.2334 H   0  0  0  0  0  0  0  0  0  0  0  0
  1  2  1  0  0  0  0
  2  3  1  0  0  0  0
  2  4  1  0  0  0  0
  4  5  1  0  0  0  0
  5  6  1  0  0  0  0
  6  7  1  0  0  0  0
  7  8  1  0  0  0  0
  8  9  1  0  0  0  0
  9 10  1  0  0  0  0
 10 11  1  0  0  0  0
 11 12  2  0  0  0  0
 11 13  1  0  0  0  0
 13 14  2  0  0  0  0
 13 15  1  0  0  0  0
 15 16  1  0  0  0  0
 15 17  1  0  0  0  0
 17 18  1  0  0  0  0
 18 19  2  0  0  0  0
 19 20  1  0  0  0  0
 20 21  1  0  0  0  0
 20 22  2  0  0  0  0
 22 23  1  0  0  0  0
 23 24  2  0  0  0  0
 10 25  1  0  0  0  0
 25  7  1  0  0  0  0
 24 18  1  0  0  0  0
  1 26  1  0  0  0  0
  1 27  1  0  0  0  0
  1 28  1  0  0  0  0
  2 29  1  0  0  0  0
  3 30  1  0  0  0  0
  3 31  1  0  0  0  0
  3 32  1  0  0  0  0
  4 33  1  0  0  0  0
  4 34  1  0  0  0  0
  5 35  1  0  0  0  0
  5 36  1  0  0  0  0
  7 37  1  0  0  0  0
  8 38  1  0  0  0  0
  8 39  1  0  0  0  0
  9 40  1  0  0  0  0
  9 41  1  0  0  0  0
 16 42  1  0  0  0  0
 16 43  1  0  0  0  0
 16 44  1  0  0  0  0
 17 45  1  0  0  0  0
 17 46  1  0  0  0  0
 19 47  1  0  0  0  0
 21 48  1  0  0  0  0
 22 49  1  0  0  0  0
 23 50  1  0  0  0  0
 24 51  1  0  0  0  0
 25 52  1  0  0  0  0
 25 53  1  0  0  0  0
M  END
> <BIOSOLVEIT.HYDE_ESTIMATED_AFFINITY_LOWER_BOUNDARY [nM]>
1589496.815588

> <BIOSOLVEIT.HYDE_ESTIMATED_AFFINITY_UPPER_BOUNDARY [nM]>
157925906.477577

> <BIOSOLVEIT.HYDE_LIGAND_EFFICIENCY range: ++, +, 0, -, -->
--

> <BIOSOLVEIT.HYDE_LIGAND_LIPOPHILIC_EFFICIENCY range: ++, +, 0, -, -->
--

> <BIOSOLVEIT.INTER_CLASH range: red, yellow, green>
green

> <BIOSOLVEIT.INTRA_CLASH range: red, yellow, green>
green

> <BIOSOLVEIT.LOGP>
2.0142

> <BIOSOLVEIT.MOLECULAR WEIGHT>
348.44

> <BIOSOLVEIT.MOLECULE_CHECKSUM>
LTEwLjI3NTI7MC40MTEwMDk=

> <BIOSOLVEIT.TORSION_QUALITY range: red, yellow, green, not rotatable>
red

> <BIOSOLVEIT.TPSA>
70.08

$$$$
mol_94_1_07
anSeeSAR  04022021533D 1   1.00000     0.00000     0
SeeSAR 9.2 andre
 39 39  0  0  0  0            999 V2000
    8.6801   -1.3956   21.6316 C   0  0  0  0  0  0  0  0  0  0  0  0
    7.4060   -1.0328   22.1532 O   0  0  0  0  0  0  0  0  0  0  0  0
    6.5130   -0.1406   21.5355 C   0  0  0  0  0  0  0  0  0  0  0  0
    5.9042    0.8743   22.3112 C   0  0  0  0  0  0  0  0  0  0  0  0
    6.2178    1.0206   23.7894 C   0  0  1  0  0  0  0  0  0  0  0  0
    7.6516    1.5434   23.9598 C   0  0  0  0  0  0  0  0  0  0  0  0
    8.0255    1.5790   25.3728 N   0  0  0  0  0  0  0  0  0  0  0  0
    7.7745    2.7142   26.2117 C   0  0  0  0  0  0  0  0  0  0  0  0
    7.7462    4.0843   25.6182 C   0  0  0  0  0  0  0  0  0  0  0  0
    7.5694    2.5642   27.4466 O   0  0  0  0  0  0  0  0  0  0  0  0
    5.3123    1.9481   24.3758 O   0  0  0  0  0  0  0  0  0  0  0  0
    4.3144    1.3138   25.1580 C   0  0  0  0  0  0  0  0  0  0  0  0
    3.3587    2.3593   25.7457 C   0  0  0  0  0  0  0  0  0  0  0  0
    5.0038    0.5426   26.2819 C   0  0  0  0  0  0  0  0  0  0  0  0
    5.0448    1.7972   21.6835 C   0  0  0  0  0  0  0  0  0  0  0  0
    4.7619    1.6932   20.3212 C   0  0  0  0  0  0  0  0  0  0  0  0
    5.3416    0.6782   19.5627 C   0  0  0  0  0  0  0  0  0  0  0  0
    6.2143   -0.2321   20.1606 C   0  0  0  0  0  0  0  0  0  0  0  0
    9.1228   -2.0422   22.2528 H   0  0  0  0  0  0  0  0  0  0  0  0
    8.5640   -1.8216   20.7344 H   0  0  0  0  0  0  0  0  0  0  0  0
    9.2485   -0.5778   21.5412 H   0  0  0  0  0  0  0  0  0  0  0  0
    6.1284    0.1329   24.2410 H   0  0  0  0  0  0  0  0  0  0  0  0
    7.7111    2.4671   23.5813 H   0  0  0  0  0  0  0  0  0  0  0  0
    8.2810    0.9409   23.4690 H   0  0  0  0  0  0  0  0  0  0  0  0
    8.4747    0.7789   25.7703 H   0  0  0  0  0  0  0  0  0  0  0  0
    7.5598    4.7548   26.3363 H   0  0  0  0  0  0  0  0  0  0  0  0
    8.6312    4.2837   25.1976 H   0  0  0  0  0  0  0  0  0  0  0  0
    7.0286    4.1319   24.9234 H   0  0  0  0  0  0  0  0  0  0  0  0
    3.7986    0.6766   24.5854 H   0  0  0  0  0  0  0  0  0  0  0  0
    2.6600    1.9008   26.2948 H   0  0  0  0  0  0  0  0  0  0  0  0
    3.8729    2.9938   26.3228 H   0  0  0  0  0  0  0  0  0  0  0  0
    2.9201    2.8649   25.0028 H   0  0  0  0  0  0  0  0  0  0  0  0
    4.3144    0.0876   26.8455 H   0  0  0  0  0  0  0  0  0  0  0  0
    5.6177   -0.1418   25.8887 H   0  0  0  0  0  0  0  0  0  0  0  0
    5.5306    1.1773   26.8473 H   0  0  0  0  0  0  0  0  0  0  0  0
    4.6335    2.5344   22.2196 H   0  0  0  0  0  0  0  0  0  0  0  0
    4.1421    2.3479   19.8886 H   0  0  0  0  0  0  0  0  0  0  0  0
    5.1319    0.6019   18.5879 H   0  0  0  0  0  0  0  0  0  0  0  0
    6.6311   -0.9550   19.6095 H   0  0  0  0  0  0  0  0  0  0  0  0
  1  2  1  0  0  0  0
  2  3  1  0  0  0  0
  3  4  2  0  0  0  0
  4  5  1  0  0  0  0
  5  6  1  0  0  0  0
  6  7  1  0  0  0  0
  7  8  1  0  0  0  0
  8  9  1  0  0  0  0
  8 10  2  0  0  0  0
  5 11  1  0  0  0  0
 11 12  1  0  0  0  0
 12 13  1  0  0  0  0
 12 14  1  0  0  0  0
  4 15  1  0  0  0  0
 15 16  2  0  0  0  0
 16 17  1  0  0  0  0
 17 18  2  0  0  0  0
 18  3  1  0  0  0  0
  1 19  1  0  0  0  0
  1 20  1  0  0  0  0
  1 21  1  0  0  0  0
  5 22  1  0  0  0  0
  6 23  1  0  0  0  0
  6 24  1  0  0  0  0
  7 25  1  0  0  0  0
  9 26  1  0  0  0  0
  9 27  1  0  0  0  0
  9 28  1  0  0  0  0
 12 29  1  0  0  0  0
 13 30  1  0  0  0  0
 13 31  1  0  0  0  0
 13 32  1  0  0  0  0
 14 33  1  0  0  0  0
 14 34  1  0  0  0  0
 14 35  1  0  0  0  0
 15 36  1  0  0  0  0
 16 37  1  0  0  0  0
 17 38  1  0  0  0  0
 18 39  1  0  0  0  0
M  END
> <BIOSOLVEIT.HYDE_ESTIMATED_AFFINITY_LOWER_BOUNDARY [nM]>
1859230.873126

> <BIOSOLVEIT.HYDE_ESTIMATED_AFFINITY_UPPER_BOUNDARY [nM]>
184725579.887932

> <BIOSOLVEIT.HYDE_LIGAND_EFFICIENCY range: ++, +, 0, -, -->
--

> <BIOSOLVEIT.HYDE_LIGAND_LIPOPHILIC_EFFICIENCY range: ++, +, 0, -, -->
--

> <BIOSOLVEIT.INTER_CLASH range: red, yellow, green>
green

> <BIOSOLVEIT.INTRA_CLASH range: red, yellow, green>
green

> <BIOSOLVEIT.LOGP>
2.2974

> <BIOSOLVEIT.MOLECULAR WEIGHT>
251.324

> <BIOSOLVEIT.MOLECULE_CHECKSUM>
LTkuODg2Njc7MC41NDkyNTk=

> <BIOSOLVEIT.TORSION_QUALITY range: red, yellow, green, not rotatable>
yellow

> <BIOSOLVEIT.TPSA>
47.56

$$$$
mol_45_1_10
anSeeSAR  04022021533D 1   1.00000     0.00000     0
SeeSAR 9.2 andre
 56 58  0  0  0  0            999 V2000
    6.6898   -5.1370   32.5649 C   0  0  0  0  0  0  0  0  0  0  0  0
    5.4612   -4.9753   31.6570 C   0  0  0  0  0  0  0  0  0  0  0  0
    4.2016   -5.4401   32.4005 C   0  0  0  0  0  0  0  0  0  0  0  0
    5.2756   -3.5183   31.1685 C   0  0  0  0  0  0  0  0  0  0  0  0
    6.3376   -3.0653   30.1795 C   0  0  1  0  0  0  0  0  0  0  0  0
    5.7954   -1.8439   29.4538 C   0  0  0  0  0  0  0  0  0  0  0  0
    6.8248   -1.3905   28.4310 C   0  0  1  0  0  0  0  0  0  0  0  0
    6.3390   -0.1870   27.7436 N   0  0  0  0  0  0  0  0  0  0  0  0
    6.0540   -0.1440   26.3378 C   0  0  0  0  0  0  0  0  0  0  0  0
    5.6639   -1.1813   25.7341 O   0  0  0  0  0  0  0  0  0  0  0  0
    6.2182    1.0861   25.6179 N   0  0  0  0  0  0  0  0  0  0  0  0
    6.5843    1.1172   24.1985 C   0  0  1  0  0  0  0  0  0  0  0  0
    5.3251    1.2626   23.3213 C   0  0  0  0  0  0  0  0  0  0  0  0
    5.5945    0.8934   21.8823 C   0  0  0  0  0  0  0  0  0  0  0  0
    4.8331    1.4622   20.8468 C   0  0  0  0  0  0  0  0  0  0  0  0
    5.0936    1.1269   19.5145 C   0  0  0  0  0  0  0  0  0  0  0  0
    6.1116    0.2204   19.2062 C   0  0  0  0  0  0  0  0  0  0  0  0
    6.8703   -0.3533   20.2299 C   0  0  0  0  0  0  0  0  0  0  0  0
    6.6136   -0.0204   21.5635 C   0  0  0  0  0  0  0  0  0  0  0  0
    7.5390    2.2511   23.9492 C   0  0  0  0  0  0  0  0  0  0  0  0
    8.8124    2.2536   24.2741 N   0  0  0  0  0  0  0  0  0  0  0  0
    9.3345    3.4485   23.8882 C   0  0  0  0  0  0  0  0  0  0  0  0
    8.2984    4.1411   23.3273 C   0  0  0  0  0  0  0  0  0  0  0  0
    7.2182    3.3887   23.3769 O   0  0  0  0  0  0  0  0  0  0  0  0
    8.1322   -1.1110   29.1561 C   0  0  0  0  0  0  0  0  0  0  0  0
    8.5744   -2.3582   29.9065 C   0  0  0  0  0  0  0  0  0  0  0  0
    7.5743   -2.7836   30.8231 O   0  0  0  0  0  0  0  0  0  0  0  0
    7.5077   -4.8329   32.0763 H   0  0  0  0  0  0  0  0  0  0  0  0
    6.5697   -4.5846   33.3898 H   0  0  0  0  0  0  0  0  0  0  0  0
    6.7919   -6.0986   32.8196 H   0  0  0  0  0  0  0  0  0  0  0  0
    5.5852   -5.5604   30.8556 H   0  0  0  0  0  0  0  0  0  0  0  0
    3.4049   -5.3330   31.8057 H   0  0  0  0  0  0  0  0  0  0  0  0
    4.3007   -6.4021   32.6550 H   0  0  0  0  0  0  0  0  0  0  0  0
    4.0785   -4.8881   33.2252 H   0  0  0  0  0  0  0  0  0  0  0  0
    5.3058   -2.9125   31.9636 H   0  0  0  0  0  0  0  0  0  0  0  0
    4.3813   -3.4447   30.7272 H   0  0  0  0  0  0  0  0  0  0  0  0
    6.4841   -3.7950   29.5115 H   0  0  0  0  0  0  0  0  0  0  0  0
    5.6269   -1.1090   30.1107 H   0  0  0  0  0  0  0  0  0  0  0  0
    4.9410   -2.0791   28.9903 H   0  0  0  0  0  0  0  0  0  0  0  0
    6.9678   -2.1189   27.7609 H   0  0  0  0  0  0  0  0  0  0  0  0
    6.1999    0.6440   28.2821 H   0  0  0  0  0  0  0  0  0  0  0  0
    6.0783    1.9508   26.1002 H   0  0  0  0  0  0  0  0  0  0  0  0
    7.0396    0.2578   23.9659 H   0  0  0  0  0  0  0  0  0  0  0  0
    5.0134    2.2120   23.3583 H   0  0  0  0  0  0  0  0  0  0  0  0
    4.6102    0.6627   23.6804 H   0  0  0  0  0  0  0  0  0  0  0  0
    4.1021    2.1092   21.0637 H   0  0  0  0  0  0  0  0  0  0  0  0
    4.5508    1.5365   18.7812 H   0  0  0  0  0  0  0  0  0  0  0  0
    6.2971   -0.0177   18.2529 H   0  0  0  0  0  0  0  0  0  0  0  0
    7.5977   -1.0027   20.0085 H   0  0  0  0  0  0  0  0  0  0  0  0
    7.1575   -0.4343   22.2935 H   0  0  0  0  0  0  0  0  0  0  0  0
   10.2801    3.7564   23.9930 H   0  0  0  0  0  0  0  0  0  0  0  0
    8.3514    5.0632   22.9440 H   0  0  0  0  0  0  0  0  0  0  0  0
    7.9997   -0.3615   29.8047 H   0  0  0  0  0  0  0  0  0  0  0  0
    8.8340   -0.8561   28.4910 H   0  0  0  0  0  0  0  0  0  0  0  0
    9.4145   -2.1562   30.4099 H   0  0  0  0  0  0  0  0  0  0  0  0
    8.7480   -3.0911   29.2487 H   0  0  0  0  0  0  0  0  0  0  0  0
  1  2  1  0  0  0  0
  2  3  1  0  0  0  0
  2  4  1  0  0  0  0
  4  5  1  0  0  0  0
  5  6  1  0  0  0  0
  6  7  1  0  0  0  0
  7  8  1  0  0  0  0
  8  9  1  0  0  0  0
  9 10  2  0  0  0  0
  9 11  1  0  0  0  0
 11 12  1  0  0  0  0
 12 13  1  0  0  0  0
 13 14  1  0  0  0  0
 14 15  2  0  0  0  0
 15 16  1  0  0  0  0
 16 17  2  0  0  0  0
 17 18  1  0  0  0  0
 18 19  2  0  0  0  0
 12 20  1  0  0  0  0
 20 21  2  0  0  0  0
 21 22  1  0  0  0  0
 22 23  2  0  0  0  0
 23 24  1  0  0  0  0
  7 25  1  0  0  0  0
 25 26  1  0  0  0  0
 26 27  1  0  0  0  0
 27  5  1  0  0  0  0
 19 14  1  0  0  0  0
 24 20  1  0  0  0  0
  1 28  1  0  0  0  0
  1 29  1  0  0  0  0
  1 30  1  0  0  0  0
  2 31  1  0  0  0  0
  3 32  1  0  0  0  0
  3 33  1  0  0  0  0
  3 34  1  0  0  0  0
  4 35  1  0  0  0  0
  4 36  1  0  0  0  0
  5 37  1  0  0  0  0
  6 38  1  0  0  0  0
  6 39  1  0  0  0  0
  7 40  1  0  0  0  0
  8 41  1  0  0  0  0
 11 42  1  0  0  0  0
 12 43  1  0  0  0  0
 13 44  1  0  0  0  0
 13 45  1  0  0  0  0
 15 46  1  0  0  0  0
 16 47  1  0  0  0  0
 17 48  1  0  0  0  0
 18 49  1  0  0  0  0
 19 50  1  0  0  0  0
 22 51  1  0  0  0  0
 23 52  1  0  0  0  0
 25 53  1  0  0  0  0
 25 54  1  0  0  0  0
 26 55  1  0  0  0  0
 26 56  1  0  0  0  0
M  END
> <BIOSOLVEIT.HYDE_ESTIMATED_AFFINITY_LOWER_BOUNDARY [nM]>
1994931.180330

> <BIOSOLVEIT.HYDE_ESTIMATED_AFFINITY_UPPER_BOUNDARY [nM]>
198208207.732428

> <BIOSOLVEIT.HYDE_LIGAND_EFFICIENCY range: ++, +, 0, -, -->
--

> <BIOSOLVEIT.HYDE_LIGAND_LIPOPHILIC_EFFICIENCY range: ++, +, 0, -, -->
--

> <BIOSOLVEIT.INTER_CLASH range: red, yellow, green>
green

> <BIOSOLVEIT.INTRA_CLASH range: red, yellow, green>
green

> <BIOSOLVEIT.LOGP>
3.8513

> <BIOSOLVEIT.MOLECULAR WEIGHT>
371.478

> <BIOSOLVEIT.MOLECULE_CHECKSUM>
LTkuNzEyMDQ7MC4zNTk3MDU=

> <BIOSOLVEIT.TORSION_QUALITY range: red, yellow, green, not rotatable>
yellow

> <BIOSOLVEIT.TPSA>
76.39

$$$$
mol_100_1_02
anSeeSAR  04022021533D 1   1.00000     0.00000     0
SeeSAR 9.2 andre
 37 37  0  0  0  0            999 V2000
   10.3503    7.1695   26.4560 C   0  0  0  0  0  0  0  0  0  0  0  0
    9.0067    6.7891   27.0749 C   0  0  0  0  0  0  0  0  0  0  0  0
    8.1782    5.8826   26.1601 C   0  0  0  0  0  0  0  0  0  0  0  0
    7.8837    6.6714   24.5314 S   0  0  0  0  0  0  0  0  0  0  0  0
    6.9674    5.2761   23.7752 C   0  0  0  0  0  0  0  0  0  0  0  0
    7.4257    4.9672   22.3778 C   0  0  0  0  0  0  0  0  0  0  0  0
    7.3686    5.8457   21.4739 O   0  0  0  0  0  0  0  0  0  0  0  0
    7.9294    3.6585   22.0779 N   0  0  0  0  0  0  0  0  0  0  0  0
    7.4758    2.4603   22.7809 C   0  0  0  0  0  0  0  0  0  0  0  0
    6.0409    2.1109   22.3726 C   0  0  0  0  0  0  0  0  0  0  0  0
    5.9932    1.5772   20.9505 C   0  0  0  0  0  0  0  0  0  0  0  0
    7.0650    0.8287   20.4771 C   0  0  0  0  0  0  0  0  0  0  0  0
    7.0168    0.3429   19.1750 C   0  0  0  0  0  0  0  0  0  0  0  0
    8.0435   -0.3865   18.6885 O   0  0  0  0  0  0  0  0  0  0  0  0
    5.9165    0.6026   18.3640 C   0  0  0  0  0  0  0  0  0  0  0  0
    5.8795    0.1268   17.1012 O   0  0  0  0  0  0  0  0  0  0  0  0
    4.8477    1.3525   18.8439 C   0  0  0  0  0  0  0  0  0  0  0  0
    4.8904    1.8410   20.1447 C   0  0  0  0  0  0  0  0  0  0  0  0
   10.8533    7.7594   27.0876 H   0  0  0  0  0  0  0  0  0  0  0  0
   10.8819    6.3413   26.2784 H   0  0  0  0  0  0  0  0  0  0  0  0
   10.1954    7.6568   25.5966 H   0  0  0  0  0  0  0  0  0  0  0  0
    8.4877    7.6249   27.2544 H   0  0  0  0  0  0  0  0  0  0  0  0
    9.1742    6.3094   27.9362 H   0  0  0  0  0  0  0  0  0  0  0  0
    7.2976    5.6968   26.5961 H   0  0  0  0  0  0  0  0  0  0  0  0
    8.6696    5.0228   26.0216 H   0  0  0  0  0  0  0  0  0  0  0  0
    5.9954    5.5094   23.7484 H   0  0  0  0  0  0  0  0  0  0  0  0
    7.0995    4.4627   24.3418 H   0  0  0  0  0  0  0  0  0  0  0  0
    8.6183    3.5620   21.3595 H   0  0  0  0  0  0  0  0  0  0  0  0
    7.5068    2.6253   23.7667 H   0  0  0  0  0  0  0  0  0  0  0  0
    8.0787    1.6960   22.5517 H   0  0  0  0  0  0  0  0  0  0  0  0
    5.4747    2.9330   22.4324 H   0  0  0  0  0  0  0  0  0  0  0  0
    5.6842    1.4145   22.9953 H   0  0  0  0  0  0  0  0  0  0  0  0
    7.8550    0.6434   21.0615 H   0  0  0  0  0  0  0  0  0  0  0  0
    8.1920   -0.4446   17.7013 H   0  0  0  0  0  0  0  0  0  0  0  0
    6.5761    0.4071   16.4407 H   0  0  0  0  0  0  0  0  0  0  0  0
    4.0575    1.5380   18.2598 H   0  0  0  0  0  0  0  0  0  0  0  0
    4.1285    2.3819   20.5011 H   0  0  0  0  0  0  0  0  0  0  0  0
  1  2  1  0  0  0  0
  2  3  1  0  0  0  0
  3  4  1  0  0  0  0
  4  5  1  0  0  0  0
  5  6  1  0  0  0  0
  6  7  2  0  0  0  0
  6  8  1  0  0  0  0
  8  9  1  0  0  0  0
  9 10  1  0  0  0  0
 10 11  1  0  0  0  0
 11 12  2  0  0  0  0
 12 13  1  0  0  0  0
 13 14  1  0  0  0  0
 13 15  2  0  0  0  0
 15 16  1  0  0  0  0
 15 17  1  0  0  0  0
 17 18  2  0  0  0  0
 18 11  1  0  0  0  0
  1 19  1  0  0  0  0
  1 20  1  0  0  0  0
  1 21  1  0  0  0  0
  2 22  1  0  0  0  0
  2 23  1  0  0  0  0
  3 24  1  0  0  0  0
  3 25  1  0  0  0  0
  5 26  1  0  0  0  0
  5 27  1  0  0  0  0
  8 28  1  0  0  0  0
  9 29  1  0  0  0  0
  9 30  1  0  0  0  0
 10 31  1  0  0  0  0
 10 32  1  0  0  0  0
 12 33  1  0  0  0  0
 14 34  1  0  0  0  0
 16 35  1  0  0  0  0
 17 36  1  0  0  0  0
 18 37  1  0  0  0  0
M  END
> <BIOSOLVEIT.HYDE_ESTIMATED_AFFINITY_LOWER_BOUNDARY [nM]>
2014979.621918

> <BIOSOLVEIT.HYDE_ESTIMATED_AFFINITY_UPPER_BOUNDARY [nM]>
200200138.939890

> <BIOSOLVEIT.HYDE_LIGAND_EFFICIENCY range: ++, +, 0, -, -->
--

> <BIOSOLVEIT.HYDE_LIGAND_LIPOPHILIC_EFFICIENCY range: ++, +, 0, -, -->
--

> <BIOSOLVEIT.INTER_CLASH range: red, yellow, green>
green

> <BIOSOLVEIT.INTRA_CLASH range: red, yellow, green>
green

> <BIOSOLVEIT.LOGP>
1.8997

> <BIOSOLVEIT.MOLECULAR WEIGHT>
269.362

> <BIOSOLVEIT.MOLECULE_CHECKSUM>
LTkuNjg3MjU7MC41MzgxOA==

> <BIOSOLVEIT.TORSION_QUALITY range: red, yellow, green, not rotatable>
red

> <BIOSOLVEIT.TPSA>
69.56

$$$$
mol_47_1_04
anSeeSAR  04022021533D 1   1.00000     0.00000     0
SeeSAR 9.2 andre
 44 44  0  0  0  0            999 V2000
    9.4100    6.4921   26.3019 C   0  0  0  0  0  0  0  0  0  0  0  0
    8.0830    6.4445   27.0546 C   0  0  0  0  0  0  0  0  0  0  0  0
    7.5567    5.0029   27.1591 C   0  0  0  0  0  0  0  0  0  0  0  0
    7.4126    4.2326   25.8528 C   0  0  0  0  0  0  0  0  0  0  0  0
    6.4746    4.8361   24.8384 C   0  0  0  0  0  0  0  0  0  0  0  0
    8.0730    3.0732   25.6115 C   0  0  0  0  0  0  0  0  0  0  0  0
    7.9957    2.2587   24.3781 C   0  0  0  0  0  0  0  0  0  0  0  0
    8.8656    2.3434   23.4692 O   0  0  0  0  0  0  0  0  0  0  0  0
    6.9246    1.3688   24.2417 O   0  0  0  0  0  0  0  0  0  0  0  0
    6.7451    0.5153   23.1113 C   0  0  0  0  0  0  0  0  0  0  0  0
    5.5463    0.9697   22.2611 C   0  0  1  0  0  0  0  0  0  0  0  0
    5.2336    2.3737   22.5471 N   0  0  0  0  0  0  0  0  0  0  0  0
    3.9880    2.7976   23.1196 C   0  0  0  0  0  0  0  0  0  0  0  0
    3.2675    1.9045   24.0761 C   0  0  0  0  0  0  0  0  0  0  0  0
    3.5122    3.9345   22.8535 O   0  0  0  0  0  0  0  0  0  0  0  0
    5.8191    0.7918   20.7768 C   0  0  0  0  0  0  0  0  0  0  0  0
    6.9486    0.0910   20.3681 C   0  0  0  0  0  0  0  0  0  0  0  0
    7.1927   -0.0678   19.0081 C   0  0  0  0  0  0  0  0  0  0  0  0
    6.3185    0.4670   18.0686 C   0  0  0  0  0  0  0  0  0  0  0  0
    5.1912    1.1671   18.4867 C   0  0  0  0  0  0  0  0  0  0  0  0
    4.9386    1.3311   19.8446 C   0  0  0  0  0  0  0  0  0  0  0  0
    9.7291    7.4383   26.2484 H   0  0  0  0  0  0  0  0  0  0  0  0
   10.0878    5.9386   26.7860 H   0  0  0  0  0  0  0  0  0  0  0  0
    9.2826    6.1305   25.3783 H   0  0  0  0  0  0  0  0  0  0  0  0
    7.4112    7.0029   26.5677 H   0  0  0  0  0  0  0  0  0  0  0  0
    8.2164    6.8110   27.9754 H   0  0  0  0  0  0  0  0  0  0  0  0
    6.6553    5.0396   27.5906 H   0  0  0  0  0  0  0  0  0  0  0  0
    8.1860    4.4920   27.7447 H   0  0  0  0  0  0  0  0  0  0  0  0
    6.4503    4.2590   24.0220 H   0  0  0  0  0  0  0  0  0  0  0  0
    5.5564    4.8992   25.2294 H   0  0  0  0  0  0  0  0  0  0  0  0
    6.7949    5.7505   24.5908 H   0  0  0  0  0  0  0  0  0  0  0  0
    8.6709    2.7352   26.3383 H   0  0  0  0  0  0  0  0  0  0  0  0
    6.5847   -0.4191   23.4294 H   0  0  0  0  0  0  0  0  0  0  0  0
    7.5720    0.5388   22.5494 H   0  0  0  0  0  0  0  0  0  0  0  0
    4.7536    0.4118   22.5069 H   0  0  0  0  0  0  0  0  0  0  0  0
    5.9206    3.0681   22.3331 H   0  0  0  0  0  0  0  0  0  0  0  0
    2.4241    2.3495   24.3770 H   0  0  0  0  0  0  0  0  0  0  0  0
    3.0455    1.0410   23.6231 H   0  0  0  0  0  0  0  0  0  0  0  0
    3.8507    1.7250   24.8684 H   0  0  0  0  0  0  0  0  0  0  0  0
    7.5775   -0.2940   21.0437 H   0  0  0  0  0  0  0  0  0  0  0  0
    8.0022   -0.5700   18.7040 H   0  0  0  0  0  0  0  0  0  0  0  0
    6.5000    0.3486   17.0924 H   0  0  0  0  0  0  0  0  0  0  0  0
    4.5626    1.5522   17.8110 H   0  0  0  0  0  0  0  0  0  0  0  0
    4.1292    1.8335   20.1487 H   0  0  0  0  0  0  0  0  0  0  0  0
  1  2  1  0  0  0  0
  2  3  1  0  0  0  0
  3  4  1  0  0  0  0
  4  5  1  0  0  0  0
  4  6  2  0  0  0  0
  6  7  1  0  0  0  0
  7  8  2  0  0  0  0
  7  9  1  0  0  0  0
  9 10  1  0  0  0  0
 10 11  1  0  0  0  0
 11 12  1  0  0  0  0
 12 13  1  0  0  0  0
 13 14  1  0  0  0  0
 13 15  2  0  0  0  0
 11 16  1  0  0  0  0
 16 17  2  0  0  0  0
 17 18  1  0  0  0  0
 18 19  2  0  0  0  0
 19 20  1  0  0  0  0
 20 21  2  0  0  0  0
 21 16  1  0  0  0  0
  1 22  1  0  0  0  0
  1 23  1  0  0  0  0
  1 24  1  0  0  0  0
  2 25  1  0  0  0  0
  2 26  1  0  0  0  0
  3 27  1  0  0  0  0
  3 28  1  0  0  0  0
  5 29  1  0  0  0  0
  5 30  1  0  0  0  0
  5 31  1  0  0  0  0
  6 32  1  0  0  0  0
 10 33  1  0  0  0  0
 10 34  1  0  0  0  0
 11 35  1  0  0  0  0
 12 36  1  0  0  0  0
 14 37  1  0  0  0  0
 14 38  1  0  0  0  0
 14 39  1  0  0  0  0
 17 40  1  0  0  0  0
 18 41  1  0  0  0  0
 19 42  1  0  0  0  0
 20 43  1  0  0  0  0
 21 44  1  0  0  0  0
M  END
> <BIOSOLVEIT.HYDE_ESTIMATED_AFFINITY_LOWER_BOUNDARY [nM]>
2089443.006523

> <BIOSOLVEIT.HYDE_ESTIMATED_AFFINITY_UPPER_BOUNDARY [nM]>
207598516.462855

> <BIOSOLVEIT.HYDE_LIGAND_EFFICIENCY range: ++, +, 0, -, -->
--

> <BIOSOLVEIT.HYDE_LIGAND_LIPOPHILIC_EFFICIENCY range: ++, +, 0, -, -->
--

> <BIOSOLVEIT.INTER_CLASH range: red, yellow, green>
green

> <BIOSOLVEIT.INTRA_CLASH range: red, yellow, green>
green

> <BIOSOLVEIT.LOGP>
3.1534

> <BIOSOLVEIT.MOLECULAR WEIGHT>
289.373

> <BIOSOLVEIT.MOLECULE_CHECKSUM>
LTkuNTk3Mjk7MC40NTcwMTQ=

> <BIOSOLVEIT.TORSION_QUALITY range: red, yellow, green, not rotatable>
yellow

> <BIOSOLVEIT.TPSA>
55.4

$$$$
mol_31_1_04
anSeeSAR  04022021533D 1   1.00000     0.00000     0
SeeSAR 9.2 andre
 56 57  0  0  0  0            999 V2000
    7.4030    5.9388   21.9206 C   0  0  0  0  0  0  0  0  0  0  0  0
    7.1014    4.5174   22.2670 C   0  0  0  0  0  0  0  0  0  0  0  0
    5.9498    4.2048   22.6748 O   0  0  0  0  0  0  0  0  0  0  0  0
    8.1198    3.5184   22.1371 N   0  0  0  0  0  0  0  0  0  0  0  0
    7.8574    2.1172   22.4641 C   0  0  0  0  0  0  0  0  0  0  0  0
    9.1152    1.2636   22.2687 C   0  0  0  0  0  0  0  0  0  0  0  0
    8.7609   -0.1552   22.0966 N   0  0  0  0  0  0  0  0  0  0  0  0
    8.6693   -0.7213   20.7422 C   0  0  0  0  0  0  0  0  0  0  0  0
    7.4432   -0.2043   20.0487 C   0  0  0  0  0  0  0  0  0  0  0  0
    6.2901   -0.0468   20.7552 C   0  0  0  0  0  0  0  0  0  0  0  0
    5.1550    0.5499   19.6342 S   0  0  0  0  0  0  0  0  0  0  0  0
    6.1748    0.5864   18.2668 C   0  0  0  0  0  0  0  0  0  0  0  0
    7.3955    0.1381   18.6742 C   0  0  0  0  0  0  0  0  0  0  0  0
    8.4459   -0.9925   23.2333 C   0  0  0  0  0  0  0  0  0  0  0  0
    8.0988   -2.1905   23.0465 O   0  0  0  0  0  0  0  0  0  0  0  0
    8.5261   -0.4852   24.5752 N   0  0  0  0  0  0  0  0  0  0  0  0
    8.2145   -1.3244   25.7370 C   0  0  1  0  0  0  0  0  0  0  0  0
    8.6473   -0.6329   27.0201 C   0  0  0  0  0  0  0  0  0  0  0  0
    7.3978    0.1148   27.4346 C   0  0  0  0  0  0  0  0  0  0  0  0
    6.3287   -0.9278   27.1806 C   0  0  1  0  0  0  0  0  0  0  0  0
    4.9644   -0.2628   27.1508 C   0  0  0  0  0  0  0  0  0  0  0  0
    4.5535    0.3936   28.4917 C   0  0  0  0  0  0  0  0  0  0  0  0
    3.1904    1.0946   28.4099 C   0  0  0  0  0  0  0  0  0  0  0  0
    4.5233   -0.6649   29.6032 C   0  0  0  0  0  0  0  0  0  0  0  0
    6.7011   -1.4488   25.8094 C   0  0  0  0  0  0  0  0  0  0  0  0
    8.3529    6.0136   21.6170 H   0  0  0  0  0  0  0  0  0  0  0  0
    6.7939    6.2395   21.1867 H   0  0  0  0  0  0  0  0  0  0  0  0
    7.2642    6.5149   22.7261 H   0  0  0  0  0  0  0  0  0  0  0  0
    9.0288    3.7845   21.8163 H   0  0  0  0  0  0  0  0  0  0  0  0
    7.1322    1.7724   21.8680 H   0  0  0  0  0  0  0  0  0  0  0  0
    7.5635    2.0533   23.4178 H   0  0  0  0  0  0  0  0  0  0  0  0
    9.7047    1.3596   23.0707 H   0  0  0  0  0  0  0  0  0  0  0  0
    9.6040    1.5806   21.4559 H   0  0  0  0  0  0  0  0  0  0  0  0
    8.6191   -1.7182   20.8032 H   0  0  0  0  0  0  0  0  0  0  0  0
    9.4803   -0.4597   20.2189 H   0  0  0  0  0  0  0  0  0  0  0  0
    6.1414   -0.2402   21.7250 H   0  0  0  0  0  0  0  0  0  0  0  0
    5.9249    0.8802   17.3441 H   0  0  0  0  0  0  0  0  0  0  0  0
    8.1822    0.0583   18.0621 H   0  0  0  0  0  0  0  0  0  0  0  0
    8.8015    0.4650   24.7208 H   0  0  0  0  0  0  0  0  0  0  0  0
    8.6435   -2.2239   25.6536 H   0  0  0  0  0  0  0  0  0  0  0  0
    9.4053   -0.0027   26.8519 H   0  0  0  0  0  0  0  0  0  0  0  0
    8.9160   -1.2992   27.7157 H   0  0  0  0  0  0  0  0  0  0  0  0
    7.2554    0.9294   26.8724 H   0  0  0  0  0  0  0  0  0  0  0  0
    7.4313    0.3771   28.3990 H   0  0  0  0  0  0  0  0  0  0  0  0
    6.3621   -1.6554   27.8659 H   0  0  0  0  0  0  0  0  0  0  0  0
    4.2820   -0.9556   26.9179 H   0  0  0  0  0  0  0  0  0  0  0  0
    4.9752    0.4452   26.4446 H   0  0  0  0  0  0  0  0  0  0  0  0
    5.2432    1.0775   28.7296 H   0  0  0  0  0  0  0  0  0  0  0  0
    2.9707    1.5009   29.2969 H   0  0  0  0  0  0  0  0  0  0  0  0
    3.2256    1.8120   27.7142 H   0  0  0  0  0  0  0  0  0  0  0  0
    2.4866    0.4275   28.1655 H   0  0  0  0  0  0  0  0  0  0  0  0
    4.2574   -0.2349   30.4660 H   0  0  0  0  0  0  0  0  0  0  0  0
    3.8616   -1.3768   29.3677 H   0  0  0  0  0  0  0  0  0  0  0  0
    5.4313   -1.0726   29.6999 H   0  0  0  0  0  0  0  0  0  0  0  0
    6.2689   -0.8983   25.0952 H   0  0  0  0  0  0  0  0  0  0  0  0
    6.4221   -2.4038   25.7088 H   0  0  0  0  0  0  0  0  0  0  0  0
  1  2  1  0  0  0  0
  2  3  2  0  0  0  0
  2  4  1  0  0  0  0
  4  5  1  0  0  0  0
  5  6  1  0  0  0  0
  6  7  1  0  0  0  0
  7  8  1  0  0  0  0
  8  9  1  0  0  0  0
  9 10  2  0  0  0  0
 10 11  1  0  0  0  0
 11 12  1  0  0  0  0
 12 13  2  0  0  0  0
  7 14  1  0  0  0  0
 14 15  2  0  0  0  0
 14 16  1  0  0  0  0
 16 17  1  0  0  0  0
 17 18  1  0  0  0  0
 18 19  1  0  0  0  0
 19 20  1  0  0  0  0
 20 21  1  0  0  0  0
 21 22  1  0  0  0  0
 22 23  1  0  0  0  0
 22 24  1  0  0  0  0
 20 25  1  0  0  0  0
 13  9  1  0  0  0  0
 25 17  1  0  0  0  0
  1 26  1  0  0  0  0
  1 27  1  0  0  0  0
  1 28  1  0  0  0  0
  4 29  1  0  0  0  0
  5 30  1  0  0  0  0
  5 31  1  0  0  0  0
  6 32  1  0  0  0  0
  6 33  1  0  0  0  0
  8 34  1  0  0  0  0
  8 35  1  0  0  0  0
 10 36  1  0  0  0  0
 12 37  1  0  0  0  0
 13 38  1  0  0  0  0
 16 39  1  0  0  0  0
 17 40  1  0  0  0  0
 18 41  1  0  0  0  0
 18 42  1  0  0  0  0
 19 43  1  0  0  0  0
 19 44  1  0  0  0  0
 20 45  1  0  0  0  0
 21 46  1  0  0  0  0
 21 47  1  0  0  0  0
 22 48  1  0  0  0  0
 23 49  1  0  0  0  0
 23 50  1  0  0  0  0
 23 51  1  0  0  0  0
 24 52  1  0  0  0  0
 24 53  1  0  0  0  0
 24 54  1  0  0  0  0
 25 55  1  0  0  0  0
 25 56  1  0  0  0  0
M  END
> <BIOSOLVEIT.HYDE_ESTIMATED_AFFINITY_LOWER_BOUNDARY [nM]>
2310365.484436

> <BIOSOLVEIT.HYDE_ESTIMATED_AFFINITY_UPPER_BOUNDARY [nM]>
229548470.840524

> <BIOSOLVEIT.HYDE_LIGAND_EFFICIENCY range: ++, +, 0, -, -->
--

> <BIOSOLVEIT.HYDE_LIGAND_LIPOPHILIC_EFFICIENCY range: ++, +, 0, -, -->
--

> <BIOSOLVEIT.INTER_CLASH range: red, yellow, green>
green

> <BIOSOLVEIT.INTRA_CLASH range: red, yellow, green>
green

> <BIOSOLVEIT.LOGP>
3.6106

> <BIOSOLVEIT.MOLECULAR WEIGHT>
365.538

> <BIOSOLVEIT.MOLECULE_CHECKSUM>
LTkuMzQ4MTM7MC4zNzM5MjU=

> <BIOSOLVEIT.TORSION_QUALITY range: red, yellow, green, not rotatable>
green

> <BIOSOLVEIT.TPSA>
61.44

$$$$
mol_2_1_01
anSeeSAR  04022021533D 1   1.00000     0.00000     0
SeeSAR 9.2 andre
 57 58  0  0  0  0            999 V2000
    5.4977    0.7864   24.7898 C   0  0  0  0  0  0  0  0  0  0  0  0
    5.4887    1.8888   23.7815 C   0  0  0  0  0  0  0  0  0  0  0  0
    4.9406    2.9883   24.0655 O   0  0  0  0  0  0  0  0  0  0  0  0
    6.1085    1.6917   22.5026 N   0  0  0  0  0  0  0  0  0  0  0  0
    6.1799    0.3751   21.8562 C   0  0  2  0  0  0  0  0  0  0  0  0
    7.5467   -0.2858   22.1503 C   0  0  0  0  0  0  0  0  0  0  0  0
    8.7325    0.6149   21.8831 C   0  0  0  0  0  0  0  0  0  0  0  0
    8.7452    1.3372   20.8480 O   0  0  0  0  0  0  0  0  0  0  0  0
    9.8603    0.6444   22.7860 N   0  0  0  0  0  0  0  0  0  0  0  0
    9.6561    0.3995   24.2212 C   0  0  0  0  0  0  0  0  0  0  0  0
   10.5709    1.2654   25.0765 C   0  0  0  0  0  0  0  0  0  0  0  0
   10.5749    2.7306   24.6464 C   0  0  0  0  0  0  0  0  0  0  0  0
   11.6365    3.0774   23.6036 C   0  0  2  0  0  0  0  0  0  0  0  0
   11.5556    4.5766   23.3724 C   0  0  0  0  0  0  0  0  0  0  0  0
   10.0950    5.0711   23.2487 C   0  0  0  0  0  0  0  0  0  0  0  0
   12.2336    5.3487   24.5317 C   0  0  0  0  0  0  0  0  0  0  0  0
   12.3127    4.9617   22.0751 C   0  0  0  0  0  0  0  0  0  0  0  0
   11.4736    2.4251   22.2337 C   0  0  0  0  0  0  0  0  0  0  0  0
   11.2153    0.9241   22.2789 C   0  0  0  0  0  0  0  0  0  0  0  0
    5.9365    0.5118   20.3624 C   0  0  0  0  0  0  0  0  0  0  0  0
    6.5657   -0.3636   19.4840 C   0  0  0  0  0  0  0  0  0  0  0  0
    6.3390   -0.2327   18.1180 C   0  0  0  0  0  0  0  0  0  0  0  0
    5.4938    0.7606   17.6364 C   0  0  0  0  0  0  0  0  0  0  0  0
    4.8688    1.6322   18.5227 C   0  0  0  0  0  0  0  0  0  0  0  0
    5.0893    1.5092   19.8905 C   0  0  0  0  0  0  0  0  0  0  0  0
    5.9678   -0.0098   24.4091 H   0  0  0  0  0  0  0  0  0  0  0  0
    5.9743    1.0924   25.6140 H   0  0  0  0  0  0  0  0  0  0  0  0
    4.5569    0.5388   25.0214 H   0  0  0  0  0  0  0  0  0  0  0  0
    6.5066    2.4803   22.0339 H   0  0  0  0  0  0  0  0  0  0  0  0
    5.4610   -0.2039   22.2407 H   0  0  0  0  0  0  0  0  0  0  0  0
    7.6333   -1.0994   21.5754 H   0  0  0  0  0  0  0  0  0  0  0  0
    7.5659   -0.5545   23.1133 H   0  0  0  0  0  0  0  0  0  0  0  0
    9.8457   -0.5629   24.4159 H   0  0  0  0  0  0  0  0  0  0  0  0
    8.7053    0.6054   24.4529 H   0  0  0  0  0  0  0  0  0  0  0  0
   11.5031    0.9099   25.0073 H   0  0  0  0  0  0  0  0  0  0  0  0
   10.2637    1.2125   26.0267 H   0  0  0  0  0  0  0  0  0  0  0  0
   10.7359    3.2943   25.4565 H   0  0  0  0  0  0  0  0  0  0  0  0
    9.6770    2.9468   24.2629 H   0  0  0  0  0  0  0  0  0  0  0  0
   12.5397    2.8509   23.9684 H   0  0  0  0  0  0  0  0  0  0  0  0
   10.0894    6.0596   23.0978 H   0  0  0  0  0  0  0  0  0  0  0  0
    9.6524    4.6137   22.4774 H   0  0  0  0  0  0  0  0  0  0  0  0
    9.5990    4.8596   24.0909 H   0  0  0  0  0  0  0  0  0  0  0  0
   12.1692    6.3317   24.3601 H   0  0  0  0  0  0  0  0  0  0  0  0
   11.7734    5.1296   25.3921 H   0  0  0  0  0  0  0  0  0  0  0  0
   13.1958    5.0830   24.5913 H   0  0  0  0  0  0  0  0  0  0  0  0
   12.2519    5.9499   21.9345 H   0  0  0  0  0  0  0  0  0  0  0  0
   13.2730    4.6952   22.1581 H   0  0  0  0  0  0  0  0  0  0  0  0
   11.9015    4.4882   21.2962 H   0  0  0  0  0  0  0  0  0  0  0  0
   12.3110    2.5828   21.7104 H   0  0  0  0  0  0  0  0  0  0  0  0
   10.7030    2.8613   21.7691 H   0  0  0  0  0  0  0  0  0  0  0  0
   11.8869    0.4934   22.8816 H   0  0  0  0  0  0  0  0  0  0  0  0
   11.3050    0.5476   21.3568 H   0  0  0  0  0  0  0  0  0  0  0  0
    7.1736   -1.0783   19.8301 H   0  0  0  0  0  0  0  0  0  0  0  0
    6.7869   -0.8572   17.4780 H   0  0  0  0  0  0  0  0  0  0  0  0
    5.3351    0.8486   16.6530 H   0  0  0  0  0  0  0  0  0  0  0  0
    4.2612    2.3469   18.1763 H   0  0  0  0  0  0  0  0  0  0  0  0
    4.6417    2.1338   20.5305 H   0  0  0  0  0  0  0  0  0  0  0  0
  1  2  1  0  0  0  0
  2  3  2  0  0  0  0
  2  4  1  0  0  0  0
  4  5  1  0  0  0  0
  5  6  1  0  0  0  0
  6  7  1  0  0  0  0
  7  8  2  0  0  0  0
  7  9  1  0  0  0  0
  9 10  1  0  0  0  0
 10 11  1  0  0  0  0
 11 12  1  0  0  0  0
 12 13  1  0  0  0  0
 13 14  1  0  0  0  0
 14 15  1  0  0  0  0
 14 16  1  0  0  0  0
 14 17  1  0  0  0  0
 13 18  1  0  0  0  0
 18 19  1  0  0  0  0
  5 20  1  0  0  0  0
 20 21  2  0  0  0  0
 21 22  1  0  0  0  0
 22 23  2  0  0  0  0
 23 24  1  0  0  0  0
 24 25  2  0  0  0  0
 19  9  1  0  0  0  0
 25 20  1  0  0  0  0
  1 26  1  0  0  0  0
  1 27  1  0  0  0  0
  1 28  1  0  0  0  0
  4 29  1  0  0  0  0
  5 30  1  0  0  0  0
  6 31  1  0  0  0  0
  6 32  1  0  0  0  0
 10 33  1  0  0  0  0
 10 34  1  0  0  0  0
 11 35  1  0  0  0  0
 11 36  1  0  0  0  0
 12 37  1  0  0  0  0
 12 38  1  0  0  0  0
 13 39  1  0  0  0  0
 15 40  1  0  0  0  0
 15 41  1  0  0  0  0
 15 42  1  0  0  0  0
 16 43  1  0  0  0  0
 16 44  1  0  0  0  0
 16 45  1  0  0  0  0
 17 46  1  0  0  0  0
 17 47  1  0  0  0  0
 17 48  1  0  0  0  0
 18 49  1  0  0  0  0
 18 50  1  0  0  0  0
 19 51  1  0  0  0  0
 19 52  1  0  0  0  0
 21 53  1  0  0  0  0
 22 54  1  0  0  0  0
 23 55  1  0  0  0  0
 24 56  1  0  0  0  0
 25 57  1  0  0  0  0
M  END
> <BIOSOLVEIT.HYDE_ESTIMATED_AFFINITY_LOWER_BOUNDARY [nM]>
2317421.741958

> <BIOSOLVEIT.HYDE_ESTIMATED_AFFINITY_UPPER_BOUNDARY [nM]>
230249551.745187

> <BIOSOLVEIT.HYDE_LIGAND_EFFICIENCY range: ++, +, 0, -, -->
--

> <BIOSOLVEIT.HYDE_LIGAND_LIPOPHILIC_EFFICIENCY range: ++, +, 0, -, -->
--

> <BIOSOLVEIT.INTER_CLASH range: red, yellow, green>
yellow

> <BIOSOLVEIT.INTRA_CLASH range: red, yellow, green>
green

> <BIOSOLVEIT.LOGP>
3.9287

> <BIOSOLVEIT.MOLECULAR WEIGHT>
344.496

> <BIOSOLVEIT.MOLECULE_CHECKSUM>
LTkuMzQwNTg7MC4zNzM2MjM=

> <BIOSOLVEIT.TORSION_QUALITY range: red, yellow, green, not rotatable>
yellow

> <BIOSOLVEIT.TPSA>
49.41

$$$$
mol_37_1_04
anSeeSAR  04022021533D 1   1.00000     0.00000     0
SeeSAR 9.2 andre
 47 49  0  0  0  0            999 V2000
    8.2067    6.4786   26.7661 C   0  0  0  0  0  0  0  0  0  0  0  0
    7.0647    6.5443   25.7648 C   0  0  2  0  0  0  0  0  0  0  0  0
    6.7387    5.1246   25.3301 C   0  0  0  0  0  0  0  0  0  0  0  0
    5.5908    5.1405   24.3333 C   0  0  2  0  0  0  0  0  0  0  0  0
    5.2956    3.7727   23.8858 N   0  0  0  0  0  0  0  0  0  0  0  0
    4.0648    3.1394   24.0419 C   0  0  0  0  0  0  0  0  0  0  0  0
    3.0638    3.6254   24.5461 O   0  0  0  0  0  0  0  0  0  0  0  0
    4.2026    1.7430   23.4731 C   0  0  0  0  0  0  0  0  0  0  0  0
    5.5742    1.7080   22.9603 N   0  0  0  0  0  0  0  0  0  0  0  0
    6.1957    0.5677   22.2876 C   0  0  0  0  0  0  0  0  0  0  0  0
    6.0886    0.6430   20.7752 C   0  0  0  0  0  0  0  0  0  0  0  0
    7.0723    0.0244   19.9624 C   0  0  0  0  0  0  0  0  0  0  0  0
    8.1500   -0.6800   20.5048 O   0  0  0  0  0  0  0  0  0  0  0  0
    6.9775    0.1038   18.5677 C   0  0  0  0  0  0  0  0  0  0  0  0
    5.9103    0.7694   17.9653 C   0  0  0  0  0  0  0  0  0  0  0  0
    4.9222    1.3573   18.7529 C   0  0  0  0  0  0  0  0  0  0  0  0
    5.0034    1.2920   20.1454 C   0  0  0  0  0  0  0  0  0  0  0  0
    6.1936    2.9233   23.2422 C   0  0  0  0  0  0  0  0  0  0  0  0
    7.3474    3.2011   22.9661 O   0  0  0  0  0  0  0  0  0  0  0  0
    5.9909    6.0094   23.1511 C   0  0  0  0  0  0  0  0  0  0  0  0
    6.3273    7.4139   23.6260 C   0  0  0  0  0  0  0  0  0  0  0  0
    7.4203    7.3828   24.6091 N   0  3  1  0  0  0  0  0  0  0  0  0
    7.6998    8.7656   25.0233 C   0  0  0  0  0  0  0  0  0  0  0  0
    8.4396    7.4033   27.0673 H   0  0  0  0  0  0  0  0  0  0  0  0
    7.9271    5.9315   27.5552 H   0  0  0  0  0  0  0  0  0  0  0  0
    9.0047    6.0578   26.3346 H   0  0  0  0  0  0  0  0  0  0  0  0
    6.2625    6.9370   26.2145 H   0  0  0  0  0  0  0  0  0  0  0  0
    6.4761    4.5848   26.1299 H   0  0  0  0  0  0  0  0  0  0  0  0
    7.5443    4.7155   24.9017 H   0  0  0  0  0  0  0  0  0  0  0  0
    4.7789    5.5286   24.7695 H   0  0  0  0  0  0  0  0  0  0  0  0
    3.5431    1.5917   22.7368 H   0  0  0  0  0  0  0  0  0  0  0  0
    4.0709    1.0537   24.1855 H   0  0  0  0  0  0  0  0  0  0  0  0
    5.7458   -0.2697   22.5979 H   0  0  0  0  0  0  0  0  0  0  0  0
    7.1635    0.5386   22.5377 H   0  0  0  0  0  0  0  0  0  0  0  0
    8.9683   -0.8439   19.9539 H   0  0  0  0  0  0  0  0  0  0  0  0
    7.6816   -0.3206   17.9983 H   0  0  0  0  0  0  0  0  0  0  0  0
    5.8540    0.8249   16.9685 H   0  0  0  0  0  0  0  0  0  0  0  0
    4.1531    1.8270   18.3196 H   0  0  0  0  0  0  0  0  0  0  0  0
    4.2856    1.7093   20.7028 H   0  0  0  0  0  0  0  0  0  0  0  0
    5.2325    6.0528   22.5007 H   0  0  0  0  0  0  0  0  0  0  0  0
    6.7915    5.6108   22.7035 H   0  0  0  0  0  0  0  0  0  0  0  0
    5.5173    7.8203   24.0486 H   0  0  0  0  0  0  0  0  0  0  0  0
    6.6072    7.9674   22.8415 H   0  0  0  0  0  0  0  0  0  0  0  0
    8.2369    7.0041   24.1734 H   0  0  0  0  0  0  0  0  0  0  0  0
    8.4418    8.7692   25.6937 H   0  0  0  0  0  0  0  0  0  0  0  0
    7.9689    9.3047   24.2252 H   0  0  0  0  0  0  0  0  0  0  0  0
    6.8787    9.1633   25.4327 H   0  0  0  0  0  0  0  0  0  0  0  0
  1  2  1  0  0  0  0
  2  3  1  0  0  0  0
  3  4  1  0  0  0  0
  4  5  1  0  0  0  0
  5  6  1  0  0  0  0
  6  7  2  0  0  0  0
  6  8  1  0  0  0  0
  8  9  1  0  0  0  0
  9 10  1  0  0  0  0
 10 11  1  0  0  0  0
 11 12  2  0  0  0  0
 12 13  1  0  0  0  0
 12 14  1  0  0  0  0
 14 15  2  0  0  0  0
 15 16  1  0  0  0  0
 16 17  2  0  0  0  0
  9 18  1  0  0  0  0
 18 19  2  0  0  0  0
  4 20  1  0  0  0  0
 20 21  1  0  0  0  0
 21 22  1  0  0  0  0
 22 23  1  0  0  0  0
 22  2  1  0  0  0  0
 18  5  1  0  0  0  0
 17 11  1  0  0  0  0
  1 24  1  0  0  0  0
  1 25  1  0  0  0  0
  1 26  1  0  0  0  0
  2 27  1  0  0  0  0
  3 28  1  0  0  0  0
  3 29  1  0  0  0  0
  4 30  1  0  0  0  0
  8 31  1  0  0  0  0
  8 32  1  0  0  0  0
 10 33  1  0  0  0  0
 10 34  1  0  0  0  0
 13 35  1  0  0  0  0
 14 36  1  0  0  0  0
 15 37  1  0  0  0  0
 16 38  1  0  0  0  0
 17 39  1  0  0  0  0
 20 40  1  0  0  0  0
 20 41  1  0  0  0  0
 21 42  1  0  0  0  0
 21 43  1  0  0  0  0
 22 44  1  0  0  0  0
 23 45  1  0  0  0  0
 23 46  1  0  0  0  0
 23 47  1  0  0  0  0
M  CHG  1  22   1
M  END
> <BIOSOLVEIT.HYDE_ESTIMATED_AFFINITY_LOWER_BOUNDARY [nM]>
2637780.801395

> <BIOSOLVEIT.HYDE_ESTIMATED_AFFINITY_UPPER_BOUNDARY [nM]>
262079118.412937

> <BIOSOLVEIT.HYDE_LIGAND_EFFICIENCY range: ++, +, 0, -, -->
--

> <BIOSOLVEIT.HYDE_LIGAND_LIPOPHILIC_EFFICIENCY range: ++, +, 0, -, -->
--

> <BIOSOLVEIT.INTER_CLASH range: red, yellow, green>
green

> <BIOSOLVEIT.INTRA_CLASH range: red, yellow, green>
green

> <BIOSOLVEIT.LOGP>
0.222

> <BIOSOLVEIT.MOLECULAR WEIGHT>
318.395

> <BIOSOLVEIT.MOLECULE_CHECKSUM>
LTkuMDE5NTk7MC4zOTIxNTY=

> <BIOSOLVEIT.TORSION_QUALITY range: red, yellow, green, not rotatable>
green

> <BIOSOLVEIT.TPSA>
65.29

$$$$
mol_46_1_01
anSeeSAR  04022021533D 1   1.00000     0.00000     0
SeeSAR 9.2 andre
 53 54  0  0  0  0            999 V2000
    5.3257    9.2129   25.1680 C   0  0  0  0  0  0  0  0  0  0  0  0
    6.7074    8.8157   24.6268 C   0  0  0  0  0  0  0  0  0  0  0  0
    7.7985    9.2647   25.6077 C   0  0  0  0  0  0  0  0  0  0  0  0
    6.8179    7.2925   24.3776 C   0  0  0  0  0  0  0  0  0  0  0  0
    8.1411    6.8647   23.7553 C   0  0  2  0  0  0  0  0  0  0  0  0
    7.9878    5.7178   22.7669 C   0  0  0  0  0  0  0  0  0  0  0  0
    8.1755    4.3831   23.4710 C   0  0  2  0  0  0  0  0  0  0  0  0
    7.4215    3.3359   22.7771 N   0  0  0  0  0  0  0  0  0  0  0  0
    7.5877    1.9332   23.0490 C   0  0  0  0  0  0  0  0  0  0  0  0
    8.7078    1.5007   23.4396 O   0  0  0  0  0  0  0  0  0  0  0  0
    6.4311    0.9669   22.8105 C   0  0  1  0  0  0  0  0  0  0  0  0
    6.8041   -0.3443   23.5467 C   0  0  0  0  0  0  0  0  0  0  0  0
    5.1172    1.5416   23.4374 C   0  0  0  0  0  0  0  0  0  0  0  0
    4.9513    1.3586   24.9261 C   0  0  0  0  0  0  0  0  0  0  0  0
    5.7207    1.9774   25.7069 O   0  0  0  0  0  0  0  0  0  0  0  0
    3.9688    0.5357   25.4629 O   0  5  0  0  0  0  0  0  0  0  0  0
    6.2581    0.7998   21.2878 C   0  0  0  0  0  0  0  0  0  0  0  0
    5.1371    1.3804   20.6538 C   0  0  0  0  0  0  0  0  0  0  0  0
    4.9520    1.2658   19.2739 C   0  0  0  0  0  0  0  0  0  0  0  0
    5.8802    0.5724   18.4979 C   0  0  0  0  0  0  0  0  0  0  0  0
    5.6987    0.4628   17.1588 F   0  0  0  0  0  0  0  0  0  0  0  0
    6.9977   -0.0054   19.1009 C   0  0  0  0  0  0  0  0  0  0  0  0
    7.1911    0.1063   20.4809 C   0  0  0  0  0  0  0  0  0  0  0  0
    7.8396    4.4251   24.9559 C   0  0  0  0  0  0  0  0  0  0  0  0
    8.7768    5.4365   25.6005 C   0  0  0  0  0  0  0  0  0  0  0  0
    9.1289    6.5081   24.7249 O   0  0  0  0  0  0  0  0  0  0  0  0
    4.6186    8.9180   24.5253 H   0  0  0  0  0  0  0  0  0  0  0  0
    5.1756    8.7732   26.0535 H   0  0  0  0  0  0  0  0  0  0  0  0
    5.2835   10.2059   25.2775 H   0  0  0  0  0  0  0  0  0  0  0  0
    6.8523    9.2880   23.7574 H   0  0  0  0  0  0  0  0  0  0  0  0
    8.6955    9.0039   25.2507 H   0  0  0  0  0  0  0  0  0  0  0  0
    7.7596   10.2579   25.7178 H   0  0  0  0  0  0  0  0  0  0  0  0
    7.6517    8.8251   26.4938 H   0  0  0  0  0  0  0  0  0  0  0  0
    6.0778    7.0192   23.7632 H   0  0  0  0  0  0  0  0  0  0  0  0
    6.7148    6.8215   25.2537 H   0  0  0  0  0  0  0  0  0  0  0  0
    8.4959    7.6488   23.2461 H   0  0  0  0  0  0  0  0  0  0  0  0
    8.6749    5.8098   22.0462 H   0  0  0  0  0  0  0  0  0  0  0  0
    7.0738    5.7513   22.3624 H   0  0  0  0  0  0  0  0  0  0  0  0
    9.1440    4.1457   23.3961 H   0  0  0  0  0  0  0  0  0  0  0  0
    6.7588    3.6098   22.0801 H   0  0  0  0  0  0  0  0  0  0  0  0
    6.0742   -1.0162   23.4213 H   0  0  0  0  0  0  0  0  0  0  0  0
    7.6578   -0.7058   23.1718 H   0  0  0  0  0  0  0  0  0  0  0  0
    6.9211   -0.1573   24.5220 H   0  0  0  0  0  0  0  0  0  0  0  0
    4.3441    1.0947   22.9875 H   0  0  0  0  0  0  0  0  0  0  0  0
    5.0924    2.5229   23.2464 H   0  0  0  0  0  0  0  0  0  0  0  0
    4.4663    1.8810   21.2009 H   0  0  0  0  0  0  0  0  0  0  0  0
    4.1519    1.6818   18.8417 H   0  0  0  0  0  0  0  0  0  0  0  0
    7.6633   -0.5017   18.5435 H   0  0  0  0  0  0  0  0  0  0  0  0
    7.9975   -0.3084   20.9025 H   0  0  0  0  0  0  0  0  0  0  0  0
    7.9765    3.5224   25.3639 H   0  0  0  0  0  0  0  0  0  0  0  0
    6.8891    4.7082   25.0843 H   0  0  0  0  0  0  0  0  0  0  0  0
    9.6132    4.9640   25.8782 H   0  0  0  0  0  0  0  0  0  0  0  0
    8.3265    5.8190   26.4073 H   0  0  0  0  0  0  0  0  0  0  0  0
  1  2  1  0  0  0  0
  2  3  1  0  0  0  0
  2  4  1  0  0  0  0
  4  5  1  0  0  0  0
  5  6  1  0  0  0  0
  6  7  1  0  0  0  0
  7  8  1  0  0  0  0
  8  9  1  0  0  0  0
  9 10  2  0  0  0  0
 11  9  1  0  0  0  0
 11 12  1  0  0  0  0
 11 13  1  0  0  0  0
 13 14  1  0  0  0  0
 14 15  2  0  0  0  0
 14 16  1  0  0  0  0
 11 17  1  0  0  0  0
 17 18  2  0  0  0  0
 18 19  1  0  0  0  0
 19 20  2  0  0  0  0
 20 21  1  0  0  0  0
 20 22  1  0  0  0  0
 22 23  2  0  0  0  0
  7 24  1  0  0  0  0
 24 25  1  0  0  0  0
 25 26  1  0  0  0  0
 26  5  1  0  0  0  0
 23 17  1  0  0  0  0
  1 27  1  0  0  0  0
  1 28  1  0  0  0  0
  1 29  1  0  0  0  0
  2 30  1  0  0  0  0
  3 31  1  0  0  0  0
  3 32  1  0  0  0  0
  3 33  1  0  0  0  0
  4 34  1  0  0  0  0
  4 35  1  0  0  0  0
  5 36  1  0  0  0  0
  6 37  1  0  0  0  0
  6 38  1  0  0  0  0
  7 39  1  0  0  0  0
  8 40  1  0  0  0  0
 12 41  1  0  0  0  0
 12 42  1  0  0  0  0
 12 43  1  0  0  0  0
 13 44  1  0  0  0  0
 13 45  1  0  0  0  0
 18 46  1  0  0  0  0
 19 47  1  0  0  0  0
 22 48  1  0  0  0  0
 23 49  1  0  0  0  0
 24 50  1  0  0  0  0
 24 51  1  0  0  0  0
 25 52  1  0  0  0  0
 25 53  1  0  0  0  0
M  CHG  1  16  -1
M  END
> <BIOSOLVEIT.HYDE_ESTIMATED_AFFINITY_LOWER_BOUNDARY [nM]>
3133540.399144

> <BIOSOLVEIT.HYDE_ESTIMATED_AFFINITY_UPPER_BOUNDARY [nM]>
311335765.612030

> <BIOSOLVEIT.HYDE_LIGAND_EFFICIENCY range: ++, +, 0, -, -->
--

> <BIOSOLVEIT.HYDE_LIGAND_LIPOPHILIC_EFFICIENCY range: ++, +, 0, -, -->
--

> <BIOSOLVEIT.INTER_CLASH range: red, yellow, green>
green

> <BIOSOLVEIT.INTRA_CLASH range: red, yellow, green>
green

> <BIOSOLVEIT.LOGP>
1.9333

> <BIOSOLVEIT.MOLECULAR WEIGHT>
364.434

> <BIOSOLVEIT.MOLECULE_CHECKSUM>
LTguNTkyNjU7MC4zMzA0ODc=

> <BIOSOLVEIT.TORSION_QUALITY range: red, yellow, green, not rotatable>
yellow

> <BIOSOLVEIT.TPSA>
78.46

$$$$
mol_52_1_01
anSeeSAR  04022021533D 1   1.00000     0.00000     0
SeeSAR 9.2 andre
 48 48  0  0  0  0            999 V2000
    6.4514    7.2540   21.6033 C   0  0  0  0  0  0  0  0  0  0  0  0
    6.0503    7.4495   22.8627 C   0  0  0  0  0  0  0  0  0  0  0  0
    5.0906    6.5094   23.5502 C   0  0  0  0  0  0  0  0  0  0  0  0
    5.6404    5.8977   24.8746 C   0  0  0  0  0  0  0  0  0  0  0  0
    5.9099    7.0167   25.9063 C   0  0  0  0  0  0  0  0  0  0  0  0
    4.5588    4.9663   25.4689 C   0  0  0  0  0  0  0  0  0  0  0  0
    6.9670    5.1097   24.6455 C   0  0  0  0  0  0  0  0  0  0  0  0
    6.8279    3.9288   23.7208 C   0  0  0  0  0  0  0  0  0  0  0  0
    6.8018    4.1124   22.4737 O   0  0  0  0  0  0  0  0  0  0  0  0
    6.7009    2.6039   24.2564 N   0  0  0  0  0  0  0  0  0  0  0  0
    7.1663    1.4176   23.5308 C   0  0  1  0  0  0  0  0  0  0  0  0
    8.0858    0.5644   24.4268 C   0  0  0  0  0  0  0  0  0  0  0  0
    8.9230    1.3967   25.2098 O   0  0  0  0  0  0  0  0  0  0  0  0
   10.1016    1.7183   24.5047 C   0  0  0  0  0  0  0  0  0  0  0  0
    5.9740    0.6037   22.9828 C   0  0  0  0  0  0  0  0  0  0  0  0
    5.8792    0.6255   21.4663 C   0  0  0  0  0  0  0  0  0  0  0  0
    6.6005   -0.2976   20.7169 C   0  0  0  0  0  0  0  0  0  0  0  0
    7.3694   -1.1963   21.3258 F   0  0  0  0  0  0  0  0  0  0  0  0
    6.5257   -0.2904   19.3283 C   0  0  0  0  0  0  0  0  0  0  0  0
    5.7177    0.6539   18.7044 C   0  0  0  0  0  0  0  0  0  0  0  0
    5.6376    0.6722   17.3764 F   0  0  0  0  0  0  0  0  0  0  0  0
    4.9914    1.5811   19.4449 C   0  0  0  0  0  0  0  0  0  0  0  0
    5.0732    1.5663   20.8336 C   0  0  0  0  0  0  0  0  0  0  0  0
    7.0884    7.8956   21.1761 H   0  0  0  0  0  0  0  0  0  0  0  0
    6.1146    6.4660   21.0879 H   0  0  0  0  0  0  0  0  0  0  0  0
    6.3962    8.2422   23.3646 H   0  0  0  0  0  0  0  0  0  0  0  0
    4.8797    5.7606   22.9218 H   0  0  0  0  0  0  0  0  0  0  0  0
    4.2532    7.0138   23.7608 H   0  0  0  0  0  0  0  0  0  0  0  0
    6.2619    6.6136   26.7511 H   0  0  0  0  0  0  0  0  0  0  0  0
    6.5838    7.6561   25.5361 H   0  0  0  0  0  0  0  0  0  0  0  0
    5.0585    7.5044   26.0992 H   0  0  0  0  0  0  0  0  0  0  0  0
    4.8959    4.5648   26.3204 H   0  0  0  0  0  0  0  0  0  0  0  0
    3.7298    5.4939   25.6543 H   0  0  0  0  0  0  0  0  0  0  0  0
    4.3511    4.2377   24.8161 H   0  0  0  0  0  0  0  0  0  0  0  0
    7.2927    4.7786   25.5311 H   0  0  0  0  0  0  0  0  0  0  0  0
    7.6414    5.7365   24.2554 H   0  0  0  0  0  0  0  0  0  0  0  0
    6.2803    2.4852   25.1559 H   0  0  0  0  0  0  0  0  0  0  0  0
    7.7066    1.7305   22.7497 H   0  0  0  0  0  0  0  0  0  0  0  0
    8.6525   -0.0248   23.8509 H   0  0  0  0  0  0  0  0  0  0  0  0
    7.5245   -0.0007   25.0315 H   0  0  0  0  0  0  0  0  0  0  0  0
   10.6795    2.3052   25.0717 H   0  0  0  0  0  0  0  0  0  0  0  0
   10.5964    0.8783   24.2820 H   0  0  0  0  0  0  0  0  0  0  0  0
    9.8644    2.1992   23.6607 H   0  0  0  0  0  0  0  0  0  0  0  0
    5.1296    0.9846   23.3594 H   0  0  0  0  0  0  0  0  0  0  0  0
    6.0736   -0.3456   23.2812 H   0  0  0  0  0  0  0  0  0  0  0  0
    7.0440   -0.9529   18.7876 H   0  0  0  0  0  0  0  0  0  0  0  0
    4.4143    2.2539   18.9819 H   0  0  0  0  0  0  0  0  0  0  0  0
    4.5550    2.2288   21.3745 H   0  0  0  0  0  0  0  0  0  0  0  0
  1  2  2  0  0  0  0
  2  3  1  0  0  0  0
  3  4  1  0  0  0  0
  4  5  1  0  0  0  0
  4  6  1  0  0  0  0
  4  7  1  0  0  0  0
  7  8  1  0  0  0  0
  8  9  2  0  0  0  0
  8 10  1  0  0  0  0
 10 11  1  0  0  0  0
 11 12  1  0  0  0  0
 12 13  1  0  0  0  0
 13 14  1  0  0  0  0
 11 15  1  0  0  0  0
 15 16  1  0  0  0  0
 16 17  2  0  0  0  0
 17 18  1  0  0  0  0
 17 19  1  0  0  0  0
 19 20  2  0  0  0  0
 20 21  1  0  0  0  0
 20 22  1  0  0  0  0
 22 23  2  0  0  0  0
 23 16  1  0  0  0  0
  1 24  1  0  0  0  0
  1 25  1  0  0  0  0
  2 26  1  0  0  0  0
  3 27  1  0  0  0  0
  3 28  1  0  0  0  0
  5 29  1  0  0  0  0
  5 30  1  0  0  0  0
  5 31  1  0  0  0  0
  6 32  1  0  0  0  0
  6 33  1  0  0  0  0
  6 34  1  0  0  0  0
  7 35  1  0  0  0  0
  7 36  1  0  0  0  0
 10 37  1  0  0  0  0
 11 38  1  0  0  0  0
 12 39  1  0  0  0  0
 12 40  1  0  0  0  0
 14 41  1  0  0  0  0
 14 42  1  0  0  0  0
 14 43  1  0  0  0  0
 15 44  1  0  0  0  0
 15 45  1  0  0  0  0
 19 46  1  0  0  0  0
 22 47  1  0  0  0  0
 23 48  1  0  0  0  0
M  END
> <BIOSOLVEIT.HYDE_ESTIMATED_AFFINITY_LOWER_BOUNDARY [nM]>
3244005.184628

> <BIOSOLVEIT.HYDE_ESTIMATED_AFFINITY_UPPER_BOUNDARY [nM]>
322311095.169328

> <BIOSOLVEIT.HYDE_LIGAND_EFFICIENCY range: ++, +, 0, -, -->
--

> <BIOSOLVEIT.HYDE_LIGAND_LIPOPHILIC_EFFICIENCY range: ++, +, 0, -, -->
--

> <BIOSOLVEIT.INTER_CLASH range: red, yellow, green>
green

> <BIOSOLVEIT.INTRA_CLASH range: red, yellow, green>
green

> <BIOSOLVEIT.LOGP>
3.6309

> <BIOSOLVEIT.MOLECULAR WEIGHT>
325.397

> <BIOSOLVEIT.MOLECULE_CHECKSUM>
LTguNTA2Nzc7MC4zNjk4Ng==

> <BIOSOLVEIT.TORSION_QUALITY range: red, yellow, green, not rotatable>
red

> <BIOSOLVEIT.TPSA>
38.33

$$$$
mol_70_1_07
anSeeSAR  04022021533D 1   1.00000     0.00000     0
SeeSAR 9.2 andre
 49 50  0  0  0  0            999 V2000
    2.0974    2.7112   27.5217 C   0  0  0  0  0  0  0  0  0  0  0  0
    2.1910    1.9155   26.2291 C   0  0  1  0  0  0  0  0  0  0  0  0
    0.7605    1.4984   25.8887 C   0  0  0  0  0  0  0  0  0  0  0  0
    0.5272    0.7386   24.5875 C   0  0  0  0  0  0  0  0  0  0  0  0
    1.1306    1.3466   23.3231 C   0  0  0  0  0  0  0  0  0  0  0  0
    1.1576    2.8744   23.2476 C   0  0  0  0  0  0  0  0  0  0  0  0
    1.9664    3.6191   24.3145 C   0  0  0  0  0  0  0  0  0  0  0  0
    2.8913    2.7502   25.1659 C   0  0  2  0  0  0  0  0  0  0  0  0
    3.7610    1.9264   24.3118 N   0  0  0  0  0  0  0  0  0  0  0  0
    4.8417    1.1286   24.8263 C   0  0  0  0  0  0  0  0  0  0  0  0
    4.7657    0.6487   25.9900 O   0  0  0  0  0  0  0  0  0  0  0  0
    6.0301    0.8902   24.0398 N   0  0  0  0  0  0  0  0  0  0  0  0
    6.8617   -0.3091   24.2459 C   0  0  0  0  0  0  0  0  0  0  0  0
    8.0230   -0.0199   25.1983 C   0  0  0  0  0  0  0  0  0  0  0  0
    7.5381    0.3769   26.4505 O   0  0  0  0  0  0  0  0  0  0  0  0
    6.4420    1.8992   23.0520 C   0  0  0  0  0  0  0  0  0  0  0  0
    5.9820    1.4936   21.6712 C   0  0  0  0  0  0  0  0  0  0  0  0
    6.4344    0.2761   21.1383 C   0  0  0  0  0  0  0  0  0  0  0  0
    6.0224   -0.1358   19.8714 C   0  0  0  0  0  0  0  0  0  0  0  0
    5.1546    0.6728   19.1403 C   0  0  0  0  0  0  0  0  0  0  0  0
    4.7235    1.8512   19.6599 N   0  0  0  0  0  0  0  0  0  0  0  0
    5.1081    2.2839   20.8913 C   0  0  0  0  0  0  0  0  0  0  0  0
    4.4841    3.8312   21.4488 Cl  0  0  0  0  0  0  0  0  0  0  0  0
    3.0111    3.0124   27.7946 H   0  0  0  0  0  0  0  0  0  0  0  0
    1.5118    3.5094   27.3802 H   0  0  0  0  0  0  0  0  0  0  0  0
    1.7078    2.1352   28.2403 H   0  0  0  0  0  0  0  0  0  0  0  0
    2.7329    1.0923   26.3983 H   0  0  0  0  0  0  0  0  0  0  0  0
    0.2090    2.3317   25.8495 H   0  0  0  0  0  0  0  0  0  0  0  0
    0.4345    0.9177   26.6348 H   0  0  0  0  0  0  0  0  0  0  0  0
   -0.4608    0.6697   24.4493 H   0  0  0  0  0  0  0  0  0  0  0  0
    0.9130   -0.1774   24.6977 H   0  0  0  0  0  0  0  0  0  0  0  0
    0.6014    1.0129   22.5429 H   0  0  0  0  0  0  0  0  0  0  0  0
    2.0735    1.0218   23.2497 H   0  0  0  0  0  0  0  0  0  0  0  0
    0.2123    3.1945   23.3102 H   0  0  0  0  0  0  0  0  0  0  0  0
    1.5357    3.1239   22.3561 H   0  0  0  0  0  0  0  0  0  0  0  0
    1.3211    4.0747   24.9277 H   0  0  0  0  0  0  0  0  0  0  0  0
    2.5279    4.3052   23.8520 H   0  0  0  0  0  0  0  0  0  0  0  0
    3.4944    3.3795   25.6560 H   0  0  0  0  0  0  0  0  0  0  0  0
    3.5928    1.9209   23.3261 H   0  0  0  0  0  0  0  0  0  0  0  0
    7.2289   -0.6068   23.3647 H   0  0  0  0  0  0  0  0  0  0  0  0
    6.2951   -1.0361   24.6337 H   0  0  0  0  0  0  0  0  0  0  0  0
    8.5882    0.7115   24.8167 H   0  0  0  0  0  0  0  0  0  0  0  0
    8.5754   -0.8466   25.3054 H   0  0  0  0  0  0  0  0  0  0  0  0
    6.5878    0.0814   26.5488 H   0  0  0  0  0  0  0  0  0  0  0  0
    7.4387    1.9800   23.0579 H   0  0  0  0  0  0  0  0  0  0  0  0
    6.0347    2.7808   23.2904 H   0  0  0  0  0  0  0  0  0  0  0  0
    7.0559   -0.2990   21.6703 H   0  0  0  0  0  0  0  0  0  0  0  0
    6.3462   -1.0023   19.4917 H   0  0  0  0  0  0  0  0  0  0  0  0
    4.8491    0.3853   18.2325 H   0  0  0  0  0  0  0  0  0  0  0  0
  1  2  1  0  0  0  0
  2  3  1  0  0  0  0
  3  4  1  0  0  0  0
  4  5  1  0  0  0  0
  5  6  1  0  0  0  0
  6  7  1  0  0  0  0
  7  8  1  0  0  0  0
  8  9  1  0  0  0  0
  9 10  1  0  0  0  0
 10 11  2  0  0  0  0
 10 12  1  0  0  0  0
 12 13  1  0  0  0  0
 13 14  1  0  0  0  0
 14 15  1  0  0  0  0
 12 16  1  0  0  0  0
 16 17  1  0  0  0  0
 17 18  2  0  0  0  0
 18 19  1  0  0  0  0
 19 20  2  0  0  0  0
 20 21  1  0  0  0  0
 21 22  2  0  0  0  0
 22 23  1  0  0  0  0
  8  2  1  0  0  0  0
 22 17  1  0  0  0  0
  1 24  1  0  0  0  0
  1 25  1  0  0  0  0
  1 26  1  0  0  0  0
  2 27  1  0  0  0  0
  3 28  1  0  0  0  0
  3 29  1  0  0  0  0
  4 30  1  0  0  0  0
  4 31  1  0  0  0  0
  5 32  1  0  0  0  0
  5 33  1  0  0  0  0
  6 34  1  0  0  0  0
  6 35  1  0  0  0  0
  7 36  1  0  0  0  0
  7 37  1  0  0  0  0
  8 38  1  0  0  0  0
  9 39  1  0  0  0  0
 13 40  1  0  0  0  0
 13 41  1  0  0  0  0
 14 42  1  0  0  0  0
 14 43  1  0  0  0  0
 15 44  1  0  0  0  0
 16 45  1  0  0  0  0
 16 46  1  0  0  0  0
 18 47  1  0  0  0  0
 19 48  1  0  0  0  0
 20 49  1  0  0  0  0
M  END
> <BIOSOLVEIT.HYDE_ESTIMATED_AFFINITY_LOWER_BOUNDARY [nM]>
3258210.978466

> <BIOSOLVEIT.HYDE_ESTIMATED_AFFINITY_UPPER_BOUNDARY [nM]>
323722524.778529

> <BIOSOLVEIT.HYDE_LIGAND_EFFICIENCY range: ++, +, 0, -, -->
--

> <BIOSOLVEIT.HYDE_LIGAND_LIPOPHILIC_EFFICIENCY range: ++, +, 0, -, -->
--

> <BIOSOLVEIT.INTER_CLASH range: red, yellow, green>
green

> <BIOSOLVEIT.INTRA_CLASH range: red, yellow, green>
yellow

> <BIOSOLVEIT.LOGP>
3.2077

> <BIOSOLVEIT.MOLECULAR WEIGHT>
339.864

> <BIOSOLVEIT.MOLECULE_CHECKSUM>
LTguNDk1OTQ7MC4zNjkzODk=

> <BIOSOLVEIT.TORSION_QUALITY range: red, yellow, green, not rotatable>
green

> <BIOSOLVEIT.TPSA>
65.46

$$$$
mol_54_1_08
anSeeSAR  04022021533D 1   1.00000     0.00000     0
SeeSAR 9.2 andre
 38 38  0  0  0  0            999 V2000
   13.4279   -0.2751   23.2698 C   0  0  0  0  0  0  0  0  0  0  0  0
   11.9368   -0.5359   23.0769 C   0  0  0  0  0  0  0  0  0  0  0  0
   11.1583    0.7694   22.9209 C   0  0  0  0  0  0  0  0  0  0  0  0
    9.7872    0.4695   22.7696 O   0  0  0  0  0  0  0  0  0  0  0  0
    9.0494    1.6689   22.6567 C   0  0  0  0  0  0  0  0  0  0  0  0
    7.8109    1.5871   23.5617 C   0  0  1  0  0  0  0  0  0  0  0  0
    6.8450    0.4756   23.1064 C   0  0  0  0  0  0  0  0  0  0  0  0
    5.9477    0.9218   21.9779 C   0  0  0  0  0  0  0  0  0  0  0  0
    4.7565    1.6151   22.2519 C   0  0  0  0  0  0  0  0  0  0  0  0
    3.9264    2.0306   21.2067 C   0  0  0  0  0  0  0  0  0  0  0  0
    4.2759    1.7553   19.8822 C   0  0  0  0  0  0  0  0  0  0  0  0
    5.4564    1.0609   19.5997 C   0  0  0  0  0  0  0  0  0  0  0  0
    5.9332    0.6858   17.7888 Br  0  0  0  0  0  0  0  0  0  0  0  0
    6.2891    0.6424   20.6436 C   0  0  0  0  0  0  0  0  0  0  0  0
    8.2334    1.3187   24.9403 N   0  0  0  0  0  0  0  0  0  0  0  0
    7.8635    2.1451   26.0533 C   0  0  0  0  0  0  0  0  0  0  0  0
    7.6005    3.6003   25.8417 C   0  0  0  0  0  0  0  0  0  0  0  0
    7.7371    1.6521   27.2067 O   0  0  0  0  0  0  0  0  0  0  0  0
   13.9087   -1.1463   23.3686 H   0  0  0  0  0  0  0  0  0  0  0  0
   13.7862    0.2150   22.4751 H   0  0  0  0  0  0  0  0  0  0  0  0
   13.5661    0.2770   24.0920 H   0  0  0  0  0  0  0  0  0  0  0  0
   11.5873   -1.0301   23.8729 H   0  0  0  0  0  0  0  0  0  0  0  0
   11.8073   -1.0921   22.2560 H   0  0  0  0  0  0  0  0  0  0  0  0
   11.4854    1.2608   22.1137 H   0  0  0  0  0  0  0  0  0  0  0  0
   11.2899    1.3377   23.7331 H   0  0  0  0  0  0  0  0  0  0  0  0
    8.7622    1.7968   21.7075 H   0  0  0  0  0  0  0  0  0  0  0  0
    9.6197    2.4403   22.9392 H   0  0  0  0  0  0  0  0  0  0  0  0
    7.3314    2.4642   23.5348 H   0  0  0  0  0  0  0  0  0  0  0  0
    6.2753    0.2068   23.8830 H   0  0  0  0  0  0  0  0  0  0  0  0
    7.3815   -0.3103   22.7988 H   0  0  0  0  0  0  0  0  0  0  0  0
    4.5015    1.8119   23.1986 H   0  0  0  0  0  0  0  0  0  0  0  0
    3.0811    2.5258   21.4073 H   0  0  0  0  0  0  0  0  0  0  0  0
    3.6816    2.0550   19.1359 H   0  0  0  0  0  0  0  0  0  0  0  0
    7.1306    0.1423   20.4392 H   0  0  0  0  0  0  0  0  0  0  0  0
    8.8084    0.5191   25.1133 H   0  0  0  0  0  0  0  0  0  0  0  0
    7.3568    4.0252   26.7135 H   0  0  0  0  0  0  0  0  0  0  0  0
    8.4220    4.0377   25.4758 H   0  0  0  0  0  0  0  0  0  0  0  0
    6.8468    3.7121   25.1941 H   0  0  0  0  0  0  0  0  0  0  0  0
  1  2  1  0  0  0  0
  2  3  1  0  0  0  0
  3  4  1  0  0  0  0
  4  5  1  0  0  0  0
  5  6  1  0  0  0  0
  6  7  1  0  0  0  0
  7  8  1  0  0  0  0
  8  9  2  0  0  0  0
  9 10  1  0  0  0  0
 10 11  2  0  0  0  0
 11 12  1  0  0  0  0
 12 13  1  0  0  0  0
 12 14  2  0  0  0  0
  6 15  1  0  0  0  0
 15 16  1  0  0  0  0
 16 17  1  0  0  0  0
 16 18  2  0  0  0  0
 14  8  1  0  0  0  0
  1 19  1  0  0  0  0
  1 20  1  0  0  0  0
  1 21  1  0  0  0  0
  2 22  1  0  0  0  0
  2 23  1  0  0  0  0
  3 24  1  0  0  0  0
  3 25  1  0  0  0  0
  5 26  1  0  0  0  0
  5 27  1  0  0  0  0
  6 28  1  0  0  0  0
  7 29  1  0  0  0  0
  7 30  1  0  0  0  0
  9 31  1  0  0  0  0
 10 32  1  0  0  0  0
 11 33  1  0  0  0  0
 14 34  1  0  0  0  0
 15 35  1  0  0  0  0
 17 36  1  0  0  0  0
 17 37  1  0  0  0  0
 17 38  1  0  0  0  0
M  END
> <BIOSOLVEIT.HYDE_ESTIMATED_AFFINITY_LOWER_BOUNDARY [nM]>
3514472.458080

> <BIOSOLVEIT.HYDE_ESTIMATED_AFFINITY_UPPER_BOUNDARY [nM]>
349183617.915952

> <BIOSOLVEIT.HYDE_LIGAND_EFFICIENCY range: ++, +, 0, -, -->
--

> <BIOSOLVEIT.HYDE_LIGAND_LIPOPHILIC_EFFICIENCY range: ++, +, 0, -, -->
--

> <BIOSOLVEIT.INTER_CLASH range: red, yellow, green>
green

> <BIOSOLVEIT.INTRA_CLASH range: red, yellow, green>
green

> <BIOSOLVEIT.LOGP>
2.9229

> <BIOSOLVEIT.MOLECULAR WEIGHT>
314.221

> <BIOSOLVEIT.MOLECULE_CHECKSUM>
LTguMzA4MjU7MC40NjE1Nw==

> <BIOSOLVEIT.TORSION_QUALITY range: red, yellow, green, not rotatable>
yellow

> <BIOSOLVEIT.TPSA>
38.33

$$$$
mol_88_1_07
anSeeSAR  04022021533D 1   1.00000     0.00000     0
SeeSAR 9.2 andre
 36 36  0  0  0  0            999 V2000
    9.6230   -2.4488   23.1252 C   0  0  0  0  0  0  0  0  0  0  0  0
    8.3299   -2.1957   22.4191 C   0  0  0  0  0  0  0  0  0  0  0  0
    7.2883   -2.7778   22.8250 O   0  0  0  0  0  0  0  0  0  0  0  0
    8.2711   -1.2697   21.3222 N   0  0  0  0  0  0  0  0  0  0  0  0
    7.1513   -0.4859   21.0177 C   0  0  0  0  0  0  0  0  0  0  0  0
    6.5892   -0.5496   19.7468 C   0  0  0  0  0  0  0  0  0  0  0  0
    5.4771    0.2353   19.4596 C   0  0  0  0  0  0  0  0  0  0  0  0
    4.9263    1.0754   20.4217 C   0  0  0  0  0  0  0  0  0  0  0  0
    5.5050    1.1231   21.6856 C   0  0  0  0  0  0  0  0  0  0  0  0
    4.9597    1.9648   22.6627 N   0  0  0  0  0  0  0  0  0  0  0  0
    5.3767    3.3233   22.8768 C   0  0  0  0  0  0  0  0  0  0  0  0
    4.8410    4.0253   23.7767 O   0  0  0  0  0  0  0  0  0  0  0  0
    6.4229    3.9382   21.9983 C   0  0  0  0  0  0  0  0  0  0  0  0
    6.2825    5.7610   22.0142 S   0  0  0  0  0  0  0  0  0  0  0  0
    7.2864    6.0559   23.5198 C   0  0  0  0  0  0  0  0  0  0  0  0
    8.7572    5.7949   23.1979 C   0  0  0  0  0  0  0  0  0  0  0  0
    7.0908    7.4931   24.0061 C   0  0  0  0  0  0  0  0  0  0  0  0
    6.6172    0.3471   21.9955 C   0  0  0  0  0  0  0  0  0  0  0  0
   10.3503   -1.9191   22.6888 H   0  0  0  0  0  0  0  0  0  0  0  0
    9.5392   -2.1739   24.0830 H   0  0  0  0  0  0  0  0  0  0  0  0
    9.8446   -3.4227   23.0761 H   0  0  0  0  0  0  0  0  0  0  0  0
    9.0794   -1.1793   20.7404 H   0  0  0  0  0  0  0  0  0  0  0  0
    6.9790   -1.1511   19.0495 H   0  0  0  0  0  0  0  0  0  0  0  0
    5.0676    0.1949   18.5482 H   0  0  0  0  0  0  0  0  0  0  0  0
    4.1266    1.6365   20.2080 H   0  0  0  0  0  0  0  0  0  0  0  0
    4.2359    1.5982   23.2473 H   0  0  0  0  0  0  0  0  0  0  0  0
    6.3028    3.6071   21.0623 H   0  0  0  0  0  0  0  0  0  0  0  0
    7.3284    3.6750   22.3313 H   0  0  0  0  0  0  0  0  0  0  0  0
    6.9920    5.4250   24.2377 H   0  0  0  0  0  0  0  0  0  0  0  0
    9.3107    5.9541   24.0154 H   0  0  0  0  0  0  0  0  0  0  0  0
    8.8698    4.8476   22.8983 H   0  0  0  0  0  0  0  0  0  0  0  0
    9.0536    6.4124   22.4693 H   0  0  0  0  0  0  0  0  0  0  0  0
    7.6414    7.6451   24.8269 H   0  0  0  0  0  0  0  0  0  0  0  0
    7.3775    8.1293   23.2899 H   0  0  0  0  0  0  0  0  0  0  0  0
    6.1256    7.6444   24.2195 H   0  0  0  0  0  0  0  0  0  0  0  0
    7.0263    0.3874   22.9070 H   0  0  0  0  0  0  0  0  0  0  0  0
  1  2  1  0  0  0  0
  2  3  2  0  0  0  0
  2  4  1  0  0  0  0
  4  5  1  0  0  0  0
  5  6  2  0  0  0  0
  6  7  1  0  0  0  0
  7  8  2  0  0  0  0
  8  9  1  0  0  0  0
  9 10  1  0  0  0  0
 10 11  1  0  0  0  0
 11 12  2  0  0  0  0
 11 13  1  0  0  0  0
 13 14  1  0  0  0  0
 14 15  1  0  0  0  0
 15 16  1  0  0  0  0
 15 17  1  0  0  0  0
  9 18  2  0  0  0  0
 18  5  1  0  0  0  0
  1 19  1  0  0  0  0
  1 20  1  0  0  0  0
  1 21  1  0  0  0  0
  4 22  1  0  0  0  0
  6 23  1  0  0  0  0
  7 24  1  0  0  0  0
  8 25  1  0  0  0  0
 10 26  1  0  0  0  0
 13 27  1  0  0  0  0
 13 28  1  0  0  0  0
 15 29  1  0  0  0  0
 16 30  1  0  0  0  0
 16 31  1  0  0  0  0
 16 32  1  0  0  0  0
 17 33  1  0  0  0  0
 17 34  1  0  0  0  0
 17 35  1  0  0  0  0
 18 36  1  0  0  0  0
M  END
> <BIOSOLVEIT.HYDE_ESTIMATED_AFFINITY_LOWER_BOUNDARY [nM]>
3771067.188349

> <BIOSOLVEIT.HYDE_ESTIMATED_AFFINITY_UPPER_BOUNDARY [nM]>
374677821.476238

> <BIOSOLVEIT.HYDE_LIGAND_EFFICIENCY range: ++, +, 0, -, -->
--

> <BIOSOLVEIT.HYDE_LIGAND_LIPOPHILIC_EFFICIENCY range: ++, +, 0, -, -->
--

> <BIOSOLVEIT.INTER_CLASH range: red, yellow, green>
green

> <BIOSOLVEIT.INTRA_CLASH range: red, yellow, green>
green

> <BIOSOLVEIT.LOGP>
2.7251

> <BIOSOLVEIT.MOLECULAR WEIGHT>
266.362

> <BIOSOLVEIT.MOLECULE_CHECKSUM>
LTguMTMzNTY7MC40NTE4NjU=

> <BIOSOLVEIT.TORSION_QUALITY range: red, yellow, green, not rotatable>
yellow

> <BIOSOLVEIT.TPSA>
58.2

$$$$
mol_22_1_03
anSeeSAR  04022021533D 1   1.00000     0.00000     0
SeeSAR 9.2 andre
 41 41  0  0  0  0            999 V2000
   11.9716    0.2816   24.9012 C   0  0  0  0  0  0  0  0  0  0  0  0
   12.0066    0.2969   23.3571 C   0  0  0  0  0  0  0  0  0  0  0  0
   12.4087    1.7213   22.9082 C   0  0  0  0  0  0  0  0  0  0  0  0
   10.6676   -0.0045   22.8056 N   0  0  0  0  0  0  0  0  0  0  0  0
    9.5691    0.9194   22.6974 C   0  0  0  0  0  0  0  0  0  0  0  0
    9.7765    2.1518   22.5369 O   0  0  0  0  0  0  0  0  0  0  0  0
    8.2226    0.4258   22.7577 N   0  0  0  0  0  0  0  0  0  0  0  0
    7.1101    1.2322   23.2731 C   0  0  2  0  0  0  0  0  0  0  0  0
    5.9364    0.3049   23.6393 C   0  0  0  0  0  0  0  0  0  0  0  0
    4.8600    1.0522   24.1348 O   0  0  0  0  0  0  0  0  0  0  0  0
    6.7056    2.2867   22.2170 C   0  0  0  0  0  0  0  0  0  0  0  0
    6.3013    1.6667   20.8891 C   0  0  0  0  0  0  0  0  0  0  0  0
    5.0374    1.9230   20.3691 C   0  0  0  0  0  0  0  0  0  0  0  0
    4.6583    1.3611   19.1541 C   0  0  0  0  0  0  0  0  0  0  0  0
    5.5567    0.5455   18.4742 C   0  0  0  0  0  0  0  0  0  0  0  0
    5.1998   -0.0053   17.2946 O   0  0  0  0  0  0  0  0  0  0  0  0
    6.8227    0.2829   18.9875 C   0  0  0  0  0  0  0  0  0  0  0  0
    7.1928    0.8498   20.2025 C   0  0  0  0  0  0  0  0  0  0  0  0
   13.0542   -0.7134   22.8159 C   0  0  0  0  0  0  0  0  0  0  0  0
   12.7163   -1.1648   21.5535 F   0  0  0  0  0  0  0  0  0  0  0  0
   14.2989   -0.1115   22.7441 F   0  0  0  0  0  0  0  0  0  0  0  0
   13.1442   -1.8137   23.6521 F   0  0  0  0  0  0  0  0  0  0  0  0
   11.7135   -0.6305   25.2197 H   0  0  0  0  0  0  0  0  0  0  0  0
   12.8763    0.5154   25.2574 H   0  0  0  0  0  0  0  0  0  0  0  0
   11.3025    0.9499   25.2261 H   0  0  0  0  0  0  0  0  0  0  0  0
   12.4392    1.7599   21.9094 H   0  0  0  0  0  0  0  0  0  0  0  0
   11.7365    2.3798   23.2469 H   0  0  0  0  0  0  0  0  0  0  0  0
   13.3104    1.9453   23.2781 H   0  0  0  0  0  0  0  0  0  0  0  0
   10.5110   -0.9362   22.4777 H   0  0  0  0  0  0  0  0  0  0  0  0
    8.0356   -0.5026   22.4364 H   0  0  0  0  0  0  0  0  0  0  0  0
    7.4139    1.7063   24.0995 H   0  0  0  0  0  0  0  0  0  0  0  0
    6.2356   -0.3451   24.3379 H   0  0  0  0  0  0  0  0  0  0  0  0
    5.6435   -0.1938   22.8235 H   0  0  0  0  0  0  0  0  0  0  0  0
    4.1599    1.1386   23.4260 H   0  0  0  0  0  0  0  0  0  0  0  0
    7.4823    2.8970   22.0612 H   0  0  0  0  0  0  0  0  0  0  0  0
    5.9334    2.8139   22.5716 H   0  0  0  0  0  0  0  0  0  0  0  0
    4.4011    2.5111   20.8683 H   0  0  0  0  0  0  0  0  0  0  0  0
    3.7510    1.5414   18.7744 H   0  0  0  0  0  0  0  0  0  0  0  0
    5.9001   -0.3687   16.6803 H   0  0  0  0  0  0  0  0  0  0  0  0
    7.4587   -0.3061   18.4891 H   0  0  0  0  0  0  0  0  0  0  0  0
    8.1002    0.6699   20.5823 H   0  0  0  0  0  0  0  0  0  0  0  0
  1  2  1  0  0  0  0
  2  3  1  0  0  0  0
  2  4  1  0  0  0  0
  4  5  1  0  0  0  0
  5  6  2  0  0  0  0
  5  7  1  0  0  0  0
  7  8  1  0  0  0  0
  8  9  1  0  0  0  0
  9 10  1  0  0  0  0
  8 11  1  0  0  0  0
 11 12  1  0  0  0  0
 12 13  2  0  0  0  0
 13 14  1  0  0  0  0
 14 15  2  0  0  0  0
 15 16  1  0  0  0  0
 15 17  1  0  0  0  0
 17 18  2  0  0  0  0
  2 19  1  0  0  0  0
 19 20  1  0  0  0  0
 19 21  1  0  0  0  0
 19 22  1  0  0  0  0
 18 12  1  0  0  0  0
  1 23  1  0  0  0  0
  1 24  1  0  0  0  0
  1 25  1  0  0  0  0
  3 26  1  0  0  0  0
  3 27  1  0  0  0  0
  3 28  1  0  0  0  0
  4 29  1  0  0  0  0
  7 30  1  0  0  0  0
  8 31  1  0  0  0  0
  9 32  1  0  0  0  0
  9 33  1  0  0  0  0
 10 34  1  0  0  0  0
 11 35  1  0  0  0  0
 11 36  1  0  0  0  0
 13 37  1  0  0  0  0
 14 38  1  0  0  0  0
 16 39  1  0  0  0  0
 17 40  1  0  0  0  0
 18 41  1  0  0  0  0
M  END
> <BIOSOLVEIT.HYDE_ESTIMATED_AFFINITY_LOWER_BOUNDARY [nM]>
3843639.427296

> <BIOSOLVEIT.HYDE_ESTIMATED_AFFINITY_UPPER_BOUNDARY [nM]>
381888302.496673

> <BIOSOLVEIT.HYDE_LIGAND_EFFICIENCY range: ++, +, 0, -, -->
--

> <BIOSOLVEIT.HYDE_LIGAND_LIPOPHILIC_EFFICIENCY range: ++, +, 0, -, -->
--

> <BIOSOLVEIT.INTER_CLASH range: red, yellow, green>
green

> <BIOSOLVEIT.INTRA_CLASH range: red, yellow, green>
red

> <BIOSOLVEIT.LOGP>
1.9357

> <BIOSOLVEIT.MOLECULAR WEIGHT>
320.309

> <BIOSOLVEIT.MOLECULE_CHECKSUM>
LTguMDg2MzE7MC4zNjc1Ng==

> <BIOSOLVEIT.TORSION_QUALITY range: red, yellow, green, not rotatable>
yellow

> <BIOSOLVEIT.TPSA>
81.59

$$$$
mol_86_1_08
anSeeSAR  04022021533D 1   1.00000     0.00000     0
SeeSAR 9.2 andre
 47 48  0  0  0  0            999 V2000
    6.9957    9.1015   24.7764 C   0  0  0  0  0  0  0  0  0  0  0  0
    7.4952    7.7691   25.3112 C   0  0  2  0  0  0  0  0  0  0  0  0
    7.2729    6.6831   24.2697 C   0  0  0  0  0  0  0  0  0  0  0  0
    7.7192    5.3177   24.7661 C   0  0  2  0  0  0  0  0  0  0  0  0
    6.5723    4.4086   24.6854 N   0  0  0  0  0  0  0  0  0  0  0  0
    6.5850    3.2034   23.9002 C   0  0  0  0  0  0  0  0  0  0  0  0
    7.6212    2.9012   23.2464 O   0  0  0  0  0  0  0  0  0  0  0  0
    5.4430    2.3153   23.8678 N   0  0  0  0  0  0  0  0  0  0  0  0
    4.0617    2.8226   23.9450 C   0  0  0  0  0  0  0  0  0  0  0  0
    3.0526    1.7359   23.5714 C   0  0  0  0  0  0  0  0  0  0  0  0
    2.7968    0.9080   24.6708 O   0  0  0  0  0  0  0  0  0  0  0  0
    5.6685    0.8733   23.6868 C   0  0  0  0  0  0  0  0  0  0  0  0
    6.0148    0.5780   22.2392 C   0  0  0  0  0  0  0  0  0  0  0  0
    6.9961   -0.2486   21.7857 C   0  0  0  0  0  0  0  0  0  0  0  0
    7.0665   -0.3183   20.3748 C   0  0  0  0  0  0  0  0  0  0  0  0
    6.1319    0.4531   19.7486 C   0  0  0  0  0  0  0  0  0  0  0  0
    5.8549    0.6576   17.8206 Br  0  0  0  0  0  0  0  0  0  0  0  0
    5.1883    1.2474   20.9158 S   0  0  0  0  0  0  0  0  0  0  0  0
    8.2428    5.4061   26.1931 C   0  0  0  0  0  0  0  0  0  0  0  0
    7.2865    6.1272   27.1362 C   0  0  0  0  0  0  0  0  0  0  0  0
    6.8239    7.4044   26.5691 N   0  3  1  0  0  0  0  0  0  0  0  0
    7.0749    8.4287   27.5936 C   0  0  0  0  0  0  0  0  0  0  0  0
    7.1433    9.8129   25.4635 H   0  0  0  0  0  0  0  0  0  0  0  0
    7.4958    9.3346   23.9424 H   0  0  0  0  0  0  0  0  0  0  0  0
    6.0192    9.0335   24.5715 H   0  0  0  0  0  0  0  0  0  0  0  0
    8.4769    7.8452   25.4858 H   0  0  0  0  0  0  0  0  0  0  0  0
    7.7930    6.9133   23.4472 H   0  0  0  0  0  0  0  0  0  0  0  0
    6.2986    6.6432   24.0478 H   0  0  0  0  0  0  0  0  0  0  0  0
    8.4478    4.9769   24.1719 H   0  0  0  0  0  0  0  0  0  0  0  0
    5.7447    4.6362   25.1987 H   0  0  0  0  0  0  0  0  0  0  0  0
    3.9610    3.5922   23.3144 H   0  0  0  0  0  0  0  0  0  0  0  0
    3.8789    3.1306   24.8787 H   0  0  0  0  0  0  0  0  0  0  0  0
    3.4233    1.1852   22.8236 H   0  0  0  0  0  0  0  0  0  0  0  0
    2.1991    2.1660   23.2774 H   0  0  0  0  0  0  0  0  0  0  0  0
    2.4605    1.4607   25.4333 H   0  0  0  0  0  0  0  0  0  0  0  0
    4.8385    0.3747   23.9368 H   0  0  0  0  0  0  0  0  0  0  0  0
    6.4230    0.5802   24.2740 H   0  0  0  0  0  0  0  0  0  0  0  0
    7.6081   -0.7573   22.3912 H   0  0  0  0  0  0  0  0  0  0  0  0
    7.7351   -0.8777   19.8849 H   0  0  0  0  0  0  0  0  0  0  0  0
    9.1126    5.8993   26.1832 H   0  0  0  0  0  0  0  0  0  0  0  0
    8.3895    4.4784   26.5365 H   0  0  0  0  0  0  0  0  0  0  0  0
    7.7572    6.3075   27.9999 H   0  0  0  0  0  0  0  0  0  0  0  0
    6.4938    5.5412   27.3047 H   0  0  0  0  0  0  0  0  0  0  0  0
    5.8392    7.3468   26.4046 H   0  0  0  0  0  0  0  0  0  0  0  0
    6.7756    9.3203   27.2538 H   0  0  0  0  0  0  0  0  0  0  0  0
    6.5669    8.2009   28.4242 H   0  0  0  0  0  0  0  0  0  0  0  0
    8.0529    8.4616   27.7994 H   0  0  0  0  0  0  0  0  0  0  0  0
  1  2  1  0  0  0  0
  2  3  1  0  0  0  0
  3  4  1  0  0  0  0
  4  5  1  0  0  0  0
  5  6  1  0  0  0  0
  6  7  2  0  0  0  0
  6  8  1  0  0  0  0
  8  9  1  0  0  0  0
  9 10  1  0  0  0  0
 10 11  1  0  0  0  0
  8 12  1  0  0  0  0
 12 13  1  0  0  0  0
 13 14  2  0  0  0  0
 14 15  1  0  0  0  0
 15 16  2  0  0  0  0
 16 17  1  0  0  0  0
 16 18  1  0  0  0  0
  4 19  1  0  0  0  0
 19 20  1  0  0  0  0
 20 21  1  0  0  0  0
 21 22  1  0  0  0  0
 21  2  1  0  0  0  0
 18 13  1  0  0  0  0
  1 23  1  0  0  0  0
  1 24  1  0  0  0  0
  1 25  1  0  0  0  0
  2 26  1  0  0  0  0
  3 27  1  0  0  0  0
  3 28  1  0  0  0  0
  4 29  1  0  0  0  0
  5 30  1  0  0  0  0
  9 31  1  0  0  0  0
  9 32  1  0  0  0  0
 10 33  1  0  0  0  0
 10 34  1  0  0  0  0
 11 35  1  0  0  0  0
 12 36  1  0  0  0  0
 12 37  1  0  0  0  0
 14 38  1  0  0  0  0
 15 39  1  0  0  0  0
 19 40  1  0  0  0  0
 19 41  1  0  0  0  0
 20 42  1  0  0  0  0
 20 43  1  0  0  0  0
 21 44  1  0  0  0  0
 22 45  1  0  0  0  0
 22 46  1  0  0  0  0
 22 47  1  0  0  0  0
M  CHG  1  21   1
M  END
> <BIOSOLVEIT.HYDE_ESTIMATED_AFFINITY_LOWER_BOUNDARY [nM]>
4312688.107317

> <BIOSOLVEIT.HYDE_ESTIMATED_AFFINITY_UPPER_BOUNDARY [nM]>
428491062.092031

> <BIOSOLVEIT.HYDE_LIGAND_EFFICIENCY range: ++, +, 0, -, -->
--

> <BIOSOLVEIT.HYDE_LIGAND_LIPOPHILIC_EFFICIENCY range: ++, +, 0, -, -->
--

> <BIOSOLVEIT.INTER_CLASH range: red, yellow, green>
green

> <BIOSOLVEIT.INTRA_CLASH range: red, yellow, green>
green

> <BIOSOLVEIT.LOGP>
1.0801

> <BIOSOLVEIT.MOLECULAR WEIGHT>
391.351

> <BIOSOLVEIT.MOLECULE_CHECKSUM>
LTcuODAwODg7MC4zNTQ1ODU=

> <BIOSOLVEIT.TORSION_QUALITY range: red, yellow, green, not rotatable>
red

> <BIOSOLVEIT.TPSA>
57.01

$$$$
mol_4_1_03
anSeeSAR  04022021533D 1   1.00000     0.00000     0
SeeSAR 9.2 andre
 55 56  0  0  0  0            999 V2000
    1.9199    2.8968   25.4392 C   0  0  0  0  0  0  0  0  0  0  0  0
    2.7038    1.8152   24.7709 C   0  0  0  0  0  0  0  0  0  0  0  0
    2.3237    0.6166   24.8700 O   0  0  0  0  0  0  0  0  0  0  0  0
    3.8819    2.1452   24.0231 N   0  0  0  0  0  0  0  0  0  0  0  0
    4.6935    1.1253   23.3456 C   0  0  2  0  0  0  0  0  0  0  0  0
    6.1207    1.1330   23.8581 C   0  0  0  0  0  0  0  0  0  0  0  0
    6.4868    0.2625   24.6947 O   0  0  0  0  0  0  0  0  0  0  0  0
    7.0562    2.1496   23.4447 N   0  0  0  0  0  0  0  0  0  0  0  0
    6.6572    3.5004   23.0343 C   0  0  0  0  0  0  0  0  0  0  0  0
    7.8362    4.3851   23.4127 C   0  0  0  0  0  0  0  0  0  0  0  0
    8.2839    3.9030   24.7236 N   0  0  0  0  0  0  0  0  0  0  0  0
    8.0074    4.5547   25.9352 C   0  0  0  0  0  0  0  0  0  0  0  0
    7.8984    3.8791   26.9945 O   0  0  0  0  0  0  0  0  0  0  0  0
    7.8862    6.0534   26.0007 C   0  0  0  0  0  0  0  0  0  0  0  0
    9.1949    6.7570   25.6005 C   0  0  0  0  0  0  0  0  0  0  0  0
   10.1273    7.0919   26.7907 C   0  0  0  0  0  0  0  0  0  0  0  0
    9.6784    8.4003   27.4530 C   0  0  0  0  0  0  0  0  0  0  0  0
   11.5953    7.2058   26.3571 C   0  0  0  0  0  0  0  0  0  0  0  0
    9.0514    2.6546   24.6572 C   0  0  0  0  0  0  0  0  0  0  0  0
    8.5125    1.9619   23.4181 C   0  0  0  0  0  0  0  0  0  0  0  0
    4.6687    1.3600   21.8437 C   0  0  0  0  0  0  0  0  0  0  0  0
    5.6693    0.8106   21.0488 C   0  0  0  0  0  0  0  0  0  0  0  0
    5.6385    1.0308   19.6758 C   0  0  0  0  0  0  0  0  0  0  0  0
    4.6261    1.7877   19.0958 C   0  0  0  0  0  0  0  0  0  0  0  0
    3.6357    2.3274   19.9095 C   0  0  0  0  0  0  0  0  0  0  0  0
    2.1999    3.3982   19.1135 Br  0  0  0  0  0  0  0  0  0  0  0  0
    3.6471    2.1207   21.2849 C   0  0  0  0  0  0  0  0  0  0  0  0
    2.3537    3.7804   25.2628 H   0  0  0  0  0  0  0  0  0  0  0  0
    0.9877    2.9051   25.0774 H   0  0  0  0  0  0  0  0  0  0  0  0
    1.8936    2.7292   26.4247 H   0  0  0  0  0  0  0  0  0  0  0  0
    4.1609    3.1035   23.9606 H   0  0  0  0  0  0  0  0  0  0  0  0
    4.2946    0.2275   23.5326 H   0  0  0  0  0  0  0  0  0  0  0  0
    5.8315    3.7868   23.5202 H   0  0  0  0  0  0  0  0  0  0  0  0
    6.4929    3.5350   22.0485 H   0  0  0  0  0  0  0  0  0  0  0  0
    7.5506    5.3417   23.4711 H   0  0  0  0  0  0  0  0  0  0  0  0
    8.5698    4.2968   22.7388 H   0  0  0  0  0  0  0  0  0  0  0  0
    7.6509    6.3174   26.9361 H   0  0  0  0  0  0  0  0  0  0  0  0
    7.1595    6.3458   25.3790 H   0  0  0  0  0  0  0  0  0  0  0  0
    8.9619    7.6109   25.1351 H   0  0  0  0  0  0  0  0  0  0  0  0
    9.6922    6.1595   24.9714 H   0  0  0  0  0  0  0  0  0  0  0  0
   10.0542    6.3566   27.4645 H   0  0  0  0  0  0  0  0  0  0  0  0
   10.2843    8.6105   28.2202 H   0  0  0  0  0  0  0  0  0  0  0  0
    9.7174    9.1428   26.7843 H   0  0  0  0  0  0  0  0  0  0  0  0
    8.7409    8.3006   27.7862 H   0  0  0  0  0  0  0  0  0  0  0  0
   12.1619    7.4222   27.1522 H   0  0  0  0  0  0  0  0  0  0  0  0
   11.8943    6.3376   25.9611 H   0  0  0  0  0  0  0  0  0  0  0  0
   11.6862    7.9319   25.6756 H   0  0  0  0  0  0  0  0  0  0  0  0
    8.8958    2.0972   25.4727 H   0  0  0  0  0  0  0  0  0  0  0  0
   10.0291    2.8422   24.5633 H   0  0  0  0  0  0  0  0  0  0  0  0
    8.7369    0.9876   23.4403 H   0  0  0  0  0  0  0  0  0  0  0  0
    8.9002    2.3746   22.5939 H   0  0  0  0  0  0  0  0  0  0  0  0
    6.4003    0.2651   21.4586 H   0  0  0  0  0  0  0  0  0  0  0  0
    6.3543    0.6394   19.0976 H   0  0  0  0  0  0  0  0  0  0  0  0
    4.6105    1.9417   18.1079 H   0  0  0  0  0  0  0  0  0  0  0  0
    2.9318    2.5130   21.8631 H   0  0  0  0  0  0  0  0  0  0  0  0
  1  2  1  0  0  0  0
  2  3  2  0  0  0  0
  2  4  1  0  0  0  0
  4  5  1  0  0  0  0
  5  6  1  0  0  0  0
  6  7  2  0  0  0  0
  6  8  1  0  0  0  0
  8  9  1  0  0  0  0
  9 10  1  0  0  0  0
 10 11  1  0  0  0  0
 11 12  1  0  0  0  0
 12 13  2  0  0  0  0
 12 14  1  0  0  0  0
 14 15  1  0  0  0  0
 15 16  1  0  0  0  0
 16 17  1  0  0  0  0
 16 18  1  0  0  0  0
 11 19  1  0  0  0  0
 19 20  1  0  0  0  0
  5 21  1  0  0  0  0
 21 22  2  0  0  0  0
 22 23  1  0  0  0  0
 23 24  2  0  0  0  0
 24 25  1  0  0  0  0
 25 26  1  0  0  0  0
 25 27  2  0  0  0  0
 20  8  1  0  0  0  0
 27 21  1  0  0  0  0
  1 28  1  0  0  0  0
  1 29  1  0  0  0  0
  1 30  1  0  0  0  0
  4 31  1  0  0  0  0
  5 32  1  0  0  0  0
  9 33  1  0  0  0  0
  9 34  1  0  0  0  0
 10 35  1  0  0  0  0
 10 36  1  0  0  0  0
 14 37  1  0  0  0  0
 14 38  1  0  0  0  0
 15 39  1  0  0  0  0
 15 40  1  0  0  0  0
 16 41  1  0  0  0  0
 17 42  1  0  0  0  0
 17 43  1  0  0  0  0
 17 44  1  0  0  0  0
 18 45  1  0  0  0  0
 18 46  1  0  0  0  0
 18 47  1  0  0  0  0
 19 48  1  0  0  0  0
 19 49  1  0  0  0  0
 20 50  1  0  0  0  0
 20 51  1  0  0  0  0
 22 52  1  0  0  0  0
 23 53  1  0  0  0  0
 24 54  1  0  0  0  0
 27 55  1  0  0  0  0
M  END
> <BIOSOLVEIT.HYDE_ESTIMATED_AFFINITY_LOWER_BOUNDARY [nM]>
4989608.488911

> <BIOSOLVEIT.HYDE_ESTIMATED_AFFINITY_UPPER_BOUNDARY [nM]>
495747104.273430

> <BIOSOLVEIT.HYDE_LIGAND_EFFICIENCY range: ++, +, 0, -, -->
--

> <BIOSOLVEIT.HYDE_LIGAND_LIPOPHILIC_EFFICIENCY range: ++, +, 0, -, -->
--

> <BIOSOLVEIT.INTER_CLASH range: red, yellow, green>
green

> <BIOSOLVEIT.INTRA_CLASH range: red, yellow, green>
green

> <BIOSOLVEIT.LOGP>
2.7333

> <BIOSOLVEIT.MOLECULAR WEIGHT>
438.363

> <BIOSOLVEIT.MOLECULE_CHECKSUM>
LTcuNDM5NDY7MC4yNzU1MzU=

> <BIOSOLVEIT.TORSION_QUALITY range: red, yellow, green, not rotatable>
red

> <BIOSOLVEIT.TPSA>
69.72

$$$$
mol_5_1_03
anSeeSAR  04022021533D 1   1.00000     0.00000     0
SeeSAR 9.2 andre
 53 54  0  0  0  0            999 V2000
    4.2121    2.5140   25.1187 C   0  0  0  0  0  0  0  0  0  0  0  0
    5.4538    2.3894   24.3402 N   0  0  0  0  0  0  0  0  0  0  0  0
    6.2233    3.5833   24.0599 C   0  0  0  0  0  0  0  0  0  0  0  0
    6.9969    3.6077   23.0627 O   0  0  0  0  0  0  0  0  0  0  0  0
    6.1260    4.7473   24.9009 N   0  0  0  0  0  0  0  0  0  0  0  0
    7.2548    5.6672   25.0836 C   0  0  2  0  0  0  0  0  0  0  0  0
    8.0190    5.3086   26.3480 C   0  0  0  0  0  0  0  0  0  0  0  0
    9.1907    6.2597   26.5369 C   0  0  0  0  0  0  0  0  0  0  0  0
    8.6751    7.6862   26.6374 C   0  0  0  0  0  0  0  0  0  0  0  0
    7.9099    8.0550   25.3769 C   0  0  2  0  0  0  0  0  0  0  0  0
    7.4169    9.4362   25.4742 N   0  3  0  0  0  0  0  0  0  0  0  0
    6.5914    9.8713   24.3281 C   0  0  0  0  0  0  0  0  0  0  0  0
    6.6849    9.6631   26.7357 C   0  0  0  0  0  0  0  0  0  0  0  0
    6.7460    7.0964   25.1849 C   0  0  0  0  0  0  0  0  0  0  0  0
    6.0157    1.0747   23.9480 C   0  0  2  0  0  0  0  0  0  0  0  0
    7.4436    0.8176   24.4779 C   0  0  0  0  0  0  0  0  0  0  0  0
    7.5000    0.9990   25.8675 O   0  0  0  0  0  0  0  0  0  0  0  0
    5.9370    0.8878   22.4415 C   0  0  0  0  0  0  0  0  0  0  0  0
    6.9215    0.1467   21.7950 C   0  0  0  0  0  0  0  0  0  0  0  0
    6.8635   -0.0346   20.4171 C   0  0  0  0  0  0  0  0  0  0  0  0
    5.8144    0.5331   19.7025 C   0  0  0  0  0  0  0  0  0  0  0  0
    5.7257    0.3106   17.9385 Cl  0  0  0  0  0  0  0  0  0  0  0  0
    4.8295    1.2737   20.3469 C   0  0  0  0  0  0  0  0  0  0  0  0
    4.8885    1.4543   21.7248 C   0  0  0  0  0  0  0  0  0  0  0  0
    3.7961    1.6114   25.2294 H   0  0  0  0  0  0  0  0  0  0  0  0
    4.4198    2.8978   26.0184 H   0  0  0  0  0  0  0  0  0  0  0  0
    3.5761    3.1174   24.6376 H   0  0  0  0  0  0  0  0  0  0  0  0
    5.2651    4.9343   25.3741 H   0  0  0  0  0  0  0  0  0  0  0  0
    7.8685    5.5929   24.2976 H   0  0  0  0  0  0  0  0  0  0  0  0
    8.3618    4.3722   26.2731 H   0  0  0  0  0  0  0  0  0  0  0  0
    7.4066    5.3774   27.1355 H   0  0  0  0  0  0  0  0  0  0  0  0
    9.8108    6.1838   25.7560 H   0  0  0  0  0  0  0  0  0  0  0  0
    9.6805    6.0225   27.3758 H   0  0  0  0  0  0  0  0  0  0  0  0
    9.4484    8.3103   26.7494 H   0  0  0  0  0  0  0  0  0  0  0  0
    8.0673    7.7633   27.4278 H   0  0  0  0  0  0  0  0  0  0  0  0
    8.5237    7.9832   24.5908 H   0  0  0  0  0  0  0  0  0  0  0  0
    8.2210   10.0303   25.4946 H   0  0  0  0  0  0  0  0  0  0  0  0
    6.2966   10.8163   24.4694 H   0  0  0  0  0  0  0  0  0  0  0  0
    7.1302    9.8123   23.4878 H   0  0  0  0  0  0  0  0  0  0  0  0
    5.7888    9.2796   24.2517 H   0  0  0  0  0  0  0  0  0  0  0  0
    6.3643   10.6097   26.7694 H   0  0  0  0  0  0  0  0  0  0  0  0
    5.9011    9.0438   26.7823 H   0  0  0  0  0  0  0  0  0  0  0  0
    7.2934    9.4895   27.5100 H   0  0  0  0  0  0  0  0  0  0  0  0
    6.2576    7.3336   24.3452 H   0  0  0  0  0  0  0  0  0  0  0  0
    6.1243    7.1712   25.9646 H   0  0  0  0  0  0  0  0  0  0  0  0
    5.4271    0.3767   24.3559 H   0  0  0  0  0  0  0  0  0  0  0  0
    8.0761    1.4553   24.0382 H   0  0  0  0  0  0  0  0  0  0  0  0
    7.7105   -0.1208   24.2587 H   0  0  0  0  0  0  0  0  0  0  0  0
    8.4182    0.7773   26.1956 H   0  0  0  0  0  0  0  0  0  0  0  0
    7.6708   -0.2556   22.3211 H   0  0  0  0  0  0  0  0  0  0  0  0
    7.5674   -0.5665   19.9464 H   0  0  0  0  0  0  0  0  0  0  0  0
    4.0802    1.6757   19.8206 H   0  0  0  0  0  0  0  0  0  0  0  0
    4.1842    1.9860   22.1952 H   0  0  0  0  0  0  0  0  0  0  0  0
  1  2  1  0  0  0  0
  2  3  1  0  0  0  0
  3  4  2  0  0  0  0
  3  5  1  0  0  0  0
  5  6  1  0  0  0  0
  6  7  1  0  0  0  0
  7  8  1  0  0  0  0
  8  9  1  0  0  0  0
  9 10  1  0  0  0  0
 10 11  1  0  0  0  0
 11 12  1  0  0  0  0
 11 13  1  0  0  0  0
 10 14  1  0  0  0  0
  2 15  1  0  0  0  0
 15 16  1  0  0  0  0
 16 17  1  0  0  0  0
 15 18  1  0  0  0  0
 18 19  2  0  0  0  0
 19 20  1  0  0  0  0
 20 21  2  0  0  0  0
 21 22  1  0  0  0  0
 21 23  1  0  0  0  0
 23 24  2  0  0  0  0
 14  6  1  0  0  0  0
 24 18  1  0  0  0  0
  1 25  1  0  0  0  0
  1 26  1  0  0  0  0
  1 27  1  0  0  0  0
  5 28  1  0  0  0  0
  6 29  1  0  0  0  0
  7 30  1  0  0  0  0
  7 31  1  0  0  0  0
  8 32  1  0  0  0  0
  8 33  1  0  0  0  0
  9 34  1  0  0  0  0
  9 35  1  0  0  0  0
 10 36  1  0  0  0  0
 11 37  1  0  0  0  0
 12 38  1  0  0  0  0
 12 39  1  0  0  0  0
 12 40  1  0  0  0  0
 13 41  1  0  0  0  0
 13 42  1  0  0  0  0
 13 43  1  0  0  0  0
 14 44  1  0  0  0  0
 14 45  1  0  0  0  0
 15 46  1  0  0  0  0
 16 47  1  0  0  0  0
 16 48  1  0  0  0  0
 17 49  1  0  0  0  0
 19 50  1  0  0  0  0
 20 51  1  0  0  0  0
 23 52  1  0  0  0  0
 24 53  1  0  0  0  0
M  CHG  1  11   1
M  END
> <BIOSOLVEIT.HYDE_ESTIMATED_AFFINITY_LOWER_BOUNDARY [nM]>
6463460.996543

> <BIOSOLVEIT.HYDE_ESTIMATED_AFFINITY_UPPER_BOUNDARY [nM]>
642183065.012362

> <BIOSOLVEIT.HYDE_LIGAND_EFFICIENCY range: ++, +, 0, -, -->
--

> <BIOSOLVEIT.HYDE_LIGAND_LIPOPHILIC_EFFICIENCY range: ++, +, 0, -, -->
--

> <BIOSOLVEIT.INTER_CLASH range: red, yellow, green>
green

> <BIOSOLVEIT.INTRA_CLASH range: red, yellow, green>
green

> <BIOSOLVEIT.LOGP>
1.4705

> <BIOSOLVEIT.MOLECULAR WEIGHT>
354.899

> <BIOSOLVEIT.MOLECULE_CHECKSUM>
LTYuNzk3ODk7MC4yODMyNDU=

> <BIOSOLVEIT.TORSION_QUALITY range: red, yellow, green, not rotatable>
green

> <BIOSOLVEIT.TPSA>
57.01

$$$$
mol_40_1_10
anSeeSAR  04022021533D 1   1.00000     0.00000     0
SeeSAR 9.2 andre
 41 41  0  0  0  0            999 V2000
   10.9819    2.0356   22.5369 C   0  0  0  0  0  0  0  0  0  0  0  0
    9.8211    1.4058   23.0292 O   0  0  0  0  0  0  0  0  0  0  0  0
    8.6816    1.9819   22.4235 C   0  0  0  0  0  0  0  0  0  0  0  0
    7.3997    1.2944   22.9235 C   0  0  2  0  0  0  0  0  0  0  0  0
    7.6564   -0.1077   23.2743 N   0  0  0  0  0  0  0  0  0  0  0  0
    7.3227   -0.6444   24.5619 C   0  0  0  0  0  0  0  0  0  0  0  0
    6.7909    0.0926   25.4371 O   0  0  0  0  0  0  0  0  0  0  0  0
    7.5875   -2.0226   24.8480 N   0  0  0  0  0  0  0  0  0  0  0  0
    7.2547   -2.6121   26.1456 C   0  0  0  0  0  0  0  0  0  0  0  0
    7.0834   -4.1394   26.0542 C   0  0  0  0  0  0  0  0  0  0  0  0
    5.8649   -4.5768   25.2069 C   0  0  2  0  0  0  0  0  0  0  0  0
    4.7879   -3.6988   25.4224 O   0  0  0  0  0  0  0  0  0  0  0  0
    5.4260   -6.0281   25.4652 C   0  0  0  0  0  0  0  0  0  0  0  0
    6.4676   -6.8889   25.1691 F   0  0  0  0  0  0  0  0  0  0  0  0
    4.3340   -6.3577   24.6811 F   0  0  0  0  0  0  0  0  0  0  0  0
    6.2913    1.3951   21.8877 C   0  0  0  0  0  0  0  0  0  0  0  0
    5.0275    1.8258   22.2779 C   0  0  0  0  0  0  0  0  0  0  0  0
    4.0197    1.9146   21.3234 C   0  0  0  0  0  0  0  0  0  0  0  0
    4.2615    1.5801   19.9953 C   0  0  0  0  0  0  0  0  0  0  0  0
    5.5326    1.1520   19.6274 C   0  0  0  0  0  0  0  0  0  0  0  0
    5.8955    0.6746   17.7613 Br  0  0  0  0  0  0  0  0  0  0  0  0
    6.5551    1.0549   20.5652 C   0  0  0  0  0  0  0  0  0  0  0  0
   11.7889    1.6286   22.9649 H   0  0  0  0  0  0  0  0  0  0  0  0
   11.0328    1.9130   21.5458 H   0  0  0  0  0  0  0  0  0  0  0  0
   10.9477    3.0118   22.7508 H   0  0  0  0  0  0  0  0  0  0  0  0
    8.7468    1.8749   21.4314 H   0  0  0  0  0  0  0  0  0  0  0  0
    8.6438    2.9547   22.6521 H   0  0  0  0  0  0  0  0  0  0  0  0
    7.0957    1.7694   23.7493 H   0  0  0  0  0  0  0  0  0  0  0  0
    8.0774   -0.7077   22.5940 H   0  0  0  0  0  0  0  0  0  0  0  0
    8.0094   -2.5952   24.1451 H   0  0  0  0  0  0  0  0  0  0  0  0
    6.4000   -2.2098   26.4739 H   0  0  0  0  0  0  0  0  0  0  0  0
    7.9896   -2.4071   26.7920 H   0  0  0  0  0  0  0  0  0  0  0  0
    6.9708   -4.5008   26.9798 H   0  0  0  0  0  0  0  0  0  0  0  0
    7.9091   -4.5260   25.6435 H   0  0  0  0  0  0  0  0  0  0  0  0
    6.1249   -4.5061   24.2439 H   0  0  0  0  0  0  0  0  0  0  0  0
    4.4737   -3.7825   26.3680 H   0  0  0  0  0  0  0  0  0  0  0  0
    5.1803   -6.1299   26.4292 H   0  0  0  0  0  0  0  0  0  0  0  0
    4.8461    2.0682   23.2309 H   0  0  0  0  0  0  0  0  0  0  0  0
    3.1084    2.2232   21.5960 H   0  0  0  0  0  0  0  0  0  0  0  0
    3.5319    1.6466   19.3146 H   0  0  0  0  0  0  0  0  0  0  0  0
    7.4661    0.7453   20.2927 H   0  0  0  0  0  0  0  0  0  0  0  0
  1  2  1  0  0  0  0
  2  3  1  0  0  0  0
  3  4  1  0  0  0  0
  4  5  1  0  0  0  0
  5  6  1  0  0  0  0
  6  7  2  0  0  0  0
  6  8  1  0  0  0  0
  8  9  1  0  0  0  0
  9 10  1  0  0  0  0
 10 11  1  0  0  0  0
 11 12  1  0  0  0  0
 11 13  1  0  0  0  0
 13 14  1  0  0  0  0
 13 15  1  0  0  0  0
  4 16  1  0  0  0  0
 16 17  2  0  0  0  0
 17 18  1  0  0  0  0
 18 19  2  0  0  0  0
 19 20  1  0  0  0  0
 20 21  1  0  0  0  0
 20 22  2  0  0  0  0
 22 16  1  0  0  0  0
  1 23  1  0  0  0  0
  1 24  1  0  0  0  0
  1 25  1  0  0  0  0
  3 26  1  0  0  0  0
  3 27  1  0  0  0  0
  4 28  1  0  0  0  0
  5 29  1  0  0  0  0
  8 30  1  0  0  0  0
  9 31  1  0  0  0  0
  9 32  1  0  0  0  0
 10 33  1  0  0  0  0
 10 34  1  0  0  0  0
 11 35  1  0  0  0  0
 12 36  1  0  0  0  0
 13 37  1  0  0  0  0
 17 38  1  0  0  0  0
 18 39  1  0  0  0  0
 19 40  1  0  0  0  0
 22 41  1  0  0  0  0
M  END
> <BIOSOLVEIT.HYDE_ESTIMATED_AFFINITY_LOWER_BOUNDARY [nM]>
7010485.960904

> <BIOSOLVEIT.HYDE_ESTIMATED_AFFINITY_UPPER_BOUNDARY [nM]>
696533229.489159

> <BIOSOLVEIT.HYDE_LIGAND_EFFICIENCY range: ++, +, 0, -, -->
--

> <BIOSOLVEIT.HYDE_LIGAND_LIPOPHILIC_EFFICIENCY range: ++, +, 0, -, -->
--

> <BIOSOLVEIT.INTER_CLASH range: red, yellow, green>
green

> <BIOSOLVEIT.INTRA_CLASH range: red, yellow, green>
green

> <BIOSOLVEIT.LOGP>
2.4519

> <BIOSOLVEIT.MOLECULAR WEIGHT>
381.215

> <BIOSOLVEIT.MOLECULE_CHECKSUM>
LTYuNTk2NDk7MC4yOTk4NA==

> <BIOSOLVEIT.TORSION_QUALITY range: red, yellow, green, not rotatable>
green

> <BIOSOLVEIT.TPSA>
70.59

$$$$
mol_91_1_06
anSeeSAR  04022021533D 1   1.00000     0.00000     0
SeeSAR 9.2 andre
 38 38  0  0  0  0            999 V2000
   13.6643   -0.6711   24.5965 C   0  0  0  0  0  0  0  0  0  0  0  0
   13.3601   -0.0276   23.2440 C   0  0  0  0  0  0  0  0  0  0  0  0
   12.6277   -0.9873   22.2956 C   0  0  0  0  0  0  0  0  0  0  0  0
   11.1343   -0.9332   22.4823 C   0  0  0  0  0  0  0  0  0  0  0  0
   10.3675   -2.1655   22.8754 C   0  0  0  0  0  0  0  0  0  0  0  0
   10.5192    0.1946   22.2961 N   0  0  0  0  0  0  0  0  0  0  0  0
    9.1550    0.3156   22.4496 O   0  0  0  0  0  0  0  0  0  0  0  0
    8.5091    1.5651   22.2471 C   0  0  0  0  0  0  0  0  0  0  0  0
    6.9866    1.3977   22.3048 C   0  0  2  0  0  0  0  0  0  0  0  0
    6.6563    0.3274   23.1195 F   0  0  0  0  0  0  0  0  0  0  0  0
    6.4141    1.1728   20.9263 C   0  0  0  0  0  0  0  0  0  0  0  0
    5.1950    1.7540   20.5963 C   0  0  0  0  0  0  0  0  0  0  0  0
    4.6706    1.5441   19.3251 C   0  0  0  0  0  0  0  0  0  0  0  0
    3.4870    2.1012   18.9900 O   0  0  0  0  0  0  0  0  0  0  0  0
    2.7116    2.9248   19.8549 C   0  0  0  0  0  0  0  0  0  0  0  0
    5.3487    0.7656   18.3916 C   0  0  0  0  0  0  0  0  0  0  0  0
    6.5669    0.1916   18.7388 C   0  0  0  0  0  0  0  0  0  0  0  0
    7.1052    0.3923   20.0056 C   0  0  0  0  0  0  0  0  0  0  0  0
   14.1398   -0.0125   25.1796 H   0  0  0  0  0  0  0  0  0  0  0  0
   12.8086   -0.9471   25.0343 H   0  0  0  0  0  0  0  0  0  0  0  0
   14.2434   -1.4749   24.4604 H   0  0  0  0  0  0  0  0  0  0  0  0
   14.2215    0.2502   22.8187 H   0  0  0  0  0  0  0  0  0  0  0  0
   12.7867    0.7781   23.3926 H   0  0  0  0  0  0  0  0  0  0  0  0
   12.9419   -1.9198   22.4738 H   0  0  0  0  0  0  0  0  0  0  0  0
   12.8446   -0.7371   21.3520 H   0  0  0  0  0  0  0  0  0  0  0  0
    9.3957   -1.9428   22.9526 H   0  0  0  0  0  0  0  0  0  0  0  0
   10.4932   -2.8725   22.1794 H   0  0  0  0  0  0  0  0  0  0  0  0
   10.7037   -2.5007   23.7555 H   0  0  0  0  0  0  0  0  0  0  0  0
    8.7666    1.9273   21.3513 H   0  0  0  0  0  0  0  0  0  0  0  0
    8.7972    2.2040   22.9604 H   0  0  0  0  0  0  0  0  0  0  0  0
    6.5856    2.2297   22.6881 H   0  0  0  0  0  0  0  0  0  0  0  0
    4.7027    2.3142   21.2625 H   0  0  0  0  0  0  0  0  0  0  0  0
    1.8801    3.2154   19.3814 H   0  0  0  0  0  0  0  0  0  0  0  0
    2.4650    2.4080   20.6747 H   0  0  0  0  0  0  0  0  0  0  0  0
    3.2451    3.7293   20.1159 H   0  0  0  0  0  0  0  0  0  0  0  0
    4.9637    0.6205   17.4802 H   0  0  0  0  0  0  0  0  0  0  0  0
    7.0593   -0.3692   18.0732 H   0  0  0  0  0  0  0  0  0  0  0  0
    7.9817   -0.0212   20.2523 H   0  0  0  0  0  0  0  0  0  0  0  0
  1  2  1  0  0  0  0
  2  3  1  0  0  0  0
  3  4  1  0  0  0  0
  4  5  1  0  0  0  0
  4  6  2  0  0  0  0
  6  7  1  0  0  0  0
  7  8  1  0  0  0  0
  8  9  1  0  0  0  0
  9 10  1  0  0  0  0
  9 11  1  0  0  0  0
 11 12  2  0  0  0  0
 12 13  1  0  0  0  0
 13 14  1  0  0  0  0
 14 15  1  0  0  0  0
 13 16  2  0  0  0  0
 16 17  1  0  0  0  0
 17 18  2  0  0  0  0
 18 11  1  0  0  0  0
  1 19  1  0  0  0  0
  1 20  1  0  0  0  0
  1 21  1  0  0  0  0
  2 22  1  0  0  0  0
  2 23  1  0  0  0  0
  3 24  1  0  0  0  0
  3 25  1  0  0  0  0
  5 26  1  0  0  0  0
  5 27  1  0  0  0  0
  5 28  1  0  0  0  0
  8 29  1  0  0  0  0
  8 30  1  0  0  0  0
  9 31  1  0  0  0  0
 12 32  1  0  0  0  0
 15 33  1  0  0  0  0
 15 34  1  0  0  0  0
 15 35  1  0  0  0  0
 16 36  1  0  0  0  0
 17 37  1  0  0  0  0
 18 38  1  0  0  0  0
M  END
> <BIOSOLVEIT.HYDE_ESTIMATED_AFFINITY_LOWER_BOUNDARY [nM]>
8085760.524567

> <BIOSOLVEIT.HYDE_ESTIMATED_AFFINITY_UPPER_BOUNDARY [nM]>
803368114.915416

> <BIOSOLVEIT.HYDE_LIGAND_EFFICIENCY range: ++, +, 0, -, -->
--

> <BIOSOLVEIT.HYDE_LIGAND_LIPOPHILIC_EFFICIENCY range: ++, +, 0, -, -->
--

> <BIOSOLVEIT.INTER_CLASH range: red, yellow, green>
green

> <BIOSOLVEIT.INTRA_CLASH range: red, yellow, green>
green

> <BIOSOLVEIT.LOGP>
3.8984

> <BIOSOLVEIT.MOLECULAR WEIGHT>
253.315

> <BIOSOLVEIT.MOLECULE_CHECKSUM>
LTYuMjQyNzU7MC4zNDY4MTk=

> <BIOSOLVEIT.TORSION_QUALITY range: red, yellow, green, not rotatable>
yellow

> <BIOSOLVEIT.TPSA>
30.82

$$$$
mol_7_1_05
anSeeSAR  04022021533D 1   1.00000     0.00000     0
SeeSAR 9.2 andre
 37 37  0  0  0  0            999 V2000
   12.2965    2.0277   23.0992 C   0  0  0  0  0  0  0  0  0  0  0  0
   11.0963    1.9216   23.0566 C   0  0  0  0  0  0  0  0  0  0  0  0
    9.6333    1.7934   23.0041 C   0  0  2  0  0  0  0  0  0  0  0  0
    9.2417    0.6508   22.0541 C   0  0  0  0  0  0  0  0  0  0  0  0
    7.7260    0.5236   21.9175 C   0  0  0  0  0  0  0  0  0  0  0  0
    9.0608    3.0600   22.5404 N   0  0  0  0  0  0  0  0  0  0  0  0
    8.0707    3.7921   23.2784 C   0  0  0  0  0  0  0  0  0  0  0  0
    7.5377    3.2906   24.3053 O   0  0  0  0  0  0  0  0  0  0  0  0
    7.6324    5.1510   22.8110 C   0  0  0  0  0  0  0  0  0  0  0  0
    6.3260    5.0856   22.0019 C   0  0  1  0  0  0  0  0  0  0  0  0
    5.4581    4.0433   22.5565 N   0  0  0  0  0  0  0  0  0  0  0  0
    4.9484    2.9480   21.7823 C   0  0  0  0  0  0  0  0  0  0  0  0
    4.0468    1.9435   22.4226 C   0  0  0  0  0  0  0  0  0  0  0  0
    5.2349    2.8356   20.5597 O   0  0  0  0  0  0  0  0  0  0  0  0
    5.5925    6.3999   22.0205 C   0  0  0  0  0  0  0  0  0  0  0  0
    6.1416    7.6463   22.0405 C   0  0  0  0  0  0  0  0  0  0  0  0
    5.1732    8.6861   22.0626 C   0  0  0  0  0  0  0  0  0  0  0  0
    3.8730    8.2881   22.0561 C   0  0  0  0  0  0  0  0  0  0  0  0
    3.9030    6.5860   22.0291 S   0  0  0  0  0  0  0  0  0  0  0  0
   13.2920    2.1156   23.1346 H   0  0  0  0  0  0  0  0  0  0  0  0
    9.2876    1.5923   23.9207 H   0  0  0  0  0  0  0  0  0  0  0  0
    9.6079   -0.2081   22.4121 H   0  0  0  0  0  0  0  0  0  0  0  0
    9.6344    0.8304   21.1521 H   0  0  0  0  0  0  0  0  0  0  0  0
    7.5094   -0.2275   21.2939 H   0  0  0  0  0  0  0  0  0  0  0  0
    7.3248    0.3383   22.8146 H   0  0  0  0  0  0  0  0  0  0  0  0
    7.3513    1.3768   21.5546 H   0  0  0  0  0  0  0  0  0  0  0  0
    9.3751    3.4326   21.6672 H   0  0  0  0  0  0  0  0  0  0  0  0
    8.3503    5.5417   22.2348 H   0  0  0  0  0  0  0  0  0  0  0  0
    7.4896    5.7367   23.6088 H   0  0  0  0  0  0  0  0  0  0  0  0
    6.5450    4.8522   21.0545 H   0  0  0  0  0  0  0  0  0  0  0  0
    5.2086    4.0981   23.5233 H   0  0  0  0  0  0  0  0  0  0  0  0
    3.7851    1.2528   21.7485 H   0  0  0  0  0  0  0  0  0  0  0  0
    4.5248    1.5032   23.1826 H   0  0  0  0  0  0  0  0  0  0  0  0
    3.2269    2.4021   22.7654 H   0  0  0  0  0  0  0  0  0  0  0  0
    7.1276    7.8130   22.0397 H   0  0  0  0  0  0  0  0  0  0  0  0
    5.4322    9.6518   22.0818 H   0  0  0  0  0  0  0  0  0  0  0  0
    3.0638    8.8756   22.0654 H   0  0  0  0  0  0  0  0  0  0  0  0
  1  2  3  0  0  0  0
  2  3  1  0  0  0  0
  3  4  1  0  0  0  0
  4  5  1  0  0  0  0
  3  6  1  0  0  0  0
  6  7  1  0  0  0  0
  7  8  2  0  0  0  0
  7  9  1  0  0  0  0
  9 10  1  0  0  0  0
 10 11  1  0  0  0  0
 11 12  1  0  0  0  0
 12 13  1  0  0  0  0
 12 14  2  0  0  0  0
 10 15  1  0  0  0  0
 15 16  2  0  0  0  0
 16 17  1  0  0  0  0
 17 18  2  0  0  0  0
 18 19  1  0  0  0  0
 19 15  1  0  0  0  0
  1 20  1  0  0  0  0
  3 21  1  0  0  0  0
  4 22  1  0  0  0  0
  4 23  1  0  0  0  0
  5 24  1  0  0  0  0
  5 25  1  0  0  0  0
  5 26  1  0  0  0  0
  6 27  1  0  0  0  0
  9 28  1  0  0  0  0
  9 29  1  0  0  0  0
 10 30  1  0  0  0  0
 11 31  1  0  0  0  0
 13 32  1  0  0  0  0
 13 33  1  0  0  0  0
 13 34  1  0  0  0  0
 16 35  1  0  0  0  0
 17 36  1  0  0  0  0
 18 37  1  0  0  0  0
M  END
> <BIOSOLVEIT.HYDE_ESTIMATED_AFFINITY_LOWER_BOUNDARY [nM]>
8732247.043328

> <BIOSOLVEIT.HYDE_ESTIMATED_AFFINITY_UPPER_BOUNDARY [nM]>
867600372.885150

> <BIOSOLVEIT.HYDE_LIGAND_EFFICIENCY range: ++, +, 0, -, -->
--

> <BIOSOLVEIT.HYDE_LIGAND_LIPOPHILIC_EFFICIENCY range: ++, +, 0, -, -->
--

> <BIOSOLVEIT.INTER_CLASH range: red, yellow, green>
green

> <BIOSOLVEIT.INTRA_CLASH range: red, yellow, green>
green

> <BIOSOLVEIT.LOGP>
1.8434

> <BIOSOLVEIT.MOLECULAR WEIGHT>
278.373

> <BIOSOLVEIT.MOLECULE_CHECKSUM>
LTYuMDUyMDc7MC4zMTg1Mw==

> <BIOSOLVEIT.TORSION_QUALITY range: red, yellow, green, not rotatable>
green

> <BIOSOLVEIT.TPSA>
58.2

$$$$
mol_95_1_09
anSeeSAR  04022021533D 1   1.00000     0.00000     0
SeeSAR 9.2 andre
 44 44  0  0  0  0            999 V2000
    8.7995    5.6227   24.7282 C   0  0  0  0  0  0  0  0  0  0  0  0
    8.5683    4.5972   25.5519 C   0  0  0  0  0  0  0  0  0  0  0  0
    7.6663    4.7294   26.7477 C   0  0  0  0  0  0  0  0  0  0  0  0
    6.5940    3.7230   26.6856 N   0  0  0  0  0  0  0  0  0  0  0  0
    5.3101    4.0678   26.0495 C   0  0  0  0  0  0  0  0  0  0  0  0
    5.4039    3.9941   24.5193 C   0  0  0  0  0  0  0  0  0  0  0  0
    4.0754    4.3343   23.8471 C   0  0  0  0  0  0  0  0  0  0  0  0
    6.8015    2.3970   27.2275 C   0  0  0  0  0  0  0  0  0  0  0  0
    6.1695    2.0008   28.6964 S   0  0  0  0  0  0  0  0  0  0  0  0
    7.5515    1.4225   26.4776 N   0  0  0  0  0  0  0  0  0  0  0  0
    7.5518    1.3391   25.0167 C   0  0  0  0  0  0  0  0  0  0  0  0
    6.4715    0.3640   24.5355 C   0  0  0  0  0  0  0  0  0  0  0  0
    6.4284    0.3050   23.0305 C   0  0  0  0  0  0  0  0  0  0  0  0
    7.2727   -0.5727   22.3325 C   0  0  0  0  0  0  0  0  0  0  0  0
    7.2333   -0.6298   20.9366 C   0  0  0  0  0  0  0  0  0  0  0  0
    6.3511    0.1830   20.2156 C   0  0  0  0  0  0  0  0  0  0  0  0
    6.3502    0.0924   18.8687 O   0  0  0  0  0  0  0  0  0  0  0  0
    5.5029    0.8516   18.0125 C   0  0  0  0  0  0  0  0  0  0  0  0
    5.4999    1.0605   20.9141 C   0  0  0  0  0  0  0  0  0  0  0  0
    5.5390    1.1182   22.3106 C   0  0  0  0  0  0  0  0  0  0  0  0
    9.4043    5.5049   23.9406 H   0  0  0  0  0  0  0  0  0  0  0  0
    8.3679    6.5084   24.8991 H   0  0  0  0  0  0  0  0  0  0  0  0
    9.0069    3.7174   25.3683 H   0  0  0  0  0  0  0  0  0  0  0  0
    7.2617    5.6439   26.7573 H   0  0  0  0  0  0  0  0  0  0  0  0
    8.2006    4.5925   27.5818 H   0  0  0  0  0  0  0  0  0  0  0  0
    5.0550    4.9975   26.3151 H   0  0  0  0  0  0  0  0  0  0  0  0
    4.6093    3.4273   26.3635 H   0  0  0  0  0  0  0  0  0  0  0  0
    5.6705    3.0668   24.2566 H   0  0  0  0  0  0  0  0  0  0  0  0
    6.0989    4.6418   24.2070 H   0  0  0  0  0  0  0  0  0  0  0  0
    4.1793    4.2748   22.8543 H   0  0  0  0  0  0  0  0  0  0  0  0
    3.3743    3.6880   24.1482 H   0  0  0  0  0  0  0  0  0  0  0  0
    3.8027    5.2630   24.0986 H   0  0  0  0  0  0  0  0  0  0  0  0
    8.1053    0.7631   26.9860 H   0  0  0  0  0  0  0  0  0  0  0  0
    8.4466    1.0189   24.7054 H   0  0  0  0  0  0  0  0  0  0  0  0
    7.3709    2.2455   24.6351 H   0  0  0  0  0  0  0  0  0  0  0  0
    5.5817    0.6677   24.8763 H   0  0  0  0  0  0  0  0  0  0  0  0
    6.6717   -0.5482   24.8929 H   0  0  0  0  0  0  0  0  0  0  0  0
    7.9057   -1.1602   22.8366 H   0  0  0  0  0  0  0  0  0  0  0  0
    7.8407   -1.2568   20.4488 H   0  0  0  0  0  0  0  0  0  0  0  0
    5.6876    0.6088   17.0602 H   0  0  0  0  0  0  0  0  0  0  0  0
    4.5469    0.6526   18.2279 H   0  0  0  0  0  0  0  0  0  0  0  0
    5.6792    1.8265   18.1482 H   0  0  0  0  0  0  0  0  0  0  0  0
    4.8647    1.6450   20.4093 H   0  0  0  0  0  0  0  0  0  0  0  0
    4.9296    1.7425   22.7995 H   0  0  0  0  0  0  0  0  0  0  0  0
  1  2  2  0  0  0  0
  2  3  1  0  0  0  0
  3  4  1  0  0  0  0
  4  5  1  0  0  0  0
  5  6  1  0  0  0  0
  6  7  1  0  0  0  0
  4  8  1  0  0  0  0
  8  9  2  0  0  0  0
  8 10  1  0  0  0  0
 10 11  1  0  0  0  0
 11 12  1  0  0  0  0
 12 13  1  0  0  0  0
 13 14  2  0  0  0  0
 14 15  1  0  0  0  0
 15 16  2  0  0  0  0
 16 17  1  0  0  0  0
 17 18  1  0  0  0  0
 16 19  1  0  0  0  0
 19 20  2  0  0  0  0
 20 13  1  0  0  0  0
  1 21  1  0  0  0  0
  1 22  1  0  0  0  0
  2 23  1  0  0  0  0
  3 24  1  0  0  0  0
  3 25  1  0  0  0  0
  5 26  1  0  0  0  0
  5 27  1  0  0  0  0
  6 28  1  0  0  0  0
  6 29  1  0  0  0  0
  7 30  1  0  0  0  0
  7 31  1  0  0  0  0
  7 32  1  0  0  0  0
 10 33  1  0  0  0  0
 11 34  1  0  0  0  0
 11 35  1  0  0  0  0
 12 36  1  0  0  0  0
 12 37  1  0  0  0  0
 14 38  1  0  0  0  0
 15 39  1  0  0  0  0
 18 40  1  0  0  0  0
 18 41  1  0  0  0  0
 18 42  1  0  0  0  0
 19 43  1  0  0  0  0
 20 44  1  0  0  0  0
M  END
> <BIOSOLVEIT.HYDE_ESTIMATED_AFFINITY_LOWER_BOUNDARY [nM]>
9158405.820429

> <BIOSOLVEIT.HYDE_ESTIMATED_AFFINITY_UPPER_BOUNDARY [nM]>
909941767.040277

> <BIOSOLVEIT.HYDE_LIGAND_EFFICIENCY range: ++, +, 0, -, -->
--

> <BIOSOLVEIT.HYDE_LIGAND_LIPOPHILIC_EFFICIENCY range: ++, +, 0, -, -->
--

> <BIOSOLVEIT.INTER_CLASH range: red, yellow, green>
green

> <BIOSOLVEIT.INTRA_CLASH range: red, yellow, green>
green

> <BIOSOLVEIT.LOGP>
3.0102

> <BIOSOLVEIT.MOLECULAR WEIGHT>
292.444

> <BIOSOLVEIT.MOLECULE_CHECKSUM>
LTUuOTMzOTU7MC4yOTY2OTg=

> <BIOSOLVEIT.TORSION_QUALITY range: red, yellow, green, not rotatable>
red

> <BIOSOLVEIT.TPSA>
24.5

$$$$
mol_33_1_01
anSeeSAR  04022021533D 1   1.00000     0.00000     0
SeeSAR 9.2 andre
 65 66  0  0  0  0            999 V2000
   10.1600    2.6045   24.4161 C   0  0  0  0  0  0  0  0  0  0  0  0
   11.0431    1.7165   23.5263 C   0  0  0  0  0  0  0  0  0  0  0  0
   12.3468    2.4518   23.1892 C   0  0  0  0  0  0  0  0  0  0  0  0
   11.3626    0.3584   24.1957 C   0  0  0  0  0  0  0  0  0  0  0  0
   10.9425   -0.8471   23.3701 C   0  0  2  0  0  0  0  0  0  0  0  0
   10.5833   -0.4295   21.9510 C   0  0  0  0  0  0  0  0  0  0  0  0
    9.1386   -0.7535   21.5939 C   0  0  2  0  0  0  0  0  0  0  0  0
    8.1905    0.0471   22.3734 N   0  0  0  0  0  0  0  0  0  0  0  0
    7.8730    1.4121   22.0633 C   0  0  0  0  0  0  0  0  0  0  0  0
    8.4518    1.9983   21.1073 O   0  0  0  0  0  0  0  0  0  0  0  0
    6.7999    2.1250   22.8486 C   0  0  2  0  0  0  0  0  0  0  0  0
    5.4082    1.5120   22.5948 C   0  0  0  0  0  0  0  0  0  0  0  0
    4.8834    1.7781   21.2037 C   0  0  0  0  0  0  0  0  0  0  0  0
    5.3452    1.0249   20.1142 C   0  0  0  0  0  0  0  0  0  0  0  0
    4.8468    1.2849   18.8339 C   0  0  0  0  0  0  0  0  0  0  0  0
    5.2636    0.6163   17.8508 O   0  0  0  0  0  0  0  0  0  0  0  0
    3.9121    2.2587   18.6496 N   0  0  0  0  0  0  0  0  0  0  0  0
    3.4402    2.9950   19.6924 C   0  0  0  0  0  0  0  0  0  0  0  0
    3.9132    2.7665   20.9862 C   0  0  0  0  0  0  0  0  0  0  0  0
    6.7934    3.5612   22.5404 N   0  0  0  0  0  0  0  0  0  0  0  0
    6.1121    4.5373   23.3375 C   0  0  0  0  0  0  0  0  0  0  0  0
    5.0699    4.2236   23.9739 O   0  0  0  0  0  0  0  0  0  0  0  0
    6.6254    5.8417   23.3917 O   0  0  0  0  0  0  0  0  0  0  0  0
    6.0728    6.9436   24.1276 C   0  0  0  0  0  0  0  0  0  0  0  0
    6.0183    6.6181   25.6327 C   0  0  0  0  0  0  0  0  0  0  0  0
    7.0055    8.1456   23.9138 C   0  0  0  0  0  0  0  0  0  0  0  0
    4.6711    7.3016   23.5978 C   0  0  0  0  0  0  0  0  0  0  0  0
    8.9588   -2.2449   21.8345 C   0  0  0  0  0  0  0  0  0  0  0  0
    9.3846   -2.6501   23.2395 C   0  0  0  0  0  0  0  0  0  0  0  0
    9.9214   -1.5875   24.0296 O   0  0  0  0  0  0  0  0  0  0  0  0
    9.3121    2.1208   24.6328 H   0  0  0  0  0  0  0  0  0  0  0  0
   10.6477    2.8179   25.2626 H   0  0  0  0  0  0  0  0  0  0  0  0
    9.9455    3.4528   23.9320 H   0  0  0  0  0  0  0  0  0  0  0  0
   10.5524    1.5390   22.6733 H   0  0  0  0  0  0  0  0  0  0  0  0
   12.9177    1.8697   22.6101 H   0  0  0  0  0  0  0  0  0  0  0  0
   12.1351    3.3000   22.7035 H   0  0  0  0  0  0  0  0  0  0  0  0
   12.8374    2.6651   24.0341 H   0  0  0  0  0  0  0  0  0  0  0  0
   10.8865    0.3202   25.0742 H   0  0  0  0  0  0  0  0  0  0  0  0
   12.3495    0.3070   24.3489 H   0  0  0  0  0  0  0  0  0  0  0  0
   11.7400   -1.4467   23.3039 H   0  0  0  0  0  0  0  0  0  0  0  0
   11.1862   -0.9092   21.3135 H   0  0  0  0  0  0  0  0  0  0  0  0
   10.7217    0.5569   21.8626 H   0  0  0  0  0  0  0  0  0  0  0  0
    8.9969   -0.5646   20.6222 H   0  0  0  0  0  0  0  0  0  0  0  0
    7.7427   -0.3784   23.1599 H   0  0  0  0  0  0  0  0  0  0  0  0
    7.0094    2.0202   23.8208 H   0  0  0  0  0  0  0  0  0  0  0  0
    4.7655    1.8989   23.2560 H   0  0  0  0  0  0  0  0  0  0  0  0
    5.4680    0.5227   22.7277 H   0  0  0  0  0  0  0  0  0  0  0  0
    6.0267    0.3062   20.2523 H   0  0  0  0  0  0  0  0  0  0  0  0
    3.5655    2.4363   17.7285 H   0  0  0  0  0  0  0  0  0  0  0  0
    2.7520    3.7025   19.5314 H   0  0  0  0  0  0  0  0  0  0  0  0
    3.5622    3.3043   21.7527 H   0  0  0  0  0  0  0  0  0  0  0  0
    7.2909    3.8741   21.7314 H   0  0  0  0  0  0  0  0  0  0  0  0
    5.6313    7.3958   26.1282 H   0  0  0  0  0  0  0  0  0  0  0  0
    5.4456    5.8114   25.7788 H   0  0  0  0  0  0  0  0  0  0  0  0
    6.9426    6.4358   25.9680 H   0  0  0  0  0  0  0  0  0  0  0  0
    6.6509    8.9357   24.4138 H   0  0  0  0  0  0  0  0  0  0  0  0
    7.9203    7.9216   24.2498 H   0  0  0  0  0  0  0  0  0  0  0  0
    7.0522    8.3619   22.9386 H   0  0  0  0  0  0  0  0  0  0  0  0
    4.3030    8.0698   24.1216 H   0  0  0  0  0  0  0  0  0  0  0  0
    4.7344    7.5561   22.6328 H   0  0  0  0  0  0  0  0  0  0  0  0
    4.0660    6.5114   23.6951 H   0  0  0  0  0  0  0  0  0  0  0  0
    9.5127   -2.7482   21.1712 H   0  0  0  0  0  0  0  0  0  0  0  0
    7.9946   -2.4784   21.7091 H   0  0  0  0  0  0  0  0  0  0  0  0
   10.0818   -3.3627   23.1606 H   0  0  0  0  0  0  0  0  0  0  0  0
    8.5846   -3.0176   23.7138 H   0  0  0  0  0  0  0  0  0  0  0  0
  1  2  1  0  0  0  0
  2  3  1  0  0  0  0
  2  4  1  0  0  0  0
  4  5  1  0  0  0  0
  5  6  1  0  0  0  0
  6  7  1  0  0  0  0
  7  8  1  0  0  0  0
  8  9  1  0  0  0  0
  9 10  2  0  0  0  0
  9 11  1  0  0  0  0
 11 12  1  0  0  0  0
 12 13  1  0  0  0  0
 13 14  2  0  0  0  0
 14 15  1  0  0  0  0
 15 16  2  0  0  0  0
 15 17  1  0  0  0  0
 17 18  1  0  0  0  0
 18 19  2  0  0  0  0
 11 20  1  0  0  0  0
 20 21  1  0  0  0  0
 21 22  2  0  0  0  0
 21 23  1  0  0  0  0
 23 24  1  0  0  0  0
 24 25  1  0  0  0  0
 24 26  1  0  0  0  0
 24 27  1  0  0  0  0
  7 28  1  0  0  0  0
 28 29  1  0  0  0  0
 29 30  1  0  0  0  0
 30  5  1  0  0  0  0
 19 13  1  0  0  0  0
  1 31  1  0  0  0  0
  1 32  1  0  0  0  0
  1 33  1  0  0  0  0
  2 34  1  0  0  0  0
  3 35  1  0  0  0  0
  3 36  1  0  0  0  0
  3 37  1  0  0  0  0
  4 38  1  0  0  0  0
  4 39  1  0  0  0  0
  5 40  1  0  0  0  0
  6 41  1  0  0  0  0
  6 42  1  0  0  0  0
  7 43  1  0  0  0  0
  8 44  1  0  0  0  0
 11 45  1  0  0  0  0
 12 46  1  0  0  0  0
 12 47  1  0  0  0  0
 14 48  1  0  0  0  0
 17 49  1  0  0  0  0
 18 50  1  0  0  0  0
 19 51  1  0  0  0  0
 20 52  1  0  0  0  0
 25 53  1  0  0  0  0
 25 54  1  0  0  0  0
 25 55  1  0  0  0  0
 26 56  1  0  0  0  0
 26 57  1  0  0  0  0
 26 58  1  0  0  0  0
 27 59  1  0  0  0  0
 27 60  1  0  0  0  0
 27 61  1  0  0  0  0
 28 62  1  0  0  0  0
 28 63  1  0  0  0  0
 29 64  1  0  0  0  0
 29 65  1  0  0  0  0
M  END
> <BIOSOLVEIT.HYDE_ESTIMATED_AFFINITY_LOWER_BOUNDARY [nM]>
9189200.431874

> <BIOSOLVEIT.HYDE_ESTIMATED_AFFINITY_UPPER_BOUNDARY [nM]>
913001393.759465

> <BIOSOLVEIT.HYDE_LIGAND_EFFICIENCY range: ++, +, 0, -, -->
--

> <BIOSOLVEIT.HYDE_LIGAND_LIPOPHILIC_EFFICIENCY range: ++, +, 0, -, -->
--

> <BIOSOLVEIT.INTER_CLASH range: red, yellow, green>
green

> <BIOSOLVEIT.INTRA_CLASH range: red, yellow, green>
green

> <BIOSOLVEIT.LOGP>
2.5206

> <BIOSOLVEIT.MOLECULAR WEIGHT>
421.535

> <BIOSOLVEIT.MOLECULE_CHECKSUM>
LTUuOTI1NjM7MC4xOTc1MjE=

> <BIOSOLVEIT.TORSION_QUALITY range: red, yellow, green, not rotatable>
red

> <BIOSOLVEIT.TPSA>
109.52

$$$$
mol_59_1_07
anSeeSAR  04022021533D 1   1.00000     0.00000     0
SeeSAR 9.2 andre
 38 39  0  0  0  0            999 V2000
    9.6319    1.1313   25.6295 O   0  0  0  0  0  0  0  0  0  0  0  0
   10.3433    0.8862   24.6177 C   0  0  0  0  0  0  0  0  0  0  0  0
    9.9940    1.5061   23.3003 C   0  0  0  0  0  0  0  0  0  0  0  0
    8.6122    1.1570   22.9391 N   0  0  0  0  0  0  0  0  0  0  0  0
    7.6617    2.2339   22.6250 C   0  0  0  0  0  0  0  0  0  0  0  0
    6.2518    1.7830   22.9837 C   0  0  0  0  0  0  0  0  0  0  0  0
    5.8606    0.4882   22.2838 C   0  0  1  0  0  0  0  0  0  0  0  0
    5.7011    0.6523   20.7747 C   0  0  0  0  0  0  0  0  0  0  0  0
    6.4805   -0.1669   19.9334 C   0  0  0  0  0  0  0  0  0  0  0  0
    6.3812   -0.0676   18.5429 C   0  0  0  0  0  0  0  0  0  0  0  0
    5.4983    0.8463   17.9679 C   0  0  0  0  0  0  0  0  0  0  0  0
    4.7083    1.6578   18.7826 C   0  0  0  0  0  0  0  0  0  0  0  0
    4.8015    1.5628   20.1749 C   0  0  0  0  0  0  0  0  0  0  0  0
    6.8829   -0.5231   22.5915 N   0  0  0  0  0  0  0  0  0  0  0  0
    8.2049   -0.1850   22.9095 C   0  0  0  0  0  0  0  0  0  0  0  0
    8.9865   -1.0880   23.1612 O   0  0  0  0  0  0  0  0  0  0  0  0
   11.4544   -0.0152   24.7115 N   0  0  0  0  0  0  0  0  0  0  0  0
   11.9131   -0.8304   23.5874 C   0  0  0  0  0  0  0  0  0  0  0  0
   13.4272   -0.7061   23.3936 C   0  0  0  0  0  0  0  0  0  0  0  0
   13.7718    0.6035   23.1142 F   0  0  0  0  0  0  0  0  0  0  0  0
   13.8159   -1.5018   22.3315 F   0  0  0  0  0  0  0  0  0  0  0  0
   14.3793   -1.2888   24.9825 Br  0  0  0  0  0  0  0  0  0  0  0  0
   10.6177    1.1654   22.5968 H   0  0  0  0  0  0  0  0  0  0  0  0
   10.0788    2.5002   23.3679 H   0  0  0  0  0  0  0  0  0  0  0  0
    7.7066    2.4446   21.6485 H   0  0  0  0  0  0  0  0  0  0  0  0
    7.8956    3.0502   23.1532 H   0  0  0  0  0  0  0  0  0  0  0  0
    5.6076    2.4997   22.7165 H   0  0  0  0  0  0  0  0  0  0  0  0
    6.2016    1.6414   23.9723 H   0  0  0  0  0  0  0  0  0  0  0  0
    4.9878    0.1780   22.6606 H   0  0  0  0  0  0  0  0  0  0  0  0
    7.1131   -0.8280   20.3368 H   0  0  0  0  0  0  0  0  0  0  0  0
    6.9441   -0.6528   17.9593 H   0  0  0  0  0  0  0  0  0  0  0  0
    5.4316    0.9197   16.9729 H   0  0  0  0  0  0  0  0  0  0  0  0
    4.0728    2.3101   18.3694 H   0  0  0  0  0  0  0  0  0  0  0  0
    4.2267    2.1440   20.7510 H   0  0  0  0  0  0  0  0  0  0  0  0
    6.6247   -1.4890   22.5730 H   0  0  0  0  0  0  0  0  0  0  0  0
   11.9370   -0.0897   25.5841 H   0  0  0  0  0  0  0  0  0  0  0  0
   11.4517   -0.5260   22.7541 H   0  0  0  0  0  0  0  0  0  0  0  0
   11.6846   -1.7878   23.7642 H   0  0  0  0  0  0  0  0  0  0  0  0
  1  2  2  0  0  0  0
  2  3  1  0  0  0  0
  3  4  1  0  0  0  0
  4  5  1  0  0  0  0
  5  6  1  0  0  0  0
  6  7  1  0  0  0  0
  7  8  1  0  0  0  0
  8  9  2  0  0  0  0
  9 10  1  0  0  0  0
 10 11  2  0  0  0  0
 11 12  1  0  0  0  0
 12 13  2  0  0  0  0
  7 14  1  0  0  0  0
 14 15  1  0  0  0  0
 15 16  2  0  0  0  0
  2 17  1  0  0  0  0
 17 18  1  0  0  0  0
 18 19  1  0  0  0  0
 19 20  1  0  0  0  0
 19 21  1  0  0  0  0
 19 22  1  0  0  0  0
 15  4  1  0  0  0  0
 13  8  1  0  0  0  0
  3 23  1  0  0  0  0
  3 24  1  0  0  0  0
  5 25  1  0  0  0  0
  5 26  1  0  0  0  0
  6 27  1  0  0  0  0
  6 28  1  0  0  0  0
  7 29  1  0  0  0  0
  9 30  1  0  0  0  0
 10 31  1  0  0  0  0
 11 32  1  0  0  0  0
 12 33  1  0  0  0  0
 13 34  1  0  0  0  0
 14 35  1  0  0  0  0
 17 36  1  0  0  0  0
 18 37  1  0  0  0  0
 18 38  1  0  0  0  0
M  END
> <BIOSOLVEIT.HYDE_ESTIMATED_AFFINITY_LOWER_BOUNDARY [nM]>
9393101.848234

> <BIOSOLVEIT.HYDE_ESTIMATED_AFFINITY_UPPER_BOUNDARY [nM]>
933260205.035378

> <BIOSOLVEIT.HYDE_LIGAND_EFFICIENCY range: ++, +, 0, -, -->
--

> <BIOSOLVEIT.HYDE_LIGAND_LIPOPHILIC_EFFICIENCY range: ++, +, 0, -, -->
--

> <BIOSOLVEIT.INTER_CLASH range: red, yellow, green>
yellow

> <BIOSOLVEIT.INTRA_CLASH range: red, yellow, green>
yellow

> <BIOSOLVEIT.LOGP>
2.2469

> <BIOSOLVEIT.MOLECULAR WEIGHT>
376.199

> <BIOSOLVEIT.MOLECULE_CHECKSUM>
LTUuODcxMjI7MC4yNjY4NzQ=

> <BIOSOLVEIT.TORSION_QUALITY range: red, yellow, green, not rotatable>
yellow

> <BIOSOLVEIT.TPSA>
61.44

$$$$
mol_55_1_07
anSeeSAR  04022021533D 1   1.00000     0.00000     0
SeeSAR 9.2 andre
 50 50  0  0  0  0            999 V2000
    4.6565    5.1720   22.6067 C   0  0  0  0  0  0  0  0  0  0  0  0
    4.5979    4.0204   21.6058 C   0  0  0  0  0  0  0  0  0  0  0  0
    5.4708    2.9594   21.9995 O   0  0  0  0  0  0  0  0  0  0  0  0
    5.6990    1.7677   21.2868 C   0  0  0  0  0  0  0  0  0  0  0  0
    6.5809    0.8041   21.8307 C   0  0  0  0  0  0  0  0  0  0  0  0
    7.2560    1.0410   23.1689 C   0  0  0  0  0  0  0  0  0  0  0  0
    7.6794   -0.2143   23.8156 N   0  0  0  0  0  0  0  0  0  0  0  0
    9.1022   -0.5885   23.7701 C   0  0  0  0  0  0  0  0  0  0  0  0
    9.8236   -0.1887   25.0661 C   0  0  1  0  0  0  0  0  0  0  0  0
   11.2648    0.2397   24.7698 C   0  0  0  0  0  0  0  0  0  0  0  0
    9.1347    0.8700   25.6805 O   0  0  0  0  0  0  0  0  0  0  0  0
    6.7446   -1.0311   24.5564 C   0  0  0  0  0  0  0  0  0  0  0  0
    6.9120   -2.2808   24.6110 O   0  0  0  0  0  0  0  0  0  0  0  0
    5.6159   -0.4418   25.2214 N   0  0  0  0  0  0  0  0  0  0  0  0
    5.6599    0.9216   25.7630 C   0  0  2  0  0  0  0  0  0  0  0  0
    5.8855    0.8504   27.2918 C   0  0  0  0  0  0  0  0  0  0  0  0
    7.2160    0.3514   27.6469 N   0  3  0  0  0  0  0  0  0  0  0  0
    4.3722    1.6778   25.3873 C   0  0  0  0  0  0  0  0  0  0  0  0
    3.4160    1.4905   26.3691 F   0  0  0  0  0  0  0  0  0  0  0  0
    4.6222    3.0308   25.2640 F   0  0  0  0  0  0  0  0  0  0  0  0
    3.8603    1.2003   24.1947 F   0  0  0  0  0  0  0  0  0  0  0  0
    6.8777   -0.3566   21.0923 C   0  0  0  0  0  0  0  0  0  0  0  0
    6.2660   -0.5874   19.8588 C   0  0  0  0  0  0  0  0  0  0  0  0
    5.3691    0.3435   19.3386 C   0  0  0  0  0  0  0  0  0  0  0  0
    5.0897    1.5175   20.0403 C   0  0  0  0  0  0  0  0  0  0  0  0
    4.0394    5.9015   22.3120 H   0  0  0  0  0  0  0  0  0  0  0  0
    4.3776    4.8437   23.5092 H   0  0  0  0  0  0  0  0  0  0  0  0
    5.5910    5.5248   22.6545 H   0  0  0  0  0  0  0  0  0  0  0  0
    4.8744    4.3550   20.7049 H   0  0  0  0  0  0  0  0  0  0  0  0
    3.6610    3.6739   21.5596 H   0  0  0  0  0  0  0  0  0  0  0  0
    6.6141    1.5129   23.7732 H   0  0  0  0  0  0  0  0  0  0  0  0
    8.0618    1.6154   23.0246 H   0  0  0  0  0  0  0  0  0  0  0  0
    9.5370   -0.1244   22.9984 H   0  0  0  0  0  0  0  0  0  0  0  0
    9.1754   -1.5783   23.6481 H   0  0  0  0  0  0  0  0  0  0  0  0
    9.8374   -0.9726   25.6868 H   0  0  0  0  0  0  0  0  0  0  0  0
   11.7185    0.4961   25.6232 H   0  0  0  0  0  0  0  0  0  0  0  0
   11.7577   -0.5198   24.3453 H   0  0  0  0  0  0  0  0  0  0  0  0
   11.2587    1.0224   24.1474 H   0  0  0  0  0  0  0  0  0  0  0  0
    9.5990    1.7321   25.4777 H   0  0  0  0  0  0  0  0  0  0  0  0
    4.7760   -0.9758   25.3181 H   0  0  0  0  0  0  0  0  0  0  0  0
    6.4366    1.3988   25.3520 H   0  0  0  0  0  0  0  0  0  0  0  0
    5.1993    0.2403   27.6880 H   0  0  0  0  0  0  0  0  0  0  0  0
    5.7761    1.7680   27.6740 H   0  0  0  0  0  0  0  0  0  0  0  0
    7.9080    0.8392   27.1148 H   0  0  0  0  0  0  0  0  0  0  0  0
    7.3788    0.5010   28.6222 H   0  0  0  0  0  0  0  0  0  0  0  0
    7.2697   -0.6268   27.4463 H   0  0  0  0  0  0  0  0  0  0  0  0
    7.5316   -1.0211   21.4540 H   0  0  0  0  0  0  0  0  0  0  0  0
    6.4719   -1.4220   19.3478 H   0  0  0  0  0  0  0  0  0  0  0  0
    4.9242    0.1701   18.4600 H   0  0  0  0  0  0  0  0  0  0  0  0
    4.4528    2.1858   19.6560 H   0  0  0  0  0  0  0  0  0  0  0  0
  1  2  1  0  0  0  0
  2  3  1  0  0  0  0
  3  4  1  0  0  0  0
  4  5  2  0  0  0  0
  5  6  1  0  0  0  0
  6  7  1  0  0  0  0
  7  8  1  0  0  0  0
  8  9  1  0  0  0  0
  9 10  1  0  0  0  0
  9 11  1  0  0  0  0
  7 12  1  0  0  0  0
 12 13  2  0  0  0  0
 12 14  1  0  0  0  0
 14 15  1  0  0  0  0
 15 16  1  0  0  0  0
 16 17  1  0  0  0  0
 15 18  1  0  0  0  0
 18 19  1  0  0  0  0
 18 20  1  0  0  0  0
 18 21  1  0  0  0  0
  5 22  1  0  0  0  0
 22 23  2  0  0  0  0
 23 24  1  0  0  0  0
 24 25  2  0  0  0  0
 25  4  1  0  0  0  0
  1 26  1  0  0  0  0
  1 27  1  0  0  0  0
  1 28  1  0  0  0  0
  2 29  1  0  0  0  0
  2 30  1  0  0  0  0
  6 31  1  0  0  0  0
  6 32  1  0  0  0  0
  8 33  1  0  0  0  0
  8 34  1  0  0  0  0
  9 35  1  0  0  0  0
 10 36  1  0  0  0  0
 10 37  1  0  0  0  0
 10 38  1  0  0  0  0
 11 39  1  0  0  0  0
 14 40  1  0  0  0  0
 15 41  1  0  0  0  0
 16 42  1  0  0  0  0
 16 43  1  0  0  0  0
 17 44  1  0  0  0  0
 17 45  1  0  0  0  0
 17 46  1  0  0  0  0
 22 47  1  0  0  0  0
 23 48  1  0  0  0  0
 24 49  1  0  0  0  0
 25 50  1  0  0  0  0
M  CHG  1  17   1
M  END
> <BIOSOLVEIT.HYDE_ESTIMATED_AFFINITY_LOWER_BOUNDARY [nM]>
11965808.436242

> <BIOSOLVEIT.HYDE_ESTIMATED_AFFINITY_UPPER_BOUNDARY [nM]>
1188873815.599172

> <BIOSOLVEIT.HYDE_LIGAND_EFFICIENCY range: ++, +, 0, -, -->
--

> <BIOSOLVEIT.HYDE_LIGAND_LIPOPHILIC_EFFICIENCY range: ++, +, 0, -, -->
--

> <BIOSOLVEIT.INTER_CLASH range: red, yellow, green>
green

> <BIOSOLVEIT.INTRA_CLASH range: red, yellow, green>
yellow

> <BIOSOLVEIT.LOGP>
1.1505

> <BIOSOLVEIT.MOLECULAR WEIGHT>
364.386

> <BIOSOLVEIT.MOLECULE_CHECKSUM>
LTUuMjcxMTI7MC4yMTA4NDU=

> <BIOSOLVEIT.TORSION_QUALITY range: red, yellow, green, not rotatable>
red

> <BIOSOLVEIT.TPSA>
89.44

$$$$
mol_10_1_03
anSeeSAR  04022021533D 1   1.00000     0.00000     0
SeeSAR 9.2 andre
 53 54  0  0  0  0            999 V2000
    4.7115    7.5465   25.7541 C   0  0  0  0  0  0  0  0  0  0  0  0
    5.3382    6.1309   25.6515 C   0  0  0  0  0  0  0  0  0  0  0  0
    4.3885    5.1473   26.3710 C   0  0  0  0  0  0  0  0  0  0  0  0
    6.6665    6.1741   26.4445 C   0  0  0  0  0  0  0  0  0  0  0  0
    5.5740    5.7946   24.1899 C   0  0  1  0  0  0  0  0  0  0  0  0
    4.5625    6.5923   23.3742 C   0  0  0  0  0  0  0  0  0  0  0  0
    5.0497    6.9183   21.9695 C   0  0  0  0  0  0  0  0  0  0  0  0
    6.2477    7.8452   22.0548 C   0  0  0  0  0  0  0  0  0  0  0  0
    7.0486    7.5993   23.3244 C   0  0  0  0  0  0  0  0  0  0  0  0
    6.9939    6.1433   23.7702 C   0  0  2  0  0  0  0  0  0  0  0  0
    7.4899    5.2471   22.7157 N   0  0  0  0  0  0  0  0  0  0  0  0
    7.2551    3.8311   22.7075 C   0  0  0  0  0  0  0  0  0  0  0  0
    6.2095    3.3540   23.2279 O   0  0  0  0  0  0  0  0  0  0  0  0
    8.2144    2.9567   22.1006 N   0  0  0  0  0  0  0  0  0  0  0  0
    8.4053    1.5860   22.5743 C   0  0  0  0  0  0  0  0  0  0  0  0
    8.3737    0.5948   21.4058 C   0  0  0  0  0  0  0  0  0  0  0  0
    7.1072    0.7610   20.5823 C   0  0  0  0  0  0  0  0  0  0  0  0
    5.9334    1.1587   21.2132 C   0  0  0  0  0  0  0  0  0  0  0  0
    4.7812    1.3079   20.4486 C   0  0  0  0  0  0  0  0  0  0  0  0
    3.6492    1.6873   21.0333 F   0  0  0  0  0  0  0  0  0  0  0  0
    4.7872    1.0667   19.0790 C   0  0  0  0  0  0  0  0  0  0  0  0
    5.9744    0.6700   18.4724 C   0  0  0  0  0  0  0  0  0  0  0  0
    6.0008    0.4309   17.1441 O   0  0  0  0  0  0  0  0  0  0  0  0
    7.1405    0.5137   19.2139 C   0  0  0  0  0  0  0  0  0  0  0  0
    5.3053    8.2079   25.2959 H   0  0  0  0  0  0  0  0  0  0  0  0
    3.8127    7.5457   25.3157 H   0  0  0  0  0  0  0  0  0  0  0  0
    4.6126    7.7983   26.7168 H   0  0  0  0  0  0  0  0  0  0  0  0
    4.7665    4.2228   26.3219 H   0  0  0  0  0  0  0  0  0  0  0  0
    4.2921    5.4175   27.3290 H   0  0  0  0  0  0  0  0  0  0  0  0
    3.4923    5.1649   25.9279 H   0  0  0  0  0  0  0  0  0  0  0  0
    7.1075    5.2775   26.4053 H   0  0  0  0  0  0  0  0  0  0  0  0
    7.2721    6.8613   26.0431 H   0  0  0  0  0  0  0  0  0  0  0  0
    6.4782    6.4116   27.3975 H   0  0  0  0  0  0  0  0  0  0  0  0
    5.4175    4.8174   24.0462 H   0  0  0  0  0  0  0  0  0  0  0  0
    4.3740    7.4500   23.8524 H   0  0  0  0  0  0  0  0  0  0  0  0
    3.7200    6.0584   23.3026 H   0  0  0  0  0  0  0  0  0  0  0  0
    4.3167    7.3665   21.4577 H   0  0  0  0  0  0  0  0  0  0  0  0
    5.3136    6.0739   21.5034 H   0  0  0  0  0  0  0  0  0  0  0  0
    5.9274    8.7926   22.0502 H   0  0  0  0  0  0  0  0  0  0  0  0
    6.8374    7.6889   21.2624 H   0  0  0  0  0  0  0  0  0  0  0  0
    6.6780    8.1733   24.0546 H   0  0  0  0  0  0  0  0  0  0  0  0
    8.0024    7.8484   23.1562 H   0  0  0  0  0  0  0  0  0  0  0  0
    7.5873    6.0410   24.5686 H   0  0  0  0  0  0  0  0  0  0  0  0
    8.0182    5.6445   21.9653 H   0  0  0  0  0  0  0  0  0  0  0  0
    8.7657    3.2910   21.3362 H   0  0  0  0  0  0  0  0  0  0  0  0
    7.6749    1.3572   23.2178 H   0  0  0  0  0  0  0  0  0  0  0  0
    9.2896    1.5194   23.0364 H   0  0  0  0  0  0  0  0  0  0  0  0
    8.4087   -0.3371   21.7668 H   0  0  0  0  0  0  0  0  0  0  0  0
    9.1678    0.7553   20.8196 H   0  0  0  0  0  0  0  0  0  0  0  0
    5.9181    1.3341   22.1976 H   0  0  0  0  0  0  0  0  0  0  0  0
    3.9524    1.1765   18.5396 H   0  0  0  0  0  0  0  0  0  0  0  0
    6.8567    0.5259   16.6358 H   0  0  0  0  0  0  0  0  0  0  0  0
    7.9899    0.2280   18.7701 H   0  0  0  0  0  0  0  0  0  0  0  0
  1  2  1  0  0  0  0
  2  3  1  0  0  0  0
  2  4  1  0  0  0  0
  2  5  1  0  0  0  0
  5  6  1  0  0  0  0
  6  7  1  0  0  0  0
  7  8  1  0  0  0  0
  8  9  1  0  0  0  0
  9 10  1  0  0  0  0
 10 11  1  0  0  0  0
 11 12  1  0  0  0  0
 12 13  2  0  0  0  0
 12 14  1  0  0  0  0
 14 15  1  0  0  0  0
 15 16  1  0  0  0  0
 16 17  1  0  0  0  0
 17 18  2  0  0  0  0
 18 19  1  0  0  0  0
 19 20  1  0  0  0  0
 19 21  2  0  0  0  0
 21 22  1  0  0  0  0
 22 23  1  0  0  0  0
 22 24  2  0  0  0  0
 10  5  1  0  0  0  0
 24 17  1  0  0  0  0
  1 25  1  0  0  0  0
  1 26  1  0  0  0  0
  1 27  1  0  0  0  0
  3 28  1  0  0  0  0
  3 29  1  0  0  0  0
  3 30  1  0  0  0  0
  4 31  1  0  0  0  0
  4 32  1  0  0  0  0
  4 33  1  0  0  0  0
  5 34  1  0  0  0  0
  6 35  1  0  0  0  0
  6 36  1  0  0  0  0
  7 37  1  0  0  0  0
  7 38  1  0  0  0  0
  8 39  1  0  0  0  0
  8 40  1  0  0  0  0
  9 41  1  0  0  0  0
  9 42  1  0  0  0  0
 10 43  1  0  0  0  0
 11 44  1  0  0  0  0
 14 45  1  0  0  0  0
 15 46  1  0  0  0  0
 15 47  1  0  0  0  0
 16 48  1  0  0  0  0
 16 49  1  0  0  0  0
 18 50  1  0  0  0  0
 21 51  1  0  0  0  0
 23 52  1  0  0  0  0
 24 53  1  0  0  0  0
M  END
> <BIOSOLVEIT.HYDE_ESTIMATED_AFFINITY_LOWER_BOUNDARY [nM]>
12499762.259101

> <BIOSOLVEIT.HYDE_ESTIMATED_AFFINITY_UPPER_BOUNDARY [nM]>
1241925284.885005

> <BIOSOLVEIT.HYDE_LIGAND_EFFICIENCY range: ++, +, 0, -, -->
--

> <BIOSOLVEIT.HYDE_LIGAND_LIPOPHILIC_EFFICIENCY range: ++, +, 0, -, -->
--

> <BIOSOLVEIT.INTER_CLASH range: red, yellow, green>
green

> <BIOSOLVEIT.INTRA_CLASH range: red, yellow, green>
red

> <BIOSOLVEIT.LOGP>
3.9779

> <BIOSOLVEIT.MOLECULAR WEIGHT>
336.448

> <BIOSOLVEIT.MOLECULE_CHECKSUM>
LTUuMTYyOTswLjIxNTEyMQ==

> <BIOSOLVEIT.TORSION_QUALITY range: red, yellow, green, not rotatable>
red

> <BIOSOLVEIT.TPSA>
61.36

$$$$
mol_57_1_05
anSeeSAR  04022021533D 1   1.00000     0.00000     0
SeeSAR 9.2 andre
 45 46  0  0  0  0            999 V2000
    1.4373    1.9336   25.6749 C   0  0  0  0  0  0  0  0  0  0  0  0
    0.6857    2.5376   24.7522 C   0  0  0  0  0  0  0  0  0  0  0  0
    1.2858    3.5218   23.7870 C   0  0  0  0  0  0  0  0  0  0  0  0
    1.0452    3.1075   22.3953 N   0  0  0  0  0  0  0  0  0  0  0  0
   -0.1554    3.5994   21.7061 C   0  0  0  0  0  0  0  0  0  0  0  0
   -1.2783    2.5598   21.7817 C   0  0  0  0  0  0  0  0  0  0  0  0
   -2.4916    3.1104   22.5243 C   0  0  0  0  0  0  0  0  0  0  0  0
    2.0373    2.3615   21.6515 C   0  0  0  0  0  0  0  0  0  0  0  0
    1.6634    1.5556   20.7553 O   0  0  0  0  0  0  0  0  0  0  0  0
    3.4479    2.5111   21.9207 N   0  0  0  0  0  0  0  0  0  0  0  0
    4.3954    1.7374   21.1604 C   0  0  0  0  0  0  0  0  0  0  0  0
    5.4398    1.0133   21.7865 C   0  0  0  0  0  0  0  0  0  0  0  0
    6.2910    0.2214   20.9960 C   0  0  0  0  0  0  0  0  0  0  0  0
    6.1352    0.1661   19.6104 C   0  0  0  0  0  0  0  0  0  0  0  0
    5.1179    0.8908   18.9940 C   0  0  0  0  0  0  0  0  0  0  0  0
    4.2511    1.6673   19.7624 C   0  0  0  0  0  0  0  0  0  0  0  0
    5.6234    0.9956   23.2121 N   0  0  0  0  0  0  0  0  0  0  0  0
    5.6142    2.1770   24.0184 C   0  0  0  0  0  0  0  0  0  0  0  0
    6.6208    2.4410   24.7290 O   0  0  0  0  0  0  0  0  0  0  0  0
    4.3937    3.0362   24.1410 C   0  0  0  0  0  0  0  0  0  0  0  0
    3.9040    3.5982   22.8046 C   0  0  1  0  0  0  0  0  0  0  0  0
    4.9464    4.4964   22.1186 C   0  0  0  0  0  0  0  0  0  0  0  0
    1.0222    1.2815   26.3093 H   0  0  0  0  0  0  0  0  0  0  0  0
    2.4155    2.1332   25.7319 H   0  0  0  0  0  0  0  0  0  0  0  0
   -0.2917    2.3324   24.7020 H   0  0  0  0  0  0  0  0  0  0  0  0
    2.2715    3.5768   23.9463 H   0  0  0  0  0  0  0  0  0  0  0  0
    0.8733    4.4203   23.9369 H   0  0  0  0  0  0  0  0  0  0  0  0
    0.0649    3.7774   20.7470 H   0  0  0  0  0  0  0  0  0  0  0  0
   -0.4609    4.4467   22.1407 H   0  0  0  0  0  0  0  0  0  0  0  0
   -0.9414    1.7503   22.2625 H   0  0  0  0  0  0  0  0  0  0  0  0
   -1.5513    2.3066   20.8536 H   0  0  0  0  0  0  0  0  0  0  0  0
   -3.2068    2.4123   22.5582 H   0  0  0  0  0  0  0  0  0  0  0  0
   -2.2268    3.3618   23.4553 H   0  0  0  0  0  0  0  0  0  0  0  0
   -2.8367    3.9181   22.0463 H   0  0  0  0  0  0  0  0  0  0  0  0
    7.0176   -0.3092   21.4324 H   0  0  0  0  0  0  0  0  0  0  0  0
    6.7541   -0.3940   19.0598 H   0  0  0  0  0  0  0  0  0  0  0  0
    5.0091    0.8542   18.0006 H   0  0  0  0  0  0  0  0  0  0  0  0
    3.5186    2.1803   19.3148 H   0  0  0  0  0  0  0  0  0  0  0  0
    5.7645    0.1138   23.6623 H   0  0  0  0  0  0  0  0  0  0  0  0
    4.6061    3.8024   24.7475 H   0  0  0  0  0  0  0  0  0  0  0  0
    3.6597    2.4877   24.5414 H   0  0  0  0  0  0  0  0  0  0  0  0
    3.1076    4.1702   23.0011 H   0  0  0  0  0  0  0  0  0  0  0  0
    4.5767    4.8353   21.2535 H   0  0  0  0  0  0  0  0  0  0  0  0
    5.1635    5.2698   22.7141 H   0  0  0  0  0  0  0  0  0  0  0  0
    5.7770    3.9682   21.9420 H   0  0  0  0  0  0  0  0  0  0  0  0
  1  2  2  0  0  0  0
  2  3  1  0  0  0  0
  3  4  1  0  0  0  0
  4  5  1  0  0  0  0
  5  6  1  0  0  0  0
  6  7  1  0  0  0  0
  4  8  1  0  0  0  0
  8  9  2  0  0  0  0
  8 10  1  0  0  0  0
 10 11  1  0  0  0  0
 11 12  2  0  0  0  0
 12 13  1  0  0  0  0
 13 14  2  0  0  0  0
 14 15  1  0  0  0  0
 15 16  2  0  0  0  0
 12 17  1  0  0  0  0
 17 18  1  0  0  0  0
 18 19  2  0  0  0  0
 18 20  1  0  0  0  0
 20 21  1  0  0  0  0
 21 22  1  0  0  0  0
 21 10  1  0  0  0  0
 16 11  1  0  0  0  0
  1 23  1  0  0  0  0
  1 24  1  0  0  0  0
  2 25  1  0  0  0  0
  3 26  1  0  0  0  0
  3 27  1  0  0  0  0
  5 28  1  0  0  0  0
  5 29  1  0  0  0  0
  6 30  1  0  0  0  0
  6 31  1  0  0  0  0
  7 32  1  0  0  0  0
  7 33  1  0  0  0  0
  7 34  1  0  0  0  0
 13 35  1  0  0  0  0
 14 36  1  0  0  0  0
 15 37  1  0  0  0  0
 16 38  1  0  0  0  0
 17 39  1  0  0  0  0
 20 40  1  0  0  0  0
 20 41  1  0  0  0  0
 21 42  1  0  0  0  0
 22 43  1  0  0  0  0
 22 44  1  0  0  0  0
 22 45  1  0  0  0  0
M  END
> <BIOSOLVEIT.HYDE_ESTIMATED_AFFINITY_LOWER_BOUNDARY [nM]>
12504189.378340

> <BIOSOLVEIT.HYDE_ESTIMATED_AFFINITY_UPPER_BOUNDARY [nM]>
1242365145.356617

> <BIOSOLVEIT.HYDE_LIGAND_EFFICIENCY range: ++, +, 0, -, -->
--

> <BIOSOLVEIT.HYDE_LIGAND_LIPOPHILIC_EFFICIENCY range: ++, +, 0, -, -->
--

> <BIOSOLVEIT.INTER_CLASH range: red, yellow, green>
green

> <BIOSOLVEIT.INTRA_CLASH range: red, yellow, green>
red

> <BIOSOLVEIT.LOGP>
3.2417

> <BIOSOLVEIT.MOLECULAR WEIGHT>
301.388

> <BIOSOLVEIT.MOLECULE_CHECKSUM>
LTUuMTYyMDI7MC4yMzQ2Mzc=

> <BIOSOLVEIT.TORSION_QUALITY range: red, yellow, green, not rotatable>
yellow

> <BIOSOLVEIT.TPSA>
52.65

$$$$
mol_61_1_03
anSeeSAR  04022021533D 1   1.00000     0.00000     0
SeeSAR 9.2 andre
 38 38  0  0  0  0            999 V2000
   12.0423    6.1194   24.7742 C   0  0  0  0  0  0  0  0  0  0  0  0
   10.6495    5.8072   25.0738 N   0  0  0  0  0  0  0  0  0  0  0  0
    9.7694    5.2057   24.1140 C   0  0  0  0  0  0  0  0  0  0  0  0
    8.7201    6.1557   23.2866 S   0  0  0  0  0  0  0  0  0  0  0  0
    9.8042    3.7886   23.8625 N   0  0  0  0  0  0  0  0  0  0  0  0
   11.0880    3.1237   23.6505 C   0  0  0  0  0  0  0  0  0  0  0  0
    8.6188    3.0305   23.7665 N   0  0  0  0  0  0  0  0  0  0  0  0
    8.2893    1.9715   24.6800 C   0  0  0  0  0  0  0  0  0  0  0  0
    9.0736    1.6792   25.6236 O   0  0  0  0  0  0  0  0  0  0  0  0
    6.9602    1.2708   24.5571 C   0  0  1  0  0  0  0  0  0  0  0  0
    5.8478    2.1923   24.8159 N   0  0  0  0  0  0  0  0  0  0  0  0
    4.7562    1.8591   25.6850 C   0  0  0  0  0  0  0  0  0  0  0  0
    4.7474    0.5490   26.4021 C   0  0  0  0  0  0  0  0  0  0  0  0
    3.8192    2.6795   25.8811 O   0  0  0  0  0  0  0  0  0  0  0  0
    6.8144    0.6543   23.1750 C   0  0  0  0  0  0  0  0  0  0  0  0
    7.5073   -0.5127   22.8699 C   0  0  0  0  0  0  0  0  0  0  0  0
    7.3679   -1.0692   21.6028 C   0  0  0  0  0  0  0  0  0  0  0  0
    6.5500   -0.4757   20.6474 C   0  0  0  0  0  0  0  0  0  0  0  0
    5.8664    0.6906   20.9741 C   0  0  0  0  0  0  0  0  0  0  0  0
    4.7089    1.5446   19.6426 Br  0  0  0  0  0  0  0  0  0  0  0  0
    5.9915    1.2650   22.2346 C   0  0  0  0  0  0  0  0  0  0  0  0
   12.4720    6.5309   25.5779 H   0  0  0  0  0  0  0  0  0  0  0  0
   12.5271    5.2795   24.5303 H   0  0  0  0  0  0  0  0  0  0  0  0
   12.0827    6.7618   24.0089 H   0  0  0  0  0  0  0  0  0  0  0  0
   10.2943    6.0208   25.9838 H   0  0  0  0  0  0  0  0  0  0  0  0
   10.9359    2.1484   23.4905 H   0  0  0  0  0  0  0  0  0  0  0  0
   11.5438    3.5247   22.8559 H   0  0  0  0  0  0  0  0  0  0  0  0
   11.6629    3.2430   24.4599 H   0  0  0  0  0  0  0  0  0  0  0  0
    7.9777    3.2397   23.0281 H   0  0  0  0  0  0  0  0  0  0  0  0
    6.9264    0.5367   25.2354 H   0  0  0  0  0  0  0  0  0  0  0  0
    5.8509    3.0870   24.3693 H   0  0  0  0  0  0  0  0  0  0  0  0
    3.9207    0.4802   26.9605 H   0  0  0  0  0  0  0  0  0  0  0  0
    4.7621   -0.1961   25.7353 H   0  0  0  0  0  0  0  0  0  0  0  0
    5.5534    0.4857   26.9906 H   0  0  0  0  0  0  0  0  0  0  0  0
    8.0971   -0.9453   23.5517 H   0  0  0  0  0  0  0  0  0  0  0  0
    7.8629   -1.9079   21.3757 H   0  0  0  0  0  0  0  0  0  0  0  0
    6.4546   -0.8818   19.7385 H   0  0  0  0  0  0  0  0  0  0  0  0
    5.4974    2.1043   22.4613 H   0  0  0  0  0  0  0  0  0  0  0  0
  1  2  1  0  0  0  0
  2  3  1  0  0  0  0
  3  4  2  0  0  0  0
  3  5  1  0  0  0  0
  5  6  1  0  0  0  0
  5  7  1  0  0  0  0
  7  8  1  0  0  0  0
  8  9  2  0  0  0  0
  8 10  1  0  0  0  0
 10 11  1  0  0  0  0
 11 12  1  0  0  0  0
 12 13  1  0  0  0  0
 12 14  2  0  0  0  0
 10 15  1  0  0  0  0
 15 16  2  0  0  0  0
 16 17  1  0  0  0  0
 17 18  2  0  0  0  0
 18 19  1  0  0  0  0
 19 20  1  0  0  0  0
 19 21  2  0  0  0  0
 21 15  1  0  0  0  0
  1 22  1  0  0  0  0
  1 23  1  0  0  0  0
  1 24  1  0  0  0  0
  2 25  1  0  0  0  0
  6 26  1  0  0  0  0
  6 27  1  0  0  0  0
  6 28  1  0  0  0  0
  7 29  1  0  0  0  0
 10 30  1  0  0  0  0
 11 31  1  0  0  0  0
 13 32  1  0  0  0  0
 13 33  1  0  0  0  0
 13 34  1  0  0  0  0
 16 35  1  0  0  0  0
 17 36  1  0  0  0  0
 18 37  1  0  0  0  0
 21 38  1  0  0  0  0
M  END
> <BIOSOLVEIT.HYDE_ESTIMATED_AFFINITY_LOWER_BOUNDARY [nM]>
13381983.713947

> <BIOSOLVEIT.HYDE_ESTIMATED_AFFINITY_UPPER_BOUNDARY [nM]>
1329579202.530023

> <BIOSOLVEIT.HYDE_LIGAND_EFFICIENCY range: ++, +, 0, -, -->
--

> <BIOSOLVEIT.HYDE_LIGAND_LIPOPHILIC_EFFICIENCY range: ++, +, 0, -, -->
--

> <BIOSOLVEIT.INTER_CLASH range: red, yellow, green>
green

> <BIOSOLVEIT.INTRA_CLASH range: red, yellow, green>
green

> <BIOSOLVEIT.LOGP>
1.0936

> <BIOSOLVEIT.MOLECULAR WEIGHT>
373.272

> <BIOSOLVEIT.MOLECULE_CHECKSUM>
LTQuOTkzODQ7MC4yMzc4MDI=

> <BIOSOLVEIT.TORSION_QUALITY range: red, yellow, green, not rotatable>
red

> <BIOSOLVEIT.TPSA>
73.47

$$$$
mol_64_1_02
anSeeSAR  04022021533D 1   1.00000     0.00000     0
SeeSAR 9.2 andre
 66 67  0  0  0  0            999 V2000
    4.2620    2.6161   25.1203 C   0  0  0  0  0  0  0  0  0  0  0  0
    4.9888    1.3206   24.9609 C   0  0  0  0  0  0  0  0  0  0  0  0
    4.5422    0.2815   25.5187 O   0  0  0  0  0  0  0  0  0  0  0  0
    6.1862    1.2654   24.1733 N   0  0  0  0  0  0  0  0  0  0  0  0
    6.5852    0.0571   23.4442 C   0  0  2  0  0  0  0  0  0  0  0  0
    8.0440   -0.3165   23.7807 C   0  0  0  0  0  0  0  0  0  0  0  0
    8.2730   -0.3736   25.2649 C   0  0  0  0  0  0  0  0  0  0  0  0
    9.3724    0.0146   25.7430 O   0  0  0  0  0  0  0  0  0  0  0  0
    7.2514   -0.8718   26.1337 N   0  0  0  0  0  0  0  0  0  0  0  0
    7.1451   -0.3954   27.4542 N   0  0  0  0  0  0  0  0  0  0  0  0
    8.2011   -0.9646   28.3083 C   0  0  0  0  0  0  0  0  0  0  0  0
    8.1284   -0.4401   29.7355 C   0  0  0  0  0  0  0  0  0  0  0  0
    6.9725    0.5299   29.9211 C   0  0  0  0  0  0  0  0  0  0  0  0
    6.9817    1.0664   31.2359 O   0  0  0  0  0  0  0  0  0  0  0  0
    6.2156    0.0131   32.3895 Si  0  0  0  0  0  0  0  0  0  0  0  0
    5.0875    0.9762   33.5387 C   0  0  0  0  0  0  0  0  0  0  0  0
    5.1911   -1.2607   31.4739 C   0  0  0  0  0  0  0  0  0  0  0  0
    7.5866   -0.8393   33.3939 C   0  0  0  0  0  0  0  0  0  0  0  0
    8.8181    0.0806   33.4531 C   0  0  0  0  0  0  0  0  0  0  0  0
    7.9732   -2.1741   32.7347 C   0  0  0  0  0  0  0  0  0  0  0  0
    7.0768   -1.1003   34.8219 C   0  0  0  0  0  0  0  0  0  0  0  0
    7.0921    1.6352   28.8844 C   0  0  0  0  0  0  0  0  0  0  0  0
    7.1588    1.0760   27.4687 C   0  0  0  0  0  0  0  0  0  0  0  0
    6.3971    0.2708   21.9510 C   0  0  0  0  0  0  0  0  0  0  0  0
    7.2945   -0.3119   21.0614 C   0  0  0  0  0  0  0  0  0  0  0  0
    7.1358   -0.1270   19.6919 C   0  0  0  0  0  0  0  0  0  0  0  0
    6.0746    0.6442   19.2308 C   0  0  0  0  0  0  0  0  0  0  0  0
    5.8575    0.8908   17.4812 Cl  0  0  0  0  0  0  0  0  0  0  0  0
    5.1766    1.2271   20.1183 C   0  0  0  0  0  0  0  0  0  0  0  0
    5.3363    1.0414   21.4875 C   0  0  0  0  0  0  0  0  0  0  0  0
    4.7454    3.3335   24.6186 H   0  0  0  0  0  0  0  0  0  0  0  0
    3.3340    2.5243   24.7592 H   0  0  0  0  0  0  0  0  0  0  0  0
    4.2200    2.8577   26.0898 H   0  0  0  0  0  0  0  0  0  0  0  0
    6.7678    2.0771   24.1195 H   0  0  0  0  0  0  0  0  0  0  0  0
    5.9926   -0.6951   23.7322 H   0  0  0  0  0  0  0  0  0  0  0  0
    8.6542    0.3695   23.3845 H   0  0  0  0  0  0  0  0  0  0  0  0
    8.2487   -1.2123   23.3862 H   0  0  0  0  0  0  0  0  0  0  0  0
    6.6091   -1.5623   25.8011 H   0  0  0  0  0  0  0  0  0  0  0  0
    9.0920   -0.7256   27.9220 H   0  0  0  0  0  0  0  0  0  0  0  0
    8.1010   -1.9594   28.3250 H   0  0  0  0  0  0  0  0  0  0  0  0
    8.9839    0.0304   29.9517 H   0  0  0  0  0  0  0  0  0  0  0  0
    8.0062   -1.2126   30.3587 H   0  0  0  0  0  0  0  0  0  0  0  0
    6.1122    0.0409   29.7763 H   0  0  0  0  0  0  0  0  0  0  0  0
    4.6609    0.3488   34.1901 H   0  0  0  0  0  0  0  0  0  0  0  0
    5.6226    1.6595   34.0356 H   0  0  0  0  0  0  0  0  0  0  0  0
    4.3779    1.4338   33.0030 H   0  0  0  0  0  0  0  0  0  0  0  0
    4.7485   -1.8687   32.1330 H   0  0  0  0  0  0  0  0  0  0  0  0
    4.4936   -0.7972   30.9275 H   0  0  0  0  0  0  0  0  0  0  0  0
    5.7843   -1.7960   30.8727 H   0  0  0  0  0  0  0  0  0  0  0  0
    9.5416   -0.3645   33.9807 H   0  0  0  0  0  0  0  0  0  0  0  0
    9.1447    0.2605   32.5252 H   0  0  0  0  0  0  0  0  0  0  0  0
    8.5685    0.9439   33.8918 H   0  0  0  0  0  0  0  0  0  0  0  0
    8.6942   -2.6138   33.2703 H   0  0  0  0  0  0  0  0  0  0  0  0
    7.1727   -2.7723   32.6988 H   0  0  0  0  0  0  0  0  0  0  0  0
    8.3041   -2.0040   31.8065 H   0  0  0  0  0  0  0  0  0  0  0  0
    7.7940   -1.5487   35.3552 H   0  0  0  0  0  0  0  0  0  0  0  0
    6.8346   -0.2313   35.2534 H   0  0  0  0  0  0  0  0  0  0  0  0
    6.2703   -1.6904   34.7852 H   0  0  0  0  0  0  0  0  0  0  0  0
    7.9239    2.1601   29.0650 H   0  0  0  0  0  0  0  0  0  0  0  0
    6.2962    2.2361   28.9583 H   0  0  0  0  0  0  0  0  0  0  0  0
    8.0016    1.3950   27.0353 H   0  0  0  0  0  0  0  0  0  0  0  0
    6.3708    1.4110   26.9522 H   0  0  0  0  0  0  0  0  0  0  0  0
    8.0537   -0.8638   21.4066 H   0  0  0  0  0  0  0  0  0  0  0  0
    7.7767   -0.5433   19.0471 H   0  0  0  0  0  0  0  0  0  0  0  0
    4.4174    1.7787   19.7728 H   0  0  0  0  0  0  0  0  0  0  0  0
    4.6949    1.4577   22.1319 H   0  0  0  0  0  0  0  0  0  0  0  0
  1  2  1  0  0  0  0
  2  3  2  0  0  0  0
  2  4  1  0  0  0  0
  4  5  1  0  0  0  0
  5  6  1  0  0  0  0
  6  7  1  0  0  0  0
  7  8  2  0  0  0  0
  7  9  1  0  0  0  0
  9 10  1  0  0  0  0
 10 11  1  0  0  0  0
 11 12  1  0  0  0  0
 12 13  1  0  0  0  0
 13 14  1  0  0  0  0
 14 15  1  0  0  0  0
 15 16  1  0  0  0  0
 15 17  1  0  0  0  0
 15 18  1  0  0  0  0
 18 19  1  0  0  0  0
 18 20  1  0  0  0  0
 18 21  1  0  0  0  0
 13 22  1  0  0  0  0
 22 23  1  0  0  0  0
  5 24  1  0  0  0  0
 24 25  2  0  0  0  0
 25 26  1  0  0  0  0
 26 27  2  0  0  0  0
 27 28  1  0  0  0  0
 27 29  1  0  0  0  0
 29 30  2  0  0  0  0
 23 10  1  0  0  0  0
 30 24  1  0  0  0  0
  1 31  1  0  0  0  0
  1 32  1  0  0  0  0
  1 33  1  0  0  0  0
  4 34  1  0  0  0  0
  5 35  1  0  0  0  0
  6 36  1  0  0  0  0
  6 37  1  0  0  0  0
  9 38  1  0  0  0  0
 11 39  1  0  0  0  0
 11 40  1  0  0  0  0
 12 41  1  0  0  0  0
 12 42  1  0  0  0  0
 13 43  1  0  0  0  0
 16 44  1  0  0  0  0
 16 45  1  0  0  0  0
 16 46  1  0  0  0  0
 17 47  1  0  0  0  0
 17 48  1  0  0  0  0
 17 49  1  0  0  0  0
 19 50  1  0  0  0  0
 19 51  1  0  0  0  0
 19 52  1  0  0  0  0
 20 53  1  0  0  0  0
 20 54  1  0  0  0  0
 20 55  1  0  0  0  0
 21 56  1  0  0  0  0
 21 57  1  0  0  0  0
 21 58  1  0  0  0  0
 22 59  1  0  0  0  0
 22 60  1  0  0  0  0
 23 61  1  0  0  0  0
 23 62  1  0  0  0  0
 25 63  1  0  0  0  0
 26 64  1  0  0  0  0
 29 65  1  0  0  0  0
 30 66  1  0  0  0  0
M  END
> <BIOSOLVEIT.HYDE_ESTIMATED_AFFINITY_LOWER_BOUNDARY [nM]>
14380456.412201

> <BIOSOLVEIT.HYDE_ESTIMATED_AFFINITY_UPPER_BOUNDARY [nM]>
1428783368.539344

> <BIOSOLVEIT.HYDE_LIGAND_EFFICIENCY range: ++, +, 0, -, -->
--

> <BIOSOLVEIT.HYDE_LIGAND_LIPOPHILIC_EFFICIENCY range: ++, +, 0, -, -->
--

> <BIOSOLVEIT.INTER_CLASH range: red, yellow, green>
green

> <BIOSOLVEIT.INTRA_CLASH range: red, yellow, green>
green

> <BIOSOLVEIT.LOGP>
4.4247

> <BIOSOLVEIT.MOLECULAR WEIGHT>
454.083

> <BIOSOLVEIT.MOLECULE_CHECKSUM>
LTQuODE1NDU7MC4xNjA1MTU=

> <BIOSOLVEIT.TORSION_QUALITY range: red, yellow, green, not rotatable>
red

> <BIOSOLVEIT.TPSA>
70.67

$$$$
mol_92_1_10
anSeeSAR  04022021533D 1   1.00000     0.00000     0
SeeSAR 9.2 andre
 38 38  0  0  0  0            999 V2000
   13.4800   -0.5109   24.2105 C   0  0  0  0  0  0  0  0  0  0  0  0
   12.1784    0.2826   24.1458 C   0  0  0  0  0  0  0  0  0  0  0  0
   12.0982    1.1096   22.8575 C   0  0  0  0  0  0  0  0  0  0  0  0
   10.7814    1.8281   22.7613 C   0  0  0  0  0  0  0  0  0  0  0  0
   10.5326    3.0672   23.5754 C   0  0  0  0  0  0  0  0  0  0  0  0
    9.8638    1.3605   21.9718 N   0  0  0  0  0  0  0  0  0  0  0  0
    8.6360    1.9726   21.8390 O   0  0  0  0  0  0  0  0  0  0  0  0
    7.4365    1.2257   21.9840 C   0  0  0  0  0  0  0  0  0  0  0  0
    6.8136    0.9799   20.6371 C   0  0  0  0  0  0  0  0  0  0  0  0
    7.3815    0.0595   19.7434 C   0  0  0  0  0  0  0  0  0  0  0  0
    6.8070   -0.1448   18.4869 C   0  0  0  0  0  0  0  0  0  0  0  0
    5.6588    0.5594   18.1154 C   0  0  0  0  0  0  0  0  0  0  0  0
    5.0644    1.4688   19.0085 C   0  0  0  0  0  0  0  0  0  0  0  0
    3.8980    2.2264   18.6428 N   0  0  0  0  0  0  0  0  0  0  0  0
    2.8370    2.5609   19.5506 C   0  0  0  0  0  0  0  0  0  0  0  0
    1.7170    3.4378   19.0939 C   0  0  0  0  0  0  0  0  0  0  0  0
    2.8804    2.1922   20.7552 O   0  0  0  0  0  0  0  0  0  0  0  0
    5.6598    1.6854   20.2608 C   0  0  0  0  0  0  0  0  0  0  0  0
   13.5061   -1.0399   25.0587 H   0  0  0  0  0  0  0  0  0  0  0  0
   13.5310   -1.1321   23.4285 H   0  0  0  0  0  0  0  0  0  0  0  0
   14.2561    0.1193   24.1867 H   0  0  0  0  0  0  0  0  0  0  0  0
   12.1320    0.8984   24.9323 H   0  0  0  0  0  0  0  0  0  0  0  0
   11.4069   -0.3530   24.1741 H   0  0  0  0  0  0  0  0  0  0  0  0
   12.1967    0.5002   22.0708 H   0  0  0  0  0  0  0  0  0  0  0  0
   12.8388    1.7816   22.8534 H   0  0  0  0  0  0  0  0  0  0  0  0
    9.6121    3.4100   23.3878 H   0  0  0  0  0  0  0  0  0  0  0  0
   10.6155    2.8494   24.5479 H   0  0  0  0  0  0  0  0  0  0  0  0
   11.2047    3.7665   23.3320 H   0  0  0  0  0  0  0  0  0  0  0  0
    6.7956    1.7374   22.5562 H   0  0  0  0  0  0  0  0  0  0  0  0
    7.6435    0.3487   22.4175 H   0  0  0  0  0  0  0  0  0  0  0  0
    8.1997   -0.4515   20.0066 H   0  0  0  0  0  0  0  0  0  0  0  0
    7.2188   -0.7975   17.8509 H   0  0  0  0  0  0  0  0  0  0  0  0
    5.2579    0.4162   17.2106 H   0  0  0  0  0  0  0  0  0  0  0  0
    3.8210    2.5402   17.6964 H   0  0  0  0  0  0  0  0  0  0  0  0
    1.0693    3.5693   19.8444 H   0  0  0  0  0  0  0  0  0  0  0  0
    2.0823    4.3243   18.8097 H   0  0  0  0  0  0  0  0  0  0  0  0
    1.2497    3.0069   18.3220 H   0  0  0  0  0  0  0  0  0  0  0  0
    5.2579    2.3491   20.8916 H   0  0  0  0  0  0  0  0  0  0  0  0
  1  2  1  0  0  0  0
  2  3  1  0  0  0  0
  3  4  1  0  0  0  0
  4  5  1  0  0  0  0
  4  6  2  0  0  0  0
  6  7  1  0  0  0  0
  7  8  1  0  0  0  0
  8  9  1  0  0  0  0
  9 10  2  0  0  0  0
 10 11  1  0  0  0  0
 11 12  2  0  0  0  0
 12 13  1  0  0  0  0
 13 14  1  0  0  0  0
 14 15  1  0  0  0  0
 15 16  1  0  0  0  0
 15 17  2  0  0  0  0
 13 18  2  0  0  0  0
 18  9  1  0  0  0  0
  1 19  1  0  0  0  0
  1 20  1  0  0  0  0
  1 21  1  0  0  0  0
  2 22  1  0  0  0  0
  2 23  1  0  0  0  0
  3 24  1  0  0  0  0
  3 25  1  0  0  0  0
  5 26  1  0  0  0  0
  5 27  1  0  0  0  0
  5 28  1  0  0  0  0
  8 29  1  0  0  0  0
  8 30  1  0  0  0  0
 10 31  1  0  0  0  0
 11 32  1  0  0  0  0
 12 33  1  0  0  0  0
 14 34  1  0  0  0  0
 16 35  1  0  0  0  0
 16 36  1  0  0  0  0
 16 37  1  0  0  0  0
 18 38  1  0  0  0  0
M  END
> <BIOSOLVEIT.HYDE_ESTIMATED_AFFINITY_LOWER_BOUNDARY [nM]>
18546692.040884

> <BIOSOLVEIT.HYDE_ESTIMATED_AFFINITY_UPPER_BOUNDARY [nM]>
1842723510.983510

> <BIOSOLVEIT.HYDE_LIGAND_EFFICIENCY range: ++, +, 0, -, -->
--

> <BIOSOLVEIT.HYDE_LIGAND_LIPOPHILIC_EFFICIENCY range: ++, +, 0, -, -->
--

> <BIOSOLVEIT.INTER_CLASH range: red, yellow, green>
green

> <BIOSOLVEIT.INTRA_CLASH range: red, yellow, green>
yellow

> <BIOSOLVEIT.LOGP>
3.3376

> <BIOSOLVEIT.MOLECULAR WEIGHT>
248.324

> <BIOSOLVEIT.MOLECULE_CHECKSUM>
LTQuMTg0NzU7MC4yMzI0ODY=

> <BIOSOLVEIT.TORSION_QUALITY range: red, yellow, green, not rotatable>
red

> <BIOSOLVEIT.TPSA>
50.69

$$$$
mol_16_1_10
anSeeSAR  04022021533D 1   1.00000     0.00000     0
SeeSAR 9.2 andre
 32 32  0  0  0  0            999 V2000
    7.4603    5.9885   21.6984 C   0  0  0  0  0  0  0  0  0  0  0  0
    7.0110    4.6099   22.0569 C   0  0  0  0  0  0  0  0  0  0  0  0
    5.8008    4.4032   22.3447 O   0  0  0  0  0  0  0  0  0  0  0  0
    7.9560    3.5306   22.0705 N   0  0  0  0  0  0  0  0  0  0  0  0
    7.5671    2.1594   22.4136 C   0  0  1  0  0  0  0  0  0  0  0  0
    8.6215    1.1585   21.9029 C   0  0  0  0  0  0  0  0  0  0  0  0
    9.9832    1.4455   22.4660 C   0  0  0  0  0  0  0  0  0  0  0  0
   10.8291    0.5113   22.9935 C   0  0  0  0  0  0  0  0  0  0  0  0
   11.9515    1.1837   23.3813 N   0  0  0  0  0  0  0  0  0  0  0  0
   11.7512    2.5036   23.0838 C   0  0  0  0  0  0  0  0  0  0  0  0
   10.5724    2.6729   22.5179 N   0  0  0  0  0  0  0  0  0  0  0  0
    7.3968    2.0430   23.9075 C   0  0  0  0  0  0  0  0  0  0  0  0
    7.8198    2.9677   24.6543 O   0  0  0  0  0  0  0  0  0  0  0  0
    6.7566    0.8894   24.4732 N   0  0  0  0  0  0  0  0  0  0  0  0
    5.9929    0.9323   25.7203 C   0  0  0  0  0  0  0  0  0  0  0  0
    6.9198    0.8183   26.9318 C   0  0  0  0  0  0  0  0  0  0  0  0
    7.1513    2.0800   27.4483 F   0  0  0  0  0  0  0  0  0  0  0  0
    8.1291    0.2628   26.5531 F   0  0  0  0  0  0  0  0  0  0  0  0
    6.1243   -0.2779   28.3214 Br  0  0  0  0  0  0  0  0  0  0  0  0
    8.4403    5.9785   21.4995 H   0  0  0  0  0  0  0  0  0  0  0  0
    6.9597    6.3030   20.8918 H   0  0  0  0  0  0  0  0  0  0  0  0
    7.2817    6.6068   22.4637 H   0  0  0  0  0  0  0  0  0  0  0  0
    8.9102    3.7196   21.8385 H   0  0  0  0  0  0  0  0  0  0  0  0
    6.6922    1.9551   21.9745 H   0  0  0  0  0  0  0  0  0  0  0  0
    8.6653    1.2156   20.9055 H   0  0  0  0  0  0  0  0  0  0  0  0
    8.3481    0.2351   22.1722 H   0  0  0  0  0  0  0  0  0  0  0  0
   10.6594   -0.4705   23.0786 H   0  0  0  0  0  0  0  0  0  0  0  0
   12.7665    0.7865   23.8032 H   0  0  0  0  0  0  0  0  0  0  0  0
   12.4059    3.2364   23.2693 H   0  0  0  0  0  0  0  0  0  0  0  0
    6.8362    0.0161   23.9926 H   0  0  0  0  0  0  0  0  0  0  0  0
    5.3430    0.1724   25.7326 H   0  0  0  0  0  0  0  0  0  0  0  0
    5.4946    1.7979   25.7696 H   0  0  0  0  0  0  0  0  0  0  0  0
  1  2  1  0  0  0  0
  2  3  2  0  0  0  0
  2  4  1  0  0  0  0
  4  5  1  0  0  0  0
  5  6  1  0  0  0  0
  6  7  1  0  0  0  0
  7  8  2  0  0  0  0
  8  9  1  0  0  0  0
  9 10  1  0  0  0  0
 10 11  2  0  0  0  0
  5 12  1  0  0  0  0
 12 13  2  0  0  0  0
 12 14  1  0  0  0  0
 14 15  1  0  0  0  0
 15 16  1  0  0  0  0
 16 17  1  0  0  0  0
 16 18  1  0  0  0  0
 16 19  1  0  0  0  0
 11  7  1  0  0  0  0
  1 20  1  0  0  0  0
  1 21  1  0  0  0  0
  1 22  1  0  0  0  0
  4 23  1  0  0  0  0
  5 24  1  0  0  0  0
  6 25  1  0  0  0  0
  6 26  1  0  0  0  0
  8 27  1  0  0  0  0
  9 28  1  0  0  0  0
 10 29  1  0  0  0  0
 14 30  1  0  0  0  0
 15 31  1  0  0  0  0
 15 32  1  0  0  0  0
M  END
> <BIOSOLVEIT.HYDE_ESTIMATED_AFFINITY_LOWER_BOUNDARY [nM]>
22248071.210792

> <BIOSOLVEIT.HYDE_ESTIMATED_AFFINITY_UPPER_BOUNDARY [nM]>
2210477415.799519

> <BIOSOLVEIT.HYDE_LIGAND_EFFICIENCY range: ++, +, 0, -, -->
--

> <BIOSOLVEIT.HYDE_LIGAND_LIPOPHILIC_EFFICIENCY range: ++, +, 0, -, -->
--

> <BIOSOLVEIT.INTER_CLASH range: red, yellow, green>
green

> <BIOSOLVEIT.INTRA_CLASH range: red, yellow, green>
green

> <BIOSOLVEIT.LOGP>
0.5608

> <BIOSOLVEIT.MOLECULAR WEIGHT>
339.139

> <BIOSOLVEIT.MOLECULE_CHECKSUM>
LTMuNzMzNjc7MC4xOTY1MDk=

> <BIOSOLVEIT.TORSION_QUALITY range: red, yellow, green, not rotatable>
yellow

> <BIOSOLVEIT.TPSA>
86.88

$$$$
mol_20_1_03
anSeeSAR  04022021533D 1   1.00000     0.00000     0
SeeSAR 9.2 andre
 52 54  0  0  0  0            999 V2000
   13.7024    1.2651   22.7730 C   0  0  0  0  0  0  0  0  0  0  0  0
   12.8310    0.1416   23.2995 C   0  0  1  0  0  0  0  0  0  0  0  0
   12.7594    0.1280   24.8223 C   0  0  0  0  0  0  0  0  0  0  0  0
   11.3180    0.0425   25.3081 C   0  0  0  0  0  0  0  0  0  0  0  0
   10.5049   -0.9979   24.5500 C   0  0  0  0  0  0  0  0  0  0  0  0
   11.1072   -1.3571   23.1945 C   0  0  1  0  0  0  0  0  0  0  0  0
   10.0123   -2.0772   22.3759 C   0  0  0  0  0  0  0  0  0  0  0  0
    8.6673   -1.6392   22.7581 N   0  0  0  0  0  0  0  0  0  0  0  0
    8.3052   -0.2533   22.7751 C   0  0  0  0  0  0  0  0  0  0  0  0
    8.8604    0.5527   21.9768 O   0  0  0  0  0  0  0  0  0  0  0  0
    7.3056    0.2507   23.7859 C   0  0  0  0  0  0  0  0  0  0  0  0
    5.8529    0.3291   23.2616 C   0  0  1  0  0  0  0  0  0  0  0  0
    5.0683    1.3213   24.0107 N   0  0  0  0  0  0  0  0  0  0  0  0
    4.7394    1.1913   25.4048 C   0  0  0  0  0  0  0  0  0  0  0  0
    4.5701    2.3355   26.2480 N   0  0  0  0  0  0  0  0  0  0  0  0
    4.6020    0.0398   25.8978 O   0  0  0  0  0  0  0  0  0  0  0  0
    5.8238    0.5815   21.7619 C   0  0  0  0  0  0  0  0  0  0  0  0
    6.0689   -0.4852   20.8803 C   0  0  0  0  0  0  0  0  0  0  0  0
    6.0730   -0.2781   19.4969 C   0  0  0  0  0  0  0  0  0  0  0  0
    5.8391    1.0001   18.9805 C   0  0  0  0  0  0  0  0  0  0  0  0
    5.8480    1.2824   17.0902 Br  0  0  0  0  0  0  0  0  0  0  0  0
    5.6043    2.0710   19.8481 C   0  0  0  0  0  0  0  0  0  0  0  0
    5.5983    1.8664   21.2305 C   0  0  0  0  0  0  0  0  0  0  0  0
   11.5700   -0.0985   22.5043 C   0  0  0  0  0  0  0  0  0  0  0  0
   12.3086   -2.0993   23.1355 O   0  0  0  0  0  0  0  0  0  0  0  0
   13.4165   -1.2341   23.0601 C   0  0  0  0  0  0  0  0  0  0  0  0
   13.7189    1.2338   21.7736 H   0  0  0  0  0  0  0  0  0  0  0  0
   13.3308    2.1437   23.0729 H   0  0  0  0  0  0  0  0  0  0  0  0
   14.6323    1.1588   23.1252 H   0  0  0  0  0  0  0  0  0  0  0  0
   13.1729    0.9672   25.1754 H   0  0  0  0  0  0  0  0  0  0  0  0
   13.2661   -0.6631   25.1651 H   0  0  0  0  0  0  0  0  0  0  0  0
   10.8860    0.9363   25.1878 H   0  0  0  0  0  0  0  0  0  0  0  0
   11.3209   -0.1983   26.2786 H   0  0  0  0  0  0  0  0  0  0  0  0
    9.5838   -0.6371   24.4035 H   0  0  0  0  0  0  0  0  0  0  0  0
   10.4533   -1.8280   25.1054 H   0  0  0  0  0  0  0  0  0  0  0  0
   10.0878   -3.0621   22.5311 H   0  0  0  0  0  0  0  0  0  0  0  0
   10.1526   -1.8809   21.4054 H   0  0  0  0  0  0  0  0  0  0  0  0
    7.9854   -2.3246   23.0134 H   0  0  0  0  0  0  0  0  0  0  0  0
    7.5849    1.1672   24.0722 H   0  0  0  0  0  0  0  0  0  0  0  0
    7.3209   -0.3641   24.5745 H   0  0  0  0  0  0  0  0  0  0  0  0
    5.4314   -0.5637   23.4204 H   0  0  0  0  0  0  0  0  0  0  0  0
    4.7450    2.1325   23.5234 H   0  0  0  0  0  0  0  0  0  0  0  0
    4.3414    2.2153   27.2140 H   0  0  0  0  0  0  0  0  0  0  0  0
    4.6804    3.2552   25.8710 H   0  0  0  0  0  0  0  0  0  0  0  0
    6.2418   -1.4001   21.2451 H   0  0  0  0  0  0  0  0  0  0  0  0
    6.2433   -1.0443   18.8772 H   0  0  0  0  0  0  0  0  0  0  0  0
    5.4403    2.9856   19.4785 H   0  0  0  0  0  0  0  0  0  0  0  0
    5.4328    2.6368   21.8462 H   0  0  0  0  0  0  0  0  0  0  0  0
   10.9134    0.6491   22.6040 H   0  0  0  0  0  0  0  0  0  0  0  0
   11.7593   -0.2487   21.5339 H   0  0  0  0  0  0  0  0  0  0  0  0
   13.8453   -1.2848   22.1581 H   0  0  0  0  0  0  0  0  0  0  0  0
   14.0910   -1.4596   23.7630 H   0  0  0  0  0  0  0  0  0  0  0  0
  2  1  1  0  0  0  0
  2  3  1  0  0  0  0
  3  4  1  0  0  0  0
  4  5  1  0  0  0  0
  5  6  1  0  0  0  0
  6  7  1  0  0  0  0
  7  8  1  0  0  0  0
  8  9  1  0  0  0  0
  9 10  2  0  0  0  0
  9 11  1  0  0  0  0
 11 12  1  0  0  0  0
 12 13  1  0  0  0  0
 13 14  1  0  0  0  0
 14 15  1  0  0  0  0
 14 16  2  0  0  0  0
 12 17  1  0  0  0  0
 17 18  2  0  0  0  0
 18 19  1  0  0  0  0
 19 20  2  0  0  0  0
 20 21  1  0  0  0  0
 20 22  1  0  0  0  0
 22 23  2  0  0  0  0
  6 24  1  0  0  0  0
  6 25  1  0  0  0  0
 25 26  1  0  0  0  0
 24  2  1  0  0  0  0
 26  2  1  0  0  0  0
 23 17  1  0  0  0  0
  1 27  1  0  0  0  0
  1 28  1  0  0  0  0
  1 29  1  0  0  0  0
  3 30  1  0  0  0  0
  3 31  1  0  0  0  0
  4 32  1  0  0  0  0
  4 33  1  0  0  0  0
  5 34  1  0  0  0  0
  5 35  1  0  0  0  0
  7 36  1  0  0  0  0
  7 37  1  0  0  0  0
  8 38  1  0  0  0  0
 11 39  1  0  0  0  0
 11 40  1  0  0  0  0
 12 41  1  0  0  0  0
 13 42  1  0  0  0  0
 15 43  1  0  0  0  0
 15 44  1  0  0  0  0
 18 45  1  0  0  0  0
 19 46  1  0  0  0  0
 22 47  1  0  0  0  0
 23 48  1  0  0  0  0
 24 49  1  0  0  0  0
 24 50  1  0  0  0  0
 26 51  1  0  0  0  0
 26 52  1  0  0  0  0
M  END
> <BIOSOLVEIT.HYDE_ESTIMATED_AFFINITY_LOWER_BOUNDARY [nM]>
25940444.056543

> <BIOSOLVEIT.HYDE_ESTIMATED_AFFINITY_UPPER_BOUNDARY [nM]>
2577336489.060879

> <BIOSOLVEIT.HYDE_LIGAND_EFFICIENCY range: ++, +, 0, -, -->
--

> <BIOSOLVEIT.HYDE_LIGAND_LIPOPHILIC_EFFICIENCY range: ++, +, 0, -, -->
--

> <BIOSOLVEIT.INTER_CLASH range: red, yellow, green>
yellow

> <BIOSOLVEIT.INTRA_CLASH range: red, yellow, green>
yellow

> <BIOSOLVEIT.LOGP>
3.0141

> <BIOSOLVEIT.MOLECULAR WEIGHT>
424.336

> <BIOSOLVEIT.MOLECULE_CHECKSUM>
LTMuMzUzMDM7MC4xMjg5NjM=

> <BIOSOLVEIT.TORSION_QUALITY range: red, yellow, green, not rotatable>
red

> <BIOSOLVEIT.TPSA>
93.45

$$$$
mol_73_1_02
anSeeSAR  04022021533D 1   1.00000     0.00000     0
SeeSAR 9.2 andre
 29 29  0  0  0  0            999 V2000
    7.1678    6.2670   23.3209 C   0  0  0  0  0  0  0  0  0  0  0  0
    6.5176    6.2389   21.9761 C   0  0  0  0  0  0  0  0  0  0  0  0
    6.7488    7.1676   21.1555 O   0  0  0  0  0  0  0  0  0  0  0  0
    5.6058    5.1791   21.6484 N   0  0  0  0  0  0  0  0  0  0  0  0
    5.7089    3.8731   22.1410 C   0  0  0  0  0  0  0  0  0  0  0  0
    4.7547    3.3478   22.9738 C   0  0  0  0  0  0  0  0  0  0  0  0
    4.8706    2.0669   23.4481 N   0  0  0  0  0  0  0  0  0  0  0  0
    5.9375    1.2771   23.1058 C   0  0  0  0  0  0  0  0  0  0  0  0
    6.0354    0.1373   23.5311 O   0  0  0  0  0  0  0  0  0  0  0  0
    6.9378    1.8022   22.2436 C   0  0  0  0  0  0  0  0  0  0  0  0
    8.0873    1.0106   21.8496 C   0  0  0  0  0  0  0  0  0  0  0  0
    8.9314    1.5040   21.0519 O   0  0  0  0  0  0  0  0  0  0  0  0
    8.2963   -0.3063   22.3806 N   0  0  0  0  0  0  0  0  0  0  0  0
    9.4747   -1.0942   22.0146 C   0  0  0  0  0  0  0  0  0  0  0  0
   10.5645   -1.0158   23.0870 C   0  0  0  0  0  0  0  0  0  0  0  0
   10.0083   -1.1861   24.3424 F   0  0  0  0  0  0  0  0  0  0  0  0
   11.4905   -2.0196   22.8699 F   0  0  0  0  0  0  0  0  0  0  0  0
   11.4821    0.6932   23.0173 Br  0  0  0  0  0  0  0  0  0  0  0  0
    6.8280    3.0822   21.7659 C   0  0  0  0  0  0  0  0  0  0  0  0
    6.8823    5.4653   23.8461 H   0  0  0  0  0  0  0  0  0  0  0  0
    8.1617    6.2567   23.2109 H   0  0  0  0  0  0  0  0  0  0  0  0
    6.8947    7.0978   23.8059 H   0  0  0  0  0  0  0  0  0  0  0  0
    4.8490    5.3874   21.0288 H   0  0  0  0  0  0  0  0  0  0  0  0
    3.9668    3.9043   23.2377 H   0  0  0  0  0  0  0  0  0  0  0  0
    4.1642    1.7020   24.0546 H   0  0  0  0  0  0  0  0  0  0  0  0
    7.6244   -0.6929   23.0125 H   0  0  0  0  0  0  0  0  0  0  0  0
    9.8426   -0.7455   21.1526 H   0  0  0  0  0  0  0  0  0  0  0  0
    9.2025   -2.0495   21.8986 H   0  0  0  0  0  0  0  0  0  0  0  0
    7.5292    3.4560   21.1588 H   0  0  0  0  0  0  0  0  0  0  0  0
  1  2  1  0  0  0  0
  2  3  2  0  0  0  0
  2  4  1  0  0  0  0
  4  5  1  0  0  0  0
  5  6  2  0  0  0  0
  6  7  1  0  0  0  0
  7  8  1  0  0  0  0
  8  9  2  0  0  0  0
  8 10  1  0  0  0  0
 10 11  1  0  0  0  0
 11 12  2  0  0  0  0
 11 13  1  0  0  0  0
 13 14  1  0  0  0  0
 14 15  1  0  0  0  0
 15 16  1  0  0  0  0
 15 17  1  0  0  0  0
 15 18  1  0  0  0  0
 10 19  2  0  0  0  0
 19  5  1  0  0  0  0
  1 20  1  0  0  0  0
  1 21  1  0  0  0  0
  1 22  1  0  0  0  0
  4 23  1  0  0  0  0
  6 24  1  0  0  0  0
  7 25  1  0  0  0  0
 13 26  1  0  0  0  0
 14 27  1  0  0  0  0
 14 28  1  0  0  0  0
 19 29  1  0  0  0  0
M  END
> <BIOSOLVEIT.HYDE_ESTIMATED_AFFINITY_LOWER_BOUNDARY [nM]>
26520371.246960

> <BIOSOLVEIT.HYDE_ESTIMATED_AFFINITY_UPPER_BOUNDARY [nM]>
2634955684.229730

> <BIOSOLVEIT.HYDE_LIGAND_EFFICIENCY range: ++, +, 0, -, -->
--

> <BIOSOLVEIT.HYDE_LIGAND_LIPOPHILIC_EFFICIENCY range: ++, +, 0, -, -->
--

> <BIOSOLVEIT.INTER_CLASH range: red, yellow, green>
green

> <BIOSOLVEIT.INTRA_CLASH range: red, yellow, green>
green

> <BIOSOLVEIT.LOGP>
1.0508

> <BIOSOLVEIT.MOLECULAR WEIGHT>
338.107

> <BIOSOLVEIT.MOLECULE_CHECKSUM>
LTMuMjk4MjI7MC4xNzM1OTE=

> <BIOSOLVEIT.TORSION_QUALITY range: red, yellow, green, not rotatable>
yellow

> <BIOSOLVEIT.TPSA>
91.06

$$$$
mol_87_1_05
anSeeSAR  04022021533D 1   1.00000     0.00000     0
SeeSAR 9.2 andre
 51 51  0  0  0  0            999 V2000
    6.8166   -0.0299   27.4383 C   0  0  0  0  0  0  0  0  0  0  0  0
    5.5149   -0.4897   26.7544 C   0  0  0  0  0  0  0  0  0  0  0  0
    4.5454   -1.0982   27.7857 C   0  0  0  0  0  0  0  0  0  0  0  0
    4.8426    0.7263   26.0991 C   0  0  0  0  0  0  0  0  0  0  0  0
    5.7982   -1.4325   25.7094 O   0  0  0  0  0  0  0  0  0  0  0  0
    7.0424   -2.0194   25.4346 C   0  0  0  0  0  0  0  0  0  0  0  0
    7.5166   -2.9192   26.1799 O   0  0  0  0  0  0  0  0  0  0  0  0
    7.7750   -1.5821   24.2865 N   0  0  0  0  0  0  0  0  0  0  0  0
    7.0980   -1.0834   23.0880 C   0  0  0  0  0  0  0  0  0  0  0  0
    6.7643    0.4212   23.2100 C   0  0  1  0  0  0  0  0  0  0  0  0
    7.9930    1.2935   23.3250 C   0  0  0  0  0  0  0  0  0  0  0  0
    9.1475    0.7918   23.2293 O   0  0  0  0  0  0  0  0  0  0  0  0
    7.8414    2.7019   23.5542 N   0  0  0  0  0  0  0  0  0  0  0  0
    8.9829    3.6041   23.6851 C   0  0  0  0  0  0  0  0  0  0  0  0
    8.5235    4.9687   24.2166 C   0  0  0  0  0  0  0  0  0  0  0  0
    8.6486    5.0831   25.7442 C   0  0  0  0  0  0  0  0  0  0  0  0
    7.4568    4.4822   26.4927 C   0  0  0  0  0  0  0  0  0  0  0  0
    7.6578    3.1325   26.7218 F   0  0  0  0  0  0  0  0  0  0  0  0
    5.8707    0.8968   22.0758 C   0  0  0  0  0  0  0  0  0  0  0  0
    6.2689    0.7170   20.7551 C   0  0  0  0  0  0  0  0  0  0  0  0
    7.8211   -0.0679   20.3764 Cl  0  0  0  0  0  0  0  0  0  0  0  0
    5.4583    1.1492   19.7100 C   0  0  0  0  0  0  0  0  0  0  0  0
    4.2450    1.7630   20.0039 C   0  0  0  0  0  0  0  0  0  0  0  0
    3.8381    1.9478   21.3213 C   0  0  0  0  0  0  0  0  0  0  0  0
    4.6558    1.5120   22.3590 C   0  0  0  0  0  0  0  0  0  0  0  0
    7.4322    0.3615   26.7544 H   0  0  0  0  0  0  0  0  0  0  0  0
    6.6040    0.6607   28.1296 H   0  0  0  0  0  0  0  0  0  0  0  0
    7.2585   -0.8136   27.8750 H   0  0  0  0  0  0  0  0  0  0  0  0
    3.7078   -1.3904   27.3240 H   0  0  0  0  0  0  0  0  0  0  0  0
    4.9768   -1.8868   28.2240 H   0  0  0  0  0  0  0  0  0  0  0  0
    4.3223   -0.4125   28.4786 H   0  0  0  0  0  0  0  0  0  0  0  0
    3.9958    0.4383   25.6518 H   0  0  0  0  0  0  0  0  0  0  0  0
    4.6342    1.4094   26.7990 H   0  0  0  0  0  0  0  0  0  0  0  0
    5.4602    1.1227   25.4198 H   0  0  0  0  0  0  0  0  0  0  0  0
    8.7742   -1.6179   24.3029 H   0  0  0  0  0  0  0  0  0  0  0  0
    6.2487   -1.5951   22.9580 H   0  0  0  0  0  0  0  0  0  0  0  0
    7.6943   -1.2209   22.2971 H   0  0  0  0  0  0  0  0  0  0  0  0
    6.2454    0.5364   24.0570 H   0  0  0  0  0  0  0  0  0  0  0  0
    6.9186    3.0805   23.6271 H   0  0  0  0  0  0  0  0  0  0  0  0
    9.4119    3.7258   22.7900 H   0  0  0  0  0  0  0  0  0  0  0  0
    9.6453    3.2081   24.3211 H   0  0  0  0  0  0  0  0  0  0  0  0
    7.5658    5.1048   23.9630 H   0  0  0  0  0  0  0  0  0  0  0  0
    9.0844    5.6814   23.7954 H   0  0  0  0  0  0  0  0  0  0  0  0
    8.7206    6.0508   25.9857 H   0  0  0  0  0  0  0  0  0  0  0  0
    9.4785    4.6051   26.0319 H   0  0  0  0  0  0  0  0  0  0  0  0
    6.6292    4.6031   25.9446 H   0  0  0  0  0  0  0  0  0  0  0  0
    7.3480    4.9519   27.3688 H   0  0  0  0  0  0  0  0  0  0  0  0
    5.7441    1.0203   18.7604 H   0  0  0  0  0  0  0  0  0  0  0  0
    3.6572    2.0757   19.2578 H   0  0  0  0  0  0  0  0  0  0  0  0
    2.9641    2.3908   21.5210 H   0  0  0  0  0  0  0  0  0  0  0  0
    4.3701    1.6411   23.3086 H   0  0  0  0  0  0  0  0  0  0  0  0
  1  2  1  0  0  0  0
  2  3  1  0  0  0  0
  2  4  1  0  0  0  0
  2  5  1  0  0  0  0
  5  6  1  0  0  0  0
  6  7  2  0  0  0  0
  6  8  1  0  0  0  0
  8  9  1  0  0  0  0
  9 10  1  0  0  0  0
 10 11  1  0  0  0  0
 11 12  2  0  0  0  0
 11 13  1  0  0  0  0
 13 14  1  0  0  0  0
 14 15  1  0  0  0  0
 15 16  1  0  0  0  0
 16 17  1  0  0  0  0
 17 18  1  0  0  0  0
 10 19  1  0  0  0  0
 19 20  2  0  0  0  0
 20 21  1  0  0  0  0
 20 22  1  0  0  0  0
 22 23  2  0  0  0  0
 23 24  1  0  0  0  0
 24 25  2  0  0  0  0
 25 19  1  0  0  0  0
  1 26  1  0  0  0  0
  1 27  1  0  0  0  0
  1 28  1  0  0  0  0
  3 29  1  0  0  0  0
  3 30  1  0  0  0  0
  3 31  1  0  0  0  0
  4 32  1  0  0  0  0
  4 33  1  0  0  0  0
  4 34  1  0  0  0  0
  8 35  1  0  0  0  0
  9 36  1  0  0  0  0
  9 37  1  0  0  0  0
 10 38  1  0  0  0  0
 13 39  1  0  0  0  0
 14 40  1  0  0  0  0
 14 41  1  0  0  0  0
 15 42  1  0  0  0  0
 15 43  1  0  0  0  0
 16 44  1  0  0  0  0
 16 45  1  0  0  0  0
 17 46  1  0  0  0  0
 17 47  1  0  0  0  0
 22 48  1  0  0  0  0
 23 49  1  0  0  0  0
 24 50  1  0  0  0  0
 25 51  1  0  0  0  0
M  END
> <BIOSOLVEIT.HYDE_ESTIMATED_AFFINITY_LOWER_BOUNDARY [nM]>
29888355.548238

> <BIOSOLVEIT.HYDE_ESTIMATED_AFFINITY_UPPER_BOUNDARY [nM]>
2969584837.660759

> <BIOSOLVEIT.HYDE_LIGAND_EFFICIENCY range: ++, +, 0, -, -->
--

> <BIOSOLVEIT.HYDE_LIGAND_LIPOPHILIC_EFFICIENCY range: ++, +, 0, -, -->
--

> <BIOSOLVEIT.INTER_CLASH range: red, yellow, green>
green

> <BIOSOLVEIT.INTRA_CLASH range: red, yellow, green>
yellow

> <BIOSOLVEIT.LOGP>
3.8142

> <BIOSOLVEIT.MOLECULAR WEIGHT>
372.865

> <BIOSOLVEIT.MOLECULE_CHECKSUM>
LTMuMDAxODU7MC4xMjAwNzQ=

> <BIOSOLVEIT.TORSION_QUALITY range: red, yellow, green, not rotatable>
red

> <BIOSOLVEIT.TPSA>
67.43

$$$$
mol_6_1_07
anSeeSAR  04022021533D 1   1.00000     0.00000     0
SeeSAR 9.2 andre
 64 64  0  0  0  0            999 V2000
    2.5441    5.4532   26.4065 C   0  0  0  0  0  0  0  0  0  0  0  0
    3.8080    5.2210   27.2475 C   0  0  0  0  0  0  0  0  0  0  0  0
    4.9721    6.0163   26.6352 C   0  0  0  0  0  0  0  0  0  0  0  0
    4.1330    3.7026   27.3235 C   0  0  0  0  0  0  0  0  0  0  0  0
    5.4532    3.2874   28.0651 C   0  0  2  0  0  0  0  0  0  0  0  0
    5.9862    2.0019   27.5822 N   0  0  0  0  0  0  0  0  0  0  0  0
    7.0288    1.8978   26.6001 C   0  0  0  0  0  0  0  0  0  0  0  0
    7.9083    2.7971   26.5041 O   0  0  0  0  0  0  0  0  0  0  0  0
    7.0618    0.7682   25.7192 N   0  0  0  0  0  0  0  0  0  0  0  0
    8.1044    0.6313   24.6982 C   0  0  0  0  0  0  0  0  0  0  0  0
    7.6393    1.0328   23.2801 C   0  0  1  0  0  0  0  0  0  0  0  0
    6.6128    0.0383   22.6922 C   0  0  0  0  0  0  0  0  0  0  0  0
    6.4063    0.2703   21.2151 C   0  0  0  0  0  0  0  0  0  0  0  0
    7.3495   -0.2009   20.2858 C   0  0  0  0  0  0  0  0  0  0  0  0
    7.1678    0.0284   18.9185 C   0  0  0  0  0  0  0  0  0  0  0  0
    6.0438    0.7263   18.4685 C   0  0  0  0  0  0  0  0  0  0  0  0
    5.8701    0.9487   17.1424 F   0  0  0  0  0  0  0  0  0  0  0  0
    5.0987    1.1947   19.3858 C   0  0  0  0  0  0  0  0  0  0  0  0
    5.2760    0.9669   20.7539 C   0  0  0  0  0  0  0  0  0  0  0  0
    7.1094    2.4596   23.2505 C   0  0  0  0  0  0  0  0  0  0  0  0
    7.8876    3.3817   22.8800 O   0  0  0  0  0  0  0  0  0  0  0  0
    5.7607    2.7993   23.6521 N   0  0  0  0  0  0  0  0  0  0  0  0
    5.3489    4.2071   23.6127 C   0  0  0  0  0  0  0  0  0  0  0  0
    4.8065    1.7771   24.0959 C   0  0  0  0  0  0  0  0  0  0  0  0
    5.3663    3.3099   29.6364 C   0  0  0  0  0  0  0  0  0  0  0  0
    6.6501    2.6813   30.2287 C   0  0  0  0  0  0  0  0  0  0  0  0
    4.1489    2.5200   30.1701 C   0  0  0  0  0  0  0  0  0  0  0  0
    5.2834    4.7678   30.1501 C   0  0  0  0  0  0  0  0  0  0  0  0
    1.7825    4.9382   26.7999 H   0  0  0  0  0  0  0  0  0  0  0  0
    2.3206    6.4279   26.4027 H   0  0  0  0  0  0  0  0  0  0  0  0
    2.7061    5.1448   25.4691 H   0  0  0  0  0  0  0  0  0  0  0  0
    3.6422    5.5592   28.1739 H   0  0  0  0  0  0  0  0  0  0  0  0
    5.7986    5.8692   27.1786 H   0  0  0  0  0  0  0  0  0  0  0  0
    5.1303    5.7070   25.6975 H   0  0  0  0  0  0  0  0  0  0  0  0
    4.7448    6.9901   26.6311 H   0  0  0  0  0  0  0  0  0  0  0  0
    4.1946    3.3609   26.3857 H   0  0  0  0  0  0  0  0  0  0  0  0
    3.3713    3.2551   27.7920 H   0  0  0  0  0  0  0  0  0  0  0  0
    6.1345    3.9766   27.8184 H   0  0  0  0  0  0  0  0  0  0  0  0
    5.6023    1.1582   27.9575 H   0  0  0  0  0  0  0  0  0  0  0  0
    6.3605    0.0602   25.8025 H   0  0  0  0  0  0  0  0  0  0  0  0
    8.4007   -0.3235   24.6752 H   0  0  0  0  0  0  0  0  0  0  0  0
    8.8760    1.2136   24.9544 H   0  0  0  0  0  0  0  0  0  0  0  0
    8.4452    1.0067   22.6885 H   0  0  0  0  0  0  0  0  0  0  0  0
    5.7394    0.1545   23.1652 H   0  0  0  0  0  0  0  0  0  0  0  0
    6.9461   -0.8941   22.8319 H   0  0  0  0  0  0  0  0  0  0  0  0
    8.1541   -0.7023   20.6038 H   0  0  0  0  0  0  0  0  0  0  0  0
    7.8431   -0.3074   18.2618 H   0  0  0  0  0  0  0  0  0  0  0  0
    4.2944    1.6936   19.0629 H   0  0  0  0  0  0  0  0  0  0  0  0
    4.5961    1.3009   21.4067 H   0  0  0  0  0  0  0  0  0  0  0  0
    4.3991    4.2851   23.9156 H   0  0  0  0  0  0  0  0  0  0  0  0
    5.9370    4.7434   24.2181 H   0  0  0  0  0  0  0  0  0  0  0  0
    5.4301    4.5521   22.6776 H   0  0  0  0  0  0  0  0  0  0  0  0
    3.9362    2.2116   24.3278 H   0  0  0  0  0  0  0  0  0  0  0  0
    4.6627    1.1140   23.3613 H   0  0  0  0  0  0  0  0  0  0  0  0
    5.1702    1.3088   24.9012 H   0  0  0  0  0  0  0  0  0  0  0  0
    6.5975    2.6943   31.2273 H   0  0  0  0  0  0  0  0  0  0  0  0
    6.7357    1.7367   29.9117 H   0  0  0  0  0  0  0  0  0  0  0  0
    7.4469    3.2066   29.9301 H   0  0  0  0  0  0  0  0  0  0  0  0
    4.1359    2.5626   31.1691 H   0  0  0  0  0  0  0  0  0  0  0  0
    3.3071    2.9205   29.8084 H   0  0  0  0  0  0  0  0  0  0  0  0
    4.2165    1.5660   29.8780 H   0  0  0  0  0  0  0  0  0  0  0  0
    5.2288    4.7668   31.1486 H   0  0  0  0  0  0  0  0  0  0  0  0
    6.0987    5.2698   29.8614 H   0  0  0  0  0  0  0  0  0  0  0  0
    4.4693    5.2086   29.7721 H   0  0  0  0  0  0  0  0  0  0  0  0
  1  2  1  0  0  0  0
  2  3  1  0  0  0  0
  2  4  1  0  0  0  0
  4  5  1  0  0  0  0
  5  6  1  0  0  0  0
  6  7  1  0  0  0  0
  7  8  2  0  0  0  0
  7  9  1  0  0  0  0
  9 10  1  0  0  0  0
 10 11  1  0  0  0  0
 11 12  1  0  0  0  0
 12 13  1  0  0  0  0
 13 14  2  0  0  0  0
 14 15  1  0  0  0  0
 15 16  2  0  0  0  0
 16 17  1  0  0  0  0
 16 18  1  0  0  0  0
 18 19  2  0  0  0  0
 11 20  1  0  0  0  0
 20 21  2  0  0  0  0
 20 22  1  0  0  0  0
 22 23  1  0  0  0  0
 22 24  1  0  0  0  0
  5 25  1  0  0  0  0
 25 26  1  0  0  0  0
 25 27  1  0  0  0  0
 25 28  1  0  0  0  0
 19 13  1  0  0  0  0
  1 29  1  0  0  0  0
  1 30  1  0  0  0  0
  1 31  1  0  0  0  0
  2 32  1  0  0  0  0
  3 33  1  0  0  0  0
  3 34  1  0  0  0  0
  3 35  1  0  0  0  0
  4 36  1  0  0  0  0
  4 37  1  0  0  0  0
  5 38  1  0  0  0  0
  6 39  1  0  0  0  0
  9 40  1  0  0  0  0
 10 41  1  0  0  0  0
 10 42  1  0  0  0  0
 11 43  1  0  0  0  0
 12 44  1  0  0  0  0
 12 45  1  0  0  0  0
 14 46  1  0  0  0  0
 15 47  1  0  0  0  0
 18 48  1  0  0  0  0
 19 49  1  0  0  0  0
 23 50  1  0  0  0  0
 23 51  1  0  0  0  0
 23 52  1  0  0  0  0
 24 53  1  0  0  0  0
 24 54  1  0  0  0  0
 24 55  1  0  0  0  0
 26 56  1  0  0  0  0
 26 57  1  0  0  0  0
 26 58  1  0  0  0  0
 27 59  1  0  0  0  0
 27 60  1  0  0  0  0
 27 61  1  0  0  0  0
 28 62  1  0  0  0  0
 28 63  1  0  0  0  0
 28 64  1  0  0  0  0
M  END
> <BIOSOLVEIT.HYDE_ESTIMATED_AFFINITY_LOWER_BOUNDARY [nM]>
34701368.724595

> <BIOSOLVEIT.HYDE_ESTIMATED_AFFINITY_UPPER_BOUNDARY [nM]>
3447786153.517857

> <BIOSOLVEIT.HYDE_LIGAND_EFFICIENCY range: ++, +, 0, -, -->
--

> <BIOSOLVEIT.HYDE_LIGAND_LIPOPHILIC_EFFICIENCY range: ++, +, 0, -, -->
--

> <BIOSOLVEIT.INTER_CLASH range: red, yellow, green>
green

> <BIOSOLVEIT.INTRA_CLASH range: red, yellow, green>
red

> <BIOSOLVEIT.LOGP>
3.8326

> <BIOSOLVEIT.MOLECULAR WEIGHT>
393.543

> <BIOSOLVEIT.MOLECULE_CHECKSUM>
LTIuNjMxNzE7MC4wOTM5ODk4

> <BIOSOLVEIT.TORSION_QUALITY range: red, yellow, green, not rotatable>
green

> <BIOSOLVEIT.TPSA>
61.44

$$$$
mol_41_1_10
anSeeSAR  04022021533D 1   1.00000     0.00000     0
SeeSAR 9.2 andre
 56 58  0  0  0  0            999 V2000
   11.8746    5.8984   24.5430 C   0  0  0  0  0  0  0  0  0  0  0  0
   10.7486    4.9197   24.1777 C   0  0  0  0  0  0  0  0  0  0  0  0
    9.5847    5.6878   23.5385 C   0  0  0  0  0  0  0  0  0  0  0  0
   11.2231    3.7992   23.2147 C   0  0  0  0  0  0  0  0  0  0  0  0
   11.6308    2.4881   23.8691 C   0  0  1  0  0  0  0  0  0  0  0  0
   10.4532    1.8829   24.6194 C   0  0  0  0  0  0  0  0  0  0  0  0
   10.0628    0.5207   24.0686 C   0  0  1  0  0  0  0  0  0  0  0  0
    9.5619    0.6022   22.6868 N   0  0  0  0  0  0  0  0  0  0  0  0
    8.6331    1.5920   22.2087 C   0  0  0  0  0  0  0  0  0  0  0  0
    8.6608    1.9764   21.0098 O   0  0  0  0  0  0  0  0  0  0  0  0
    7.5806    2.1408   23.1294 C   0  0  0  0  0  0  0  0  0  0  0  0
    6.1781    1.5499   22.8494 C   0  0  1  0  0  0  0  0  0  0  0  0
    6.0009    1.0514   21.4157 C   0  0  0  0  0  0  0  0  0  0  0  0
    6.4001   -0.2426   21.0193 C   0  0  0  0  0  0  0  0  0  0  0  0
    6.1916   -0.6789   19.7070 C   0  0  0  0  0  0  0  0  0  0  0  0
    5.5981    0.1698   18.7667 C   0  0  0  0  0  0  0  0  0  0  0  0
    5.3832   -0.2870   17.4678 O   0  0  0  0  0  0  0  0  0  0  0  0
    5.2190    1.4665   19.1407 C   0  0  0  0  0  0  0  0  0  0  0  0
    5.4221    1.9030   20.4557 C   0  0  0  0  0  0  0  0  0  0  0  0
    5.8116    0.5319   23.9681 C   0  0  0  0  0  0  0  0  0  0  0  0
    6.7909    0.6049   25.1030 C   0  0  0  0  0  0  0  0  0  0  0  0
    6.8512   -0.5392   24.1320 C   0  0  0  0  0  0  0  0  0  0  0  0
   11.3182   -0.3292   24.1761 C   0  0  0  0  0  0  0  0  0  0  0  0
   12.5008    0.3040   23.4522 C   0  0  0  0  0  0  0  0  0  0  0  0
   12.2123    1.5966   22.9193 O   0  0  0  0  0  0  0  0  0  0  0  0
   12.6318    5.3950   24.9593 H   0  0  0  0  0  0  0  0  0  0  0  0
   12.1960    6.3603   23.7163 H   0  0  0  0  0  0  0  0  0  0  0  0
   11.5292    6.5771   25.1911 H   0  0  0  0  0  0  0  0  0  0  0  0
   10.4185    4.4920   25.0192 H   0  0  0  0  0  0  0  0  0  0  0  0
    8.8533    5.0482   23.3018 H   0  0  0  0  0  0  0  0  0  0  0  0
    9.2376    6.3663   24.1859 H   0  0  0  0  0  0  0  0  0  0  0  0
    9.9045    6.1495   22.7111 H   0  0  0  0  0  0  0  0  0  0  0  0
   12.0114    4.1459   22.7063 H   0  0  0  0  0  0  0  0  0  0  0  0
   10.4759    3.6049   22.5792 H   0  0  0  0  0  0  0  0  0  0  0  0
   12.3355    2.7012   24.5459 H   0  0  0  0  0  0  0  0  0  0  0  0
    9.6696    2.4991   24.5405 H   0  0  0  0  0  0  0  0  0  0  0  0
   10.7022    1.7818   25.5826 H   0  0  0  0  0  0  0  0  0  0  0  0
    9.3515    0.1259   24.6501 H   0  0  0  0  0  0  0  0  0  0  0  0
    9.8908   -0.0795   22.0332 H   0  0  0  0  0  0  0  0  0  0  0  0
    7.5390    3.1331   23.0131 H   0  0  0  0  0  0  0  0  0  0  0  0
    7.8361    1.9261   24.0721 H   0  0  0  0  0  0  0  0  0  0  0  0
    5.5372    2.3104   22.9536 H   0  0  0  0  0  0  0  0  0  0  0  0
    6.8353   -0.8524   21.6817 H   0  0  0  0  0  0  0  0  0  0  0  0
    6.4682   -1.6019   19.4397 H   0  0  0  0  0  0  0  0  0  0  0  0
    6.0789   -0.1400   16.7646 H   0  0  0  0  0  0  0  0  0  0  0  0
    4.8037    2.0797   18.4687 H   0  0  0  0  0  0  0  0  0  0  0  0
    5.1529    2.8303   20.7158 H   0  0  0  0  0  0  0  0  0  0  0  0
    4.8513    0.3238   24.1542 H   0  0  0  0  0  0  0  0  0  0  0  0
    6.4817    0.4487   26.0411 H   0  0  0  0  0  0  0  0  0  0  0  0
    7.5085    1.3014   25.1001 H   0  0  0  0  0  0  0  0  0  0  0  0
    6.5818   -1.4571   24.4233 H   0  0  0  0  0  0  0  0  0  0  0  0
    7.6086   -0.6045   23.4824 H   0  0  0  0  0  0  0  0  0  0  0  0
   11.1361   -1.2263   23.7735 H   0  0  0  0  0  0  0  0  0  0  0  0
   11.5521   -0.4387   25.1421 H   0  0  0  0  0  0  0  0  0  0  0  0
   12.7703   -0.2965   22.6993 H   0  0  0  0  0  0  0  0  0  0  0  0
   13.2593    0.3894   24.0983 H   0  0  0  0  0  0  0  0  0  0  0  0
  1  2  1  0  0  0  0
  2  3  1  0  0  0  0
  2  4  1  0  0  0  0
  4  5  1  0  0  0  0
  5  6  1  0  0  0  0
  6  7  1  0  0  0  0
  7  8  1  0  0  0  0
  8  9  1  0  0  0  0
  9 10  2  0  0  0  0
  9 11  1  0  0  0  0
 11 12  1  0  0  0  0
 12 13  1  0  0  0  0
 13 14  2  0  0  0  0
 14 15  1  0  0  0  0
 15 16  2  0  0  0  0
 16 17  1  0  0  0  0
 16 18  1  0  0  0  0
 18 19  2  0  0  0  0
 12 20  1  0  0  0  0
 20 21  1  0  0  0  0
 21 22  1  0  0  0  0
  7 23  1  0  0  0  0
 23 24  1  0  0  0  0
 24 25  1  0  0  0  0
 25  5  1  0  0  0  0
 19 13  1  0  0  0  0
 22 20  1  0  0  0  0
  1 26  1  0  0  0  0
  1 27  1  0  0  0  0
  1 28  1  0  0  0  0
  2 29  1  0  0  0  0
  3 30  1  0  0  0  0
  3 31  1  0  0  0  0
  3 32  1  0  0  0  0
  4 33  1  0  0  0  0
  4 34  1  0  0  0  0
  5 35  1  0  0  0  0
  6 36  1  0  0  0  0
  6 37  1  0  0  0  0
  7 38  1  0  0  0  0
  8 39  1  0  0  0  0
 11 40  1  0  0  0  0
 11 41  1  0  0  0  0
 12 42  1  0  0  0  0
 14 43  1  0  0  0  0
 15 44  1  0  0  0  0
 17 45  1  0  0  0  0
 18 46  1  0  0  0  0
 19 47  1  0  0  0  0
 20 48  1  0  0  0  0
 21 49  1  0  0  0  0
 21 50  1  0  0  0  0
 22 51  1  0  0  0  0
 22 52  1  0  0  0  0
 23 53  1  0  0  0  0
 23 54  1  0  0  0  0
 24 55  1  0  0  0  0
 24 56  1  0  0  0  0
M  END
> <BIOSOLVEIT.HYDE_ESTIMATED_AFFINITY_LOWER_BOUNDARY [nM]>
45165051.656842

> <BIOSOLVEIT.HYDE_ESTIMATED_AFFINITY_UPPER_BOUNDARY [nM]>
4487414919.026258

> <BIOSOLVEIT.HYDE_LIGAND_EFFICIENCY range: ++, +, 0, -, -->
--

> <BIOSOLVEIT.HYDE_LIGAND_LIPOPHILIC_EFFICIENCY range: ++, +, 0, -, -->
--

> <BIOSOLVEIT.INTER_CLASH range: red, yellow, green>
green

> <BIOSOLVEIT.INTRA_CLASH range: red, yellow, green>
yellow

> <BIOSOLVEIT.LOGP>
3.9858

> <BIOSOLVEIT.MOLECULAR WEIGHT>
345.48

> <BIOSOLVEIT.MOLECULE_CHECKSUM>
LTEuOTc4NDswLjA3OTEzNg==

> <BIOSOLVEIT.TORSION_QUALITY range: red, yellow, green, not rotatable>
red

> <BIOSOLVEIT.TPSA>
58.56

$$$$
mol_13_1_02
anSeeSAR  04022021533D 1   1.00000     0.00000     0
SeeSAR 9.2 andre
 61 62  0  0  0  0            999 V2000
   10.8477    2.4300   23.9586 C   0  0  0  0  0  0  0  0  0  0  0  0
   10.4322    3.7781   23.3663 C   0  0  0  0  0  0  0  0  0  0  0  0
   10.5564    4.9781   24.3467 C   0  0  0  0  0  0  0  0  0  0  0  0
   12.0162    5.5123   24.3761 C   0  0  0  0  0  0  0  0  0  0  0  0
   12.7765    5.2596   23.0713 C   0  0  0  0  0  0  0  0  0  0  0  0
    9.5496    6.0799   24.0540 C   0  0  1  0  0  0  0  0  0  0  0  0
    8.1758    5.5323   23.6775 C   0  0  0  0  0  0  0  0  0  0  0  0
    7.4833    4.8373   24.8437 C   0  0  1  0  0  0  0  0  0  0  0  0
    7.2027    3.4306   24.5415 N   0  0  0  0  0  0  0  0  0  0  0  0
    5.9699    2.7825   24.8959 C   0  0  0  0  0  0  0  0  0  0  0  0
    4.9031    3.4515   24.9553 O   0  0  0  0  0  0  0  0  0  0  0  0
    5.9291    1.3603   25.1367 N   0  0  0  0  0  0  0  0  0  0  0  0
    4.8682    0.7679   25.9623 C   0  0  0  0  0  0  0  0  0  0  0  0
    5.4180   -0.3552   26.8391 C   0  0  0  0  0  0  0  0  0  0  0  0
    5.0721   -1.5910   26.2830 O   0  0  0  0  0  0  0  0  0  0  0  0
    6.8990    0.4736   24.4752 C   0  0  0  0  0  0  0  0  0  0  0  0
    6.5750    0.2840   23.0020 C   0  0  0  0  0  0  0  0  0  0  0  0
    5.5348    1.0081   22.4299 C   0  0  0  0  0  0  0  0  0  0  0  0
    5.2310    0.8424   21.0823 C   0  0  0  0  0  0  0  0  0  0  0  0
    5.9786   -0.0519   20.3234 C   0  0  0  0  0  0  0  0  0  0  0  0
    5.6929   -0.2210   19.0150 O   0  0  0  0  0  0  0  0  0  0  0  0
    5.5182    0.8439   18.0871 C   0  0  0  0  0  0  0  0  0  0  0  0
    7.0202   -0.7810   20.8877 C   0  0  0  0  0  0  0  0  0  0  0  0
    7.3168   -0.6081   22.2355 C   0  0  0  0  0  0  0  0  0  0  0  0
    8.2148    4.9901   26.1705 C   0  0  0  0  0  0  0  0  0  0  0  0
    8.7395    6.4163   26.3182 C   0  0  0  0  0  0  0  0  0  0  0  0
    9.3613    6.9753   25.1526 O   0  0  0  0  0  0  0  0  0  0  0  0
   10.7389    1.7148   23.2682 H   0  0  0  0  0  0  0  0  0  0  0  0
   11.8045    2.4729   24.2462 H   0  0  0  0  0  0  0  0  0  0  0  0
   10.2712    2.2211   24.7486 H   0  0  0  0  0  0  0  0  0  0  0  0
    9.4781    3.7105   23.0746 H   0  0  0  0  0  0  0  0  0  0  0  0
   11.0114    3.9623   22.5722 H   0  0  0  0  0  0  0  0  0  0  0  0
   10.3530    4.6308   25.2621 H   0  0  0  0  0  0  0  0  0  0  0  0
   12.5053    5.0599   25.1218 H   0  0  0  0  0  0  0  0  0  0  0  0
   11.9908    6.4978   24.5436 H   0  0  0  0  0  0  0  0  0  0  0  0
   13.7045    5.6236   23.1504 H   0  0  0  0  0  0  0  0  0  0  0  0
   12.8180    4.2762   22.8947 H   0  0  0  0  0  0  0  0  0  0  0  0
   12.3035    5.7141   22.3165 H   0  0  0  0  0  0  0  0  0  0  0  0
    9.8918    6.6114   23.2791 H   0  0  0  0  0  0  0  0  0  0  0  0
    8.2861    4.8747   22.9323 H   0  0  0  0  0  0  0  0  0  0  0  0
    7.6016    6.2912   23.3702 H   0  0  0  0  0  0  0  0  0  0  0  0
    6.5966    5.2859   24.9553 H   0  0  0  0  0  0  0  0  0  0  0  0
    7.9020    2.8967   24.0662 H   0  0  0  0  0  0  0  0  0  0  0  0
    4.1572    0.3975   25.3645 H   0  0  0  0  0  0  0  0  0  0  0  0
    4.4753    1.4770   26.5478 H   0  0  0  0  0  0  0  0  0  0  0  0
    5.0291   -0.2822   27.7575 H   0  0  0  0  0  0  0  0  0  0  0  0
    6.4138   -0.2802   26.8918 H   0  0  0  0  0  0  0  0  0  0  0  0
    5.6133   -2.3134   26.7134 H   0  0  0  0  0  0  0  0  0  0  0  0
    6.8837   -0.4181   24.9275 H   0  0  0  0  0  0  0  0  0  0  0  0
    7.8119    0.8734   24.5572 H   0  0  0  0  0  0  0  0  0  0  0  0
    5.0051    1.6477   22.9869 H   0  0  0  0  0  0  0  0  0  0  0  0
    4.4844    1.3600   20.6645 H   0  0  0  0  0  0  0  0  0  0  0  0
    5.3147    0.4682   17.1830 H   0  0  0  0  0  0  0  0  0  0  0  0
    4.7606    1.4247   18.3850 H   0  0  0  0  0  0  0  0  0  0  0  0
    6.3566    1.3871   18.0414 H   0  0  0  0  0  0  0  0  0  0  0  0
    7.5493   -1.4217   20.3312 H   0  0  0  0  0  0  0  0  0  0  0  0
    8.0636   -1.1253   22.6535 H   0  0  0  0  0  0  0  0  0  0  0  0
    8.9828    4.3502   26.2006 H   0  0  0  0  0  0  0  0  0  0  0  0
    7.5846    4.7900   26.9207 H   0  0  0  0  0  0  0  0  0  0  0  0
    9.4130    6.4207   27.0574 H   0  0  0  0  0  0  0  0  0  0  0  0
    7.9686    7.0030   26.5661 H   0  0  0  0  0  0  0  0  0  0  0  0
  1  2  1  0  0  0  0
  2  3  1  0  0  0  0
  3  4  1  0  0  0  0
  4  5  1  0  0  0  0
  3  6  1  0  0  0  0
  6  7  1  0  0  0  0
  7  8  1  0  0  0  0
  8  9  1  0  0  0  0
  9 10  1  0  0  0  0
 10 11  2  0  0  0  0
 10 12  1  0  0  0  0
 12 13  1  0  0  0  0
 13 14  1  0  0  0  0
 14 15  1  0  0  0  0
 12 16  1  0  0  0  0
 16 17  1  0  0  0  0
 17 18  2  0  0  0  0
 18 19  1  0  0  0  0
 19 20  2  0  0  0  0
 20 21  1  0  0  0  0
 21 22  1  0  0  0  0
 20 23  1  0  0  0  0
 23 24  2  0  0  0  0
  8 25  1  0  0  0  0
 25 26  1  0  0  0  0
 26 27  1  0  0  0  0
 27  6  1  0  0  0  0
 24 17  1  0  0  0  0
  1 28  1  0  0  0  0
  1 29  1  0  0  0  0
  1 30  1  0  0  0  0
  2 31  1  0  0  0  0
  2 32  1  0  0  0  0
  3 33  1  0  0  0  0
  4 34  1  0  0  0  0
  4 35  1  0  0  0  0
  5 36  1  0  0  0  0
  5 37  1  0  0  0  0
  5 38  1  0  0  0  0
  6 39  1  0  0  0  0
  7 40  1  0  0  0  0
  7 41  1  0  0  0  0
  8 42  1  0  0  0  0
  9 43  1  0  0  0  0
 13 44  1  0  0  0  0
 13 45  1  0  0  0  0
 14 46  1  0  0  0  0
 14 47  1  0  0  0  0
 15 48  1  0  0  0  0
 16 49  1  0  0  0  0
 16 50  1  0  0  0  0
 18 51  1  0  0  0  0
 19 52  1  0  0  0  0
 22 53  1  0  0  0  0
 22 54  1  0  0  0  0
 22 55  1  0  0  0  0
 23 56  1  0  0  0  0
 24 57  1  0  0  0  0
 25 58  1  0  0  0  0
 25 59  1  0  0  0  0
 26 60  1  0  0  0  0
 26 61  1  0  0  0  0
M  END
> <BIOSOLVEIT.HYDE_ESTIMATED_AFFINITY_LOWER_BOUNDARY [nM]>
57265133.512828

> <BIOSOLVEIT.HYDE_ESTIMATED_AFFINITY_UPPER_BOUNDARY [nM]>
5689629592.764294

> <BIOSOLVEIT.HYDE_LIGAND_EFFICIENCY range: ++, +, 0, -, -->
--

> <BIOSOLVEIT.HYDE_LIGAND_LIPOPHILIC_EFFICIENCY range: ++, +, 0, -, -->
--

> <BIOSOLVEIT.INTER_CLASH range: red, yellow, green>
green

> <BIOSOLVEIT.INTRA_CLASH range: red, yellow, green>
yellow

> <BIOSOLVEIT.LOGP>
3.1829

> <BIOSOLVEIT.MOLECULAR WEIGHT>
378.51

> <BIOSOLVEIT.MOLECULE_CHECKSUM>
LTEuMzg5OTc7MC4wNTE0ODA1

> <BIOSOLVEIT.TORSION_QUALITY range: red, yellow, green, not rotatable>
red

> <BIOSOLVEIT.TPSA>
71.03

$$$$
mol_21_1_07
anSeeSAR  04022021533D 1   1.00000     0.00000     0
SeeSAR 9.2 andre
 58 59  0  0  0  0            999 V2000
   13.8212   -0.7542   22.0789 C   0  0  0  0  0  0  0  0  0  0  0  0
   13.2409   -1.0051   23.4050 N   0  3  0  0  0  0  0  0  0  0  0  0
   12.8683    0.2965   23.9829 C   0  0  0  0  0  0  0  0  0  0  0  0
   11.7488    0.0743   24.9888 C   0  0  0  0  0  0  0  0  0  0  0  0
   10.4576   -0.3006   24.2757 C   0  0  0  0  0  0  0  0  0  0  0  0
    9.7281    0.8919   23.8263 N   0  0  0  0  0  0  0  0  0  0  0  0
    8.5684    0.8320   22.9859 C   0  0  0  0  0  0  0  0  0  0  0  0
    8.1205   -0.2784   22.5911 O   0  0  0  0  0  0  0  0  0  0  0  0
    7.8389    2.0925   22.6176 C   0  0  0  0  0  0  0  0  0  0  0  0
    6.3206    1.8510   22.5269 C   0  0  2  0  0  0  0  0  0  0  0  0
    5.9510    0.6984   23.3555 N   0  0  0  0  0  0  0  0  0  0  0  0
    5.3592    0.8208   24.6559 C   0  0  0  0  0  0  0  0  0  0  0  0
    5.5637   -0.0617   25.5341 O   0  0  0  0  0  0  0  0  0  0  0  0
    4.5573    1.9383   24.9291 O   0  0  0  0  0  0  0  0  0  0  0  0
    3.9375    2.2504   26.1865 C   0  0  0  0  0  0  0  0  0  0  0  0
    5.0654    2.4177   27.2174 C   0  0  0  0  0  0  0  0  0  0  0  0
    3.0143    1.1022   26.6436 C   0  0  0  0  0  0  0  0  0  0  0  0
    3.1508    3.5725   26.0868 C   0  0  0  0  0  0  0  0  0  0  0  0
    5.8600    1.6207   21.0970 C   0  0  0  0  0  0  0  0  0  0  0  0
    6.6455    0.8723   20.2268 C   0  0  0  0  0  0  0  0  0  0  0  0
    6.2068    0.6737   18.9216 C   0  0  0  0  0  0  0  0  0  0  0  0
    5.0016    1.2110   18.4824 C   0  0  0  0  0  0  0  0  0  0  0  0
    4.2308    1.9555   19.3691 C   0  0  0  0  0  0  0  0  0  0  0  0
    3.0770    2.4730   18.9569 F   0  0  0  0  0  0  0  0  0  0  0  0
    4.6507    2.1666   20.6782 C   0  0  0  0  0  0  0  0  0  0  0  0
   10.7951   -1.1380   23.0539 C   0  0  0  0  0  0  0  0  0  0  0  0
   12.0805   -1.9089   23.3214 C   0  0  0  0  0  0  0  0  0  0  0  0
   14.0847   -1.6234   21.6606 H   0  0  0  0  0  0  0  0  0  0  0  0
   13.1455   -0.2971   21.5005 H   0  0  0  0  0  0  0  0  0  0  0  0
   14.6283   -0.1714   22.1731 H   0  0  0  0  0  0  0  0  0  0  0  0
   13.9366   -1.4276   23.9859 H   0  0  0  0  0  0  0  0  0  0  0  0
   12.5541    0.9100   23.2583 H   0  0  0  0  0  0  0  0  0  0  0  0
   13.6593    0.7007   24.4421 H   0  0  0  0  0  0  0  0  0  0  0  0
   11.6041    0.9148   25.5111 H   0  0  0  0  0  0  0  0  0  0  0  0
   12.0074   -0.6645   25.6111 H   0  0  0  0  0  0  0  0  0  0  0  0
    9.8783   -0.8321   24.8938 H   0  0  0  0  0  0  0  0  0  0  0  0
   10.0562    1.7894   24.1210 H   0  0  0  0  0  0  0  0  0  0  0  0
    8.1715    2.4148   21.7312 H   0  0  0  0  0  0  0  0  0  0  0  0
    8.0176    2.7880   23.3135 H   0  0  0  0  0  0  0  0  0  0  0  0
    5.8511    2.6588   22.8831 H   0  0  0  0  0  0  0  0  0  0  0  0
    6.1204   -0.2190   22.9953 H   0  0  0  0  0  0  0  0  0  0  0  0
    4.6713    2.6368   28.1100 H   0  0  0  0  0  0  0  0  0  0  0  0
    5.5861    1.5665   27.2828 H   0  0  0  0  0  0  0  0  0  0  0  0
    5.6724    3.1586   26.9301 H   0  0  0  0  0  0  0  0  0  0  0  0
    2.5944    1.3406   27.5192 H   0  0  0  0  0  0  0  0  0  0  0  0
    2.2994    0.9569   25.9596 H   0  0  0  0  0  0  0  0  0  0  0  0
    3.5507    0.2647   26.7482 H   0  0  0  0  0  0  0  0  0  0  0  0
    2.7261    3.7750   26.9692 H   0  0  0  0  0  0  0  0  0  0  0  0
    3.7747    4.3138   25.8392 H   0  0  0  0  0  0  0  0  0  0  0  0
    2.4413    3.4864   25.3874 H   0  0  0  0  0  0  0  0  0  0  0  0
    7.5134    0.4826   20.5349 H   0  0  0  0  0  0  0  0  0  0  0  0
    6.7662    0.1368   18.2900 H   0  0  0  0  0  0  0  0  0  0  0  0
    4.6934    1.0640   17.5425 H   0  0  0  0  0  0  0  0  0  0  0  0
    4.0911    2.7032   21.3098 H   0  0  0  0  0  0  0  0  0  0  0  0
   10.9211   -0.5403   22.2621 H   0  0  0  0  0  0  0  0  0  0  0  0
   10.0507   -1.7803   22.8715 H   0  0  0  0  0  0  0  0  0  0  0  0
   12.2292   -2.5616   22.5785 H   0  0  0  0  0  0  0  0  0  0  0  0
   11.9898   -2.4030   24.1860 H   0  0  0  0  0  0  0  0  0  0  0  0
  1  2  1  0  0  0  0
  2  3  1  0  0  0  0
  3  4  1  0  0  0  0
  4  5  1  0  0  0  0
  5  6  1  0  0  0  0
  6  7  1  0  0  0  0
  7  8  2  0  0  0  0
  7  9  1  0  0  0  0
  9 10  1  0  0  0  0
 10 11  1  0  0  0  0
 11 12  1  0  0  0  0
 12 13  2  0  0  0  0
 12 14  1  0  0  0  0
 14 15  1  0  0  0  0
 15 16  1  0  0  0  0
 15 17  1  0  0  0  0
 15 18  1  0  0  0  0
 10 19  1  0  0  0  0
 19 20  2  0  0  0  0
 20 21  1  0  0  0  0
 21 22  2  0  0  0  0
 22 23  1  0  0  0  0
 23 24  1  0  0  0  0
 23 25  2  0  0  0  0
  5 26  1  0  0  0  0
 26 27  1  0  0  0  0
 27  2  1  0  0  0  0
 25 19  1  0  0  0  0
  1 28  1  0  0  0  0
  1 29  1  0  0  0  0
  1 30  1  0  0  0  0
  2 31  1  0  0  0  0
  3 32  1  0  0  0  0
  3 33  1  0  0  0  0
  4 34  1  0  0  0  0
  4 35  1  0  0  0  0
  5 36  1  0  0  0  0
  6 37  1  0  0  0  0
  9 38  1  0  0  0  0
  9 39  1  0  0  0  0
 10 40  1  0  0  0  0
 11 41  1  0  0  0  0
 16 42  1  0  0  0  0
 16 43  1  0  0  0  0
 16 44  1  0  0  0  0
 17 45  1  0  0  0  0
 17 46  1  0  0  0  0
 17 47  1  0  0  0  0
 18 48  1  0  0  0  0
 18 49  1  0  0  0  0
 18 50  1  0  0  0  0
 20 51  1  0  0  0  0
 21 52  1  0  0  0  0
 22 53  1  0  0  0  0
 25 54  1  0  0  0  0
 26 55  1  0  0  0  0
 26 56  1  0  0  0  0
 27 57  1  0  0  0  0
 27 58  1  0  0  0  0
M  CHG  1   2   1
M  END
> <BIOSOLVEIT.HYDE_ESTIMATED_AFFINITY_LOWER_BOUNDARY [nM]>
71945646.054088

> <BIOSOLVEIT.HYDE_ESTIMATED_AFFINITY_UPPER_BOUNDARY [nM]>
7148225311.797896

> <BIOSOLVEIT.HYDE_LIGAND_EFFICIENCY range: ++, +, 0, -, -->
--

> <BIOSOLVEIT.HYDE_LIGAND_LIPOPHILIC_EFFICIENCY range: ++, +, 0, -, -->
--

> <BIOSOLVEIT.INTER_CLASH range: red, yellow, green>
green

> <BIOSOLVEIT.INTRA_CLASH range: red, yellow, green>
yellow

> <BIOSOLVEIT.LOGP>
1.5749

> <BIOSOLVEIT.MOLECULAR WEIGHT>
380.481

> <BIOSOLVEIT.MOLECULE_CHECKSUM>
LTAuODI0MjI5OzAuMDMwNTI3

> <BIOSOLVEIT.TORSION_QUALITY range: red, yellow, green, not rotatable>
yellow

> <BIOSOLVEIT.TPSA>
71.87

$$$$
mol_71_1_05
anSeeSAR  04022021533D 1   1.00000     0.00000     0
SeeSAR 9.2 andre
 50 51  0  0  0  0            999 V2000
    2.6250    5.8294   21.6149 C   0  0  0  0  0  0  0  0  0  0  0  0
    3.9272    5.4957   22.3432 C   0  0  0  0  0  0  0  0  0  0  0  0
    4.6488    6.7431   22.8856 C   0  0  0  0  0  0  0  0  0  0  0  0
    5.9509    6.4518   23.6157 C   0  0  0  0  0  0  0  0  0  0  0  0
    5.8612    5.1263   24.3564 C   0  0  0  0  0  0  0  0  0  0  0  0
    7.2459    4.5127   24.5104 C   0  0  0  0  0  0  0  0  0  0  0  0
    7.7657    4.0587   23.1546 C   0  0  0  0  0  0  0  0  0  0  0  0
    7.3123    2.7444   22.8265 O   0  0  0  0  0  0  0  0  0  0  0  0
    8.1422    1.7059   22.3827 C   0  0  0  0  0  0  0  0  0  0  0  0
    9.3889    1.8731   22.2954 O   0  0  0  0  0  0  0  0  0  0  0  0
    7.5372    0.3967   21.9455 C   0  0  1  0  0  0  0  0  0  0  0  0
    6.6551   -0.1336   22.9895 N   0  0  0  0  0  0  0  0  0  0  0  0
    7.0709   -1.1779   23.8823 C   0  0  0  0  0  0  0  0  0  0  0  0
    8.4620   -1.7192   23.8064 C   0  0  0  0  0  0  0  0  0  0  0  0
    6.2858   -1.6098   24.7687 O   0  0  0  0  0  0  0  0  0  0  0  0
    6.7559    0.5545   20.6507 C   0  0  0  0  0  0  0  0  0  0  0  0
    7.2085   -0.0775   19.4972 C   0  0  0  0  0  0  0  0  0  0  0  0
    6.4874    0.0729   18.3175 C   0  0  0  0  0  0  0  0  0  0  0  0
    5.3290    0.8417   18.2807 C   0  0  0  0  0  0  0  0  0  0  0  0
    4.8947    1.4645   19.4459 C   0  0  0  0  0  0  0  0  0  0  0  0
    3.2653    2.5536   19.4169 Br  0  0  0  0  0  0  0  0  0  0  0  0
    5.6005    1.3286   20.6367 C   0  0  0  0  0  0  0  0  0  0  0  0
    7.2810    5.0145   22.0738 C   0  0  0  0  0  0  0  0  0  0  0  0
    7.1398    6.4069   22.6680 C   0  0  0  0  0  0  0  0  0  0  0  0
    2.2015    4.9854   21.2857 H   0  0  0  0  0  0  0  0  0  0  0  0
    2.0005    6.2924   22.2438 H   0  0  0  0  0  0  0  0  0  0  0  0
    2.8213    6.4286   20.8387 H   0  0  0  0  0  0  0  0  0  0  0  0
    4.5379    5.0262   21.7055 H   0  0  0  0  0  0  0  0  0  0  0  0
    3.7171    4.8900   23.1106 H   0  0  0  0  0  0  0  0  0  0  0  0
    4.0325    7.2090   23.5204 H   0  0  0  0  0  0  0  0  0  0  0  0
    4.8516    7.3465   22.1144 H   0  0  0  0  0  0  0  0  0  0  0  0
    6.1074    7.1781   24.2850 H   0  0  0  0  0  0  0  0  0  0  0  0
    5.2778    4.4989   23.8405 H   0  0  0  0  0  0  0  0  0  0  0  0
    5.4660    5.2804   25.2620 H   0  0  0  0  0  0  0  0  0  0  0  0
    7.1933    3.7260   25.1256 H   0  0  0  0  0  0  0  0  0  0  0  0
    7.8696    5.1941   24.8933 H   0  0  0  0  0  0  0  0  0  0  0  0
    8.7656    4.0642   23.1702 H   0  0  0  0  0  0  0  0  0  0  0  0
    8.2766   -0.2588   21.7918 H   0  0  0  0  0  0  0  0  0  0  0  0
    5.7340    0.2444   23.0827 H   0  0  0  0  0  0  0  0  0  0  0  0
    8.5792   -2.4348   24.4950 H   0  0  0  0  0  0  0  0  0  0  0  0
    8.6212   -2.1027   22.8967 H   0  0  0  0  0  0  0  0  0  0  0  0
    9.1162   -0.9823   23.9767 H   0  0  0  0  0  0  0  0  0  0  0  0
    8.0404   -0.6320   19.5159 H   0  0  0  0  0  0  0  0  0  0  0  0
    6.8063   -0.3781   17.4839 H   0  0  0  0  0  0  0  0  0  0  0  0
    4.8157    0.9451   17.4288 H   0  0  0  0  0  0  0  0  0  0  0  0
    5.2820    1.7806   21.4699 H   0  0  0  0  0  0  0  0  0  0  0  0
    6.3948    4.7067   21.7275 H   0  0  0  0  0  0  0  0  0  0  0  0
    7.9427    5.0358   21.3243 H   0  0  0  0  0  0  0  0  0  0  0  0
    7.0008    7.0685   21.9312 H   0  0  0  0  0  0  0  0  0  0  0  0
    7.9727    6.6381   23.1708 H   0  0  0  0  0  0  0  0  0  0  0  0
  1  2  1  0  0  0  0
  2  3  1  0  0  0  0
  3  4  1  0  0  0  0
  4  5  1  0  0  0  0
  5  6  1  0  0  0  0
  6  7  1  0  0  0  0
  7  8  1  0  0  0  0
  8  9  1  0  0  0  0
  9 10  2  0  0  0  0
  9 11  1  0  0  0  0
 11 12  1  0  0  0  0
 12 13  1  0  0  0  0
 13 14  1  0  0  0  0
 13 15  2  0  0  0  0
 11 16  1  0  0  0  0
 16 17  2  0  0  0  0
 17 18  1  0  0  0  0
 18 19  2  0  0  0  0
 19 20  1  0  0  0  0
 20 21  1  0  0  0  0
 20 22  2  0  0  0  0
  7 23  1  0  0  0  0
 23 24  1  0  0  0  0
 24  4  1  0  0  0  0
 22 16  1  0  0  0  0
  1 25  1  0  0  0  0
  1 26  1  0  0  0  0
  1 27  1  0  0  0  0
  2 28  1  0  0  0  0
  2 29  1  0  0  0  0
  3 30  1  0  0  0  0
  3 31  1  0  0  0  0
  4 32  1  0  0  0  0
  5 33  1  0  0  0  0
  5 34  1  0  0  0  0
  6 35  1  0  0  0  0
  6 36  1  0  0  0  0
  7 37  1  0  0  0  0
 11 38  1  0  0  0  0
 12 39  1  0  0  0  0
 14 40  1  0  0  0  0
 14 41  1  0  0  0  0
 14 42  1  0  0  0  0
 17 43  1  0  0  0  0
 18 44  1  0  0  0  0
 19 45  1  0  0  0  0
 22 46  1  0  0  0  0
 23 47  1  0  0  0  0
 23 48  1  0  0  0  0
 24 49  1  0  0  0  0
 24 50  1  0  0  0  0
M  END
> <BIOSOLVEIT.HYDE_ESTIMATED_AFFINITY_LOWER_BOUNDARY [nM]>
408853704.653409

> <BIOSOLVEIT.HYDE_ESTIMATED_AFFINITY_UPPER_BOUNDARY [nM]>
40622032891.728813

> <BIOSOLVEIT.HYDE_LIGAND_EFFICIENCY range: ++, +, 0, -, -->
--

> <BIOSOLVEIT.HYDE_LIGAND_LIPOPHILIC_EFFICIENCY range: ++, +, 0, -, -->
--

> <BIOSOLVEIT.INTER_CLASH range: red, yellow, green>
green

> <BIOSOLVEIT.INTRA_CLASH range: red, yellow, green>
green

> <BIOSOLVEIT.LOGP>
4.5284

> <BIOSOLVEIT.MOLECULAR WEIGHT>
396.322

> <BIOSOLVEIT.MOLECULE_CHECKSUM>
My40ODI4Mzsw

> <BIOSOLVEIT.TORSION_QUALITY range: red, yellow, green, not rotatable>
green

> <BIOSOLVEIT.TPSA>
55.4

$$$$
mol_23_1_02
anSeeSAR  04022021533D 1   1.00000     0.00000     0
SeeSAR 9.2 andre
 62 64  0  0  0  0            999 V2000
    6.5463    2.2959   31.9107 C   0  0  0  0  0  0  0  0  0  0  0  0
    6.1992    2.9414   30.5787 C   0  0  2  0  0  0  0  0  0  0  0  0
    6.9606    2.2061   29.4877 C   0  0  0  0  0  0  0  0  0  0  0  0
    6.6346    2.8125   28.1321 C   0  0  2  0  0  0  0  0  0  0  0  0
    7.3932    2.1272   27.0815 N   0  0  0  0  0  0  0  0  0  0  0  0
    7.2371    2.4160   25.6848 C   0  0  0  0  0  0  0  0  0  0  0  0
    6.4167    3.2960   25.3061 O   0  0  0  0  0  0  0  0  0  0  0  0
    8.0213    1.7024   24.7182 N   0  0  0  0  0  0  0  0  0  0  0  0
    7.9091    1.9559   23.2784 C   0  0  2  0  0  0  0  0  0  0  0  0
    7.2632    0.7576   22.5507 C   0  0  0  0  0  0  0  0  0  0  0  0
    6.0595    1.1678   21.7384 C   0  0  0  0  0  0  0  0  0  0  0  0
    4.8806    1.5848   22.3791 C   0  0  0  0  0  0  0  0  0  0  0  0
    3.7686    1.9748   21.6260 C   0  0  0  0  0  0  0  0  0  0  0  0
    3.8214    1.9415   20.2303 C   0  0  0  0  0  0  0  0  0  0  0  0
    4.9861    1.5178   19.5850 C   0  0  0  0  0  0  0  0  0  0  0  0
    6.1011    1.1298   20.3341 C   0  0  0  0  0  0  0  0  0  0  0  0
    9.2517    2.3531   22.6854 C   0  0  0  0  0  0  0  0  0  0  0  0
    9.6741    1.6697   21.7114 O   0  0  0  0  0  0  0  0  0  0  0  0
   10.0632    3.4537   23.1710 N   0  0  0  0  0  0  0  0  0  0  0  0
   11.5162    3.5347   22.9783 C   0  0  0  0  0  0  0  0  0  0  0  0
    9.4069    4.5894   23.7630 C   0  0  0  0  0  0  0  0  0  0  0  0
    9.6451    4.8979   25.0980 C   0  0  0  0  0  0  0  0  0  0  0  0
    9.0072    5.9965   25.6642 C   0  0  0  0  0  0  0  0  0  0  0  0
    8.1424    6.7771   24.9054 C   0  0  0  0  0  0  0  0  0  0  0  0
    7.9098    6.4607   23.5706 C   0  0  0  0  0  0  0  0  0  0  0  0
    8.5430    5.3640   22.9955 C   0  0  0  0  0  0  0  0  0  0  0  0
    6.9935    4.2899   28.1660 C   0  0  0  0  0  0  0  0  0  0  0  0
    6.2285    4.9873   29.2795 C   0  0  0  0  0  0  0  0  0  0  0  0
    6.5315    4.3748   30.5816 N   0  0  0  0  0  0  0  0  0  0  0  0
    5.7681    5.0941   31.6119 C   0  0  0  0  0  0  0  0  0  0  0  0
    6.0559    2.7640   32.6458 H   0  0  0  0  0  0  0  0  0  0  0  0
    6.2801    1.3321   31.8935 H   0  0  0  0  0  0  0  0  0  0  0  0
    7.5311    2.3669   32.0690 H   0  0  0  0  0  0  0  0  0  0  0  0
    5.2182    2.8372   30.4148 H   0  0  0  0  0  0  0  0  0  0  0  0
    6.6970    1.2414   29.4916 H   0  0  0  0  0  0  0  0  0  0  0  0
    7.9428    2.2839   29.6584 H   0  0  0  0  0  0  0  0  0  0  0  0
    5.6559    2.7136   27.9519 H   0  0  0  0  0  0  0  0  0  0  0  0
    8.0514    1.4243   27.3513 H   0  0  0  0  0  0  0  0  0  0  0  0
    8.6665    1.0083   25.0374 H   0  0  0  0  0  0  0  0  0  0  0  0
    7.2943    2.7362   23.1639 H   0  0  0  0  0  0  0  0  0  0  0  0
    6.9780    0.0828   23.2313 H   0  0  0  0  0  0  0  0  0  0  0  0
    7.9406    0.3486   21.9393 H   0  0  0  0  0  0  0  0  0  0  0  0
    4.8366    1.6027   23.3780 H   0  0  0  0  0  0  0  0  0  0  0  0
    2.9346    2.2780   22.0871 H   0  0  0  0  0  0  0  0  0  0  0  0
    3.0256    2.2208   19.6930 H   0  0  0  0  0  0  0  0  0  0  0  0
    5.0222    1.4921   18.5860 H   0  0  0  0  0  0  0  0  0  0  0  0
    6.9317    0.8239   19.8687 H   0  0  0  0  0  0  0  0  0  0  0  0
   11.8613    4.3759   23.3945 H   0  0  0  0  0  0  0  0  0  0  0  0
   11.9541    2.7456   23.4091 H   0  0  0  0  0  0  0  0  0  0  0  0
   11.7230    3.5377   21.9999 H   0  0  0  0  0  0  0  0  0  0  0  0
   10.2672    4.3368   25.6440 H   0  0  0  0  0  0  0  0  0  0  0  0
    9.1717    6.2265   26.6234 H   0  0  0  0  0  0  0  0  0  0  0  0
    7.6875    7.5658   25.3189 H   0  0  0  0  0  0  0  0  0  0  0  0
    7.2875    7.0218   23.0249 H   0  0  0  0  0  0  0  0  0  0  0  0
    8.3783    5.1337   22.0364 H   0  0  0  0  0  0  0  0  0  0  0  0
    6.7562    4.7082   27.2893 H   0  0  0  0  0  0  0  0  0  0  0  0
    7.9755    4.3882   28.3274 H   0  0  0  0  0  0  0  0  0  0  0  0
    5.2475    4.9111   29.1014 H   0  0  0  0  0  0  0  0  0  0  0  0
    6.4892    5.9524   29.3023 H   0  0  0  0  0  0  0  0  0  0  0  0
    5.9588    4.6939   32.5082 H   0  0  0  0  0  0  0  0  0  0  0  0
    6.0357    6.0576   31.6132 H   0  0  0  0  0  0  0  0  0  0  0  0
    4.7905    5.0200   31.4149 H   0  0  0  0  0  0  0  0  0  0  0  0
  1  2  1  0  0  0  0
  2  3  1  0  0  0  0
  3  4  1  0  0  0  0
  4  5  1  0  0  0  0
  5  6  1  0  0  0  0
  6  7  2  0  0  0  0
  6  8  1  0  0  0  0
  8  9  1  0  0  0  0
  9 10  1  0  0  0  0
 10 11  1  0  0  0  0
 11 12  2  0  0  0  0
 12 13  1  0  0  0  0
 13 14  2  0  0  0  0
 14 15  1  0  0  0  0
 15 16  2  0  0  0  0
  9 17  1  0  0  0  0
 17 18  2  0  0  0  0
 17 19  1  0  0  0  0
 19 20  1  0  0  0  0
 19 21  1  0  0  0  0
 21 22  2  0  0  0  0
 22 23  1  0  0  0  0
 23 24  2  0  0  0  0
 24 25  1  0  0  0  0
 25 26  2  0  0  0  0
  4 27  1  0  0  0  0
 27 28  1  0  0  0  0
 28 29  1  0  0  0  0
 29 30  1  0  0  0  0
 29  2  1  0  0  0  0
 16 11  1  0  0  0  0
 26 21  1  0  0  0  0
  1 31  1  0  0  0  0
  1 32  1  0  0  0  0
  1 33  1  0  0  0  0
  2 34  1  0  0  0  0
  3 35  1  0  0  0  0
  3 36  1  0  0  0  0
  4 37  1  0  0  0  0
  5 38  1  0  0  0  0
  8 39  1  0  0  0  0
  9 40  1  0  0  0  0
 10 41  1  0  0  0  0
 10 42  1  0  0  0  0
 12 43  1  0  0  0  0
 13 44  1  0  0  0  0
 14 45  1  0  0  0  0
 15 46  1  0  0  0  0
 16 47  1  0  0  0  0
 20 48  1  0  0  0  0
 20 49  1  0  0  0  0
 20 50  1  0  0  0  0
 22 51  1  0  0  0  0
 23 52  1  0  0  0  0
 24 53  1  0  0  0  0
 25 54  1  0  0  0  0
 26 55  1  0  0  0  0
 27 56  1  0  0  0  0
 27 57  1  0  0  0  0
 28 58  1  0  0  0  0
 28 59  1  0  0  0  0
 30 62  1  0  0  0  0
 30 60  1  0  0  0  0
 30 61  1  0  0  0  0
M  END
> <BIOSOLVEIT.HYDE_ESTIMATED_AFFINITY_LOWER_BOUNDARY [nM]>
546998162.789827

> <BIOSOLVEIT.HYDE_ESTIMATED_AFFINITY_UPPER_BOUNDARY [nM]>
54347501582.258881

> <BIOSOLVEIT.HYDE_LIGAND_EFFICIENCY range: ++, +, 0, -, -->
--

> <BIOSOLVEIT.HYDE_LIGAND_LIPOPHILIC_EFFICIENCY range: ++, +, 0, -, -->
--

> <BIOSOLVEIT.INTER_CLASH range: red, yellow, green>
green

> <BIOSOLVEIT.INTRA_CLASH range: red, yellow, green>
green

> <BIOSOLVEIT.LOGP>
3.0426

> <BIOSOLVEIT.MOLECULAR WEIGHT>
408.543

> <BIOSOLVEIT.MOLECULE_CHECKSUM>
NC4yMDQ0Mjsw

> <BIOSOLVEIT.TORSION_QUALITY range: red, yellow, green, not rotatable>
yellow

> <BIOSOLVEIT.TPSA>
64.68

$$$$
mol_48_1_05
anSeeSAR  04022021533D 1   1.00000     0.00000     0
SeeSAR 9.2 andre
 41 41  0  0  0  0            999 V2000
    4.5079    7.5075   14.6823 C   0  0  0  0  0  0  0  0  0  0  0  0
    3.4077    6.9329   15.5697 C   0  0  0  0  0  0  0  0  0  0  0  0
    2.8470    5.6302   14.9820 C   0  0  0  0  0  0  0  0  0  0  0  0
    1.8147    4.9756   15.9078 C   0  0  0  0  0  0  0  0  0  0  0  0
    2.0957    5.4151   17.6633 S   0  0  0  0  0  0  0  0  0  0  0  0
    0.7523    4.3818   18.3415 C   0  0  0  0  0  0  0  0  0  0  0  0
    1.3382    3.1958   19.0391 C   0  0  0  0  0  0  0  0  0  0  0  0
    0.6781    2.6195   19.9459 O   0  0  0  0  0  0  0  0  0  0  0  0
    2.6477    2.7272   18.6844 N   0  0  0  0  0  0  0  0  0  0  0  0
    3.5352    2.0754   19.6529 C   0  0  1  0  0  0  0  0  0  0  0  0
    4.9354    1.8858   19.0368 C   0  0  0  0  0  0  0  0  0  0  0  0
    5.8577    1.1160   19.9559 C   0  0  0  0  0  0  0  0  0  0  0  0
    6.0311   -0.2784   19.8246 C   0  0  0  0  0  0  0  0  0  0  0  0
    5.3557   -0.9836   18.8286 O   0  0  0  0  0  0  0  0  0  0  0  0
    6.8935   -0.9591   20.6972 C   0  0  0  0  0  0  0  0  0  0  0  0
    7.5804   -0.2641   21.6950 C   0  0  0  0  0  0  0  0  0  0  0  0
    7.4101    1.1145   21.8300 C   0  0  0  0  0  0  0  0  0  0  0  0
    6.5531    1.8022   20.9673 C   0  0  0  0  0  0  0  0  0  0  0  0
    3.6141    2.8993   20.9111 C   0  0  0  0  0  0  0  0  0  0  0  0
    3.6870    4.1545   20.8418 O   0  0  0  0  0  0  0  0  0  0  0  0
    3.6048    2.2816   22.1563 O   0  5  0  0  0  0  0  0  0  0  0  0
    4.8548    8.3536   15.0871 H   0  0  0  0  0  0  0  0  0  0  0  0
    5.2531    6.8453   14.6042 H   0  0  0  0  0  0  0  0  0  0  0  0
    4.1368    7.7003   13.7739 H   0  0  0  0  0  0  0  0  0  0  0  0
    2.6679    7.6013   15.6468 H   0  0  0  0  0  0  0  0  0  0  0  0
    3.7842    6.7463   16.4771 H   0  0  0  0  0  0  0  0  0  0  0  0
    3.6020    4.9905   14.8379 H   0  0  0  0  0  0  0  0  0  0  0  0
    2.4107    5.8337   14.1056 H   0  0  0  0  0  0  0  0  0  0  0  0
    1.8761    3.9823   15.8094 H   0  0  0  0  0  0  0  0  0  0  0  0
    0.9009    5.2812   15.6403 H   0  0  0  0  0  0  0  0  0  0  0  0
    0.1617    4.0720   17.5963 H   0  0  0  0  0  0  0  0  0  0  0  0
    0.2147    4.9188   18.9916 H   0  0  0  0  0  0  0  0  0  0  0  0
    2.9659    2.8493   17.7442 H   0  0  0  0  0  0  0  0  0  0  0  0
    3.1593    1.1769   19.8798 H   0  0  0  0  0  0  0  0  0  0  0  0
    5.3343    2.7852   18.8581 H   0  0  0  0  0  0  0  0  0  0  0  0
    4.8446    1.3845   18.1763 H   0  0  0  0  0  0  0  0  0  0  0  0
    5.3449   -1.9834   18.8436 H   0  0  0  0  0  0  0  0  0  0  0  0
    7.0169   -1.9471   20.6042 H   0  0  0  0  0  0  0  0  0  0  0  0
    8.1947   -0.7545   22.3132 H   0  0  0  0  0  0  0  0  0  0  0  0
    7.9023    1.6108   22.5452 H   0  0  0  0  0  0  0  0  0  0  0  0
    6.4332    2.7896   21.0698 H   0  0  0  0  0  0  0  0  0  0  0  0
  1  2  1  0  0  0  0
  2  3  1  0  0  0  0
  3  4  1  0  0  0  0
  4  5  1  0  0  0  0
  5  6  1  0  0  0  0
  6  7  1  0  0  0  0
  7  8  2  0  0  0  0
  7  9  1  0  0  0  0
  9 10  1  0  0  0  0
 10 11  1  0  0  0  0
 11 12  1  0  0  0  0
 12 13  2  0  0  0  0
 13 14  1  0  0  0  0
 13 15  1  0  0  0  0
 15 16  2  0  0  0  0
 16 17  1  0  0  0  0
 17 18  2  0  0  0  0
 10 19  1  0  0  0  0
 19 20  2  0  0  0  0
 19 21  1  0  0  0  0
 18 12  1  0  0  0  0
  1 22  1  0  0  0  0
  1 23  1  0  0  0  0
  1 24  1  0  0  0  0
  2 25  1  0  0  0  0
  2 26  1  0  0  0  0
  3 27  1  0  0  0  0
  3 28  1  0  0  0  0
  4 29  1  0  0  0  0
  4 30  1  0  0  0  0
  6 31  1  0  0  0  0
  6 32  1  0  0  0  0
  9 33  1  0  0  0  0
 10 34  1  0  0  0  0
 11 35  1  0  0  0  0
 11 36  1  0  0  0  0
 14 37  1  0  0  0  0
 15 38  1  0  0  0  0
 16 39  1  0  0  0  0
 17 40  1  0  0  0  0
 18 41  1  0  0  0  0
M  CHG  1  21  -1
M  END
> <BIOSOLVEIT.HYDE_ESTIMATED_AFFINITY_LOWER_BOUNDARY [nM]>
668409332.860548

> <BIOSOLVEIT.HYDE_ESTIMATED_AFFINITY_UPPER_BOUNDARY [nM]>
66410419168.433167

> <BIOSOLVEIT.HYDE_LIGAND_EFFICIENCY range: ++, +, 0, -, -->
--

> <BIOSOLVEIT.HYDE_LIGAND_LIPOPHILIC_EFFICIENCY range: ++, +, 0, -, -->
--

> <BIOSOLVEIT.INTER_CLASH range: red, yellow, green>
green

> <BIOSOLVEIT.INTRA_CLASH range: red, yellow, green>
green

> <BIOSOLVEIT.LOGP>
0.7027

> <BIOSOLVEIT.MOLECULAR WEIGHT>
310.391

> <BIOSOLVEIT.MOLECULE_CHECKSUM>
NC43MDEzNDsw

> <BIOSOLVEIT.TORSION_QUALITY range: red, yellow, green, not rotatable>
red

> <BIOSOLVEIT.TPSA>
89.46

$$$$
mol_77_1_03
anSeeSAR  04022021533D 1   1.00000     0.00000     0
SeeSAR 9.2 andre
 30 31  0  0  0  0            999 V2000
    7.7459    0.9447   24.7572 O   0  0  0  0  0  0  0  0  0  0  0  0
    7.3457   -0.2039   24.4197 C   0  0  0  0  0  0  0  0  0  0  0  0
    7.1082   -1.2037   25.4199 N   0  0  0  0  0  0  0  0  0  0  0  0
    7.2825   -2.6276   25.1280 C   0  0  0  0  0  0  0  0  0  0  0  0
    6.9864   -3.4973   26.3525 C   0  0  0  0  0  0  0  0  0  0  0  0
    5.6955   -3.2701   26.7957 F   0  0  0  0  0  0  0  0  0  0  0  0
    7.8692   -3.1728   27.3661 F   0  0  0  0  0  0  0  0  0  0  0  0
    7.1986   -5.3801   25.9309 Br  0  0  0  0  0  0  0  0  0  0  0  0
    7.0965   -0.5132   22.9522 C   0  0  1  0  0  0  0  0  0  0  0  0
    6.4135    0.6995   22.3388 C   0  0  0  0  0  0  0  0  0  0  0  0
    6.3572    0.5704   20.8259 C   0  0  0  0  0  0  0  0  0  0  0  0
    7.3802   -0.0699   20.1345 C   0  0  0  0  0  0  0  0  0  0  0  0
    7.2871   -0.1747   18.7492 C   0  0  0  0  0  0  0  0  0  0  0  0
    6.1963    0.3518   18.0647 C   0  0  0  0  0  0  0  0  0  0  0  0
    5.1821    0.9906   18.7705 C   0  0  0  0  0  0  0  0  0  0  0  0
    5.2603    1.1025   20.1551 C   0  0  0  0  0  0  0  0  0  0  0  0
    8.4708   -0.5770   20.8520 N   0  0  0  0  0  0  0  0  0  0  0  0
    8.3930   -0.8352   22.2264 C   0  0  0  0  0  0  0  0  0  0  0  0
    9.3506   -1.3148   22.8128 O   0  0  0  0  0  0  0  0  0  0  0  0
    6.8179   -0.9228   26.3346 H   0  0  0  0  0  0  0  0  0  0  0  0
    8.2265   -2.7859   24.8388 H   0  0  0  0  0  0  0  0  0  0  0  0
    6.6598   -2.8854   24.3892 H   0  0  0  0  0  0  0  0  0  0  0  0
    6.4829   -1.2999   22.8856 H   0  0  0  0  0  0  0  0  0  0  0  0
    6.9268    1.5232   22.5799 H   0  0  0  0  0  0  0  0  0  0  0  0
    5.4828    0.7697   22.6979 H   0  0  0  0  0  0  0  0  0  0  0  0
    8.0141   -0.6347   18.2394 H   0  0  0  0  0  0  0  0  0  0  0  0
    6.1417    0.2714   17.0694 H   0  0  0  0  0  0  0  0  0  0  0  0
    4.3960    1.3696   18.2823 H   0  0  0  0  0  0  0  0  0  0  0  0
    4.5331    1.5623   20.6648 H   0  0  0  0  0  0  0  0  0  0  0  0
    9.3278   -0.7596   20.3702 H   0  0  0  0  0  0  0  0  0  0  0  0
  1  2  2  0  0  0  0
  2  3  1  0  0  0  0
  3  4  1  0  0  0  0
  4  5  1  0  0  0  0
  5  6  1  0  0  0  0
  5  7  1  0  0  0  0
  5  8  1  0  0  0  0
  2  9  1  0  0  0  0
  9 10  1  0  0  0  0
 10 11  1  0  0  0  0
 11 12  2  0  0  0  0
 12 13  1  0  0  0  0
 13 14  2  0  0  0  0
 14 15  1  0  0  0  0
 15 16  2  0  0  0  0
 12 17  1  0  0  0  0
 17 18  1  0  0  0  0
 18 19  2  0  0  0  0
 18  9  1  0  0  0  0
 16 11  1  0  0  0  0
  3 20  1  0  0  0  0
  4 21  1  0  0  0  0
  4 22  1  0  0  0  0
  9 23  1  0  0  0  0
 10 24  1  0  0  0  0
 10 25  1  0  0  0  0
 13 26  1  0  0  0  0
 14 27  1  0  0  0  0
 15 28  1  0  0  0  0
 16 29  1  0  0  0  0
 17 30  1  0  0  0  0
M  END
> <BIOSOLVEIT.HYDE_ESTIMATED_AFFINITY_LOWER_BOUNDARY [nM]>
760531166.335133

> <BIOSOLVEIT.HYDE_ESTIMATED_AFFINITY_UPPER_BOUNDARY [nM]>
75563267991.518387

> <BIOSOLVEIT.HYDE_LIGAND_EFFICIENCY range: ++, +, 0, -, -->
--

> <BIOSOLVEIT.HYDE_LIGAND_LIPOPHILIC_EFFICIENCY range: ++, +, 0, -, -->
--

> <BIOSOLVEIT.INTER_CLASH range: red, yellow, green>
green

> <BIOSOLVEIT.INTRA_CLASH range: red, yellow, green>
green

> <BIOSOLVEIT.LOGP>
1.9013

> <BIOSOLVEIT.MOLECULAR WEIGHT>
333.131

> <BIOSOLVEIT.MOLECULE_CHECKSUM>
NS4wMjE0MTsw

> <BIOSOLVEIT.TORSION_QUALITY range: red, yellow, green, not rotatable>
green

> <BIOSOLVEIT.TPSA>
58.2

$$$$
mol_38_1_02
anSeeSAR  04022021533D 1   1.00000     0.00000     0
SeeSAR 9.2 andre
 57 58  0  0  0  0            999 V2000
   12.3453    6.7898   30.1526 C   0  0  0  0  0  0  0  0  0  0  0  0
   11.0426    7.5940   30.0441 C   0  0  0  0  0  0  0  0  0  0  0  0
    9.9778    6.9836   30.9687 C   0  0  0  0  0  0  0  0  0  0  0  0
   10.5773    7.6446   28.5691 C   0  0  0  0  0  0  0  0  0  0  0  0
   11.7350    7.6836   27.5560 C   0  0  0  0  0  0  0  0  0  0  0  0
   11.2537    7.8157   26.2311 O   0  0  0  0  0  0  0  0  0  0  0  0
   10.9886    6.5564   25.6366 C   0  0  3  0  0  0  0  0  0  0  0  0
    9.6527    6.5764   24.9093 C   0  0  0  0  0  0  0  0  0  0  0  0
    9.3484    5.2454   24.2425 C   0  0  0  0  0  0  0  0  0  0  0  0
   10.4896    4.2554   24.4195 C   0  0  3  0  0  0  0  0  0  0  0  0
   10.2111    3.0265   23.6704 N   0  0  0  0  0  0  0  0  0  0  0  0
    9.2326    2.0599   24.0802 C   0  0  0  0  0  0  0  0  0  0  0  0
    8.5583    2.2418   25.1323 O   0  0  0  0  0  0  0  0  0  0  0  0
    9.0188    0.8854   23.2844 N   0  0  0  0  0  0  0  0  0  0  0  0
    7.7095    0.2227   23.2179 C   0  0  2  0  0  0  0  0  0  0  0  0
    7.7640   -1.2079   23.7048 C   0  0  0  0  0  0  0  0  0  0  0  0
    8.2673   -1.4932   25.0104 N   0  0  0  0  0  0  0  0  0  0  0  0
    7.3745   -2.1595   22.9745 O   0  0  0  0  0  0  0  0  0  0  0  0
    7.1880    0.2707   21.7994 C   0  0  0  0  0  0  0  0  0  0  0  0
    7.9922   -0.1596   20.7280 C   0  0  0  0  0  0  0  0  0  0  0  0
    7.5113   -0.1044   19.4165 C   0  0  0  0  0  0  0  0  0  0  0  0
    6.2250    0.3807   19.1613 C   0  0  0  0  0  0  0  0  0  0  0  0
    5.6258    0.4585   17.5153 Cl  0  0  0  0  0  0  0  0  0  0  0  0
    5.4174    0.8073   20.2199 C   0  0  0  0  0  0  0  0  0  0  0  0
    5.8948    0.7537   21.5331 C   0  0  0  0  0  0  0  0  0  0  0  0
   11.8024    4.8684   23.9526 C   0  0  0  0  0  0  0  0  0  0  0  0
   12.0886    6.1874   24.6523 C   0  0  0  0  0  0  0  0  0  0  0  0
   13.0354    7.1901   29.5496 H   0  0  0  0  0  0  0  0  0  0  0  0
   12.6738    6.8132   31.0968 H   0  0  0  0  0  0  0  0  0  0  0  0
   12.1756    5.8422   29.8821 H   0  0  0  0  0  0  0  0  0  0  0  0
   11.2244    8.5290   30.3484 H   0  0  0  0  0  0  0  0  0  0  0  0
    9.1310    7.5103   30.8951 H   0  0  0  0  0  0  0  0  0  0  0  0
    9.8057    6.0362   30.6990 H   0  0  0  0  0  0  0  0  0  0  0  0
   10.3039    7.0072   31.9138 H   0  0  0  0  0  0  0  0  0  0  0  0
   10.0189    8.4644   28.4421 H   0  0  0  0  0  0  0  0  0  0  0  0
   10.0237    6.8325   28.3847 H   0  0  0  0  0  0  0  0  0  0  0  0
   12.2606    6.8360   27.6289 H   0  0  0  0  0  0  0  0  0  0  0  0
   12.3266    8.4618   27.7670 H   0  0  0  0  0  0  0  0  0  0  0  0
   10.9535    5.8620   26.3553 H   0  0  0  0  0  0  0  0  0  0  0  0
    9.6767    7.2903   24.2094 H   0  0  0  0  0  0  0  0  0  0  0  0
    8.9291    6.7802   25.5687 H   0  0  0  0  0  0  0  0  0  0  0  0
    9.2005    5.3985   23.2654 H   0  0  0  0  0  0  0  0  0  0  0  0
    8.5196    4.8610   24.6490 H   0  0  0  0  0  0  0  0  0  0  0  0
   10.5691    4.0281   25.3901 H   0  0  0  0  0  0  0  0  0  0  0  0
   10.7285    2.8531   22.8324 H   0  0  0  0  0  0  0  0  0  0  0  0
    9.7822    0.5075   22.7606 H   0  0  0  0  0  0  0  0  0  0  0  0
    7.0737    0.7275   23.8018 H   0  0  0  0  0  0  0  0  0  0  0  0
    8.3052   -2.4379   25.3363 H   0  0  0  0  0  0  0  0  0  0  0  0
    8.5820   -0.7484   25.5988 H   0  0  0  0  0  0  0  0  0  0  0  0
    8.9130   -0.5068   20.9056 H   0  0  0  0  0  0  0  0  0  0  0  0
    8.0881   -0.4122   18.6598 H   0  0  0  0  0  0  0  0  0  0  0  0
    4.4964    1.1515   20.0376 H   0  0  0  0  0  0  0  0  0  0  0  0
    5.3134    1.0604   22.2867 H   0  0  0  0  0  0  0  0  0  0  0  0
   11.7524    5.0289   22.9668 H   0  0  0  0  0  0  0  0  0  0  0  0
   12.5462    4.2295   24.1490 H   0  0  0  0  0  0  0  0  0  0  0  0
   12.1625    6.9093   23.9642 H   0  0  0  0  0  0  0  0  0  0  0  0
   12.9536    6.1096   25.1481 H   0  0  0  0  0  0  0  0  0  0  0  0
  1  2  1  0  0  0  0
  2  3  1  0  0  0  0
  2  4  1  0  0  0  0
  4  5  1  0  0  0  0
  5  6  1  0  0  0  0
  6  7  1  0  0  0  0
  7  8  1  0  0  0  0
  8  9  1  0  0  0  0
  9 10  1  0  0  0  0
 10 11  1  0  0  0  0
 11 12  1  0  0  0  0
 12 13  2  0  0  0  0
 12 14  1  0  0  0  0
 14 15  1  0  0  0  0
 15 16  1  0  0  0  0
 16 17  1  0  0  0  0
 16 18  2  0  0  0  0
 15 19  1  0  0  0  0
 19 20  2  0  0  0  0
 20 21  1  0  0  0  0
 21 22  2  0  0  0  0
 22 23  1  0  0  0  0
 22 24  1  0  0  0  0
 24 25  2  0  0  0  0
 10 26  1  0  0  0  0
 26 27  1  0  0  0  0
 27  7  1  0  0  0  0
 25 19  1  0  0  0  0
  1 28  1  0  0  0  0
  1 29  1  0  0  0  0
  1 30  1  0  0  0  0
  2 31  1  0  0  0  0
  3 32  1  0  0  0  0
  3 33  1  0  0  0  0
  3 34  1  0  0  0  0
  4 35  1  0  0  0  0
  4 36  1  0  0  0  0
  5 37  1  0  0  0  0
  5 38  1  0  0  0  0
  7 39  1  0  0  0  0
  8 40  1  0  0  0  0
  8 41  1  0  0  0  0
  9 42  1  0  0  0  0
  9 43  1  0  0  0  0
 10 44  1  0  0  0  0
 11 45  1  0  0  0  0
 14 46  1  0  0  0  0
 15 47  1  0  0  0  0
 17 48  1  0  0  0  0
 17 49  1  0  0  0  0
 20 50  1  0  0  0  0
 21 51  1  0  0  0  0
 24 52  1  0  0  0  0
 25 53  1  0  0  0  0
 26 54  1  0  0  0  0
 26 55  1  0  0  0  0
 27 56  1  0  0  0  0
 27 57  1  0  0  0  0
M  END
> <BIOSOLVEIT.HYDE_ESTIMATED_AFFINITY_LOWER_BOUNDARY [nM]>
854929886.975260

> <BIOSOLVEIT.HYDE_ESTIMATED_AFFINITY_UPPER_BOUNDARY [nM]>
84942339016.522400

> <BIOSOLVEIT.HYDE_LIGAND_EFFICIENCY range: ++, +, 0, -, -->
--

> <BIOSOLVEIT.HYDE_LIGAND_LIPOPHILIC_EFFICIENCY range: ++, +, 0, -, -->
--

> <BIOSOLVEIT.INTER_CLASH range: red, yellow, green>
green

> <BIOSOLVEIT.INTRA_CLASH range: red, yellow, green>
green

> <BIOSOLVEIT.LOGP>
3.5395

> <BIOSOLVEIT.MOLECULAR WEIGHT>
395.928

> <BIOSOLVEIT.MOLECULE_CHECKSUM>
NS4zMTE0Njsw

> <BIOSOLVEIT.TORSION_QUALITY range: red, yellow, green, not rotatable>
green

> <BIOSOLVEIT.TPSA>
93.45

$$$$
mol_66_1_03
anSeeSAR  04022021533D 1   1.00000     0.00000     0
SeeSAR 9.2 andre
 52 53  0  0  0  0            999 V2000
    7.0992    9.6279   24.7327 C   0  0  0  0  0  0  0  0  0  0  0  0
    7.6044    8.4933   25.6092 C   0  0  1  0  0  0  0  0  0  0  0  0
    7.5498    7.2095   24.7957 C   0  0  0  0  0  0  0  0  0  0  0  0
    8.0453    6.0491   25.6447 C   0  0  1  0  0  0  0  0  0  0  0  0
    8.0226    4.8124   24.8564 N   0  0  0  0  0  0  0  0  0  0  0  0
    6.8236    4.0753   24.5776 C   0  0  0  0  0  0  0  0  0  0  0  0
    5.7167    4.6730   24.4859 O   0  0  0  0  0  0  0  0  0  0  0  0
    6.8927    2.6534   24.3983 N   0  0  0  0  0  0  0  0  0  0  0  0
    5.7174    1.8251   24.1055 C   0  0  2  0  0  0  0  0  0  0  0  0
    4.9037    1.6219   25.3977 C   0  0  0  0  0  0  0  0  0  0  0  0
    3.7969    0.7950   25.1546 O   0  0  0  0  0  0  0  0  0  0  0  0
    6.1751    0.4744   23.4994 C   0  0  2  0  0  0  0  0  0  0  0  0
    7.4991    0.1969   23.8828 O   0  0  0  0  0  0  0  0  0  0  0  0
    6.1068    0.4858   21.9811 C   0  0  0  0  0  0  0  0  0  0  0  0
    7.0179   -0.2660   21.2466 C   0  0  0  0  0  0  0  0  0  0  0  0
    6.9627   -0.2616   19.8565 C   0  0  0  0  0  0  0  0  0  0  0  0
    5.9887    0.4991   19.2189 C   0  0  0  0  0  0  0  0  0  0  0  0
    5.9256    0.5090   17.8202 N   0  3  0  0  0  0  0  0  0  0  0  0
    5.6997   -0.5423   17.1854 O   0  0  0  0  0  0  0  0  0  0  0  0
    6.1110    1.6792   17.1201 O   0  5  0  0  0  0  0  0  0  0  0  0
    5.0728    1.2538   19.9450 C   0  0  0  0  0  0  0  0  0  0  0  0
    5.1362    1.2440   21.3343 C   0  0  0  0  0  0  0  0  0  0  0  0
    9.4636    6.3451   26.1070 C   0  0  0  0  0  0  0  0  0  0  0  0
    9.4790    7.6435   26.8987 C   0  0  0  0  0  0  0  0  0  0  0  0
    8.9702    8.7600   26.0877 N   0  0  0  0  0  0  0  0  0  0  0  0
    9.0177    9.9808   26.9059 C   0  0  0  0  0  0  0  0  0  0  0  0
    7.1261   10.4845   25.2479 H   0  0  0  0  0  0  0  0  0  0  0  0
    7.6803    9.7076   23.9228 H   0  0  0  0  0  0  0  0  0  0  0  0
    6.1588    9.4379   24.4507 H   0  0  0  0  0  0  0  0  0  0  0  0
    6.9980    8.4010   26.3989 H   0  0  0  0  0  0  0  0  0  0  0  0
    8.1305    7.3024   23.9870 H   0  0  0  0  0  0  0  0  0  0  0  0
    6.6071    7.0353   24.5110 H   0  0  0  0  0  0  0  0  0  0  0  0
    7.4515    5.9447   26.4425 H   0  0  0  0  0  0  0  0  0  0  0  0
    8.8877    4.4649   24.4946 H   0  0  0  0  0  0  0  0  0  0  0  0
    7.7835    2.2059   24.4766 H   0  0  0  0  0  0  0  0  0  0  0  0
    5.1463    2.3012   23.4368 H   0  0  0  0  0  0  0  0  0  0  0  0
    4.5849    2.5099   25.7292 H   0  0  0  0  0  0  0  0  0  0  0  0
    5.4864    1.1971   26.0905 H   0  0  0  0  0  0  0  0  0  0  0  0
    3.2123    1.2158   24.4610 H   0  0  0  0  0  0  0  0  0  0  0  0
    5.5804   -0.2520   23.8438 H   0  0  0  0  0  0  0  0  0  0  0  0
    7.5068   -0.1701   24.8129 H   0  0  0  0  0  0  0  0  0  0  0  0
    7.7125   -0.8096   21.7177 H   0  0  0  0  0  0  0  0  0  0  0  0
    7.6155   -0.7989   19.3224 H   0  0  0  0  0  0  0  0  0  0  0  0
    4.3776    1.7966   19.4738 H   0  0  0  0  0  0  0  0  0  0  0  0
    4.4840    1.7820   21.8684 H   0  0  0  0  0  0  0  0  0  0  0  0
   10.0620    6.4332   25.3107 H   0  0  0  0  0  0  0  0  0  0  0  0
    9.7879    5.5975   26.6866 H   0  0  0  0  0  0  0  0  0  0  0  0
   10.4174    7.8442   27.1798 H   0  0  0  0  0  0  0  0  0  0  0  0
    8.9032    7.5391   27.7096 H   0  0  0  0  0  0  0  0  0  0  0  0
    8.6752   10.7536   26.3716 H   0  0  0  0  0  0  0  0  0  0  0  0
    8.4486    9.8594   27.7191 H   0  0  0  0  0  0  0  0  0  0  0  0
    9.9617   10.1596   27.1833 H   0  0  0  0  0  0  0  0  0  0  0  0
  1  2  1  0  0  0  0
  2  3  1  0  0  0  0
  3  4  1  0  0  0  0
  4  5  1  0  0  0  0
  5  6  1  0  0  0  0
  6  7  2  0  0  0  0
  6  8  1  0  0  0  0
  8  9  1  0  0  0  0
  9 10  1  0  0  0  0
 10 11  1  0  0  0  0
  9 12  1  0  0  0  0
 12 13  1  0  0  0  0
 12 14  1  0  0  0  0
 14 15  2  0  0  0  0
 15 16  1  0  0  0  0
 16 17  2  0  0  0  0
 17 18  1  0  0  0  0
 18 19  2  0  0  0  0
 18 20  1  0  0  0  0
 17 21  1  0  0  0  0
 21 22  2  0  0  0  0
  4 23  1  0  0  0  0
 23 24  1  0  0  0  0
 24 25  1  0  0  0  0
 25 26  1  0  0  0  0
 25  2  1  0  0  0  0
 22 14  1  0  0  0  0
  1 27  1  0  0  0  0
  1 28  1  0  0  0  0
  1 29  1  0  0  0  0
  2 30  1  0  0  0  0
  3 31  1  0  0  0  0
  3 32  1  0  0  0  0
  4 33  1  0  0  0  0
  5 34  1  0  0  0  0
  8 35  1  0  0  0  0
  9 36  1  0  0  0  0
 10 37  1  0  0  0  0
 10 38  1  0  0  0  0
 11 39  1  0  0  0  0
 12 40  1  0  0  0  0
 13 41  1  0  0  0  0
 15 42  1  0  0  0  0
 16 43  1  0  0  0  0
 21 44  1  0  0  0  0
 22 45  1  0  0  0  0
 23 46  1  0  0  0  0
 23 47  1  0  0  0  0
 24 48  1  0  0  0  0
 24 49  1  0  0  0  0
 26 52  1  0  0  0  0
 26 50  1  0  0  0  0
 26 51  1  0  0  0  0
M  CHG  2  18   1  20  -1
M  END
> <BIOSOLVEIT.HYDE_ESTIMATED_AFFINITY_LOWER_BOUNDARY [nM]>
1543380102.380680

> <BIOSOLVEIT.HYDE_ESTIMATED_AFFINITY_UPPER_BOUNDARY [nM]>
153343938356.863739

> <BIOSOLVEIT.HYDE_LIGAND_EFFICIENCY range: ++, +, 0, -, -->
--

> <BIOSOLVEIT.HYDE_LIGAND_LIPOPHILIC_EFFICIENCY range: ++, +, 0, -, -->
--

> <BIOSOLVEIT.INTER_CLASH range: red, yellow, green>
green

> <BIOSOLVEIT.INTRA_CLASH range: red, yellow, green>
green

> <BIOSOLVEIT.LOGP>
0.771

> <BIOSOLVEIT.MOLECULAR WEIGHT>
366.415

> <BIOSOLVEIT.MOLECULE_CHECKSUM>
Ni43NzU4MTsw

> <BIOSOLVEIT.TORSION_QUALITY range: red, yellow, green, not rotatable>
red

> <BIOSOLVEIT.TPSA>
130.65

$$$$
mol_35_1_01
anSeeSAR  04022021533D 1   1.00000     0.00000     0
SeeSAR 9.2 andre
 57 59  0  0  0  0            999 V2000
    6.4298   -4.6330   25.0161 C   0  0  0  0  0  0  0  0  0  0  0  0
    7.6001   -4.3990   24.1517 N   0  0  0  0  0  0  0  0  0  0  0  0
    7.7346   -5.4696   23.1469 C   0  0  0  0  0  0  0  0  0  0  0  0
    7.6039   -3.0421   23.5498 C   0  0  0  0  0  0  0  0  0  0  0  0
    8.6697   -2.8309   22.4418 C   0  0  0  0  0  0  0  0  0  0  0  0
    9.8738   -2.1580   22.9505 N   0  3  0  0  0  0  0  0  0  0  0  0
   10.5278   -1.3466   21.9125 C   0  0  0  0  0  0  0  0  0  0  0  0
    9.9195    0.0449   21.8628 C   0  0  0  0  0  0  0  0  0  0  0  0
   10.2997    0.8150   23.1162 C   0  0  0  0  0  0  0  0  0  0  0  0
    9.2355    1.7917   23.3931 N   0  0  0  0  0  0  0  0  0  0  0  0
    8.8473    2.2230   24.6613 C   0  0  0  0  0  0  0  0  0  0  0  0
    9.3411    1.8382   25.7087 O   0  0  0  0  0  0  0  0  0  0  0  0
    7.8121    3.1547   24.5701 N   0  0  0  0  0  0  0  0  0  0  0  0
    7.4792    3.3247   23.1528 C   0  0  2  0  0  0  0  0  0  0  0  0
    7.4995    4.7675   22.6711 C   0  0  0  0  0  0  0  0  0  0  0  0
    6.0730    2.7033   22.9650 C   0  0  0  0  0  0  0  0  0  0  0  0
    6.0004    1.7531   21.7899 C   0  0  0  0  0  0  0  0  0  0  0  0
    5.6169    2.2227   20.5218 C   0  0  0  0  0  0  0  0  0  0  0  0
    5.5894    1.3551   19.4262 C   0  0  0  0  0  0  0  0  0  0  0  0
    5.9388    0.0108   19.5875 C   0  0  0  0  0  0  0  0  0  0  0  0
    5.9192   -1.0725   18.2085 Cl  0  0  0  0  0  0  0  0  0  0  0  0
    6.3072   -0.4676   20.8489 C   0  0  0  0  0  0  0  0  0  0  0  0
    6.3343    0.3974   21.9468 C   0  0  0  0  0  0  0  0  0  0  0  0
    8.4602    2.4311   22.4271 C   0  0  0  0  0  0  0  0  0  0  0  0
    8.5677    2.3102   21.2166 O   0  0  0  0  0  0  0  0  0  0  0  0
   10.4724   -0.1732   24.2621 C   0  0  0  0  0  0  0  0  0  0  0  0
    9.4851   -1.3183   24.0948 C   0  0  0  0  0  0  0  0  0  0  0  0
    6.3591   -3.8959   25.6881 H   0  0  0  0  0  0  0  0  0  0  0  0
    5.6012   -4.6546   24.4566 H   0  0  0  0  0  0  0  0  0  0  0  0
    6.5349   -5.5072   25.4900 H   0  0  0  0  0  0  0  0  0  0  0  0
    8.5337   -5.2898   22.5732 H   0  0  0  0  0  0  0  0  0  0  0  0
    7.8475   -6.3488   23.6097 H   0  0  0  0  0  0  0  0  0  0  0  0
    6.9138   -5.4962   22.5763 H   0  0  0  0  0  0  0  0  0  0  0  0
    7.7749   -2.3782   24.2778 H   0  0  0  0  0  0  0  0  0  0  0  0
    6.7021   -2.8749   23.1513 H   0  0  0  0  0  0  0  0  0  0  0  0
    8.2716   -2.2721   21.7143 H   0  0  0  0  0  0  0  0  0  0  0  0
    8.9310   -3.7226   22.0721 H   0  0  0  0  0  0  0  0  0  0  0  0
   10.5191   -2.8529   23.2678 H   0  0  0  0  0  0  0  0  0  0  0  0
   10.4082   -1.7900   21.0242 H   0  0  0  0  0  0  0  0  0  0  0  0
   11.5034   -1.2721   22.1191 H   0  0  0  0  0  0  0  0  0  0  0  0
    8.9238   -0.0294   21.8075 H   0  0  0  0  0  0  0  0  0  0  0  0
   10.2629    0.5292   21.0581 H   0  0  0  0  0  0  0  0  0  0  0  0
   11.1616    1.2977   22.9610 H   0  0  0  0  0  0  0  0  0  0  0  0
    7.3743    3.6240   25.3370 H   0  0  0  0  0  0  0  0  0  0  0  0
    7.2631    4.7980   21.6999 H   0  0  0  0  0  0  0  0  0  0  0  0
    6.8350    5.3025   23.1928 H   0  0  0  0  0  0  0  0  0  0  0  0
    8.4137    5.1504   22.8038 H   0  0  0  0  0  0  0  0  0  0  0  0
    5.4149    3.4419   22.8190 H   0  0  0  0  0  0  0  0  0  0  0  0
    5.8323    2.2018   23.7959 H   0  0  0  0  0  0  0  0  0  0  0  0
    5.3625    3.1824   20.4027 H   0  0  0  0  0  0  0  0  0  0  0  0
    5.3195    1.6962   18.5258 H   0  0  0  0  0  0  0  0  0  0  0  0
    6.5516   -1.4302   20.9658 H   0  0  0  0  0  0  0  0  0  0  0  0
    6.5927    0.0497   22.8481 H   0  0  0  0  0  0  0  0  0  0  0  0
   10.3012    0.2906   25.1314 H   0  0  0  0  0  0  0  0  0  0  0  0
   11.4054   -0.5332   24.2545 H   0  0  0  0  0  0  0  0  0  0  0  0
    8.5706   -0.9460   23.9363 H   0  0  0  0  0  0  0  0  0  0  0  0
    9.4792   -1.8741   24.9260 H   0  0  0  0  0  0  0  0  0  0  0  0
  1  2  1  0  0  0  0
  2  3  1  0  0  0  0
  2  4  1  0  0  0  0
  4  5  1  0  0  0  0
  5  6  1  0  0  0  0
  6  7  1  0  0  0  0
  7  8  1  0  0  0  0
  8  9  1  0  0  0  0
  9 10  1  0  0  0  0
 10 11  1  0  0  0  0
 11 12  2  0  0  0  0
 11 13  1  0  0  0  0
 13 14  1  0  0  0  0
 14 15  1  0  0  0  0
 14 16  1  0  0  0  0
 16 17  1  0  0  0  0
 17 18  2  0  0  0  0
 18 19  1  0  0  0  0
 19 20  2  0  0  0  0
 20 21  1  0  0  0  0
 20 22  1  0  0  0  0
 22 23  2  0  0  0  0
 14 24  1  0  0  0  0
 24 25  2  0  0  0  0
  9 26  1  0  0  0  0
 26 27  1  0  0  0  0
 27  6  1  0  0  0  0
 24 10  1  0  0  0  0
 23 17  1  0  0  0  0
  1 28  1  0  0  0  0
  1 29  1  0  0  0  0
  1 30  1  0  0  0  0
 27 57  1  0  0  0  0
  3 31  1  0  0  0  0
  3 32  1  0  0  0  0
  3 33  1  0  0  0  0
  4 34  1  0  0  0  0
  4 35  1  0  0  0  0
  5 36  1  0  0  0  0
  5 37  1  0  0  0  0
  6 38  1  0  0  0  0
  7 39  1  0  0  0  0
  7 40  1  0  0  0  0
  8 41  1  0  0  0  0
  8 42  1  0  0  0  0
  9 43  1  0  0  0  0
 13 44  1  0  0  0  0
 15 45  1  0  0  0  0
 15 46  1  0  0  0  0
 15 47  1  0  0  0  0
 16 48  1  0  0  0  0
 16 49  1  0  0  0  0
 18 50  1  0  0  0  0
 19 51  1  0  0  0  0
 22 52  1  0  0  0  0
 23 53  1  0  0  0  0
 26 54  1  0  0  0  0
 26 55  1  0  0  0  0
 27 56  1  0  0  0  0
M  CHG  1   6   1
M  END
> <BIOSOLVEIT.HYDE_ESTIMATED_AFFINITY_LOWER_BOUNDARY [nM]>
5131509167.403397

> <BIOSOLVEIT.HYDE_ESTIMATED_AFFINITY_UPPER_BOUNDARY [nM]>
509845775664.859253

> <BIOSOLVEIT.HYDE_LIGAND_EFFICIENCY range: ++, +, 0, -, -->
--

> <BIOSOLVEIT.HYDE_LIGAND_LIPOPHILIC_EFFICIENCY range: ++, +, 0, -, -->
--

> <BIOSOLVEIT.INTER_CLASH range: red, yellow, green>
green

> <BIOSOLVEIT.INTRA_CLASH range: red, yellow, green>
red

> <BIOSOLVEIT.LOGP>
0.8019

> <BIOSOLVEIT.MOLECULAR WEIGHT>
393.936

> <BIOSOLVEIT.MOLECULE_CHECKSUM>
OS43NTQwOTsw

> <BIOSOLVEIT.TORSION_QUALITY range: red, yellow, green, not rotatable>
red

> <BIOSOLVEIT.TPSA>
57.09

$$$$
mol_17_1_01
anSeeSAR  04022021533D 1   1.00000     0.00000     0
SeeSAR 9.2 andre
 52 54  0  0  0  0            999 V2000
   14.5188   -2.0916   24.0599 C   0  0  0  0  0  0  0  0  0  0  0  0
   14.1518   -0.7215   23.4717 C   0  0  0  0  0  0  0  0  0  0  0  0
   13.7951   -0.8757   21.9867 C   0  0  0  0  0  0  0  0  0  0  0  0
   12.9787   -0.0495   24.2259 C   0  0  0  0  0  0  0  0  0  0  0  0
   11.9823   -1.0219   24.8447 C   0  0  2  0  0  0  0  0  0  0  0  0
   11.3931   -1.9917   23.8307 C   0  0  0  0  0  0  0  0  0  0  0  0
   10.1038   -1.4322   23.2499 C   0  0  2  0  0  0  0  0  0  0  0  0
    9.8915   -1.9537   21.8980 N   0  0  0  0  0  0  0  0  0  0  0  0
    8.9667   -1.3774   20.9644 C   0  0  0  0  0  0  0  0  0  0  0  0
    9.1818   -1.4445   19.7228 O   0  0  0  0  0  0  0  0  0  0  0  0
    7.8221   -0.6546   21.4449 N   0  0  0  0  0  0  0  0  0  0  0  0
    6.9067    0.0011   20.5276 C   0  0  0  0  0  0  0  0  0  0  0  0
    5.8240    0.7475   21.0387 C   0  0  0  0  0  0  0  0  0  0  0  0
    4.9227    1.3745   20.1655 C   0  0  0  0  0  0  0  0  0  0  0  0
    5.1020    1.2847   18.7852 C   0  0  0  0  0  0  0  0  0  0  0  0
    6.1908    0.5837   18.2684 C   0  0  0  0  0  0  0  0  0  0  0  0
    7.0938   -0.0460   19.1286 C   0  0  0  0  0  0  0  0  0  0  0  0
    5.6775    0.9198   22.4512 N   0  0  0  0  0  0  0  0  0  0  0  0
    6.5911    0.2995   23.3551 C   0  0  0  0  0  0  0  0  0  0  0  0
    6.5864    0.6282   24.5714 O   0  0  0  0  0  0  0  0  0  0  0  0
    7.5020   -0.7963   22.8781 C   0  0  1  0  0  0  0  0  0  0  0  0
    6.8455   -2.1569   23.1336 C   0  0  0  0  0  0  0  0  0  0  0  0
   10.0308    0.0887   23.2817 C   0  0  0  0  0  0  0  0  0  0  0  0
   10.1158    0.5125   24.7412 C   0  0  0  0  0  0  0  0  0  0  0  0
   10.9131   -0.3689   25.5327 O   0  0  0  0  0  0  0  0  0  0  0  0
   13.7276   -2.7007   24.0050 H   0  0  0  0  0  0  0  0  0  0  0  0
   15.2784   -2.4843   23.5414 H   0  0  0  0  0  0  0  0  0  0  0  0
   14.7895   -1.9821   25.0163 H   0  0  0  0  0  0  0  0  0  0  0  0
   14.9519   -0.1257   23.5417 H   0  0  0  0  0  0  0  0  0  0  0  0
   13.6205    0.0257   21.5905 H   0  0  0  0  0  0  0  0  0  0  0  0
   14.5560   -1.3100   21.5045 H   0  0  0  0  0  0  0  0  0  0  0  0
   12.9766   -1.4432   21.8977 H   0  0  0  0  0  0  0  0  0  0  0  0
   12.4857    0.5333   23.5800 H   0  0  0  0  0  0  0  0  0  0  0  0
   13.3608    0.5138   24.9585 H   0  0  0  0  0  0  0  0  0  0  0  0
   12.4802   -1.5660   25.5200 H   0  0  0  0  0  0  0  0  0  0  0  0
   11.2005   -2.8632   24.2816 H   0  0  0  0  0  0  0  0  0  0  0  0
   12.0515   -2.1368   23.0922 H   0  0  0  0  0  0  0  0  0  0  0  0
    9.3543   -1.7737   23.8170 H   0  0  0  0  0  0  0  0  0  0  0  0
   10.4187   -2.7534   21.6105 H   0  0  0  0  0  0  0  0  0  0  0  0
    4.1480    1.8882   20.5344 H   0  0  0  0  0  0  0  0  0  0  0  0
    4.4500    1.7230   18.1666 H   0  0  0  0  0  0  0  0  0  0  0  0
    6.3257    0.5314   17.2789 H   0  0  0  0  0  0  0  0  0  0  0  0
    7.8800   -0.5346   18.7502 H   0  0  0  0  0  0  0  0  0  0  0  0
    4.9293    1.4792   22.8079 H   0  0  0  0  0  0  0  0  0  0  0  0
    8.3538   -0.7514   23.4000 H   0  0  0  0  0  0  0  0  0  0  0  0
    7.4528   -2.8850   22.8157 H   0  0  0  0  0  0  0  0  0  0  0  0
    6.6772   -2.2671   24.1132 H   0  0  0  0  0  0  0  0  0  0  0  0
    5.9780   -2.2066   22.6387 H   0  0  0  0  0  0  0  0  0  0  0  0
    9.1670    0.3987   22.8846 H   0  0  0  0  0  0  0  0  0  0  0  0
   10.7938    0.4792   22.7665 H   0  0  0  0  0  0  0  0  0  0  0  0
   10.5148    1.4284   24.7844 H   0  0  0  0  0  0  0  0  0  0  0  0
    9.1911    0.5335   25.1213 H   0  0  0  0  0  0  0  0  0  0  0  0
  1  2  1  0  0  0  0
  2  3  1  0  0  0  0
  2  4  1  0  0  0  0
  4  5  1  0  0  0  0
  5  6  1  0  0  0  0
  6  7  1  0  0  0  0
  7  8  1  0  0  0  0
  8  9  1  0  0  0  0
  9 10  2  0  0  0  0
  9 11  1  0  0  0  0
 11 12  1  0  0  0  0
 12 13  1  0  0  0  0
 13 14  2  0  0  0  0
 14 15  1  0  0  0  0
 15 16  2  0  0  0  0
 16 17  1  0  0  0  0
 13 18  1  0  0  0  0
 18 19  1  0  0  0  0
 19 20  2  0  0  0  0
 19 21  1  0  0  0  0
 21 22  1  0  0  0  0
  7 23  1  0  0  0  0
 23 24  1  0  0  0  0
 24 25  1  0  0  0  0
 25  5  1  0  0  0  0
 21 11  1  0  0  0  0
 17 12  2  0  0  0  0
  1 26  1  0  0  0  0
  1 27  1  0  0  0  0
  1 28  1  0  0  0  0
  2 29  1  0  0  0  0
  3 30  1  0  0  0  0
  3 31  1  0  0  0  0
  3 32  1  0  0  0  0
  4 33  1  0  0  0  0
  4 34  1  0  0  0  0
  5 35  1  0  0  0  0
  6 36  1  0  0  0  0
  6 37  1  0  0  0  0
  7 38  1  0  0  0  0
  8 39  1  0  0  0  0
 14 40  1  0  0  0  0
 15 41  1  0  0  0  0
 16 42  1  0  0  0  0
 17 43  1  0  0  0  0
 18 44  1  0  0  0  0
 21 45  1  0  0  0  0
 22 46  1  0  0  0  0
 22 47  1  0  0  0  0
 22 48  1  0  0  0  0
 23 49  1  0  0  0  0
 23 50  1  0  0  0  0
 24 51  1  0  0  0  0
 24 52  1  0  0  0  0
M  END
> <BIOSOLVEIT.INTER_CLASH range: red, yellow, green>
green

> <BIOSOLVEIT.INTRA_CLASH range: red, yellow, green>
red

> <BIOSOLVEIT.LOGP>
3.1369

> <BIOSOLVEIT.MOLECULAR WEIGHT>
345.44

> <BIOSOLVEIT.TPSA>
70.67

$$$$
mol_96_1_01
anSeeSAR  04022021533D 1   1.00000     0.00000     0
SeeSAR 9.2 andre
 38 38  0  0  0  0            999 V2000
    7.9186    8.2579   23.7901 C   0  0  0  0  0  0  0  0  0  0  0  0
    7.9916    6.5593   24.4477 S   0  0  0  0  0  0  0  0  0  0  0  0
    9.0301    5.8684   23.1039 C   0  0  1  0  0  0  0  0  0  0  0  0
   10.0843    4.9493   23.7263 C   0  0  0  0  0  0  0  0  0  0  0  0
    8.1372    5.1124   22.1012 C   0  0  0  0  0  0  0  0  0  0  0  0
    7.3910    3.9754   22.7422 C   0  0  0  0  0  0  0  0  0  0  0  0
    6.5936    4.2130   23.6901 O   0  0  0  0  0  0  0  0  0  0  0  0
    7.6054    2.6268   22.2995 N   0  0  0  0  0  0  0  0  0  0  0  0
    7.4956    1.4809   23.2008 C   0  0  0  0  0  0  0  0  0  0  0  0
    6.4093    0.5070   22.7237 C   0  0  0  0  0  0  0  0  0  0  0  0
    6.2607    0.5346   21.2111 C   0  0  0  0  0  0  0  0  0  0  0  0
    7.0026   -0.3122   20.3935 C   0  0  0  0  0  0  0  0  0  0  0  0
    7.9953   -1.3028   20.9749 C   0  0  0  0  0  0  0  0  0  0  0  0
    8.0145   -1.2059   22.3543 F   0  0  0  0  0  0  0  0  0  0  0  0
    7.6365   -2.5869   20.6077 F   0  0  0  0  0  0  0  0  0  0  0  0
    9.2818   -1.0679   20.5200 F   0  0  0  0  0  0  0  0  0  0  0  0
    6.8430   -0.2616   19.0126 C   0  0  0  0  0  0  0  0  0  0  0  0
    5.9404    0.6347   18.4491 C   0  0  0  0  0  0  0  0  0  0  0  0
    5.1987    1.4820   19.2667 C   0  0  0  0  0  0  0  0  0  0  0  0
    5.3589    1.4319   20.6474 C   0  0  0  0  0  0  0  0  0  0  0  0
    7.4992    8.2461   22.8824 H   0  0  0  0  0  0  0  0  0  0  0  0
    7.3722    8.8292   24.4024 H   0  0  0  0  0  0  0  0  0  0  0  0
    8.8445    8.6300   23.7247 H   0  0  0  0  0  0  0  0  0  0  0  0
    9.4907    6.6185   22.6293 H   0  0  0  0  0  0  0  0  0  0  0  0
    9.6303    4.2084   24.2212 H   0  0  0  0  0  0  0  0  0  0  0  0
   10.6592    4.5645   23.0042 H   0  0  0  0  0  0  0  0  0  0  0  0
   10.6522    5.4746   24.3600 H   0  0  0  0  0  0  0  0  0  0  0  0
    8.7133    4.7468   21.3702 H   0  0  0  0  0  0  0  0  0  0  0  0
    7.4746    5.7537   21.7143 H   0  0  0  0  0  0  0  0  0  0  0  0
    7.8380    2.4654   21.3405 H   0  0  0  0  0  0  0  0  0  0  0  0
    7.2629    1.8068   24.1171 H   0  0  0  0  0  0  0  0  0  0  0  0
    8.3734    1.0027   23.2300 H   0  0  0  0  0  0  0  0  0  0  0  0
    5.5373    0.7636   23.1405 H   0  0  0  0  0  0  0  0  0  0  0  0
    6.6555   -0.4193   23.0091 H   0  0  0  0  0  0  0  0  0  0  0  0
    7.3770   -0.8694   18.4250 H   0  0  0  0  0  0  0  0  0  0  0  0
    5.8247    0.6701   17.4565 H   0  0  0  0  0  0  0  0  0  0  0  0
    4.5507    2.1269   18.8616 H   0  0  0  0  0  0  0  0  0  0  0  0
    4.8259    2.0407   21.2350 H   0  0  0  0  0  0  0  0  0  0  0  0
  1  2  1  0  0  0  0
  2  3  1  0  0  0  0
  3  4  1  0  0  0  0
  3  5  1  0  0  0  0
  5  6  1  0  0  0  0
  6  7  2  0  0  0  0
  6  8  1  0  0  0  0
  8  9  1  0  0  0  0
  9 10  1  0  0  0  0
 10 11  1  0  0  0  0
 11 12  2  0  0  0  0
 12 13  1  0  0  0  0
 13 14  1  0  0  0  0
 13 15  1  0  0  0  0
 13 16  1  0  0  0  0
 12 17  1  0  0  0  0
 17 18  2  0  0  0  0
 18 19  1  0  0  0  0
 19 20  2  0  0  0  0
 20 11  1  0  0  0  0
  1 21  1  0  0  0  0
  1 22  1  0  0  0  0
  1 23  1  0  0  0  0
  3 24  1  0  0  0  0
  4 25  1  0  0  0  0
  4 26  1  0  0  0  0
  4 27  1  0  0  0  0
  5 28  1  0  0  0  0
  5 29  1  0  0  0  0
  8 30  1  0  0  0  0
  9 31  1  0  0  0  0
  9 32  1  0  0  0  0
 10 33  1  0  0  0  0
 10 34  1  0  0  0  0
 17 35  1  0  0  0  0
 18 36  1  0  0  0  0
 19 37  1  0  0  0  0
 20 38  1  0  0  0  0
M  END
> <BIOSOLVEIT.INTER_CLASH range: red, yellow, green>
green

> <BIOSOLVEIT.INTRA_CLASH range: red, yellow, green>
red

> <BIOSOLVEIT.LOGP>
3.5057

> <BIOSOLVEIT.MOLECULAR WEIGHT>
305.361

> <BIOSOLVEIT.TPSA>
29.1

$$$$
