mol_3_1_07
anSeeSAR  04022021433D 1   1.00000     0.00000     0
SeeSAR 9.2 andre
 51 51  0  0  0  0            999 V2000
   12.9198   -1.0561   21.9723 C   0  0  0  0  0  0  0  0  0  0  0  0
   11.9930   -0.7140   22.8841 C   0  0  0  0  0  0  0  0  0  0  0  0
   12.4145   -0.2403   24.2549 C   0  0  0  0  0  0  0  0  0  0  0  0
   13.8034   -0.7555   24.6175 C   0  0  0  0  0  0  0  0  0  0  0  0
   10.5263   -0.8907   22.5846 C   0  0  0  0  0  0  0  0  0  0  0  0
    9.8007    0.2159   23.1186 O   0  0  0  0  0  0  0  0  0  0  0  0
    9.3148    1.2807   22.3500 C   0  0  0  0  0  0  0  0  0  0  0  0
    9.9188    1.6553   21.3059 O   0  0  0  0  0  0  0  0  0  0  0  0
    8.0814    2.0066   22.8039 C   0  0  2  0  0  0  0  0  0  0  0  0
    6.8234    1.1525   22.5666 C   0  0  0  0  0  0  0  0  0  0  0  0
    6.5616    0.9588   21.0817 C   0  0  0  0  0  0  0  0  0  0  0  0
    7.3223    0.0416   20.3650 C   0  0  0  0  0  0  0  0  0  0  0  0
    7.0897   -0.1435   19.0059 C   0  0  0  0  0  0  0  0  0  0  0  0
    6.0923    0.5977   18.3812 C   0  0  0  0  0  0  0  0  0  0  0  0
    5.8578    0.4266   17.0629 O   0  0  0  0  0  0  0  0  0  0  0  0
    5.3272    1.5181   19.0901 C   0  0  0  0  0  0  0  0  0  0  0  0
    5.5667    1.6957   20.4487 C   0  0  0  0  0  0  0  0  0  0  0  0
    7.9732    3.2758   22.0793 N   0  0  0  0  0  0  0  0  0  0  0  0
    6.9699    4.2603   22.3713 C   0  0  0  0  0  0  0  0  0  0  0  0
    6.1247    4.0622   23.2855 O   0  0  0  0  0  0  0  0  0  0  0  0
    6.9379    5.5524   21.6091 C   0  0  0  0  0  0  0  0  0  0  0  0
    7.3347    6.7469   22.5020 C   0  0  0  0  0  0  0  0  0  0  0  0
    8.4349    6.3289   23.4860 C   0  0  0  0  0  0  0  0  0  0  0  0
    6.1264    7.3057   23.2699 C   0  0  0  0  0  0  0  0  0  0  0  0
   12.6374   -1.3694   21.0656 H   0  0  0  0  0  0  0  0  0  0  0  0
   13.8916   -0.9973   22.2007 H   0  0  0  0  0  0  0  0  0  0  0  0
   11.7570   -0.5731   24.9308 H   0  0  0  0  0  0  0  0  0  0  0  0
   12.4254    0.7596   24.2646 H   0  0  0  0  0  0  0  0  0  0  0  0
   14.0539   -0.4261   25.5279 H   0  0  0  0  0  0  0  0  0  0  0  0
   13.7993   -1.7555   24.6144 H   0  0  0  0  0  0  0  0  0  0  0  0
   14.4677   -0.4228   23.9482 H   0  0  0  0  0  0  0  0  0  0  0  0
   10.1994   -1.7380   23.0031 H   0  0  0  0  0  0  0  0  0  0  0  0
   10.3901   -0.9335   21.5949 H   0  0  0  0  0  0  0  0  0  0  0  0
    8.1615    2.1989   23.7820 H   0  0  0  0  0  0  0  0  0  0  0  0
    6.0360    1.6100   22.9796 H   0  0  0  0  0  0  0  0  0  0  0  0
    6.9513    0.2577   22.9946 H   0  0  0  0  0  0  0  0  0  0  0  0
    8.0364   -0.4848   20.8264 H   0  0  0  0  0  0  0  0  0  0  0  0
    7.6330   -0.8016   18.4845 H   0  0  0  0  0  0  0  0  0  0  0  0
    6.6126    0.4829   16.4093 H   0  0  0  0  0  0  0  0  0  0  0  0
    4.6138    2.0455   18.6287 H   0  0  0  0  0  0  0  0  0  0  0  0
    5.0232    2.3534   20.9703 H   0  0  0  0  0  0  0  0  0  0  0  0
    8.6283    3.4647   21.3477 H   0  0  0  0  0  0  0  0  0  0  0  0
    6.0125    5.7009   21.2603 H   0  0  0  0  0  0  0  0  0  0  0  0
    7.5775    5.4932   20.8426 H   0  0  0  0  0  0  0  0  0  0  0  0
    7.6965    7.4713   21.9153 H   0  0  0  0  0  0  0  0  0  0  0  0
    8.6839    7.1098   24.0589 H   0  0  0  0  0  0  0  0  0  0  0  0
    8.1000    5.5848   24.0640 H   0  0  0  0  0  0  0  0  0  0  0  0
    9.2379    6.0198   22.9765 H   0  0  0  0  0  0  0  0  0  0  0  0
    6.4189    8.0760   23.8366 H   0  0  0  0  0  0  0  0  0  0  0  0
    5.4323    7.6147   22.6198 H   0  0  0  0  0  0  0  0  0  0  0  0
    5.7420    6.5900   23.8529 H   0  0  0  0  0  0  0  0  0  0  0  0
  1  2  2  0  0  0  0
  2  3  1  0  0  0  0
  3  4  1  0  0  0  0
  2  5  1  0  0  0  0
  5  6  1  0  0  0  0
  6  7  1  0  0  0  0
  7  8  2  0  0  0  0
  7  9  1  0  0  0  0
  9 10  1  0  0  0  0
 10 11  1  0  0  0  0
 11 12  2  0  0  0  0
 12 13  1  0  0  0  0
 13 14  2  0  0  0  0
 14 15  1  0  0  0  0
 14 16  1  0  0  0  0
 16 17  2  0  0  0  0
  9 18  1  0  0  0  0
 18 19  1  0  0  0  0
 19 20  2  0  0  0  0
 19 21  1  0  0  0  0
 21 22  1  0  0  0  0
 22 23  1  0  0  0  0
 22 24  1  0  0  0  0
 17 11  1  0  0  0  0
  1 25  1  0  0  0  0
  1 26  1  0  0  0  0
  3 27  1  0  0  0  0
  3 28  1  0  0  0  0
  4 29  1  0  0  0  0
  4 30  1  0  0  0  0
  4 31  1  0  0  0  0
  5 32  1  0  0  0  0
  5 33  1  0  0  0  0
  9 34  1  0  0  0  0
 10 35  1  0  0  0  0
 10 36  1  0  0  0  0
 12 37  1  0  0  0  0
 13 38  1  0  0  0  0
 15 39  1  0  0  0  0
 16 40  1  0  0  0  0
 17 41  1  0  0  0  0
 18 42  1  0  0  0  0
 21 43  1  0  0  0  0
 21 44  1  0  0  0  0
 22 45  1  0  0  0  0
 23 46  1  0  0  0  0
 23 47  1  0  0  0  0
 23 48  1  0  0  0  0
 24 49  1  0  0  0  0
 24 50  1  0  0  0  0
 24 51  1  0  0  0  0
M  END
> <BIOSOLVEIT.HYDE_ESTIMATED_AFFINITY_LOWER_BOUNDARY [nM]>
5.541804

> <BIOSOLVEIT.HYDE_ESTIMATED_AFFINITY_UPPER_BOUNDARY [nM]>
550.610971

> <BIOSOLVEIT.HYDE_LIGAND_EFFICIENCY range: ++, +, 0, -, -->
+

> <BIOSOLVEIT.HYDE_LIGAND_LIPOPHILIC_EFFICIENCY range: ++, +, 0, -, -->
0

> <BIOSOLVEIT.INTER_CLASH range: red, yellow, green>
green

> <BIOSOLVEIT.INTRA_CLASH range: red, yellow, green>
green

> <BIOSOLVEIT.LOGP>
2.975

> <BIOSOLVEIT.MOLECULAR WEIGHT>
333.425

> <BIOSOLVEIT.MOLECULE_CHECKSUM>
LTQxLjQyNzM7MS43MjYxNA==

> <BIOSOLVEIT.TORSION_QUALITY range: red, yellow, green, not rotatable>
yellow

> <BIOSOLVEIT.TPSA>
75.63

> <BIOSOLVEIT.SEESAR_FAVORITE>
favorite

$$$$
mol_51_1_03
anSeeSAR  04022021433D 1   1.00000     0.00000     0
SeeSAR 9.2 andre
 40 40  0  0  0  0            999 V2000
    9.0538    3.7885   24.6874 C   0  0  0  0  0  0  0  0  0  0  0  0
    8.0434    2.8742   25.3023 C   0  0  0  0  0  0  0  0  0  0  0  0
    7.6275    3.1150   26.4678 O   0  0  0  0  0  0  0  0  0  0  0  0
    7.5528    1.7359   24.5779 N   0  0  0  0  0  0  0  0  0  0  0  0
    7.4557    1.7286   23.1146 C   0  0  2  0  0  0  0  0  0  0  0  0
    6.3458    0.7611   22.6507 C   0  0  0  0  0  0  0  0  0  0  0  0
    6.1909    0.7527   21.1469 C   0  0  0  0  0  0  0  0  0  0  0  0
    5.3029    1.6416   20.5180 C   0  0  0  0  0  0  0  0  0  0  0  0
    5.2026    1.6707   19.1237 C   0  0  0  0  0  0  0  0  0  0  0  0
    5.9801    0.8091   18.3438 C   0  0  0  0  0  0  0  0  0  0  0  0
    5.8802    0.8586   16.9553 O   0  0  0  0  0  0  0  0  0  0  0  0
    6.8524   -0.0939   18.9652 C   0  0  0  0  0  0  0  0  0  0  0  0
    6.9557   -0.1244   20.3591 C   0  0  0  0  0  0  0  0  0  0  0  0
    8.7823    1.3386   22.5141 C   0  0  0  0  0  0  0  0  0  0  0  0
    9.1358    1.8187   21.4031 O   0  0  0  0  0  0  0  0  0  0  0  0
    9.6676    0.4709   23.2303 N   0  0  0  0  0  0  0  0  0  0  0  0
   10.8913    0.1536   22.7297 O   0  0  0  0  0  0  0  0  0  0  0  0
   11.5501   -0.5882   23.7299 C   0  0  0  0  0  0  0  0  0  0  0  0
   13.0307   -0.2041   23.7655 C   0  0  0  0  0  0  0  0  0  0  0  0
   13.5220   -0.3844   25.0478 F   0  0  0  0  0  0  0  0  0  0  0  0
   13.1623    1.1307   23.4211 F   0  0  0  0  0  0  0  0  0  0  0  0
   13.8452   -1.0557   22.7873 C   0  0  0  0  0  0  0  0  0  0  0  0
   14.0708   -2.3066   23.3329 F   0  0  0  0  0  0  0  0  0  0  0  0
   13.1628   -1.2042   21.5923 F   0  0  0  0  0  0  0  0  0  0  0  0
    9.2804    3.4653   23.7687 H   0  0  0  0  0  0  0  0  0  0  0  0
    8.6766    4.7130   24.6320 H   0  0  0  0  0  0  0  0  0  0  0  0
    9.8802    3.7989   25.2504 H   0  0  0  0  0  0  0  0  0  0  0  0
    7.2685    0.9232   25.0866 H   0  0  0  0  0  0  0  0  0  0  0  0
    7.2244    2.6512   22.8056 H   0  0  0  0  0  0  0  0  0  0  0  0
    5.4793    1.0432   23.0626 H   0  0  0  0  0  0  0  0  0  0  0  0
    6.5750   -0.1630   22.9565 H   0  0  0  0  0  0  0  0  0  0  0  0
    4.7398    2.2565   21.0703 H   0  0  0  0  0  0  0  0  0  0  0  0
    4.5725    2.3099   18.6827 H   0  0  0  0  0  0  0  0  0  0  0  0
    5.5053    1.6716   16.5097 H   0  0  0  0  0  0  0  0  0  0  0  0
    7.4024   -0.7182   18.4105 H   0  0  0  0  0  0  0  0  0  0  0  0
    7.5771   -0.7736   20.7977 H   0  0  0  0  0  0  0  0  0  0  0  0
    9.3820    0.0930   24.1110 H   0  0  0  0  0  0  0  0  0  0  0  0
   11.4646   -1.5644   23.5305 H   0  0  0  0  0  0  0  0  0  0  0  0
   11.1342   -0.3917   24.6178 H   0  0  0  0  0  0  0  0  0  0  0  0
   14.7227   -0.6090   22.6126 H   0  0  0  0  0  0  0  0  0  0  0  0
  1  2  1  0  0  0  0
  2  3  2  0  0  0  0
  2  4  1  0  0  0  0
  4  5  1  0  0  0  0
  5  6  1  0  0  0  0
  6  7  1  0  0  0  0
  7  8  2  0  0  0  0
  8  9  1  0  0  0  0
  9 10  2  0  0  0  0
 10 11  1  0  0  0  0
 10 12  1  0  0  0  0
 12 13  2  0  0  0  0
  5 14  1  0  0  0  0
 14 15  2  0  0  0  0
 14 16  1  0  0  0  0
 16 17  1  0  0  0  0
 17 18  1  0  0  0  0
 18 19  1  0  0  0  0
 19 20  1  0  0  0  0
 19 21  1  0  0  0  0
 19 22  1  0  0  0  0
 22 23  1  0  0  0  0
 22 24  1  0  0  0  0
 13  7  1  0  0  0  0
  1 25  1  0  0  0  0
  1 26  1  0  0  0  0
  1 27  1  0  0  0  0
  4 28  1  0  0  0  0
  5 29  1  0  0  0  0
  6 30  1  0  0  0  0
  6 31  1  0  0  0  0
  8 32  1  0  0  0  0
  9 33  1  0  0  0  0
 11 34  1  0  0  0  0
 12 35  1  0  0  0  0
 13 36  1  0  0  0  0
 16 37  1  0  0  0  0
 18 38  1  0  0  0  0
 18 39  1  0  0  0  0
 22 40  1  0  0  0  0
M  END
> <BIOSOLVEIT.HYDE_ESTIMATED_AFFINITY_LOWER_BOUNDARY [nM]>
90.789425

> <BIOSOLVEIT.HYDE_ESTIMATED_AFFINITY_UPPER_BOUNDARY [nM]>
9020.466167

> <BIOSOLVEIT.HYDE_LIGAND_EFFICIENCY range: ++, +, 0, -, -->
0

> <BIOSOLVEIT.HYDE_LIGAND_LIPOPHILIC_EFFICIENCY range: ++, +, 0, -, -->
0

> <BIOSOLVEIT.INTER_CLASH range: red, yellow, green>
green

> <BIOSOLVEIT.INTRA_CLASH range: red, yellow, green>
green

> <BIOSOLVEIT.LOGP>
1.3876

> <BIOSOLVEIT.MOLECULAR WEIGHT>
352.282

> <BIOSOLVEIT.MOLECULE_CHECKSUM>
LTM0LjQ5NTY7MS40MzczMg==

> <BIOSOLVEIT.TORSION_QUALITY range: red, yellow, green, not rotatable>
green

> <BIOSOLVEIT.TPSA>
87.66

> <BIOSOLVEIT.SEESAR_FAVORITE>
favorite

$$$$
mol_74_1_07
anSeeSAR  04022021433D 1   1.00000     0.00000     0
SeeSAR 9.2 andre
 39 40  0  0  0  0            999 V2000
    7.5407    5.9126   22.2622 C   0  0  0  0  0  0  0  0  0  0  0  0
    7.1690    4.4948   22.5550 C   0  0  0  0  0  0  0  0  0  0  0  0
    6.0720    4.2569   23.1287 O   0  0  0  0  0  0  0  0  0  0  0  0
    8.0464    3.4200   22.1827 N   0  0  0  0  0  0  0  0  0  0  0  0
    8.1170    2.1568   22.9260 C   0  0  1  0  0  0  0  0  0  0  0  0
    6.8336    1.3387   22.6960 C   0  0  0  0  0  0  0  0  0  0  0  0
    6.5661    1.1370   21.2257 C   0  0  0  0  0  0  0  0  0  0  0  0
    5.5747    1.8923   20.5777 C   0  0  0  0  0  0  0  0  0  0  0  0
    5.3387    1.7216   19.2105 C   0  0  0  0  0  0  0  0  0  0  0  0
    6.0891    0.7925   18.4774 C   0  0  0  0  0  0  0  0  0  0  0  0
    5.8644    0.6152   17.1142 O   0  0  0  0  0  0  0  0  0  0  0  0
    7.0738    0.0348   19.1194 C   0  0  0  0  0  0  0  0  0  0  0  0
    7.3115    0.2031   20.4869 C   0  0  0  0  0  0  0  0  0  0  0  0
    9.3257    1.3718   22.4733 C   0  0  0  0  0  0  0  0  0  0  0  0
    9.8499    1.6425   21.3578 O   0  0  0  0  0  0  0  0  0  0  0  0
    9.8948    0.3304   23.2926 N   0  0  0  0  0  0  0  0  0  0  0  0
    9.0560   -0.3927   24.2536 C   0  0  0  0  0  0  0  0  0  0  0  0
   11.3089    0.0560   23.2252 C   0  0  0  0  0  0  0  0  0  0  0  0
   12.3016    0.9180   23.3018 N   0  0  0  0  0  0  0  0  0  0  0  0
   13.5624    0.3893   23.2057 C   0  0  0  0  0  0  0  0  0  0  0  0
   13.6319   -0.9642   23.0416 C   0  0  0  0  0  0  0  0  0  0  0  0
   12.0080   -1.4784   23.0255 S   0  0  0  0  0  0  0  0  0  0  0  0
    8.4317    5.9368   21.8087 H   0  0  0  0  0  0  0  0  0  0  0  0
    6.8512    6.3214   21.6644 H   0  0  0  0  0  0  0  0  0  0  0  0
    7.5881    6.4282   23.1177 H   0  0  0  0  0  0  0  0  0  0  0  0
    8.6344    3.5378   21.3824 H   0  0  0  0  0  0  0  0  0  0  0  0
    8.2053    2.3572   23.9017 H   0  0  0  0  0  0  0  0  0  0  0  0
    6.0605    1.8246   23.1038 H   0  0  0  0  0  0  0  0  0  0  0  0
    6.9343    0.4454   23.1340 H   0  0  0  0  0  0  0  0  0  0  0  0
    5.0353    2.5553   21.0969 H   0  0  0  0  0  0  0  0  0  0  0  0
    4.6327    2.2637   18.7546 H   0  0  0  0  0  0  0  0  0  0  0  0
    5.3212    1.2835   16.6059 H   0  0  0  0  0  0  0  0  0  0  0  0
    7.6098   -0.6296   18.5986 H   0  0  0  0  0  0  0  0  0  0  0  0
    8.0149   -0.3437   20.9410 H   0  0  0  0  0  0  0  0  0  0  0  0
    9.6093   -1.0743   24.7324 H   0  0  0  0  0  0  0  0  0  0  0  0
    8.6757    0.2528   24.9160 H   0  0  0  0  0  0  0  0  0  0  0  0
    8.3108   -0.8497   23.7680 H   0  0  0  0  0  0  0  0  0  0  0  0
   14.3819    0.9604   23.2529 H   0  0  0  0  0  0  0  0  0  0  0  0
   14.4528   -1.5279   22.9510 H   0  0  0  0  0  0  0  0  0  0  0  0
  1  2  1  0  0  0  0
  2  3  2  0  0  0  0
  2  4  1  0  0  0  0
  4  5  1  0  0  0  0
  5  6  1  0  0  0  0
  6  7  1  0  0  0  0
  7  8  2  0  0  0  0
  8  9  1  0  0  0  0
  9 10  2  0  0  0  0
 10 11  1  0  0  0  0
 10 12  1  0  0  0  0
 12 13  2  0  0  0  0
  5 14  1  0  0  0  0
 14 15  2  0  0  0  0
 14 16  1  0  0  0  0
 16 17  1  0  0  0  0
 16 18  1  0  0  0  0
 18 19  2  0  0  0  0
 19 20  1  0  0  0  0
 20 21  2  0  0  0  0
 21 22  1  0  0  0  0
 13  7  1  0  0  0  0
 22 18  1  0  0  0  0
  1 23  1  0  0  0  0
  1 24  1  0  0  0  0
  1 25  1  0  0  0  0
  4 26  1  0  0  0  0
  5 27  1  0  0  0  0
  6 28  1  0  0  0  0
  6 29  1  0  0  0  0
  8 30  1  0  0  0  0
  9 31  1  0  0  0  0
 11 32  1  0  0  0  0
 12 33  1  0  0  0  0
 13 34  1  0  0  0  0
 17 35  1  0  0  0  0
 17 36  1  0  0  0  0
 17 37  1  0  0  0  0
 20 38  1  0  0  0  0
 21 39  1  0  0  0  0
M  END
> <BIOSOLVEIT.HYDE_ESTIMATED_AFFINITY_LOWER_BOUNDARY [nM]>
119.414853

> <BIOSOLVEIT.HYDE_ESTIMATED_AFFINITY_UPPER_BOUNDARY [nM]>
11864.571713

> <BIOSOLVEIT.HYDE_LIGAND_EFFICIENCY range: ++, +, 0, -, -->
0

> <BIOSOLVEIT.HYDE_LIGAND_LIPOPHILIC_EFFICIENCY range: ++, +, 0, -, -->
0

> <BIOSOLVEIT.INTER_CLASH range: red, yellow, green>
green

> <BIOSOLVEIT.INTRA_CLASH range: red, yellow, green>
green

> <BIOSOLVEIT.LOGP>
1.5589

> <BIOSOLVEIT.MOLECULAR WEIGHT>
319.382

> <BIOSOLVEIT.MOLECULE_CHECKSUM>
LTMzLjgxNjI7MS41Mzcx

> <BIOSOLVEIT.TORSION_QUALITY range: red, yellow, green, not rotatable>
green

> <BIOSOLVEIT.TPSA>
82.53

> <BIOSOLVEIT.SEESAR_FAVORITE>
favorite

$$$$
mol_44_1_03
anSeeSAR  04022021433D 1   1.00000     0.00000     0
SeeSAR 9.2 andre
 39 39  0  0  0  0            999 V2000
   13.1363    1.4642   22.8327 C   0  0  0  0  0  0  0  0  0  0  0  0
   12.8394    0.3471   23.8438 C   0  0  1  0  0  0  0  0  0  0  0  0
   11.4065    0.5092   24.3921 C   0  0  0  0  0  0  0  0  0  0  0  0
   10.5958    1.3402   23.5003 N   0  0  0  0  0  0  0  0  0  0  0  0
    9.8912    0.8157   22.3629 C   0  0  0  0  0  0  0  0  0  0  0  0
    9.6985    1.5441   21.3531 O   0  0  0  0  0  0  0  0  0  0  0  0
    9.3728   -0.5710   22.3865 C   0  0  0  0  0  0  0  0  0  0  0  0
   10.1564   -1.5101   22.0779 O   0  0  0  0  0  0  0  0  0  0  0  0
    8.0135   -0.8841   22.7653 N   0  0  0  0  0  0  0  0  0  0  0  0
    7.7192   -2.2136   23.3088 C   0  0  0  0  0  0  0  0  0  0  0  0
    6.9018    0.0474   22.5177 C   0  0  0  0  0  0  0  0  0  0  0  0
    6.6387    0.2823   21.0390 C   0  0  0  0  0  0  0  0  0  0  0  0
    7.4450   -0.3392   20.0917 C   0  0  0  0  0  0  0  0  0  0  0  0
    7.2117   -0.1314   18.7360 C   0  0  0  0  0  0  0  0  0  0  0  0
    6.1678    0.7013   18.3471 C   0  0  0  0  0  0  0  0  0  0  0  0
    5.9321    0.9104   17.0345 O   0  0  0  0  0  0  0  0  0  0  0  0
    5.3568    1.3278   19.2878 C   0  0  0  0  0  0  0  0  0  0  0  0
    5.5974    1.1134   20.6409 C   0  0  0  0  0  0  0  0  0  0  0  0
   13.0447   -1.0351   23.1927 C   0  0  0  0  0  0  0  0  0  0  0  0
   13.4426   -0.8913   21.8750 F   0  0  0  0  0  0  0  0  0  0  0  0
   14.0227   -1.7477   23.8629 F   0  0  0  0  0  0  0  0  0  0  0  0
   14.0656    1.3559   22.4796 H   0  0  0  0  0  0  0  0  0  0  0  0
   12.4841    1.4112   22.0765 H   0  0  0  0  0  0  0  0  0  0  0  0
   13.0524    2.3528   23.2836 H   0  0  0  0  0  0  0  0  0  0  0  0
   13.4802    0.4342   24.6066 H   0  0  0  0  0  0  0  0  0  0  0  0
   11.4478    0.9404   25.2934 H   0  0  0  0  0  0  0  0  0  0  0  0
   10.9831   -0.3931   24.4732 H   0  0  0  0  0  0  0  0  0  0  0  0
   10.5291    2.3194   23.6917 H   0  0  0  0  0  0  0  0  0  0  0  0
    6.7443   -2.2783   23.5219 H   0  0  0  0  0  0  0  0  0  0  0  0
    7.9596   -2.9106   22.6332 H   0  0  0  0  0  0  0  0  0  0  0  0
    8.2529   -2.3588   24.1419 H   0  0  0  0  0  0  0  0  0  0  0  0
    7.1204    0.9246   22.9453 H   0  0  0  0  0  0  0  0  0  0  0  0
    6.0732   -0.3284   22.9326 H   0  0  0  0  0  0  0  0  0  0  0  0
    8.1924   -0.9354   20.3849 H   0  0  0  0  0  0  0  0  0  0  0  0
    7.7876   -0.5753   18.0495 H   0  0  0  0  0  0  0  0  0  0  0  0
    5.4941    1.7577   16.7340 H   0  0  0  0  0  0  0  0  0  0  0  0
    4.6101    1.9251   18.9949 H   0  0  0  0  0  0  0  0  0  0  0  0
    5.0214    1.5570   21.3275 H   0  0  0  0  0  0  0  0  0  0  0  0
   12.1852   -1.5452   23.2239 H   0  0  0  0  0  0  0  0  0  0  0  0
  1  2  1  0  0  0  0
  2  3  1  0  0  0  0
  3  4  1  0  0  0  0
  4  5  1  0  0  0  0
  5  6  2  0  0  0  0
  5  7  1  0  0  0  0
  7  8  2  0  0  0  0
  7  9  1  0  0  0  0
  9 10  1  0  0  0  0
  9 11  1  0  0  0  0
 11 12  1  0  0  0  0
 12 13  2  0  0  0  0
 13 14  1  0  0  0  0
 14 15  2  0  0  0  0
 15 16  1  0  0  0  0
 15 17  1  0  0  0  0
 17 18  2  0  0  0  0
  2 19  1  0  0  0  0
 19 20  1  0  0  0  0
 19 21  1  0  0  0  0
 18 12  1  0  0  0  0
  1 22  1  0  0  0  0
  1 23  1  0  0  0  0
  1 24  1  0  0  0  0
  2 25  1  0  0  0  0
  3 26  1  0  0  0  0
  3 27  1  0  0  0  0
  4 28  1  0  0  0  0
 10 29  1  0  0  0  0
 10 30  1  0  0  0  0
 10 31  1  0  0  0  0
 11 32  1  0  0  0  0
 11 33  1  0  0  0  0
 13 34  1  0  0  0  0
 14 35  1  0  0  0  0
 16 36  1  0  0  0  0
 17 37  1  0  0  0  0
 18 38  1  0  0  0  0
 19 39  1  0  0  0  0
M  END
> <BIOSOLVEIT.HYDE_ESTIMATED_AFFINITY_LOWER_BOUNDARY [nM]>
189.875427

> <BIOSOLVEIT.HYDE_ESTIMATED_AFFINITY_UPPER_BOUNDARY [nM]>
18865.246264

> <BIOSOLVEIT.HYDE_LIGAND_EFFICIENCY range: ++, +, 0, -, -->
0

> <BIOSOLVEIT.HYDE_LIGAND_LIPOPHILIC_EFFICIENCY range: ++, +, 0, -, -->
0

> <BIOSOLVEIT.INTER_CLASH range: red, yellow, green>
green

> <BIOSOLVEIT.INTRA_CLASH range: red, yellow, green>
yellow

> <BIOSOLVEIT.LOGP>
1.368

> <BIOSOLVEIT.MOLECULAR WEIGHT>
300.303

> <BIOSOLVEIT.MOLECULE_CHECKSUM>
LTMyLjY2NjY7MS41NTU1NQ==

> <BIOSOLVEIT.TORSION_QUALITY range: red, yellow, green, not rotatable>
red

> <BIOSOLVEIT.TPSA>
69.64

> <BIOSOLVEIT.SEESAR_FAVORITE>
favorite

$$$$
mol_27_1_03
anSeeSAR  04022021433D 1   1.00000     0.00000     0
SeeSAR 9.2 andre
 51 52  0  0  0  0            999 V2000
   13.1135    1.5237   22.8791 C   0  0  0  0  0  0  0  0  0  0  0  0
   12.8756    0.0672   23.3415 C   0  0  0  0  0  0  0  0  0  0  0  0
   13.4808   -0.8760   22.2752 C   0  0  0  0  0  0  0  0  0  0  0  0
   11.4502   -0.2003   23.5808 N   0  3  0  0  0  0  0  0  0  0  0  0
   11.1401   -0.0778   25.0145 C   0  0  0  0  0  0  0  0  0  0  0  0
    9.6844   -0.4082   25.3192 C   0  0  0  0  0  0  0  0  0  0  0  0
    8.9107   -0.7371   24.0535 C   0  0  0  0  0  0  0  0  0  0  0  0
    7.4885   -1.1149   24.3880 C   0  0  0  0  0  0  0  0  0  0  0  0
    7.0765   -2.2714   24.0987 O   0  0  0  0  0  0  0  0  0  0  0  0
    6.6045   -0.1786   25.0237 N   0  0  0  0  0  0  0  0  0  0  0  0
    6.7429    1.2616   24.8105 C   0  0  0  0  0  0  0  0  0  0  0  0
    6.6589    1.6055   23.3200 C   0  0  0  0  0  0  0  0  0  0  0  0
    5.5261    0.8278   22.6381 C   0  0  0  0  0  0  0  0  0  0  0  0
    5.6595    0.8771   21.1374 C   0  0  0  0  0  0  0  0  0  0  0  0
    6.6948    0.1770   20.4938 C   0  0  0  0  0  0  0  0  0  0  0  0
    6.8139    0.2152   19.1013 C   0  0  0  0  0  0  0  0  0  0  0  0
    5.8970    0.9489   18.3369 C   0  0  0  0  0  0  0  0  0  0  0  0
    6.0054    0.9943   16.9497 O   0  0  0  0  0  0  0  0  0  0  0  0
    4.8618    1.6425   18.9721 C   0  0  0  0  0  0  0  0  0  0  0  0
    4.7412    1.6075   20.3645 C   0  0  0  0  0  0  0  0  0  0  0  0
    9.6369   -1.8800   23.3560 C   0  0  0  0  0  0  0  0  0  0  0  0
   11.0844   -1.5263   23.0564 C   0  0  0  0  0  0  0  0  0  0  0  0
   12.7302    2.1545   23.5538 H   0  0  0  0  0  0  0  0  0  0  0  0
   14.0957    1.6887   22.7890 H   0  0  0  0  0  0  0  0  0  0  0  0
   12.6685    1.6699   21.9956 H   0  0  0  0  0  0  0  0  0  0  0  0
   13.3690   -0.0733   24.1999 H   0  0  0  0  0  0  0  0  0  0  0  0
   13.3393   -1.8265   22.5521 H   0  0  0  0  0  0  0  0  0  0  0  0
   13.0335   -0.7151   21.3954 H   0  0  0  0  0  0  0  0  0  0  0  0
   14.4607   -0.6963   22.1888 H   0  0  0  0  0  0  0  0  0  0  0  0
   10.9175    0.4872   23.0874 H   0  0  0  0  0  0  0  0  0  0  0  0
   11.3246    0.8612   25.3047 H   0  0  0  0  0  0  0  0  0  0  0  0
   11.7266   -0.7060   25.5256 H   0  0  0  0  0  0  0  0  0  0  0  0
    9.2588    0.3795   25.7646 H   0  0  0  0  0  0  0  0  0  0  0  0
    9.6519   -1.1964   25.9338 H   0  0  0  0  0  0  0  0  0  0  0  0
    8.9057    0.0634   23.4542 H   0  0  0  0  0  0  0  0  0  0  0  0
    5.8802   -0.5180   25.6239 H   0  0  0  0  0  0  0  0  0  0  0  0
    7.6282    1.5614   25.1660 H   0  0  0  0  0  0  0  0  0  0  0  0
    6.0100    1.7364   25.2977 H   0  0  0  0  0  0  0  0  0  0  0  0
    7.5264    1.3713   22.8811 H   0  0  0  0  0  0  0  0  0  0  0  0
    6.4887    2.5858   23.2199 H   0  0  0  0  0  0  0  0  0  0  0  0
    4.6493    1.2303   22.9013 H   0  0  0  0  0  0  0  0  0  0  0  0
    5.5585   -0.1257   22.9376 H   0  0  0  0  0  0  0  0  0  0  0  0
    7.3495   -0.3510   21.0347 H   0  0  0  0  0  0  0  0  0  0  0  0
    7.5549   -0.2820   18.6500 H   0  0  0  0  0  0  0  0  0  0  0  0
    5.7867    1.8374   16.4585 H   0  0  0  0  0  0  0  0  0  0  0  0
    4.2054    2.1653   18.4283 H   0  0  0  0  0  0  0  0  0  0  0  0
    3.9981    2.1046   20.8124 H   0  0  0  0  0  0  0  0  0  0  0  0
    9.1687   -2.0849   22.4964 H   0  0  0  0  0  0  0  0  0  0  0  0
    9.6159   -2.6862   23.9473 H   0  0  0  0  0  0  0  0  0  0  0  0
   11.2187   -1.5294   22.0654 H   0  0  0  0  0  0  0  0  0  0  0  0
   11.6777   -2.2137   23.4753 H   0  0  0  0  0  0  0  0  0  0  0  0
  1  2  1  0  0  0  0
  2  3  1  0  0  0  0
  2  4  1  0  0  0  0
  4  5  1  0  0  0  0
  5  6  1  0  0  0  0
  6  7  1  0  0  0  0
  7  8  1  0  0  0  0
  8  9  2  0  0  0  0
  8 10  1  0  0  0  0
 10 11  1  0  0  0  0
 11 12  1  0  0  0  0
 12 13  1  0  0  0  0
 13 14  1  0  0  0  0
 14 15  2  0  0  0  0
 15 16  1  0  0  0  0
 16 17  2  0  0  0  0
 17 18  1  0  0  0  0
 17 19  1  0  0  0  0
 19 20  2  0  0  0  0
  7 21  1  0  0  0  0
 21 22  1  0  0  0  0
 22  4  1  0  0  0  0
 20 14  1  0  0  0  0
  1 23  1  0  0  0  0
  1 24  1  0  0  0  0
  1 25  1  0  0  0  0
  2 26  1  0  0  0  0
  3 27  1  0  0  0  0
  3 28  1  0  0  0  0
  3 29  1  0  0  0  0
  4 30  1  0  0  0  0
  5 31  1  0  0  0  0
  5 32  1  0  0  0  0
  6 33  1  0  0  0  0
  6 34  1  0  0  0  0
  7 35  1  0  0  0  0
 10 36  1  0  0  0  0
 11 37  1  0  0  0  0
 11 38  1  0  0  0  0
 12 39  1  0  0  0  0
 12 40  1  0  0  0  0
 13 41  1  0  0  0  0
 13 42  1  0  0  0  0
 15 43  1  0  0  0  0
 16 44  1  0  0  0  0
 18 45  1  0  0  0  0
 19 46  1  0  0  0  0
 20 47  1  0  0  0  0
 21 48  1  0  0  0  0
 21 49  1  0  0  0  0
 22 50  1  0  0  0  0
 22 51  1  0  0  0  0
M  CHG  1   4   1
M  END
> <BIOSOLVEIT.HYDE_ESTIMATED_AFFINITY_LOWER_BOUNDARY [nM]>
220.580365

> <BIOSOLVEIT.HYDE_ESTIMATED_AFFINITY_UPPER_BOUNDARY [nM]>
21915.963485

> <BIOSOLVEIT.HYDE_LIGAND_EFFICIENCY range: ++, +, 0, -, -->
0

> <BIOSOLVEIT.HYDE_LIGAND_LIPOPHILIC_EFFICIENCY range: ++, +, 0, -, -->
0

> <BIOSOLVEIT.INTER_CLASH range: red, yellow, green>
green

> <BIOSOLVEIT.INTRA_CLASH range: red, yellow, green>
green

> <BIOSOLVEIT.LOGP>
1.1443

> <BIOSOLVEIT.MOLECULAR WEIGHT>
305.439

> <BIOSOLVEIT.MOLECULE_CHECKSUM>
LTMyLjI5NTsxLjQ2Nzk1

> <BIOSOLVEIT.TORSION_QUALITY range: red, yellow, green, not rotatable>
yellow

> <BIOSOLVEIT.TPSA>
53.77

> <BIOSOLVEIT.SEESAR_FAVORITE>
favorite

$$$$
mol_36_1_01
anSeeSAR  04022021433D 1   1.00000     0.00000     0
SeeSAR 9.2 andre
 40 40  0  0  0  0            999 V2000
   13.1631   -0.9577   22.6408 C   0  0  0  0  0  0  0  0  0  0  0  0
   13.0610   -0.2457   24.3185 S   0  0  0  0  0  0  0  0  0  0  0  0
   11.8709    1.1225   23.9967 C   0  0  1  0  0  0  0  0  0  0  0  0
   12.4027    2.0783   22.9208 C   0  0  0  0  0  0  0  0  0  0  0  0
   10.4572    0.5934   23.6675 C   0  0  0  0  0  0  0  0  0  0  0  0
    9.5976    0.3273   24.8775 C   0  0  0  0  0  0  0  0  0  0  0  0
   10.0790    0.3971   26.0419 O   0  0  0  0  0  0  0  0  0  0  0  0
    8.2176   -0.0188   24.6914 N   0  0  0  0  0  0  0  0  0  0  0  0
    7.4291    0.4709   23.5552 C   0  0  2  0  0  0  0  0  0  0  0  0
    6.1557    1.1648   24.0820 C   0  0  0  0  0  0  0  0  0  0  0  0
    5.3290    0.2616   24.7652 O   0  0  0  0  0  0  0  0  0  0  0  0
    7.0970   -0.7084   22.6118 C   0  0  0  0  0  0  0  0  0  0  0  0
    6.8452   -0.2681   21.1904 C   0  0  0  0  0  0  0  0  0  0  0  0
    5.6345    0.3539   20.8416 C   0  0  0  0  0  0  0  0  0  0  0  0
    5.4040    0.7601   19.5237 C   0  0  0  0  0  0  0  0  0  0  0  0
    6.3774    0.5426   18.5393 C   0  0  0  0  0  0  0  0  0  0  0  0
    6.1590    0.9439   17.2233 O   0  0  0  0  0  0  0  0  0  0  0  0
    7.5800   -0.0846   18.8797 C   0  0  0  0  0  0  0  0  0  0  0  0
    7.8133   -0.4914   20.1967 C   0  0  0  0  0  0  0  0  0  0  0  0
   13.7907   -1.7363   22.6467 H   0  0  0  0  0  0  0  0  0  0  0  0
   12.2556   -1.2633   22.3525 H   0  0  0  0  0  0  0  0  0  0  0  0
   13.4990   -0.2637   22.0040 H   0  0  0  0  0  0  0  0  0  0  0  0
   11.7957    1.6490   24.8434 H   0  0  0  0  0  0  0  0  0  0  0  0
   11.7381    2.8095   22.7666 H   0  0  0  0  0  0  0  0  0  0  0  0
   13.2691    2.4741   23.2252 H   0  0  0  0  0  0  0  0  0  0  0  0
   12.5474    1.5743   22.0692 H   0  0  0  0  0  0  0  0  0  0  0  0
   10.5534   -0.2614   23.1575 H   0  0  0  0  0  0  0  0  0  0  0  0
    9.9938    1.2716   23.0971 H   0  0  0  0  0  0  0  0  0  0  0  0
    7.7767   -0.6162   25.3613 H   0  0  0  0  0  0  0  0  0  0  0  0
    7.9743    1.1408   23.0514 H   0  0  0  0  0  0  0  0  0  0  0  0
    5.6503    1.5485   23.3092 H   0  0  0  0  0  0  0  0  0  0  0  0
    6.4200    1.9004   24.7058 H   0  0  0  0  0  0  0  0  0  0  0  0
    5.3958    0.4272   25.7491 H   0  0  0  0  0  0  0  0  0  0  0  0
    6.2780   -1.1696   22.9532 H   0  0  0  0  0  0  0  0  0  0  0  0
    7.8661   -1.3476   22.6167 H   0  0  0  0  0  0  0  0  0  0  0  0
    4.9345    0.5068   21.5391 H   0  0  0  0  0  0  0  0  0  0  0  0
    4.5424    1.2070   19.2829 H   0  0  0  0  0  0  0  0  0  0  0  0
    5.6680    1.7944   17.0349 H   0  0  0  0  0  0  0  0  0  0  0  0
    8.2754   -0.2426   18.1787 H   0  0  0  0  0  0  0  0  0  0  0  0
    8.6734   -0.9435   20.4328 H   0  0  0  0  0  0  0  0  0  0  0  0
  1  2  1  0  0  0  0
  2  3  1  0  0  0  0
  3  4  1  0  0  0  0
  3  5  1  0  0  0  0
  5  6  1  0  0  0  0
  6  7  2  0  0  0  0
  6  8  1  0  0  0  0
  8  9  1  0  0  0  0
  9 10  1  0  0  0  0
 10 11  1  0  0  0  0
  9 12  1  0  0  0  0
 12 13  1  0  0  0  0
 13 14  2  0  0  0  0
 14 15  1  0  0  0  0
 15 16  2  0  0  0  0
 16 17  1  0  0  0  0
 16 18  1  0  0  0  0
 18 19  2  0  0  0  0
 19 13  1  0  0  0  0
  1 20  1  0  0  0  0
  1 21  1  0  0  0  0
  1 22  1  0  0  0  0
  3 23  1  0  0  0  0
  4 24  1  0  0  0  0
  4 25  1  0  0  0  0
  4 26  1  0  0  0  0
  5 27  1  0  0  0  0
  5 28  1  0  0  0  0
  8 29  1  0  0  0  0
  9 30  1  0  0  0  0
 10 31  1  0  0  0  0
 10 32  1  0  0  0  0
 11 33  1  0  0  0  0
 12 34  1  0  0  0  0
 12 35  1  0  0  0  0
 14 36  1  0  0  0  0
 15 37  1  0  0  0  0
 17 38  1  0  0  0  0
 18 39  1  0  0  0  0
 19 40  1  0  0  0  0
M  END
> <BIOSOLVEIT.HYDE_ESTIMATED_AFFINITY_LOWER_BOUNDARY [nM]>
297.220067

> <BIOSOLVEIT.HYDE_ESTIMATED_AFFINITY_UPPER_BOUNDARY [nM]>
29530.570942

> <BIOSOLVEIT.HYDE_LIGAND_EFFICIENCY range: ++, +, 0, -, -->
0

> <BIOSOLVEIT.HYDE_LIGAND_LIPOPHILIC_EFFICIENCY range: ++, +, 0, -, -->
0

> <BIOSOLVEIT.INTER_CLASH range: red, yellow, green>
green

> <BIOSOLVEIT.INTRA_CLASH range: red, yellow, green>
green

> <BIOSOLVEIT.LOGP>
1.5534

> <BIOSOLVEIT.MOLECULAR WEIGHT>
283.389

> <BIOSOLVEIT.MOLECULE_CHECKSUM>
LTMxLjU1NTc7MS42NjA4Mw==

> <BIOSOLVEIT.TORSION_QUALITY range: red, yellow, green, not rotatable>
green

> <BIOSOLVEIT.TPSA>
69.56

> <BIOSOLVEIT.SEESAR_FAVORITE>
favorite

$$$$
mol_43_1_03
anSeeSAR  04022021433D 1   1.00000     0.00000     0
SeeSAR 9.2 andre
 61 62  0  0  0  0            999 V2000
   13.9459   -1.4574   20.7749 C   0  0  0  0  0  0  0  0  0  0  0  0
   12.8028   -1.2666   21.7698 C   0  0  0  0  0  0  0  0  0  0  0  0
   13.2964   -0.5775   23.0555 C   0  0  0  0  0  0  0  0  0  0  0  0
   12.4525    0.5614   23.4431 N   0  3  2  0  0  0  0  0  0  0  0  0
   12.2650    0.5736   24.9026 C   0  0  0  0  0  0  0  0  0  0  0  0
   10.8067    0.4884   25.3319 C   0  0  0  0  0  0  0  0  0  0  0  0
   10.0307    1.5997   24.6440 C   0  0  0  0  0  0  0  0  0  0  0  0
   10.2465    1.5748   23.1367 C   0  0  2  0  0  0  0  0  0  0  0  0
    8.9026    1.4405   22.4328 C   0  0  0  0  0  0  0  0  0  0  0  0
    8.7752    1.9645   21.2920 O   0  0  0  0  0  0  0  0  0  0  0  0
    7.7679    0.7483   23.0193 N   0  0  0  0  0  0  0  0  0  0  0  0
    6.3728    1.1312   22.7296 C   0  0  0  0  0  0  0  0  0  0  0  0
    6.0009    0.9961   21.2621 C   0  0  0  0  0  0  0  0  0  0  0  0
    6.5077   -0.0594   20.5101 C   0  0  0  0  0  0  0  0  0  0  0  0
    7.3298   -0.9638   21.0841 O   0  0  0  0  0  0  0  0  0  0  0  0
    8.7068   -1.1626   20.7683 C   0  0  0  0  0  0  0  0  0  0  0  0
    9.3446   -2.1521   21.7364 C   0  0  0  0  0  0  0  0  0  0  0  0
    6.1673   -0.1828   19.1672 C   0  0  0  0  0  0  0  0  0  0  0  0
    5.3199    0.7486   18.5761 C   0  0  0  0  0  0  0  0  0  0  0  0
    4.8134    1.8038   19.3280 C   0  0  0  0  0  0  0  0  0  0  0  0
    5.1538    1.9274   20.6708 C   0  0  0  0  0  0  0  0  0  0  0  0
    8.0183   -0.2995   24.0256 C   0  0  0  0  0  0  0  0  0  0  0  0
    6.8474   -1.2903   24.0921 C   0  0  1  0  0  0  0  0  0  0  0  0
    7.3618   -2.7272   24.2110 C   0  0  0  0  0  0  0  0  0  0  0  0
    6.0467   -0.9895   25.2051 O   0  0  0  0  0  0  0  0  0  0  0  0
   11.1926    0.4695   22.6861 C   0  0  0  0  0  0  0  0  0  0  0  0
   13.5993   -1.9058   19.9510 H   0  0  0  0  0  0  0  0  0  0  0  0
   14.3296   -0.5662   20.5330 H   0  0  0  0  0  0  0  0  0  0  0  0
   14.6572   -2.0252   21.1892 H   0  0  0  0  0  0  0  0  0  0  0  0
   12.4212   -2.1607   22.0043 H   0  0  0  0  0  0  0  0  0  0  0  0
   12.0936   -0.7017   21.3481 H   0  0  0  0  0  0  0  0  0  0  0  0
   14.2290   -0.2493   22.9056 H   0  0  0  0  0  0  0  0  0  0  0  0
   13.2938   -1.2462   23.7990 H   0  0  0  0  0  0  0  0  0  0  0  0
   12.9194    1.4050   23.1777 H   0  0  0  0  0  0  0  0  0  0  0  0
   12.6516    1.4223   25.2637 H   0  0  0  0  0  0  0  0  0  0  0  0
   12.7547   -0.2072   25.2905 H   0  0  0  0  0  0  0  0  0  0  0  0
   10.7410    0.5963   26.3239 H   0  0  0  0  0  0  0  0  0  0  0  0
   10.4293   -0.3991   25.0674 H   0  0  0  0  0  0  0  0  0  0  0  0
   10.3377    2.4814   25.0024 H   0  0  0  0  0  0  0  0  0  0  0  0
    9.0561    1.4832   24.8354 H   0  0  0  0  0  0  0  0  0  0  0  0
   10.6475    2.4509   22.8691 H   0  0  0  0  0  0  0  0  0  0  0  0
    6.2426    2.0842   23.0030 H   0  0  0  0  0  0  0  0  0  0  0  0
    5.7656    0.5446   23.2655 H   0  0  0  0  0  0  0  0  0  0  0  0
    9.1872   -0.2877   20.8294 H   0  0  0  0  0  0  0  0  0  0  0  0
    8.7818   -1.5197   19.8373 H   0  0  0  0  0  0  0  0  0  0  0  0
   10.3077   -2.2775   21.4985 H   0  0  0  0  0  0  0  0  0  0  0  0
    9.2749   -1.7980   22.6690 H   0  0  0  0  0  0  0  0  0  0  0  0
    8.8695   -3.0301   21.6768 H   0  0  0  0  0  0  0  0  0  0  0  0
    6.5318   -0.9410   18.6267 H   0  0  0  0  0  0  0  0  0  0  0  0
    5.0748    0.6596   17.6107 H   0  0  0  0  0  0  0  0  0  0  0  0
    4.2044    2.4735   18.9029 H   0  0  0  0  0  0  0  0  0  0  0  0
    4.7896    2.6859   21.2112 H   0  0  0  0  0  0  0  0  0  0  0  0
    8.1352    0.1290   24.9216 H   0  0  0  0  0  0  0  0  0  0  0  0
    8.8521   -0.7946   23.7815 H   0  0  0  0  0  0  0  0  0  0  0  0
    6.2984   -1.2060   23.2605 H   0  0  0  0  0  0  0  0  0  0  0  0
    6.5860   -3.3566   24.2530 H   0  0  0  0  0  0  0  0  0  0  0  0
    7.9261   -2.9461   23.4150 H   0  0  0  0  0  0  0  0  0  0  0  0
    7.9096   -2.8173   25.0428 H   0  0  0  0  0  0  0  0  0  0  0  0
    5.5813   -0.1173   25.0550 H   0  0  0  0  0  0  0  0  0  0  0  0
   11.3825    0.5712   21.7096 H   0  0  0  0  0  0  0  0  0  0  0  0
   10.7683   -0.4206   22.8523 H   0  0  0  0  0  0  0  0  0  0  0  0
  1  2  1  0  0  0  0
  2  3  1  0  0  0  0
  3  4  1  0  0  0  0
  4  5  1  0  0  0  0
  5  6  1  0  0  0  0
  6  7  1  0  0  0  0
  7  8  1  0  0  0  0
  8  9  1  0  0  0  0
  9 10  2  0  0  0  0
  9 11  1  0  0  0  0
 11 12  1  0  0  0  0
 12 13  1  0  0  0  0
 13 14  2  0  0  0  0
 14 15  1  0  0  0  0
 15 16  1  0  0  0  0
 16 17  1  0  0  0  0
 14 18  1  0  0  0  0
 18 19  2  0  0  0  0
 19 20  1  0  0  0  0
 20 21  2  0  0  0  0
 11 22  1  0  0  0  0
 22 23  1  0  0  0  0
 23 24  1  0  0  0  0
 23 25  1  0  0  0  0
  8 26  1  0  0  0  0
 26  4  1  0  0  0  0
 21 13  1  0  0  0  0
  1 27  1  0  0  0  0
  1 28  1  0  0  0  0
  1 29  1  0  0  0  0
  2 30  1  0  0  0  0
  2 31  1  0  0  0  0
  3 32  1  0  0  0  0
  3 33  1  0  0  0  0
  4 34  1  0  0  0  0
  5 35  1  0  0  0  0
  5 36  1  0  0  0  0
  6 37  1  0  0  0  0
  6 38  1  0  0  0  0
  7 39  1  0  0  0  0
  7 40  1  0  0  0  0
  8 41  1  0  0  0  0
 12 42  1  0  0  0  0
 12 43  1  0  0  0  0
 16 44  1  0  0  0  0
 16 45  1  0  0  0  0
 17 46  1  0  0  0  0
 17 47  1  0  0  0  0
 17 48  1  0  0  0  0
 18 49  1  0  0  0  0
 19 50  1  0  0  0  0
 20 51  1  0  0  0  0
 21 52  1  0  0  0  0
 22 53  1  0  0  0  0
 22 54  1  0  0  0  0
 23 55  1  0  0  0  0
 24 56  1  0  0  0  0
 24 57  1  0  0  0  0
 24 58  1  0  0  0  0
 25 59  1  0  0  0  0
 26 60  1  0  0  0  0
 26 61  1  0  0  0  0
M  CHG  1   4   1
M  END
> <BIOSOLVEIT.HYDE_ESTIMATED_AFFINITY_LOWER_BOUNDARY [nM]>
697.259141

> <BIOSOLVEIT.HYDE_ESTIMATED_AFFINITY_UPPER_BOUNDARY [nM]>
69276.818191

> <BIOSOLVEIT.HYDE_LIGAND_EFFICIENCY range: ++, +, 0, -, -->
-

> <BIOSOLVEIT.HYDE_LIGAND_LIPOPHILIC_EFFICIENCY range: ++, +, 0, -, -->
0

> <BIOSOLVEIT.INTER_CLASH range: red, yellow, green>
yellow

> <BIOSOLVEIT.INTRA_CLASH range: red, yellow, green>
red

> <BIOSOLVEIT.LOGP>
1.4996

> <BIOSOLVEIT.MOLECULAR WEIGHT>
363.519

> <BIOSOLVEIT.MOLECULE_CHECKSUM>
LTI5LjQ0MjsxLjEzMjM4

> <BIOSOLVEIT.TORSION_QUALITY range: red, yellow, green, not rotatable>
red

> <BIOSOLVEIT.TPSA>
54.21

> <BIOSOLVEIT.SEESAR_FAVORITE>
favorite

$$$$
mol_14_1_01
anSeeSAR  04022021433D 1   1.00000     0.00000     0
SeeSAR 9.2 andre
 51 53  0  0  0  0            999 V2000
    7.7635    4.2993   22.4716 C   0  0  0  0  0  0  0  0  0  0  0  0
    7.7570    2.8471   22.1175 C   0  0  0  0  0  0  0  0  0  0  0  0
    8.4365    2.4560   21.1305 O   0  0  0  0  0  0  0  0  0  0  0  0
    6.9831    1.9135   22.8873 N   0  0  0  0  0  0  0  0  0  0  0  0
    7.3670    0.5051   23.0515 C   0  0  2  0  0  0  0  0  0  0  0  0
    6.4104   -0.3964   22.2519 C   0  0  0  0  0  0  0  0  0  0  0  0
    6.3285    0.0319   20.8081 C   0  0  0  0  0  0  0  0  0  0  0  0
    7.3400   -0.3328   19.9040 C   0  0  0  0  0  0  0  0  0  0  0  0
    7.2769    0.0807   18.5701 C   0  0  0  0  0  0  0  0  0  0  0  0
    6.2010    0.8609   18.1254 C   0  0  0  0  0  0  0  0  0  0  0  0
    6.1285    1.2809   16.7992 O   0  0  0  0  0  0  0  0  0  0  0  0
    5.1894    1.2223   19.0208 C   0  0  0  0  0  0  0  0  0  0  0  0
    5.2496    0.8094   20.3552 C   0  0  0  0  0  0  0  0  0  0  0  0
    7.3537    0.1161   24.5085 C   0  0  0  0  0  0  0  0  0  0  0  0
    6.5562    0.6765   25.3100 O   0  0  0  0  0  0  0  0  0  0  0  0
    8.2440   -0.9068   24.9782 N   0  0  0  0  0  0  0  0  0  0  0  0
    9.1918   -1.5956   24.1036 C   0  0  0  0  0  0  0  0  0  0  0  0
   10.4585   -0.7524   23.8961 C   0  0  2  0  0  0  0  0  0  0  0  0
   11.0439   -0.2055   25.1822 C   0  0  0  0  0  0  0  0  0  0  0  0
   12.4473    0.1348   24.7406 C   0  0  0  0  0  0  0  0  0  0  0  0
   12.4665   -0.2943   23.2890 C   0  0  2  0  0  0  0  0  0  0  0  0
   13.8087   -0.4606   22.7115 N   0  3  0  0  0  0  0  0  0  0  0  0
   11.5740    0.7130   22.5901 C   0  0  0  0  0  0  0  0  0  0  0  0
   10.2724    0.3408   23.0149 O   0  0  0  0  0  0  0  0  0  0  0  0
   11.6268   -1.5312   23.3556 C   0  0  0  0  0  0  0  0  0  0  0  0
    7.1817    4.4501   23.2708 H   0  0  0  0  0  0  0  0  0  0  0  0
    8.6981    4.5872   22.6806 H   0  0  0  0  0  0  0  0  0  0  0  0
    7.4152    4.8320   21.7004 H   0  0  0  0  0  0  0  0  0  0  0  0
    6.1469    2.2362   23.3307 H   0  0  0  0  0  0  0  0  0  0  0  0
    8.2937    0.3827   22.6962 H   0  0  0  0  0  0  0  0  0  0  0  0
    5.4984   -0.3448   22.6588 H   0  0  0  0  0  0  0  0  0  0  0  0
    6.7410   -1.3392   22.2933 H   0  0  0  0  0  0  0  0  0  0  0  0
    8.1089   -0.8908   20.2160 H   0  0  0  0  0  0  0  0  0  0  0  0
    8.0010   -0.1807   17.9319 H   0  0  0  0  0  0  0  0  0  0  0  0
    6.8396    1.0116   16.1499 H   0  0  0  0  0  0  0  0  0  0  0  0
    4.4201    1.7779   18.7054 H   0  0  0  0  0  0  0  0  0  0  0  0
    4.5217    1.0687   20.9899 H   0  0  0  0  0  0  0  0  0  0  0  0
    8.2149   -1.1593   25.9454 H   0  0  0  0  0  0  0  0  0  0  0  0
    8.7593   -1.7603   23.2172 H   0  0  0  0  0  0  0  0  0  0  0  0
    9.4447   -2.4696   24.5186 H   0  0  0  0  0  0  0  0  0  0  0  0
   11.0443   -0.8942   25.9072 H   0  0  0  0  0  0  0  0  0  0  0  0
   10.5503    0.6064   25.4940 H   0  0  0  0  0  0  0  0  0  0  0  0
   13.1240   -0.3729   25.2737 H   0  0  0  0  0  0  0  0  0  0  0  0
   12.6225    1.1156   24.8270 H   0  0  0  0  0  0  0  0  0  0  0  0
   13.7302   -0.8383   21.7889 H   0  0  0  0  0  0  0  0  0  0  0  0
   14.2662    0.4276   22.6702 H   0  0  0  0  0  0  0  0  0  0  0  0
   14.3424   -1.0842   23.2827 H   0  0  0  0  0  0  0  0  0  0  0  0
   11.6613    0.6412   21.5965 H   0  0  0  0  0  0  0  0  0  0  0  0
   11.7921    1.6457   22.8773 H   0  0  0  0  0  0  0  0  0  0  0  0
   11.9772   -2.2230   23.9869 H   0  0  0  0  0  0  0  0  0  0  0  0
   11.4545   -1.9502   22.4641 H   0  0  0  0  0  0  0  0  0  0  0  0
  1  2  1  0  0  0  0
  2  3  2  0  0  0  0
  2  4  1  0  0  0  0
  4  5  1  0  0  0  0
  5  6  1  0  0  0  0
  6  7  1  0  0  0  0
  7  8  2  0  0  0  0
  8  9  1  0  0  0  0
  9 10  2  0  0  0  0
 10 11  1  0  0  0  0
 10 12  1  0  0  0  0
 12 13  2  0  0  0  0
  5 14  1  0  0  0  0
 14 15  2  0  0  0  0
 14 16  1  0  0  0  0
 16 17  1  0  0  0  0
 18 17  1  0  0  0  0
 18 19  1  0  0  0  0
 19 20  1  0  0  0  0
 20 21  1  0  0  0  0
 21 22  1  0  0  0  0
 21 23  1  0  0  0  0
 23 24  1  0  0  0  0
 21 25  1  0  0  0  0
 13  7  1  0  0  0  0
 24 18  1  0  0  0  0
 25 18  1  0  0  0  0
  1 26  1  0  0  0  0
  1 27  1  0  0  0  0
  1 28  1  0  0  0  0
  4 29  1  0  0  0  0
  5 30  1  0  0  0  0
  6 31  1  0  0  0  0
  6 32  1  0  0  0  0
  8 33  1  0  0  0  0
  9 34  1  0  0  0  0
 11 35  1  0  0  0  0
 12 36  1  0  0  0  0
 13 37  1  0  0  0  0
 16 38  1  0  0  0  0
 17 39  1  0  0  0  0
 17 40  1  0  0  0  0
 19 41  1  0  0  0  0
 19 42  1  0  0  0  0
 20 43  1  0  0  0  0
 20 44  1  0  0  0  0
 22 45  1  0  0  0  0
 22 46  1  0  0  0  0
 22 47  1  0  0  0  0
 23 48  1  0  0  0  0
 23 49  1  0  0  0  0
 25 50  1  0  0  0  0
 25 51  1  0  0  0  0
M  CHG  1  22   1
M  END
> <BIOSOLVEIT.HYDE_ESTIMATED_AFFINITY_LOWER_BOUNDARY [nM]>
768.361821

> <BIOSOLVEIT.HYDE_ESTIMATED_AFFINITY_UPPER_BOUNDARY [nM]>
76341.289823

> <BIOSOLVEIT.HYDE_LIGAND_EFFICIENCY range: ++, +, 0, -, -->
-

> <BIOSOLVEIT.HYDE_LIGAND_LIPOPHILIC_EFFICIENCY range: ++, +, 0, -, -->
+

> <BIOSOLVEIT.INTER_CLASH range: red, yellow, green>
green

> <BIOSOLVEIT.INTRA_CLASH range: red, yellow, green>
green

> <BIOSOLVEIT.LOGP>
-0.5108

> <BIOSOLVEIT.MOLECULAR WEIGHT>
348.42

> <BIOSOLVEIT.MOLECULE_CHECKSUM>
LTI5LjIwMTI7MS4xNjgwNQ==

> <BIOSOLVEIT.TORSION_QUALITY range: red, yellow, green, not rotatable>
green

> <BIOSOLVEIT.TPSA>
115.3

> <BIOSOLVEIT.SEESAR_FAVORITE>
favorite

$$$$
mol_8_1_02
anSeeSAR  04022021433D 1   1.00000     0.00000     0
SeeSAR 9.2 andre
 46 46  0  0  0  0            999 V2000
    5.6546    0.1271   26.1572 C   0  0  0  0  0  0  0  0  0  0  0  0
    6.2909   -0.1817   24.9368 O   0  0  0  0  0  0  0  0  0  0  0  0
    5.7596    0.6065   23.8869 C   0  0  0  0  0  0  0  0  0  0  0  0
    6.7341    0.6489   22.6984 C   0  0  1  0  0  0  0  0  0  0  0  0
    6.3551    1.7795   21.7237 C   0  0  0  0  0  0  0  0  0  0  0  0
    6.1712    1.2638   20.3166 C   0  0  0  0  0  0  0  0  0  0  0  0
    5.1634    1.7957   19.5194 C   0  0  0  0  0  0  0  0  0  0  0  0
    4.9990    1.3158   18.2244 C   0  0  0  0  0  0  0  0  0  0  0  0
    5.8318    0.3171   17.7324 C   0  0  0  0  0  0  0  0  0  0  0  0
    6.8372   -0.2094   18.5373 C   0  0  0  0  0  0  0  0  0  0  0  0
    7.0094    0.2640   19.8337 C   0  0  0  0  0  0  0  0  0  0  0  0
    8.1022    0.8500   23.1883 N   0  0  0  0  0  0  0  0  0  0  0  0
    9.1963    1.2030   22.3306 C   0  0  0  0  0  0  0  0  0  0  0  0
    8.9928    1.8841   21.2887 O   0  0  0  0  0  0  0  0  0  0  0  0
   10.5261    0.7911   22.6740 N   0  0  0  0  0  0  0  0  0  0  0  0
   11.7129    1.5670   22.3186 C   0  0  0  0  0  0  0  0  0  0  0  0
   12.8498    1.3529   23.3332 C   0  0  0  0  0  0  0  0  0  0  0  0
   13.6283    0.0158   23.2176 C   0  0  0  0  0  0  0  0  0  0  0  0
   13.1229   -0.8725   22.0722 C   0  0  0  0  0  0  0  0  0  0  0  0
   13.6794   -0.7669   24.5366 C   0  0  0  0  0  0  0  0  0  0  0  0
    6.0408   -0.4374   26.8867 H   0  0  0  0  0  0  0  0  0  0  0  0
    5.7971    1.0932   26.3724 H   0  0  0  0  0  0  0  0  0  0  0  0
    4.6746   -0.0556   26.0778 H   0  0  0  0  0  0  0  0  0  0  0  0
    5.6058    1.5370   24.2195 H   0  0  0  0  0  0  0  0  0  0  0  0
    4.8912    0.2121   23.5864 H   0  0  0  0  0  0  0  0  0  0  0  0
    6.6898   -0.2244   22.2131 H   0  0  0  0  0  0  0  0  0  0  0  0
    7.0821    2.4661   21.7250 H   0  0  0  0  0  0  0  0  0  0  0  0
    5.5003    2.1986   22.0298 H   0  0  0  0  0  0  0  0  0  0  0  0
    4.5643    2.5141   19.8729 H   0  0  0  0  0  0  0  0  0  0  0  0
    4.2771    1.6916   17.6433 H   0  0  0  0  0  0  0  0  0  0  0  0
    5.7082   -0.0229   16.8001 H   0  0  0  0  0  0  0  0  0  0  0  0
    7.4360   -0.9280   18.1836 H   0  0  0  0  0  0  0  0  0  0  0  0
    7.7310   -0.1119   20.4150 H   0  0  0  0  0  0  0  0  0  0  0  0
    8.2802    0.7357   24.1656 H   0  0  0  0  0  0  0  0  0  0  0  0
   10.6469   -0.0638   23.1785 H   0  0  0  0  0  0  0  0  0  0  0  0
   11.4729    2.5376   22.2990 H   0  0  0  0  0  0  0  0  0  0  0  0
   12.0276    1.2831   21.4129 H   0  0  0  0  0  0  0  0  0  0  0  0
   12.4528    1.3966   24.2500 H   0  0  0  0  0  0  0  0  0  0  0  0
   13.5058    2.0988   23.2182 H   0  0  0  0  0  0  0  0  0  0  0  0
   14.5729    0.2562   22.9940 H   0  0  0  0  0  0  0  0  0  0  0  0
   13.6577   -1.7169   22.0444 H   0  0  0  0  0  0  0  0  0  0  0  0
   12.1591   -1.0931   22.2219 H   0  0  0  0  0  0  0  0  0  0  0  0
   13.2225   -0.3860   21.2043 H   0  0  0  0  0  0  0  0  0  0  0  0
   14.1913   -1.6152   24.4012 H   0  0  0  0  0  0  0  0  0  0  0  0
   14.1313   -0.2128   25.2357 H   0  0  0  0  0  0  0  0  0  0  0  0
   12.7489   -0.9828   24.8324 H   0  0  0  0  0  0  0  0  0  0  0  0
  1  2  1  0  0  0  0
  2  3  1  0  0  0  0
  3  4  1  0  0  0  0
  4  5  1  0  0  0  0
  5  6  1  0  0  0  0
  6  7  2  0  0  0  0
  7  8  1  0  0  0  0
  8  9  2  0  0  0  0
  9 10  1  0  0  0  0
 10 11  2  0  0  0  0
  4 12  1  0  0  0  0
 12 13  1  0  0  0  0
 13 14  2  0  0  0  0
 13 15  1  0  0  0  0
 15 16  1  0  0  0  0
 16 17  1  0  0  0  0
 17 18  1  0  0  0  0
 18 19  1  0  0  0  0
 18 20  1  0  0  0  0
 11  6  1  0  0  0  0
  1 21  1  0  0  0  0
  1 22  1  0  0  0  0
  1 23  1  0  0  0  0
  3 24  1  0  0  0  0
  3 25  1  0  0  0  0
  4 26  1  0  0  0  0
  5 27  1  0  0  0  0
  5 28  1  0  0  0  0
  7 29  1  0  0  0  0
  8 30  1  0  0  0  0
  9 31  1  0  0  0  0
 10 32  1  0  0  0  0
 11 33  1  0  0  0  0
 12 34  1  0  0  0  0
 15 35  1  0  0  0  0
 16 36  1  0  0  0  0
 16 37  1  0  0  0  0
 17 38  1  0  0  0  0
 17 39  1  0  0  0  0
 18 40  1  0  0  0  0
 19 41  1  0  0  0  0
 19 42  1  0  0  0  0
 19 43  1  0  0  0  0
 20 44  1  0  0  0  0
 20 45  1  0  0  0  0
 20 46  1  0  0  0  0
M  END
> <BIOSOLVEIT.HYDE_ESTIMATED_AFFINITY_LOWER_BOUNDARY [nM]>
1618.534025

> <BIOSOLVEIT.HYDE_ESTIMATED_AFFINITY_UPPER_BOUNDARY [nM]>
160810.924915

> <BIOSOLVEIT.HYDE_LIGAND_EFFICIENCY range: ++, +, 0, -, -->
0

> <BIOSOLVEIT.HYDE_LIGAND_LIPOPHILIC_EFFICIENCY range: ++, +, 0, -, -->
-

> <BIOSOLVEIT.INTER_CLASH range: red, yellow, green>
yellow

> <BIOSOLVEIT.INTRA_CLASH range: red, yellow, green>
red

> <BIOSOLVEIT.LOGP>
2.5894

> <BIOSOLVEIT.MOLECULAR WEIGHT>
278.393

> <BIOSOLVEIT.MOLECULE_CHECKSUM>
LTI3LjM1NDQ7MS4zNjc3Mg==

> <BIOSOLVEIT.TORSION_QUALITY range: red, yellow, green, not rotatable>
red

> <BIOSOLVEIT.TPSA>
50.36

> <BIOSOLVEIT.SEESAR_FAVORITE>
favorite

$$$$
mol_76_1_01
anSeeSAR  04022021433D 1   1.00000     0.00000     0
SeeSAR 9.2 andre
 31 31  0  0  0  0            999 V2000
    9.6371    1.6539   21.3187 O   0  0  0  0  0  0  0  0  0  0  0  0
    9.8179    0.6912   22.1127 C   0  0  0  0  0  0  0  0  0  0  0  0
    9.4350   -0.6949   21.6922 C   0  0  0  0  0  0  0  0  0  0  0  0
    8.0581   -1.0614   22.2565 C   0  0  0  0  0  0  0  0  0  0  0  0
    6.9607   -0.3111   21.5302 C   0  0  0  0  0  0  0  0  0  0  0  0
    6.1118    0.6402   22.1677 C   0  0  0  0  0  0  0  0  0  0  0  0
    6.2387    0.9694   23.6440 C   0  0  0  0  0  0  0  0  0  0  0  0
    7.4391    1.6169   23.8728 F   0  0  0  0  0  0  0  0  0  0  0  0
    5.2146    1.7949   24.0768 F   0  0  0  0  0  0  0  0  0  0  0  0
    6.1891   -0.1905   24.3959 F   0  0  0  0  0  0  0  0  0  0  0  0
    5.1407    1.3081   21.3918 C   0  0  0  0  0  0  0  0  0  0  0  0
    4.9935    1.0305   20.0326 C   0  0  0  0  0  0  0  0  0  0  0  0
    5.8137    0.0890   19.4180 C   0  0  0  0  0  0  0  0  0  0  0  0
    6.7903   -0.5749   20.1583 C   0  0  0  0  0  0  0  0  0  0  0  0
   10.4230    0.9097   23.3948 N   0  0  0  0  0  0  0  0  0  0  0  0
   11.2253   -0.1052   24.0766 C   0  0  0  0  0  0  0  0  0  0  0  0
   12.7145    0.0631   23.7631 C   0  0  0  0  0  0  0  0  0  0  0  0
   12.9996    1.3827   23.4634 F   0  0  0  0  0  0  0  0  0  0  0  0
   13.4568   -0.3111   24.8680 F   0  0  0  0  0  0  0  0  0  0  0  0
   13.2348   -1.0530   22.2630 Br  0  0  0  0  0  0  0  0  0  0  0  0
   10.1150   -1.3432   22.0348 H   0  0  0  0  0  0  0  0  0  0  0  0
    9.4048   -0.7401   20.6937 H   0  0  0  0  0  0  0  0  0  0  0  0
    8.0287   -0.8256   23.2279 H   0  0  0  0  0  0  0  0  0  0  0  0
    7.9104   -2.0444   22.1476 H   0  0  0  0  0  0  0  0  0  0  0  0
    4.5495    1.9901   21.8223 H   0  0  0  0  0  0  0  0  0  0  0  0
    4.2968    1.5093   19.4984 H   0  0  0  0  0  0  0  0  0  0  0  0
    5.7023   -0.1113   18.4447 H   0  0  0  0  0  0  0  0  0  0  0  0
    7.3778   -1.2477   19.7086 H   0  0  0  0  0  0  0  0  0  0  0  0
   10.2904    1.7944   23.8417 H   0  0  0  0  0  0  0  0  0  0  0  0
   10.9290   -1.0116   23.7755 H   0  0  0  0  0  0  0  0  0  0  0  0
   11.0882   -0.0205   25.0635 H   0  0  0  0  0  0  0  0  0  0  0  0
  1  2  2  0  0  0  0
  2  3  1  0  0  0  0
  3  4  1  0  0  0  0
  4  5  1  0  0  0  0
  5  6  2  0  0  0  0
  6  7  1  0  0  0  0
  7  8  1  0  0  0  0
  7  9  1  0  0  0  0
  7 10  1  0  0  0  0
  6 11  1  0  0  0  0
 11 12  2  0  0  0  0
 12 13  1  0  0  0  0
 13 14  2  0  0  0  0
  2 15  1  0  0  0  0
 15 16  1  0  0  0  0
 16 17  1  0  0  0  0
 17 18  1  0  0  0  0
 17 19  1  0  0  0  0
 17 20  1  0  0  0  0
 14  5  1  0  0  0  0
  3 21  1  0  0  0  0
  3 22  1  0  0  0  0
  4 23  1  0  0  0  0
  4 24  1  0  0  0  0
 11 25  1  0  0  0  0
 12 26  1  0  0  0  0
 13 27  1  0  0  0  0
 14 28  1  0  0  0  0
 15 29  1  0  0  0  0
 16 30  1  0  0  0  0
 16 31  1  0  0  0  0
M  END
> <BIOSOLVEIT.HYDE_ESTIMATED_AFFINITY_LOWER_BOUNDARY [nM]>
2681.808620

> <BIOSOLVEIT.HYDE_ESTIMATED_AFFINITY_UPPER_BOUNDARY [nM]>
266453.542554

> <BIOSOLVEIT.HYDE_LIGAND_EFFICIENCY range: ++, +, 0, -, -->
0

> <BIOSOLVEIT.HYDE_LIGAND_LIPOPHILIC_EFFICIENCY range: ++, +, 0, -, -->
--

> <BIOSOLVEIT.INTER_CLASH range: red, yellow, green>
green

> <BIOSOLVEIT.INTRA_CLASH range: red, yellow, green>
green

> <BIOSOLVEIT.LOGP>
3.7419

> <BIOSOLVEIT.MOLECULAR WEIGHT>
360.119

> <BIOSOLVEIT.MOLECULE_CHECKSUM>
LTI2LjEwMjY7MS4zMDUxMw==

> <BIOSOLVEIT.TORSION_QUALITY range: red, yellow, green, not rotatable>
yellow

> <BIOSOLVEIT.TPSA>
29.1

> <BIOSOLVEIT.SEESAR_FAVORITE>
favorite

$$$$
mol_14_1_08
anSeeSAR  04022021433D 1   1.00000     0.00000     0
SeeSAR 9.2 andre
 51 53  0  0  0  0            999 V2000
    7.6614    4.0994   22.6028 C   0  0  0  0  0  0  0  0  0  0  0  0
    7.7793    2.6822   22.1426 C   0  0  0  0  0  0  0  0  0  0  0  0
    8.3717    2.4398   21.0567 O   0  0  0  0  0  0  0  0  0  0  0  0
    7.2206    1.6142   22.9238 N   0  0  0  0  0  0  0  0  0  0  0  0
    7.7826    0.2570   22.9350 C   0  0  2  0  0  0  0  0  0  0  0  0
    6.8434   -0.7063   22.1885 C   0  0  0  0  0  0  0  0  0  0  0  0
    6.6183   -0.2624   20.7648 C   0  0  0  0  0  0  0  0  0  0  0  0
    7.6010   -0.4944   19.7881 C   0  0  0  0  0  0  0  0  0  0  0  0
    7.4033   -0.0653   18.4724 C   0  0  0  0  0  0  0  0  0  0  0  0
    6.2207    0.5981   18.1187 C   0  0  0  0  0  0  0  0  0  0  0  0
    6.0135    1.0325   16.8116 O   0  0  0  0  0  0  0  0  0  0  0  0
    5.2376    0.8270   19.0867 C   0  0  0  0  0  0  0  0  0  0  0  0
    5.4323    0.3981   20.4031 C   0  0  0  0  0  0  0  0  0  0  0  0
    7.9987   -0.2181   24.3500 C   0  0  0  0  0  0  0  0  0  0  0  0
    7.2327    0.1681   25.2754 O   0  0  0  0  0  0  0  0  0  0  0  0
    9.0732   -1.1247   24.6379 N   0  0  0  0  0  0  0  0  0  0  0  0
   10.3245   -1.1368   23.8817 C   0  0  0  0  0  0  0  0  0  0  0  0
   10.9551    0.2630   23.8432 C   0  0  1  0  0  0  0  0  0  0  0  0
   10.3642    1.2087   24.8621 C   0  0  0  0  0  0  0  0  0  0  0  0
   10.8014    2.5657   24.3578 C   0  0  0  0  0  0  0  0  0  0  0  0
   11.5200    2.1967   23.0773 C   0  0  1  0  0  0  0  0  0  0  0  0
   11.6647    3.3162   22.1426 N   0  3  0  0  0  0  0  0  0  0  0  0
   12.7933    1.4103   23.3233 C   0  0  0  0  0  0  0  0  0  0  0  0
   12.3593    0.2585   24.0235 O   0  0  0  0  0  0  0  0  0  0  0  0
   10.7121    1.0302   22.5700 C   0  0  0  0  0  0  0  0  0  0  0  0
    7.1698    4.1274   23.4732 H   0  0  0  0  0  0  0  0  0  0  0  0
    8.5750    4.4878   22.7234 H   0  0  0  0  0  0  0  0  0  0  0  0
    7.1606    4.6311   21.9198 H   0  0  0  0  0  0  0  0  0  0  0  0
    6.4142    1.8027   23.4843 H   0  0  0  0  0  0  0  0  0  0  0  0
    8.6648    0.2722   22.4645 H   0  0  0  0  0  0  0  0  0  0  0  0
    5.9637   -0.7360   22.6631 H   0  0  0  0  0  0  0  0  0  0  0  0
    7.2507   -1.6196   22.1841 H   0  0  0  0  0  0  0  0  0  0  0  0
    8.4459   -0.9689   20.0351 H   0  0  0  0  0  0  0  0  0  0  0  0
    8.1074   -0.2320   17.7822 H   0  0  0  0  0  0  0  0  0  0  0  0
    6.7467    0.9532   16.1362 H   0  0  0  0  0  0  0  0  0  0  0  0
    4.3923    1.2991   18.8364 H   0  0  0  0  0  0  0  0  0  0  0  0
    4.7244    0.5622   21.0901 H   0  0  0  0  0  0  0  0  0  0  0  0
    8.9613   -1.7763   25.3882 H   0  0  0  0  0  0  0  0  0  0  0  0
   10.1388   -1.4381   22.9464 H   0  0  0  0  0  0  0  0  0  0  0  0
   10.9633   -1.7719   24.3158 H   0  0  0  0  0  0  0  0  0  0  0  0
   10.7309    1.0290   25.7749 H   0  0  0  0  0  0  0  0  0  0  0  0
    9.3670    1.1371   24.8835 H   0  0  0  0  0  0  0  0  0  0  0  0
   11.4169    3.0149   25.0054 H   0  0  0  0  0  0  0  0  0  0  0  0
   10.0164    3.1586   24.1780 H   0  0  0  0  0  0  0  0  0  0  0  0
   12.1792    3.0155   21.3395 H   0  0  0  0  0  0  0  0  0  0  0  0
   10.7595    3.6329   21.8592 H   0  0  0  0  0  0  0  0  0  0  0  0
   12.1542    4.0639   22.5913 H   0  0  0  0  0  0  0  0  0  0  0  0
   13.4365    1.9402   23.8761 H   0  0  0  0  0  0  0  0  0  0  0  0
   13.2269    1.1574   22.4584 H   0  0  0  0  0  0  0  0  0  0  0  0
   11.0985    0.5950   21.7567 H   0  0  0  0  0  0  0  0  0  0  0  0
    9.7496    1.2465   22.4067 H   0  0  0  0  0  0  0  0  0  0  0  0
  1  2  1  0  0  0  0
  2  3  2  0  0  0  0
  2  4  1  0  0  0  0
  4  5  1  0  0  0  0
  5  6  1  0  0  0  0
  6  7  1  0  0  0  0
  7  8  2  0  0  0  0
  8  9  1  0  0  0  0
  9 10  2  0  0  0  0
 10 11  1  0  0  0  0
 10 12  1  0  0  0  0
 12 13  2  0  0  0  0
  5 14  1  0  0  0  0
 14 15  2  0  0  0  0
 14 16  1  0  0  0  0
 16 17  1  0  0  0  0
 18 17  1  0  0  0  0
 18 19  1  0  0  0  0
 19 20  1  0  0  0  0
 20 21  1  0  0  0  0
 21 22  1  0  0  0  0
 21 23  1  0  0  0  0
 23 24  1  0  0  0  0
 21 25  1  0  0  0  0
 13  7  1  0  0  0  0
 24 18  1  0  0  0  0
 25 18  1  0  0  0  0
  1 26  1  0  0  0  0
  1 27  1  0  0  0  0
  1 28  1  0  0  0  0
  4 29  1  0  0  0  0
  5 30  1  0  0  0  0
  6 31  1  0  0  0  0
  6 32  1  0  0  0  0
  8 33  1  0  0  0  0
  9 34  1  0  0  0  0
 11 35  1  0  0  0  0
 12 36  1  0  0  0  0
 13 37  1  0  0  0  0
 16 38  1  0  0  0  0
 17 39  1  0  0  0  0
 17 40  1  0  0  0  0
 19 41  1  0  0  0  0
 19 42  1  0  0  0  0
 20 43  1  0  0  0  0
 20 44  1  0  0  0  0
 22 45  1  0  0  0  0
 22 46  1  0  0  0  0
 22 47  1  0  0  0  0
 23 48  1  0  0  0  0
 23 49  1  0  0  0  0
 25 50  1  0  0  0  0
 25 51  1  0  0  0  0
M  CHG  1  22   1
M  END
> <BIOSOLVEIT.HYDE_ESTIMATED_AFFINITY_LOWER_BOUNDARY [nM]>
2931.971965

> <BIOSOLVEIT.HYDE_ESTIMATED_AFFINITY_UPPER_BOUNDARY [nM]>
291308.749913

> <BIOSOLVEIT.HYDE_LIGAND_EFFICIENCY range: ++, +, 0, -, -->
-

> <BIOSOLVEIT.HYDE_LIGAND_LIPOPHILIC_EFFICIENCY range: ++, +, 0, -, -->
+

> <BIOSOLVEIT.INTER_CLASH range: red, yellow, green>
green

> <BIOSOLVEIT.INTRA_CLASH range: red, yellow, green>
red

> <BIOSOLVEIT.LOGP>
-0.5108

> <BIOSOLVEIT.MOLECULAR WEIGHT>
348.42

> <BIOSOLVEIT.MOLECULE_CHECKSUM>
LTI1Ljg4MTU7MS4wMzUyNg==

> <BIOSOLVEIT.TORSION_QUALITY range: red, yellow, green, not rotatable>
red

> <BIOSOLVEIT.TPSA>
115.3

> <BIOSOLVEIT.SEESAR_FAVORITE>
favorite

$$$$
mol_1_1_07
anSeeSAR  04022021433D 1   1.00000     0.00000     0
SeeSAR 9.2 andre
 51 52  0  0  0  0            999 V2000
    7.9208    4.1445   22.7080 C   0  0  0  0  0  0  0  0  0  0  0  0
    7.8839    2.7398   22.2016 C   0  0  0  0  0  0  0  0  0  0  0  0
    8.4842    2.4483   21.1316 O   0  0  0  0  0  0  0  0  0  0  0  0
    7.1610    1.7374   22.9313 N   0  0  0  0  0  0  0  0  0  0  0  0
    7.5414    0.3185   22.9261 C   0  0  2  0  0  0  0  0  0  0  0  0
    6.4972   -0.4999   22.1452 C   0  0  0  0  0  0  0  0  0  0  0  0
    6.3845   -0.0301   20.7164 C   0  0  0  0  0  0  0  0  0  0  0  0
    5.2899    0.7494   20.3070 C   0  0  0  0  0  0  0  0  0  0  0  0
    5.2025    1.2041   18.9880 C   0  0  0  0  0  0  0  0  0  0  0  0
    6.2057    0.8816   18.0641 C   0  0  0  0  0  0  0  0  0  0  0  0
    6.1311    1.3328   16.7488 O   0  0  0  0  0  0  0  0  0  0  0  0
    7.2936    0.0998   18.4655 C   0  0  0  0  0  0  0  0  0  0  0  0
    7.3836   -0.3558   19.7840 C   0  0  0  0  0  0  0  0  0  0  0  0
    7.6622   -0.2073   24.3353 C   0  0  0  0  0  0  0  0  0  0  0  0
    6.7189   -0.0484   25.1585 O   0  0  0  0  0  0  0  0  0  0  0  0
    8.8542   -0.9013   24.7351 N   0  0  0  0  0  0  0  0  0  0  0  0
   10.1689   -0.6002   24.1556 C   0  0  2  0  0  0  0  0  0  0  0  0
   10.6646   -1.8192   23.3635 C   0  0  0  0  0  0  0  0  0  0  0  0
   11.1528   -0.1966   25.2882 C   0  0  0  0  0  0  0  0  0  0  0  0
   12.3508    0.5260   24.7932 N   0  0  0  0  0  0  0  0  0  0  0  0
   11.9995    1.3484   23.6244 C   0  0  0  0  0  0  0  0  0  0  0  0
   13.2189    1.2900   22.7324 C   0  0  0  0  0  0  0  0  0  0  0  0
   13.6236   -0.1594   22.9008 C   0  0  0  0  0  0  0  0  0  0  0  0
   13.3963   -0.4131   24.3783 C   0  0  0  0  0  0  0  0  0  0  0  0
    7.3999    4.2057   23.5594 H   0  0  0  0  0  0  0  0  0  0  0  0
    8.8690    4.4131   22.8773 H   0  0  0  0  0  0  0  0  0  0  0  0
    7.5180    4.7553   22.0262 H   0  0  0  0  0  0  0  0  0  0  0  0
    6.3639    2.0170   23.4663 H   0  0  0  0  0  0  0  0  0  0  0  0
    8.4273    0.2254   22.4718 H   0  0  0  0  0  0  0  0  0  0  0  0
    5.6075   -0.4017   22.5910 H   0  0  0  0  0  0  0  0  0  0  0  0
    6.7683   -1.4625   22.1506 H   0  0  0  0  0  0  0  0  0  0  0  0
    4.5701    0.9800   20.9618 H   0  0  0  0  0  0  0  0  0  0  0  0
    4.4223    1.7608   18.7030 H   0  0  0  0  0  0  0  0  0  0  0  0
    6.8267    1.0570   16.0854 H   0  0  0  0  0  0  0  0  0  0  0  0
    8.0093   -0.1339   17.8074 H   0  0  0  0  0  0  0  0  0  0  0  0
    8.1628   -0.9161   20.0648 H   0  0  0  0  0  0  0  0  0  0  0  0
    8.7863   -1.6145   25.4328 H   0  0  0  0  0  0  0  0  0  0  0  0
   10.0717    0.1714   23.5268 H   0  0  0  0  0  0  0  0  0  0  0  0
   11.5602   -1.6175   22.9672 H   0  0  0  0  0  0  0  0  0  0  0  0
   10.7406   -2.6062   23.9758 H   0  0  0  0  0  0  0  0  0  0  0  0
   10.0156   -2.0276   22.6318 H   0  0  0  0  0  0  0  0  0  0  0  0
   11.4539   -1.0264   25.7581 H   0  0  0  0  0  0  0  0  0  0  0  0
   10.6691    0.3949   25.9333 H   0  0  0  0  0  0  0  0  0  0  0  0
   11.8095    2.2905   23.9006 H   0  0  0  0  0  0  0  0  0  0  0  0
   11.2011    0.9711   23.1551 H   0  0  0  0  0  0  0  0  0  0  0  0
   13.9360    1.9115   23.0480 H   0  0  0  0  0  0  0  0  0  0  0  0
   12.9902    1.5004   21.7819 H   0  0  0  0  0  0  0  0  0  0  0  0
   14.5842   -0.2941   22.6575 H   0  0  0  0  0  0  0  0  0  0  0  0
   13.0509   -0.7589   22.3417 H   0  0  0  0  0  0  0  0  0  0  0  0
   14.2373   -0.2464   24.8929 H   0  0  0  0  0  0  0  0  0  0  0  0
   13.0958   -1.3553   24.5268 H   0  0  0  0  0  0  0  0  0  0  0  0
  1  2  1  0  0  0  0
  2  3  2  0  0  0  0
  2  4  1  0  0  0  0
  4  5  1  0  0  0  0
  5  6  1  0  0  0  0
  6  7  1  0  0  0  0
  7  8  2  0  0  0  0
  8  9  1  0  0  0  0
  9 10  2  0  0  0  0
 10 11  1  0  0  0  0
 10 12  1  0  0  0  0
 12 13  2  0  0  0  0
  5 14  1  0  0  0  0
 14 15  2  0  0  0  0
 14 16  1  0  0  0  0
 16 17  1  0  0  0  0
 17 18  1  0  0  0  0
 17 19  1  0  0  0  0
 19 20  1  0  0  0  0
 20 21  1  0  0  0  0
 21 22  1  0  0  0  0
 22 23  1  0  0  0  0
 23 24  1  0  0  0  0
 13  7  1  0  0  0  0
 24 20  1  0  0  0  0
  1 25  1  0  0  0  0
  1 26  1  0  0  0  0
  1 27  1  0  0  0  0
  4 28  1  0  0  0  0
  5 29  1  0  0  0  0
  6 30  1  0  0  0  0
  6 31  1  0  0  0  0
  8 32  1  0  0  0  0
  9 33  1  0  0  0  0
 11 34  1  0  0  0  0
 12 35  1  0  0  0  0
 13 36  1  0  0  0  0
 16 37  1  0  0  0  0
 17 38  1  0  0  0  0
 18 39  1  0  0  0  0
 18 40  1  0  0  0  0
 18 41  1  0  0  0  0
 19 42  1  0  0  0  0
 19 43  1  0  0  0  0
 24 51  1  0  0  0  0
 21 44  1  0  0  0  0
 21 45  1  0  0  0  0
 22 46  1  0  0  0  0
 22 47  1  0  0  0  0
 23 48  1  0  0  0  0
 23 49  1  0  0  0  0
 24 50  1  0  0  0  0
M  END
> <BIOSOLVEIT.HYDE_ESTIMATED_AFFINITY_LOWER_BOUNDARY [nM]>
3523.044609

> <BIOSOLVEIT.HYDE_ESTIMATED_AFFINITY_UPPER_BOUNDARY [nM]>
350035.311753

> <BIOSOLVEIT.HYDE_LIGAND_EFFICIENCY range: ++, +, 0, -, -->
-

> <BIOSOLVEIT.HYDE_LIGAND_LIPOPHILIC_EFFICIENCY range: ++, +, 0, -, -->
-

> <BIOSOLVEIT.INTER_CLASH range: red, yellow, green>
green

> <BIOSOLVEIT.INTRA_CLASH range: red, yellow, green>
green

> <BIOSOLVEIT.LOGP>
1.0399

> <BIOSOLVEIT.MOLECULAR WEIGHT>
333.429

> <BIOSOLVEIT.MOLECULE_CHECKSUM>
LTI1LjQyNjI7MS4wNTk0Mw==

> <BIOSOLVEIT.TORSION_QUALITY range: red, yellow, green, not rotatable>
red

> <BIOSOLVEIT.TPSA>
81.67

> <BIOSOLVEIT.SEESAR_FAVORITE>
favorite

$$$$
mol_98_1_09
anSeeSAR  04022021433D 1   1.00000     0.00000     0
SeeSAR 9.2 andre
 40 41  0  0  0  0            999 V2000
    7.2458    5.7580   21.6355 C   0  0  0  0  0  0  0  0  0  0  0  0
    7.0478    4.4108   22.2515 C   0  0  0  0  0  0  0  0  0  0  0  0
    5.9592    4.1591   22.8351 O   0  0  0  0  0  0  0  0  0  0  0  0
    8.0809    3.4161   22.1746 N   0  0  0  0  0  0  0  0  0  0  0  0
    8.2720    2.3881   23.2021 C   0  0  1  0  0  0  0  0  0  0  0  0
    7.2362    1.2629   23.0181 C   0  0  0  0  0  0  0  0  0  0  0  0
    6.9795    0.9811   21.5587 C   0  0  0  0  0  0  0  0  0  0  0  0
    7.8558    0.1633   20.8259 C   0  0  0  0  0  0  0  0  0  0  0  0
    7.6258   -0.0777   19.4681 C   0  0  0  0  0  0  0  0  0  0  0  0
    6.5158    0.4920   18.8300 C   0  0  0  0  0  0  0  0  0  0  0  0
    6.2775    0.2601   17.4773 O   0  0  0  0  0  0  0  0  0  0  0  0
    5.6376    1.3017   19.5571 C   0  0  0  0  0  0  0  0  0  0  0  0
    5.8657    1.5452   20.9146 C   0  0  0  0  0  0  0  0  0  0  0  0
    9.6762    1.8600   23.1148 C   0  0  0  0  0  0  0  0  0  0  0  0
   10.7315    2.5529   22.7535 N   0  0  0  0  0  0  0  0  0  0  0  0
   11.7879    1.7652   22.7880 N   0  0  0  0  0  0  0  0  0  0  0  0
   11.3492    0.5854   23.1712 C   0  0  0  0  0  0  0  0  0  0  0  0
   12.2233   -0.6456   23.3463 C   0  0  0  0  0  0  0  0  0  0  0  0
   13.2475   -0.4201   24.4618 C   0  0  0  0  0  0  0  0  0  0  0  0
   12.9159   -1.0013   22.0280 C   0  0  0  0  0  0  0  0  0  0  0  0
   10.0502    0.6299   23.3790 O   0  0  0  0  0  0  0  0  0  0  0  0
    8.1518    5.8022   21.2146 H   0  0  0  0  0  0  0  0  0  0  0  0
    6.5462    5.9115   20.9377 H   0  0  0  0  0  0  0  0  0  0  0  0
    7.1718    6.4618   22.3421 H   0  0  0  0  0  0  0  0  0  0  0  0
    8.6962    3.4252   21.3864 H   0  0  0  0  0  0  0  0  0  0  0  0
    8.1397    2.8036   24.1020 H   0  0  0  0  0  0  0  0  0  0  0  0
    6.3780    1.5371   23.4519 H   0  0  0  0  0  0  0  0  0  0  0  0
    7.5792    0.4309   23.4542 H   0  0  0  0  0  0  0  0  0  0  0  0
    8.6476   -0.2481   21.2774 H   0  0  0  0  0  0  0  0  0  0  0  0
    8.2549   -0.6581   18.9510 H   0  0  0  0  0  0  0  0  0  0  0  0
    5.3409    0.1408   17.1479 H   0  0  0  0  0  0  0  0  0  0  0  0
    4.8438    1.7079   19.1044 H   0  0  0  0  0  0  0  0  0  0  0  0
    5.2330    2.1235   21.4297 H   0  0  0  0  0  0  0  0  0  0  0  0
   11.6369   -1.4118   23.6092 H   0  0  0  0  0  0  0  0  0  0  0  0
   13.8140   -1.2377   24.5645 H   0  0  0  0  0  0  0  0  0  0  0  0
   13.8277    0.3603   24.2287 H   0  0  0  0  0  0  0  0  0  0  0  0
   12.7697   -0.2355   25.3206 H   0  0  0  0  0  0  0  0  0  0  0  0
   13.4864   -1.8120   22.1593 H   0  0  0  0  0  0  0  0  0  0  0  0
   12.2258   -1.1889   21.3290 H   0  0  0  0  0  0  0  0  0  0  0  0
   13.4877   -0.2352   21.7347 H   0  0  0  0  0  0  0  0  0  0  0  0
  1  2  1  0  0  0  0
  2  3  2  0  0  0  0
  2  4  1  0  0  0  0
  4  5  1  0  0  0  0
  5  6  1  0  0  0  0
  6  7  1  0  0  0  0
  7  8  2  0  0  0  0
  8  9  1  0  0  0  0
  9 10  2  0  0  0  0
 10 11  1  0  0  0  0
 10 12  1  0  0  0  0
 12 13  2  0  0  0  0
  5 14  1  0  0  0  0
 14 15  2  0  0  0  0
 15 16  1  0  0  0  0
 16 17  2  0  0  0  0
 17 18  1  0  0  0  0
 18 19  1  0  0  0  0
 18 20  1  0  0  0  0
 17 21  1  0  0  0  0
 13  7  1  0  0  0  0
 21 14  1  0  0  0  0
  1 22  1  0  0  0  0
  1 23  1  0  0  0  0
  1 24  1  0  0  0  0
  4 25  1  0  0  0  0
  5 26  1  0  0  0  0
  6 27  1  0  0  0  0
  6 28  1  0  0  0  0
  8 29  1  0  0  0  0
  9 30  1  0  0  0  0
 11 31  1  0  0  0  0
 12 32  1  0  0  0  0
 13 33  1  0  0  0  0
 18 34  1  0  0  0  0
 19 35  1  0  0  0  0
 19 36  1  0  0  0  0
 19 37  1  0  0  0  0
 20 38  1  0  0  0  0
 20 39  1  0  0  0  0
 20 40  1  0  0  0  0
M  END
> <BIOSOLVEIT.HYDE_ESTIMATED_AFFINITY_LOWER_BOUNDARY [nM]>
3830.039436

> <BIOSOLVEIT.HYDE_ESTIMATED_AFFINITY_UPPER_BOUNDARY [nM]>
380537.062989

> <BIOSOLVEIT.HYDE_LIGAND_EFFICIENCY range: ++, +, 0, -, -->
-

> <BIOSOLVEIT.HYDE_LIGAND_LIPOPHILIC_EFFICIENCY range: ++, +, 0, -, -->
-

> <BIOSOLVEIT.INTER_CLASH range: red, yellow, green>
green

> <BIOSOLVEIT.INTRA_CLASH range: red, yellow, green>
green

> <BIOSOLVEIT.LOGP>
2.3185

> <BIOSOLVEIT.MOLECULAR WEIGHT>
289.333

> <BIOSOLVEIT.MOLECULE_CHECKSUM>
LTI1LjIxOTE7MS4yMDA5MQ==

> <BIOSOLVEIT.TORSION_QUALITY range: red, yellow, green, not rotatable>
green

> <BIOSOLVEIT.TPSA>
88.25

> <BIOSOLVEIT.SEESAR_FAVORITE>
favorite

$$$$
