s_22____6107996____17513450
          04022015093D 1   1.00000     0.00000     0
            
 52 53  0  0  0  0            999 V2000
    0.4000    1.0000   -0.0392 O   0  0  0  0  0  0  0  0  0  0  0  0
    1.0000    1.0000    1.0000 C   0  0  0  0  0  0  0  0  0  0  0  0
    0.3150    1.0000    2.1865 N   0  0  0  0  0  0  0  0  0  0  0  0
   -1.1552    1.0000    2.1865 C   0  0  3  0  0  0  0  0  0  0  0  0
   -1.6373    2.2488    2.9075 C   0  0  3  0  0  0  0  0  0  0  0  0
   -3.1566    2.3061    3.0278 C   0  0  0  0  0  0  0  0  0  0  0  0
   -3.7109    1.3552    4.0857 C   0  0  0  0  0  0  0  0  0  0  0  0
   -4.0904   -0.0273    3.5674 C   0  0  0  0  0  0  0  0  0  0  0  0
   -3.0966   -0.6057    2.5666 C   0  0  0  0  0  0  0  0  0  0  0  0
   -1.6395   -0.2711    2.8679 C   0  0  0  0  0  0  0  0  0  0  0  0
   -1.1727    3.4664    2.1243 C   0  0  0  0  0  0  0  0  0  0  0  0
    2.5200    1.0000    1.0000 C   0  0  3  0  0  0  0  0  0  0  0  0
    3.0100    1.0000   -0.3859 N   0  0  0  0  0  0  0  0  0  0  0  0
    3.7976    2.0275   -0.8340 C   0  0  0  0  0  0  0  0  0  0  0  0
    4.0875    2.9275   -0.0951 O   0  0  0  0  0  0  0  0  0  0  0  0
    4.3043    2.0275   -2.2671 C   0  0  0  0  0  0  0  0  0  0  0  0
    3.0267   -0.2411    1.7165 C   0  0  0  0  0  0  0  0  0  0  0  0
    4.5467   -0.2411    1.7165 C   0  0  0  0  0  0  0  0  0  0  0  0
    5.2311    0.3644    2.7653 C   0  0  0  0  0  0  0  0  0  0  0  0
    6.6219    0.3662    2.7699 C   0  0  0  0  0  0  0  0  0  0  0  0
    7.3116   -0.2391    1.7241 C   0  0  0  0  0  0  0  0  0  0  0  0
    8.6614   -0.2393    1.7244 O   0  0  0  0  0  0  0  0  0  0  0  0
    6.6320   -0.8457    0.6727 C   0  0  0  0  0  0  0  0  0  0  0  0
    5.2412   -0.8449    0.6734 C   0  0  0  0  0  0  0  0  0  0  0  0
    0.8150    1.0000    3.0525 H   0  0  0  0  0  0  0  0  0  0  0  0
   -1.4855    1.0152    1.2427 H   0  0  0  0  0  0  0  0  0  0  0  0
   -1.2349    2.2747    3.8226 H   0  0  0  0  0  0  0  0  0  0  0  0
   -3.5551    2.0647    2.1430 H   0  0  0  0  0  0  0  0  0  0  0  0
   -3.4216    3.2397    3.2691 H   0  0  0  0  0  0  0  0  0  0  0  0
   -4.5279    1.7737    4.4825 H   0  0  0  0  0  0  0  0  0  0  0  0
   -3.0163    1.2412    4.7960 H   0  0  0  0  0  0  0  0  0  0  0  0
   -4.1507   -0.6503    4.3473 H   0  0  0  0  0  0  0  0  0  0  0  0
   -4.9837    0.0375    3.1226 H   0  0  0  0  0  0  0  0  0  0  0  0
   -3.1960   -1.6007    2.5652 H   0  0  0  0  0  0  0  0  0  0  0  0
   -3.3197   -0.2471    1.6601 H   0  0  0  0  0  0  0  0  0  0  0  0
   -1.5384   -0.1584    3.8564 H   0  0  0  0  0  0  0  0  0  0  0  0
   -1.0695   -1.0325    2.5592 H   0  0  0  0  0  0  0  0  0  0  0  0
   -1.4822    4.2977    2.5860 H   0  0  0  0  0  0  0  0  0  0  0  0
   -0.1742    3.4670    2.0705 H   0  0  0  0  0  0  0  0  0  0  0  0
   -1.5563    3.4353    1.2013 H   0  0  0  0  0  0  0  0  0  0  0  0
    2.8533    1.8165    1.4714 H   0  0  0  0  0  0  0  0  0  0  0  0
    2.7684    0.2500   -1.0017 H   0  0  0  0  0  0  0  0  0  0  0  0
    3.9710    1.2110   -2.7385 H   0  0  0  0  0  0  0  0  0  0  0  0
    3.9710    2.8440   -2.7385 H   0  0  0  0  0  0  0  0  0  0  0  0
    5.3043    2.0275   -2.2671 H   0  0  0  0  0  0  0  0  0  0  0  0
    2.6933   -0.2411    2.6593 H   0  0  0  0  0  0  0  0  0  0  0  0
    2.6933   -1.0576    1.2451 H   0  0  0  0  0  0  0  0  0  0  0  0
    4.7256    0.7963    3.5122 H   0  0  0  0  0  0  0  0  0  0  0  0
    7.1226    0.7993    3.5194 H   0  0  0  0  0  0  0  0  0  0  0  0
    9.1615   -0.6731    0.9749 H   0  0  0  0  0  0  0  0  0  0  0  0
    7.1374   -1.2771   -0.0746 H   0  0  0  0  0  0  0  0  0  0  0  0
    4.7405   -1.2783   -0.0759 H   0  0  0  0  0  0  0  0  0  0  0  0
  1  2  2  0  0  0  0
  2  3  1  0  0  0  0
  3  4  1  0  0  0  0
  4  5  1  0  0  0  0
  5  6  1  0  0  0  0
  6  7  1  0  0  0  0
  7  8  1  0  0  0  0
  8  9  1  0  0  0  0
  9 10  1  0  0  0  0
 10  4  1  0  0  0  0
  5 11  1  0  0  0  0
  2 12  1  0  0  0  0
 12 13  1  0  0  0  0
 13 14  1  0  0  0  0
 14 15  2  0  0  0  0
 14 16  1  0  0  0  0
 12 17  1  0  0  0  0
 17 18  1  0  0  0  0
 18 19  1  0  0  0  0
 19 20  2  0  0  0  0
 20 21  1  0  0  0  0
 21 22  1  0  0  0  0
 21 23  2  0  0  0  0
 23 24  1  0  0  0  0
 24 18  2  0  0  0  0
  3 25  1  0  0  0  0
  4 26  1  0  0  0  0
  5 27  1  0  0  0  0
  6 28  1  0  0  0  0
  6 29  1  0  0  0  0
  7 30  1  0  0  0  0
  7 31  1  0  0  0  0
  8 32  1  0  0  0  0
  8 33  1  0  0  0  0
  9 34  1  0  0  0  0
  9 35  1  0  0  0  0
 10 36  1  0  0  0  0
 10 37  1  0  0  0  0
 11 38  1  0  0  0  0
 11 39  1  0  0  0  0
 11 40  1  0  0  0  0
 12 41  1  0  0  0  0
 13 42  1  0  0  0  0
 16 43  1  0  0  0  0
 16 44  1  0  0  0  0
 16 45  1  0  0  0  0
 17 46  1  0  0  0  0
 17 47  1  0  0  0  0
 19 48  1  0  0  0  0
 20 49  1  0  0  0  0
 22 50  1  0  0  0  0
 23 51  1  0  0  0  0
 24 52  1  0  0  0  0
M  END
>  <result-rank>
1

>  <similarity>
1.000

>  <query-name>
LIG_A_1101_CCC[C@H]([R*])C1CCC1_2

>  <query-smiles>
O=C(N[C@H](C1CCC1)CCC)[C@@H](NC(=O)C)Cc2ccc(O)cc2

>  <source>
REALspace_2019-12

>  <similarity-descriptor>
1.000;1.000;1.000;1.000;1.000;1.000;1.000;1.000;1.000;1.000;1.000;1.000;1.000;1.000;0.0

>  <similarity-descriptor-smiles>
C1CCCCCC1;c1ccccc1;O=C;N;C1CCCCCC1;C1CCCCCC1;C1CCCCCC1;C;C;N;C=O;C;C;O;

>  <reaction-name>
s_22

>  <reagent1-name>
6107996

>  <reagent1-smiles>
[R1*]NC1C(CCCCC1)C

>  <reagent2-name>
17513450

>  <reagent2-smiles>
[R1*]C(=O)C(NC(=O)C)Cc1ccc(O)cc1

$$$$
s_22____307590____17513450
          04022015093D 1   1.00000     0.00000     0
            
 58 59  0  0  0  0            999 V2000
    0.4000    1.0000   -0.0392 O   0  0  0  0  0  0  0  0  0  0  0  0
    1.0000    1.0000    1.0000 C   0  0  0  0  0  0  0  0  0  0  0  0
    0.3150    1.0000    2.1865 N   0  0  0  0  0  0  0  0  0  0  0  0
    1.0472    1.1112    3.4596 C   0  0  3  0  0  0  0  0  0  0  0  0
    1.4479   -0.2717    3.9498 C   0  0  0  0  0  0  0  0  0  0  0  0
    2.1838   -0.1509    5.2748 C   0  0  0  0  0  0  0  0  0  0  0  0
    1.3519    0.5214    6.2842 N   0  3  3  0  0  0  0  0  0  0  0  0
    2.0551    0.6101    7.5746 C   0  0  0  0  0  0  0  0  0  0  0  0
    1.6717    1.9047    8.2727 C   0  0  0  0  0  0  0  0  0  0  0  0
    1.6635   -0.5713    8.4472 C   0  0  0  0  0  0  0  0  0  0  0  0
    0.9241    1.8548    5.8346 C   0  0  0  0  0  0  0  0  0  0  0  0
    0.1706    1.7622    4.5173 C   0  0  0  0  0  0  0  0  0  0  0  0
   -1.1508    0.8890    2.1889 C   0  0  0  0  0  0  0  0  0  0  0  0
    2.5200    1.0000    1.0000 C   0  0  3  0  0  0  0  0  0  0  0  0
    3.0100    2.0617    0.1091 N   0  0  0  0  0  0  0  0  0  0  0  0
    3.7976    3.0654    0.6082 C   0  0  0  0  0  0  0  0  0  0  0  0
    4.0875    3.0779    1.7726 O   0  0  0  0  0  0  0  0  0  0  0  0
    4.3043    4.1632   -0.3129 C   0  0  0  0  0  0  0  0  0  0  0  0
    3.0267   -0.3466    0.5099 C   0  0  0  0  0  0  0  0  0  0  0  0
    4.5007   -0.4888    0.8528 C   0  0  0  0  0  0  0  0  0  0  0  0
    4.8688   -1.0510    2.0707 C   0  0  0  0  0  0  0  0  0  0  0  0
    6.2163   -1.1838    2.3885 C   0  0  0  0  0  0  0  0  0  0  0  0
    7.1800   -0.7523    1.4825 C   0  0  0  0  0  0  0  0  0  0  0  0
    8.4889   -0.8790    1.7870 O   0  0  0  0  0  0  0  0  0  0  0  0
    6.8172   -0.1890    0.2633 C   0  0  0  0  0  0  0  0  0  0  0  0
    5.4683   -0.0590   -0.0495 C   0  0  0  0  0  0  0  0  0  0  0  0
    0.5308   -0.0326    6.4214 H   0  0  0  0  0  0  0  0  0  0  0  0
    1.8684    1.6652    3.3226 H   0  0  0  0  0  0  0  0  0  0  0  0
    2.0466   -0.7033    3.2750 H   0  0  0  0  0  0  0  0  0  0  0  0
    0.6283   -0.8309    4.0743 H   0  0  0  0  0  0  0  0  0  0  0  0
    2.4187   -1.0660    5.6023 H   0  0  0  0  0  0  0  0  0  0  0  0
    3.0207    0.3786    5.1362 H   0  0  0  0  0  0  0  0  0  0  0  0
    3.0426    0.5958    7.4177 H   0  0  0  0  0  0  0  0  0  0  0  0
    2.1493    1.9649    9.1492 H   0  0  0  0  0  0  0  0  0  0  0  0
    1.9293    2.6819    7.6986 H   0  0  0  0  0  0  0  0  0  0  0  0
    0.6842    1.9190    8.4295 H   0  0  0  0  0  0  0  0  0  0  0  0
    2.1411   -0.5111    9.3237 H   0  0  0  0  0  0  0  0  0  0  0  0
    0.6760   -0.5570    8.6040 H   0  0  0  0  0  0  0  0  0  0  0  0
    1.9157   -1.4230    7.9879 H   0  0  0  0  0  0  0  0  0  0  0  0
    1.7300    2.4339    5.7117 H   0  0  0  0  0  0  0  0  0  0  0  0
    0.3261    2.2584    6.5271 H   0  0  0  0  0  0  0  0  0  0  0  0
   -0.6552    1.2132    4.6464 H   0  0  0  0  0  0  0  0  0  0  0  0
   -0.0838    2.6813    4.2163 H   0  0  0  0  0  0  0  0  0  0  0  0
   -1.4847    0.9050    3.1313 H   0  0  0  0  0  0  0  0  0  0  0  0
   -1.5440    1.6567    1.6829 H   0  0  0  0  0  0  0  0  0  0  0  0
   -1.4208    0.0300    1.7541 H   0  0  0  0  0  0  0  0  0  0  0  0
    2.8533    1.1637    1.9285 H   0  0  0  0  0  0  0  0  0  0  0  0
    2.7684    2.0513   -0.8612 H   0  0  0  0  0  0  0  0  0  0  0  0
    3.9710    3.9995   -1.2414 H   0  0  0  0  0  0  0  0  0  0  0  0
    3.9710    5.0491    0.0095 H   0  0  0  0  0  0  0  0  0  0  0  0
    5.3043    4.1632   -0.3129 H   0  0  0  0  0  0  0  0  0  0  0  0
    2.5092   -1.0788    0.9528 H   0  0  0  0  0  0  0  0  0  0  0  0
    2.9077   -0.4069   -0.4812 H   0  0  0  0  0  0  0  0  0  0  0  0
    4.1681   -1.3583    2.7146 H   0  0  0  0  0  0  0  0  0  0  0  0
    6.4906   -1.5865    3.2618 H   0  0  0  0  0  0  0  0  0  0  0  0
    9.1852   -0.5702    1.1390 H   0  0  0  0  0  0  0  0  0  0  0  0
    7.5178    0.1187   -0.3804 H   0  0  0  0  0  0  0  0  0  0  0  0
    5.1940    0.3433   -0.9229 H   0  0  0  0  0  0  0  0  0  0  0  0
  1  2  2  0  0  0  0
  2  3  1  0  0  0  0
  3  4  1  0  0  0  0
  4  5  1  0  0  0  0
  5  6  1  0  0  0  0
  6  7  1  0  0  0  0
  7  8  1  0  0  0  0
  8  9  1  0  0  0  0
  8 10  1  0  0  0  0
  7 11  1  0  0  0  0
 11 12  1  0  0  0  0
 12  4  1  0  0  0  0
  3 13  1  0  0  0  0
  2 14  1  0  0  0  0
 14 15  1  0  0  0  0
 15 16  1  0  0  0  0
 16 17  2  0  0  0  0
 16 18  1  0  0  0  0
 14 19  1  0  0  0  0
 19 20  1  0  0  0  0
 20 21  1  0  0  0  0
 21 22  2  0  0  0  0
 22 23  1  0  0  0  0
 23 24  1  0  0  0  0
 23 25  2  0  0  0  0
 25 26  1  0  0  0  0
 26 20  2  0  0  0  0
  7 27  1  0  0  0  0
  4 28  1  0  0  0  0
  5 29  1  0  0  0  0
  5 30  1  0  0  0  0
  6 31  1  0  0  0  0
  6 32  1  0  0  0  0
  8 33  1  0  0  0  0
  9 34  1  0  0  0  0
  9 35  1  0  0  0  0
  9 36  1  0  0  0  0
 10 37  1  0  0  0  0
 10 38  1  0  0  0  0
 10 39  1  0  0  0  0
 11 40  1  0  0  0  0
 11 41  1  0  0  0  0
 12 42  1  0  0  0  0
 12 43  1  0  0  0  0
 13 44  1  0  0  0  0
 13 45  1  0  0  0  0
 13 46  1  0  0  0  0
 14 47  1  0  0  0  0
 15 48  1  0  0  0  0
 18 49  1  0  0  0  0
 18 50  1  0  0  0  0
 18 51  1  0  0  0  0
 19 52  1  0  0  0  0
 19 53  1  0  0  0  0
 21 54  1  0  0  0  0
 22 55  1  0  0  0  0
 24 56  1  0  0  0  0
 25 57  1  0  0  0  0
 26 58  1  0  0  0  0
M  CHG  1   7   1
M  END
>  <result-rank>
2

>  <similarity>
0.988

>  <query-name>
LIG_A_1101_CCC[C@H]([R*])C1CCC1_2

>  <query-smiles>
O=C(N[C@H](C1CCC1)CCC)[C@@H](NC(=O)C)Cc2ccc(O)cc2

>  <source>
REALspace_2019-12

>  <similarity-descriptor>
0.990;1.000;0.973;0.990;0.990;0.995;0.995;1.000;1.000;1.000;1.000;1.000;1.000;1.000;0.071

>  <similarity-descriptor-smiles>
C1CC[NH+]CC1;c1ccccc1;O=CN;C1CC[NH+]CC1;C1CC[NH+]CC1;CC;CC;C;C;N;C=O;C;C;O;C

>  <reaction-name>
s_22

>  <reagent1-name>
307590

>  <reagent1-smiles>
[R1*]N(C1CCN(C(C)C)CC1)C

>  <reagent2-name>
17513450

>  <reagent2-smiles>
[R1*]C(=O)C(NC(=O)C)Cc1ccc(O)cc1

$$$$
s_22____15101146____17513450
          04022015093D 1   1.00000     0.00000     0
            
 53 55  0  0  0  0            999 V2000
   -0.9588    2.2240    0.5109 O   0  0  0  0  0  0  0  0  0  0  0  0
    0.1224    1.8776    0.1224 C   0  0  0  0  0  0  0  0  0  0  0  0
    0.5659    2.2731   -1.1120 N   0  0  0  0  0  0  0  0  0  0  0  0
   -0.2828    3.1218   -1.9607 C   0  0  3  0  0  0  0  0  0  0  0  0
   -0.0224    4.5879   -1.7003 C   0  0  0  0  0  0  0  0  0  0  0  0
   -0.5679    5.2849   -2.9324 C   0  0  0  0  0  0  0  0  0  0  0  0
   -0.0692    4.3707   -4.0408 C   0  0  0  0  0  0  0  0  0  0  0  0
    0.1559    3.0064   -3.4197 C   0  0  0  0  0  0  0  0  0  0  0  0
   -2.0700    5.4920   -2.9668 C   0  0  0  0  0  0  0  0  0  0  0  0
   -2.2946    6.5937   -3.9900 C   0  0  0  0  0  0  0  0  0  0  0  0
   -0.9902    7.3591   -4.0830 C   0  0  0  0  0  0  0  0  0  0  0  0
   -0.0936    6.7226   -3.0315 C   0  0  0  0  0  0  0  0  0  0  0  0
    1.0000    1.0000    1.0000 C   0  0  3  0  0  0  0  0  0  0  0  0
    1.8487    0.1513    0.1513 N   0  0  0  0  0  0  0  0  0  0  0  0
    2.2442   -1.0831    0.5948 C   0  0  0  0  0  0  0  0  0  0  0  0
    1.8978   -1.4716    1.6760 O   0  0  0  0  0  0  0  0  0  0  0  0
    3.1218   -1.9607   -0.2828 C   0  0  0  0  0  0  0  0  0  0  0  0
    1.8776    1.8776    1.8776 C   0  0  0  0  0  0  0  0  0  0  0  0
    1.0000    2.7552    2.7552 C   0  0  0  0  0  0  0  0  0  0  0  0
    0.6049    2.2940    4.0066 C   0  0  0  0  0  0  0  0  0  0  0  0
   -0.1975    3.0939    4.8134 C   0  0  0  0  0  0  0  0  0  0  0  0
   -0.5947    4.3470    4.3576 C   0  0  0  0  0  0  0  0  0  0  0  0
   -1.4142    5.1669    5.1777 O   0  0  0  0  0  0  0  0  0  0  0  0
   -0.2026    4.8128    3.1068 C   0  0  0  0  0  0  0  0  0  0  0  0
    0.6001    4.0090    2.3044 C   0  0  0  0  0  0  0  0  0  0  0  0
    1.4669    1.9844   -1.4357 H   0  0  0  0  0  0  0  0  0  0  0  0
   -1.2510    2.8970   -1.8510 H   0  0  0  0  0  0  0  0  0  0  0  0
   -0.5025    4.8932   -0.8779 H   0  0  0  0  0  0  0  0  0  0  0  0
    0.9571    4.7619   -1.5984 H   0  0  0  0  0  0  0  0  0  0  0  0
    0.7879    4.7226   -4.4172 H   0  0  0  0  0  0  0  0  0  0  0  0
   -0.7522    4.3086   -4.7686 H   0  0  0  0  0  0  0  0  0  0  0  0
   -0.3919    2.3161   -3.8924 H   0  0  0  0  0  0  0  0  0  0  0  0
    1.1230    2.7575   -3.4718 H   0  0  0  0  0  0  0  0  0  0  0  0
   -2.4063    5.7736   -2.0681 H   0  0  0  0  0  0  0  0  0  0  0  0
   -2.5339    4.6519   -3.2480 H   0  0  0  0  0  0  0  0  0  0  0  0
   -3.0313    7.1999   -3.6903 H   0  0  0  0  0  0  0  0  0  0  0  0
   -2.5286    6.1989   -4.8785 H   0  0  0  0  0  0  0  0  0  0  0  0
   -0.5889    7.2628   -4.9938 H   0  0  0  0  0  0  0  0  0  0  0  0
   -1.1349    8.3282   -3.8832 H   0  0  0  0  0  0  0  0  0  0  0  0
    0.8640    6.7582   -3.3175 H   0  0  0  0  0  0  0  0  0  0  0  0
   -0.1965    7.1884   -2.1527 H   0  0  0  0  0  0  0  0  0  0  0  0
    0.4226    0.4226    1.5774 H   0  0  0  0  0  0  0  0  0  0  0  0
    2.1374    0.4750   -0.7498 H   0  0  0  0  0  0  0  0  0  0  0  0
    3.3142   -1.4865   -1.1419 H   0  0  0  0  0  0  0  0  0  0  0  0
    3.9809   -2.1532    0.1914 H   0  0  0  0  0  0  0  0  0  0  0  0
    2.6475   -2.8198   -0.4753 H   0  0  0  0  0  0  0  0  0  0  0  0
    2.4549    1.3002    2.4549 H   0  0  0  0  0  0  0  0  0  0  0  0
    2.4549    2.4549    1.3002 H   0  0  0  0  0  0  0  0  0  0  0  0
    0.8963    1.3918    4.3246 H   0  0  0  0  0  0  0  0  0  0  0  0
   -0.4868    2.7706    5.7144 H   0  0  0  0  0  0  0  0  0  0  0  0
   -1.7022    6.0683    4.8545 H   0  0  0  0  0  0  0  0  0  0  0  0
   -0.4944    5.7147    2.7884 H   0  0  0  0  0  0  0  0  0  0  0  0
    0.8898    4.3323    1.4035 H   0  0  0  0  0  0  0  0  0  0  0  0
  1  2  2  0  0  0  0
  2  3  1  0  0  0  0
  3  4  1  0  0  0  0
  4  5  1  0  0  0  0
  5  6  1  0  0  0  0
  6  7  1  0  0  0  0
  7  8  1  0  0  0  0
  8  4  1  0  0  0  0
  6  9  1  0  0  0  0
  9 10  1  0  0  0  0
 10 11  1  0  0  0  0
 11 12  1  0  0  0  0
 12  6  1  0  0  0  0
  2 13  1  0  0  0  0
 13 14  1  0  0  0  0
 14 15  1  0  0  0  0
 15 16  2  0  0  0  0
 15 17  1  0  0  0  0
 13 18  1  0  0  0  0
 18 19  1  0  0  0  0
 19 20  1  0  0  0  0
 20 21  2  0  0  0  0
 21 22  1  0  0  0  0
 22 23  1  0  0  0  0
 22 24  2  0  0  0  0
 24 25  1  0  0  0  0
 25 19  2  0  0  0  0
  3 26  1  0  0  0  0
  4 27  1  0  0  0  0
  5 28  1  0  0  0  0
  5 29  1  0  0  0  0
  7 30  1  0  0  0  0
  7 31  1  0  0  0  0
  8 32  1  0  0  0  0
  8 33  1  0  0  0  0
  9 34  1  0  0  0  0
  9 35  1  0  0  0  0
 10 36  1  0  0  0  0
 10 37  1  0  0  0  0
 11 38  1  0  0  0  0
 11 39  1  0  0  0  0
 12 40  1  0  0  0  0
 12 41  1  0  0  0  0
 13 42  1  0  0  0  0
 14 43  1  0  0  0  0
 17 44  1  0  0  0  0
 17 45  1  0  0  0  0
 17 46  1  0  0  0  0
 18 47  1  0  0  0  0
 18 48  1  0  0  0  0
 20 49  1  0  0  0  0
 21 50  1  0  0  0  0
 23 51  1  0  0  0  0
 24 52  1  0  0  0  0
 25 53  1  0  0  0  0
M  END
>  <result-rank>
3

>  <similarity>
0.978

>  <query-name>
LIG_A_1101_CCC[C@H]([R*])C1CCC1_2

>  <query-smiles>
O=C(N[C@H](C1CCC1)CCC)[C@@H](NC(=O)C)Cc2ccc(O)cc2

>  <source>
REALspace_2019-12

>  <similarity-descriptor>
0.980;1.000;1.000;1.000;0.893;0.893;0.893;0.893;1.000;1.000;1.000;1.000;1.000;1.000;0.0

>  <similarity-descriptor-smiles>
C1CCCC1;c1ccccc1;O=C;N;C1CCCC1;C1CCCC1;C1CCCC1;C1CCCC1;C;N;C=O;C;C;O;

>  <reaction-name>
s_22

>  <reagent1-name>
15101146

>  <reagent1-smiles>
[R1*]NC1CC2(CC1)CCCC2

>  <reagent2-name>
17513450

>  <reagent2-smiles>
[R1*]C(=O)C(NC(=O)C)Cc1ccc(O)cc1

$$$$
s_22____13441554____17513450
          04022015093D 1   1.00000     0.00000     0
            
 47 48  0  0  0  0            999 V2000
    0.4000   -0.0392    1.0000 O   0  0  0  0  0  0  0  0  0  0  0  0
    1.0000    1.0000    1.0000 C   0  0  0  0  0  0  0  0  0  0  0  0
    2.3700    1.0000    1.0000 N   0  0  0  0  0  0  0  0  0  0  0  0
    3.1050   -0.2731    1.0000 C   0  0  0  0  0  0  0  0  0  0  0  0
    4.5994    0.0047    1.0000 C   0  0  0  0  0  0  0  0  0  0  0  0
    5.3594   -1.3117    1.0000 C   0  0  3  0  0  0  0  0  0  0  0  0
    5.0164   -2.0563    2.1594 O   0  0  0  0  0  0  0  0  0  0  0  0
    6.8544   -1.0338    1.0000 C   0  0  0  0  0  0  0  0  0  0  0  0
    7.2548   -0.2467    2.2136 C   0  0  0  0  0  0  0  0  0  0  0  0
    7.1657    0.4299    0.8758 C   0  0  0  0  0  0  0  0  0  0  0  0
    0.2400    2.3164    1.0000 C   0  0  3  0  0  0  0  0  0  0  0  0
   -1.2052    2.0477    1.0000 N   0  0  0  0  0  0  0  0  0  0  0  0
   -1.9871    2.5058    2.0275 C   0  0  0  0  0  0  0  0  0  0  0  0
   -1.4922    3.1263    2.9275 O   0  0  0  0  0  0  0  0  0  0  0  0
   -3.4815    2.2281    2.0275 C   0  0  0  0  0  0  0  0  0  0  0  0
    0.6072    3.1134   -0.2411 C   0  0  0  0  0  0  0  0  0  0  0  0
   -0.1528    4.4298   -0.2411 C   0  0  0  0  0  0  0  0  0  0  0  0
    0.4132    5.5469    0.3644 C   0  0  0  0  0  0  0  0  0  0  0  0
   -0.2782    6.7537    0.3662 C   0  0  0  0  0  0  0  0  0  0  0  0
   -1.5287    6.8280   -0.2391 C   0  0  0  0  0  0  0  0  0  0  0  0
   -2.2034    7.9972   -0.2393 O   0  0  0  0  0  0  0  0  0  0  0  0
   -2.0995    5.7138   -0.8457 C   0  0  0  0  0  0  0  0  0  0  0  0
   -1.4035    4.5097   -0.8449 C   0  0  0  0  0  0  0  0  0  0  0  0
    2.8700    1.8660    1.0000 H   0  0  0  0  0  0  0  0  0  0  0  0
    2.8634   -0.7974    0.1835 H   0  0  0  0  0  0  0  0  0  0  0  0
    2.8634   -0.7974    1.8165 H   0  0  0  0  0  0  0  0  0  0  0  0
    4.8410    0.5291    0.1835 H   0  0  0  0  0  0  0  0  0  0  0  0
    4.8410    0.5291    1.8165 H   0  0  0  0  0  0  0  0  0  0  0  0
    5.1178   -1.8360    0.1835 H   0  0  0  0  0  0  0  0  0  0  0  0
    4.0332   -2.2390    2.1594 H   0  0  0  0  0  0  0  0  0  0  0  0
    7.4845   -1.7092    0.6167 H   0  0  0  0  0  0  0  0  0  0  0  0
    8.1473   -0.4009    2.6374 H   0  0  0  0  0  0  0  0  0  0  0  0
    6.5797   -0.0433    2.9227 H   0  0  0  0  0  0  0  0  0  0  0  0
    6.4313    1.0838    0.6940 H   0  0  0  0  0  0  0  0  0  0  0  0
    7.9989    0.7262    0.4088 H   0  0  0  0  0  0  0  0  0  0  0  0
    0.4816    2.8407    1.8165 H   0  0  0  0  0  0  0  0  0  0  0  0
   -1.6177    1.5307    0.2500 H   0  0  0  0  0  0  0  0  0  0  0  0
   -3.7231    1.7037    1.2110 H   0  0  0  0  0  0  0  0  0  0  0  0
   -3.7231    1.7037    2.8440 H   0  0  0  0  0  0  0  0  0  0  0  0
   -3.9815    3.0941    2.0275 H   0  0  0  0  0  0  0  0  0  0  0  0
    1.5904    3.2961   -0.2411 H   0  0  0  0  0  0  0  0  0  0  0  0
    0.3656    2.5890   -1.0576 H   0  0  0  0  0  0  0  0  0  0  0  0
    1.3129    5.4826    0.7963 H   0  0  0  0  0  0  0  0  0  0  0  0
    0.1206    7.5620    0.7993 H   0  0  0  0  0  0  0  0  0  0  0  0
   -3.1025    8.0555   -0.6731 H   0  0  0  0  0  0  0  0  0  0  0  0
   -2.9994    5.7778   -1.2771 H   0  0  0  0  0  0  0  0  0  0  0  0
   -1.8020    3.7014   -1.2783 H   0  0  0  0  0  0  0  0  0  0  0  0
  1  2  2  0  0  0  0
  2  3  1  0  0  0  0
  3  4  1  0  0  0  0
  4  5  1  0  0  0  0
  5  6  1  0  0  0  0
  6  7  1  0  0  0  0
  6  8  1  0  0  0  0
  8  9  1  0  0  0  0
  9 10  1  0  0  0  0
 10  8  1  0  0  0  0
  2 11  1  0  0  0  0
 11 12  1  0  0  0  0
 12 13  1  0  0  0  0
 13 14  2  0  0  0  0
 13 15  1  0  0  0  0
 11 16  1  0  0  0  0
 16 17  1  0  0  0  0
 17 18  1  0  0  0  0
 18 19  2  0  0  0  0
 19 20  1  0  0  0  0
 20 21  1  0  0  0  0
 20 22  2  0  0  0  0
 22 23  1  0  0  0  0
 23 17  2  0  0  0  0
  3 24  1  0  0  0  0
  4 25  1  0  0  0  0
  4 26  1  0  0  0  0
  5 27  1  0  0  0  0
  5 28  1  0  0  0  0
  6 29  1  0  0  0  0
  7 30  1  0  0  0  0
  8 31  1  0  0  0  0
  9 32  1  0  0  0  0
  9 33  1  0  0  0  0
 10 34  1  0  0  0  0
 10 35  1  0  0  0  0
 11 36  1  0  0  0  0
 12 37  1  0  0  0  0
 15 38  1  0  0  0  0
 15 39  1  0  0  0  0
 15 40  1  0  0  0  0
 16 41  1  0  0  0  0
 16 42  1  0  0  0  0
 18 43  1  0  0  0  0
 19 44  1  0  0  0  0
 21 45  1  0  0  0  0
 22 46  1  0  0  0  0
 23 47  1  0  0  0  0
M  END
>  <result-rank>
4

>  <similarity>
0.975

>  <query-name>
LIG_A_1101_CCC[C@H]([R*])C1CCC1_2

>  <query-smiles>
O=C(N[C@H](C1CCC1)CCC)[C@@H](NC(=O)C)Cc2ccc(O)cc2

>  <source>
REALspace_2019-12

>  <similarity-descriptor>
0.985;1.000;1.000;1.000;0.969;0.969;0.0;0.0;1.000;1.000;1.000;1.000;1.000;1.000;0.071

>  <similarity-descriptor-smiles>
CC1CC1;c1ccccc1;O=C;N;CC;CC;;;C;N;C=O;C;C;O;O

>  <reaction-name>
s_22

>  <reagent1-name>
13441554

>  <reagent1-smiles>
[R1*]NCCC(O)C1CC1

>  <reagent2-name>
17513450

>  <reagent2-smiles>
[R1*]C(=O)C(NC(=O)C)Cc1ccc(O)cc1

$$$$
s_22____10431726____17513450
          04022015093D 1   1.00000     0.00000     0
            
 50 52  0  0  0  0            999 V2000
    0.5600    2.3347   -0.8972 O   0  0  0  0  0  0  0  0  0  0  0  0
    0.1224    1.8776    0.1224 C   0  0  0  0  0  0  0  0  0  0  0  0
   -1.1939    2.1520    0.5030 N   0  0  0  0  0  0  0  0  0  0  0  0
   -1.9367    3.1777   -0.2475 C   0  0  0  0  0  0  0  0  0  0  0  0
   -2.9301    3.9213    0.6346 C   0  0  0  0  0  0  0  0  0  0  0  0
   -3.7406    2.9779    1.5123 C   0  0  0  0  0  0  0  0  0  0  0  0
   -4.6327    3.8264    2.4044 C   0  0  0  0  0  0  0  0  0  0  0  0
   -4.3797    5.2890    2.1821 C   0  0  0  0  0  0  0  0  0  0  0  0
   -3.8500    4.6145    3.4149 C   0  0  0  0  0  0  0  0  0  0  0  0
   -2.7694    2.2369    2.4203 C   0  0  0  0  0  0  0  0  0  0  0  0
   -1.7649    1.4044    1.6356 C   0  0  0  0  0  0  0  0  0  0  0  0
    1.0000    1.0000    1.0000 C   0  0  3  0  0  0  0  0  0  0  0  0
    1.8487    0.1513    0.1513 N   0  0  0  0  0  0  0  0  0  0  0  0
    1.7598   -1.2129    0.2402 C   0  0  0  0  0  0  0  0  0  0  0  0
    0.9891   -1.7150    1.0109 O   0  0  0  0  0  0  0  0  0  0  0  0
    2.6374   -2.0905   -0.6374 C   0  0  0  0  0  0  0  0  0  0  0  0
    1.8776    1.8776    1.8776 C   0  0  0  0  0  0  0  0  0  0  0  0
    2.8824    1.0100    2.6179 C   0  0  0  0  0  0  0  0  0  0  0  0
    2.5504    0.4903    3.8647 C   0  0  0  0  0  0  0  0  0  0  0  0
    3.4664   -0.3047    4.5455 C   0  0  0  0  0  0  0  0  0  0  0  0
    4.7046   -0.5705    3.9693 C   0  0  0  0  0  0  0  0  0  0  0  0
    5.5967   -1.3413    4.6266 O   0  0  0  0  0  0  0  0  0  0  0  0
    5.0418   -0.0530    2.7228 C   0  0  0  0  0  0  0  0  0  0  0  0
    4.1218    0.7410    2.0463 C   0  0  0  0  0  0  0  0  0  0  0  0
   -2.4350    2.7349   -0.9929 H   0  0  0  0  0  0  0  0  0  0  0  0
   -1.2857    3.8355   -0.6263 H   0  0  0  0  0  0  0  0  0  0  0  0
   -2.4271    4.5550    1.2222 H   0  0  0  0  0  0  0  0  0  0  0  0
   -3.5575    4.4355    0.0498 H   0  0  0  0  0  0  0  0  0  0  0  0
   -4.2793    2.3413    0.9604 H   0  0  0  0  0  0  0  0  0  0  0  0
   -5.5549    3.5109    2.6277 H   0  0  0  0  0  0  0  0  0  0  0  0
   -5.1326    5.9432    2.2545 H   0  0  0  0  0  0  0  0  0  0  0  0
   -3.7497    5.5839    1.4637 H   0  0  0  0  0  0  0  0  0  0  0  0
   -2.8673    4.4601    3.5174 H   0  0  0  0  0  0  0  0  0  0  0  0
   -4.2501    4.8194    4.3082 H   0  0  0  0  0  0  0  0  0  0  0  0
   -3.2900    1.6303    3.0212 H   0  0  0  0  0  0  0  0  0  0  0  0
   -2.2713    2.9057    2.9723 H   0  0  0  0  0  0  0  0  0  0  0  0
   -1.0235    1.1309    2.2484 H   0  0  0  0  0  0  0  0  0  0  0  0
   -2.2254    0.5890    1.2848 H   0  0  0  0  0  0  0  0  0  0  0  0
    0.4226    0.4226    1.5774 H   0  0  0  0  0  0  0  0  0  0  0  0
    2.4909    0.5697   -0.4909 H   0  0  0  0  0  0  0  0  0  0  0  0
    3.2147   -1.5131   -1.2147 H   0  0  0  0  0  0  0  0  0  0  0  0
    3.2147   -2.6678   -0.0600 H   0  0  0  0  0  0  0  0  0  0  0  0
    2.0600   -2.6678   -1.2147 H   0  0  0  0  0  0  0  0  0  0  0  0
    2.3646    2.5386    1.3068 H   0  0  0  0  0  0  0  0  0  0  0  0
    1.3068    2.3646    2.5386 H   0  0  0  0  0  0  0  0  0  0  0  0
    1.6575    0.6873    4.2696 H   0  0  0  0  0  0  0  0  0  0  0  0
    3.2367   -0.6824    5.4424 H   0  0  0  0  0  0  0  0  0  0  0  0
    6.4879   -1.5352    4.2166 H   0  0  0  0  0  0  0  0  0  0  0  0
    5.9348   -0.2495    2.3180 H   0  0  0  0  0  0  0  0  0  0  0  0
    4.3513    1.1184    1.1492 H   0  0  0  0  0  0  0  0  0  0  0  0
  1  2  2  0  0  0  0
  2  3  1  0  0  0  0
  3  4  1  0  0  0  0
  4  5  1  0  0  0  0
  5  6  1  0  0  0  0
  6  7  1  0  0  0  0
  7  8  1  0  0  0  0
  8  9  1  0  0  0  0
  9  7  1  0  0  0  0
  6 10  1  0  0  0  0
 10 11  1  0  0  0  0
 11  3  1  0  0  0  0
  2 12  1  0  0  0  0
 12 13  1  0  0  0  0
 13 14  1  0  0  0  0
 14 15  2  0  0  0  0
 14 16  1  0  0  0  0
 12 17  1  0  0  0  0
 17 18  1  0  0  0  0
 18 19  1  0  0  0  0
 19 20  2  0  0  0  0
 20 21  1  0  0  0  0
 21 22  1  0  0  0  0
 21 23  2  0  0  0  0
 23 24  1  0  0  0  0
 24 18  2  0  0  0  0
  4 25  1  0  0  0  0
  4 26  1  0  0  0  0
  5 27  1  0  0  0  0
  5 28  1  0  0  0  0
  6 29  1  0  0  0  0
  7 30  1  0  0  0  0
  8 31  1  0  0  0  0
  8 32  1  0  0  0  0
  9 33  1  0  0  0  0
  9 34  1  0  0  0  0
 10 35  1  0  0  0  0
 10 36  1  0  0  0  0
 11 37  1  0  0  0  0
 11 38  1  0  0  0  0
 12 39  1  0  0  0  0
 13 40  1  0  0  0  0
 16 41  1  0  0  0  0
 16 42  1  0  0  0  0
 16 43  1  0  0  0  0
 17 44  1  0  0  0  0
 17 45  1  0  0  0  0
 19 46  1  0  0  0  0
 20 47  1  0  0  0  0
 22 48  1  0  0  0  0
 23 49  1  0  0  0  0
 24 50  1  0  0  0  0
M  END
>  <result-rank>
5

>  <similarity>
0.964

>  <query-name>
LIG_A_1101_CCC[C@H]([R*])C1CCC1_2

>  <query-smiles>
O=C(N[C@H](C1CCC1)CCC)[C@@H](NC(=O)C)Cc2ccc(O)cc2

>  <source>
REALspace_2019-12

>  <similarity-descriptor>
0.980;1.000;0.852;0.852;0.980;0.874;0.874;0.874;1.000;1.000;1.000;1.000;1.000;1.000;0.0

>  <similarity-descriptor-smiles>
N1CCCCC1;c1ccccc1;O=C;O=C;N1CCCCC1;C1CC1;C1CC1;C1CC1;C;N;C=O;C;C;O;

>  <reaction-name>
s_22

>  <reagent1-name>
10431726

>  <reagent1-smiles>
[R1*]N1CCC(C2CC2)CC1

>  <reagent2-name>
17513450

>  <reagent2-smiles>
[R1*]C(=O)C(NC(=O)C)Cc1ccc(O)cc1

$$$$
s_22____11950036____107332
          04022015093D 1   1.00000     0.00000     0
            
 46 48  0  0  0  0            999 V2000
    5.8957   -1.5801    4.8239 Cl  0  0  0  0  0  0  0  0  0  0  0  0
    4.7153   -0.5657    3.9604 C   0  0  0  0  0  0  0  0  0  0  0  0
    3.3544   -0.8092    4.1090 C   0  0  0  0  0  0  0  0  0  0  0  0
    2.4285   -0.0192    3.4353 C   0  0  0  0  0  0  0  0  0  0  0  0
    2.8820    1.0104    2.6176 C   0  0  0  0  0  0  0  0  0  0  0  0
    4.2428    1.2540    2.4685 C   0  0  0  0  0  0  0  0  0  0  0  0
    5.1690    0.4639    3.1423 C   0  0  0  0  0  0  0  0  0  0  0  0
    1.8776    1.8776    1.8776 C   0  0  3  0  0  0  0  0  0  0  0  0
    1.0385    2.5935    2.8494 N   0  0  0  0  0  0  0  0  0  0  0  0
    1.0211    3.9634    2.8612 C   0  0  0  0  0  0  0  0  0  0  0  0
    1.6907    4.5788    2.0783 O   0  0  0  0  0  0  0  0  0  0  0  0
    0.1535    4.7037    3.8661 C   0  0  0  0  0  0  0  0  0  0  0  0
    1.0000    1.0000    1.0000 C   0  0  0  0  0  0  0  0  0  0  0  0
    1.8776    0.1224    0.1224 C   0  0  0  0  0  0  0  0  0  0  0  0
    2.9191    0.5450   -0.2979 O   0  0  0  0  0  0  0  0  0  0  0  0
    1.4795   -1.1510   -0.1886 N   0  0  0  0  0  0  0  0  0  0  0  0
    2.3271   -1.9986   -1.0362 C   0  0  3  0  0  0  0  0  0  0  0  0
    2.7221   -3.2497   -0.2693 C   0  0  0  0  0  0  0  0  0  0  0  0
    3.4626   -4.2284   -1.1673 C   0  0  3  0  0  0  0  0  0  0  0  0
    2.5933   -5.4447   -1.3456 C   0  0  0  0  0  0  0  0  0  0  0  0
    3.2098   -6.6187   -1.3740 F   0  0  0  0  0  0  0  0  0  0  0  0
    1.3242   -5.4121   -0.9424 F   0  0  0  0  0  0  0  0  0  0  0  0
    2.9228   -4.5525   -2.5295 C   0  0  3  0  0  0  0  0  0  0  0  0
    2.5084   -3.2292   -3.1796 C   0  0  0  0  0  0  0  0  0  0  0  0
    1.6223   -2.3084   -2.3481 C   0  0  0  0  0  0  0  0  0  0  0  0
    3.0412   -1.5524    4.7003 H   0  0  0  0  0  0  0  0  0  0  0  0
    1.4484   -0.1896    3.5377 H   0  0  0  0  0  0  0  0  0  0  0  0
    4.5558    1.9971    1.8770 H   0  0  0  0  0  0  0  0  0  0  0  0
    6.1490    0.6341    3.0396 H   0  0  0  0  0  0  0  0  0  0  0  0
    2.3646    2.5386    1.3068 H   0  0  0  0  0  0  0  0  0  0  0  0
    0.4806    2.0807    3.5018 H   0  0  0  0  0  0  0  0  0  0  0  0
   -0.3335    4.0426    4.4368 H   0  0  0  0  0  0  0  0  0  0  0  0
    0.7308    5.2810    4.4434 H   0  0  0  0  0  0  0  0  0  0  0  0
   -0.5076    5.2744    3.3790 H   0  0  0  0  0  0  0  0  0  0  0  0
    0.4226    0.4226    1.5774 H   0  0  0  0  0  0  0  0  0  0  0  0
    0.4226    1.5774    0.4226 H   0  0  0  0  0  0  0  0  0  0  0  0
    0.6116   -1.5032    0.1617 H   0  0  0  0  0  0  0  0  0  0  0  0
    3.1613   -1.4889   -1.2466 H   0  0  0  0  0  0  0  0  0  0  0  0
    1.8971   -3.6904    0.0846 H   0  0  0  0  0  0  0  0  0  0  0  0
    3.3156   -2.9921    0.4932 H   0  0  0  0  0  0  0  0  0  0  0  0
    4.4390   -4.3692   -1.0036 H   0  0  0  0  0  0  0  0  0  0  0  0
    3.6412   -4.9807   -3.0778 H   0  0  0  0  0  0  0  0  0  0  0  0
    2.0147   -3.4464   -4.0216 H   0  0  0  0  0  0  0  0  0  0  0  0
    3.3434   -2.7264   -3.4030 H   0  0  0  0  0  0  0  0  0  0  0  0
    1.4573   -1.4590   -2.8492 H   0  0  0  0  0  0  0  0  0  0  0  0
    0.7499   -2.7604   -2.1618 H   0  0  0  0  0  0  0  0  0  0  0  0
  1  2  1  0  0  0  0
  2  3  1  0  0  0  0
  3  4  2  0  0  0  0
  4  5  1  0  0  0  0
  5  6  2  0  0  0  0
  6  7  1  0  0  0  0
  7  2  2  0  0  0  0
  5  8  1  0  0  0  0
  8  9  1  0  0  0  0
  9 10  1  0  0  0  0
 10 11  2  0  0  0  0
 10 12  1  0  0  0  0
  8 13  1  0  0  0  0
 13 14  1  0  0  0  0
 14 15  2  0  0  0  0
 14 16  1  0  0  0  0
 16 17  1  0  0  0  0
 17 18  1  0  0  0  0
 18 19  1  0  0  0  0
 19 20  1  0  0  0  0
 20 21  1  0  0  0  0
 20 22  1  0  0  0  0
 20 23  1  0  0  0  0
 23 19  1  0  0  0  0
 23 24  1  0  0  0  0
 24 25  1  0  0  0  0
 25 17  1  0  0  0  0
  3 26  1  0  0  0  0
  4 27  1  0  0  0  0
  6 28  1  0  0  0  0
  7 29  1  0  0  0  0
  8 30  1  0  0  0  0
  9 31  1  0  0  0  0
 12 32  1  0  0  0  0
 12 33  1  0  0  0  0
 12 34  1  0  0  0  0
 13 35  1  0  0  0  0
 13 36  1  0  0  0  0
 16 37  1  0  0  0  0
 17 38  1  0  0  0  0
 18 39  1  0  0  0  0
 18 40  1  0  0  0  0
 19 41  1  0  0  0  0
 23 42  1  0  0  0  0
 24 43  1  0  0  0  0
 24 44  1  0  0  0  0
 25 45  1  0  0  0  0
 25 46  1  0  0  0  0
M  END
>  <result-rank>
6

>  <similarity>
0.963

>  <query-name>
LIG_A_1101_CCC[C@H]([R*])C1CCC1_2

>  <query-smiles>
O=C(N[C@H](C1CCC1)CCC)[C@@H](NC(=O)C)Cc2ccc(O)cc2

>  <source>
REALspace_2019-12

>  <similarity-descriptor>
0.969;0.968;1.000;1.000;0.969;0.969;0.876;0.876;1.000;1.000;1.000;1.000;1.000;0.0;0.0

>  <similarity-descriptor-smiles>
C1CCCCC1;Clc1ccccc1;C=O;N;C1CCCCC1;C1CCCCC1;C1CC1(F)F;C1CC1(F)F;CC;N;C=O;C;CC;;

>  <reaction-name>
s_22

>  <reagent1-name>
11950036

>  <reagent1-smiles>
[R1*]NC1CC2C(F)(F)C2CC1

>  <reagent2-name>
107332

>  <reagent2-smiles>
[R1*]C(=O)CC(NC(=O)C)c1ccc(Cl)cc1

$$$$
s_22____505534____17512240
          04022015093D 1   1.00000     0.00000     0
            
 53 53  0  0  0  0            999 V2000
    0.1081    3.0659    2.5193 O   0  0  0  0  0  0  0  0  0  0  0  0
    1.2902    2.8669    2.5755 C   0  0  0  0  0  0  0  0  0  0  0  0
    1.8487    1.8487    1.8487 N   0  0  0  0  0  0  0  0  0  0  0  0
    1.0000    1.0000    1.0000 C   0  0  0  0  0  0  0  0  0  0  0  0
    0.7075    1.7208   -0.3059 C   0  0  3  0  0  0  0  0  0  0  0  0
    2.0133    2.0133   -1.0267 C   0  0  0  0  0  0  0  0  0  0  0  0
    1.7208    2.7341   -2.3325 C   0  0  0  0  0  0  0  0  0  0  0  0
    3.0267    3.0267   -3.0533 C   0  0  0  0  0  0  0  0  0  0  0  0
    2.7341    3.7475   -4.3592 C   0  0  0  0  0  0  0  0  0  0  0  0
   -0.1701    0.8432   -1.1834 C   0  0  0  0  0  0  0  0  0  0  0  0
   -1.4760    0.5507   -0.4626 C   0  0  0  0  0  0  0  0  0  0  0  0
    2.1677    3.7445    3.4531 C   0  0  3  0  0  0  0  0  0  0  0  0
    3.4306    4.0274    2.7560 N   0  0  0  0  0  0  0  0  0  0  0  0
    4.6217    3.6431    3.3134 C   0  0  0  0  0  0  0  0  0  0  0  0
    4.6340    3.0757    4.3706 O   0  0  0  0  0  0  0  0  0  0  0  0
    5.9276    3.9357    2.5926 C   0  0  0  0  0  0  0  0  0  0  0  0
    1.4469    5.0503    3.7456 C   0  0  0  0  0  0  0  0  0  0  0  0
    2.3247    5.9281    4.6234 C   0  0  0  0  0  0  0  0  0  0  0  0
    3.2158    6.8192    4.0346 C   0  0  0  0  0  0  0  0  0  0  0  0
    4.0177    7.6199    4.8414 C   0  0  0  0  0  0  0  0  0  0  0  0
    3.9240    7.5269    6.2260 C   0  0  0  0  0  0  0  0  0  0  0  0
    3.0299    6.6335    6.8031 C   0  0  0  0  0  0  0  0  0  0  0  0
    2.2231    5.8269    6.0073 C   0  0  0  0  0  0  0  0  0  0  0  0
    2.8337    1.6829    1.8955 H   0  0  0  0  0  0  0  0  0  0  0  0
    0.1409    0.8075    1.4742 H   0  0  0  0  0  0  0  0  0  0  0  0
    1.4742    0.1409    0.8075 H   0  0  0  0  0  0  0  0  0  0  0  0
    0.2333    2.5799   -0.1134 H   0  0  0  0  0  0  0  0  0  0  0  0
    2.4875    1.1542   -1.2191 H   0  0  0  0  0  0  0  0  0  0  0  0
    2.5907    2.5907   -0.4493 H   0  0  0  0  0  0  0  0  0  0  0  0
    1.2466    3.5933   -2.1401 H   0  0  0  0  0  0  0  0  0  0  0  0
    1.1435    2.1568   -2.9099 H   0  0  0  0  0  0  0  0  0  0  0  0
    3.5009    2.1675   -3.2458 H   0  0  0  0  0  0  0  0  0  0  0  0
    3.6040    3.6040   -2.4760 H   0  0  0  0  0  0  0  0  0  0  0  0
    3.5933    3.9399   -4.8334 H   0  0  0  0  0  0  0  0  0  0  0  0
    2.1568    3.1701   -4.9365 H   0  0  0  0  0  0  0  0  0  0  0  0
    2.2599    4.6066   -4.1667 H   0  0  0  0  0  0  0  0  0  0  0  0
    0.3041   -0.0159   -1.3759 H   0  0  0  0  0  0  0  0  0  0  0  0
   -0.3625    1.3175   -2.0425 H   0  0  0  0  0  0  0  0  0  0  0  0
   -2.0533   -0.0266   -1.0400 H   0  0  0  0  0  0  0  0  0  0  0  0
   -1.2835    0.0765    0.3965 H   0  0  0  0  0  0  0  0  0  0  0  0
   -1.9502    1.4098   -0.2702 H   0  0  0  0  0  0  0  0  0  0  0  0
    2.3602    3.2702    4.3122 H   0  0  0  0  0  0  0  0  0  0  0  0
    3.4204    4.5003    1.8749 H   0  0  0  0  0  0  0  0  0  0  0  0
    5.7351    4.4099    1.7334 H   0  0  0  0  0  0  0  0  0  0  0  0
    6.5049    4.5130    3.1699 H   0  0  0  0  0  0  0  0  0  0  0  0
    6.4018    3.0766    2.4001 H   0  0  0  0  0  0  0  0  0  0  0  0
    1.2545    5.5245    2.8865 H   0  0  0  0  0  0  0  0  0  0  0  0
    0.5878    4.8579    4.2198 H   0  0  0  0  0  0  0  0  0  0  0  0
    3.2795    6.8838    3.0387 H   0  0  0  0  0  0  0  0  0  0  0  0
    4.6616    8.2624    4.4259 H   0  0  0  0  0  0  0  0  0  0  0  0
    4.5000    8.1029    6.8061 H   0  0  0  0  0  0  0  0  0  0  0  0
    2.9659    6.5698    7.7990 H   0  0  0  0  0  0  0  0  0  0  0  0
    1.5798    5.1843    6.4234 H   0  0  0  0  0  0  0  0  0  0  0  0
  1  2  2  0  0  0  0
  2  3  1  0  0  0  0
  3  4  1  0  0  0  0
  4  5  1  0  0  0  0
  5  6  1  0  0  0  0
  6  7  1  0  0  0  0
  7  8  1  0  0  0  0
  8  9  1  0  0  0  0
  5 10  1  0  0  0  0
 10 11  1  0  0  0  0
  2 12  1  0  0  0  0
 12 13  1  0  0  0  0
 13 14  1  0  0  0  0
 14 15  2  0  0  0  0
 14 16  1  0  0  0  0
 12 17  1  0  0  0  0
 17 18  1  0  0  0  0
 18 19  1  0  0  0  0
 19 20  2  0  0  0  0
 20 21  1  0  0  0  0
 21 22  2  0  0  0  0
 22 23  1  0  0  0  0
 23 18  2  0  0  0  0
  3 24  1  0  0  0  0
  4 25  1  0  0  0  0
  4 26  1  0  0  0  0
  5 27  1  0  0  0  0
  6 28  1  0  0  0  0
  6 29  1  0  0  0  0
  7 30  1  0  0  0  0
  7 31  1  0  0  0  0
  8 32  1  0  0  0  0
  8 33  1  0  0  0  0
  9 34  1  0  0  0  0
  9 35  1  0  0  0  0
  9 36  1  0  0  0  0
 10 37  1  0  0  0  0
 10 38  1  0  0  0  0
 11 39  1  0  0  0  0
 11 40  1  0  0  0  0
 11 41  1  0  0  0  0
 12 42  1  0  0  0  0
 13 43  1  0  0  0  0
 16 44  1  0  0  0  0
 16 45  1  0  0  0  0
 16 46  1  0  0  0  0
 17 47  1  0  0  0  0
 17 48  1  0  0  0  0
 19 49  1  0  0  0  0
 20 50  1  0  0  0  0
 21 51  1  0  0  0  0
 22 52  1  0  0  0  0
 23 53  1  0  0  0  0
M  END
>  <result-rank>
7

>  <similarity>
0.962

>  <query-name>
LIG_A_1101_CCC[C@H]([R*])C1CCC1_2

>  <query-smiles>
O=C(N[C@H](C1CCC1)CCC)[C@@H](NC(=O)C)Cc2ccc(O)cc2

>  <source>
REALspace_2019-12

>  <similarity-descriptor>
0.880;0.960;1.000;1.000;1.000;1.000;1.000;1.000;1.000;1.000;1.000;1.000;1.000;0.0;0.0

>  <similarity-descriptor-smiles>
CCCC;c1ccccc1;O=C;N;CC;CC;C;C;C;N;C=O;C;C;;

>  <reaction-name>
s_22

>  <reagent1-name>
505534

>  <reagent1-smiles>
[R1*]NCC(CCCC)CC

>  <reagent2-name>
17512240

>  <reagent2-smiles>
[R1*]C(=O)C(NC(=O)C)Cc1ccccc1

$$$$
s_22____17608280____16887748
          04022015093D 1   1.00000     0.00000     0
            
 63 65  0  0  0  0            999 V2000
    5.0852   -0.8125    2.1672 O   0  0  0  0  0  0  0  0  0  0  0  0
    3.9789   -0.3536    2.2411 C   0  0  0  0  0  0  0  0  0  0  0  0
    3.5034    0.0977    3.4441 N   0  0  0  0  0  0  0  0  0  0  0  0
    4.3491    0.0198    4.6451 C   0  0  3  0  0  0  0  0  0  0  0  0
    4.5475    1.4342    5.1767 C   0  0  0  0  0  0  0  0  0  0  0  0
    5.0465    1.5272    6.6154 C   0  0  0  0  0  0  0  0  0  0  0  0
    3.9541    1.4509    7.6810 C   0  0  0  0  0  0  0  0  0  0  0  0
    4.2296    2.1858    8.9591 C   0  0  0  0  0  0  0  0  0  0  0  0
    3.3897    2.8256    7.8870 C   0  0  0  0  0  0  0  0  0  0  0  0
    3.0170    0.2556    7.7990 C   0  0  0  0  0  0  0  0  0  0  0  0
    2.5846   -0.3193    6.4594 C   0  0  0  0  0  0  0  0  0  0  0  0
    3.7563   -0.9149    5.6899 C   0  0  0  0  0  0  0  0  0  0  0  0
    3.1050   -0.2731    1.0000 C   0  0  3  0  0  0  0  0  0  0  0  0
    2.3700    1.0000    1.0000 N   0  0  0  0  0  0  0  0  0  0  0  0
    1.0000    1.0000    1.0000 C   0  0  0  0  0  0  0  0  0  0  0  0
    0.4000   -0.0392    1.0000 O   0  0  0  0  0  0  0  0  0  0  0  0
    0.2400    2.3164    1.0000 C   0  0  0  0  0  0  0  0  0  0  0  0
   -1.1561    2.0569    1.0000 O   0  0  0  0  0  0  0  0  0  0  0  0
   -1.8661    3.2866    1.0000 C   0  0  0  0  0  0  0  0  0  0  0  0
   -3.3605    3.0089    1.0000 C   0  0  0  0  0  0  0  0  0  0  0  0
   -1.4989    4.0837    2.2411 C   0  0  0  0  0  0  0  0  0  0  0  0
    3.9789   -0.3536   -0.2411 C   0  0  0  0  0  0  0  0  0  0  0  0
    3.1050   -0.2731   -1.4822 C   0  0  0  0  0  0  0  0  0  0  0  0
    2.8226    0.9691   -2.0410 C   0  0  0  0  0  0  0  0  0  0  0  0
    2.0241    1.0476   -3.1770 C   0  0  0  0  0  0  0  0  0  0  0  0
    1.5177   -0.1192   -3.7409 C   0  0  0  0  0  0  0  0  0  0  0  0
    0.7420   -0.0476   -4.8432 O   0  0  0  0  0  0  0  0  0  0  0  0
    1.7968   -1.3640   -3.1858 C   0  0  0  0  0  0  0  0  0  0  0  0
    2.5962   -1.4366   -2.0500 C   0  0  0  0  0  0  0  0  0  0  0  0
    2.5815    0.4801    3.5057 H   0  0  0  0  0  0  0  0  0  0  0  0
    5.2421   -0.3402    4.3751 H   0  0  0  0  0  0  0  0  0  0  0  0
    3.6697    1.9102    5.1230 H   0  0  0  0  0  0  0  0  0  0  0  0
    5.2128    1.8945    4.5888 H   0  0  0  0  0  0  0  0  0  0  0  0
    5.6861    0.7746    6.7717 H   0  0  0  0  0  0  0  0  0  0  0  0
    5.5249    2.3988    6.7226 H   0  0  0  0  0  0  0  0  0  0  0  0
    5.1481    2.5328    9.1487 H   0  0  0  0  0  0  0  0  0  0  0  0
    3.8054    1.8821    9.8122 H   0  0  0  0  0  0  0  0  0  0  0  0
    2.4071    2.9471    8.0272 H   0  0  0  0  0  0  0  0  0  0  0  0
    3.7498    3.5978    7.3636 H   0  0  0  0  0  0  0  0  0  0  0  0
    2.1993    0.5439    8.2972 H   0  0  0  0  0  0  0  0  0  0  0  0
    3.4852   -0.4625    8.3140 H   0  0  0  0  0  0  0  0  0  0  0  0
    2.1759    0.4106    5.9115 H   0  0  0  0  0  0  0  0  0  0  0  0
    1.9057   -1.0359    6.6195 H   0  0  0  0  0  0  0  0  0  0  0  0
    4.4746   -1.1514    6.3442 H   0  0  0  0  0  0  0  0  0  0  0  0
    3.4404   -1.7435    5.2277 H   0  0  0  0  0  0  0  0  0  0  0  0
    2.4552   -1.0331    1.0000 H   0  0  0  0  0  0  0  0  0  0  0  0
    2.8700    1.8660    1.0000 H   0  0  0  0  0  0  0  0  0  0  0  0
    0.4816    2.8407    1.8165 H   0  0  0  0  0  0  0  0  0  0  0  0
    0.4816    2.8407    0.1835 H   0  0  0  0  0  0  0  0  0  0  0  0
   -1.6245    3.8110    0.1835 H   0  0  0  0  0  0  0  0  0  0  0  0
   -3.8605    3.8749    1.0000 H   0  0  0  0  0  0  0  0  0  0  0  0
   -3.6021    2.4845    0.1835 H   0  0  0  0  0  0  0  0  0  0  0  0
   -3.6021    2.4845    1.8165 H   0  0  0  0  0  0  0  0  0  0  0  0
   -1.9989    4.9497    2.2411 H   0  0  0  0  0  0  0  0  0  0  0  0
   -1.7405    3.5593    3.0576 H   0  0  0  0  0  0  0  0  0  0  0  0
   -0.5157    4.2664    2.2411 H   0  0  0  0  0  0  0  0  0  0  0  0
    4.6287    0.4065   -0.2411 H   0  0  0  0  0  0  0  0  0  0  0  0
    4.4789   -1.2196   -0.2411 H   0  0  0  0  0  0  0  0  0  0  0  0
    3.1920    1.8015   -1.6279 H   0  0  0  0  0  0  0  0  0  0  0  0
    1.8154    1.9361   -3.5856 H   0  0  0  0  0  0  0  0  0  0  0  0
    0.3758   -0.8835   -5.2521 H   0  0  0  0  0  0  0  0  0  0  0  0
    1.4271   -2.1964   -3.5984 H   0  0  0  0  0  0  0  0  0  0  0  0
    2.8052   -2.3252   -1.6416 H   0  0  0  0  0  0  0  0  0  0  0  0
  1  2  2  0  0  0  0
  2  3  1  0  0  0  0
  3  4  1  0  0  0  0
  4  5  1  0  0  0  0
  5  6  1  0  0  0  0
  6  7  1  0  0  0  0
  7  8  1  0  0  0  0
  8  9  1  0  0  0  0
  9  7  1  0  0  0  0
  7 10  1  0  0  0  0
 10 11  1  0  0  0  0
 11 12  1  0  0  0  0
 12  4  1  0  0  0  0
  2 13  1  0  0  0  0
 13 14  1  0  0  0  0
 14 15  1  0  0  0  0
 15 16  2  0  0  0  0
 15 17  1  0  0  0  0
 17 18  1  0  0  0  0
 18 19  1  0  0  0  0
 19 20  1  0  0  0  0
 19 21  1  0  0  0  0
 13 22  1  0  0  0  0
 22 23  1  0  0  0  0
 23 24  1  0  0  0  0
 24 25  2  0  0  0  0
 25 26  1  0  0  0  0
 26 27  1  0  0  0  0
 26 28  2  0  0  0  0
 28 29  1  0  0  0  0
 29 23  2  0  0  0  0
  3 30  1  0  0  0  0
  4 31  1  0  0  0  0
  5 32  1  0  0  0  0
  5 33  1  0  0  0  0
  6 34  1  0  0  0  0
  6 35  1  0  0  0  0
  8 36  1  0  0  0  0
  8 37  1  0  0  0  0
  9 38  1  0  0  0  0
  9 39  1  0  0  0  0
 10 40  1  0  0  0  0
 10 41  1  0  0  0  0
 11 42  1  0  0  0  0
 11 43  1  0  0  0  0
 12 44  1  0  0  0  0
 12 45  1  0  0  0  0
 13 46  1  0  0  0  0
 14 47  1  0  0  0  0
 17 48  1  0  0  0  0
 17 49  1  0  0  0  0
 19 50  1  0  0  0  0
 20 51  1  0  0  0  0
 20 52  1  0  0  0  0
 20 53  1  0  0  0  0
 21 54  1  0  0  0  0
 21 55  1  0  0  0  0
 21 56  1  0  0  0  0
 22 57  1  0  0  0  0
 22 58  1  0  0  0  0
 24 59  1  0  0  0  0
 25 60  1  0  0  0  0
 27 61  1  0  0  0  0
 28 62  1  0  0  0  0
 29 63  1  0  0  0  0
M  END
>  <result-rank>
8

>  <similarity>
0.961

>  <query-name>
LIG_A_1101_CCC[C@H]([R*])C1CCC1_2

>  <query-smiles>
O=C(N[C@H](C1CCC1)CCC)[C@@H](NC(=O)C)Cc2ccc(O)cc2

>  <source>
REALspace_2019-12

>  <similarity-descriptor>
0.986;1.000;1.000;1.000;0.986;0.986;0.888;0.888;1.000;1.000;1.000;0.956;1.000;1.000;0.267

>  <similarity-descriptor-smiles>
C1CCCCCC1;c1ccccc1;O=C;N;C1CCCCCC1;C1CCCCCC1;C1CC1;C1CC1;C;N;C=O;C;C;O;O.C.C.C

>  <reaction-name>
s_22

>  <reagent1-name>
17608280

>  <reagent1-smiles>
[R1*]NC1CCC2(CC2)CCC1

>  <reagent2-name>
16887748

>  <reagent2-smiles>
[R1*]C(=O)C(NC(=O)COC(C)C)Cc1ccc(O)cc1

$$$$
s_240690a____16508828____17513472
          04022015093D 1   1.00000     0.00000     0
            
 50 51  0  0  0  0            999 V2000
    0.4000   -0.0392    1.0000 O   0  0  0  0  0  0  0  0  0  0  0  0
    1.0000    1.0000    1.0000 C   0  0  0  0  0  0  0  0  0  0  0  0
    2.3700    1.0000    1.0000 N   0  0  0  0  0  0  0  0  0  0  0  0
    3.1050   -0.2731    1.0000 C   0  0  0  0  0  0  0  0  0  0  0  0
    4.6039    0.0055    1.0000 C   0  0  0  0  0  0  0  0  0  0  0  0
    5.0095    0.7486   -0.1371 O   0  0  0  0  0  0  0  0  0  0  0  0
    5.1722    0.5653    2.2916 C   0  0  0  0  0  0  0  0  0  0  0  0
    5.3585   -0.8718    2.7399 C   0  0  3  0  0  0  0  0  0  0  0  0
    6.6563   -1.0600    3.5100 C   0  0  0  0  0  0  0  0  0  0  0  0
    6.7842   -2.4664    3.9184 N   0  3  0  0  0  0  0  0  0  0  0  0
    5.4878   -1.1945    1.2651 C   0  0  0  0  0  0  0  0  0  0  0  0
    0.2400    2.3164    1.0000 C   0  0  3  0  0  0  0  0  0  0  0  0
   -1.2052    2.0477    1.0000 N   0  0  0  0  0  0  0  0  0  0  0  0
   -1.9871    2.5058    2.0275 C   0  0  0  0  0  0  0  0  0  0  0  0
   -1.4922    3.1263    2.9275 O   0  0  0  0  0  0  0  0  0  0  0  0
   -3.4815    2.2281    2.0275 C   0  0  0  0  0  0  0  0  0  0  0  0
    0.6072    3.1134   -0.2411 C   0  0  0  0  0  0  0  0  0  0  0  0
   -0.1528    4.4298   -0.2411 C   0  0  0  0  0  0  0  0  0  0  0  0
    0.4132    5.5469    0.3644 C   0  0  0  0  0  0  0  0  0  0  0  0
   -0.2782    6.7537    0.3662 C   0  0  0  0  0  0  0  0  0  0  0  0
   -1.5287    6.8280   -0.2391 C   0  0  0  0  0  0  0  0  0  0  0  0
   -2.2034    7.9972   -0.2393 O   0  0  0  0  0  0  0  0  0  0  0  0
   -2.0995    5.7138   -0.8457 C   0  0  0  0  0  0  0  0  0  0  0  0
   -1.4035    4.5097   -0.8449 C   0  0  0  0  0  0  0  0  0  0  0  0
    7.6376   -2.5901    4.4247 H   0  0  0  0  0  0  0  0  0  0  0  0
    6.0113   -2.7157    4.5018 H   0  0  0  0  0  0  0  0  0  0  0  0
    6.7908   -3.0500    3.1063 H   0  0  0  0  0  0  0  0  0  0  0  0
    2.8700    1.8660    1.0000 H   0  0  0  0  0  0  0  0  0  0  0  0
    2.8634   -0.7974    0.1835 H   0  0  0  0  0  0  0  0  0  0  0  0
    2.8634   -0.7974    1.8165 H   0  0  0  0  0  0  0  0  0  0  0  0
    5.9958    0.9082   -0.0966 H   0  0  0  0  0  0  0  0  0  0  0  0
    4.5242    1.0942    2.8396 H   0  0  0  0  0  0  0  0  0  0  0  0
    6.0205    1.0841    2.1856 H   0  0  0  0  0  0  0  0  0  0  0  0
    4.5558   -1.2733    3.1808 H   0  0  0  0  0  0  0  0  0  0  0  0
    7.4292   -0.8107    2.9266 H   0  0  0  0  0  0  0  0  0  0  0  0
    6.6497   -0.4764    4.3220 H   0  0  0  0  0  0  0  0  0  0  0  0
    6.4158   -1.1188    0.9005 H   0  0  0  0  0  0  0  0  0  0  0  0
    5.0934   -2.0723    0.9932 H   0  0  0  0  0  0  0  0  0  0  0  0
    0.4816    2.8407    1.8165 H   0  0  0  0  0  0  0  0  0  0  0  0
   -1.6177    1.5307    0.2500 H   0  0  0  0  0  0  0  0  0  0  0  0
   -3.7231    1.7037    1.2110 H   0  0  0  0  0  0  0  0  0  0  0  0
   -3.7231    1.7037    2.8440 H   0  0  0  0  0  0  0  0  0  0  0  0
   -3.9815    3.0941    2.0275 H   0  0  0  0  0  0  0  0  0  0  0  0
    1.5904    3.2961   -0.2411 H   0  0  0  0  0  0  0  0  0  0  0  0
    0.3656    2.5890   -1.0576 H   0  0  0  0  0  0  0  0  0  0  0  0
    1.3129    5.4826    0.7963 H   0  0  0  0  0  0  0  0  0  0  0  0
    0.1206    7.5620    0.7993 H   0  0  0  0  0  0  0  0  0  0  0  0
   -3.1025    8.0555   -0.6731 H   0  0  0  0  0  0  0  0  0  0  0  0
   -2.9994    5.7778   -1.2771 H   0  0  0  0  0  0  0  0  0  0  0  0
   -1.8020    3.7014   -1.2783 H   0  0  0  0  0  0  0  0  0  0  0  0
  1  2  2  0  0  0  0
  2  3  1  0  0  0  0
  3  4  1  0  0  0  0
  4  5  1  0  0  0  0
  5  6  1  0  0  0  0
  5  7  1  0  0  0  0
  7  8  1  0  0  0  0
  8  9  1  0  0  0  0
  9 10  1  0  0  0  0
  8 11  1  0  0  0  0
 11  5  1  0  0  0  0
  2 12  1  0  0  0  0
 12 13  1  0  0  0  0
 13 14  1  0  0  0  0
 14 15  2  0  0  0  0
 14 16  1  0  0  0  0
 12 17  1  0  0  0  0
 17 18  1  0  0  0  0
 18 19  1  0  0  0  0
 19 20  2  0  0  0  0
 20 21  1  0  0  0  0
 21 22  1  0  0  0  0
 21 23  2  0  0  0  0
 23 24  1  0  0  0  0
 24 18  2  0  0  0  0
 10 25  1  0  0  0  0
 10 26  1  0  0  0  0
 10 27  1  0  0  0  0
  3 28  1  0  0  0  0
  4 29  1  0  0  0  0
  4 30  1  0  0  0  0
  6 31  1  0  0  0  0
  7 32  1  0  0  0  0
  7 33  1  0  0  0  0
  8 34  1  0  0  0  0
  9 35  1  0  0  0  0
  9 36  1  0  0  0  0
 11 37  1  0  0  0  0
 11 38  1  0  0  0  0
 12 39  1  0  0  0  0
 13 40  1  0  0  0  0
 16 41  1  0  0  0  0
 16 42  1  0  0  0  0
 16 43  1  0  0  0  0
 17 44  1  0  0  0  0
 17 45  1  0  0  0  0
 19 46  1  0  0  0  0
 20 47  1  0  0  0  0
 22 48  1  0  0  0  0
 23 49  1  0  0  0  0
 24 50  1  0  0  0  0
M  CHG  1  10   1
M  END
>  <result-rank>
9

>  <similarity>
0.960

>  <query-name>
LIG_A_1101_CCC[C@H]([R*])C1CCC1_2

>  <query-smiles>
O=C(N[C@H](C1CCC1)CCC)[C@@H](NC(=O)C)Cc2ccc(O)cc2

>  <source>
REALspace_2019-12

>  <similarity-descriptor>
0.986;1.000;1.000;1.000;0.932;0.0;0.0;0.0;1.000;1.000;1.000;1.000;1.000;1.000;0.143

>  <similarity-descriptor-smiles>
C1CC(C1)C;c1ccccc1;O=C;N;C;;;;C;N;C=O;C;C;O;O.[NH3+]

>  <reaction-name>
s_240690a

>  <reagent1-name>
16508828

>  <reagent1-smiles>
[R1*]NCC1(O)CC(CN)C1

>  <reagent2-name>
17513472

>  <reagent2-smiles>
[R1*]C(=O)C(NC(=O)C)Cc1ccc(O)cc1

$$$$
s_22____12206138____59117
          04022015093D 1   1.00000     0.00000     0
            
 57 58  0  0  0  0            999 V2000
    3.9272    2.8352    0.7118 O   0  0  0  0  0  0  0  0  0  0  0  0
    2.9767    2.2411    0.2835 C   0  0  0  0  0  0  0  0  0  0  0  0
    2.3756    2.6621   -0.8017 O   0  0  0  0  0  0  0  0  0  0  0  0
    2.8490    3.8216   -1.4711 C   0  0  0  0  0  0  0  0  0  0  0  0
    2.4700    1.0000    1.0000 C   0  0  3  0  0  0  0  0  0  0  0  0
    1.0000    1.0000    1.0000 N   0  0  0  0  0  0  0  0  0  0  0  0
    0.3150    1.0000    2.1865 C   0  0  0  0  0  0  0  0  0  0  0  0
    0.9150    1.0000    3.2257 O   0  0  0  0  0  0  0  0  0  0  0  0
   -1.2044    1.0000    2.1865 C   0  0  3  0  0  0  0  0  0  0  0  0
   -1.7280   -0.2360    1.4728 C   0  0  0  0  0  0  0  0  0  0  0  0
   -3.2487   -0.2488    1.4680 C   0  0  0  0  0  0  0  0  0  0  0  0
   -3.7612   -0.2170    2.8991 C   0  0  3  0  0  0  0  0  0  0  0  0
   -5.2807   -0.2246    2.9051 C   0  0  0  0  0  0  0  0  0  0  0  0
   -5.7819   -0.1926    4.3397 C   0  0  0  0  0  0  0  0  0  0  0  0
   -5.7964    0.9964    2.1610 C   0  0  0  0  0  0  0  0  0  0  0  0
   -5.7839   -1.4850    2.2206 C   0  0  0  0  0  0  0  0  0  0  0  0
   -3.2435    1.0167    3.6204 C   0  0  0  0  0  0  0  0  0  0  0  0
   -1.7232    1.0225    3.6153 C   0  0  0  0  0  0  0  0  0  0  0  0
    2.9767   -0.2411    0.2835 C   0  0  0  0  0  0  0  0  0  0  0  0
    4.4971   -0.2411    0.2835 C   0  0  0  0  0  0  0  0  0  0  0  0
    5.1926   -0.8436    1.3271 C   0  0  0  0  0  0  0  0  0  0  0  0
    4.5331   -1.4322    2.3479 O   0  0  0  0  0  0  0  0  0  0  0  0
    6.5840   -0.8435    1.3273 C   0  0  0  0  0  0  0  0  0  0  0  0
    7.2796   -0.2412    0.2834 C   0  0  0  0  0  0  0  0  0  0  0  0
    6.5837    0.3606   -0.7603 C   0  0  0  0  0  0  0  0  0  0  0  0
    5.1926    0.3600   -0.7604 C   0  0  0  0  0  0  0  0  0  0  0  0
    2.2791    3.9992   -2.2734 H   0  0  0  0  0  0  0  0  0  0  0  0
    2.8057    4.6052   -0.8514 H   0  0  0  0  0  0  0  0  0  0  0  0
    3.7954    3.6767   -1.7598 H   0  0  0  0  0  0  0  0  0  0  0  0
    2.8033    1.0000    1.9428 H   0  0  0  0  0  0  0  0  0  0  0  0
    0.5000    1.0000    0.1340 H   0  0  0  0  0  0  0  0  0  0  0  0
   -1.5306    1.8154    1.7082 H   0  0  0  0  0  0  0  0  0  0  0  0
   -1.3942   -1.0530    1.9431 H   0  0  0  0  0  0  0  0  0  0  0  0
   -1.3966   -0.2357    0.5294 H   0  0  0  0  0  0  0  0  0  0  0  0
   -3.5870    0.5527    0.9750 H   0  0  0  0  0  0  0  0  0  0  0  0
   -3.5735   -1.0797    1.0161 H   0  0  0  0  0  0  0  0  0  0  0  0
   -3.4328   -1.0316    3.3773 H   0  0  0  0  0  0  0  0  0  0  0  0
   -6.7819   -0.1976    4.3437 H   0  0  0  0  0  0  0  0  0  0  0  0
   -5.4426   -0.9959    4.8293 H   0  0  0  0  0  0  0  0  0  0  0  0
   -5.4509    0.6366    4.7901 H   0  0  0  0  0  0  0  0  0  0  0  0
   -6.7964    0.9915    2.1649 H   0  0  0  0  0  0  0  0  0  0  0  0
   -5.4654    1.8256    2.6113 H   0  0  0  0  0  0  0  0  0  0  0  0
   -5.4667    0.9754    1.2171 H   0  0  0  0  0  0  0  0  0  0  0  0
   -6.7838   -1.4899    2.2245 H   0  0  0  0  0  0  0  0  0  0  0  0
   -5.4541   -1.5060    1.2767 H   0  0  0  0  0  0  0  0  0  0  0  0
   -5.4446   -2.2883    2.7101 H   0  0  0  0  0  0  0  0  0  0  0  0
   -3.5714    1.0100    4.5651 H   0  0  0  0  0  0  0  0  0  0  0  0
   -3.5793    1.8367    3.1568 H   0  0  0  0  0  0  0  0  0  0  0  0
   -1.3942    1.8482    4.0735 H   0  0  0  0  0  0  0  0  0  0  0  0
   -1.3880    0.2154    4.1014 H   0  0  0  0  0  0  0  0  0  0  0  0
    2.6433   -1.0576    0.7549 H   0  0  0  0  0  0  0  0  0  0  0  0
    2.6433   -0.2411   -0.6593 H   0  0  0  0  0  0  0  0  0  0  0  0
    5.0446   -1.8619    3.0921 H   0  0  0  0  0  0  0  0  0  0  0  0
    7.0840   -1.2761    2.0775 H   0  0  0  0  0  0  0  0  0  0  0  0
    8.2796   -0.2409    0.2833 H   0  0  0  0  0  0  0  0  0  0  0  0
    7.0835    0.7935   -1.5105 H   0  0  0  0  0  0  0  0  0  0  0  0
    4.6925    0.7919   -1.5110 H   0  0  0  0  0  0  0  0  0  0  0  0
  1  2  2  0  0  0  0
  2  3  1  0  0  0  0
  3  4  1  0  0  0  0
  2  5  1  0  0  0  0
  5  6  1  0  0  0  0
  6  7  1  0  0  0  0
  7  8  2  0  0  0  0
  7  9  1  0  0  0  0
  9 10  1  0  0  0  0
 10 11  1  0  0  0  0
 11 12  1  0  0  0  0
 12 13  1  0  0  0  0
 13 14  1  0  0  0  0
 13 15  1  0  0  0  0
 13 16  1  0  0  0  0
 12 17  1  0  0  0  0
 17 18  1  0  0  0  0
 18  9  1  0  0  0  0
  5 19  1  0  0  0  0
 19 20  1  0  0  0  0
 20 21  1  0  0  0  0
 21 22  1  0  0  0  0
 21 23  2  0  0  0  0
 23 24  1  0  0  0  0
 24 25  2  0  0  0  0
 25 26  1  0  0  0  0
 26 20  2  0  0  0  0
  4 27  1  0  0  0  0
  4 28  1  0  0  0  0
  4 29  1  0  0  0  0
  5 30  1  0  0  0  0
  6 31  1  0  0  0  0
  9 32  1  0  0  0  0
 10 33  1  0  0  0  0
 10 34  1  0  0  0  0
 11 35  1  0  0  0  0
 11 36  1  0  0  0  0
 12 37  1  0  0  0  0
 14 38  1  0  0  0  0
 14 39  1  0  0  0  0
 14 40  1  0  0  0  0
 15 41  1  0  0  0  0
 15 42  1  0  0  0  0
 15 43  1  0  0  0  0
 16 44  1  0  0  0  0
 16 45  1  0  0  0  0
 16 46  1  0  0  0  0
 17 47  1  0  0  0  0
 17 48  1  0  0  0  0
 18 49  1  0  0  0  0
 18 50  1  0  0  0  0
 19 51  1  0  0  0  0
 19 52  1  0  0  0  0
 22 53  1  0  0  0  0
 23 54  1  0  0  0  0
 24 55  1  0  0  0  0
 25 56  1  0  0  0  0
 26 57  1  0  0  0  0
M  END
>  <result-rank>
10

>  <similarity>
0.960

>  <query-name>
LIG_A_1101_CCC[C@H]([R*])C1CCC1_2

>  <query-smiles>
O=C(N[C@H](C1CCC1)CCC)[C@@H](NC(=O)C)Cc2ccc(O)cc2

>  <source>
REALspace_2019-12

>  <similarity-descriptor>
0.999;1.000;0.852;0.852;0.999;0.999;0.964;0.964;1.000;1.000;0.855;0.994;1.000;1.000;0.071

>  <similarity-descriptor-smiles>
C1CCCCC1;c1ccccc1;C=O;C=O;C1CCCCC1;C1CCCCC1;C(C)C;C(C)C;CN;CN;O=CO;C;C;O;C

>  <reaction-name>
s_22

>  <reagent1-name>
12206138

>  <reagent1-smiles>
[R1*]NC(C(=O)OC)Cc1c(O)cccc1

>  <reagent2-name>
59117

>  <reagent2-smiles>
[R1*]C(=O)C1CCC(C(C)(C)C)CC1

$$$$
s_527a____3701384____17057110
          04022015093D 1   1.00000     0.00000     0
            
 62 63  0  0  0  0            999 V2000
    0.3056    2.8514   -0.2902 O   0  0  0  0  0  0  0  0  0  0  0  0
    0.7075    1.7208   -0.3059 C   0  0  0  0  0  0  0  0  0  0  0  0
    0.9068    1.0660   -1.5264 N   0  0  0  0  0  0  0  0  0  0  0  0
    1.0533    1.8798   -2.7434 C   0  0  0  0  0  0  0  0  0  0  0  0
    0.4864    1.1679   -3.9624 C   0  0  0  0  0  0  0  0  0  0  0  0
    0.9088   -0.2413   -4.0216 N   0  3  3  0  0  0  0  0  0  0  0  0
    0.2675   -0.8327   -5.2047 C   0  0  0  0  0  0  0  0  0  0  0  0
    0.4661   -2.3396   -5.1886 C   0  0  3  0  0  0  0  0  0  0  0  0
    1.8551   -2.6341   -5.2062 O   0  0  0  0  0  0  0  0  0  0  0  0
   -0.1971   -2.9511   -6.4119 C   0  0  0  0  0  0  0  0  0  0  0  0
    0.3955   -0.9664   -2.8473 C   0  0  0  0  0  0  0  0  0  0  0  0
    0.9491   -0.4051   -1.5458 C   0  0  0  0  0  0  0  0  0  0  0  0
    1.0000    1.0000    1.0000 C   0  0  3  0  0  0  0  0  0  0  0  0
    1.8487    1.8487    1.8487 N   0  0  0  0  0  0  0  0  0  0  0  0
    3.0831    1.4052    2.2442 C   0  0  0  0  0  0  0  0  0  0  0  0
    3.4002    0.2638    2.0530 O   0  0  0  0  0  0  0  0  0  0  0  0
    4.0511    2.3591    2.9251 C   0  0  0  0  0  0  0  0  0  0  0  0
    4.1963    1.9744    4.3885 C   0  0  0  0  0  0  0  0  0  0  0  0
    5.1643    2.9282    5.0694 C   0  0  0  0  0  0  0  0  0  0  0  0
    2.8405    2.0559    5.0707 C   0  0  0  0  0  0  0  0  0  0  0  0
   -0.3059    0.7075    1.7208 C   0  0  0  0  0  0  0  0  0  0  0  0
   -0.1561   -0.5602    2.5461 C   0  0  0  0  0  0  0  0  0  0  0  0
   -0.4624   -1.7901    1.9731 C   0  0  0  0  0  0  0  0  0  0  0  0
   -0.3262   -2.9527    2.7243 C   0  0  0  0  0  0  0  0  0  0  0  0
    0.1159   -2.8702    4.0409 C   0  0  0  0  0  0  0  0  0  0  0  0
    0.2492   -3.9960    4.7736 O   0  0  0  0  0  0  0  0  0  0  0  0
    0.4233   -1.6427    4.6189 C   0  0  0  0  0  0  0  0  0  0  0  0
    0.2856   -0.4834    3.8630 C   0  0  0  0  0  0  0  0  0  0  0  0
    1.9044   -0.3143   -4.0802 H   0  0  0  0  0  0  0  0  0  0  0  0
    2.0244    2.0630   -2.8966 H   0  0  0  0  0  0  0  0  0  0  0  0
    0.5669    2.7442   -2.6166 H   0  0  0  0  0  0  0  0  0  0  0  0
   -0.5122    1.2047   -3.9228 H   0  0  0  0  0  0  0  0  0  0  0  0
    0.8047    1.6357   -4.7869 H   0  0  0  0  0  0  0  0  0  0  0  0
    0.6786   -0.4511   -6.0325 H   0  0  0  0  0  0  0  0  0  0  0  0
   -0.7107   -0.6253   -5.1923 H   0  0  0  0  0  0  0  0  0  0  0  0
    0.0549   -2.7212   -4.3608 H   0  0  0  0  0  0  0  0  0  0  0  0
    1.9858   -3.6255   -5.1956 H   0  0  0  0  0  0  0  0  0  0  0  0
   -1.1753   -2.7437   -6.3995 H   0  0  0  0  0  0  0  0  0  0  0  0
    0.2141   -2.5695   -7.2398 H   0  0  0  0  0  0  0  0  0  0  0  0
   -0.0664   -3.9425   -6.4014 H   0  0  0  0  0  0  0  0  0  0  0  0
    0.6576   -1.9286   -2.9217 H   0  0  0  0  0  0  0  0  0  0  0  0
   -0.6017   -0.8928   -2.8326 H   0  0  0  0  0  0  0  0  0  0  0  0
    0.4041   -0.7552   -0.7840 H   0  0  0  0  0  0  0  0  0  0  0  0
    1.8979   -0.7035   -1.4418 H   0  0  0  0  0  0  0  0  0  0  0  0
    1.4742    0.1409    0.8075 H   0  0  0  0  0  0  0  0  0  0  0  0
    1.5250    2.7498    2.1374 H   0  0  0  0  0  0  0  0  0  0  0  0
    3.7004    3.2932    2.8592 H   0  0  0  0  0  0  0  0  0  0  0  0
    4.9431    2.3055    2.4763 H   0  0  0  0  0  0  0  0  0  0  0  0
    4.5471    1.0403    4.4543 H   0  0  0  0  0  0  0  0  0  0  0  0
    5.2599    2.6752    6.0321 H   0  0  0  0  0  0  0  0  0  0  0  0
    6.0563    2.8746    4.6205 H   0  0  0  0  0  0  0  0  0  0  0  0
    4.8136    3.8624    5.0035 H   0  0  0  0  0  0  0  0  0  0  0  0
    2.9361    1.8028    6.0334 H   0  0  0  0  0  0  0  0  0  0  0  0
    2.4898    2.9900    5.0048 H   0  0  0  0  0  0  0  0  0  0  0  0
    2.2037    1.4283    4.6227 H   0  0  0  0  0  0  0  0  0  0  0  0
   -0.5327    1.4727    2.3233 H   0  0  0  0  0  0  0  0  0  0  0  0
   -1.0367    0.5838    1.0495 H   0  0  0  0  0  0  0  0  0  0  0  0
   -0.7790   -1.8381    1.0258 H   0  0  0  0  0  0  0  0  0  0  0  0
   -0.5443   -3.8414    2.3210 H   0  0  0  0  0  0  0  0  0  0  0  0
    0.5666   -3.9418    5.7203 H   0  0  0  0  0  0  0  0  0  0  0  0
    0.7394   -1.5945    5.5664 H   0  0  0  0  0  0  0  0  0  0  0  0
    0.5041    0.4053    4.2662 H   0  0  0  0  0  0  0  0  0  0  0  0
  1  2  2  0  0  0  0
  2  3  1  0  0  0  0
  3  4  1  0  0  0  0
  4  5  1  0  0  0  0
  5  6  1  0  0  0  0
  6  7  1  0  0  0  0
  7  8  1  0  0  0  0
  8  9  1  0  0  0  0
  8 10  1  0  0  0  0
  6 11  1  0  0  0  0
 11 12  1  0  0  0  0
 12  3  1  0  0  0  0
  2 13  1  0  0  0  0
 13 14  1  0  0  0  0
 14 15  1  0  0  0  0
 15 16  2  0  0  0  0
 15 17  1  0  0  0  0
 17 18  1  0  0  0  0
 18 19  1  0  0  0  0
 18 20  1  0  0  0  0
 13 21  1  0  0  0  0
 21 22  1  0  0  0  0
 22 23  1  0  0  0  0
 23 24  2  0  0  0  0
 24 25  1  0  0  0  0
 25 26  1  0  0  0  0
 25 27  2  0  0  0  0
 27 28  1  0  0  0  0
 28 22  2  0  0  0  0
  6 29  1  0  0  0  0
  4 30  1  0  0  0  0
  4 31  1  0  0  0  0
  5 32  1  0  0  0  0
  5 33  1  0  0  0  0
  7 34  1  0  0  0  0
  7 35  1  0  0  0  0
  8 36  1  0  0  0  0
  9 37  1  0  0  0  0
 10 38  1  0  0  0  0
 10 39  1  0  0  0  0
 10 40  1  0  0  0  0
 11 41  1  0  0  0  0
 11 42  1  0  0  0  0
 12 43  1  0  0  0  0
 12 44  1  0  0  0  0
 13 45  1  0  0  0  0
 14 46  1  0  0  0  0
 17 47  1  0  0  0  0
 17 48  1  0  0  0  0
 18 49  1  0  0  0  0
 19 50  1  0  0  0  0
 19 51  1  0  0  0  0
 19 52  1  0  0  0  0
 20 53  1  0  0  0  0
 20 54  1  0  0  0  0
 20 55  1  0  0  0  0
 21 56  1  0  0  0  0
 21 57  1  0  0  0  0
 23 58  1  0  0  0  0
 24 59  1  0  0  0  0
 26 60  1  0  0  0  0
 27 61  1  0  0  0  0
 28 62  1  0  0  0  0
M  CHG  1   6   1
M  END
>  <result-rank>
11

>  <similarity>
0.960

>  <query-name>
LIG_A_1101_CCC[C@H]([R*])C1CCC1_2

>  <query-smiles>
O=C(N[C@H](C1CCC1)CCC)[C@@H](NC(=O)C)Cc2ccc(O)cc2

>  <source>
REALspace_2019-12

>  <similarity-descriptor>
0.951;1.000;1.000;0.951;0.951;0.976;0.976;1.000;1.000;1.000;1.000;0.949;1.000;1.000;0.250

>  <similarity-descriptor-smiles>
N1CC[NH+]CC1;c1ccccc1;O=C;N1CC[NH+]CC1;N1CC[NH+]CC1;CC;CC;C;C;N;C=O;C;C;O;O.C.C.C

>  <reaction-name>
s_527a

>  <reagent1-name>
3701384

>  <reagent1-smiles>
[R1*]N1CCN(CC(O)C)CC1

>  <reagent2-name>
17057110

>  <reagent2-smiles>
[R1*]C(=O)C(NC(=O)CC(C)C)Cc1ccc(O)cc1

$$$$
s_22____14174274____13217084
          04022015093D 1   1.00000     0.00000     0
            
 51 52  0  0  0  0            999 V2000
    7.2285   -1.4228    2.3274 F   0  0  0  0  0  0  0  0  0  0  0  0
    6.5593   -0.8477    1.3326 C   0  0  0  0  0  0  0  0  0  0  0  0
    7.2608   -0.2478    0.2912 C   0  0  0  0  0  0  0  0  0  0  0  0
    8.6113   -0.2515    0.2959 O   0  0  0  0  0  0  0  0  0  0  0  0
    6.5828    0.3592   -0.7609 C   0  0  0  0  0  0  0  0  0  0  0  0
    5.1918    0.3601   -0.7605 C   0  0  0  0  0  0  0  0  0  0  0  0
    4.4963   -0.2411    0.2835 C   0  0  0  0  0  0  0  0  0  0  0  0
    5.1688   -0.8496    1.3375 C   0  0  0  0  0  0  0  0  0  0  0  0
    2.9767   -0.2411    0.2835 C   0  0  0  0  0  0  0  0  0  0  0  0
    2.4700    1.0000    1.0000 C   0  0  3  0  0  0  0  0  0  0  0  0
    1.0000    1.0000    1.0000 N   0  0  0  0  0  0  0  0  0  0  0  0
    0.3150    1.0000    2.1865 C   0  0  0  0  0  0  0  0  0  0  0  0
    0.9150    1.0000    3.2257 O   0  0  0  0  0  0  0  0  0  0  0  0
   -1.2048    1.0000    2.1865 C   0  0  3  0  0  0  0  0  0  0  0  0
   -1.7241    0.1226    1.1408 N   0  3  3  0  0  0  0  0  0  0  0  0
   -1.6250   -1.2891    1.5439 C   0  0  0  0  0  0  0  0  0  0  0  0
   -2.4308   -1.5113    2.8135 C   0  0  0  0  0  0  0  0  0  0  0  0
   -2.1731   -2.1723    0.4349 C   0  0  0  0  0  0  0  0  0  0  0  0
   -3.1221    0.5465    1.0429 C   0  0  0  0  0  0  0  0  0  0  0  0
   -3.0131    2.0564    1.0349 C   0  0  0  0  0  0  0  0  0  0  0  0
   -1.7100    2.3582    1.7497 C   0  0  0  0  0  0  0  0  0  0  0  0
    2.9767    2.2411    0.2835 C   0  0  0  0  0  0  0  0  0  0  0  0
    3.9272    2.8352    0.7118 O   0  0  0  0  0  0  0  0  0  0  0  0
    2.3756    2.6621   -0.8017 O   0  0  0  0  0  0  0  0  0  0  0  0
    2.8490    3.8216   -1.4711 C   0  0  0  0  0  0  0  0  0  0  0  0
   -1.2452    0.2789    0.2770 H   0  0  0  0  0  0  0  0  0  0  0  0
    9.1151    0.1796   -0.4526 H   0  0  0  0  0  0  0  0  0  0  0  0
    7.0892    0.7896   -1.5082 H   0  0  0  0  0  0  0  0  0  0  0  0
    4.6918    0.7929   -1.5107 H   0  0  0  0  0  0  0  0  0  0  0  0
    4.6623   -1.2802    2.0845 H   0  0  0  0  0  0  0  0  0  0  0  0
    2.6433   -1.0576    0.7549 H   0  0  0  0  0  0  0  0  0  0  0  0
    2.6433   -0.2411   -0.6593 H   0  0  0  0  0  0  0  0  0  0  0  0
    2.8033    1.0000    1.9428 H   0  0  0  0  0  0  0  0  0  0  0  0
    0.5000    1.0000    0.1340 H   0  0  0  0  0  0  0  0  0  0  0  0
   -1.5677    0.7493    3.0839 H   0  0  0  0  0  0  0  0  0  0  0  0
   -0.6670   -1.5213    1.7122 H   0  0  0  0  0  0  0  0  0  0  0  0
   -2.3635   -2.4707    3.0874 H   0  0  0  0  0  0  0  0  0  0  0  0
   -2.0702   -0.9302    3.5431 H   0  0  0  0  0  0  0  0  0  0  0  0
   -3.3888   -1.2791    2.6452 H   0  0  0  0  0  0  0  0  0  0  0  0
   -2.1058   -3.1317    0.7088 H   0  0  0  0  0  0  0  0  0  0  0  0
   -3.1311   -1.9402    0.2666 H   0  0  0  0  0  0  0  0  0  0  0  0
   -1.6430   -2.0261   -0.4004 H   0  0  0  0  0  0  0  0  0  0  0  0
   -3.6514    0.2275    1.8291 H   0  0  0  0  0  0  0  0  0  0  0  0
   -3.5423    0.2110    0.1998 H   0  0  0  0  0  0  0  0  0  0  0  0
   -3.7843    2.4673    1.5211 H   0  0  0  0  0  0  0  0  0  0  0  0
   -2.9880    2.4023    0.0969 H   0  0  0  0  0  0  0  0  0  0  0  0
   -1.0587    2.7968    1.1304 H   0  0  0  0  0  0  0  0  0  0  0  0
   -1.8677    2.9494    2.5407 H   0  0  0  0  0  0  0  0  0  0  0  0
    2.2791    3.9992   -2.2734 H   0  0  0  0  0  0  0  0  0  0  0  0
    2.8057    4.6052   -0.8514 H   0  0  0  0  0  0  0  0  0  0  0  0
    3.7954    3.6767   -1.7598 H   0  0  0  0  0  0  0  0  0  0  0  0
  1  2  1  0  0  0  0
  2  3  1  0  0  0  0
  3  4  1  0  0  0  0
  3  5  2  0  0  0  0
  5  6  1  0  0  0  0
  6  7  2  0  0  0  0
  7  8  1  0  0  0  0
  8  2  2  0  0  0  0
  7  9  1  0  0  0  0
  9 10  1  0  0  0  0
 10 11  1  0  0  0  0
 11 12  1  0  0  0  0
 12 13  2  0  0  0  0
 12 14  1  0  0  0  0
 14 15  1  0  0  0  0
 15 16  1  0  0  0  0
 16 17  1  0  0  0  0
 16 18  1  0  0  0  0
 15 19  1  0  0  0  0
 19 20  1  0  0  0  0
 20 21  1  0  0  0  0
 21 14  1  0  0  0  0
 10 22  1  0  0  0  0
 22 23  2  0  0  0  0
 22 24  1  0  0  0  0
 24 25  1  0  0  0  0
 15 26  1  0  0  0  0
  4 27  1  0  0  0  0
  5 28  1  0  0  0  0
  6 29  1  0  0  0  0
  8 30  1  0  0  0  0
  9 31  1  0  0  0  0
  9 32  1  0  0  0  0
 10 33  1  0  0  0  0
 11 34  1  0  0  0  0
 14 35  1  0  0  0  0
 16 36  1  0  0  0  0
 17 37  1  0  0  0  0
 17 38  1  0  0  0  0
 17 39  1  0  0  0  0
 18 40  1  0  0  0  0
 18 41  1  0  0  0  0
 18 42  1  0  0  0  0
 19 43  1  0  0  0  0
 19 44  1  0  0  0  0
 20 45  1  0  0  0  0
 20 46  1  0  0  0  0
 21 47  1  0  0  0  0
 21 48  1  0  0  0  0
 25 49  1  0  0  0  0
 25 50  1  0  0  0  0
 25 51  1  0  0  0  0
M  CHG  1  15   1
M  END
>  <result-rank>
12

>  <similarity>
0.959

>  <query-name>
LIG_A_1101_CCC[C@H]([R*])C1CCC1_2

>  <query-smiles>
O=C(N[C@H](C1CCC1)CCC)[C@@H](NC(=O)C)Cc2ccc(O)cc2

>  <source>
REALspace_2019-12

>  <similarity-descriptor>
0.928;0.965;1.000;0.928;0.928;0.995;0.995;1.000;1.000;1.000;0.855;0.994;1.000;1.000;0.0

>  <similarity-descriptor-smiles>
C1CCC[NH+]1;Fc1ccccc1;C=O;C1CCC[NH+]1;C1CCC[NH+]1;CC;CC;C;CN;CN;C(=O)O;C;C;O;

>  <reaction-name>
s_22

>  <reagent1-name>
14174274

>  <reagent1-smiles>
[R1*]NC(C(=O)OC)Cc1cc(F)c(O)cc1

>  <reagent2-name>
13217084

>  <reagent2-smiles>
[R1*]C(=O)C1N(C(C)C)CCC1

$$$$
s_240690a____9111858____17513472
          04022015093D 1   1.00000     0.00000     0
            
 52 53  0  0  0  0            999 V2000
    0.4000    1.0000   -0.0392 O   0  0  0  0  0  0  0  0  0  0  0  0
    1.0000    1.0000    1.0000 C   0  0  0  0  0  0  0  0  0  0  0  0
    0.3005    1.0000    2.2116 N   0  0  0  0  0  0  0  0  0  0  0  0
   -1.1701    1.0000    2.1752 C   0  0  0  0  0  0  0  0  0  0  0  0
   -1.7483    1.7660    3.3553 C   0  0  3  0  0  0  0  0  0  0  0  0
   -1.1059    1.3700    4.6185 N   0  3  0  0  0  0  0  0  0  0  0  0
    0.3149    1.7510    4.5689 C   0  0  0  0  0  0  0  0  0  0  0  0
    1.0583    1.0019    3.4733 C   0  0  0  0  0  0  0  0  0  0  0  0
   -3.2441    1.5010    3.4069 C   0  0  0  0  0  0  0  0  0  0  0  0
   -3.8785    1.9194    2.0905 C   0  0  0  0  0  0  0  0  0  0  0  0
   -3.4883    0.0187    3.6385 C   0  0  0  0  0  0  0  0  0  0  0  0
    2.5200    1.0000    1.0000 C   0  0  3  0  0  0  0  0  0  0  0  0
    3.0100    1.6930   -0.2002 N   0  0  0  0  0  0  0  0  0  0  0  0
    3.2383    3.0434   -0.1663 C   0  0  0  0  0  0  0  0  0  0  0  0
    3.0383    3.6605    0.8432 O   0  0  0  0  0  0  0  0  0  0  0  0
    3.7450    3.7599   -1.4074 C   0  0  0  0  0  0  0  0  0  0  0  0
    3.0267   -0.4331    1.0000 C   0  0  0  0  0  0  0  0  0  0  0  0
    4.5467   -0.4331    1.0000 C   0  0  0  0  0  0  0  0  0  0  0  0
    5.2311   -0.4331    2.2110 C   0  0  0  0  0  0  0  0  0  0  0  0
    6.6219   -0.4338    2.2159 C   0  0  0  0  0  0  0  0  0  0  0  0
    7.3116   -0.4351    1.0075 C   0  0  0  0  0  0  0  0  0  0  0  0
    8.7316   -0.4355    1.0077 O   0  0  0  0  0  0  0  0  0  0  0  0
    6.6320   -0.4347   -0.2063 C   0  0  0  0  0  0  0  0  0  0  0  0
    5.2412   -0.4344   -0.2053 C   0  0  0  0  0  0  0  0  0  0  0  0
   -1.1843    0.3804    4.7394 H   0  0  0  0  0  0  0  0  0  0  0  0
   -1.5522    1.8356    5.3827 H   0  0  0  0  0  0  0  0  0  0  0  0
   -1.4974    0.0556    2.2072 H   0  0  0  0  0  0  0  0  0  0  0  0
   -1.4756    1.4301    1.3257 H   0  0  0  0  0  0  0  0  0  0  0  0
   -1.5986    2.7440    3.2098 H   0  0  0  0  0  0  0  0  0  0  0  0
    0.7381    1.5409    5.4502 H   0  0  0  0  0  0  0  0  0  0  0  0
    0.3814    2.7332    4.3930 H   0  0  0  0  0  0  0  0  0  0  0  0
    1.9427    1.4430    3.3206 H   0  0  0  0  0  0  0  0  0  0  0  0
    1.2034    0.0569    3.7667 H   0  0  0  0  0  0  0  0  0  0  0  0
   -3.6501    2.0265    4.1545 H   0  0  0  0  0  0  0  0  0  0  0  0
   -4.8626    1.7450    2.1245 H   0  0  0  0  0  0  0  0  0  0  0  0
   -3.7179    2.8946    1.9382 H   0  0  0  0  0  0  0  0  0  0  0  0
   -3.4725    1.3939    1.3429 H   0  0  0  0  0  0  0  0  0  0  0  0
   -4.4724   -0.1557    3.6725 H   0  0  0  0  0  0  0  0  0  0  0  0
   -3.0823   -0.5068    2.8909 H   0  0  0  0  0  0  0  0  0  0  0  0
   -3.0709   -0.2566    4.5045 H   0  0  0  0  0  0  0  0  0  0  0  0
    2.8533    1.4714    1.8165 H   0  0  0  0  0  0  0  0  0  0  0  0
    3.1767    1.1787   -1.0415 H   0  0  0  0  0  0  0  0  0  0  0  0
    3.8561    3.1005   -2.1510 H   0  0  0  0  0  0  0  0  0  0  0  0
    3.0863    4.4614   -1.6796 H   0  0  0  0  0  0  0  0  0  0  0  0
    4.6259    4.1892   -1.2082 H   0  0  0  0  0  0  0  0  0  0  0  0
    2.6933   -0.9045    1.8165 H   0  0  0  0  0  0  0  0  0  0  0  0
    2.6933   -0.9045    0.1835 H   0  0  0  0  0  0  0  0  0  0  0  0
    4.7256   -0.4325    3.0738 H   0  0  0  0  0  0  0  0  0  0  0  0
    7.1226   -0.4335    3.0815 H   0  0  0  0  0  0  0  0  0  0  0  0
    9.2317   -0.4364    0.1417 H   0  0  0  0  0  0  0  0  0  0  0  0
    7.1374   -0.4347   -1.0692 H   0  0  0  0  0  0  0  0  0  0  0  0
    4.7405   -0.4351   -1.0710 H   0  0  0  0  0  0  0  0  0  0  0  0
  1  2  2  0  0  0  0
  2  3  1  0  0  0  0
  3  4  1  0  0  0  0
  4  5  1  0  0  0  0
  5  6  1  0  0  0  0
  6  7  1  0  0  0  0
  7  8  1  0  0  0  0
  8  3  1  0  0  0  0
  5  9  1  0  0  0  0
  9 10  1  0  0  0  0
  9 11  1  0  0  0  0
  2 12  1  0  0  0  0
 12 13  1  0  0  0  0
 13 14  1  0  0  0  0
 14 15  2  0  0  0  0
 14 16  1  0  0  0  0
 12 17  1  0  0  0  0
 17 18  1  0  0  0  0
 18 19  1  0  0  0  0
 19 20  2  0  0  0  0
 20 21  1  0  0  0  0
 21 22  1  0  0  0  0
 21 23  2  0  0  0  0
 23 24  1  0  0  0  0
 24 18  2  0  0  0  0
  6 25  1  0  0  0  0
  6 26  1  0  0  0  0
  4 27  1  0  0  0  0
  4 28  1  0  0  0  0
  5 29  1  0  0  0  0
  7 30  1  0  0  0  0
  7 31  1  0  0  0  0
  8 32  1  0  0  0  0
  8 33  1  0  0  0  0
  9 34  1  0  0  0  0
 10 35  1  0  0  0  0
 10 36  1  0  0  0  0
 10 37  1  0  0  0  0
 11 38  1  0  0  0  0
 11 39  1  0  0  0  0
 11 40  1  0  0  0  0
 12 41  1  0  0  0  0
 13 42  1  0  0  0  0
 16 43  1  0  0  0  0
 16 44  1  0  0  0  0
 16 45  1  0  0  0  0
 17 46  1  0  0  0  0
 17 47  1  0  0  0  0
 19 48  1  0  0  0  0
 20 49  1  0  0  0  0
 22 50  1  0  0  0  0
 23 51  1  0  0  0  0
 24 52  1  0  0  0  0
M  CHG  1   6   1
M  END
>  <result-rank>
13

>  <similarity>
0.959

>  <query-name>
LIG_A_1101_CCC[C@H]([R*])C1CCC1_2

>  <query-smiles>
O=C(N[C@H](C1CCC1)CCC)[C@@H](NC(=O)C)Cc2ccc(O)cc2

>  <source>
REALspace_2019-12

>  <similarity-descriptor>
0.836;1.000;1.000;0.836;0.836;0.998;0.998;1.000;1.000;1.000;1.000;1.000;1.000;1.000;0.0

>  <similarity-descriptor-smiles>
N1CC[NH2+]CC1;c1ccccc1;O=C;N1CC[NH2+]CC1;N1CC[NH2+]CC1;CC;CC;C;C;N;C=O;C;C;O;

>  <reaction-name>
s_240690a

>  <reagent1-name>
9111858

>  <reagent1-smiles>
[R1*]N1CC(NCC1)C(C)C

>  <reagent2-name>
17513472

>  <reagent2-smiles>
[R1*]C(=O)C(NC(=O)C)Cc1ccc(O)cc1

$$$$
s_527a____2308540____217437
          04022015093D 1   1.00000     0.00000     0
            
 52 53  0  0  0  0            999 V2000
   -1.6377    5.4521    7.7313 F   0  0  0  0  0  0  0  0  0  0  0  0
   -1.4147    5.1609    6.4529 C   0  0  0  0  0  0  0  0  0  0  0  0
   -1.5989    6.2496    5.7115 F   0  0  0  0  0  0  0  0  0  0  0  0
    0.0144    4.6705    6.2867 C   0  0  0  0  0  0  0  0  0  0  0  0
    0.2608    4.3486    4.8738 N   0  3  0  0  0  0  0  0  0  0  0  0
    1.7207    4.2753    4.6974 C   0  0  0  0  0  0  0  0  0  0  0  0
    2.1023    3.8992    3.2736 C   0  0  0  0  0  0  0  0  0  0  0  0
    1.2920    2.7763    2.7763 N   0  0  0  0  0  0  0  0  0  0  0  0
    1.8776    1.8776    1.8776 C   0  0  0  0  0  0  0  0  0  0  0  0
    3.0725    1.7997    1.7997 O   0  0  0  0  0  0  0  0  0  0  0  0
    1.0000    1.0000    1.0000 C   0  0  0  0  0  0  0  0  0  0  0  0
    0.7075    1.7208   -0.3059 C   0  0  3  0  0  0  0  0  0  0  0  0
   -0.5184    2.5190   -0.1610 N   0  0  0  0  0  0  0  0  0  0  0  0
   -0.4439    3.8164    0.2726 C   0  0  0  0  0  0  0  0  0  0  0  0
    0.6222    4.3012    0.5343 O   0  0  0  0  0  0  0  0  0  0  0  0
   -1.7115    4.6417    0.4224 C   0  0  0  0  0  0  0  0  0  0  0  0
    0.5195    0.7004   -1.4167 C   0  0  0  0  0  0  0  0  0  0  0  0
   -0.7511    0.1969   -1.6756 C   0  0  0  0  0  0  0  0  0  0  0  0
   -0.9280   -0.7364   -2.6916 C   0  0  0  0  0  0  0  0  0  0  0  0
    0.1698   -1.1543   -3.4372 C   0  0  0  0  0  0  0  0  0  0  0  0
   -0.0061   -2.1072   -4.4752 O   0  0  0  0  0  0  0  0  0  0  0  0
    1.1100   -2.5381   -5.2400 C   0  0  0  0  0  0  0  0  0  0  0  0
    1.4426   -0.6541   -3.1821 C   0  0  0  0  0  0  0  0  0  0  0  0
    1.6137    0.2792   -2.1653 C   0  0  0  0  0  0  0  0  0  0  0  0
   -0.1013    2.5562    3.1963 C   0  0  0  0  0  0  0  0  0  0  0  0
   -0.3396    3.0276    4.6233 C   0  0  0  0  0  0  0  0  0  0  0  0
   -0.1377    5.0424    4.2739 H   0  0  0  0  0  0  0  0  0  0  0  0
   -2.0488    4.4459    6.1584 H   0  0  0  0  0  0  0  0  0  0  0  0
    0.6485    5.3855    6.5812 H   0  0  0  0  0  0  0  0  0  0  0  0
    0.1529    3.8519    6.8441 H   0  0  0  0  0  0  0  0  0  0  0  0
    2.0877    3.5868    5.3229 H   0  0  0  0  0  0  0  0  0  0  0  0
    2.1176    5.1674    4.9134 H   0  0  0  0  0  0  0  0  0  0  0  0
    1.9600    4.6907    2.6793 H   0  0  0  0  0  0  0  0  0  0  0  0
    3.0672    3.6371    3.2544 H   0  0  0  0  0  0  0  0  0  0  0  0
    0.1409    0.8075    1.4742 H   0  0  0  0  0  0  0  0  0  0  0  0
    1.4742    0.1409    0.8075 H   0  0  0  0  0  0  0  0  0  0  0  0
    1.4727    2.3233   -0.5327 H   0  0  0  0  0  0  0  0  0  0  0  0
   -1.4068    2.1149   -0.3790 H   0  0  0  0  0  0  0  0  0  0  0  0
   -2.5027    4.0873    0.1643 H   0  0  0  0  0  0  0  0  0  0  0  0
   -1.8069    4.9365    1.3732 H   0  0  0  0  0  0  0  0  0  0  0  0
   -1.6588    5.4443   -0.1717 H   0  0  0  0  0  0  0  0  0  0  0  0
   -1.5334    0.5044   -1.1339 H   0  0  0  0  0  0  0  0  0  0  0  0
   -1.8376   -1.1042   -2.8848 H   0  0  0  0  0  0  0  0  0  0  0  0
    0.8094   -3.2047   -5.9221 H   0  0  0  0  0  0  0  0  0  0  0  0
    1.5218   -1.7520   -5.7009 H   0  0  0  0  0  0  0  0  0  0  0  0
    1.7850   -2.9612   -4.6355 H   0  0  0  0  0  0  0  0  0  0  0  0
    2.2251   -0.9619   -3.7234 H   0  0  0  0  0  0  0  0  0  0  0  0
    2.5232    0.6474   -1.9723 H   0  0  0  0  0  0  0  0  0  0  0  0
   -0.3067    1.5792    3.1391 H   0  0  0  0  0  0  0  0  0  0  0  0
   -0.7085    3.0609    2.5825 H   0  0  0  0  0  0  0  0  0  0  0  0
   -1.3249    3.0847    4.7845 H   0  0  0  0  0  0  0  0  0  0  0  0
    0.0635    2.3646    5.2542 H   0  0  0  0  0  0  0  0  0  0  0  0
  1  2  1  0  0  0  0
  2  3  1  0  0  0  0
  2  4  1  0  0  0  0
  4  5  1  0  0  0  0
  5  6  1  0  0  0  0
  6  7  1  0  0  0  0
  7  8  1  0  0  0  0
  8  9  1  0  0  0  0
  9 10  2  0  0  0  0
  9 11  1  0  0  0  0
 11 12  1  0  0  0  0
 12 13  1  0  0  0  0
 13 14  1  0  0  0  0
 14 15  2  0  0  0  0
 14 16  1  0  0  0  0
 12 17  1  0  0  0  0
 17 18  1  0  0  0  0
 18 19  2  0  0  0  0
 19 20  1  0  0  0  0
 20 21  1  0  0  0  0
 21 22  1  0  0  0  0
 20 23  2  0  0  0  0
 23 24  1  0  0  0  0
 24 17  2  0  0  0  0
  8 25  1  0  0  0  0
 25 26  1  0  0  0  0
 26  5  1  0  0  0  0
  5 27  1  0  0  0  0
  2 28  1  0  0  0  0
  4 29  1  0  0  0  0
  4 30  1  0  0  0  0
  6 31  1  0  0  0  0
  6 32  1  0  0  0  0
  7 33  1  0  0  0  0
  7 34  1  0  0  0  0
 11 35  1  0  0  0  0
 11 36  1  0  0  0  0
 12 37  1  0  0  0  0
 13 38  1  0  0  0  0
 16 39  1  0  0  0  0
 16 40  1  0  0  0  0
 16 41  1  0  0  0  0
 18 42  1  0  0  0  0
 19 43  1  0  0  0  0
 22 44  1  0  0  0  0
 22 45  1  0  0  0  0
 22 46  1  0  0  0  0
 23 47  1  0  0  0  0
 24 48  1  0  0  0  0
 25 49  1  0  0  0  0
 25 50  1  0  0  0  0
 26 51  1  0  0  0  0
 26 52  1  0  0  0  0
M  CHG  1   5   1
M  END
>  <result-rank>
14

>  <similarity>
0.958

>  <query-name>
LIG_A_1101_CCC[C@H]([R*])C1CCC1_2

>  <query-smiles>
O=C(N[C@H](C1CCC1)CCC)[C@@H](NC(=O)C)Cc2ccc(O)cc2

>  <source>
REALspace_2019-12

>  <similarity-descriptor>
0.951;1.000;1.000;0.951;0.951;0.956;0.956;0.0;1.000;1.000;1.000;1.000;1.000;0.704;0.083

>  <similarity-descriptor-smiles>
[NH+]1CCNCC1;c1ccccc1;C=O;[NH+]1CCNCC1;[NH+]1CCNCC1;FC(F)C;FC(F)C;;CC;N;C=O;C;CC;O;C

>  <reaction-name>
s_527a

>  <reagent1-name>
2308540

>  <reagent1-smiles>
[R1*]N1CCN(CC(F)F)CC1

>  <reagent2-name>
217437

>  <reagent2-smiles>
[R1*]C(=O)CC(NC(=O)C)c1ccc(OC)cc1

$$$$
s_22____17611684____12624298
          04022015093D 1   1.00000     0.00000     0
            
 40 42  0  0  0  0            999 V2000
   -3.7298    2.8980    2.8227 Br  0  0  0  0  0  0  0  0  0  0  0  0
   -2.4193    1.4646    2.5602 C   0  0  0  0  0  0  0  0  0  0  0  0
   -1.2259    1.7360    1.9001 C   0  0  0  0  0  0  0  0  0  0  0  0
   -0.3061    0.7074    1.7209 C   0  0  0  0  0  0  0  0  0  0  0  0
   -0.5660   -0.5755    2.1906 C   0  0  0  0  0  0  0  0  0  0  0  0
   -1.7663   -0.8254    2.8476 C   0  0  0  0  0  0  0  0  0  0  0  0
   -2.6994    0.1886    3.0373 C   0  0  0  0  0  0  0  0  0  0  0  0
    1.0000    1.0000    1.0000 C   0  0  3  0  0  0  0  0  0  0  0  0
    0.7171    1.6971   -0.2629 N   0  0  0  0  0  0  0  0  0  0  0  0
    1.1013    1.1397   -1.4540 C   0  0  0  0  0  0  0  0  0  0  0  0
    1.6688    0.0825   -1.4663 O   0  0  0  0  0  0  0  0  0  0  0  0
    0.8088    1.8605   -2.7598 C   0  0  0  0  0  0  0  0  0  0  0  0
    1.8776    1.8776    1.8776 C   0  0  0  0  0  0  0  0  0  0  0  0
    2.7694    1.3883    2.5142 O   0  0  0  0  0  0  0  0  0  0  0  0
    1.6504    3.2271    1.9417 N   0  0  0  0  0  0  0  0  0  0  0  0
    2.4983    4.0750    2.7896 C   0  0  3  0  0  0  0  0  0  0  0  0
    1.6918    4.7956    3.8564 C   0  0  3  0  0  0  0  0  0  0  0  0
    1.4350    4.0029    4.8915 F   0  0  0  0  0  0  0  0  0  0  0  0
    2.6019    5.9506    4.2275 C   0  0  0  0  0  0  0  0  0  0  0  0
    3.2042    6.4241    2.9200 C   0  0  3  0  0  0  0  0  0  0  0  0
    3.1338    5.2212    2.0248 C   0  0  3  0  0  0  0  0  0  0  0  0
    2.5546    6.5303    1.5654 C   0  0  0  0  0  0  0  0  0  0  0  0
   -1.0318    2.6560    1.5594 H   0  0  0  0  0  0  0  0  0  0  0  0
    0.1011   -1.3086    2.0577 H   0  0  0  0  0  0  0  0  0  0  0  0
   -1.9608   -1.7454    3.1879 H   0  0  0  0  0  0  0  0  0  0  0  0
   -3.5605    0.0024    3.5105 H   0  0  0  0  0  0  0  0  0  0  0  0
    1.4742    0.1409    0.8075 H   0  0  0  0  0  0  0  0  0  0  0  0
    0.2442    2.5782   -0.2526 H   0  0  0  0  0  0  0  0  0  0  0  0
    0.3346    2.7197   -2.5674 H   0  0  0  0  0  0  0  0  0  0  0  0
    1.6679    2.0530   -3.2340 H   0  0  0  0  0  0  0  0  0  0  0  0
    0.2314    1.2832   -3.3372 H   0  0  0  0  0  0  0  0  0  0  0  0
    0.9072    3.6348    1.4112 H   0  0  0  0  0  0  0  0  0  0  0  0
    3.2096    3.5195    3.2203 H   0  0  0  0  0  0  0  0  0  0  0  0
    0.8379    5.1414    3.4674 H   0  0  0  0  0  0  0  0  0  0  0  0
    3.3197    5.6437    4.8525 H   0  0  0  0  0  0  0  0  0  0  0  0
    2.0773    6.6853    4.6575 H   0  0  0  0  0  0  0  0  0  0  0  0
    4.1067    6.8481    2.9948 H   0  0  0  0  0  0  0  0  0  0  0  0
    4.0034    4.9868    1.5902 H   0  0  0  0  0  0  0  0  0  0  0  0
    1.5634    6.6410    1.4931 H   0  0  0  0  0  0  0  0  0  0  0  0
    3.0019    7.0465    0.8351 H   0  0  0  0  0  0  0  0  0  0  0  0
  1  2  1  0  0  0  0
  2  3  1  0  0  0  0
  3  4  2  0  0  0  0
  4  5  1  0  0  0  0
  5  6  2  0  0  0  0
  6  7  1  0  0  0  0
  7  2  2  0  0  0  0
  4  8  1  0  0  0  0
  8  9  1  0  0  0  0
  9 10  1  0  0  0  0
 10 11  2  0  0  0  0
 10 12  1  0  0  0  0
  8 13  1  0  0  0  0
 13 14  2  0  0  0  0
 13 15  1  0  0  0  0
 15 16  1  0  0  0  0
 16 17  1  0  0  0  0
 17 18  1  0  0  0  0
 17 19  1  0  0  0  0
 19 20  1  0  0  0  0
 20 21  1  0  0  0  0
 21 16  1  0  0  0  0
 21 22  1  0  0  0  0
 22 20  1  0  0  0  0
  3 23  1  0  0  0  0
  5 24  1  0  0  0  0
  6 25  1  0  0  0  0
  7 26  1  0  0  0  0
  8 27  1  0  0  0  0
  9 28  1  0  0  0  0
 12 29  1  0  0  0  0
 12 30  1  0  0  0  0
 12 31  1  0  0  0  0
 15 32  1  0  0  0  0
 16 33  1  0  0  0  0
 17 34  1  0  0  0  0
 19 35  1  0  0  0  0
 19 36  1  0  0  0  0
 20 37  1  0  0  0  0
 21 38  1  0  0  0  0
 22 39  1  0  0  0  0
 22 40  1  0  0  0  0
M  END
>  <result-rank>
15

>  <similarity>
0.957

>  <query-name>
LIG_A_1101_CCC[C@H]([R*])C1CCC1_2

>  <query-smiles>
O=C(N[C@H](C1CCC1)CCC)[C@@H](NC(=O)C)Cc2ccc(O)cc2

>  <source>
REALspace_2019-12

>  <similarity-descriptor>
0.966;0.969;1.000;1.000;0.966;0.829;0.829;0.829;1.000;1.000;1.000;1.000;0.969;0.0;0.0

>  <similarity-descriptor-smiles>
C1CCCC1F;Brc1ccccc1;C=O;N;C1CCCC1F;C1CC1;C1CC1;C1CC1;C;N;C=O;C;Brc1ccccc1;;

>  <reaction-name>
s_22

>  <reagent1-name>
17611684

>  <reagent1-smiles>
[R1*]NC1C(F)CC2C1C2

>  <reagent2-name>
12624298

>  <reagent2-smiles>
[R1*]C(=O)C(NC(=O)C)c1cc(Br)ccc1

$$$$
s_2708____11569280____914000
          04022015093D 1   1.00000     0.00000     0
            
 65 66  0  0  0  0            999 V2000
    3.6177   -5.0245    0.7090 F   0  0  0  0  0  0  0  0  0  0  0  0
    3.3138   -3.8202    0.2325 C   0  0  0  0  0  0  0  0  0  0  0  0
    4.2121   -3.1576   -0.5977 C   0  0  0  0  0  0  0  0  0  0  0  0
    3.8878   -1.8981   -1.0914 C   0  0  0  0  0  0  0  0  0  0  0  0
    2.6712   -1.3171   -0.7498 C   0  0  0  0  0  0  0  0  0  0  0  0
    1.7767   -1.9843    0.0802 C   0  0  0  0  0  0  0  0  0  0  0  0
    2.0954   -3.2439    0.5765 C   0  0  0  0  0  0  0  0  0  0  0  0
    2.3231    0.0593   -1.2923 C   0  0  0  0  0  0  0  0  0  0  0  0
    2.9767    1.1249   -0.4276 C   0  0  3  0  0  0  0  0  0  0  0  0
    2.6285    2.5014   -0.9702 C   0  0  0  0  0  0  0  0  0  0  0  0
    1.5859    2.6765   -1.5379 O   0  0  0  0  0  0  0  0  0  0  0  0
    3.5051    3.5422   -0.8112 N   0  0  0  0  0  0  0  0  0  0  0  0
    3.1232    4.8964   -1.2371 C   0  0  0  0  0  0  0  0  0  0  0  0
    4.8274    3.3048   -0.2146 C   0  0  0  0  0  0  0  0  0  0  0  0
    2.4700    1.0000    1.0000 C   0  0  0  0  0  0  0  0  0  0  0  0
    1.0000    1.0000    1.0000 N   0  0  0  0  0  0  0  0  0  0  0  0
    0.3150    1.0000    2.1865 C   0  0  0  0  0  0  0  0  0  0  0  0
    0.9116    1.0906    3.2237 O   0  0  0  0  0  0  0  0  0  0  0  0
   -1.0511    0.8966    2.1887 N   0  0  0  0  0  0  0  0  0  0  0  0
   -1.7947    1.0070    3.4526 C   0  0  3  0  0  0  0  0  0  0  0  0
   -3.0168    0.1012    3.4440 C   0  0  3  0  0  0  0  0  0  0  0  0
   -2.6158   -1.3540    3.2588 C   0  0  0  0  0  0  0  0  0  0  0  0
   -1.4346   -1.6728    4.1606 C   0  0  0  0  0  0  0  0  0  0  0  0
   -3.7871   -2.2523    3.6213 C   0  0  0  0  0  0  0  0  0  0  0  0
   -2.2251   -1.5912    1.8091 C   0  0  0  0  0  0  0  0  0  0  0  0
   -3.7538    0.2888    4.7620 C   0  0  0  0  0  0  0  0  0  0  0  0
   -4.1628    1.7372    4.9900 C   0  0  0  0  0  0  0  0  0  0  0  0
   -3.6533    2.6617    3.8938 C   0  0  0  0  0  0  0  0  0  0  0  0
   -2.1619    2.4691    3.6585 C   0  0  0  0  0  0  0  0  0  0  0  0
    5.0844   -3.5836   -0.8379 H   0  0  0  0  0  0  0  0  0  0  0  0
    4.5262   -1.4129   -1.6889 H   0  0  0  0  0  0  0  0  0  0  0  0
    0.9044   -1.5583    0.3203 H   0  0  0  0  0  0  0  0  0  0  0  0
    1.4564   -3.7293    1.1733 H   0  0  0  0  0  0  0  0  0  0  0  0
    1.3307    0.1816   -1.2789 H   0  0  0  0  0  0  0  0  0  0  0  0
    2.6564    0.1414   -2.2315 H   0  0  0  0  0  0  0  0  0  0  0  0
    3.9691    1.0025   -0.4410 H   0  0  0  0  0  0  0  0  0  0  0  0
    3.8746    5.5291   -1.0495 H   0  0  0  0  0  0  0  0  0  0  0  0
    2.9260    4.8943   -2.2174 H   0  0  0  0  0  0  0  0  0  0  0  0
    2.3093    5.1869   -0.7339 H   0  0  0  0  0  0  0  0  0  0  0  0
    5.3342    4.1660   -0.1739 H   0  0  0  0  0  0  0  0  0  0  0  0
    4.7155    2.9399    0.7096 H   0  0  0  0  0  0  0  0  0  0  0  0
    5.3322    2.6472   -0.7738 H   0  0  0  0  0  0  0  0  0  0  0  0
    2.8033    0.1455    1.3984 H   0  0  0  0  0  0  0  0  0  0  0  0
    2.8033    1.7723    1.5408 H   0  0  0  0  0  0  0  0  0  0  0  0
    0.5000    1.0000    0.1340 H   0  0  0  0  0  0  0  0  0  0  0  0
   -1.5425    0.7461    1.3309 H   0  0  0  0  0  0  0  0  0  0  0  0
   -1.1942    0.7224    4.1998 H   0  0  0  0  0  0  0  0  0  0  0  0
   -3.6183    0.3721    2.6925 H   0  0  0  0  0  0  0  0  0  0  0  0
   -1.1709   -2.6297    4.0388 H   0  0  0  0  0  0  0  0  0  0  0  0
   -0.6640   -1.0818    3.9221 H   0  0  0  0  0  0  0  0  0  0  0  0
   -1.6916   -1.5167    5.1143 H   0  0  0  0  0  0  0  0  0  0  0  0
   -3.5235   -3.2092    3.4995 H   0  0  0  0  0  0  0  0  0  0  0  0
   -4.0442   -2.0962    4.5751 H   0  0  0  0  0  0  0  0  0  0  0  0
   -4.5642   -2.0426    3.0280 H   0  0  0  0  0  0  0  0  0  0  0  0
   -1.9614   -2.5481    1.6873 H   0  0  0  0  0  0  0  0  0  0  0  0
   -3.0022   -1.3815    1.2158 H   0  0  0  0  0  0  0  0  0  0  0  0
   -1.4545   -1.0002    1.5706 H   0  0  0  0  0  0  0  0  0  0  0  0
   -3.1551    0.0015    5.5097 H   0  0  0  0  0  0  0  0  0  0  0  0
   -4.5757   -0.2808    4.7554 H   0  0  0  0  0  0  0  0  0  0  0  0
   -3.7902    2.0421    5.8665 H   0  0  0  0  0  0  0  0  0  0  0  0
   -5.1611    1.7890    5.0160 H   0  0  0  0  0  0  0  0  0  0  0  0
   -4.1453    2.4641    3.0459 H   0  0  0  0  0  0  0  0  0  0  0  0
   -3.8210    3.6101    4.1631 H   0  0  0  0  0  0  0  0  0  0  0  0
   -1.8952    2.9854    2.8446 H   0  0  0  0  0  0  0  0  0  0  0  0
   -1.6633    2.8172    4.4523 H   0  0  0  0  0  0  0  0  0  0  0  0
  1  2  1  0  0  0  0
  2  3  1  0  0  0  0
  3  4  2  0  0  0  0
  4  5  1  0  0  0  0
  5  6  2  0  0  0  0
  6  7  1  0  0  0  0
  7  2  2  0  0  0  0
  5  8  1  0  0  0  0
  8  9  1  0  0  0  0
  9 10  1  0  0  0  0
 10 11  2  0  0  0  0
 10 12  1  0  0  0  0
 12 13  1  0  0  0  0
 12 14  1  0  0  0  0
  9 15  1  0  0  0  0
 15 16  1  0  0  0  0
 16 17  1  0  0  0  0
 17 18  2  0  0  0  0
 17 19  1  0  0  0  0
 19 20  1  0  0  0  0
 20 21  1  0  0  0  0
 21 22  1  0  0  0  0
 22 23  1  0  0  0  0
 22 24  1  0  0  0  0
 22 25  1  0  0  0  0
 21 26  1  0  0  0  0
 26 27  1  0  0  0  0
 27 28  1  0  0  0  0
 28 29  1  0  0  0  0
 29 20  1  0  0  0  0
  3 30  1  0  0  0  0
  4 31  1  0  0  0  0
  6 32  1  0  0  0  0
  7 33  1  0  0  0  0
  8 34  1  0  0  0  0
  8 35  1  0  0  0  0
  9 36  1  0  0  0  0
 13 37  1  0  0  0  0
 13 38  1  0  0  0  0
 13 39  1  0  0  0  0
 14 40  1  0  0  0  0
 14 41  1  0  0  0  0
 14 42  1  0  0  0  0
 15 43  1  0  0  0  0
 15 44  1  0  0  0  0
 16 45  1  0  0  0  0
 19 46  1  0  0  0  0
 20 47  1  0  0  0  0
 21 48  1  0  0  0  0
 23 49  1  0  0  0  0
 23 50  1  0  0  0  0
 23 51  1  0  0  0  0
 24 52  1  0  0  0  0
 24 53  1  0  0  0  0
 24 54  1  0  0  0  0
 25 55  1  0  0  0  0
 25 56  1  0  0  0  0
 25 57  1  0  0  0  0
 26 58  1  0  0  0  0
 26 59  1  0  0  0  0
 27 60  1  0  0  0  0
 27 61  1  0  0  0  0
 28 62  1  0  0  0  0
 28 63  1  0  0  0  0
 29 64  1  0  0  0  0
 29 65  1  0  0  0  0
M  END
>  <result-rank>
16

>  <similarity>
0.955

>  <query-name>
LIG_A_1101_CCC[C@H]([R*])C1CCC1_2

>  <query-smiles>
O=C(N[C@H](C1CCC1)CCC)[C@@H](NC(=O)C)Cc2ccc(O)cc2

>  <source>
REALspace_2019-12

>  <similarity-descriptor>
1.000;0.983;0.995;1.000;1.000;1.000;0.964;0.964;0.824;0.824;1.000;0.977;1.000;0.0;0.125

>  <similarity-descriptor-smiles>
C1CCCCC1;Fc1ccccc1;C=O;N;C1CCCCC1;C1CCCCC1;C(C)C;C(C)C;CCN;CCN;C=O;NC;C;;C.C

>  <reaction-name>
s_2708

>  <reagent1-name>
11569280

>  <reagent1-smiles>
[R1*]C(=O)NCC(C(=O)N(C)C)Cc1ccc(F)cc1

>  <reagent2-name>
914000

>  <reagent2-smiles>
[R1*]NC1C(C(C)(C)C)CCCC1

$$$$
s_2708____13426432____914000
          04022015093D 1   1.00000     0.00000     0
            
 53 54  0  0  0  0            999 V2000
    6.7291   -3.6823   -1.3500 F   0  0  0  0  0  0  0  0  0  0  0  0
    6.3959   -3.1062   -0.1986 C   0  0  0  0  0  0  0  0  0  0  0  0
    6.7493   -3.7175    0.9999 C   0  0  0  0  0  0  0  0  0  0  0  0
    6.3955   -3.1055    2.1978 C   0  0  0  0  0  0  0  0  0  0  0  0
    6.7350   -3.6919    3.3653 O   0  0  0  0  0  0  0  0  0  0  0  0
    5.6999   -1.9012    2.2122 C   0  0  0  0  0  0  0  0  0  0  0  0
    5.3592   -1.3113    1.0000 C   0  0  0  0  0  0  0  0  0  0  0  0
    5.7002   -1.9020   -0.2118 C   0  0  0  0  0  0  0  0  0  0  0  0
    4.5994    0.0047    1.0000 C   0  0  0  0  0  0  0  0  0  0  0  0
    3.1050   -0.2731    1.0000 C   0  0  0  0  0  0  0  0  0  0  0  0
    2.3700    1.0000    1.0000 N   0  0  0  0  0  0  0  0  0  0  0  0
    1.0000    1.0000    1.0000 C   0  0  0  0  0  0  0  0  0  0  0  0
    0.4000   -0.0392    1.0000 O   0  0  0  0  0  0  0  0  0  0  0  0
    0.3150    2.1865    1.0000 N   0  0  0  0  0  0  0  0  0  0  0  0
   -1.1388    2.1961    0.7789 C   0  0  3  0  0  0  0  0  0  0  0  0
   -1.5524    3.3971   -0.0580 C   0  0  3  0  0  0  0  0  0  0  0  0
   -0.8693    3.3766   -1.4165 C   0  0  0  0  0  0  0  0  0  0  0  0
   -0.9453    1.9754   -2.0007 C   0  0  0  0  0  0  0  0  0  0  0  0
   -1.5670    4.3531   -2.3493 C   0  0  0  0  0  0  0  0  0  0  0  0
    0.5873    3.7808   -1.2573 C   0  0  0  0  0  0  0  0  0  0  0  0
   -3.0650    3.3625   -0.2199 C   0  0  0  0  0  0  0  0  0  0  0  0
   -3.7863    3.3703    1.1206 C   0  0  0  0  0  0  0  0  0  0  0  0
   -2.8221    3.3140    2.2967 C   0  0  0  0  0  0  0  0  0  0  0  0
   -1.8234    2.1765    2.1375 C   0  0  0  0  0  0  0  0  0  0  0  0
    7.2499   -4.5832    1.0003 H   0  0  0  0  0  0  0  0  0  0  0  0
    6.4857   -3.2608    4.2325 H   0  0  0  0  0  0  0  0  0  0  0  0
    5.4496   -1.4677    3.0779 H   0  0  0  0  0  0  0  0  0  0  0  0
    5.4497   -1.4686   -1.0775 H   0  0  0  0  0  0  0  0  0  0  0  0
    4.8410    0.5291    0.1835 H   0  0  0  0  0  0  0  0  0  0  0  0
    4.8410    0.5291    1.8165 H   0  0  0  0  0  0  0  0  0  0  0  0
    2.8634   -0.7974    0.1835 H   0  0  0  0  0  0  0  0  0  0  0  0
    2.8634   -0.7974    1.8165 H   0  0  0  0  0  0  0  0  0  0  0  0
    2.8700    1.8660    1.0000 H   0  0  0  0  0  0  0  0  0  0  0  0
    0.8036    3.0459    1.1504 H   0  0  0  0  0  0  0  0  0  0  0  0
   -1.3901    1.3637    0.2850 H   0  0  0  0  0  0  0  0  0  0  0  0
   -1.2950    4.2347    0.4239 H   0  0  0  0  0  0  0  0  0  0  0  0
   -0.4961    1.9619   -2.8941 H   0  0  0  0  0  0  0  0  0  0  0  0
   -0.4863    1.3330   -1.3871 H   0  0  0  0  0  0  0  0  0  0  0  0
   -1.9036    1.7095   -2.1055 H   0  0  0  0  0  0  0  0  0  0  0  0
   -1.1178    4.3396   -3.2426 H   0  0  0  0  0  0  0  0  0  0  0  0
   -2.5253    4.0871   -2.4540 H   0  0  0  0  0  0  0  0  0  0  0  0
   -1.5170    5.2749   -1.9649 H   0  0  0  0  0  0  0  0  0  0  0  0
    1.0365    3.7673   -2.1506 H   0  0  0  0  0  0  0  0  0  0  0  0
    0.6373    4.7026   -0.8729 H   0  0  0  0  0  0  0  0  0  0  0  0
    1.0464    3.1384   -0.6436 H   0  0  0  0  0  0  0  0  0  0  0  0
   -3.3170    2.5319   -0.7165 H   0  0  0  0  0  0  0  0  0  0  0  0
   -3.3513    4.1643   -0.7445 H   0  0  0  0  0  0  0  0  0  0  0  0
   -4.3927    2.5763    1.1638 H   0  0  0  0  0  0  0  0  0  0  0  0
   -4.3283    4.2078    1.1890 H   0  0  0  0  0  0  0  0  0  0  0  0
   -2.3243    4.1796    2.3518 H   0  0  0  0  0  0  0  0  0  0  0  0
   -3.3431    3.1749    3.1389 H   0  0  0  0  0  0  0  0  0  0  0  0
   -1.1265    2.2580    2.8501 H   0  0  0  0  0  0  0  0  0  0  0  0
   -2.3066    1.3072    2.2417 H   0  0  0  0  0  0  0  0  0  0  0  0
  1  2  1  0  0  0  0
  2  3  1  0  0  0  0
  3  4  2  0  0  0  0
  4  5  1  0  0  0  0
  4  6  1  0  0  0  0
  6  7  2  0  0  0  0
  7  8  1  0  0  0  0
  8  2  2  0  0  0  0
  7  9  1  0  0  0  0
  9 10  1  0  0  0  0
 10 11  1  0  0  0  0
 11 12  1  0  0  0  0
 12 13  2  0  0  0  0
 12 14  1  0  0  0  0
 14 15  1  0  0  0  0
 15 16  1  0  0  0  0
 16 17  1  0  0  0  0
 17 18  1  0  0  0  0
 17 19  1  0  0  0  0
 17 20  1  0  0  0  0
 16 21  1  0  0  0  0
 21 22  1  0  0  0  0
 22 23  1  0  0  0  0
 23 24  1  0  0  0  0
 24 15  1  0  0  0  0
  3 25  1  0  0  0  0
  5 26  1  0  0  0  0
  6 27  1  0  0  0  0
  8 28  1  0  0  0  0
  9 29  1  0  0  0  0
  9 30  1  0  0  0  0
 10 31  1  0  0  0  0
 10 32  1  0  0  0  0
 11 33  1  0  0  0  0
 14 34  1  0  0  0  0
 15 35  1  0  0  0  0
 16 36  1  0  0  0  0
 18 37  1  0  0  0  0
 18 38  1  0  0  0  0
 18 39  1  0  0  0  0
 19 40  1  0  0  0  0
 19 41  1  0  0  0  0
 19 42  1  0  0  0  0
 20 43  1  0  0  0  0
 20 44  1  0  0  0  0
 20 45  1  0  0  0  0
 21 46  1  0  0  0  0
 21 47  1  0  0  0  0
 22 48  1  0  0  0  0
 22 49  1  0  0  0  0
 23 50  1  0  0  0  0
 23 51  1  0  0  0  0
 24 52  1  0  0  0  0
 24 53  1  0  0  0  0
M  END
>  <result-rank>
17

>  <similarity>
0.955

>  <query-name>
LIG_A_1101_CCC[C@H]([R*])C1CCC1_2

>  <query-smiles>
O=C(N[C@H](C1CCC1)CCC)[C@@H](NC(=O)C)Cc2ccc(O)cc2

>  <source>
REALspace_2019-12

>  <similarity-descriptor>
1.000;0.965;0.995;1.000;1.000;1.000;0.964;0.964;0.952;0.952;0.0;0.0;1.000;1.000;0.083

>  <similarity-descriptor-smiles>
C1CCCCC1;Fc1ccccc1;C=O;N;C1CCCCC1;C1CCCCC1;C(C)C;C(C)C;CN;CN;;;C;O;C

>  <reaction-name>
s_2708

>  <reagent1-name>
13426432

>  <reagent1-smiles>
[R1*]C(=O)NCCc1cc(F)cc(O)c1

>  <reagent2-name>
914000

>  <reagent2-smiles>
[R1*]NC1C(C(C)(C)C)CCCC1

$$$$
s_22____11354082____107332
          04022015093D 1   1.00000     0.00000     0
            
 54 55  0  0  0  0            999 V2000
   -2.7942    6.5503    0.7877 Cl  0  0  0  0  0  0  0  0  0  0  0  0
   -1.7679    5.1320    0.4668 C   0  0  0  0  0  0  0  0  0  0  0  0
   -2.2011    3.8654    0.8430 C   0  0  0  0  0  0  0  0  0  0  0  0
   -1.4017    2.7542    0.5947 C   0  0  0  0  0  0  0  0  0  0  0  0
   -0.1722    2.9289   -0.0315 C   0  0  0  0  0  0  0  0  0  0  0  0
    0.2615    4.1952   -0.4077 C   0  0  0  0  0  0  0  0  0  0  0  0
   -0.5380    5.3067   -0.1593 C   0  0  0  0  0  0  0  0  0  0  0  0
    0.7075    1.7208   -0.3059 C   0  0  3  0  0  0  0  0  0  0  0  0
    0.0129    0.8075   -1.2248 N   0  0  0  0  0  0  0  0  0  0  0  0
    0.5721    0.4993   -2.4369 C   0  0  0  0  0  0  0  0  0  0  0  0
    1.6288    0.9750   -2.7485 O   0  0  0  0  0  0  0  0  0  0  0  0
   -0.1461   -0.4450   -3.3871 C   0  0  0  0  0  0  0  0  0  0  0  0
    1.0000    1.0000    1.0000 C   0  0  0  0  0  0  0  0  0  0  0  0
    1.8776    1.8776    1.8776 C   0  0  0  0  0  0  0  0  0  0  0  0
    1.9688    3.0524    1.6507 O   0  0  0  0  0  0  0  0  0  0  0  0
    2.5644    1.3273    2.9275 N   0  0  0  0  0  0  0  0  0  0  0  0
    3.4128    2.1758    3.7760 C   0  0  3  0  0  0  0  0  0  0  0  0
    4.8510    1.6865    3.7241 C   0  0  0  0  0  0  0  0  0  0  0  0
    5.7322    2.5587    4.6038 C   0  0  0  0  0  0  0  0  0  0  0  0
    5.2300    2.5310    6.0388 C   0  0  3  0  0  0  0  0  0  0  0  0
    6.0780    3.3854    6.8823 N   0  3  0  0  0  0  0  0  0  0  0  0
    7.4624    2.8925    6.8436 C   0  0  0  0  0  0  0  0  0  0  0  0
    6.0353    4.7664    6.3803 C   0  0  0  0  0  0  0  0  0  0  0  0
    3.7931    3.0245    6.0834 C   0  0  0  0  0  0  0  0  0  0  0  0
    2.9086    2.1497    5.2097 C   0  0  0  0  0  0  0  0  0  0  0  0
    5.7422    3.3625    7.8239 H   0  0  0  0  0  0  0  0  0  0  0  0
   -3.0875    3.7532    1.2922 H   0  0  0  0  0  0  0  0  0  0  0  0
   -1.7075    1.8408    0.8633 H   0  0  0  0  0  0  0  0  0  0  0  0
    1.1480    4.3073   -0.8567 H   0  0  0  0  0  0  0  0  0  0  0  0
   -0.2321    6.2202   -0.4276 H   0  0  0  0  0  0  0  0  0  0  0  0
    1.5665    2.0212   -0.7205 H   0  0  0  0  0  0  0  0  0  0  0  0
   -0.8677    0.4111   -0.9651 H   0  0  0  0  0  0  0  0  0  0  0  0
   -1.0051   -0.7454   -2.9725 H   0  0  0  0  0  0  0  0  0  0  0  0
   -0.3386    0.0292   -4.2462 H   0  0  0  0  0  0  0  0  0  0  0  0
    0.4329   -1.2401   -3.5676 H   0  0  0  0  0  0  0  0  0  0  0  0
    0.1409    0.8075    1.4742 H   0  0  0  0  0  0  0  0  0  0  0  0
    1.4742    0.1409    0.8075 H   0  0  0  0  0  0  0  0  0  0  0  0
    2.4883    0.3483    3.1166 H   0  0  0  0  0  0  0  0  0  0  0  0
    3.3766    3.1154    3.4357 H   0  0  0  0  0  0  0  0  0  0  0  0
    5.1806    1.7283    2.7810 H   0  0  0  0  0  0  0  0  0  0  0  0
    4.8908    0.7418    4.0496 H   0  0  0  0  0  0  0  0  0  0  0  0
    6.6710    2.2153    4.5754 H   0  0  0  0  0  0  0  0  0  0  0  0
    5.7109    3.4991    4.2642 H   0  0  0  0  0  0  0  0  0  0  0  0
    5.2657    1.5922    6.3812 H   0  0  0  0  0  0  0  0  0  0  0  0
    8.0393    3.4738    7.4174 H   0  0  0  0  0  0  0  0  0  0  0  0
    7.4914    1.9531    7.1850 H   0  0  0  0  0  0  0  0  0  0  0  0
    7.7982    2.9154    5.9019 H   0  0  0  0  0  0  0  0  0  0  0  0
    6.6123    5.3476    6.9541 H   0  0  0  0  0  0  0  0  0  0  0  0
    6.3711    4.7893    5.4386 H   0  0  0  0  0  0  0  0  0  0  0  0
    5.0936    5.1016    6.4066 H   0  0  0  0  0  0  0  0  0  0  0  0
    3.7572    3.9667    5.7505 H   0  0  0  0  0  0  0  0  0  0  0  0
    3.4618    2.9912    7.0263 H   0  0  0  0  0  0  0  0  0  0  0  0
    2.9295    1.2103    5.5518 H   0  0  0  0  0  0  0  0  0  0  0  0
    1.9702    2.4940    5.2378 H   0  0  0  0  0  0  0  0  0  0  0  0
  1  2  1  0  0  0  0
  2  3  1  0  0  0  0
  3  4  2  0  0  0  0
  4  5  1  0  0  0  0
  5  6  2  0  0  0  0
  6  7  1  0  0  0  0
  7  2  2  0  0  0  0
  5  8  1  0  0  0  0
  8  9  1  0  0  0  0
  9 10  1  0  0  0  0
 10 11  2  0  0  0  0
 10 12  1  0  0  0  0
  8 13  1  0  0  0  0
 13 14  1  0  0  0  0
 14 15  2  0  0  0  0
 14 16  1  0  0  0  0
 16 17  1  0  0  0  0
 17 18  1  0  0  0  0
 18 19  1  0  0  0  0
 19 20  1  0  0  0  0
 20 21  1  0  0  0  0
 21 22  1  0  0  0  0
 21 23  1  0  0  0  0
 20 24  1  0  0  0  0
 24 25  1  0  0  0  0
 25 17  1  0  0  0  0
 21 26  1  0  0  0  0
  3 27  1  0  0  0  0
  4 28  1  0  0  0  0
  6 29  1  0  0  0  0
  7 30  1  0  0  0  0
  8 31  1  0  0  0  0
  9 32  1  0  0  0  0
 12 33  1  0  0  0  0
 12 34  1  0  0  0  0
 12 35  1  0  0  0  0
 13 36  1  0  0  0  0
 13 37  1  0  0  0  0
 16 38  1  0  0  0  0
 17 39  1  0  0  0  0
 18 40  1  0  0  0  0
 18 41  1  0  0  0  0
 19 42  1  0  0  0  0
 19 43  1  0  0  0  0
 20 44  1  0  0  0  0
 22 45  1  0  0  0  0
 22 46  1  0  0  0  0
 22 47  1  0  0  0  0
 23 48  1  0  0  0  0
 23 49  1  0  0  0  0
 23 50  1  0  0  0  0
 24 51  1  0  0  0  0
 24 52  1  0  0  0  0
 25 53  1  0  0  0  0
 25 54  1  0  0  0  0
M  CHG  1  21   1
M  END
>  <result-rank>
18

>  <similarity>
0.954

>  <query-name>
LIG_A_1101_CCC[C@H]([R*])C1CCC1_2

>  <query-smiles>
O=C(N[C@H](C1CCC1)CCC)[C@@H](NC(=O)C)Cc2ccc(O)cc2

>  <source>
REALspace_2019-12

>  <similarity-descriptor>
0.999;0.968;1.000;1.000;0.999;0.999;0.505;0.995;1.000;1.000;1.000;1.000;1.000;0.0;0.0

>  <similarity-descriptor-smiles>
C1CCCCC1;Clc1ccccc1;C=O;N;C1CCCCC1;C1CCCCC1;[NH+]C;C;CC;N;C=O;C;CC;;

>  <reaction-name>
s_22

>  <reagent1-name>
11354082

>  <reagent1-smiles>
[R1*]NC1CCC(N(C)C)CC1

>  <reagent2-name>
107332

>  <reagent2-smiles>
[R1*]C(=O)CC(NC(=O)C)c1ccc(Cl)cc1

$$$$
s_527a____5125430____10749754
          04022015093D 1   1.00000     0.00000     0
            
 51 52  0  0  0  0            999 V2000
    0.9150    1.0000    3.2257 O   0  0  0  0  0  0  0  0  0  0  0  0
    0.3150    1.0000    2.1865 C   0  0  0  0  0  0  0  0  0  0  0  0
    1.0000    1.0000    1.0000 N   0  0  0  0  0  0  0  0  0  0  0  0
    2.4700    1.0000    1.0000 C   0  0  0  0  0  0  0  0  0  0  0  0
    2.9767    1.0000   -0.4331 C   0  0  0  0  0  0  0  0  0  0  0  0
    4.4967    1.0000   -0.4331 C   0  0  0  0  0  0  0  0  0  0  0  0
    5.0033    1.0000   -1.8662 C   0  0  0  0  0  0  0  0  0  0  0  0
    5.2315    2.2110   -2.5114 C   0  0  0  0  0  0  0  0  0  0  0  0
    5.6958    2.2159   -3.8225 C   0  0  0  0  0  0  0  0  0  0  0  0
    5.9269    1.0075   -4.4723 C   0  0  0  0  0  0  0  0  0  0  0  0
    6.3772    1.0077   -5.7448 O   0  0  0  0  0  0  0  0  0  0  0  0
    5.7000   -0.2063   -3.8316 C   0  0  0  0  0  0  0  0  0  0  0  0
    5.2361   -0.2053   -2.5205 C   0  0  0  0  0  0  0  0  0  0  0  0
   -1.2079    1.0000    2.1865 C   0  0  0  0  0  0  0  0  0  0  0  0
   -1.7347   -0.2349    1.4735 C   0  0  0  0  0  0  0  0  0  0  0  0
   -3.2548   -0.2222    1.4562 C   0  0  0  0  0  0  0  0  0  0  0  0
   -3.7563    0.9940    0.7991 N   0  3  0  0  0  0  0  0  0  0  0  0
   -5.2279    0.9944    0.7584 C   0  0  0  0  0  0  0  0  0  0  0  0
   -5.7136   -0.2191   -0.0176 C   0  0  0  0  0  0  0  0  0  0  0  0
   -5.7740    0.9412    2.1759 C   0  0  0  0  0  0  0  0  0  0  0  0
   -3.2577    2.2144    1.4505 C   0  0  0  0  0  0  0  0  0  0  0  0
   -1.7375    2.2289    1.4649 C   0  0  0  0  0  0  0  0  0  0  0  0
   -3.4236    0.9921   -0.1439 H   0  0  0  0  0  0  0  0  0  0  0  0
    0.5000    1.0000    0.1340 H   0  0  0  0  0  0  0  0  0  0  0  0
    2.8033    0.1835    1.4714 H   0  0  0  0  0  0  0  0  0  0  0  0
    2.8033    1.8165    1.4714 H   0  0  0  0  0  0  0  0  0  0  0  0
    2.6433    1.8165   -0.9045 H   0  0  0  0  0  0  0  0  0  0  0  0
    2.6433    0.1835   -0.9045 H   0  0  0  0  0  0  0  0  0  0  0  0
    4.8300    1.8165    0.0383 H   0  0  0  0  0  0  0  0  0  0  0  0
    4.8300    0.1835    0.0383 H   0  0  0  0  0  0  0  0  0  0  0  0
    5.0625    3.0738   -2.0350 H   0  0  0  0  0  0  0  0  0  0  0  0
    5.8624    3.0815   -4.2946 H   0  0  0  0  0  0  0  0  0  0  0  0
    6.5447    0.1417   -6.2160 H   0  0  0  0  0  0  0  0  0  0  0  0
    5.8685   -1.0692   -4.3081 H   0  0  0  0  0  0  0  0  0  0  0  0
    5.0699   -1.0710   -2.0482 H   0  0  0  0  0  0  0  0  0  0  0  0
   -1.5384    1.0029    3.1303 H   0  0  0  0  0  0  0  0  0  0  0  0
   -1.4166   -1.0535    1.9517 H   0  0  0  0  0  0  0  0  0  0  0  0
   -1.3937   -0.2444    0.5335 H   0  0  0  0  0  0  0  0  0  0  0  0
   -3.5843   -1.0243    0.9581 H   0  0  0  0  0  0  0  0  0  0  0  0
   -3.5941   -0.2511    2.3965 H   0  0  0  0  0  0  0  0  0  0  0  0
   -5.5487    1.8279    0.3086 H   0  0  0  0  0  0  0  0  0  0  0  0
   -6.7132   -0.2188   -0.0452 H   0  0  0  0  0  0  0  0  0  0  0  0
   -5.3543   -0.1841   -0.9501 H   0  0  0  0  0  0  0  0  0  0  0  0
   -5.3928   -1.0526    0.4322 H   0  0  0  0  0  0  0  0  0  0  0  0
   -6.7736    0.9415    2.1482 H   0  0  0  0  0  0  0  0  0  0  0  0
   -5.4532    0.1077    2.6256 H   0  0  0  0  0  0  0  0  0  0  0  0
   -5.4545    1.7395    2.6864 H   0  0  0  0  0  0  0  0  0  0  0  0
   -3.5959    2.2468    2.3910 H   0  0  0  0  0  0  0  0  0  0  0  0
   -3.5895    3.0137    0.9493 H   0  0  0  0  0  0  0  0  0  0  0  0
   -1.3982    2.2316    0.5242 H   0  0  0  0  0  0  0  0  0  0  0  0
   -1.4194    3.0515    1.9363 H   0  0  0  0  0  0  0  0  0  0  0  0
  1  2  2  0  0  0  0
  2  3  1  0  0  0  0
  3  4  1  0  0  0  0
  4  5  1  0  0  0  0
  5  6  1  0  0  0  0
  6  7  1  0  0  0  0
  7  8  1  0  0  0  0
  8  9  2  0  0  0  0
  9 10  1  0  0  0  0
 10 11  1  0  0  0  0
 10 12  2  0  0  0  0
 12 13  1  0  0  0  0
 13  7  2  0  0  0  0
  2 14  1  0  0  0  0
 14 15  1  0  0  0  0
 15 16  1  0  0  0  0
 16 17  1  0  0  0  0
 17 18  1  0  0  0  0
 18 19  1  0  0  0  0
 18 20  1  0  0  0  0
 17 21  1  0  0  0  0
 21 22  1  0  0  0  0
 22 14  1  0  0  0  0
 17 23  1  0  0  0  0
  3 24  1  0  0  0  0
  4 25  1  0  0  0  0
  4 26  1  0  0  0  0
  5 27  1  0  0  0  0
  5 28  1  0  0  0  0
  6 29  1  0  0  0  0
  6 30  1  0  0  0  0
  8 31  1  0  0  0  0
  9 32  1  0  0  0  0
 11 33  1  0  0  0  0
 12 34  1  0  0  0  0
 13 35  1  0  0  0  0
 14 36  1  0  0  0  0
 15 37  1  0  0  0  0
 15 38  1  0  0  0  0
 16 39  1  0  0  0  0
 16 40  1  0  0  0  0
 18 41  1  0  0  0  0
 19 42  1  0  0  0  0
 19 43  1  0  0  0  0
 19 44  1  0  0  0  0
 20 45  1  0  0  0  0
 20 46  1  0  0  0  0
 20 47  1  0  0  0  0
 21 48  1  0  0  0  0
 21 49  1  0  0  0  0
 22 50  1  0  0  0  0
 22 51  1  0  0  0  0
M  CHG  1  17   1
M  END
>  <result-rank>
19

>  <similarity>
0.954

>  <query-name>
LIG_A_1101_CCC[C@H]([R*])C1CCC1_2

>  <query-smiles>
O=C(N[C@H](C1CCC1)CCC)[C@@H](NC(=O)C)Cc2ccc(O)cc2

>  <source>
REALspace_2019-12

>  <similarity-descriptor>
0.991;1.000;1.000;0.991;0.991;0.995;0.995;1.000;0.801;0.801;0.0;0.0;1.000;1.000;0.0

>  <similarity-descriptor-smiles>
C1CC[NH+]CC1;c1ccccc1;O=C;C1CC[NH+]CC1;C1CC[NH+]CC1;CC;CC;C;NCC;NCC;;;C;O;

>  <reaction-name>
s_527a

>  <reagent1-name>
5125430

>  <reagent1-smiles>
[R1*]NCCCc1ccc(O)cc1

>  <reagent2-name>
10749754

>  <reagent2-smiles>
[R1*]C(=O)C1CCN(C(C)C)CC1

$$$$
s_22____10744164____12624298
          04022015093D 1   1.00000     0.00000     0
            
 54 54  0  0  0  0            999 V2000
    5.9532   -0.9938   -3.5680 Br  0  0  0  0  0  0  0  0  0  0  0  0
    4.3464   -1.2238   -2.4696 C   0  0  0  0  0  0  0  0  0  0  0  0
    4.3157   -0.7074   -1.1789 C   0  0  0  0  0  0  0  0  0  0  0  0
    3.1678   -0.8797   -0.4115 C   0  0  0  0  0  0  0  0  0  0  0  0
    2.0630   -1.5561   -0.9175 C   0  0  0  0  0  0  0  0  0  0  0  0
    2.1153   -2.0652   -2.2109 C   0  0  0  0  0  0  0  0  0  0  0  0
    3.2529   -1.9040   -2.9949 C   0  0  0  0  0  0  0  0  0  0  0  0
    3.1300   -0.3164    1.0000 C   0  0  3  0  0  0  0  0  0  0  0  0
    2.4556   -1.2716    1.8909 N   0  0  0  0  0  0  0  0  0  0  0  0
    3.1241   -1.7951    2.9660 C   0  0  0  0  0  0  0  0  0  0  0  0
    4.2602   -1.4738    3.1805 O   0  0  0  0  0  0  0  0  0  0  0  0
    2.4267   -2.7827    3.8871 C   0  0  0  0  0  0  0  0  0  0  0  0
    2.3700    1.0000    1.0000 C   0  0  0  0  0  0  0  0  0  0  0  0
    2.9700    2.0392    1.0000 O   0  0  0  0  0  0  0  0  0  0  0  0
    1.0000    1.0000    1.0000 N   0  0  0  0  0  0  0  0  0  0  0  0
    0.2650    2.2731    1.0000 C   0  0  3  0  0  0  0  0  0  0  0  0
   -0.3095    2.5264   -0.3842 C   0  0  3  0  0  0  0  0  0  0  0  0
    0.5808    3.5064   -1.1308 C   0  0  0  0  0  0  0  0  0  0  0  0
   -0.2767    4.3999   -2.0121 C   0  0  0  0  0  0  0  0  0  0  0  0
    1.3427    4.3614   -0.1314 C   0  0  0  0  0  0  0  0  0  0  0  0
   -0.3769    1.2165   -1.1524 C   0  0  0  0  0  0  0  0  0  0  0  0
    0.7279    1.1312   -2.0405 O   0  0  0  0  0  0  0  0  0  0  0  0
   -0.8659    2.2052    2.0133 C   0  0  0  0  0  0  0  0  0  0  0  0
   -0.2914    1.9518    3.3976 C   0  0  0  0  0  0  0  0  0  0  0  0
   -1.6259    3.5215    2.0133 C   0  0  0  0  0  0  0  0  0  0  0  0
    5.1061   -0.2199   -0.8080 H   0  0  0  0  0  0  0  0  0  0  0  0
    1.2421   -1.6748   -0.3590 H   0  0  0  0  0  0  0  0  0  0  0  0
    1.3251   -2.5532   -2.5818 H   0  0  0  0  0  0  0  0  0  0  0  0
    3.2841   -2.2724   -3.9240 H   0  0  0  0  0  0  0  0  0  0  0  0
    4.0639   -0.1621    1.3225 H   0  0  0  0  0  0  0  0  0  0  0  0
    1.5088   -1.5392    1.7121 H   0  0  0  0  0  0  0  0  0  0  0  0
    1.4928   -2.9370    3.5647 H   0  0  0  0  0  0  0  0  0  0  0  0
    2.9267   -3.6488    3.8871 H   0  0  0  0  0  0  0  0  0  0  0  0
    2.4018   -2.4122    4.8156 H   0  0  0  0  0  0  0  0  0  0  0  0
    0.5000    0.1340    1.0000 H   0  0  0  0  0  0  0  0  0  0  0  0
    0.8870    3.0171    1.2440 H   0  0  0  0  0  0  0  0  0  0  0  0
   -1.2290    2.9101   -0.2984 H   0  0  0  0  0  0  0  0  0  0  0  0
    1.2294    3.0007   -1.6996 H   0  0  0  0  0  0  0  0  0  0  0  0
    0.3091    5.0446   -2.5033 H   0  0  0  0  0  0  0  0  0  0  0  0
   -0.7779    3.8374   -2.6696 H   0  0  0  0  0  0  0  0  0  0  0  0
   -0.9253    4.9055   -1.4433 H   0  0  0  0  0  0  0  0  0  0  0  0
    1.9284    5.0061   -0.6225 H   0  0  0  0  0  0  0  0  0  0  0  0
    0.6941    4.8670    0.4375 H   0  0  0  0  0  0  0  0  0  0  0  0
    1.9068    3.7736    0.4484 H   0  0  0  0  0  0  0  0  0  0  0  0
   -0.3475    0.4512   -0.5094 H   0  0  0  0  0  0  0  0  0  0  0  0
   -1.2285    1.1801   -1.6753 H   0  0  0  0  0  0  0  0  0  0  0  0
    0.6836    0.2695   -2.5458 H   0  0  0  0  0  0  0  0  0  0  0  0
   -1.4879    1.4612    1.7693 H   0  0  0  0  0  0  0  0  0  0  0  0
   -1.0354    1.9072    4.0642 H   0  0  0  0  0  0  0  0  0  0  0  0
    0.2086    1.0858    3.3976 H   0  0  0  0  0  0  0  0  0  0  0  0
    0.3306    2.6959    3.6416 H   0  0  0  0  0  0  0  0  0  0  0  0
   -2.3699    3.4769    2.6800 H   0  0  0  0  0  0  0  0  0  0  0  0
   -1.0039    4.2656    2.2574 H   0  0  0  0  0  0  0  0  0  0  0  0
   -2.0039    3.6882    1.1026 H   0  0  0  0  0  0  0  0  0  0  0  0
  1  2  1  0  0  0  0
  2  3  1  0  0  0  0
  3  4  2  0  0  0  0
  4  5  1  0  0  0  0
  5  6  2  0  0  0  0
  6  7  1  0  0  0  0
  7  2  2  0  0  0  0
  4  8  1  0  0  0  0
  8  9  1  0  0  0  0
  9 10  1  0  0  0  0
 10 11  2  0  0  0  0
 10 12  1  0  0  0  0
  8 13  1  0  0  0  0
 13 14  2  0  0  0  0
 13 15  1  0  0  0  0
 15 16  1  0  0  0  0
 16 17  1  0  0  0  0
 17 18  1  0  0  0  0
 18 19  1  0  0  0  0
 18 20  1  0  0  0  0
 17 21  1  0  0  0  0
 21 22  1  0  0  0  0
 16 23  1  0  0  0  0
 23 24  1  0  0  0  0
 23 25  1  0  0  0  0
  3 26  1  0  0  0  0
  5 27  1  0  0  0  0
  6 28  1  0  0  0  0
  7 29  1  0  0  0  0
  8 30  1  0  0  0  0
  9 31  1  0  0  0  0
 12 32  1  0  0  0  0
 12 33  1  0  0  0  0
 12 34  1  0  0  0  0
 15 35  1  0  0  0  0
 16 36  1  0  0  0  0
 17 37  1  0  0  0  0
 18 38  1  0  0  0  0
 19 39  1  0  0  0  0
 19 40  1  0  0  0  0
 19 41  1  0  0  0  0
 20 42  1  0  0  0  0
 20 43  1  0  0  0  0
 20 44  1  0  0  0  0
 21 45  1  0  0  0  0
 21 46  1  0  0  0  0
 22 47  1  0  0  0  0
 23 48  1  0  0  0  0
 24 49  1  0  0  0  0
 24 50  1  0  0  0  0
 24 51  1  0  0  0  0
 25 52  1  0  0  0  0
 25 53  1  0  0  0  0
 25 54  1  0  0  0  0
M  END
>  <result-rank>
20

>  <similarity>
0.954

>  <query-name>
LIG_A_1101_CCC[C@H]([R*])C1CCC1_2

>  <query-smiles>
O=C(N[C@H](C1CCC1)CCC)[C@@H](NC(=O)C)Cc2ccc(O)cc2

>  <source>
REALspace_2019-12

>  <similarity-descriptor>
0.898;0.969;1.000;1.000;1.000;0.998;0.998;1.000;1.000;1.000;1.000;1.000;0.969;0.0;0.118

>  <similarity-descriptor-smiles>
C(CC)C;Brc1ccccc1;C=O;N;C;CC;CC;C;C;N;C=O;C;Brc1ccccc1;;C.O

>  <reaction-name>
s_22

>  <reagent1-name>
10744164

>  <reagent1-smiles>
[R1*]NC(C(C(C)C)CO)C(C)C

>  <reagent2-name>
12624298

>  <reagent2-smiles>
[R1*]C(=O)C(NC(=O)C)c1cc(Br)ccc1

$$$$
s_11a____13425816____16717356
          04022015093D 1   1.00000     0.00000     0
            
 57 59  0  0  0  0            999 V2000
    5.0852   -0.8125    2.1672 O   0  0  0  0  0  0  0  0  0  0  0  0
    3.9789   -0.3536    2.2411 C   0  0  0  0  0  0  0  0  0  0  0  0
    3.5034    0.0977    3.4441 N   0  0  0  0  0  0  0  0  0  0  0  0
    4.3497    0.0198    4.6460 C   0  0  3  0  0  0  0  0  0  0  0  0
    4.5779    1.4125    5.2165 C   0  0  0  0  0  0  0  0  0  0  0  0
    5.4679    1.3626    6.4488 C   0  0  0  0  0  0  0  0  0  0  0  0
    6.9641    1.3592    6.3027 C   0  0  0  0  0  0  0  0  0  0  0  0
    6.2634    2.5482    6.9055 C   0  0  0  0  0  0  0  0  0  0  0  0
    4.7629    0.4844    7.4722 C   0  0  0  0  0  0  0  0  0  0  0  0
    4.5511   -0.9241    6.9381 C   0  0  0  0  0  0  0  0  0  0  0  0
    3.6737   -0.8483    5.6977 C   0  0  0  0  0  0  0  0  0  0  0  0
    3.1050   -0.2731    1.0000 C   0  0  3  0  0  0  0  0  0  0  0  0
    2.3700    1.0000    1.0000 N   0  0  0  0  0  0  0  0  0  0  0  0
    1.0000    1.0000    1.0000 C   0  0  0  0  0  0  0  0  0  0  0  0
    0.4000   -0.0392    1.0000 O   0  0  0  0  0  0  0  0  0  0  0  0
    0.2400    2.3164    1.0000 C   0  0  0  0  0  0  0  0  0  0  0  0
   -1.2052    2.0477    1.0000 N   0  0  0  0  0  0  0  0  0  0  0  0
   -1.8411    1.7200    2.1684 C   0  0  0  0  0  0  0  0  0  0  0  0
   -1.2182    1.6522    3.1919 O   0  0  0  0  0  0  0  0  0  0  0  0
   -3.3355    1.4423    2.1684 C   0  0  0  0  0  0  0  0  0  0  0  0
    3.9789   -0.3536   -0.2411 C   0  0  0  0  0  0  0  0  0  0  0  0
    3.1050   -0.2731   -1.4822 C   0  0  0  0  0  0  0  0  0  0  0  0
    2.8226    0.9691   -2.0410 C   0  0  0  0  0  0  0  0  0  0  0  0
    2.0241    1.0476   -3.1770 C   0  0  0  0  0  0  0  0  0  0  0  0
    1.5177   -0.1192   -3.7409 C   0  0  0  0  0  0  0  0  0  0  0  0
    0.7420   -0.0476   -4.8432 O   0  0  0  0  0  0  0  0  0  0  0  0
    1.7968   -1.3640   -3.1858 C   0  0  0  0  0  0  0  0  0  0  0  0
    2.5962   -1.4366   -2.0500 C   0  0  0  0  0  0  0  0  0  0  0  0
    2.5815    0.4801    3.5057 H   0  0  0  0  0  0  0  0  0  0  0  0
    5.2312   -0.3847    4.4023 H   0  0  0  0  0  0  0  0  0  0  0  0
    5.0154    1.9823    4.5210 H   0  0  0  0  0  0  0  0  0  0  0  0
    3.6956    1.8109    5.4672 H   0  0  0  0  0  0  0  0  0  0  0  0
    7.3787    1.4293    5.3954 H   0  0  0  0  0  0  0  0  0  0  0  0
    7.5220    0.7618    6.8788 H   0  0  0  0  0  0  0  0  0  0  0  0
    6.3569    2.7413    7.8822 H   0  0  0  0  0  0  0  0  0  0  0  0
    6.2136    3.4089    6.3988 H   0  0  0  0  0  0  0  0  0  0  0  0
    3.8741    0.8873    7.6903 H   0  0  0  0  0  0  0  0  0  0  0  0
    5.3204    0.4382    8.3011 H   0  0  0  0  0  0  0  0  0  0  0  0
    4.1019   -1.4840    7.6344 H   0  0  0  0  0  0  0  0  0  0  0  0
    5.4336   -1.3307    6.7018 H   0  0  0  0  0  0  0  0  0  0  0  0
    3.5355   -1.7684    5.3311 H   0  0  0  0  0  0  0  0  0  0  0  0
    2.7891   -0.4497    5.9397 H   0  0  0  0  0  0  0  0  0  0  0  0
    2.4552   -1.0331    1.0000 H   0  0  0  0  0  0  0  0  0  0  0  0
    2.8700    1.8660    1.0000 H   0  0  0  0  0  0  0  0  0  0  0  0
    0.4816    2.8407    1.8165 H   0  0  0  0  0  0  0  0  0  0  0  0
    0.4816    2.8407    0.1835 H   0  0  0  0  0  0  0  0  0  0  0  0
   -1.7243    2.1042    0.1471 H   0  0  0  0  0  0  0  0  0  0  0  0
   -3.6931    1.5423    1.2399 H   0  0  0  0  0  0  0  0  0  0  0  0
   -3.5013    0.5103    2.4909 H   0  0  0  0  0  0  0  0  0  0  0  0
   -3.7952    2.0914    2.7745 H   0  0  0  0  0  0  0  0  0  0  0  0
    4.6287    0.4065   -0.2411 H   0  0  0  0  0  0  0  0  0  0  0  0
    4.4789   -1.2196   -0.2411 H   0  0  0  0  0  0  0  0  0  0  0  0
    3.1920    1.8015   -1.6279 H   0  0  0  0  0  0  0  0  0  0  0  0
    1.8154    1.9361   -3.5856 H   0  0  0  0  0  0  0  0  0  0  0  0
    0.3758   -0.8835   -5.2521 H   0  0  0  0  0  0  0  0  0  0  0  0
    1.4271   -2.1964   -3.5984 H   0  0  0  0  0  0  0  0  0  0  0  0
    2.8052   -2.3252   -1.6416 H   0  0  0  0  0  0  0  0  0  0  0  0
  1  2  2  0  0  0  0
  2  3  1  0  0  0  0
  3  4  1  0  0  0  0
  4  5  1  0  0  0  0
  5  6  1  0  0  0  0
  6  7  1  0  0  0  0
  7  8  1  0  0  0  0
  8  6  1  0  0  0  0
  6  9  1  0  0  0  0
  9 10  1  0  0  0  0
 10 11  1  0  0  0  0
 11  4  1  0  0  0  0
  2 12  1  0  0  0  0
 12 13  1  0  0  0  0
 13 14  1  0  0  0  0
 14 15  2  0  0  0  0
 14 16  1  0  0  0  0
 16 17  1  0  0  0  0
 17 18  1  0  0  0  0
 18 19  2  0  0  0  0
 18 20  1  0  0  0  0
 12 21  1  0  0  0  0
 21 22  1  0  0  0  0
 22 23  1  0  0  0  0
 23 24  2  0  0  0  0
 24 25  1  0  0  0  0
 25 26  1  0  0  0  0
 25 27  2  0  0  0  0
 27 28  1  0  0  0  0
 28 22  2  0  0  0  0
  3 29  1  0  0  0  0
  4 30  1  0  0  0  0
  5 31  1  0  0  0  0
  5 32  1  0  0  0  0
  7 33  1  0  0  0  0
  7 34  1  0  0  0  0
  8 35  1  0  0  0  0
  8 36  1  0  0  0  0
  9 37  1  0  0  0  0
  9 38  1  0  0  0  0
 10 39  1  0  0  0  0
 10 40  1  0  0  0  0
 11 41  1  0  0  0  0
 11 42  1  0  0  0  0
 12 43  1  0  0  0  0
 13 44  1  0  0  0  0
 16 45  1  0  0  0  0
 16 46  1  0  0  0  0
 17 47  1  0  0  0  0
 20 48  1  0  0  0  0
 20 49  1  0  0  0  0
 20 50  1  0  0  0  0
 21 51  1  0  0  0  0
 21 52  1  0  0  0  0
 23 53  1  0  0  0  0
 24 54  1  0  0  0  0
 26 55  1  0  0  0  0
 27 56  1  0  0  0  0
 28 57  1  0  0  0  0
M  END
>  <result-rank>
21

>  <similarity>
0.954

>  <query-name>
LIG_A_1101_CCC[C@H]([R*])C1CCC1_2

>  <query-smiles>
O=C(N[C@H](C1CCC1)CCC)[C@@H](NC(=O)C)Cc2ccc(O)cc2

>  <source>
REALspace_2019-12

>  <similarity-descriptor>
0.983;1.000;1.000;1.000;0.983;0.894;0.894;0.0;1.000;1.000;1.000;0.955;1.000;1.000;0.214

>  <similarity-descriptor-smiles>
C1CCCCC1;c1ccccc1;O=C;N;C1CCCCC1;C1CC1;C1CC1;;C;N;C=O;C;C;O;N.C=O.C

>  <reaction-name>
s_11a

>  <reagent1-name>
13425816

>  <reagent1-smiles>
[R1*]NC1CC2(CC2)CCC1

>  <reagent2-name>
16717356

>  <reagent2-smiles>
[R1*]C(=O)C(NC(=O)CNC(=O)C)Cc1ccc(O)cc1

$$$$
s_272212____13256134____12907916
          04022015093D 1   1.00000     0.00000     0
            
 52 54  0  0  0  0            999 V2000
    7.2551    6.0772    5.0050 F   0  0  0  0  0  0  0  0  0  0  0  0
    7.3694    4.8072    5.3838 C   0  0  0  0  0  0  0  0  0  0  0  0
    7.0453    4.4418    6.6864 C   0  0  0  0  0  0  0  0  0  0  0  0
    7.1682    3.1119    7.0756 C   0  0  0  0  0  0  0  0  0  0  0  0
    7.6127    2.1646    6.1593 C   0  0  0  0  0  0  0  0  0  0  0  0
    7.9347    2.5355    4.8582 C   0  0  0  0  0  0  0  0  0  0  0  0
    7.8135    3.8636    4.4633 C   0  0  0  0  0  0  0  0  0  0  0  0
    7.7449    0.7134    6.5909 C   0  0  0  0  0  0  0  0  0  0  0  0
    6.4338   -0.0152    6.3299 C   0  0  3  0  0  0  0  0  0  0  0  0
    5.4042    0.6664    7.1141 N   0  0  0  0  0  0  0  0  0  0  0  0
    4.5138    1.2870    6.2378 C   0  0  0  0  0  0  0  0  0  0  0  0
    3.5507    1.9533    6.5762 O   0  0  0  0  0  0  0  0  0  0  0  0
    4.8866    1.0330    4.9186 N   0  0  0  0  0  0  0  0  0  0  0  0
    6.0293    0.2371    4.8959 C   0  0  0  0  0  0  0  0  0  0  0  0
    6.5915   -0.1888    3.9010 O   0  0  0  0  0  0  0  0  0  0  0  0
    4.1731    1.5210    3.7307 C   0  0  0  0  0  0  0  0  0  0  0  0
    4.1423    3.0416    3.7326 C   0  0  0  0  0  0  0  0  0  0  0  0
    3.3836    3.5389    2.5124 C   0  0  0  0  0  0  0  0  0  0  0  0
    2.0132    3.0059    2.4862 N   0  3  3  0  0  0  0  0  0  0  0  0
    2.0020    1.5354    2.5080 C   0  0  0  0  0  0  0  0  0  0  0  0
    2.7414    1.0098    3.7282 C   0  0  0  0  0  0  0  0  0  0  0  0
    1.2711    3.5130    1.3202 C   0  0  0  0  0  0  0  0  0  0  0  0
   -0.1372    2.9412    1.3280 C   0  0  0  0  0  0  0  0  0  0  0  0
   -0.9033    3.4647    0.1241 C   0  0  0  0  0  0  0  0  0  0  0  0
    6.5697   -1.4909    6.6593 C   0  0  0  0  0  0  0  0  0  0  0  0
    1.5449    3.3270    3.3094 H   0  0  0  0  0  0  0  0  0  0  0  0
    6.7264    5.1300    7.3381 H   0  0  0  0  0  0  0  0  0  0  0  0
    6.9381    2.8383    8.0095 H   0  0  0  0  0  0  0  0  0  0  0  0
    8.2534    1.8472    4.2065 H   0  0  0  0  0  0  0  0  0  0  0  0
    8.0428    4.1368    3.5291 H   0  0  0  0  0  0  0  0  0  0  0  0
    7.9595    0.6741    7.5668 H   0  0  0  0  0  0  0  0  0  0  0  0
    8.4784    0.2764    6.0705 H   0  0  0  0  0  0  0  0  0  0  0  0
    5.3481    0.6844    8.1123 H   0  0  0  0  0  0  0  0  0  0  0  0
    4.6413    1.1999    2.9075 H   0  0  0  0  0  0  0  0  0  0  0  0
    5.0780    3.3934    3.7086 H   0  0  0  0  0  0  0  0  0  0  0  0
    3.6861    3.3640    4.5621 H   0  0  0  0  0  0  0  0  0  0  0  0
    3.3449    4.5378    2.5368 H   0  0  0  0  0  0  0  0  0  0  0  0
    3.8644    3.2440    1.6866 H   0  0  0  0  0  0  0  0  0  0  0  0
    2.4472    1.1915    1.6812 H   0  0  0  0  0  0  0  0  0  0  0  0
    1.0552    1.2147    2.5347 H   0  0  0  0  0  0  0  0  0  0  0  0
    2.2769    1.3226    4.5567 H   0  0  0  0  0  0  0  0  0  0  0  0
    2.7470    0.0101    3.7065 H   0  0  0  0  0  0  0  0  0  0  0  0
    1.7389    3.2354    0.4810 H   0  0  0  0  0  0  0  0  0  0  0  0
    1.2259    4.5110    1.3621 H   0  0  0  0  0  0  0  0  0  0  0  0
   -0.6049    3.2187    2.1672 H   0  0  0  0  0  0  0  0  0  0  0  0
   -0.0920    1.9431    1.2861 H   0  0  0  0  0  0  0  0  0  0  0  0
   -1.8299    3.0885    0.1293 H   0  0  0  0  0  0  0  0  0  0  0  0
   -0.9485    4.4628    0.1661 H   0  0  0  0  0  0  0  0  0  0  0  0
   -0.4356    3.1872   -0.7150 H   0  0  0  0  0  0  0  0  0  0  0  0
    7.2867   -1.8947    6.0911 H   0  0  0  0  0  0  0  0  0  0  0  0
    6.8102   -1.5963    7.6243 H   0  0  0  0  0  0  0  0  0  0  0  0
    5.7017   -1.9539    6.4797 H   0  0  0  0  0  0  0  0  0  0  0  0
  1  2  1  0  0  0  0
  2  3  1  0  0  0  0
  3  4  2  0  0  0  0
  4  5  1  0  0  0  0
  5  6  2  0  0  0  0
  6  7  1  0  0  0  0
  7  2  2  0  0  0  0
  5  8  1  0  0  0  0
  8  9  1  0  0  0  0
  9 10  1  0  0  0  0
 10 11  1  0  0  0  0
 11 12  2  0  0  0  0
 11 13  1  0  0  0  0
 13 14  1  0  0  0  0
 14  9  1  0  0  0  0
 14 15  2  0  0  0  0
 13 16  1  0  0  0  0
 16 17  1  0  0  0  0
 17 18  1  0  0  0  0
 18 19  1  0  0  0  0
 19 20  1  0  0  0  0
 20 21  1  0  0  0  0
 21 16  1  0  0  0  0
 19 22  1  0  0  0  0
 22 23  1  0  0  0  0
 23 24  1  0  0  0  0
  9 25  1  0  0  0  0
 19 26  1  0  0  0  0
  3 27  1  0  0  0  0
  4 28  1  0  0  0  0
  6 29  1  0  0  0  0
  7 30  1  0  0  0  0
  8 31  1  0  0  0  0
  8 32  1  0  0  0  0
 10 33  1  0  0  0  0
 16 34  1  0  0  0  0
 17 35  1  0  0  0  0
 17 36  1  0  0  0  0
 18 37  1  0  0  0  0
 18 38  1  0  0  0  0
 20 39  1  0  0  0  0
 20 40  1  0  0  0  0
 21 41  1  0  0  0  0
 21 42  1  0  0  0  0
 22 43  1  0  0  0  0
 22 44  1  0  0  0  0
 23 45  1  0  0  0  0
 23 46  1  0  0  0  0
 24 47  1  0  0  0  0
 24 48  1  0  0  0  0
 24 49  1  0  0  0  0
 25 50  1  0  0  0  0
 25 51  1  0  0  0  0
 25 52  1  0  0  0  0
M  CHG  1  19   1
M  END
>  <result-rank>
22

>  <similarity>
0.954

>  <query-name>
LIG_A_1101_CCC[C@H]([R*])C1CCC1_2

>  <query-smiles>
O=C(N[C@H](C1CCC1)CCC)[C@@H](NC(=O)C)Cc2ccc(O)cc2

>  <source>
REALspace_2019-12

>  <similarity-descriptor>
0.990;0.983;0.878;0.990;0.990;0.993;1.000;1.000;0.878;0.878;0.878;1.000;1.000;0.0;0.0

>  <similarity-descriptor-smiles>
C1CC[NH+]CC1;Fc1ccccc1;C1C(NC(N1)=O)=O;C1CC[NH+]CC1;C1CC[NH+]CC1;C;C;C;C1C(NC(N1)=O)=O;C1C(NC(N1)=O)=O;C1C(NC(N1)=O)=O;C;C;;

>  <reaction-name>
s_272212

>  <reagent1-name>
13256134

>  <reagent1-smiles>
[R2*]N(C([R1*])=O)C1CCN(CC1)CCC

>  <reagent2-name>
12907916

>  <reagent2-smiles>
[R1*]NC(C([R2*])=O)(Cc1ccc(F)cc1)C

$$$$
s_22____8253308____220032
          04022015093D 1   1.00000     0.00000     0
            
 49 50  0  0  0  0            999 V2000
    1.9658    0.0276   -2.6295 S   0  0  0  0  0  0  0  0  0  0  0  0
    3.0192    0.2367   -1.3103 C   0  0  0  0  0  0  0  0  0  0  0  0
    3.8385   -0.8481   -1.2686 C   0  0  0  0  0  0  0  0  0  0  0  0
    3.5641   -1.7939   -2.2950 C   0  0  0  0  0  0  0  0  0  0  0  0
    2.5515   -1.4833   -3.1523 C   0  0  0  0  0  0  0  0  0  0  0  0
    3.0267    1.4309   -0.3667 C   0  0  3  0  0  0  0  0  0  0  0  0
    4.3972    1.9473   -0.2408 N   0  0  0  0  0  0  0  0  0  0  0  0
    4.6793    3.2374   -0.6054 C   0  0  0  0  0  0  0  0  0  0  0  0
    3.8076    3.9459   -1.0276 O   0  0  0  0  0  0  0  0  0  0  0  0
    6.0965    3.7714   -0.4752 C   0  0  0  0  0  0  0  0  0  0  0  0
    2.5200    1.0000    1.0000 C   0  0  0  0  0  0  0  0  0  0  0  0
    1.0000    1.0000    1.0000 C   0  0  0  0  0  0  0  0  0  0  0  0
    0.4000    1.0000   -0.0392 O   0  0  0  0  0  0  0  0  0  0  0  0
    0.3150    1.0000    2.1865 N   0  0  0  0  0  0  0  0  0  0  0  0
   -1.1550    1.0000    2.1865 C   0  0  0  0  0  0  0  0  0  0  0  0
   -1.6606   -0.2424    2.9037 C   0  0  0  0  0  0  0  0  0  0  0  0
   -3.1797   -0.2131    2.9922 C   0  0  0  0  0  0  0  0  0  0  0  0
   -3.6926    1.0398    3.6898 C   0  0  3  0  0  0  0  0  0  0  0  0
   -5.1120    1.0304    3.6903 O   0  0  0  0  0  0  0  0  0  0  0  0
   -3.1926    2.2495    2.9130 C   0  0  0  0  0  0  0  0  0  0  0  0
   -1.6759    2.2874    2.8045 C   0  0  0  0  0  0  0  0  0  0  0  0
   -3.2570    1.0920    5.1467 C   0  0  0  0  0  0  0  0  0  0  0  0
   -3.9793    2.2289    5.8511 C   0  0  0  0  0  0  0  0  0  0  0  0
    4.5597   -0.9684   -0.5864 H   0  0  0  0  0  0  0  0  0  0  0  0
    4.0866   -2.6420   -2.3828 H   0  0  0  0  0  0  0  0  0  0  0  0
    2.2223   -2.0270   -3.9244 H   0  0  0  0  0  0  0  0  0  0  0  0
    2.4326    2.1478   -0.7317 H   0  0  0  0  0  0  0  0  0  0  0  0
    5.1236    1.3569    0.1110 H   0  0  0  0  0  0  0  0  0  0  0  0
    6.6906    3.0545   -0.1102 H   0  0  0  0  0  0  0  0  0  0  0  0
    6.4298    4.0549   -1.3743 H   0  0  0  0  0  0  0  0  0  0  0  0
    6.1014    4.5560    0.1448 H   0  0  0  0  0  0  0  0  0  0  0  0
    2.8533    0.0795    1.2041 H   0  0  0  0  0  0  0  0  0  0  0  0
    2.8533    1.6370    1.6951 H   0  0  0  0  0  0  0  0  0  0  0  0
    0.8150    1.0000    3.0525 H   0  0  0  0  0  0  0  0  0  0  0  0
   -1.4670    0.9610    1.2372 H   0  0  0  0  0  0  0  0  0  0  0  0
   -1.2760   -0.2712    3.8264 H   0  0  0  0  0  0  0  0  0  0  0  0
   -1.3743   -1.0560    2.3977 H   0  0  0  0  0  0  0  0  0  0  0  0
   -3.5566   -0.2431    2.0665 H   0  0  0  0  0  0  0  0  0  0  0  0
   -3.4878   -1.0152    3.5037 H   0  0  0  0  0  0  0  0  0  0  0  0
   -5.4507    1.8524    4.1481 H   0  0  0  0  0  0  0  0  0  0  0  0
   -3.5014    3.0792    3.3781 H   0  0  0  0  0  0  0  0  0  0  0  0
   -3.5792    2.2206    1.9912 H   0  0  0  0  0  0  0  0  0  0  0  0
   -1.4061    3.0608    2.2309 H   0  0  0  0  0  0  0  0  0  0  0  0
   -1.2832    2.3967    3.7177 H   0  0  0  0  0  0  0  0  0  0  0  0
   -2.2698    1.2440    5.1942 H   0  0  0  0  0  0  0  0  0  0  0  0
   -3.4828    0.2262    5.5933 H   0  0  0  0  0  0  0  0  0  0  0  0
   -3.6930    2.2631    6.8086 H   0  0  0  0  0  0  0  0  0  0  0  0
   -3.7535    3.0947    5.4045 H   0  0  0  0  0  0  0  0  0  0  0  0
   -4.9665    2.0768    5.8035 H   0  0  0  0  0  0  0  0  0  0  0  0
  1  2  1  0  0  0  0
  2  3  2  0  0  0  0
  3  4  1  0  0  0  0
  4  5  2  0  0  0  0
  5  1  1  0  0  0  0
  2  6  1  0  0  0  0
  6  7  1  0  0  0  0
  7  8  1  0  0  0  0
  8  9  2  0  0  0  0
  8 10  1  0  0  0  0
  6 11  1  0  0  0  0
 11 12  1  0  0  0  0
 12 13  2  0  0  0  0
 12 14  1  0  0  0  0
 14 15  1  0  0  0  0
 15 16  1  0  0  0  0
 16 17  1  0  0  0  0
 17 18  1  0  0  0  0
 18 19  1  0  0  0  0
 18 20  1  0  0  0  0
 20 21  1  0  0  0  0
 21 15  1  0  0  0  0
 18 22  1  0  0  0  0
 22 23  1  0  0  0  0
  3 24  1  0  0  0  0
  4 25  1  0  0  0  0
  5 26  1  0  0  0  0
  6 27  1  0  0  0  0
  7 28  1  0  0  0  0
 10 29  1  0  0  0  0
 10 30  1  0  0  0  0
 10 31  1  0  0  0  0
 11 32  1  0  0  0  0
 11 33  1  0  0  0  0
 14 34  1  0  0  0  0
 15 35  1  0  0  0  0
 16 36  1  0  0  0  0
 16 37  1  0  0  0  0
 17 38  1  0  0  0  0
 17 39  1  0  0  0  0
 19 40  1  0  0  0  0
 20 41  1  0  0  0  0
 20 42  1  0  0  0  0
 21 43  1  0  0  0  0
 21 44  1  0  0  0  0
 22 45  1  0  0  0  0
 22 46  1  0  0  0  0
 23 47  1  0  0  0  0
 23 48  1  0  0  0  0
 23 49  1  0  0  0  0
M  END
>  <result-rank>
23

>  <similarity>
0.954

>  <query-name>
LIG_A_1101_CCC[C@H]([R*])C1CCC1_2

>  <query-smiles>
O=C(N[C@H](C1CCC1)CCC)[C@@H](NC(=O)C)Cc2ccc(O)cc2

>  <source>
REALspace_2019-12

>  <similarity-descriptor>
0.978;0.924;1.000;1.000;0.978;1.000;0.949;0.0;1.000;1.000;1.000;1.000;1.000;0.0;0.083

>  <similarity-descriptor-smiles>
C1CCCCC1;S1C=CC=C1;C=O;N;C1CCCCC1;C;C;;CC;N;C=O;C;CC;;O

>  <reaction-name>
s_22

>  <reagent1-name>
8253308

>  <reagent1-smiles>
[R1*]NC1CCC(O)(CC1)CC

>  <reagent2-name>
220032

>  <reagent2-smiles>
[R1*]C(=O)CC(NC(=O)C)C=1SC=CC1

$$$$
s_22____4995050____59693
          04022015093D 1   1.00000     0.00000     0
            
 57 58  0  0  0  0            999 V2000
    3.0596    0.0662    0.3214 O   0  0  0  0  0  0  0  0  0  0  0  0
    1.8776    0.1224    0.1224 C   0  0  0  0  0  0  0  0  0  0  0  0
    1.3062   -0.6210   -0.9191 N   0  0  0  0  0  0  0  0  0  0  0  0
    2.1739   -1.4654   -1.7582 C   0  0  0  0  0  0  0  0  0  0  0  0
    2.3252   -2.8761   -1.2076 C   0  0  0  0  0  0  0  0  0  0  0  0
    1.0718   -3.7108   -1.4254 C   0  0  3  0  0  0  0  0  0  0  0  0
    1.2932   -5.0673   -0.7799 C   0  0  0  0  0  0  0  0  0  0  0  0
    0.0579   -5.9305   -0.9782 C   0  0  0  0  0  0  0  0  0  0  0  0
    2.4929   -5.7444   -1.4223 C   0  0  0  0  0  0  0  0  0  0  0  0
    1.5504   -4.8849    0.7070 C   0  0  0  0  0  0  0  0  0  0  0  0
   -0.1903   -3.0965   -0.8328 C   0  0  0  0  0  0  0  0  0  0  0  0
   -0.7246   -1.8989   -1.6115 C   0  0  0  0  0  0  0  0  0  0  0  0
   -0.1445   -0.5639   -1.1623 C   0  0  0  0  0  0  0  0  0  0  0  0
    1.0000    1.0000    1.0000 C   0  0  0  0  0  0  0  0  0  0  0  0
    1.8776    1.8776    1.8776 C   0  0  3  0  0  0  0  0  0  0  0  0
    1.0385    2.8494    2.5935 N   0  0  0  0  0  0  0  0  0  0  0  0
    1.2401    4.1924    2.4132 C   0  0  0  0  0  0  0  0  0  0  0  0
    2.1015    4.5755    1.6708 O   0  0  0  0  0  0  0  0  0  0  0  0
    0.3725    5.1972    3.1535 C   0  0  0  0  0  0  0  0  0  0  0  0
    2.6180    1.0098    2.8826 C   0  0  0  0  0  0  0  0  0  0  0  0
    1.8991    0.1966    3.7524 C   0  0  0  0  0  0  0  0  0  0  0  0
    2.5805   -0.5952    4.6711 C   0  0  0  0  0  0  0  0  0  0  0  0
    3.9705   -0.5709    4.7142 C   0  0  0  0  0  0  0  0  0  0  0  0
    4.6783    0.2450    3.8401 C   0  0  0  0  0  0  0  0  0  0  0  0
    4.0085    1.0418    2.9174 C   0  0  0  0  0  0  0  0  0  0  0  0
    3.0788   -1.0430   -1.8101 H   0  0  0  0  0  0  0  0  0  0  0  0
    1.7783   -1.5199   -2.6750 H   0  0  0  0  0  0  0  0  0  0  0  0
    3.0935   -3.3214   -1.6675 H   0  0  0  0  0  0  0  0  0  0  0  0
    2.5102   -2.8215   -0.2264 H   0  0  0  0  0  0  0  0  0  0  0  0
    0.9370   -3.8396   -2.4079 H   0  0  0  0  0  0  0  0  0  0  0  0
    0.2037   -6.8238   -0.5531 H   0  0  0  0  0  0  0  0  0  0  0  0
   -0.7314   -5.4850   -0.5556 H   0  0  0  0  0  0  0  0  0  0  0  0
   -0.1114   -6.0505   -1.9564 H   0  0  0  0  0  0  0  0  0  0  0  0
    2.6387   -6.6377   -0.9972 H   0  0  0  0  0  0  0  0  0  0  0  0
    2.3236   -5.8644   -2.4005 H   0  0  0  0  0  0  0  0  0  0  0  0
    3.3056   -5.1765   -1.2918 H   0  0  0  0  0  0  0  0  0  0  0  0
    1.6962   -5.7782    1.1322 H   0  0  0  0  0  0  0  0  0  0  0  0
    2.3632   -4.3170    0.8375 H   0  0  0  0  0  0  0  0  0  0  0  0
    0.7612   -4.4394    1.1297 H   0  0  0  0  0  0  0  0  0  0  0  0
    0.0133   -2.7991    0.1000 H   0  0  0  0  0  0  0  0  0  0  0  0
   -0.9013   -3.7993   -0.8109 H   0  0  0  0  0  0  0  0  0  0  0  0
   -0.5051   -2.0285   -2.5785 H   0  0  0  0  0  0  0  0  0  0  0  0
   -1.7174   -1.8658   -1.4965 H   0  0  0  0  0  0  0  0  0  0  0  0
   -0.3221    0.1163   -1.8734 H   0  0  0  0  0  0  0  0  0  0  0  0
   -0.5992   -0.2875   -0.3156 H   0  0  0  0  0  0  0  0  0  0  0  0
    0.4226    0.4226    1.5774 H   0  0  0  0  0  0  0  0  0  0  0  0
    0.4226    1.5774    0.4226 H   0  0  0  0  0  0  0  0  0  0  0  0
    2.5386    2.3646    1.3068 H   0  0  0  0  0  0  0  0  0  0  0  0
    0.3207    2.5301    3.2122 H   0  0  0  0  0  0  0  0  0  0  0  0
   -0.2886    4.7102    3.7242 H   0  0  0  0  0  0  0  0  0  0  0  0
    0.9499    5.7746    3.7308 H   0  0  0  0  0  0  0  0  0  0  0  0
   -0.1145    5.7680    2.4924 H   0  0  0  0  0  0  0  0  0  0  0  0
    0.8998    0.1812    3.7177 H   0  0  0  0  0  0  0  0  0  0  0  0
    2.0709   -1.1819    5.3005 H   0  0  0  0  0  0  0  0  0  0  0  0
    4.4604   -1.1405    5.3741 H   0  0  0  0  0  0  0  0  0  0  0  0
    5.6776    0.2594    3.8746 H   0  0  0  0  0  0  0  0  0  0  0  0
    4.5187    1.6287    2.2886 H   0  0  0  0  0  0  0  0  0  0  0  0
  1  2  2  0  0  0  0
  2  3  1  0  0  0  0
  3  4  1  0  0  0  0
  4  5  1  0  0  0  0
  5  6  1  0  0  0  0
  6  7  1  0  0  0  0
  7  8  1  0  0  0  0
  7  9  1  0  0  0  0
  7 10  1  0  0  0  0
  6 11  1  0  0  0  0
 11 12  1  0  0  0  0
 12 13  1  0  0  0  0
 13  3  1  0  0  0  0
  2 14  1  0  0  0  0
 14 15  1  0  0  0  0
 15 16  1  0  0  0  0
 16 17  1  0  0  0  0
 17 18  2  0  0  0  0
 17 19  1  0  0  0  0
 15 20  1  0  0  0  0
 20 21  1  0  0  0  0
 21 22  2  0  0  0  0
 22 23  1  0  0  0  0
 23 24  2  0  0  0  0
 24 25  1  0  0  0  0
 25 20  2  0  0  0  0
  4 26  1  0  0  0  0
  4 27  1  0  0  0  0
  5 28  1  0  0  0  0
  5 29  1  0  0  0  0
  6 30  1  0  0  0  0
  8 31  1  0  0  0  0
  8 32  1  0  0  0  0
  8 33  1  0  0  0  0
  9 34  1  0  0  0  0
  9 35  1  0  0  0  0
  9 36  1  0  0  0  0
 10 37  1  0  0  0  0
 10 38  1  0  0  0  0
 10 39  1  0  0  0  0
 11 40  1  0  0  0  0
 11 41  1  0  0  0  0
 12 42  1  0  0  0  0
 12 43  1  0  0  0  0
 13 44  1  0  0  0  0
 13 45  1  0  0  0  0
 14 46  1  0  0  0  0
 14 47  1  0  0  0  0
 15 48  1  0  0  0  0
 16 49  1  0  0  0  0
 19 50  1  0  0  0  0
 19 51  1  0  0  0  0
 19 52  1  0  0  0  0
 21 53  1  0  0  0  0
 22 54  1  0  0  0  0
 23 55  1  0  0  0  0
 24 56  1  0  0  0  0
 25 57  1  0  0  0  0
M  END
>  <result-rank>
24

>  <similarity>
0.953

>  <query-name>
LIG_A_1101_CCC[C@H]([R*])C1CCC1_2

>  <query-smiles>
O=C(N[C@H](C1CCC1)CCC)[C@@H](NC(=O)C)Cc2ccc(O)cc2

>  <source>
REALspace_2019-12

>  <similarity-descriptor>
0.983;0.960;0.852;0.852;0.983;0.983;0.964;0.964;1.000;1.000;1.000;1.000;1.000;0.0;0.083

>  <similarity-descriptor-smiles>
N1CCCCCC1;c1ccccc1;O=C;O=C;N1CCCCCC1;N1CCCCCC1;C(C)C;C(C)C;CC;N;C=O;C;CC;;C

>  <reaction-name>
s_22

>  <reagent1-name>
4995050

>  <reagent1-smiles>
[R1*]N1CCC(C(C)(C)C)CCC1

>  <reagent2-name>
59693

>  <reagent2-smiles>
[R1*]C(=O)CC(NC(=O)C)c1ccccc1

$$$$
s_22____564362____13022876
          04022015093D 1   1.00000     0.00000     0
            
 61 62  0  0  0  0            999 V2000
    0.8843    0.7310    3.2080 O   0  0  0  0  0  0  0  0  0  0  0  0
    0.3150    1.0000    2.1865 C   0  0  0  0  0  0  0  0  0  0  0  0
    1.0000    1.0000    1.0000 N   0  0  0  0  0  0  0  0  0  0  0  0
    2.4700    1.0000    1.0000 C   0  0  0  0  0  0  0  0  0  0  0  0
    2.9768    2.4335    1.0000 C   0  0  0  0  0  0  0  0  0  0  0  0
    3.2087    3.0892   -0.2051 C   0  0  0  0  0  0  0  0  0  0  0  0
    2.9894    2.4672   -1.3834 O   0  0  0  0  0  0  0  0  0  0  0  0
    3.2315    3.1520   -2.6036 C   0  0  0  0  0  0  0  0  0  0  0  0
    2.9082    2.2351   -3.7720 C   0  0  0  0  0  0  0  0  0  0  0  0
    3.6727    4.4009   -0.2052 C   0  0  0  0  0  0  0  0  0  0  0  0
    3.9042    5.0569    1.0000 C   0  0  0  0  0  0  0  0  0  0  0  0
    3.6715    4.4010    2.2048 C   0  0  0  0  0  0  0  0  0  0  0  0
    3.2074    3.0897    2.2045 C   0  0  0  0  0  0  0  0  0  0  0  0
    0.2650    1.0000   -0.2731 C   0  0  0  0  0  0  0  0  0  0  0  0
   -0.1234   -0.4246   -0.6338 C   0  0  3  0  0  0  0  0  0  0  0  0
    1.0482   -1.2162   -0.7637 O   0  0  0  0  0  0  0  0  0  0  0  0
   -0.8834   -0.4246   -1.9502 C   0  0  0  0  0  0  0  0  0  0  0  0
   -1.1663    1.3407    2.2089 C   0  0  3  0  0  0  0  0  0  0  0  0
   -1.4090    2.7395    2.7575 C   0  0  0  0  0  0  0  0  0  0  0  0
   -2.8429    3.0707    2.8012 N   0  3  3  0  0  0  0  0  0  0  0  0
   -3.5870    2.0989    3.6166 C   0  0  0  0  0  0  0  0  0  0  0  0
   -3.3991    0.6885    3.0811 C   0  0  0  0  0  0  0  0  0  0  0  0
   -1.9195    0.3383    3.0680 C   0  0  0  0  0  0  0  0  0  0  0  0
   -3.0408    4.4453    3.2993 C   0  0  0  0  0  0  0  0  0  0  0  0
   -4.4855    4.6225    3.7372 C   0  0  0  0  0  0  0  0  0  0  0  0
   -4.6893    6.0387    4.2502 C   0  0  0  0  0  0  0  0  0  0  0  0
   -3.1985    3.0266    1.8676 H   0  0  0  0  0  0  0  0  0  0  0  0
    2.8033    0.5286    0.1835 H   0  0  0  0  0  0  0  0  0  0  0  0
    2.8033    0.5286    1.8165 H   0  0  0  0  0  0  0  0  0  0  0  0
    4.1931    3.4230   -2.6487 H   0  0  0  0  0  0  0  0  0  0  0  0
    2.6532    3.9666   -2.6491 H   0  0  0  0  0  0  0  0  0  0  0  0
    3.0787    2.7174   -4.6313 H   0  0  0  0  0  0  0  0  0  0  0  0
    3.4865    1.4206   -3.7265 H   0  0  0  0  0  0  0  0  0  0  0  0
    1.9467    1.9642   -3.7269 H   0  0  0  0  0  0  0  0  0  0  0  0
    3.8397    4.8722   -1.0712 H   0  0  0  0  0  0  0  0  0  0  0  0
    4.2377    5.9997    1.0002 H   0  0  0  0  0  0  0  0  0  0  0  0
    3.8380    4.8723    3.0709 H   0  0  0  0  0  0  0  0  0  0  0  0
    3.0395    2.6186    3.0705 H   0  0  0  0  0  0  0  0  0  0  0  0
    0.8457    1.3797   -0.9932 H   0  0  0  0  0  0  0  0  0  0  0  0
   -0.5601    1.5575   -0.1816 H   0  0  0  0  0  0  0  0  0  0  0  0
   -0.7041   -0.8043    0.0863 H   0  0  0  0  0  0  0  0  0  0  0  0
    0.7927   -2.1534   -1.0011 H   0  0  0  0  0  0  0  0  0  0  0  0
   -1.7086    0.1329   -1.8587 H   0  0  0  0  0  0  0  0  0  0  0  0
   -0.3028   -0.0448   -2.6704 H   0  0  0  0  0  0  0  0  0  0  0  0
   -1.1390   -1.3618   -2.1876 H   0  0  0  0  0  0  0  0  0  0  0  0
   -1.5212    1.2952    1.2751 H   0  0  0  0  0  0  0  0  0  0  0  0
   -1.0364    2.7926    3.6840 H   0  0  0  0  0  0  0  0  0  0  0  0
   -0.9418    3.4020    2.1719 H   0  0  0  0  0  0  0  0  0  0  0  0
   -4.5596    2.3304    3.5962 H   0  0  0  0  0  0  0  0  0  0  0  0
   -3.2545    2.1388    4.5588 H   0  0  0  0  0  0  0  0  0  0  0  0
   -3.7616    0.6352    2.1506 H   0  0  0  0  0  0  0  0  0  0  0  0
   -3.8884    0.0426    3.6669 H   0  0  0  0  0  0  0  0  0  0  0  0
   -1.5627    0.3657    4.0017 H   0  0  0  0  0  0  0  0  0  0  0  0
   -1.7982   -0.5802    2.6916 H   0  0  0  0  0  0  0  0  0  0  0  0
   -2.8309    5.0972    2.5706 H   0  0  0  0  0  0  0  0  0  0  0  0
   -2.4342    4.6084    4.0774 H   0  0  0  0  0  0  0  0  0  0  0  0
   -4.6953    3.9705    4.4658 H   0  0  0  0  0  0  0  0  0  0  0  0
   -5.0921    4.4594    2.9590 H   0  0  0  0  0  0  0  0  0  0  0  0
   -5.6398    6.1553    4.5383 H   0  0  0  0  0  0  0  0  0  0  0  0
   -4.0828    6.2018    5.0284 H   0  0  0  0  0  0  0  0  0  0  0  0
   -4.4795    6.6906    3.5216 H   0  0  0  0  0  0  0  0  0  0  0  0
  1  2  2  0  0  0  0
  2  3  1  0  0  0  0
  3  4  1  0  0  0  0
  4  5  1  0  0  0  0
  5  6  1  0  0  0  0
  6  7  1  0  0  0  0
  7  8  1  0  0  0  0
  8  9  1  0  0  0  0
  6 10  2  0  0  0  0
 10 11  1  0  0  0  0
 11 12  2  0  0  0  0
 12 13  1  0  0  0  0
 13  5  2  0  0  0  0
  3 14  1  0  0  0  0
 14 15  1  0  0  0  0
 15 16  1  0  0  0  0
 15 17  1  0  0  0  0
  2 18  1  0  0  0  0
 18 19  1  0  0  0  0
 19 20  1  0  0  0  0
 20 21  1  0  0  0  0
 21 22  1  0  0  0  0
 22 23  1  0  0  0  0
 23 18  1  0  0  0  0
 20 24  1  0  0  0  0
 24 25  1  0  0  0  0
 25 26  1  0  0  0  0
 20 27  1  0  0  0  0
  4 28  1  0  0  0  0
  4 29  1  0  0  0  0
  8 30  1  0  0  0  0
  8 31  1  0  0  0  0
  9 32  1  0  0  0  0
  9 33  1  0  0  0  0
  9 34  1  0  0  0  0
 10 35  1  0  0  0  0
 11 36  1  0  0  0  0
 12 37  1  0  0  0  0
 13 38  1  0  0  0  0
 14 39  1  0  0  0  0
 14 40  1  0  0  0  0
 15 41  1  0  0  0  0
 16 42  1  0  0  0  0
 17 43  1  0  0  0  0
 17 44  1  0  0  0  0
 17 45  1  0  0  0  0
 18 46  1  0  0  0  0
 19 47  1  0  0  0  0
 19 48  1  0  0  0  0
 21 49  1  0  0  0  0
 21 50  1  0  0  0  0
 22 51  1  0  0  0  0
 22 52  1  0  0  0  0
 23 53  1  0  0  0  0
 23 54  1  0  0  0  0
 24 55  1  0  0  0  0
 24 56  1  0  0  0  0
 25 57  1  0  0  0  0
 25 58  1  0  0  0  0
 26 59  1  0  0  0  0
 26 60  1  0  0  0  0
 26 61  1  0  0  0  0
M  CHG  1  20   1
M  END
>  <result-rank>
25

>  <similarity>
0.953

>  <query-name>
LIG_A_1101_CCC[C@H]([R*])C1CCC1_2

>  <query-smiles>
O=C(N[C@H](C1CCC1)CCC)[C@@H](NC(=O)C)Cc2ccc(O)cc2

>  <source>
REALspace_2019-12

>  <similarity-descriptor>
0.991;1.000;1.000;0.991;0.991;0.993;1.000;1.000;0.953;0.856;0.856;1.000;0.953;0.704;0.133

>  <similarity-descriptor-smiles>
C1CCC[NH+]C1;c1ccccc1;O=C;C1CCC[NH+]C1;C1CCC[NH+]C1;C;C;C;N(C)C;CO;CO;C;N(C)C;O;C.C

>  <reaction-name>
s_22

>  <reagent1-name>
564362

>  <reagent1-smiles>
[R1*]N(Cc1c(OCC)cccc1)CC(O)C

>  <reagent2-name>
13022876

>  <reagent2-smiles>
[R1*]C(=O)C1CN(CCC1)CCC

$$$$
s_22____15356050____17057108
          04022015093D 1   1.00000     0.00000     0
            
 59 61  0  0  0  0            999 V2000
    3.8986   -7.2677    0.4699 F   0  0  0  0  0  0  0  0  0  0  0  0
    4.3303   -6.5010   -0.5275 C   0  0  3  0  0  0  0  0  0  0  0  0
    5.0375   -7.0580   -1.5065 F   0  0  0  0  0  0  0  0  0  0  0  0
    3.4292   -5.3669   -0.9371 C   0  0  3  0  0  0  0  0  0  0  0  0
    4.6873   -5.0863   -0.1641 C   0  0  3  0  0  0  0  0  0  0  0  0
    5.4123   -3.9860   -0.9267 C   0  0  0  0  0  0  0  0  0  0  0  0
    4.5085   -2.8060   -1.2802 C   0  0  0  0  0  0  0  0  0  0  0  0
    3.4809   -2.5220   -0.1961 C   0  0  3  0  0  0  0  0  0  0  0  0
    3.2050   -1.0789   -0.1865 N   0  0  0  0  0  0  0  0  0  0  0  0
    2.9767   -0.4331    1.0000 C   0  0  0  0  0  0  0  0  0  0  0  0
    3.1767   -0.9988    2.0392 O   0  0  0  0  0  0  0  0  0  0  0  0
    2.4700    1.0000    1.0000 C   0  0  3  0  0  0  0  0  0  0  0  0
    1.0000    1.0000    1.0000 N   0  0  0  0  0  0  0  0  0  0  0  0
    0.3150    1.0000    2.1865 C   0  0  0  0  0  0  0  0  0  0  0  0
    0.9150    1.0000    3.2257 O   0  0  0  0  0  0  0  0  0  0  0  0
   -1.2050    1.0000    2.1865 C   0  0  0  0  0  0  0  0  0  0  0  0
   -1.7117   -0.4331    2.1865 C   0  0  0  0  0  0  0  0  0  0  0  0
   -3.2317   -0.4331    2.1865 C   0  0  0  0  0  0  0  0  0  0  0  0
   -1.2050   -1.1496    0.9454 C   0  0  0  0  0  0  0  0  0  0  0  0
    2.9767    1.7165   -0.2411 C   0  0  0  0  0  0  0  0  0  0  0  0
    4.4967    1.7165   -0.2411 C   0  0  0  0  0  0  0  0  0  0  0  0
    5.1811    1.1110   -1.2898 C   0  0  0  0  0  0  0  0  0  0  0  0
    6.5719    1.1093   -1.2944 C   0  0  0  0  0  0  0  0  0  0  0  0
    7.2616    1.7145   -0.2486 C   0  0  0  0  0  0  0  0  0  0  0  0
    8.6114    1.7148   -0.2489 O   0  0  0  0  0  0  0  0  0  0  0  0
    6.5820    2.3212    0.8028 C   0  0  0  0  0  0  0  0  0  0  0  0
    5.1912    2.3204    0.8021 C   0  0  0  0  0  0  0  0  0  0  0  0
    2.1573   -3.2660   -0.3248 C   0  0  0  0  0  0  0  0  0  0  0  0
    2.3021   -4.7683   -0.1118 C   0  0  0  0  0  0  0  0  0  0  0  0
    3.4439   -5.1209   -1.9063 H   0  0  0  0  0  0  0  0  0  0  0  0
    4.5256   -4.8670    0.7981 H   0  0  0  0  0  0  0  0  0  0  0  0
    5.7765   -4.3729   -1.7738 H   0  0  0  0  0  0  0  0  0  0  0  0
    6.1665   -3.6512   -0.3618 H   0  0  0  0  0  0  0  0  0  0  0  0
    5.0762   -1.9925   -1.4064 H   0  0  0  0  0  0  0  0  0  0  0  0
    4.0282   -3.0127   -2.1326 H   0  0  0  0  0  0  0  0  0  0  0  0
    3.8868   -2.7645    0.6850 H   0  0  0  0  0  0  0  0  0  0  0  0
    3.1839   -0.5681   -1.0459 H   0  0  0  0  0  0  0  0  0  0  0  0
    2.8033    1.4714    1.8165 H   0  0  0  0  0  0  0  0  0  0  0  0
    0.5000    1.0000    0.1340 H   0  0  0  0  0  0  0  0  0  0  0  0
   -1.5383    1.4714    1.3700 H   0  0  0  0  0  0  0  0  0  0  0  0
   -1.5383    1.4714    3.0030 H   0  0  0  0  0  0  0  0  0  0  0  0
   -1.3783   -0.9045    3.0030 H   0  0  0  0  0  0  0  0  0  0  0  0
   -3.5650   -1.3759    2.1865 H   0  0  0  0  0  0  0  0  0  0  0  0
   -3.5650    0.0383    3.0030 H   0  0  0  0  0  0  0  0  0  0  0  0
   -3.5650    0.0383    1.3700 H   0  0  0  0  0  0  0  0  0  0  0  0
   -1.5383   -2.0924    0.9454 H   0  0  0  0  0  0  0  0  0  0  0  0
   -1.5383   -0.6782    0.1289 H   0  0  0  0  0  0  0  0  0  0  0  0
   -0.2050   -1.1496    0.9454 H   0  0  0  0  0  0  0  0  0  0  0  0
    2.6433    1.2451   -1.0576 H   0  0  0  0  0  0  0  0  0  0  0  0
    2.6433    2.6593   -0.2411 H   0  0  0  0  0  0  0  0  0  0  0  0
    4.6756    0.6792   -2.0368 H   0  0  0  0  0  0  0  0  0  0  0  0
    7.0726    0.6761   -2.0440 H   0  0  0  0  0  0  0  0  0  0  0  0
    9.1115    2.1485    0.5006 H   0  0  0  0  0  0  0  0  0  0  0  0
    7.0874    2.7526    1.5501 H   0  0  0  0  0  0  0  0  0  0  0  0
    4.6905    2.7538    1.5514 H   0  0  0  0  0  0  0  0  0  0  0  0
    1.7890   -3.1070   -1.2408 H   0  0  0  0  0  0  0  0  0  0  0  0
    1.5208   -2.9063    0.3575 H   0  0  0  0  0  0  0  0  0  0  0  0
    2.4877   -4.9386    0.8559 H   0  0  0  0  0  0  0  0  0  0  0  0
    1.4444   -5.2129   -0.3700 H   0  0  0  0  0  0  0  0  0  0  0  0
  1  2  1  0  0  0  0
  2  3  1  0  0  0  0
  2  4  1  0  0  0  0
  4  5  1  0  0  0  0
  5  2  1  0  0  0  0
  5  6  1  0  0  0  0
  6  7  1  0  0  0  0
  7  8  1  0  0  0  0
  8  9  1  0  0  0  0
  9 10  1  0  0  0  0
 10 11  2  0  0  0  0
 10 12  1  0  0  0  0
 12 13  1  0  0  0  0
 13 14  1  0  0  0  0
 14 15  2  0  0  0  0
 14 16  1  0  0  0  0
 16 17  1  0  0  0  0
 17 18  1  0  0  0  0
 17 19  1  0  0  0  0
 12 20  1  0  0  0  0
 20 21  1  0  0  0  0
 21 22  1  0  0  0  0
 22 23  2  0  0  0  0
 23 24  1  0  0  0  0
 24 25  1  0  0  0  0
 24 26  2  0  0  0  0
 26 27  1  0  0  0  0
 27 21  2  0  0  0  0
  8 28  1  0  0  0  0
 28 29  1  0  0  0  0
 29  4  1  0  0  0  0
  4 30  1  0  0  0  0
  5 31  1  0  0  0  0
  6 32  1  0  0  0  0
  6 33  1  0  0  0  0
  7 34  1  0  0  0  0
  7 35  1  0  0  0  0
  8 36  1  0  0  0  0
  9 37  1  0  0  0  0
 12 38  1  0  0  0  0
 13 39  1  0  0  0  0
 16 40  1  0  0  0  0
 16 41  1  0  0  0  0
 17 42  1  0  0  0  0
 18 43  1  0  0  0  0
 18 44  1  0  0  0  0
 18 45  1  0  0  0  0
 19 46  1  0  0  0  0
 19 47  1  0  0  0  0
 19 48  1  0  0  0  0
 20 49  1  0  0  0  0
 20 50  1  0  0  0  0
 22 51  1  0  0  0  0
 23 52  1  0  0  0  0
 25 53  1  0  0  0  0
 26 54  1  0  0  0  0
 27 55  1  0  0  0  0
 28 56  1  0  0  0  0
 28 57  1  0  0  0  0
 29 58  1  0  0  0  0
 29 59  1  0  0  0  0
M  END
>  <result-rank>
26

>  <similarity>
0.953

>  <query-name>
LIG_A_1101_CCC[C@H]([R*])C1CCC1_2

>  <query-smiles>
O=C(N[C@H](C1CCC1)CCC)[C@@H](NC(=O)C)Cc2ccc(O)cc2

>  <source>
REALspace_2019-12

>  <similarity-descriptor>
0.946;1.000;1.000;1.000;0.946;0.946;0.876;0.876;1.000;1.000;1.000;0.949;1.000;1.000;0.214

>  <similarity-descriptor-smiles>
C1CCCCCC1;c1ccccc1;C=O;N;C1CCCCCC1;C1CCCCCC1;FC1(CC1)F;FC1(CC1)F;C;N;C=O;C;C;O;C.C.C

>  <reaction-name>
s_22

>  <reagent1-name>
15356050

>  <reagent1-smiles>
[R1*]NC1CCC2C(F)(F)C2CC1

>  <reagent2-name>
17057108

>  <reagent2-smiles>
[R1*]C(=O)C(NC(=O)CC(C)C)Cc1ccc(O)cc1

$$$$
s_22____12432936____17513450
          04022015093D 1   1.00000     0.00000     0
            
 50 51  0  0  0  0            999 V2000
    1.4266    2.8740    2.3713 O   0  0  0  0  0  0  0  0  0  0  0  0
    1.8776    1.8776    1.8776 C   0  0  0  0  0  0  0  0  0  0  0  0
    3.2110    1.5236    2.1096 N   0  0  0  0  0  0  0  0  0  0  0  0
    4.2214    2.5859    2.2469 C   0  0  3  0  0  0  0  0  0  0  0  0
    5.5489    2.1608    1.6387 C   0  0  0  0  0  0  0  0  0  0  0  0
    5.9799    0.7991    2.1617 C   0  0  0  0  0  0  0  0  0  0  0  0
    4.9433   -0.2150    1.6967 C   0  0  3  0  0  0  0  0  0  0  0  0
    5.2936   -1.5194    2.1346 O   0  0  0  0  0  0  0  0  0  0  0  0
    6.4941   -1.4585    2.8906 C   0  0  0  0  0  0  0  0  0  0  0  0
    3.5478    0.0939    2.2206 C   0  0  0  0  0  0  0  0  0  0  0  0
    3.8037    3.8866    1.5802 C   0  0  0  0  0  0  0  0  0  0  0  0
    1.0000    1.0000    1.0000 C   0  0  3  0  0  0  0  0  0  0  0  0
   -0.2629    0.7171    1.6971 N   0  0  0  0  0  0  0  0  0  0  0  0
   -0.6150   -0.5766    1.9787 C   0  0  0  0  0  0  0  0  0  0  0  0
    0.1075   -1.4788    1.6563 O   0  0  0  0  0  0  0  0  0  0  0  0
   -1.9209   -0.8691    2.6995 C   0  0  0  0  0  0  0  0  0  0  0  0
    0.7075    1.7208   -0.3059 C   0  0  0  0  0  0  0  0  0  0  0  0
    0.5195    0.7004   -1.4167 C   0  0  0  0  0  0  0  0  0  0  0  0
    1.6207    0.2852   -2.1582 C   0  0  0  0  0  0  0  0  0  0  0  0
    1.4536   -0.6488   -3.1751 C   0  0  0  0  0  0  0  0  0  0  0  0
    0.1851   -1.1568   -3.4375 C   0  0  0  0  0  0  0  0  0  0  0  0
    0.0184   -2.0632   -4.4238 O   0  0  0  0  0  0  0  0  0  0  0  0
   -0.9195   -0.7446   -2.6992 C   0  0  0  0  0  0  0  0  0  0  0  0
   -0.7466    0.1893   -1.6832 C   0  0  0  0  0  0  0  0  0  0  0  0
    4.3630    2.7623    3.2209 H   0  0  0  0  0  0  0  0  0  0  0  0
    6.2472    2.8369    1.8738 H   0  0  0  0  0  0  0  0  0  0  0  0
    5.4524    2.1132    0.6446 H   0  0  0  0  0  0  0  0  0  0  0  0
    6.8794    0.5611    1.7953 H   0  0  0  0  0  0  0  0  0  0  0  0
    6.0201    0.8135    3.1608 H   0  0  0  0  0  0  0  0  0  0  0  0
    4.9175   -0.2099    0.6971 H   0  0  0  0  0  0  0  0  0  0  0  0
    6.7408   -2.3772    3.1991 H   0  0  0  0  0  0  0  0  0  0  0  0
    7.2285   -1.0898    2.3208 H   0  0  0  0  0  0  0  0  0  0  0  0
    6.3584   -0.8656    3.6844 H   0  0  0  0  0  0  0  0  0  0  0  0
    2.8825   -0.4348    1.6935 H   0  0  0  0  0  0  0  0  0  0  0  0
    3.4993   -0.1739    3.1828 H   0  0  0  0  0  0  0  0  0  0  0  0
    4.5231    4.5702    1.7033 H   0  0  0  0  0  0  0  0  0  0  0  0
    3.6576    3.7286    0.6036 H   0  0  0  0  0  0  0  0  0  0  0  0
    2.9558    4.2165    1.9950 H   0  0  0  0  0  0  0  0  0  0  0  0
    1.4742    0.1409    0.8075 H   0  0  0  0  0  0  0  0  0  0  0  0
   -0.8650    1.4689    1.9658 H   0  0  0  0  0  0  0  0  0  0  0  0
   -2.3951   -0.0100    2.8919 H   0  0  0  0  0  0  0  0  0  0  0  0
   -2.4982   -1.4465    2.1221 H   0  0  0  0  0  0  0  0  0  0  0  0
   -1.7284   -1.3433    3.5586 H   0  0  0  0  0  0  0  0  0  0  0  0
   -0.1265    2.2638   -0.2073 H   0  0  0  0  0  0  0  0  0  0  0  0
    1.4727    2.3233   -0.5327 H   0  0  0  0  0  0  0  0  0  0  0  0
    2.5281    0.6564   -1.9610 H   0  0  0  0  0  0  0  0  0  0  0  0
    2.2393   -0.9531   -3.7136 H   0  0  0  0  0  0  0  0  0  0  0  0
   -0.8913   -2.4311   -4.6161 H   0  0  0  0  0  0  0  0  0  0  0  0
   -1.8271   -1.1153   -2.8967 H   0  0  0  0  0  0  0  0  0  0  0  0
   -1.5322    0.4933   -1.1444 H   0  0  0  0  0  0  0  0  0  0  0  0
  1  2  2  0  0  0  0
  2  3  1  0  0  0  0
  3  4  1  0  0  0  0
  4  5  1  0  0  0  0
  5  6  1  0  0  0  0
  6  7  1  0  0  0  0
  7  8  1  0  0  0  0
  8  9  1  0  0  0  0
  7 10  1  0  0  0  0
 10  3  1  0  0  0  0
  4 11  1  0  0  0  0
  2 12  1  0  0  0  0
 12 13  1  0  0  0  0
 13 14  1  0  0  0  0
 14 15  2  0  0  0  0
 14 16  1  0  0  0  0
 12 17  1  0  0  0  0
 17 18  1  0  0  0  0
 18 19  1  0  0  0  0
 19 20  2  0  0  0  0
 20 21  1  0  0  0  0
 21 22  1  0  0  0  0
 21 23  2  0  0  0  0
 23 24  1  0  0  0  0
 24 18  2  0  0  0  0
  4 25  1  0  0  0  0
  5 26  1  0  0  0  0
  5 27  1  0  0  0  0
  6 28  1  0  0  0  0
  6 29  1  0  0  0  0
  7 30  1  0  0  0  0
  9 31  1  0  0  0  0
  9 32  1  0  0  0  0
  9 33  1  0  0  0  0
 10 34  1  0  0  0  0
 10 35  1  0  0  0  0
 11 36  1  0  0  0  0
 11 37  1  0  0  0  0
 11 38  1  0  0  0  0
 12 39  1  0  0  0  0
 13 40  1  0  0  0  0
 16 41  1  0  0  0  0
 16 42  1  0  0  0  0
 16 43  1  0  0  0  0
 17 44  1  0  0  0  0
 17 45  1  0  0  0  0
 19 46  1  0  0  0  0
 20 47  1  0  0  0  0
 22 48  1  0  0  0  0
 23 49  1  0  0  0  0
 24 50  1  0  0  0  0
M  END
>  <result-rank>
27

>  <similarity>
0.952

>  <query-name>
LIG_A_1101_CCC[C@H]([R*])C1CCC1_2

>  <query-smiles>
O=C(N[C@H](C1CCC1)CCC)[C@@H](NC(=O)C)Cc2ccc(O)cc2

>  <source>
REALspace_2019-12

>  <similarity-descriptor>
0.990;1.000;0.852;0.852;0.990;0.949;0.0;0.0;1.000;1.000;1.000;1.000;1.000;1.000;0.167

>  <similarity-descriptor-smiles>
N1CCCCC1;c1ccccc1;O=C;O=C;N1CCCCC1;C;;;C;N;C=O;C;C;O;O.C

>  <reaction-name>
s_22

>  <reagent1-name>
12432936

>  <reagent1-smiles>
[R1*]N1C(CCC(OC)C1)C

>  <reagent2-name>
17513450

>  <reagent2-smiles>
[R1*]C(=O)C(NC(=O)C)Cc1ccc(O)cc1

$$$$
s_22____10811672____17513450
          04022015093D 1   1.00000     0.00000     0
            
 53 54  0  0  0  0            999 V2000
    0.9150    1.0000    3.2257 O   0  0  0  0  0  0  0  0  0  0  0  0
    0.3150    1.0000    2.1865 C   0  0  0  0  0  0  0  0  0  0  0  0
    1.0000    1.0000    1.0000 N   0  0  0  0  0  0  0  0  0  0  0  0
    2.4700    1.0000    1.0000 C   0  0  0  0  0  0  0  0  0  0  0  0
    2.9765    1.0000   -0.4327 C   0  0  0  0  0  0  0  0  0  0  0  0
    2.4564   -0.2500   -1.1264 C   0  0  0  0  0  0  0  0  0  0  0  0
    2.9631   -1.4829   -0.3960 C   0  0  0  0  0  0  0  0  0  0  0  0
    2.1185   -2.3266    0.1186 C   0  0  0  0  0  0  0  0  0  0  0  0
    4.4898    1.1108   -0.4807 C   0  0  0  0  0  0  0  0  0  0  0  0
    4.8017    1.5790   -1.8886 C   0  0  0  0  0  0  0  0  0  0  0  0
    3.5679    2.3429   -2.3347 C   0  0  0  0  0  0  0  0  0  0  0  0
    2.6282    2.2920   -1.1480 C   0  0  0  0  0  0  0  0  0  0  0  0
   -1.2050    1.0000    2.1865 C   0  0  3  0  0  0  0  0  0  0  0  0
   -1.6950    1.0000    3.5724 N   0  0  0  0  0  0  0  0  0  0  0  0
   -2.4826    2.0275    4.0205 C   0  0  0  0  0  0  0  0  0  0  0  0
   -2.7725    2.9275    3.2816 O   0  0  0  0  0  0  0  0  0  0  0  0
   -2.9893    2.0275    5.4535 C   0  0  0  0  0  0  0  0  0  0  0  0
   -1.7117   -0.2411    1.4699 C   0  0  0  0  0  0  0  0  0  0  0  0
   -3.2317   -0.2411    1.4699 C   0  0  0  0  0  0  0  0  0  0  0  0
   -3.9161    0.3644    0.4212 C   0  0  0  0  0  0  0  0  0  0  0  0
   -5.3069    0.3662    0.4166 C   0  0  0  0  0  0  0  0  0  0  0  0
   -5.9966   -0.2391    1.4624 C   0  0  0  0  0  0  0  0  0  0  0  0
   -7.3464   -0.2393    1.4621 O   0  0  0  0  0  0  0  0  0  0  0  0
   -5.3170   -0.8457    2.5138 C   0  0  0  0  0  0  0  0  0  0  0  0
   -3.9262   -0.8449    2.5131 C   0  0  0  0  0  0  0  0  0  0  0  0
    0.5000    1.0000    0.1340 H   0  0  0  0  0  0  0  0  0  0  0  0
    2.8033    0.1835    1.4714 H   0  0  0  0  0  0  0  0  0  0  0  0
    2.8033    1.8165    1.4714 H   0  0  0  0  0  0  0  0  0  0  0  0
    1.4564   -0.2446   -1.1173 H   0  0  0  0  0  0  0  0  0  0  0  0
    2.7810   -0.2659   -2.0721 H   0  0  0  0  0  0  0  0  0  0  0  0
    3.9462   -1.6450   -0.3113 H   0  0  0  0  0  0  0  0  0  0  0  0
    2.4519   -3.1377    0.5991 H   0  0  0  0  0  0  0  0  0  0  0  0
    1.1353   -2.1644    0.0338 H   0  0  0  0  0  0  0  0  0  0  0  0
    4.9135    0.2226   -0.3033 H   0  0  0  0  0  0  0  0  0  0  0  0
    4.8155    1.7757    0.1915 H   0  0  0  0  0  0  0  0  0  0  0  0
    4.9669    0.7972   -2.4899 H   0  0  0  0  0  0  0  0  0  0  0  0
    5.6039    2.1761   -1.8903 H   0  0  0  0  0  0  0  0  0  0  0  0
    3.8016    3.2892   -2.5581 H   0  0  0  0  0  0  0  0  0  0  0  0
    3.1521    1.9052   -3.1318 H   0  0  0  0  0  0  0  0  0  0  0  0
    2.7761    3.0780   -0.5477 H   0  0  0  0  0  0  0  0  0  0  0  0
    1.6760    2.2801   -1.4531 H   0  0  0  0  0  0  0  0  0  0  0  0
   -1.5383    1.8165    1.7151 H   0  0  0  0  0  0  0  0  0  0  0  0
   -1.4534    0.2500    4.1881 H   0  0  0  0  0  0  0  0  0  0  0  0
   -2.6560    1.2110    5.9249 H   0  0  0  0  0  0  0  0  0  0  0  0
   -2.6560    2.8440    5.9249 H   0  0  0  0  0  0  0  0  0  0  0  0
   -3.9893    2.0275    5.4535 H   0  0  0  0  0  0  0  0  0  0  0  0
   -1.3783   -0.2411    0.5271 H   0  0  0  0  0  0  0  0  0  0  0  0
   -1.3783   -1.0576    1.9413 H   0  0  0  0  0  0  0  0  0  0  0  0
   -3.4106    0.7963   -0.3258 H   0  0  0  0  0  0  0  0  0  0  0  0
   -5.8076    0.7993   -0.3330 H   0  0  0  0  0  0  0  0  0  0  0  0
   -7.8465   -0.6731    2.2116 H   0  0  0  0  0  0  0  0  0  0  0  0
   -5.8224   -1.2771    3.2611 H   0  0  0  0  0  0  0  0  0  0  0  0
   -3.4255   -1.2783    3.2624 H   0  0  0  0  0  0  0  0  0  0  0  0
  1  2  2  0  0  0  0
  2  3  1  0  0  0  0
  3  4  1  0  0  0  0
  4  5  1  0  0  0  0
  5  6  1  0  0  0  0
  6  7  1  0  0  0  0
  7  8  2  0  0  0  0
  5  9  1  0  0  0  0
  9 10  1  0  0  0  0
 10 11  1  0  0  0  0
 11 12  1  0  0  0  0
 12  5  1  0  0  0  0
  2 13  1  0  0  0  0
 13 14  1  0  0  0  0
 14 15  1  0  0  0  0
 15 16  2  0  0  0  0
 15 17  1  0  0  0  0
 13 18  1  0  0  0  0
 18 19  1  0  0  0  0
 19 20  1  0  0  0  0
 20 21  2  0  0  0  0
 21 22  1  0  0  0  0
 22 23  1  0  0  0  0
 22 24  2  0  0  0  0
 24 25  1  0  0  0  0
 25 19  2  0  0  0  0
  3 26  1  0  0  0  0
  4 27  1  0  0  0  0
  4 28  1  0  0  0  0
  6 29  1  0  0  0  0
  6 30  1  0  0  0  0
  7 31  1  0  0  0  0
  8 32  1  0  0  0  0
  8 33  1  0  0  0  0
  9 34  1  0  0  0  0
  9 35  1  0  0  0  0
 10 36  1  0  0  0  0
 10 37  1  0  0  0  0
 11 38  1  0  0  0  0
 11 39  1  0  0  0  0
 12 40  1  0  0  0  0
 12 41  1  0  0  0  0
 13 42  1  0  0  0  0
 14 43  1  0  0  0  0
 17 44  1  0  0  0  0
 17 45  1  0  0  0  0
 17 46  1  0  0  0  0
 18 47  1  0  0  0  0
 18 48  1  0  0  0  0
 20 49  1  0  0  0  0
 21 50  1  0  0  0  0
 23 51  1  0  0  0  0
 24 52  1  0  0  0  0
 25 53  1  0  0  0  0
M  END
>  <result-rank>
28

>  <similarity>
0.952

>  <query-name>
LIG_A_1101_CCC[C@H]([R*])C1CCC1_2

>  <query-smiles>
O=C(N[C@H](C1CCC1)CCC)[C@@H](NC(=O)C)Cc2ccc(O)cc2

>  <source>
REALspace_2019-12

>  <similarity-descriptor>
0.976;1.000;1.000;1.000;0.932;0.0;0.0;0.0;1.000;1.000;1.000;1.000;1.000;1.000;0.214

>  <similarity-descriptor-smiles>
C1CCCC1;c1ccccc1;O=C;N;C;;;;C;N;C=O;C;C;O;C.C.C

>  <reaction-name>
s_22

>  <reagent1-name>
10811672

>  <reagent1-smiles>
[R1*]NCC1(CC=C)CCCC1

>  <reagent2-name>
17513450

>  <reagent2-smiles>
[R1*]C(=O)C(NC(=O)C)Cc1ccc(O)cc1

$$$$
s_240690a____16537608____17057130
          04022015093D 1   1.00000     0.00000     0
            
 62 64  0  0  0  0            999 V2000
   -0.3868    1.6571   -0.7943 O   0  0  0  0  0  0  0  0  0  0  0  0
    0.7075    1.7208   -0.3059 C   0  0  0  0  0  0  0  0  0  0  0  0
    1.6931    2.4433   -0.9252 N   0  0  0  0  0  0  0  0  0  0  0  0
    1.4100    3.1407   -2.1888 C   0  0  3  0  0  0  0  0  0  0  0  0
    2.2750    2.6873   -3.3480 C   0  0  0  0  0  0  0  0  0  0  0  0
    2.3553    4.1293   -3.7859 C   0  0  3  0  0  0  0  0  0  0  0  0
    2.1755    4.4258   -2.3150 C   0  0  0  0  0  0  0  0  0  0  0  0
    3.5360    4.6145   -4.6064 C   0  0  0  0  0  0  0  0  0  0  0  0
    2.6224    5.6744   -5.1740 C   0  0  3  0  0  0  0  0  0  0  0  0
    2.8824    5.9614   -6.6434 C   0  0  0  0  0  0  0  0  0  0  0  0
    1.9534    6.9999   -7.1116 N   0  3  0  0  0  0  0  0  0  0  0  0
    1.5202    4.6675   -4.9350 C   0  0  0  0  0  0  0  0  0  0  0  0
    1.0000    1.0000    1.0000 C   0  0  3  0  0  0  0  0  0  0  0  0
    1.8487    1.8487    1.8487 N   0  0  0  0  0  0  0  0  0  0  0  0
    3.0831    1.4052    2.2442 C   0  0  0  0  0  0  0  0  0  0  0  0
    3.3356    0.2324    2.2193 O   0  0  0  0  0  0  0  0  0  0  0  0
    4.1329    2.3989    2.7145 C   0  0  0  0  0  0  0  0  0  0  0  0
    4.6634    1.9705    4.0729 C   0  0  0  0  0  0  0  0  0  0  0  0
    5.7132    2.9641    4.5432 C   0  0  0  0  0  0  0  0  0  0  0  0
    3.5200    1.9298    5.0736 C   0  0  0  0  0  0  0  0  0  0  0  0
   -0.3059    0.7075    1.7208 C   0  0  0  0  0  0  0  0  0  0  0  0
   -0.0133   -0.0134    3.0267 C   0  0  0  0  0  0  0  0  0  0  0  0
    0.0419   -1.4031    3.0438 C   0  0  0  0  0  0  0  0  0  0  0  0
    0.3100   -2.0670    4.2362 C   0  0  0  0  0  0  0  0  0  0  0  0
    0.5203   -1.3310    5.3981 C   0  0  0  0  0  0  0  0  0  0  0  0
    0.7804   -1.9713    6.5576 O   0  0  0  0  0  0  0  0  0  0  0  0
    0.4658    0.0590    5.3865 C   0  0  0  0  0  0  0  0  0  0  0  0
    0.1978    0.7176    4.1913 C   0  0  0  0  0  0  0  0  0  0  0  0
    2.1245    7.1888   -8.0786 H   0  0  0  0  0  0  0  0  0  0  0  0
    1.0123    6.6823   -6.9955 H   0  0  0  0  0  0  0  0  0  0  0  0
    2.0914    7.8352   -6.5794 H   0  0  0  0  0  0  0  0  0  0  0  0
    2.6049    2.4964   -0.5181 H   0  0  0  0  0  0  0  0  0  0  0  0
    0.4372    3.2182   -2.4070 H   0  0  0  0  0  0  0  0  0  0  0  0
    3.1507    2.2855   -3.0801 H   0  0  0  0  0  0  0  0  0  0  0  0
    1.8149    2.0815   -3.9970 H   0  0  0  0  0  0  0  0  0  0  0  0
    1.6390    5.2472   -2.1214 H   0  0  0  0  0  0  0  0  0  0  0  0
    3.0271    4.4528   -1.7916 H   0  0  0  0  0  0  0  0  0  0  0  0
    3.8769    3.9553   -5.2768 H   0  0  0  0  0  0  0  0  0  0  0  0
    4.3008    4.9680   -4.0679 H   0  0  0  0  0  0  0  0  0  0  0  0
    2.5519    6.4950   -4.6069 H   0  0  0  0  0  0  0  0  0  0  0  0
    3.8235    6.2791   -6.7595 H   0  0  0  0  0  0  0  0  0  0  0  0
    2.7445    5.1262   -7.1756 H   0  0  0  0  0  0  0  0  0  0  0  0
    0.6436    5.0649   -4.6636 H   0  0  0  0  0  0  0  0  0  0  0  0
    1.3756    4.0213   -5.6843 H   0  0  0  0  0  0  0  0  0  0  0  0
    1.4742    0.1409    0.8075 H   0  0  0  0  0  0  0  0  0  0  0  0
    1.5250    2.7498    2.1374 H   0  0  0  0  0  0  0  0  0  0  0  0
    3.7222    3.3076    2.7884 H   0  0  0  0  0  0  0  0  0  0  0  0
    4.8852    2.4256    2.0561 H   0  0  0  0  0  0  0  0  0  0  0  0
    5.0741    1.0617    3.9989 H   0  0  0  0  0  0  0  0  0  0  0  0
    6.0622    2.6823    5.4369 H   0  0  0  0  0  0  0  0  0  0  0  0
    6.4654    2.9908    3.8849 H   0  0  0  0  0  0  0  0  0  0  0  0
    5.3025    3.8729    4.6172 H   0  0  0  0  0  0  0  0  0  0  0  0
    3.8690    1.6480    5.9673 H   0  0  0  0  0  0  0  0  0  0  0  0
    3.1093    2.8386    5.1476 H   0  0  0  0  0  0  0  0  0  0  0  0
    2.8294    1.2761    4.7642 H   0  0  0  0  0  0  0  0  0  0  0  0
   -0.7801    1.5666    1.9133 H   0  0  0  0  0  0  0  0  0  0  0  0
   -0.8832    0.1301    1.1435 H   0  0  0  0  0  0  0  0  0  0  0  0
   -0.1104   -1.9224    2.2029 H   0  0  0  0  0  0  0  0  0  0  0  0
    0.3514   -3.0659    4.2583 H   0  0  0  0  0  0  0  0  0  0  0  0
    0.9322   -1.4466    7.3953 H   0  0  0  0  0  0  0  0  0  0  0  0
    0.6176    0.5784    6.2275 H   0  0  0  0  0  0  0  0  0  0  0  0
    0.1568    1.7165    4.1690 H   0  0  0  0  0  0  0  0  0  0  0  0
  1  2  2  0  0  0  0
  2  3  1  0  0  0  0
  3  4  1  0  0  0  0
  4  5  1  0  0  0  0
  5  6  1  0  0  0  0
  6  7  1  0  0  0  0
  7  4  1  0  0  0  0
  6  8  1  0  0  0  0
  8  9  1  0  0  0  0
  9 10  1  0  0  0  0
 10 11  1  0  0  0  0
  9 12  1  0  0  0  0
 12  6  1  0  0  0  0
  2 13  1  0  0  0  0
 13 14  1  0  0  0  0
 14 15  1  0  0  0  0
 15 16  2  0  0  0  0
 15 17  1  0  0  0  0
 17 18  1  0  0  0  0
 18 19  1  0  0  0  0
 18 20  1  0  0  0  0
 13 21  1  0  0  0  0
 21 22  1  0  0  0  0
 22 23  1  0  0  0  0
 23 24  2  0  0  0  0
 24 25  1  0  0  0  0
 25 26  1  0  0  0  0
 25 27  2  0  0  0  0
 27 28  1  0  0  0  0
 28 22  2  0  0  0  0
 11 29  1  0  0  0  0
 11 30  1  0  0  0  0
 11 31  1  0  0  0  0
  3 32  1  0  0  0  0
  4 33  1  0  0  0  0
  5 34  1  0  0  0  0
  5 35  1  0  0  0  0
  7 36  1  0  0  0  0
  7 37  1  0  0  0  0
  8 38  1  0  0  0  0
  8 39  1  0  0  0  0
  9 40  1  0  0  0  0
 10 41  1  0  0  0  0
 10 42  1  0  0  0  0
 12 43  1  0  0  0  0
 12 44  1  0  0  0  0
 13 45  1  0  0  0  0
 14 46  1  0  0  0  0
 17 47  1  0  0  0  0
 17 48  1  0  0  0  0
 18 49  1  0  0  0  0
 19 50  1  0  0  0  0
 19 51  1  0  0  0  0
 19 52  1  0  0  0  0
 20 53  1  0  0  0  0
 20 54  1  0  0  0  0
 20 55  1  0  0  0  0
 21 56  1  0  0  0  0
 21 57  1  0  0  0  0
 23 58  1  0  0  0  0
 24 59  1  0  0  0  0
 26 60  1  0  0  0  0
 27 61  1  0  0  0  0
 28 62  1  0  0  0  0
M  CHG  1  11   1
M  END
>  <result-rank>
29

>  <similarity>
0.952

>  <query-name>
LIG_A_1101_CCC[C@H]([R*])C1CCC1_2

>  <query-smiles>
O=C(N[C@H](C1CCC1)CCC)[C@@H](NC(=O)C)Cc2ccc(O)cc2

>  <source>
REALspace_2019-12

>  <similarity-descriptor>
0.993;1.000;1.000;1.000;0.895;0.895;0.895;0.0;1.000;1.000;1.000;0.949;1.000;1.000;0.250

>  <similarity-descriptor-smiles>
C1CC(C1)C;c1ccccc1;O=C;N;C1CCC1;C1CCC1;C1CCC1;;C;N;C=O;C;C;O;[NH3+].C.C.C

>  <reaction-name>
s_240690a

>  <reagent1-name>
16537608

>  <reagent1-smiles>
[R1*]NC1CC2(C1)CC(CN)C2

>  <reagent2-name>
17057130

>  <reagent2-smiles>
[R1*]C(=O)C(NC(=O)CC(C)C)Cc1ccc(O)cc1

$$$$
s_22____13949588____17513450
          04022015093D 1   1.00000     0.00000     0
            
 46 46  0  0  0  0            999 V2000
    0.9150    1.0000    3.2257 O   0  0  0  0  0  0  0  0  0  0  0  0
    0.3150    1.0000    2.1865 C   0  0  0  0  0  0  0  0  0  0  0  0
    1.0000    1.0000    1.0000 N   0  0  0  0  0  0  0  0  0  0  0  0
    2.4700    1.0000    1.0000 C   0  0  0  0  0  0  0  0  0  0  0  0
    2.9767    1.0000   -0.4331 C   0  0  0  0  0  0  0  0  0  0  0  0
    4.4967    1.0000   -0.4331 C   0  0  0  0  0  0  0  0  0  0  0  0
    5.0033    1.0000   -1.8661 C   0  0  0  0  0  0  0  0  0  0  0  0
    5.3833    1.0000   -2.9409 N   0  0  0  0  0  0  0  0  0  0  0  0
    5.0033    2.2411    0.2835 C   0  0  0  0  0  0  0  0  0  0  0  0
    5.0033   -0.2411    0.2835 C   0  0  0  0  0  0  0  0  0  0  0  0
   -1.2050    1.0000    2.1865 C   0  0  3  0  0  0  0  0  0  0  0  0
   -1.6950    1.0000    3.5724 N   0  0  0  0  0  0  0  0  0  0  0  0
   -2.4826    2.0275    4.0205 C   0  0  0  0  0  0  0  0  0  0  0  0
   -2.7725    2.9275    3.2816 O   0  0  0  0  0  0  0  0  0  0  0  0
   -2.9893    2.0275    5.4535 C   0  0  0  0  0  0  0  0  0  0  0  0
   -1.7117   -0.2411    1.4699 C   0  0  0  0  0  0  0  0  0  0  0  0
   -3.2317   -0.2411    1.4699 C   0  0  0  0  0  0  0  0  0  0  0  0
   -3.9161    0.3644    0.4212 C   0  0  0  0  0  0  0  0  0  0  0  0
   -5.3069    0.3662    0.4166 C   0  0  0  0  0  0  0  0  0  0  0  0
   -5.9966   -0.2391    1.4624 C   0  0  0  0  0  0  0  0  0  0  0  0
   -7.3464   -0.2393    1.4621 O   0  0  0  0  0  0  0  0  0  0  0  0
   -5.3170   -0.8457    2.5138 C   0  0  0  0  0  0  0  0  0  0  0  0
   -3.9262   -0.8449    2.5131 C   0  0  0  0  0  0  0  0  0  0  0  0
    0.5000    1.0000    0.1340 H   0  0  0  0  0  0  0  0  0  0  0  0
    2.8033    0.1835    1.4714 H   0  0  0  0  0  0  0  0  0  0  0  0
    2.8033    1.8165    1.4714 H   0  0  0  0  0  0  0  0  0  0  0  0
    2.6433    0.1835   -0.9045 H   0  0  0  0  0  0  0  0  0  0  0  0
    2.6433    1.8165   -0.9045 H   0  0  0  0  0  0  0  0  0  0  0  0
    4.6700    2.2411    1.2263 H   0  0  0  0  0  0  0  0  0  0  0  0
    6.0033    2.2411    0.2835 H   0  0  0  0  0  0  0  0  0  0  0  0
    4.6700    3.0576   -0.1879 H   0  0  0  0  0  0  0  0  0  0  0  0
    4.6700   -0.2411    1.2263 H   0  0  0  0  0  0  0  0  0  0  0  0
    4.6700   -1.0576   -0.1879 H   0  0  0  0  0  0  0  0  0  0  0  0
    6.0033   -0.2411    0.2835 H   0  0  0  0  0  0  0  0  0  0  0  0
   -1.5383    1.8165    1.7151 H   0  0  0  0  0  0  0  0  0  0  0  0
   -1.4534    0.2500    4.1881 H   0  0  0  0  0  0  0  0  0  0  0  0
   -2.6560    1.2110    5.9249 H   0  0  0  0  0  0  0  0  0  0  0  0
   -2.6560    2.8440    5.9249 H   0  0  0  0  0  0  0  0  0  0  0  0
   -3.9893    2.0275    5.4535 H   0  0  0  0  0  0  0  0  0  0  0  0
   -1.3783   -0.2411    0.5271 H   0  0  0  0  0  0  0  0  0  0  0  0
   -1.3783   -1.0576    1.9413 H   0  0  0  0  0  0  0  0  0  0  0  0
   -3.4106    0.7963   -0.3258 H   0  0  0  0  0  0  0  0  0  0  0  0
   -5.8076    0.7993   -0.3330 H   0  0  0  0  0  0  0  0  0  0  0  0
   -7.8465   -0.6731    2.2116 H   0  0  0  0  0  0  0  0  0  0  0  0
   -5.8224   -1.2771    3.2611 H   0  0  0  0  0  0  0  0  0  0  0  0
   -3.4255   -1.2783    3.2624 H   0  0  0  0  0  0  0  0  0  0  0  0
  1  2  2  0  0  0  0
  2  3  1  0  0  0  0
  3  4  1  0  0  0  0
  4  5  1  0  0  0  0
  5  6  1  0  0  0  0
  6  7  1  0  0  0  0
  7  8  3  0  0  0  0
  6  9  1  0  0  0  0
  6 10  1  0  0  0  0
  2 11  1  0  0  0  0
 11 12  1  0  0  0  0
 12 13  1  0  0  0  0
 13 14  2  0  0  0  0
 13 15  1  0  0  0  0
 11 16  1  0  0  0  0
 16 17  1  0  0  0  0
 17 18  1  0  0  0  0
 18 19  2  0  0  0  0
 19 20  1  0  0  0  0
 20 21  1  0  0  0  0
 20 22  2  0  0  0  0
 22 23  1  0  0  0  0
 23 17  2  0  0  0  0
  3 24  1  0  0  0  0
  4 25  1  0  0  0  0
  4 26  1  0  0  0  0
  5 27  1  0  0  0  0
  5 28  1  0  0  0  0
  9 29  1  0  0  0  0
  9 30  1  0  0  0  0
  9 31  1  0  0  0  0
 10 32  1  0  0  0  0
 10 33  1  0  0  0  0
 10 34  1  0  0  0  0
 11 35  1  0  0  0  0
 12 36  1  0  0  0  0
 15 37  1  0  0  0  0
 15 38  1  0  0  0  0
 15 39  1  0  0  0  0
 16 40  1  0  0  0  0
 16 41  1  0  0  0  0
 18 42  1  0  0  0  0
 19 43  1  0  0  0  0
 21 44  1  0  0  0  0
 22 45  1  0  0  0  0
 23 46  1  0  0  0  0
M  END
>  <result-rank>
30

>  <similarity>
0.951

>  <query-name>
LIG_A_1101_CCC[C@H]([R*])C1CCC1_2

>  <query-smiles>
O=C(N[C@H](C1CCC1)CCC)[C@@H](NC(=O)C)Cc2ccc(O)cc2

>  <source>
REALspace_2019-12

>  <similarity-descriptor>
0.0;1.000;1.000;1.000;0.969;0.969;0.964;0.964;1.000;1.000;1.000;1.000;1.000;1.000;0.067

>  <similarity-descriptor-smiles>
;c1ccccc1;O=C;N;CC;CC;C(C)C;C(C)C;C;N;C=O;C;C;O;C#N

>  <reaction-name>
s_22

>  <reagent1-name>
13949588

>  <reagent1-smiles>
[R1*]NCCC(C#N)(C)C

>  <reagent2-name>
17513450

>  <reagent2-smiles>
[R1*]C(=O)C(NC(=O)C)Cc1ccc(O)cc1

$$$$
s_22____15429360____3003738
          04022015093D 1   1.00000     0.00000     0
            
 50 52  0  0  0  0            999 V2000
    0.6964    4.5301   -0.0258 F   0  0  0  0  0  0  0  0  0  0  0  0
   -0.4895    3.9291   -0.0228 C   0  0  0  0  0  0  0  0  0  0  0  0
   -0.5605    2.5464   -0.1561 C   0  0  0  0  0  0  0  0  0  0  0  0
   -1.8028    1.9190   -0.1515 C   0  0  0  0  0  0  0  0  0  0  0  0
   -1.8712    0.5968   -0.2788 F   0  0  0  0  0  0  0  0  0  0  0  0
   -2.9687    2.6659   -0.0149 C   0  0  0  0  0  0  0  0  0  0  0  0
   -2.8808    4.0478    0.1177 C   0  0  0  0  0  0  0  0  0  0  0  0
   -1.6462    4.6889    0.1149 C   0  0  0  0  0  0  0  0  0  0  0  0
    0.7075    1.7208   -0.3059 C   0  0  3  0  0  0  0  0  0  0  0  0
    0.5256    0.7340   -1.3802 N   0  0  0  0  0  0  0  0  0  0  0  0
    1.3520    0.7509   -2.4728 C   0  0  0  0  0  0  0  0  0  0  0  0
    2.2242    1.5711   -2.5528 O   0  0  0  0  0  0  0  0  0  0  0  0
    1.1640   -0.2695   -3.5836 C   0  0  0  0  0  0  0  0  0  0  0  0
    1.0000    1.0000    1.0000 C   0  0  0  0  0  0  0  0  0  0  0  0
    1.8776    1.8776    1.8776 C   0  0  0  0  0  0  0  0  0  0  0  0
    2.7107    2.5826    1.3787 O   0  0  0  0  0  0  0  0  0  0  0  0
    1.7174    1.8637    3.2381 N   0  0  0  0  0  0  0  0  0  0  0  0
    2.5666    2.7128    4.0873 C   0  0  3  0  0  0  0  0  0  0  0  0
    3.3995    1.9405    5.0909 C   0  0  0  0  0  0  0  0  0  0  0  0
    3.1148    3.0335    6.0918 C   0  0  3  0  0  0  0  0  0  0  0  0
    1.8397    3.2140    5.3011 C   0  0  0  0  0  0  0  0  0  0  0  0
    3.1505    2.7361    7.5795 C   0  0  0  0  0  0  0  0  0  0  0  0
    3.5019    4.1888    7.7951 C   0  0  3  0  0  0  0  0  0  0  0  0
    4.4967    4.4006    8.9240 C   0  0  0  0  0  0  0  0  0  0  0  0
    3.9484    3.9063   10.1370 O   0  0  0  0  0  0  0  0  0  0  0  0
    4.1406    4.1024    6.4275 C   0  0  0  0  0  0  0  0  0  0  0  0
   -3.8607    2.2139   -0.0122 H   0  0  0  0  0  0  0  0  0  0  0  0
   -3.7166    4.5878    0.2164 H   0  0  0  0  0  0  0  0  0  0  0  0
   -1.5912    5.6828    0.2106 H   0  0  0  0  0  0  0  0  0  0  0  0
    1.4727    2.3233   -0.5327 H   0  0  0  0  0  0  0  0  0  0  0  0
   -0.2012    0.0505   -1.3134 H   0  0  0  0  0  0  0  0  0  0  0  0
    0.3988   -0.8720   -3.3568 H   0  0  0  0  0  0  0  0  0  0  0  0
    0.9715    0.2047   -4.4427 H   0  0  0  0  0  0  0  0  0  0  0  0
    1.9979   -0.8124   -3.6821 H   0  0  0  0  0  0  0  0  0  0  0  0
    0.1409    0.8075    1.4742 H   0  0  0  0  0  0  0  0  0  0  0  0
    1.4742    0.1409    0.8075 H   0  0  0  0  0  0  0  0  0  0  0  0
    1.0232    1.2761    3.6538 H   0  0  0  0  0  0  0  0  0  0  0  0
    3.0715    3.4181    3.5897 H   0  0  0  0  0  0  0  0  0  0  0  0
    3.0280    1.0453    5.3371 H   0  0  0  0  0  0  0  0  0  0  0  0
    4.3637    1.8448    4.8439 H   0  0  0  0  0  0  0  0  0  0  0  0
    1.5258    4.1611    5.2334 H   0  0  0  0  0  0  0  0  0  0  0  0
    1.0826    2.6326    5.5991 H   0  0  0  0  0  0  0  0  0  0  0  0
    3.8604    2.0895    7.8585 H   0  0  0  0  0  0  0  0  0  0  0  0
    2.2732    2.4569    7.9700 H   0  0  0  0  0  0  0  0  0  0  0  0
    2.7086    4.7964    7.8344 H   0  0  0  0  0  0  0  0  0  0  0  0
    5.3442    3.9115    8.7176 H   0  0  0  0  0  0  0  0  0  0  0  0
    4.6901    5.3771    9.0191 H   0  0  0  0  0  0  0  0  0  0  0  0
    4.6031    4.0457   10.8799 H   0  0  0  0  0  0  0  0  0  0  0  0
    4.0690    4.9361    5.8800 H   0  0  0  0  0  0  0  0  0  0  0  0
    5.0889    3.7850    6.4291 H   0  0  0  0  0  0  0  0  0  0  0  0
  1  2  1  0  0  0  0
  2  3  1  0  0  0  0
  3  4  2  0  0  0  0
  4  5  1  0  0  0  0
  4  6  1  0  0  0  0
  6  7  2  0  0  0  0
  7  8  1  0  0  0  0
  8  2  2  0  0  0  0
  3  9  1  0  0  0  0
  9 10  1  0  0  0  0
 10 11  1  0  0  0  0
 11 12  2  0  0  0  0
 11 13  1  0  0  0  0
  9 14  1  0  0  0  0
 14 15  1  0  0  0  0
 15 16  2  0  0  0  0
 15 17  1  0  0  0  0
 17 18  1  0  0  0  0
 18 19  1  0  0  0  0
 19 20  1  0  0  0  0
 20 21  1  0  0  0  0
 21 18  1  0  0  0  0
 20 22  1  0  0  0  0
 22 23  1  0  0  0  0
 23 24  1  0  0  0  0
 24 25  1  0  0  0  0
 23 26  1  0  0  0  0
 26 20  1  0  0  0  0
  6 27  1  0  0  0  0
  7 28  1  0  0  0  0
  8 29  1  0  0  0  0
  9 30  1  0  0  0  0
 10 31  1  0  0  0  0
 13 32  1  0  0  0  0
 13 33  1  0  0  0  0
 13 34  1  0  0  0  0
 14 35  1  0  0  0  0
 14 36  1  0  0  0  0
 17 37  1  0  0  0  0
 18 38  1  0  0  0  0
 19 39  1  0  0  0  0
 19 40  1  0  0  0  0
 21 41  1  0  0  0  0
 21 42  1  0  0  0  0
 22 43  1  0  0  0  0
 22 44  1  0  0  0  0
 23 45  1  0  0  0  0
 24 46  1  0  0  0  0
 24 47  1  0  0  0  0
 25 48  1  0  0  0  0
 26 49  1  0  0  0  0
 26 50  1  0  0  0  0
M  END
>  <result-rank>
31

>  <similarity>
0.951

>  <query-name>
LIG_A_1101_CCC[C@H]([R*])C1CCC1_2

>  <query-smiles>
O=C(N[C@H](C1CCC1)CCC)[C@@H](NC(=O)C)Cc2ccc(O)cc2

>  <source>
REALspace_2019-12

>  <similarity-descriptor>
0.993;0.948;1.000;1.000;0.895;0.895;0.895;0.0;1.000;1.000;1.000;1.000;1.000;0.0;0.083

>  <similarity-descriptor-smiles>
C1CC(C1)C;Fc1cccc(c1)F;C=O;N;C1CCC1;C1CCC1;C1CCC1;;CC;N;C=O;C;CC;;O

>  <reaction-name>
s_22

>  <reagent1-name>
15429360

>  <reagent1-smiles>
[R1*]NC1CC2(C1)CC(CO)C2

>  <reagent2-name>
3003738

>  <reagent2-smiles>
[R1*]C(=O)CC(NC(=O)C)c1c(F)cccc1F

$$$$
s_11a____15106604____9438614
          04022015093D 1   1.00000     0.00000     0
            
 51 53  0  0  0  0            999 V2000
   -4.3042    0.2759   -1.7519 Br  0  0  0  0  0  0  0  0  0  0  0  0
   -2.3532    0.1437   -1.8827 C   0  0  0  0  0  0  0  0  0  0  0  0
   -1.5537    0.9483   -1.0783 C   0  0  0  0  0  0  0  0  0  0  0  0
   -0.1702    0.8431   -1.1836 C   0  0  0  0  0  0  0  0  0  0  0  0
    0.4143   -0.0494   -2.0758 C   0  0  0  0  0  0  0  0  0  0  0  0
   -0.4041   -0.8445   -2.8714 C   0  0  0  0  0  0  0  0  0  0  0  0
   -1.7893   -0.7551   -2.7819 C   0  0  0  0  0  0  0  0  0  0  0  0
    0.7075    1.7208   -0.3059 C   0  0  0  0  0  0  0  0  0  0  0  0
    1.0000    1.0000    1.0000 C   0  0  3  0  0  0  0  0  0  0  0  0
    1.8487    1.8487    1.8487 N   0  0  0  0  0  0  0  0  0  0  0  0
    3.0831    1.4052    2.2442 C   0  0  0  0  0  0  0  0  0  0  0  0
    3.4716    0.3240    1.8978 O   0  0  0  0  0  0  0  0  0  0  0  0
    3.9624    2.2845    3.1234 C   0  0  3  0  0  0  0  0  0  0  0  0
    3.2582    2.5886    4.4359 C   0  0  0  0  0  0  0  0  0  0  0  0
    4.1289    3.4836    5.3031 C   0  0  0  0  0  0  0  0  0  0  0  0
    4.4502    4.7343    4.5997 N   0  3  3  0  0  0  0  0  0  0  0  0
    5.2691    5.6107    5.4468 C   0  0  0  0  0  0  0  0  0  0  0  0
    6.5645    4.9553    5.8302 C   0  0  0  0  0  0  0  0  0  0  0  0
    5.4464    5.0508    6.8288 C   0  0  0  0  0  0  0  0  0  0  0  0
    5.1212    4.4841    3.3153 C   0  0  0  0  0  0  0  0  0  0  0  0
    4.2596    3.6022    2.4258 C   0  0  0  0  0  0  0  0  0  0  0  0
   -0.3059    0.7075    1.7208 C   0  0  0  0  0  0  0  0  0  0  0  0
   -0.7943   -0.3868    1.6571 O   0  0  0  0  0  0  0  0  0  0  0  0
   -0.8981    1.6499    2.4116 O   0  0  0  0  0  0  0  0  0  0  0  0
   -2.1180    1.3766    3.0850 C   0  0  0  0  0  0  0  0  0  0  0  0
    3.5906    5.2083    4.4091 H   0  0  0  0  0  0  0  0  0  0  0  0
   -1.9665    1.5925   -0.4344 H   0  0  0  0  0  0  0  0  0  0  0  0
    1.4095   -0.1186   -2.1444 H   0  0  0  0  0  0  0  0  0  0  0  0
    0.0085   -1.4883   -3.5157 H   0  0  0  0  0  0  0  0  0  0  0  0
   -2.3721   -1.3295   -3.3566 H   0  0  0  0  0  0  0  0  0  0  0  0
    0.2333    2.5799   -0.1134 H   0  0  0  0  0  0  0  0  0  0  0  0
    1.5666    1.9133   -0.7801 H   0  0  0  0  0  0  0  0  0  0  0  0
    1.4742    0.1409    0.8075 H   0  0  0  0  0  0  0  0  0  0  0  0
    1.5250    2.7498    2.1374 H   0  0  0  0  0  0  0  0  0  0  0  0
    4.8217    1.8091    3.3119 H   0  0  0  0  0  0  0  0  0  0  0  0
    3.0786    1.7326    4.9206 H   0  0  0  0  0  0  0  0  0  0  0  0
    2.3928    3.0526    4.2467 H   0  0  0  0  0  0  0  0  0  0  0  0
    3.6394    3.6987    6.1483 H   0  0  0  0  0  0  0  0  0  0  0  0
    4.9778    3.0029    5.5227 H   0  0  0  0  0  0  0  0  0  0  0  0
    5.2351    6.6012    5.3140 H   0  0  0  0  0  0  0  0  0  0  0  0
    7.3890    5.5086    5.9483 H   0  0  0  0  0  0  0  0  0  0  0  0
    6.8112    4.0687    5.4391 H   0  0  0  0  0  0  0  0  0  0  0  0
    4.9488    4.2278    7.1026 H   0  0  0  0  0  0  0  0  0  0  0  0
    5.5266    5.6677    7.6118 H   0  0  0  0  0  0  0  0  0  0  0  0
    5.9947    4.0275    3.4841 H   0  0  0  0  0  0  0  0  0  0  0  0
    5.2847    5.3564    2.8543 H   0  0  0  0  0  0  0  0  0  0  0  0
    3.3997    4.0725    2.2277 H   0  0  0  0  0  0  0  0  0  0  0  0
    4.7451    3.4210    1.5705 H   0  0  0  0  0  0  0  0  0  0  0  0
   -2.4289    2.2004    3.5590 H   0  0  0  0  0  0  0  0  0  0  0  0
   -2.8095    1.0935    2.4204 H   0  0  0  0  0  0  0  0  0  0  0  0
   -1.9748    0.6435    3.7498 H   0  0  0  0  0  0  0  0  0  0  0  0
  1  2  1  0  0  0  0
  2  3  1  0  0  0  0
  3  4  2  0  0  0  0
  4  5  1  0  0  0  0
  5  6  2  0  0  0  0
  6  7  1  0  0  0  0
  7  2  2  0  0  0  0
  4  8  1  0  0  0  0
  8  9  1  0  0  0  0
  9 10  1  0  0  0  0
 10 11  1  0  0  0  0
 11 12  2  0  0  0  0
 11 13  1  0  0  0  0
 13 14  1  0  0  0  0
 14 15  1  0  0  0  0
 15 16  1  0  0  0  0
 16 17  1  0  0  0  0
 17 18  1  0  0  0  0
 18 19  1  0  0  0  0
 19 17  1  0  0  0  0
 16 20  1  0  0  0  0
 20 21  1  0  0  0  0
 21 13  1  0  0  0  0
  9 22  1  0  0  0  0
 22 23  2  0  0  0  0
 22 24  1  0  0  0  0
 24 25  1  0  0  0  0
 16 26  1  0  0  0  0
  3 27  1  0  0  0  0
  5 28  1  0  0  0  0
  6 29  1  0  0  0  0
  7 30  1  0  0  0  0
  8 31  1  0  0  0  0
  8 32  1  0  0  0  0
  9 33  1  0  0  0  0
 10 34  1  0  0  0  0
 13 35  1  0  0  0  0
 14 36  1  0  0  0  0
 14 37  1  0  0  0  0
 15 38  1  0  0  0  0
 15 39  1  0  0  0  0
 17 40  1  0  0  0  0
 18 41  1  0  0  0  0
 18 42  1  0  0  0  0
 19 43  1  0  0  0  0
 19 44  1  0  0  0  0
 20 45  1  0  0  0  0
 20 46  1  0  0  0  0
 21 47  1  0  0  0  0
 21 48  1  0  0  0  0
 25 49  1  0  0  0  0
 25 50  1  0  0  0  0
 25 51  1  0  0  0  0
M  CHG  1  16   1
M  END
>  <result-rank>
32

>  <similarity>
0.951

>  <query-name>
LIG_A_1101_CCC[C@H]([R*])C1CCC1_2

>  <query-smiles>
O=C(N[C@H](C1CCC1)CCC)[C@@H](NC(=O)C)Cc2ccc(O)cc2

>  <source>
REALspace_2019-12

>  <similarity-descriptor>
0.991;0.962;1.000;0.991;0.991;0.875;0.875;0.875;1.000;1.000;0.855;0.994;1.000;0.0;0.0

>  <similarity-descriptor-smiles>
C1CC[NH+]CC1;Brc1ccccc1;C=O;C1CC[NH+]CC1;C1CC[NH+]CC1;C1CC1;C1CC1;C1CC1;CN;CN;C(=O)O;C;C;;

>  <reaction-name>
s_11a

>  <reagent1-name>
15106604

>  <reagent1-smiles>
[R1*]NC(C(=O)OC)Cc1cc(Br)ccc1

>  <reagent2-name>
9438614

>  <reagent2-smiles>
[R1*]C(=O)C1CCN(C2CC2)CC1

$$$$
s_512____7142870____13941176
          04022015093D 1   1.00000     0.00000     0
            
 50 51  0  0  0  0            999 V2000
    6.5901   -0.6064   -3.9522 Cl  0  0  0  0  0  0  0  0  0  0  0  0
    5.5674   -0.5069   -2.4989 C   0  0  0  0  0  0  0  0  0  0  0  0
    5.6109    0.6296   -1.6990 C   0  0  0  0  0  0  0  0  0  0  0  0
    4.8137    0.7112   -0.5618 C   0  0  0  0  0  0  0  0  0  0  0  0
    3.9785   -0.3535   -0.2406 C   0  0  0  0  0  0  0  0  0  0  0  0
    3.9349   -1.4903   -1.0400 C   0  0  0  0  0  0  0  0  0  0  0  0
    4.7323   -1.5720   -2.1774 C   0  0  0  0  0  0  0  0  0  0  0  0
    3.1050   -0.2731    1.0000 C   0  0  3  0  0  0  0  0  0  0  0  0
    2.3700    1.0000    1.0000 N   0  0  0  0  0  0  0  0  0  0  0  0
    1.0000    1.0000    1.0000 C   0  0  0  0  0  0  0  0  0  0  0  0
    0.4000   -0.0392    1.0000 O   0  0  0  0  0  0  0  0  0  0  0  0
    0.3150    2.1865    1.0000 N   0  0  0  0  0  0  0  0  0  0  0  0
   -1.1548    2.1865    1.0000 C   0  0  3  0  0  0  0  0  0  0  0  0
   -1.6718    2.9013   -0.2382 C   0  0  0  0  0  0  0  0  0  0  0  0
   -3.1920    2.9190   -0.2393 C   0  0  0  0  0  0  0  0  0  0  0  0
   -3.7068    3.6138    1.0110 C   0  0  3  0  0  0  0  0  0  0  0  0
   -5.2269    3.6218    1.0093 C   0  0  0  0  0  0  0  0  0  0  0  0
   -5.7283    4.3635   -0.2191 C   0  0  0  0  0  0  0  0  0  0  0  0
   -5.7411    2.1917    0.9827 C   0  0  0  0  0  0  0  0  0  0  0  0
   -3.1898    2.9038    2.2517 C   0  0  0  0  0  0  0  0  0  0  0  0
   -1.6697    2.8913    2.2446 C   0  0  0  0  0  0  0  0  0  0  0  0
    3.9789   -0.3536    2.2411 C   0  0  0  0  0  0  0  0  0  0  0  0
    5.0852   -0.8125    2.1672 O   0  0  0  0  0  0  0  0  0  0  0  0
    3.5034    0.0977    3.4441 N   0  0  0  0  0  0  0  0  0  0  0  0
    6.2154    1.3885   -1.9412 H   0  0  0  0  0  0  0  0  0  0  0  0
    4.8408    1.5257    0.0177 H   0  0  0  0  0  0  0  0  0  0  0  0
    3.3304   -2.2492   -0.7976 H   0  0  0  0  0  0  0  0  0  0  0  0
    4.7053   -2.3866   -2.7568 H   0  0  0  0  0  0  0  0  0  0  0  0
    2.4552   -1.0331    1.0000 H   0  0  0  0  0  0  0  0  0  0  0  0
    2.8700    1.8660    1.0000 H   0  0  0  0  0  0  0  0  0  0  0  0
    0.8150    3.0525    1.0000 H   0  0  0  0  0  0  0  0  0  0  0  0
   -1.4840    1.2422    0.9965 H   0  0  0  0  0  0  0  0  0  0  0  0
   -1.3466    2.4244   -1.0548 H   0  0  0  0  0  0  0  0  0  0  0  0
   -1.3308    3.8414   -0.2433 H   0  0  0  0  0  0  0  0  0  0  0  0
   -3.5166    3.4097   -1.0479 H   0  0  0  0  0  0  0  0  0  0  0  0
   -3.5337    1.9794   -0.2601 H   0  0  0  0  0  0  0  0  0  0  0  0
   -3.3774    4.5580    1.0164 H   0  0  0  0  0  0  0  0  0  0  0  0
   -5.5587    4.0801    1.8339 H   0  0  0  0  0  0  0  0  0  0  0  0
   -6.7283    4.3688   -0.2201 H   0  0  0  0  0  0  0  0  0  0  0  0
   -5.3900    5.3044   -0.2015 H   0  0  0  0  0  0  0  0  0  0  0  0
   -5.3965    3.9053   -1.0436 H   0  0  0  0  0  0  0  0  0  0  0  0
   -6.7411    2.1970    0.9816 H   0  0  0  0  0  0  0  0  0  0  0  0
   -5.4093    1.7335    0.1581 H   0  0  0  0  0  0  0  0  0  0  0  0
   -5.4112    1.7038    1.7908 H   0  0  0  0  0  0  0  0  0  0  0  0
   -3.5291    1.9632    2.2611 H   0  0  0  0  0  0  0  0  0  0  0  0
   -3.5137    3.3832    3.0673 H   0  0  0  0  0  0  0  0  0  0  0  0
   -1.3318    3.8324    2.2545 H   0  0  0  0  0  0  0  0  0  0  0  0
   -1.3397    2.4100    3.0567 H   0  0  0  0  0  0  0  0  0  0  0  0
    2.5815    0.4801    3.5057 H   0  0  0  0  0  0  0  0  0  0  0  0
    4.0784    0.0448    4.2606 H   0  0  0  0  0  0  0  0  0  0  0  0
  1  2  1  0  0  0  0
  2  3  1  0  0  0  0
  3  4  2  0  0  0  0
  4  5  1  0  0  0  0
  5  6  2  0  0  0  0
  6  7  1  0  0  0  0
  7  2  2  0  0  0  0
  5  8  1  0  0  0  0
  8  9  1  0  0  0  0
  9 10  1  0  0  0  0
 10 11  2  0  0  0  0
 10 12  1  0  0  0  0
 12 13  1  0  0  0  0
 13 14  1  0  0  0  0
 14 15  1  0  0  0  0
 15 16  1  0  0  0  0
 16 17  1  0  0  0  0
 17 18  1  0  0  0  0
 17 19  1  0  0  0  0
 16 20  1  0  0  0  0
 20 21  1  0  0  0  0
 21 13  1  0  0  0  0
  8 22  1  0  0  0  0
 22 23  2  0  0  0  0
 22 24  1  0  0  0  0
  3 25  1  0  0  0  0
  4 26  1  0  0  0  0
  6 27  1  0  0  0  0
  7 28  1  0  0  0  0
  8 29  1  0  0  0  0
  9 30  1  0  0  0  0
 12 31  1  0  0  0  0
 13 32  1  0  0  0  0
 14 33  1  0  0  0  0
 14 34  1  0  0  0  0
 15 35  1  0  0  0  0
 15 36  1  0  0  0  0
 16 37  1  0  0  0  0
 17 38  1  0  0  0  0
 18 39  1  0  0  0  0
 18 40  1  0  0  0  0
 18 41  1  0  0  0  0
 19 42  1  0  0  0  0
 19 43  1  0  0  0  0
 19 44  1  0  0  0  0
 20 45  1  0  0  0  0
 20 46  1  0  0  0  0
 21 47  1  0  0  0  0
 21 48  1  0  0  0  0
 24 49  1  0  0  0  0
 24 50  1  0  0  0  0
M  END
>  <result-rank>
33

>  <similarity>
0.950

>  <query-name>
LIG_A_1101_CCC[C@H]([R*])C1CCC1_2

>  <query-smiles>
O=C(N[C@H](C1CCC1)CCC)[C@@H](NC(=O)C)Cc2ccc(O)cc2

>  <source>
REALspace_2019-12

>  <similarity-descriptor>
1.000;0.969;0.995;1.000;1.000;1.000;0.974;0.974;1.000;1.000;0.836;0.836;0.969;0.0;0.182

>  <similarity-descriptor-smiles>
C1CCCCC1;Clc1ccccc1;C=O;N;C1CCCCC1;C1CCCCC1;CC;CC;CN;CN;C=O;C=O;Clc1ccccc1;;C.N

>  <reaction-name>
s_512

>  <reagent1-name>
7142870

>  <reagent1-smiles>
[R1*]C(=O)NC1CCC(C(C)C)CC1

>  <reagent2-name>
13941176

>  <reagent2-smiles>
[R1*]NC(c1ccc(Cl)cc1)C(=O)N

$$$$
s_22____10971288____17318518
          04022015093D 1   1.00000     0.00000     0
            
 61 62  0  0  0  0            999 V2000
   -2.8437   -2.6207    2.1885 Br  0  0  0  0  0  0  0  0  0  0  0  0
   -2.0512   -0.8314    2.2953 C   0  0  0  0  0  0  0  0  0  0  0  0
   -0.8563   -0.5677    1.6347 C   0  0  0  0  0  0  0  0  0  0  0  0
   -0.3061    0.7074    1.7209 C   0  0  0  0  0  0  0  0  0  0  0  0
   -0.9328    1.7098    2.4535 C   0  0  0  0  0  0  0  0  0  0  0  0
   -2.1271    1.4243    3.1070 C   0  0  0  0  0  0  0  0  0  0  0  0
   -2.6941    0.1563    3.0338 C   0  0  0  0  0  0  0  0  0  0  0  0
    1.0000    1.0000    1.0000 C   0  0  3  0  0  0  0  0  0  0  0  0
    1.8487    1.8487    1.8487 N   0  0  0  0  0  0  0  0  0  0  0  0
    3.0831    1.4052    2.2442 C   0  0  0  0  0  0  0  0  0  0  0  0
    3.4716    0.3240    1.8978 O   0  0  0  0  0  0  0  0  0  0  0  0
    3.8395    2.1616    3.0005 O   0  0  0  0  0  0  0  0  0  0  0  0
    5.1190    1.7019    3.4104 C   0  0  0  0  0  0  0  0  0  0  0  0
    4.9639    0.4196    4.2118 C   0  0  0  0  0  0  0  0  0  0  0  0
    5.9772    1.4330    2.1851 C   0  0  0  0  0  0  0  0  0  0  0  0
    5.7854    2.7611    4.2732 C   0  0  0  0  0  0  0  0  0  0  0  0
    0.7075    1.7208   -0.3059 C   0  0  0  0  0  0  0  0  0  0  0  0
    0.7041    1.1116   -1.3397 O   0  0  0  0  0  0  0  0  0  0  0  0
    0.4477    3.0659   -0.3025 N   0  0  0  0  0  0  0  0  0  0  0  0
    0.1647    3.7632   -1.5656 C   0  0  3  0  0  0  0  0  0  0  0  0
   -1.2103    4.3995   -1.5437 C   0  0  3  0  0  0  0  0  0  0  0  0
   -2.2643    3.4821   -2.1431 C   0  0  0  0  0  0  0  0  0  0  0  0
   -3.6197    4.1684   -2.0956 C   0  0  0  0  0  0  0  0  0  0  0  0
   -1.9039    3.1716   -3.5868 C   0  0  0  0  0  0  0  0  0  0  0  0
   -2.3229    2.1890   -1.3462 C   0  0  0  0  0  0  0  0  0  0  0  0
   -1.0124    5.6653   -2.3531 C   0  0  0  0  0  0  0  0  0  0  0  0
    0.3383    6.1653   -1.8946 C   0  0  0  0  0  0  0  0  0  0  0  0
    1.1498    4.8889   -1.8239 C   0  0  0  0  0  0  0  0  0  0  0  0
   -0.3996   -1.2832    1.1061 H   0  0  0  0  0  0  0  0  0  0  0  0
   -0.5303    2.6235    2.5096 H   0  0  0  0  0  0  0  0  0  0  0  0
   -2.5836    2.1395    3.6362 H   0  0  0  0  0  0  0  0  0  0  0  0
   -3.5530   -0.0425    3.5059 H   0  0  0  0  0  0  0  0  0  0  0  0
    1.4742    0.1409    0.8075 H   0  0  0  0  0  0  0  0  0  0  0  0
    1.5250    2.7498    2.1374 H   0  0  0  0  0  0  0  0  0  0  0  0
    5.8649    0.0959    4.5004 H   0  0  0  0  0  0  0  0  0  0  0  0
    4.3992    0.5966    5.0179 H   0  0  0  0  0  0  0  0  0  0  0  0
    4.5255   -0.2772    3.6441 H   0  0  0  0  0  0  0  0  0  0  0  0
    6.8783    1.1093    2.4738 H   0  0  0  0  0  0  0  0  0  0  0  0
    5.5388    0.7361    1.6175 H   0  0  0  0  0  0  0  0  0  0  0  0
    6.0792    2.2766    1.6579 H   0  0  0  0  0  0  0  0  0  0  0  0
    6.6864    2.4374    4.5619 H   0  0  0  0  0  0  0  0  0  0  0  0
    5.8874    3.6047    3.7460 H   0  0  0  0  0  0  0  0  0  0  0  0
    5.2207    2.9380    5.0794 H   0  0  0  0  0  0  0  0  0  0  0  0
    0.4505    3.5736    0.5591 H   0  0  0  0  0  0  0  0  0  0  0  0
    0.2108    3.1077   -2.3195 H   0  0  0  0  0  0  0  0  0  0  0  0
   -1.4600    4.6339   -0.6042 H   0  0  0  0  0  0  0  0  0  0  0  0
   -4.3129    3.5651   -2.4898 H   0  0  0  0  0  0  0  0  0  0  0  0
   -3.8567    4.3727   -1.1458 H   0  0  0  0  0  0  0  0  0  0  0  0
   -3.5811    5.0191   -2.6198 H   0  0  0  0  0  0  0  0  0  0  0  0
   -2.5971    2.5683   -3.9810 H   0  0  0  0  0  0  0  0  0  0  0  0
   -1.8654    4.0223   -4.1111 H   0  0  0  0  0  0  0  0  0  0  0  0
   -1.0122    2.7201   -3.6181 H   0  0  0  0  0  0  0  0  0  0  0  0
   -3.0161    1.5857   -1.7405 H   0  0  0  0  0  0  0  0  0  0  0  0
   -1.4312    1.7375   -1.3775 H   0  0  0  0  0  0  0  0  0  0  0  0
   -2.5600    2.3933   -0.3965 H   0  0  0  0  0  0  0  0  0  0  0  0
   -1.7285    6.3339   -2.1528 H   0  0  0  0  0  0  0  0  0  0  0  0
   -1.0067    5.4663   -3.3331 H   0  0  0  0  0  0  0  0  0  0  0  0
    0.7296    6.8069   -2.5543 H   0  0  0  0  0  0  0  0  0  0  0  0
    0.2763    6.6049   -0.9985 H   0  0  0  0  0  0  0  0  0  0  0  0
    1.6293    4.7365   -2.6881 H   0  0  0  0  0  0  0  0  0  0  0  0
    1.8146    4.9435   -1.0789 H   0  0  0  0  0  0  0  0  0  0  0  0
  1  2  1  0  0  0  0
  2  3  1  0  0  0  0
  3  4  2  0  0  0  0
  4  5  1  0  0  0  0
  5  6  2  0  0  0  0
  6  7  1  0  0  0  0
  7  2  2  0  0  0  0
  4  8  1  0  0  0  0
  8  9  1  0  0  0  0
  9 10  1  0  0  0  0
 10 11  2  0  0  0  0
 10 12  1  0  0  0  0
 12 13  1  0  0  0  0
 13 14  1  0  0  0  0
 13 15  1  0  0  0  0
 13 16  1  0  0  0  0
  8 17  1  0  0  0  0
 17 18  2  0  0  0  0
 17 19  1  0  0  0  0
 19 20  1  0  0  0  0
 20 21  1  0  0  0  0
 21 22  1  0  0  0  0
 22 23  1  0  0  0  0
 22 24  1  0  0  0  0
 22 25  1  0  0  0  0
 21 26  1  0  0  0  0
 26 27  1  0  0  0  0
 27 28  1  0  0  0  0
 28 20  1  0  0  0  0
  3 29  1  0  0  0  0
  5 30  1  0  0  0  0
  6 31  1  0  0  0  0
  7 32  1  0  0  0  0
  8 33  1  0  0  0  0
  9 34  1  0  0  0  0
 14 35  1  0  0  0  0
 14 36  1  0  0  0  0
 14 37  1  0  0  0  0
 15 38  1  0  0  0  0
 15 39  1  0  0  0  0
 15 40  1  0  0  0  0
 16 41  1  0  0  0  0
 16 42  1  0  0  0  0
 16 43  1  0  0  0  0
 19 44  1  0  0  0  0
 20 45  1  0  0  0  0
 21 46  1  0  0  0  0
 23 47  1  0  0  0  0
 23 48  1  0  0  0  0
 23 49  1  0  0  0  0
 24 50  1  0  0  0  0
 24 51  1  0  0  0  0
 24 52  1  0  0  0  0
 25 53  1  0  0  0  0
 25 54  1  0  0  0  0
 25 55  1  0  0  0  0
 26 56  1  0  0  0  0
 26 57  1  0  0  0  0
 27 58  1  0  0  0  0
 27 59  1  0  0  0  0
 28 60  1  0  0  0  0
 28 61  1  0  0  0  0
M  END
>  <result-rank>
34

>  <similarity>
0.950

>  <query-name>
LIG_A_1101_CCC[C@H]([R*])C1CCC1_2

>  <query-smiles>
O=C(N[C@H](C1CCC1)CCC)[C@@H](NC(=O)C)Cc2ccc(O)cc2

>  <source>
REALspace_2019-12

>  <similarity-descriptor>
1.000;0.969;1.000;1.000;1.000;0.937;0.937;1.000;1.000;1.000;0.851;0.971;0.969;0.0;0.125

>  <similarity-descriptor-smiles>
C1CCCC1;Brc1ccccc1;C=O;N;C1CCCC1;C(C)C;C(C)C;C;C;N;C(=O)O;CC;Brc1ccccc1;;C.C

>  <reaction-name>
s_22

>  <reagent1-name>
10971288

>  <reagent1-smiles>
[R1*]NC1C(C(C)(C)C)CCC1

>  <reagent2-name>
17318518

>  <reagent2-smiles>
[R1*]C(=O)C(NC(=O)OC(C)(C)C)c1cc(Br)ccc1

$$$$
s_22____10544252____107332
          04022015093D 1   1.00000     0.00000     0
            
 52 53  0  0  0  0            999 V2000
   -0.0335   -2.6021    7.8213 Cl  0  0  0  0  0  0  0  0  0  0  0  0
   -0.5358   -1.4474    6.5634 C   0  0  0  0  0  0  0  0  0  0  0  0
   -1.2702   -1.8922    5.4697 C   0  0  0  0  0  0  0  0  0  0  0  0
   -1.6642   -0.9931    4.4839 C   0  0  0  0  0  0  0  0  0  0  0  0
   -1.3151    0.3473    4.6089 C   0  0  0  0  0  0  0  0  0  0  0  0
   -0.5804    0.7925    5.7022 C   0  0  0  0  0  0  0  0  0  0  0  0
   -0.1863   -0.1067    6.6883 C   0  0  0  0  0  0  0  0  0  0  0  0
   -1.7407    1.3359    3.5365 C   0  0  3  0  0  0  0  0  0  0  0  0
   -3.2083    1.3966    3.4807 N   0  0  0  0  0  0  0  0  0  0  0  0
   -3.8542    2.5821    3.7139 C   0  0  0  0  0  0  0  0  0  0  0  0
   -3.2218    3.5709    3.9637 O   0  0  0  0  0  0  0  0  0  0  0  0
   -5.3718    2.6449    3.6563 C   0  0  0  0  0  0  0  0  0  0  0  0
   -1.2007    0.8853    2.1890 C   0  0  0  0  0  0  0  0  0  0  0  0
    0.3150    1.0000    2.1865 C   0  0  0  0  0  0  0  0  0  0  0  0
    0.9116    1.0906    3.2237 O   0  0  0  0  0  0  0  0  0  0  0  0
    1.0000    1.0000    1.0000 N   0  0  0  0  0  0  0  0  0  0  0  0
    2.4700    1.0000    1.0000 C   0  0  0  0  0  0  0  0  0  0  0  0
    2.9767    1.0000   -0.4331 C   0  0  0  0  0  0  0  0  0  0  0  0
    4.4959    1.0000   -0.4331 C   0  0  0  0  0  0  0  0  0  0  0  0
    5.0401    2.2297    0.2769 C   0  0  0  0  0  0  0  0  0  0  0  0
    4.5844    3.3996   -0.3865 O   0  0  0  0  0  0  0  0  0  0  0  0
    5.0925    4.5479    0.2765 C   0  0  0  0  0  0  0  0  0  0  0  0
    5.1654   -0.2960   -0.0111 C   0  0  0  0  0  0  0  0  0  0  0  0
    5.0896   -0.7268   -1.4552 C   0  0  0  0  0  0  0  0  0  0  0  0
    5.1480    0.7502   -1.7716 C   0  0  0  0  0  0  0  0  0  0  0  0
   -1.5153   -2.8585    5.3918 H   0  0  0  0  0  0  0  0  0  0  0  0
   -2.1922   -1.3069    3.6947 H   0  0  0  0  0  0  0  0  0  0  0  0
   -0.3353    1.7589    5.7799 H   0  0  0  0  0  0  0  0  0  0  0  0
    0.3419    0.2070    7.4773 H   0  0  0  0  0  0  0  0  0  0  0  0
   -1.3776    2.2417    3.7551 H   0  0  0  0  0  0  0  0  0  0  0  0
   -3.7353    0.5726    3.2726 H   0  0  0  0  0  0  0  0  0  0  0  0
   -5.7349    1.7391    3.4377 H   0  0  0  0  0  0  0  0  0  0  0  0
   -5.7271    2.9414    4.5428 H   0  0  0  0  0  0  0  0  0  0  0  0
   -5.6520    3.2955    2.9504 H   0  0  0  0  0  0  0  0  0  0  0  0
   -1.4632   -0.0657    2.0258 H   0  0  0  0  0  0  0  0  0  0  0  0
   -1.5800    1.4643    1.4673 H   0  0  0  0  0  0  0  0  0  0  0  0
    0.5000    1.0000    0.1340 H   0  0  0  0  0  0  0  0  0  0  0  0
    2.8033    0.1835    1.4714 H   0  0  0  0  0  0  0  0  0  0  0  0
    2.8033    1.8165    1.4714 H   0  0  0  0  0  0  0  0  0  0  0  0
    2.6433    0.1835   -0.9045 H   0  0  0  0  0  0  0  0  0  0  0  0
    2.6433    1.8165   -0.9045 H   0  0  0  0  0  0  0  0  0  0  0  0
    4.7192    2.2371    1.2240 H   0  0  0  0  0  0  0  0  0  0  0  0
    6.0397    2.2070    0.2638 H   0  0  0  0  0  0  0  0  0  0  0  0
    4.7716    5.3718   -0.1906 H   0  0  0  0  0  0  0  0  0  0  0  0
    4.7716    4.5553    1.2236 H   0  0  0  0  0  0  0  0  0  0  0  0
    6.0922    4.5253    0.2635 H   0  0  0  0  0  0  0  0  0  0  0  0
    4.6292   -0.8563    0.6202 H   0  0  0  0  0  0  0  0  0  0  0  0
    6.0941   -0.1894    0.3443 H   0  0  0  0  0  0  0  0  0  0  0  0
    4.2398   -1.1838   -1.7177 H   0  0  0  0  0  0  0  0  0  0  0  0
    5.8697   -1.2615   -1.7801 H   0  0  0  0  0  0  0  0  0  0  0  0
    6.0725    1.1210   -1.8601 H   0  0  0  0  0  0  0  0  0  0  0  0
    4.6000    1.0291   -2.5602 H   0  0  0  0  0  0  0  0  0  0  0  0
  1  2  1  0  0  0  0
  2  3  1  0  0  0  0
  3  4  2  0  0  0  0
  4  5  1  0  0  0  0
  5  6  2  0  0  0  0
  6  7  1  0  0  0  0
  7  2  2  0  0  0  0
  5  8  1  0  0  0  0
  8  9  1  0  0  0  0
  9 10  1  0  0  0  0
 10 11  2  0  0  0  0
 10 12  1  0  0  0  0
  8 13  1  0  0  0  0
 13 14  1  0  0  0  0
 14 15  2  0  0  0  0
 14 16  1  0  0  0  0
 16 17  1  0  0  0  0
 17 18  1  0  0  0  0
 18 19  1  0  0  0  0
 19 20  1  0  0  0  0
 20 21  1  0  0  0  0
 21 22  1  0  0  0  0
 19 23  1  0  0  0  0
 23 24  1  0  0  0  0
 24 25  1  0  0  0  0
 25 19  1  0  0  0  0
  3 26  1  0  0  0  0
  4 27  1  0  0  0  0
  6 28  1  0  0  0  0
  7 29  1  0  0  0  0
  8 30  1  0  0  0  0
  9 31  1  0  0  0  0
 12 32  1  0  0  0  0
 12 33  1  0  0  0  0
 12 34  1  0  0  0  0
 13 35  1  0  0  0  0
 13 36  1  0  0  0  0
 16 37  1  0  0  0  0
 17 38  1  0  0  0  0
 17 39  1  0  0  0  0
 18 40  1  0  0  0  0
 18 41  1  0  0  0  0
 20 42  1  0  0  0  0
 20 43  1  0  0  0  0
 22 44  1  0  0  0  0
 22 45  1  0  0  0  0
 22 46  1  0  0  0  0
 23 47  1  0  0  0  0
 23 48  1  0  0  0  0
 24 49  1  0  0  0  0
 24 50  1  0  0  0  0
 25 51  1  0  0  0  0
 25 52  1  0  0  0  0
M  END
>  <result-rank>
35

>  <similarity>
0.950

>  <query-name>
LIG_A_1101_CCC[C@H]([R*])C1CCC1_2

>  <query-smiles>
O=C(N[C@H](C1CCC1)CCC)[C@@H](NC(=O)C)Cc2ccc(O)cc2

>  <source>
REALspace_2019-12

>  <similarity-descriptor>
0.974;0.968;1.000;1.000;0.969;0.969;0.0;0.0;1.000;1.000;1.000;1.000;1.000;0.0;0.143

>  <similarity-descriptor-smiles>
C1(CCC1)C;Clc1ccccc1;C=O;N;CC;CC;;;CC;N;C=O;C;CC;;O.C

>  <reaction-name>
s_22

>  <reagent1-name>
10544252

>  <reagent1-smiles>
[R1*]NCCC1(COC)CCC1

>  <reagent2-name>
107332

>  <reagent2-smiles>
[R1*]C(=O)CC(NC(=O)C)c1ccc(Cl)cc1

$$$$
s_512____14944764____9866152
          04022015093D 1   1.00000     0.00000     0
            
 56 57  0  0  0  0            999 V2000
    4.9449    2.6885    4.4360 S   0  0  0  0  0  0  0  0  0  0  0  0
    4.7926    2.1429    2.8306 C   0  0  0  0  0  0  0  0  0  0  0  0
    3.5740    2.5875    2.4116 C   0  0  0  0  0  0  0  0  0  0  0  0
    2.8414    3.3207    3.3832 C   0  0  0  0  0  0  0  0  0  0  0  0
    3.4475    3.4909    4.5911 C   0  0  0  0  0  0  0  0  0  0  0  0
    3.1050    2.2731    1.0000 C   0  0  0  0  0  0  0  0  0  0  0  0
    2.3700    1.0000    1.0000 N   0  0  0  0  0  0  0  0  0  0  0  0
    1.0000    1.0000    1.0000 C   0  0  0  0  0  0  0  0  0  0  0  0
    0.4000   -0.0392    1.0000 O   0  0  0  0  0  0  0  0  0  0  0  0
    0.3150    2.1865    1.0000 N   0  0  0  0  0  0  0  0  0  0  0  0
   -1.1547    2.1865    1.0000 C   0  0  3  0  0  0  0  0  0  0  0  0
   -1.6902    2.8959   -0.2288 C   0  0  0  0  0  0  0  0  0  0  0  0
   -3.1059    3.2453    0.1654 C   0  0  3  0  0  0  0  0  0  0  0  0
   -3.6679    4.3452   -0.7189 C   0  0  0  0  0  0  0  0  0  0  0  0
   -5.0902    4.6643   -0.2883 C   0  0  0  0  0  0  0  0  0  0  0  0
   -5.6525    5.7649   -1.1732 C   0  0  0  0  0  0  0  0  0  0  0  0
   -5.9512    3.4186   -0.4203 C   0  0  0  0  0  0  0  0  0  0  0  0
   -2.9321    3.7430    1.5899 C   0  0  0  0  0  0  0  0  0  0  0  0
   -1.6950    3.0465    2.1322 C   0  0  0  0  0  0  0  0  0  0  0  0
    3.1050   -0.2731    1.0000 C   0  0  0  0  0  0  0  0  0  0  0  0
    3.3583   -0.7118   -0.4331 C   0  0  0  0  0  0  0  0  0  0  0  0
    2.0739   -0.8876   -1.1260 N   0  0  0  0  0  0  0  0  0  0  0  0
    2.0516   -1.2826   -2.4377 C   0  0  0  0  0  0  0  0  0  0  0  0
    3.0806   -1.4852   -3.0208 O   0  0  0  0  0  0  0  0  0  0  0  0
    0.7235   -1.4644   -3.1542 C   0  0  0  0  0  0  0  0  0  0  0  0
    5.4563    1.6095    2.3062 H   0  0  0  0  0  0  0  0  0  0  0  0
    1.9325    3.6908    3.1913 H   0  0  0  0  0  0  0  0  0  0  0  0
    3.0938    3.9774    5.3900 H   0  0  0  0  0  0  0  0  0  0  0  0
    2.5044    3.0047    0.6775 H   0  0  0  0  0  0  0  0  0  0  0  0
    3.8971    2.2006    0.3940 H   0  0  0  0  0  0  0  0  0  0  0  0
    0.8150    3.0525    1.0000 H   0  0  0  0  0  0  0  0  0  0  0  0
   -1.5118    1.2542    1.0581 H   0  0  0  0  0  0  0  0  0  0  0  0
   -1.6784    2.2917   -1.0256 H   0  0  0  0  0  0  0  0  0  0  0  0
   -1.1594    3.7198   -0.4273 H   0  0  0  0  0  0  0  0  0  0  0  0
   -3.6919    2.4353    0.1409 H   0  0  0  0  0  0  0  0  0  0  0  0
   -3.6684    4.0397   -1.6711 H   0  0  0  0  0  0  0  0  0  0  0  0
   -3.1015    5.1647   -0.6320 H   0  0  0  0  0  0  0  0  0  0  0  0
   -5.0897    4.9698    0.6639 H   0  0  0  0  0  0  0  0  0  0  0  0
   -6.5883    5.9749   -0.8899 H   0  0  0  0  0  0  0  0  0  0  0  0
   -5.0861    6.5845   -1.0863 H   0  0  0  0  0  0  0  0  0  0  0  0
   -5.6531    5.4595   -2.1254 H   0  0  0  0  0  0  0  0  0  0  0  0
   -6.8870    3.6286   -0.1371 H   0  0  0  0  0  0  0  0  0  0  0  0
   -5.9517    3.1132   -1.3725 H   0  0  0  0  0  0  0  0  0  0  0  0
   -5.5813    2.6946    0.1618 H   0  0  0  0  0  0  0  0  0  0  0  0
   -3.7328    3.5064    2.1403 H   0  0  0  0  0  0  0  0  0  0  0  0
   -2.8035    4.7347    1.5977 H   0  0  0  0  0  0  0  0  0  0  0  0
   -1.0118    3.7218    2.4098 H   0  0  0  0  0  0  0  0  0  0  0  0
   -1.9360    2.4744    2.9162 H   0  0  0  0  0  0  0  0  0  0  0  0
    2.5646   -0.9700    1.4714 H   0  0  0  0  0  0  0  0  0  0  0  0
    3.9788   -0.1535    1.4714 H   0  0  0  0  0  0  0  0  0  0  0  0
    3.8988   -0.0149   -0.9045 H   0  0  0  0  0  0  0  0  0  0  0  0
    3.8583   -1.5779   -0.4331 H   0  0  0  0  0  0  0  0  0  0  0  0
    1.2164   -0.7188   -0.6400 H   0  0  0  0  0  0  0  0  0  0  0  0
   -0.0257   -1.2554   -2.5257 H   0  0  0  0  0  0  0  0  0  0  0  0
    0.6814   -0.8472   -3.9399 H   0  0  0  0  0  0  0  0  0  0  0  0
    0.6410   -2.4101   -3.4685 H   0  0  0  0  0  0  0  0  0  0  0  0
  1  2  1  0  0  0  0
  2  3  2  0  0  0  0
  3  4  1  0  0  0  0
  4  5  2  0  0  0  0
  5  1  1  0  0  0  0
  3  6  1  0  0  0  0
  6  7  1  0  0  0  0
  7  8  1  0  0  0  0
  8  9  2  0  0  0  0
  8 10  1  0  0  0  0
 10 11  1  0  0  0  0
 11 12  1  0  0  0  0
 12 13  1  0  0  0  0
 13 14  1  0  0  0  0
 14 15  1  0  0  0  0
 15 16  1  0  0  0  0
 15 17  1  0  0  0  0
 13 18  1  0  0  0  0
 18 19  1  0  0  0  0
 19 11  1  0  0  0  0
  7 20  1  0  0  0  0
 20 21  1  0  0  0  0
 21 22  1  0  0  0  0
 22 23  1  0  0  0  0
 23 24  2  0  0  0  0
 23 25  1  0  0  0  0
  2 26  1  0  0  0  0
  4 27  1  0  0  0  0
  5 28  1  0  0  0  0
  6 29  1  0  0  0  0
  6 30  1  0  0  0  0
 10 31  1  0  0  0  0
 11 32  1  0  0  0  0
 12 33  1  0  0  0  0
 12 34  1  0  0  0  0
 13 35  1  0  0  0  0
 14 36  1  0  0  0  0
 14 37  1  0  0  0  0
 15 38  1  0  0  0  0
 16 39  1  0  0  0  0
 16 40  1  0  0  0  0
 16 41  1  0  0  0  0
 17 42  1  0  0  0  0
 17 43  1  0  0  0  0
 17 44  1  0  0  0  0
 18 45  1  0  0  0  0
 18 46  1  0  0  0  0
 19 47  1  0  0  0  0
 19 48  1  0  0  0  0
 20 49  1  0  0  0  0
 20 50  1  0  0  0  0
 21 51  1  0  0  0  0
 21 52  1  0  0  0  0
 22 53  1  0  0  0  0
 25 54  1  0  0  0  0
 25 55  1  0  0  0  0
 25 56  1  0  0  0  0
M  END
>  <result-rank>
36

>  <similarity>
0.950

>  <query-name>
LIG_A_1101_CCC[C@H]([R*])C1CCC1_2

>  <query-smiles>
O=C(N[C@H](C1CCC1)CCC)[C@@H](NC(=O)C)Cc2ccc(O)cc2

>  <source>
REALspace_2019-12

>  <similarity-descriptor>
1.000;0.882;0.995;1.000;1.000;1.000;0.974;0.974;0.952;1.000;1.000;1.000;0.952;0.0;0.067

>  <similarity-descriptor-smiles>
C1CCCC1;S1C=CC(=C1)C;C=O;N;C1CCCC1;C;CC;CC;NCC;N;C=O;C;NCC;;C

>  <reaction-name>
s_512

>  <reagent1-name>
14944764

>  <reagent1-smiles>
[R1*]C(=O)NC1CC(CC(C)C)CC1

>  <reagent2-name>
9866152

>  <reagent2-smiles>
[R1*]N(CC1=CSC=C1)CCNC(=O)C

$$$$
s_240690b____14655660____14577254
          04022015093D 1   1.00000     0.00000     0
            
 48 49  0  0  0  0            999 V2000
    7.2785    0.9382    3.7620 F   0  0  0  0  0  0  0  0  0  0  0  0
    6.6093    0.3642    2.7665 C   0  0  0  0  0  0  0  0  0  0  0  0
    7.3108   -0.2378    1.7262 C   0  0  0  0  0  0  0  0  0  0  0  0
    8.6613   -0.2355    1.7318 O   0  0  0  0  0  0  0  0  0  0  0  0
    6.6328   -0.8454    0.6745 C   0  0  0  0  0  0  0  0  0  0  0  0
    5.2418   -0.8446    0.6739 C   0  0  0  0  0  0  0  0  0  0  0  0
    4.5463   -0.2411    1.7165 C   0  0  0  0  0  0  0  0  0  0  0  0
    5.2188    0.3675    2.7705 C   0  0  0  0  0  0  0  0  0  0  0  0
    3.0267   -0.2411    1.7165 C   0  0  0  0  0  0  0  0  0  0  0  0
    2.5200    1.0000    1.0000 C   0  0  3  0  0  0  0  0  0  0  0  0
    3.0100    1.0000   -0.3859 N   0  3  0  0  0  0  0  0  0  0  0  0
    1.0000    1.0000    1.0000 C   0  0  0  0  0  0  0  0  0  0  0  0
    0.4000    1.0000   -0.0392 O   0  0  0  0  0  0  0  0  0  0  0  0
    0.3150    1.0000    2.1865 N   0  0  0  0  0  0  0  0  0  0  0  0
   -1.1539    1.0000    2.1865 C   0  0  3  0  0  0  0  0  0  0  0  0
   -1.7361   -0.2137    2.8872 C   0  0  3  0  0  0  0  0  0  0  0  0
   -1.6289   -1.4538    2.0156 C   0  0  0  0  0  0  0  0  0  0  0  0
   -2.2217   -2.6438    2.7525 C   0  0  0  0  0  0  0  0  0  0  0  0
   -2.3907   -1.2297    0.7195 C   0  0  0  0  0  0  0  0  0  0  0  0
   -3.1865    0.1854    3.1063 C   0  0  0  0  0  0  0  0  0  0  0  0
   -3.1816    1.7013    3.1718 C   0  0  0  0  0  0  0  0  0  0  0  0
   -1.7238    2.1082    3.0491 C   0  0  0  0  0  0  0  0  0  0  0  0
    4.0100    1.0000   -0.3859 H   0  0  0  0  0  0  0  0  0  0  0  0
    2.6767    0.1835   -0.8573 H   0  0  0  0  0  0  0  0  0  0  0  0
    2.6767    1.8165   -0.8573 H   0  0  0  0  0  0  0  0  0  0  0  0
    9.1651   -0.6682    0.9841 H   0  0  0  0  0  0  0  0  0  0  0  0
    7.1392   -1.2773   -0.0719 H   0  0  0  0  0  0  0  0  0  0  0  0
    4.7418   -1.2779   -0.0759 H   0  0  0  0  0  0  0  0  0  0  0  0
    4.7123    0.7990    3.5170 H   0  0  0  0  0  0  0  0  0  0  0  0
    2.6933   -0.2411    2.6593 H   0  0  0  0  0  0  0  0  0  0  0  0
    2.6933   -1.0576    1.2451 H   0  0  0  0  0  0  0  0  0  0  0  0
    2.8533    1.8165    1.4714 H   0  0  0  0  0  0  0  0  0  0  0  0
    0.8150    1.0000    3.0525 H   0  0  0  0  0  0  0  0  0  0  0  0
   -1.5046    1.0673    1.2524 H   0  0  0  0  0  0  0  0  0  0  0  0
   -1.2791   -0.3629    3.7640 H   0  0  0  0  0  0  0  0  0  0  0  0
   -0.6671   -1.6346    1.8099 H   0  0  0  0  0  0  0  0  0  0  0  0
   -2.1512   -3.4599    2.1789 H   0  0  0  0  0  0  0  0  0  0  0  0
   -1.7205   -2.7913    3.6051 H   0  0  0  0  0  0  0  0  0  0  0  0
   -3.1835   -2.4630    2.9581 H   0  0  0  0  0  0  0  0  0  0  0  0
   -2.3201   -2.0458    0.1460 H   0  0  0  0  0  0  0  0  0  0  0  0
   -3.3525   -1.0489    0.9252 H   0  0  0  0  0  0  0  0  0  0  0  0
   -2.0007   -0.4468    0.2348 H   0  0  0  0  0  0  0  0  0  0  0  0
   -3.5301   -0.2007    3.9624 H   0  0  0  0  0  0  0  0  0  0  0  0
   -3.7548   -0.1302    2.3465 H   0  0  0  0  0  0  0  0  0  0  0  0
   -3.7162    2.0854    2.4190 H   0  0  0  0  0  0  0  0  0  0  0  0
   -3.5597    2.0147    4.0430 H   0  0  0  0  0  0  0  0  0  0  0  0
   -1.6322    2.9984    2.6030 H   0  0  0  0  0  0  0  0  0  0  0  0
   -1.2786    2.1363    3.9441 H   0  0  0  0  0  0  0  0  0  0  0  0
  1  2  1  0  0  0  0
  2  3  1  0  0  0  0
  3  4  1  0  0  0  0
  3  5  2  0  0  0  0
  5  6  1  0  0  0  0
  6  7  2  0  0  0  0
  7  8  1  0  0  0  0
  8  2  2  0  0  0  0
  7  9  1  0  0  0  0
  9 10  1  0  0  0  0
 10 11  1  0  0  0  0
 10 12  1  0  0  0  0
 12 13  2  0  0  0  0
 12 14  1  0  0  0  0
 14 15  1  0  0  0  0
 15 16  1  0  0  0  0
 16 17  1  0  0  0  0
 17 18  1  0  0  0  0
 17 19  1  0  0  0  0
 16 20  1  0  0  0  0
 20 21  1  0  0  0  0
 21 22  1  0  0  0  0
 22 15  1  0  0  0  0
 11 23  1  0  0  0  0
 11 24  1  0  0  0  0
 11 25  1  0  0  0  0
  4 26  1  0  0  0  0
  5 27  1  0  0  0  0
  6 28  1  0  0  0  0
  8 29  1  0  0  0  0
  9 30  1  0  0  0  0
  9 31  1  0  0  0  0
 10 32  1  0  0  0  0
 14 33  1  0  0  0  0
 15 34  1  0  0  0  0
 16 35  1  0  0  0  0
 17 36  1  0  0  0  0
 18 37  1  0  0  0  0
 18 38  1  0  0  0  0
 18 39  1  0  0  0  0
 19 40  1  0  0  0  0
 19 41  1  0  0  0  0
 19 42  1  0  0  0  0
 20 43  1  0  0  0  0
 20 44  1  0  0  0  0
 21 45  1  0  0  0  0
 21 46  1  0  0  0  0
 22 47  1  0  0  0  0
 22 48  1  0  0  0  0
M  CHG  1  11   1
M  END
>  <result-rank>
37

>  <similarity>
0.950

>  <query-name>
LIG_A_1101_CCC[C@H]([R*])C1CCC1_2

>  <query-smiles>
O=C(N[C@H](C1CCC1)CCC)[C@@H](NC(=O)C)Cc2ccc(O)cc2

>  <source>
REALspace_2019-12

>  <similarity-descriptor>
1.000;0.965;1.000;1.000;1.000;0.998;0.998;1.000;1.000;0.585;0.0;0.0;1.000;1.000;0.0

>  <similarity-descriptor-smiles>
C1CCCC1;Fc1ccccc1;C=O;N;C1CCCC1;CC;CC;C;CC;[NH3+];;;CC;O;

>  <reaction-name>
s_240690b

>  <reagent1-name>
14655660

>  <reagent1-smiles>
[R1*]NC1C(C(C)C)CCC1

>  <reagent2-name>
14577254

>  <reagent2-smiles>
[R1*]C(=O)C(N)Cc1cc(F)c(O)cc1

$$$$
s_22____15152936____3192126
          04022015093D 1   1.00000     0.00000     0
            
 58 59  0  0  0  0            999 V2000
   -0.1924   -1.1170   -6.2584 F   0  0  0  0  0  0  0  0  0  0  0  0
    1.0935   -1.2332   -6.5777 C   0  0  0  0  0  0  0  0  0  0  0  0
    1.5109   -0.1088   -7.1524 F   0  0  0  0  0  0  0  0  0  0  0  0
    1.9064   -1.4913   -5.3202 C   0  0  3  0  0  0  0  0  0  0  0  0
    1.7064   -0.3161   -4.3758 C   0  0  0  0  0  0  0  0  0  0  0  0
    2.7498   -0.3098   -3.2680 C   0  0  0  0  0  0  0  0  0  0  0  0
    2.3280   -1.0371   -1.9995 C   0  0  3  0  0  0  0  0  0  0  0  0
    1.4795   -0.1886   -1.1510 N   0  0  0  0  0  0  0  0  0  0  0  0
    1.8776    0.1224    0.1224 C   0  0  0  0  0  0  0  0  0  0  0  0
    2.9191   -0.2979    0.5450 O   0  0  0  0  0  0  0  0  0  0  0  0
    1.0000    1.0000    1.0000 C   0  0  0  0  0  0  0  0  0  0  0  0
    1.8776    1.8776    1.8776 C   0  0  3  0  0  0  0  0  0  0  0  0
    1.0385    2.5935    2.8494 N   0  0  0  0  0  0  0  0  0  0  0  0
    1.2401    2.4132    4.1924 C   0  0  0  0  0  0  0  0  0  0  0  0
    2.1015    1.6708    4.5755 O   0  0  0  0  0  0  0  0  0  0  0  0
    0.3725    3.1535    5.1972 C   0  0  0  0  0  0  0  0  0  0  0  0
    2.6181    2.8827    1.0098 C   0  0  0  0  0  0  0  0  0  0  0  0
    3.9722    2.7066    0.7427 C   0  0  0  0  0  0  0  0  0  0  0  0
    4.6440    1.6491    1.2466 O   0  0  0  0  0  0  0  0  0  0  0  0
    6.0504    1.5542    1.0751 C   0  0  0  0  0  0  0  0  0  0  0  0
    6.5559    0.2798    1.7314 C   0  0  0  0  0  0  0  0  0  0  0  0
    4.6500    3.6264   -0.0513 C   0  0  0  0  0  0  0  0  0  0  0  0
    3.9732    4.7221   -0.5785 C   0  0  0  0  0  0  0  0  0  0  0  0
    2.6190    4.8974   -0.3117 C   0  0  0  0  0  0  0  0  0  0  0  0
    1.9416    3.9774    0.4819 C   0  0  0  0  0  0  0  0  0  0  0  0
    1.5476   -2.3112   -2.2953 C   0  0  0  0  0  0  0  0  0  0  0  0
    2.1266   -3.1553   -3.4212 C   0  0  0  0  0  0  0  0  0  0  0  0
    1.4607   -2.8299   -4.7471 C   0  0  0  0  0  0  0  0  0  0  0  0
    1.2115   -1.9961   -7.2133 H   0  0  0  0  0  0  0  0  0  0  0  0
    2.8741   -1.5494   -5.5655 H   0  0  0  0  0  0  0  0  0  0  0  0
    0.7967   -0.3796   -3.9655 H   0  0  0  0  0  0  0  0  0  0  0  0
    1.7789    0.5351   -4.8957 H   0  0  0  0  0  0  0  0  0  0  0  0
    3.5788   -0.7463   -3.6173 H   0  0  0  0  0  0  0  0  0  0  0  0
    2.9483    0.6413   -3.0313 H   0  0  0  0  0  0  0  0  0  0  0  0
    3.1499   -1.2803   -1.4845 H   0  0  0  0  0  0  0  0  0  0  0  0
    0.6116    0.1617   -1.5032 H   0  0  0  0  0  0  0  0  0  0  0  0
    0.4226    0.4226    1.5774 H   0  0  0  0  0  0  0  0  0  0  0  0
    0.4226    1.5774    0.4226 H   0  0  0  0  0  0  0  0  0  0  0  0
    2.5386    1.3068    2.3646 H   0  0  0  0  0  0  0  0  0  0  0  0
    0.3207    3.2122    2.5301 H   0  0  0  0  0  0  0  0  0  0  0  0
   -0.2886    3.7242    4.7102 H   0  0  0  0  0  0  0  0  0  0  0  0
   -0.1145    2.4924    5.7680 H   0  0  0  0  0  0  0  0  0  0  0  0
    0.9499    3.7308    5.7746 H   0  0  0  0  0  0  0  0  0  0  0  0
    6.4920    2.3451    1.4987 H   0  0  0  0  0  0  0  0  0  0  0  0
    6.2666    1.5348    0.0989 H   0  0  0  0  0  0  0  0  0  0  0  0
    7.5464    0.2129    1.6106 H   0  0  0  0  0  0  0  0  0  0  0  0
    6.3397    0.2991    2.7076 H   0  0  0  0  0  0  0  0  0  0  0  0
    6.1143   -0.5111    1.3078 H   0  0  0  0  0  0  0  0  0  0  0  0
    5.6233    3.5002   -0.2430 H   0  0  0  0  0  0  0  0  0  0  0  0
    4.4602    5.3833   -1.1491 H   0  0  0  0  0  0  0  0  0  0  0  0
    2.1327    5.6848   -0.6905 H   0  0  0  0  0  0  0  0  0  0  0  0
    0.9681    4.1031    0.6729 H   0  0  0  0  0  0  0  0  0  0  0  0
    0.6137   -2.0552   -2.5446 H   0  0  0  0  0  0  0  0  0  0  0  0
    1.5302   -2.8674   -1.4644 H   0  0  0  0  0  0  0  0  0  0  0  0
    1.9820   -4.1224   -3.2118 H   0  0  0  0  0  0  0  0  0  0  0  0
    3.1071   -2.9732   -3.4948 H   0  0  0  0  0  0  0  0  0  0  0  0
    1.6875   -3.5495   -5.4034 H   0  0  0  0  0  0  0  0  0  0  0  0
    0.4706   -2.8044   -4.6094 H   0  0  0  0  0  0  0  0  0  0  0  0
  1  2  1  0  0  0  0
  2  3  1  0  0  0  0
  2  4  1  0  0  0  0
  4  5  1  0  0  0  0
  5  6  1  0  0  0  0
  6  7  1  0  0  0  0
  7  8  1  0  0  0  0
  8  9  1  0  0  0  0
  9 10  2  0  0  0  0
  9 11  1  0  0  0  0
 11 12  1  0  0  0  0
 12 13  1  0  0  0  0
 13 14  1  0  0  0  0
 14 15  2  0  0  0  0
 14 16  1  0  0  0  0
 12 17  1  0  0  0  0
 17 18  1  0  0  0  0
 18 19  1  0  0  0  0
 19 20  1  0  0  0  0
 20 21  1  0  0  0  0
 18 22  2  0  0  0  0
 22 23  1  0  0  0  0
 23 24  2  0  0  0  0
 24 25  1  0  0  0  0
 25 17  2  0  0  0  0
  7 26  1  0  0  0  0
 26 27  1  0  0  0  0
 27 28  1  0  0  0  0
 28  4  1  0  0  0  0
  2 29  1  0  0  0  0
  4 30  1  0  0  0  0
  5 31  1  0  0  0  0
  5 32  1  0  0  0  0
  6 33  1  0  0  0  0
  6 34  1  0  0  0  0
  7 35  1  0  0  0  0
  8 36  1  0  0  0  0
 11 37  1  0  0  0  0
 11 38  1  0  0  0  0
 12 39  1  0  0  0  0
 13 40  1  0  0  0  0
 16 41  1  0  0  0  0
 16 42  1  0  0  0  0
 16 43  1  0  0  0  0
 20 44  1  0  0  0  0
 20 45  1  0  0  0  0
 21 46  1  0  0  0  0
 21 47  1  0  0  0  0
 21 48  1  0  0  0  0
 22 49  1  0  0  0  0
 23 50  1  0  0  0  0
 24 51  1  0  0  0  0
 25 52  1  0  0  0  0
 26 53  1  0  0  0  0
 26 54  1  0  0  0  0
 27 55  1  0  0  0  0
 27 56  1  0  0  0  0
 28 57  1  0  0  0  0
 28 58  1  0  0  0  0
M  END
>  <result-rank>
38

>  <similarity>
0.950

>  <query-name>
LIG_A_1101_CCC[C@H]([R*])C1CCC1_2

>  <query-smiles>
O=C(N[C@H](C1CCC1)CCC)[C@@H](NC(=O)C)Cc2ccc(O)cc2

>  <source>
REALspace_2019-12

>  <similarity-descriptor>
1.000;1.000;1.000;1.000;1.000;1.000;1.000;0.0;1.000;1.000;1.000;1.000;1.000;0.704;0.231

>  <similarity-descriptor-smiles>
C1CCCCCC1;c1ccccc1;C=O;N;C1CCCCCC1;C1CCCCCC1;C1CCCCCC1;;CC;N;C=O;C;CC;O;FCF.C.C

>  <reaction-name>
s_22

>  <reagent1-name>
15152936

>  <reagent1-smiles>
[R1*]NC1CCC(C(F)F)CCC1

>  <reagent2-name>
3192126

>  <reagent2-smiles>
[R1*]C(=O)CC(NC(=O)C)c1c(OCC)cccc1

$$$$
s_2708____13152144____6108024
          04022015093D 1   1.00000     0.00000     0
            
 55 56  0  0  0  0            999 V2000
    0.9150    1.0000    3.2257 O   0  0  0  0  0  0  0  0  0  0  0  0
    0.3150    1.0000    2.1865 C   0  0  0  0  0  0  0  0  0  0  0  0
   -1.0550    1.0000    2.1865 N   0  0  0  0  0  0  0  0  0  0  0  0
   -1.7901    1.0000    3.4597 C   0  0  3  0  0  0  0  0  0  0  0  0
   -2.6556   -0.2488    3.5167 C   0  0  3  0  0  0  0  0  0  0  0  0
   -3.5194   -0.3061    4.7723 C   0  0  0  0  0  0  0  0  0  0  0  0
   -4.7128    0.6448    4.7234 C   0  0  0  0  0  0  0  0  0  0  0  0
   -4.4536    2.0273    5.3112 C   0  0  0  0  0  0  0  0  0  0  0  0
   -3.0900    2.6057    4.9509 C   0  0  0  0  0  0  0  0  0  0  0  0
   -2.6224    2.2711    3.5383 C   0  0  0  0  0  0  0  0  0  0  0  0
   -1.7450   -1.4664    3.5059 C   0  0  0  0  0  0  0  0  0  0  0  0
    1.0000    1.0000    1.0000 N   0  0  0  0  0  0  0  0  0  0  0  0
    2.4700    1.0000    1.0000 C   0  0  0  0  0  0  0  0  0  0  0  0
    2.9767   -0.4113    1.2488 C   0  0  3  0  0  0  0  0  0  0  0  0
    2.4700   -1.3325    0.1511 C   0  0  0  0  0  0  0  0  0  0  0  0
    1.7801   -2.2742    0.4289 O   0  0  0  0  0  0  0  0  0  0  0  0
    2.7865   -1.0983   -1.0984 O   0  0  0  0  0  0  0  0  0  0  0  0
    2.3131   -1.9589   -2.1240 C   0  0  0  0  0  0  0  0  0  0  0  0
    4.4967   -0.4113    1.2488 C   0  0  0  0  0  0  0  0  0  0  0  0
    5.0034   -1.8229    1.4977 C   0  0  0  0  0  0  0  0  0  0  0  0
    5.2331   -2.6725    0.4206 C   0  0  0  0  0  0  0  0  0  0  0  0
    5.6960   -3.9636    0.6528 C   0  0  0  0  0  0  0  0  0  0  0  0
    5.9270   -4.3960    1.9544 C   0  0  0  0  0  0  0  0  0  0  0  0
    5.6946   -3.5385    3.0227 C   0  0  0  0  0  0  0  0  0  0  0  0
    5.2311   -2.2453    2.8037 C   0  0  0  0  0  0  0  0  0  0  0  0
   -1.5550    1.0000    1.3204 H   0  0  0  0  0  0  0  0  0  0  0  0
   -1.1380    0.9848    4.2176 H   0  0  0  0  0  0  0  0  0  0  0  0
   -3.2469   -0.2747    2.7107 H   0  0  0  0  0  0  0  0  0  0  0  0
   -2.9524   -0.0647    5.5598 H   0  0  0  0  0  0  0  0  0  0  0  0
   -3.8609   -1.2397    4.8811 H   0  0  0  0  0  0  0  0  0  0  0  0
   -5.4649    0.2263    5.2325 H   0  0  0  0  0  0  0  0  0  0  0  0
   -4.9806    0.7588    3.7667 H   0  0  0  0  0  0  0  0  0  0  0  0
   -5.1592    2.6503    4.9735 H   0  0  0  0  0  0  0  0  0  0  0  0
   -4.5151    1.9625    6.3072 H   0  0  0  0  0  0  0  0  0  0  0  0
   -3.1385    3.6007    5.0377 H   0  0  0  0  0  0  0  0  0  0  0  0
   -2.4165    2.2471    5.5973 H   0  0  0  0  0  0  0  0  0  0  0  0
   -3.4279    2.1584    2.9566 H   0  0  0  0  0  0  0  0  0  0  0  0
   -2.0700    3.0325    3.1991 H   0  0  0  0  0  0  0  0  0  0  0  0
   -2.2996   -2.2977    3.5431 H   0  0  0  0  0  0  0  0  0  0  0  0
   -1.1992   -1.4670    2.6681 H   0  0  0  0  0  0  0  0  0  0  0  0
   -1.1375   -1.4353    4.2996 H   0  0  0  0  0  0  0  0  0  0  0  0
    0.5000    1.0000    0.1340 H   0  0  0  0  0  0  0  0  0  0  0  0
    2.8033    1.6060    1.7222 H   0  0  0  0  0  0  0  0  0  0  0  0
    2.8033    1.3225    0.1140 H   0  0  0  0  0  0  0  0  0  0  0  0
    2.6433   -0.7338    2.1348 H   0  0  0  0  0  0  0  0  0  0  0  0
    2.6465   -1.6364   -3.0099 H   0  0  0  0  0  0  0  0  0  0  0  0
    2.6465   -2.8873   -1.9602 H   0  0  0  0  0  0  0  0  0  0  0  0
    1.3131   -1.9589   -2.1240 H   0  0  0  0  0  0  0  0  0  0  0  0
    4.8300   -0.0888    0.3629 H   0  0  0  0  0  0  0  0  0  0  0  0
    4.8300    0.1947    1.9711 H   0  0  0  0  0  0  0  0  0  0  0  0
    5.0667   -2.3575   -0.5138 H   0  0  0  0  0  0  0  0  0  0  0  0
    5.8627   -4.5808   -0.1161 H   0  0  0  0  0  0  0  0  0  0  0  0
    6.2604   -5.3239    2.1214 H   0  0  0  0  0  0  0  0  0  0  0  0
    5.8619   -3.8536    3.9569 H   0  0  0  0  0  0  0  0  0  0  0  0
    5.0641   -1.6288    3.5731 H   0  0  0  0  0  0  0  0  0  0  0  0
  1  2  2  0  0  0  0
  2  3  1  0  0  0  0
  3  4  1  0  0  0  0
  4  5  1  0  0  0  0
  5  6  1  0  0  0  0
  6  7  1  0  0  0  0
  7  8  1  0  0  0  0
  8  9  1  0  0  0  0
  9 10  1  0  0  0  0
 10  4  1  0  0  0  0
  5 11  1  0  0  0  0
  2 12  1  0  0  0  0
 12 13  1  0  0  0  0
 13 14  1  0  0  0  0
 14 15  1  0  0  0  0
 15 16  2  0  0  0  0
 15 17  1  0  0  0  0
 17 18  1  0  0  0  0
 14 19  1  0  0  0  0
 19 20  1  0  0  0  0
 20 21  1  0  0  0  0
 21 22  2  0  0  0  0
 22 23  1  0  0  0  0
 23 24  2  0  0  0  0
 24 25  1  0  0  0  0
 25 20  2  0  0  0  0
  3 26  1  0  0  0  0
  4 27  1  0  0  0  0
  5 28  1  0  0  0  0
  6 29  1  0  0  0  0
  6 30  1  0  0  0  0
  7 31  1  0  0  0  0
  7 32  1  0  0  0  0
  8 33  1  0  0  0  0
  8 34  1  0  0  0  0
  9 35  1  0  0  0  0
  9 36  1  0  0  0  0
 10 37  1  0  0  0  0
 10 38  1  0  0  0  0
 11 39  1  0  0  0  0
 11 40  1  0  0  0  0
 11 41  1  0  0  0  0
 12 42  1  0  0  0  0
 13 43  1  0  0  0  0
 13 44  1  0  0  0  0
 14 45  1  0  0  0  0
 18 46  1  0  0  0  0
 18 47  1  0  0  0  0
 18 48  1  0  0  0  0
 19 49  1  0  0  0  0
 19 50  1  0  0  0  0
 21 51  1  0  0  0  0
 22 52  1  0  0  0  0
 23 53  1  0  0  0  0
 24 54  1  0  0  0  0
 25 55  1  0  0  0  0
M  END
>  <result-rank>
39

>  <similarity>
0.950

>  <query-name>
LIG_A_1101_CCC[C@H]([R*])C1CCC1_2

>  <query-smiles>
O=C(N[C@H](C1CCC1)CCC)[C@@H](NC(=O)C)Cc2ccc(O)cc2

>  <source>
REALspace_2019-12

>  <similarity-descriptor>
1.000;0.960;0.995;1.000;1.000;1.000;1.000;1.000;0.824;0.824;0.855;0.994;1.000;0.0;0.0

>  <similarity-descriptor-smiles>
C1CCCCCC1;c1ccccc1;O=C;N;C1CCCCCC1;C1CCCCCC1;C1CCCCCC1;C;NCC;NCC;C(=O)O;C;C;;

>  <reaction-name>
s_2708

>  <reagent1-name>
13152144

>  <reagent1-smiles>
[R1*]C(=O)NCC(C(=O)OC)Cc1ccccc1

>  <reagent2-name>
6108024

>  <reagent2-smiles>
[R1*]NC1C(CCCCC1)C

$$$$
s_22____15782076____17513450
          04022015093D 1   1.00000     0.00000     0
            
 52 53  0  0  0  0            999 V2000
    0.4000    1.0000   -0.0392 O   0  0  0  0  0  0  0  0  0  0  0  0
    1.0000    1.0000    1.0000 C   0  0  0  0  0  0  0  0  0  0  0  0
    0.3150    1.0000    2.1865 N   0  0  0  0  0  0  0  0  0  0  0  0
   -1.1550    1.0000    2.1865 C   0  0  3  0  0  0  0  0  0  0  0  0
   -1.6617   -0.2411    2.9030 C   0  0  0  0  0  0  0  0  0  0  0  0
   -3.1334   -0.2411    2.9030 N   0  3  0  0  0  0  0  0  0  0  0  0
   -3.6636   -0.2411    1.5401 C   0  0  0  0  0  0  0  0  0  0  0  0
   -5.1044   -0.6697    1.7308 C   0  0  0  0  0  0  0  0  0  0  0  0
   -5.1030   -1.5236    2.9825 C   0  0  0  0  0  0  0  0  0  0  0  0
   -3.6563   -1.4988    3.4356 C   0  0  0  0  0  0  0  0  0  0  0  0
   -1.6617    2.2411    2.9030 C   0  0  0  0  0  0  0  0  0  0  0  0
    2.5200    1.0000    1.0000 C   0  0  3  0  0  0  0  0  0  0  0  0
    3.0100    1.0000   -0.3859 N   0  0  0  0  0  0  0  0  0  0  0  0
    3.7976    2.0275   -0.8340 C   0  0  0  0  0  0  0  0  0  0  0  0
    4.0875    2.9275   -0.0951 O   0  0  0  0  0  0  0  0  0  0  0  0
    4.3043    2.0275   -2.2671 C   0  0  0  0  0  0  0  0  0  0  0  0
    3.0267   -0.2411    1.7165 C   0  0  0  0  0  0  0  0  0  0  0  0
    4.5467   -0.2411    1.7165 C   0  0  0  0  0  0  0  0  0  0  0  0
    5.2311    0.3644    2.7653 C   0  0  0  0  0  0  0  0  0  0  0  0
    6.6219    0.3662    2.7699 C   0  0  0  0  0  0  0  0  0  0  0  0
    7.3116   -0.2391    1.7241 C   0  0  0  0  0  0  0  0  0  0  0  0
    8.6614   -0.2393    1.7244 O   0  0  0  0  0  0  0  0  0  0  0  0
    6.6320   -0.8457    0.6727 C   0  0  0  0  0  0  0  0  0  0  0  0
    5.2412   -0.8449    0.6734 C   0  0  0  0  0  0  0  0  0  0  0  0
   -3.4876    0.5375    3.4209 H   0  0  0  0  0  0  0  0  0  0  0  0
    0.8150    1.0000    3.0525 H   0  0  0  0  0  0  0  0  0  0  0  0
   -1.4883    1.0000    1.2436 H   0  0  0  0  0  0  0  0  0  0  0  0
   -1.3283   -1.0576    2.4316 H   0  0  0  0  0  0  0  0  0  0  0  0
   -1.3283   -0.2411    3.8458 H   0  0  0  0  0  0  0  0  0  0  0  0
   -3.1692   -0.8910    0.9628 H   0  0  0  0  0  0  0  0  0  0  0  0
   -3.6114    0.6716    1.1348 H   0  0  0  0  0  0  0  0  0  0  0  0
   -5.4191   -1.2011    0.9443 H   0  0  0  0  0  0  0  0  0  0  0  0
   -5.6946    0.1284    1.8515 H   0  0  0  0  0  0  0  0  0  0  0  0
   -5.7019   -1.1324    3.6812 H   0  0  0  0  0  0  0  0  0  0  0  0
   -5.3960   -2.4573    2.7770 H   0  0  0  0  0  0  0  0  0  0  0  0
   -3.5973   -1.5127    4.4338 H   0  0  0  0  0  0  0  0  0  0  0  0
   -3.1542   -2.2783    3.0611 H   0  0  0  0  0  0  0  0  0  0  0  0
   -2.6617    2.2411    2.9030 H   0  0  0  0  0  0  0  0  0  0  0  0
   -1.3283    2.2411    3.8458 H   0  0  0  0  0  0  0  0  0  0  0  0
   -1.3283    3.0576    2.4316 H   0  0  0  0  0  0  0  0  0  0  0  0
    2.8533    1.8165    1.4714 H   0  0  0  0  0  0  0  0  0  0  0  0
    2.7684    0.2500   -1.0017 H   0  0  0  0  0  0  0  0  0  0  0  0
    3.9710    1.2110   -2.7385 H   0  0  0  0  0  0  0  0  0  0  0  0
    3.9710    2.8440   -2.7385 H   0  0  0  0  0  0  0  0  0  0  0  0
    5.3043    2.0275   -2.2671 H   0  0  0  0  0  0  0  0  0  0  0  0
    2.6933   -0.2411    2.6593 H   0  0  0  0  0  0  0  0  0  0  0  0
    2.6933   -1.0576    1.2451 H   0  0  0  0  0  0  0  0  0  0  0  0
    4.7256    0.7963    3.5122 H   0  0  0  0  0  0  0  0  0  0  0  0
    7.1226    0.7993    3.5194 H   0  0  0  0  0  0  0  0  0  0  0  0
    9.1615   -0.6731    0.9749 H   0  0  0  0  0  0  0  0  0  0  0  0
    7.1374   -1.2771   -0.0746 H   0  0  0  0  0  0  0  0  0  0  0  0
    4.7405   -1.2783   -0.0759 H   0  0  0  0  0  0  0  0  0  0  0  0
  1  2  2  0  0  0  0
  2  3  1  0  0  0  0
  3  4  1  0  0  0  0
  4  5  1  0  0  0  0
  5  6  1  0  0  0  0
  6  7  1  0  0  0  0
  7  8  1  0  0  0  0
  8  9  1  0  0  0  0
  9 10  1  0  0  0  0
 10  6  1  0  0  0  0
  4 11  1  0  0  0  0
  2 12  1  0  0  0  0
 12 13  1  0  0  0  0
 13 14  1  0  0  0  0
 14 15  2  0  0  0  0
 14 16  1  0  0  0  0
 12 17  1  0  0  0  0
 17 18  1  0  0  0  0
 18 19  1  0  0  0  0
 19 20  2  0  0  0  0
 20 21  1  0  0  0  0
 21 22  1  0  0  0  0
 21 23  2  0  0  0  0
 23 24  1  0  0  0  0
 24 18  2  0  0  0  0
  6 25  1  0  0  0  0
  3 26  1  0  0  0  0
  4 27  1  0  0  0  0
  5 28  1  0  0  0  0
  5 29  1  0  0  0  0
  7 30  1  0  0  0  0
  7 31  1  0  0  0  0
  8 32  1  0  0  0  0
  8 33  1  0  0  0  0
  9 34  1  0  0  0  0
  9 35  1  0  0  0  0
 10 36  1  0  0  0  0
 10 37  1  0  0  0  0
 11 38  1  0  0  0  0
 11 39  1  0  0  0  0
 11 40  1  0  0  0  0
 12 41  1  0  0  0  0
 13 42  1  0  0  0  0
 16 43  1  0  0  0  0
 16 44  1  0  0  0  0
 16 45  1  0  0  0  0
 17 46  1  0  0  0  0
 17 47  1  0  0  0  0
 19 48  1  0  0  0  0
 20 49  1  0  0  0  0
 22 50  1  0  0  0  0
 23 51  1  0  0  0  0
 24 52  1  0  0  0  0
M  CHG  1   6   1
M  END
>  <result-rank>
40

>  <similarity>
0.950

>  <query-name>
LIG_A_1101_CCC[C@H]([R*])C1CCC1_2

>  <query-smiles>
O=C(N[C@H](C1CCC1)CCC)[C@@H](NC(=O)C)Cc2ccc(O)cc2

>  <source>
REALspace_2019-12

>  <similarity-descriptor>
0.783;1.000;1.000;1.000;0.996;0.996;0.949;0.0;1.000;1.000;1.000;1.000;1.000;1.000;0.0

>  <similarity-descriptor-smiles>
[NH+]1CCCC1;c1ccccc1;O=C;N;CC;CC;C;;C;N;C=O;C;C;O;

>  <reaction-name>
s_22

>  <reagent1-name>
15782076

>  <reagent1-smiles>
[R1*]NC(CN1CCCC1)C

>  <reagent2-name>
17513450

>  <reagent2-smiles>
[R1*]C(=O)C(NC(=O)C)Cc1ccc(O)cc1

$$$$
s_22____10641974____107338
          04022015093D 1   1.00000     0.00000     0
            
 58 59  0  0  0  0            999 V2000
   -6.0645   -0.2755    1.5973 S   0  0  0  0  0  0  0  0  0  0  0  0
   -5.4073   -0.4006    0.3221 O   0  0  0  0  0  0  0  0  0  0  0  0
   -5.9282   -1.5073    2.3305 O   0  0  0  0  0  0  0  0  0  0  0  0
   -5.3065    1.0731    2.5369 C   0  0  0  0  0  0  0  0  0  0  0  0
   -3.7979    1.0260    2.3631 C   0  0  3  0  0  0  0  0  0  0  0  0
   -3.1795    0.0172    3.3189 C   0  0  0  0  0  0  0  0  0  0  0  0
   -1.6610   -0.0148    3.2012 C   0  0  0  0  0  0  0  0  0  0  0  0
   -1.1540    1.0000    2.1865 C   0  0  0  0  0  0  0  0  0  0  0  0
    0.3150    1.0000    2.1865 N   0  0  0  0  0  0  0  0  0  0  0  0
    1.0000    1.0000    1.0000 C   0  0  0  0  0  0  0  0  0  0  0  0
    0.4000    1.0000   -0.0392 O   0  0  0  0  0  0  0  0  0  0  0  0
    2.5200    1.0000    1.0000 C   0  0  0  0  0  0  0  0  0  0  0  0
    3.0267    1.4309   -0.3667 C   0  0  3  0  0  0  0  0  0  0  0  0
    4.4967    1.4309   -0.3667 N   0  0  0  0  0  0  0  0  0  0  0  0
    5.1817    0.6294   -1.2415 C   0  0  0  0  0  0  0  0  0  0  0  0
    4.5817   -0.0727   -2.0077 O   0  0  0  0  0  0  0  0  0  0  0  0
    6.7017    0.6294   -1.2415 C   0  0  0  0  0  0  0  0  0  0  0  0
    2.5200    2.8301   -0.6769 C   0  0  0  0  0  0  0  0  0  0  0  0
    2.8191    3.8745    0.1918 C   0  0  0  0  0  0  0  0  0  0  0  0
    2.3582    5.1565   -0.0884 C   0  0  0  0  0  0  0  0  0  0  0  0
    1.6033    5.3780   -1.2359 C   0  0  0  0  0  0  0  0  0  0  0  0
    1.1538    6.6206   -1.5114 O   0  0  0  0  0  0  0  0  0  0  0  0
    0.0857    6.8019   -2.4295 C   0  0  0  0  0  0  0  0  0  0  0  0
    1.3011    4.3369   -2.1078 C   0  0  0  0  0  0  0  0  0  0  0  0
    1.7649    3.0570   -1.8230 C   0  0  0  0  0  0  0  0  0  0  0  0
   -1.6799    2.3715    2.5852 C   0  0  0  0  0  0  0  0  0  0  0  0
   -3.1997    2.3987    2.6320 C   0  0  0  0  0  0  0  0  0  0  0  0
   -7.8200    0.0816    1.3387 C   0  0  0  0  0  0  0  0  0  0  0  0
   -5.5338    0.9732    3.5056 H   0  0  0  0  0  0  0  0  0  0  0  0
   -5.6535    1.9491    2.2017 H   0  0  0  0  0  0  0  0  0  0  0  0
   -3.5864    0.7567    1.4236 H   0  0  0  0  0  0  0  0  0  0  0  0
   -3.5399   -0.8916    3.1082 H   0  0  0  0  0  0  0  0  0  0  0  0
   -3.4267    0.2648    4.2557 H   0  0  0  0  0  0  0  0  0  0  0  0
   -1.2622    0.1930    4.0944 H   0  0  0  0  0  0  0  0  0  0  0  0
   -1.3773   -0.9297    2.9142 H   0  0  0  0  0  0  0  0  0  0  0  0
   -1.4907    0.7621    1.2754 H   0  0  0  0  0  0  0  0  0  0  0  0
    0.8150    1.0000    3.0525 H   0  0  0  0  0  0  0  0  0  0  0  0
    2.8533    0.0795    1.2041 H   0  0  0  0  0  0  0  0  0  0  0  0
    2.8533    1.6370    1.6951 H   0  0  0  0  0  0  0  0  0  0  0  0
    2.6933    0.7940   -1.0619 H   0  0  0  0  0  0  0  0  0  0  0  0
    4.9967    2.0160    0.2718 H   0  0  0  0  0  0  0  0  0  0  0  0
    7.0350    1.2663   -0.5464 H   0  0  0  0  0  0  0  0  0  0  0  0
    7.0350   -0.2911   -1.0374 H   0  0  0  0  0  0  0  0  0  0  0  0
    7.0350    0.9129   -2.1407 H   0  0  0  0  0  0  0  0  0  0  0  0
    3.3627    3.7044    1.0137 H   0  0  0  0  0  0  0  0  0  0  0  0
    2.5679    5.9135    0.5305 H   0  0  0  0  0  0  0  0  0  0  0  0
   -0.1181    7.7771   -2.5153 H   0  0  0  0  0  0  0  0  0  0  0  0
    0.3482    6.4364   -3.3226 H   0  0  0  0  0  0  0  0  0  0  0  0
   -0.7249    6.3199   -2.0972 H   0  0  0  0  0  0  0  0  0  0  0  0
    0.7570    4.5068   -2.9294 H   0  0  0  0  0  0  0  0  0  0  0  0
    1.5555    2.3001   -2.4420 H   0  0  0  0  0  0  0  0  0  0  0  0
   -1.3640    3.0463    1.9182 H   0  0  0  0  0  0  0  0  0  0  0  0
   -1.3234    2.6049    3.4899 H   0  0  0  0  0  0  0  0  0  0  0  0
   -3.4902    2.7065    3.5381 H   0  0  0  0  0  0  0  0  0  0  0  0
   -3.5335    3.0385    1.9397 H   0  0  0  0  0  0  0  0  0  0  0  0
   -8.2764    0.1686    2.2242 H   0  0  0  0  0  0  0  0  0  0  0  0
   -7.9147    0.9371    0.8295 H   0  0  0  0  0  0  0  0  0  0  0  0
   -8.2388   -0.6634    0.8195 H   0  0  0  0  0  0  0  0  0  0  0  0
  1  2  2  0  0  0  0
  1  3  2  0  0  0  0
  1  4  1  0  0  0  0
  4  5  1  0  0  0  0
  5  6  1  0  0  0  0
  6  7  1  0  0  0  0
  7  8  1  0  0  0  0
  8  9  1  0  0  0  0
  9 10  1  0  0  0  0
 10 11  2  0  0  0  0
 10 12  1  0  0  0  0
 12 13  1  0  0  0  0
 13 14  1  0  0  0  0
 14 15  1  0  0  0  0
 15 16  2  0  0  0  0
 15 17  1  0  0  0  0
 13 18  1  0  0  0  0
 18 19  1  0  0  0  0
 19 20  2  0  0  0  0
 20 21  1  0  0  0  0
 21 22  1  0  0  0  0
 22 23  1  0  0  0  0
 21 24  2  0  0  0  0
 24 25  1  0  0  0  0
 25 18  2  0  0  0  0
  8 26  1  0  0  0  0
 26 27  1  0  0  0  0
 27  5  1  0  0  0  0
  1 28  1  0  0  0  0
  4 29  1  0  0  0  0
  4 30  1  0  0  0  0
  5 31  1  0  0  0  0
  6 32  1  0  0  0  0
  6 33  1  0  0  0  0
  7 34  1  0  0  0  0
  7 35  1  0  0  0  0
  8 36  1  0  0  0  0
  9 37  1  0  0  0  0
 12 38  1  0  0  0  0
 12 39  1  0  0  0  0
 13 40  1  0  0  0  0
 14 41  1  0  0  0  0
 17 42  1  0  0  0  0
 17 43  1  0  0  0  0
 17 44  1  0  0  0  0
 19 45  1  0  0  0  0
 20 46  1  0  0  0  0
 23 47  1  0  0  0  0
 23 48  1  0  0  0  0
 23 49  1  0  0  0  0
 24 50  1  0  0  0  0
 25 51  1  0  0  0  0
 26 52  1  0  0  0  0
 26 53  1  0  0  0  0
 27 54  1  0  0  0  0
 27 55  1  0  0  0  0
 28 56  1  0  0  0  0
 28 57  1  0  0  0  0
 28 58  1  0  0  0  0
M  END
>  <result-rank>
41

>  <similarity>
0.950

>  <query-name>
LIG_A_1101_CCC[C@H]([R*])C1CCC1_2

>  <query-smiles>
O=C(N[C@H](C1CCC1)CCC)[C@@H](NC(=O)C)Cc2ccc(O)cc2

>  <source>
REALspace_2019-12

>  <similarity-descriptor>
1.000;1.000;1.000;1.000;1.000;1.000;0.998;0.0;1.000;1.000;1.000;1.000;1.000;0.704;0.214

>  <similarity-descriptor-smiles>
C1CCCCC1;c1ccccc1;C=O;N;C1CCCCC1;C1CCCCC1;C;;CC;N;C=O;C;CC;O;S(=O)=O.C.C

>  <reaction-name>
s_22

>  <reagent1-name>
10641974

>  <reagent1-smiles>
[R1*]NC1CCC(CS(=O)(=O)C)CC1

>  <reagent2-name>
107338

>  <reagent2-smiles>
[R1*]C(=O)CC(NC(=O)C)c1ccc(OC)cc1

$$$$
s_2430a____14728762____9298134
          04022015093D 1   1.00000     0.00000     0
            
 53 54  0  0  0  0            999 V2000
   -1.9402   -1.2982    3.2819 F   0  0  0  0  0  0  0  0  0  0  0  0
   -2.6813   -0.2313    3.5815 C   0  0  0  0  0  0  0  0  0  0  0  0
   -3.6858   -0.1901    2.7100 F   0  0  0  0  0  0  0  0  0  0  0  0
   -1.7893    1.0000    3.4582 C   0  0  3  0  0  0  0  0  0  0  0  0
   -1.0550    1.0000    2.1865 N   0  0  0  0  0  0  0  0  0  0  0  0
    0.3150    1.0000    2.1865 C   0  0  0  0  0  0  0  0  0  0  0  0
    0.9150    1.0000    3.2257 O   0  0  0  0  0  0  0  0  0  0  0  0
    1.0000    1.0000    1.0000 N   0  0  0  0  0  0  0  0  0  0  0  0
    2.4700    1.0000    1.0000 C   0  0  3  0  0  0  0  0  0  0  0  0
    2.9767   -0.2411    0.2835 C   0  0  0  0  0  0  0  0  0  0  0  0
    3.9272   -0.8352    0.7118 O   0  0  0  0  0  0  0  0  0  0  0  0
    2.3481   -0.6814   -0.8514 N   0  0  0  0  0  0  0  0  0  0  0  0
    2.8381   -1.8817   -1.5444 C   0  0  0  0  0  0  0  0  0  0  0  0
    2.9767    2.2411    0.2835 C   0  0  0  0  0  0  0  0  0  0  0  0
    4.4970    2.2411    0.2835 C   0  0  0  0  0  0  0  0  0  0  0  0
    5.1860    1.6369   -0.7630 C   0  0  0  0  0  0  0  0  0  0  0  0
    6.5771    1.6384   -0.7587 C   0  0  0  0  0  0  0  0  0  0  0  0
    7.2687    2.2423    0.2862 C   0  0  0  0  0  0  0  0  0  0  0  0
    6.5699    2.8431    1.3260 C   0  0  0  0  0  0  0  0  0  0  0  0
    5.1789    2.8477    1.3335 C   0  0  0  0  0  0  0  0  0  0  0  0
   -2.4964    2.3455    3.5704 C   0  0  0  0  0  0  0  0  0  0  0  0
   -3.0316    2.6459    4.9621 C   0  0  0  0  0  0  0  0  0  0  0  0
   -2.0371    2.3481    6.0777 C   0  0  0  0  0  0  0  0  0  0  0  0
   -2.2854    1.0610    6.8589 C   0  0  0  0  0  0  0  0  0  0  0  0
   -2.1840   -0.2616    6.1038 C   0  0  0  0  0  0  0  0  0  0  0  0
   -3.2209   -0.4202    4.9958 C   0  0  0  0  0  0  0  0  0  0  0  0
   -1.1135    0.9548    4.1940 H   0  0  0  0  0  0  0  0  0  0  0  0
   -1.5550    1.0000    1.3204 H   0  0  0  0  0  0  0  0  0  0  0  0
    0.5000    1.0000    0.1340 H   0  0  0  0  0  0  0  0  0  0  0  0
    2.8033    1.0000    1.9428 H   0  0  0  0  0  0  0  0  0  0  0  0
    1.5560   -0.1864   -1.2083 H   0  0  0  0  0  0  0  0  0  0  0  0
    2.2683   -2.0593   -2.3467 H   0  0  0  0  0  0  0  0  0  0  0  0
    3.7845   -1.7369   -1.8331 H   0  0  0  0  0  0  0  0  0  0  0  0
    2.7949   -2.6653   -0.9247 H   0  0  0  0  0  0  0  0  0  0  0  0
    2.6433    2.2411   -0.6593 H   0  0  0  0  0  0  0  0  0  0  0  0
    2.6433    3.0576    0.7549 H   0  0  0  0  0  0  0  0  0  0  0  0
    4.6851    1.2047   -1.5129 H   0  0  0  0  0  0  0  0  0  0  0  0
    7.0799    1.2054   -1.5068 H   0  0  0  0  0  0  0  0  0  0  0  0
    8.2687    2.2439    0.2890 H   0  0  0  0  0  0  0  0  0  0  0  0
    7.0712    3.2760    2.0752 H   0  0  0  0  0  0  0  0  0  0  0  0
    4.6768    3.2805    2.0822 H   0  0  0  0  0  0  0  0  0  0  0  0
   -3.2641    2.3522    2.9296 H   0  0  0  0  0  0  0  0  0  0  0  0
   -1.8474    3.0642    3.3207 H   0  0  0  0  0  0  0  0  0  0  0  0
   -3.8500    2.0912    5.1123 H   0  0  0  0  0  0  0  0  0  0  0  0
   -3.2734    3.6153    5.0050 H   0  0  0  0  0  0  0  0  0  0  0  0
   -2.0637    3.1102    6.7247 H   0  0  0  0  0  0  0  0  0  0  0  0
   -1.1261    2.2889    5.6696 H   0  0  0  0  0  0  0  0  0  0  0  0
   -1.6188    1.0310    7.6036 H   0  0  0  0  0  0  0  0  0  0  0  0
   -3.2084    1.1169    7.2397 H   0  0  0  0  0  0  0  0  0  0  0  0
   -1.2736   -0.3218    5.6944 H   0  0  0  0  0  0  0  0  0  0  0  0
   -2.3053   -1.0081    6.7581 H   0  0  0  0  0  0  0  0  0  0  0  0
   -3.6073   -1.3402    5.0608 H   0  0  0  0  0  0  0  0  0  0  0  0
   -3.9424    0.2557    5.1461 H   0  0  0  0  0  0  0  0  0  0  0  0
  1  2  1  0  0  0  0
  2  3  1  0  0  0  0
  2  4  1  0  0  0  0
  4  5  1  0  0  0  0
  5  6  1  0  0  0  0
  6  7  2  0  0  0  0
  6  8  1  0  0  0  0
  8  9  1  0  0  0  0
  9 10  1  0  0  0  0
 10 11  2  0  0  0  0
 10 12  1  0  0  0  0
 12 13  1  0  0  0  0
  9 14  1  0  0  0  0
 14 15  1  0  0  0  0
 15 16  1  0  0  0  0
 16 17  2  0  0  0  0
 17 18  1  0  0  0  0
 18 19  2  0  0  0  0
 19 20  1  0  0  0  0
 20 15  2  0  0  0  0
  4 21  1  0  0  0  0
 21 22  1  0  0  0  0
 22 23  1  0  0  0  0
 23 24  1  0  0  0  0
 24 25  1  0  0  0  0
 25 26  1  0  0  0  0
 26  2  1  0  0  0  0
  4 27  1  0  0  0  0
  5 28  1  0  0  0  0
  8 29  1  0  0  0  0
  9 30  1  0  0  0  0
 12 31  1  0  0  0  0
 13 32  1  0  0  0  0
 13 33  1  0  0  0  0
 13 34  1  0  0  0  0
 14 35  1  0  0  0  0
 14 36  1  0  0  0  0
 16 37  1  0  0  0  0
 17 38  1  0  0  0  0
 18 39  1  0  0  0  0
 19 40  1  0  0  0  0
 20 41  1  0  0  0  0
 21 42  1  0  0  0  0
 21 43  1  0  0  0  0
 22 44  1  0  0  0  0
 22 45  1  0  0  0  0
 23 46  1  0  0  0  0
 23 47  1  0  0  0  0
 24 48  1  0  0  0  0
 24 49  1  0  0  0  0
 25 50  1  0  0  0  0
 25 51  1  0  0  0  0
 26 52  1  0  0  0  0
 26 53  1  0  0  0  0
M  END
>  <result-rank>
42

>  <similarity>
0.950

>  <query-name>
LIG_A_1101_CCC[C@H]([R*])C1CCC1_2

>  <query-smiles>
O=C(N[C@H](C1CCC1)CCC)[C@@H](NC(=O)C)Cc2ccc(O)cc2

>  <source>
REALspace_2019-12

>  <similarity-descriptor>
0.948;0.960;0.995;1.000;0.948;0.948;0.948;0.948;1.000;1.000;0.852;0.995;1.000;0.0;0.0

>  <similarity-descriptor-smiles>
FC1(CCCCCCC1)F;c1ccccc1;C=O;N;FC1(CCCCCCC1)F;FC1(CCCCCCC1)F;FC1(CCCCCCC1)F;FC1(CCCCCCC1)F;NC;NC;C(=O)N;C;C;;

>  <reaction-name>
s_2430a

>  <reagent1-name>
14728762

>  <reagent1-smiles>
[R1*]C(=O)NC1C(F)(F)CCCCCC1

>  <reagent2-name>
9298134

>  <reagent2-smiles>
[R1*]NC(C(=O)NC)Cc1ccccc1

$$$$
s_22____15768112____17513450
          04022015093D 1   1.00000     0.00000     0
            
 47 49  0  0  0  0            999 V2000
    3.9380    6.9475    3.6489 F   0  0  0  0  0  0  0  0  0  0  0  0
    4.6119    5.8134    3.8176 C   0  0  0  0  0  0  0  0  0  0  0  0
    4.6591    5.5142    5.1126 F   0  0  0  0  0  0  0  0  0  0  0  0
    3.9147    4.6932    3.0642 C   0  0  3  0  0  0  0  0  0  0  0  0
    4.4349    3.3371    3.5098 C   0  0  0  0  0  0  0  0  0  0  0  0
    4.3298    2.8794    2.0726 C   0  0  3  0  0  0  0  0  0  0  0  0
    3.2359    2.0689    1.5494 N   0  0  0  0  0  0  0  0  0  0  0  0
    1.8776    1.8776    1.8776 C   0  0  0  0  0  0  0  0  0  0  0  0
    1.4147    2.4076    2.8496 O   0  0  0  0  0  0  0  0  0  0  0  0
    1.0000    1.0000    1.0000 C   0  0  3  0  0  0  0  0  0  0  0  0
   -0.2629    0.7171    1.6971 N   0  0  0  0  0  0  0  0  0  0  0  0
   -0.6150   -0.5766    1.9787 C   0  0  0  0  0  0  0  0  0  0  0  0
    0.1075   -1.4788    1.6563 O   0  0  0  0  0  0  0  0  0  0  0  0
   -1.9209   -0.8691    2.6995 C   0  0  0  0  0  0  0  0  0  0  0  0
    0.7075    1.7208   -0.3059 C   0  0  0  0  0  0  0  0  0  0  0  0
    0.3370    0.7044   -1.3737 C   0  0  0  0  0  0  0  0  0  0  0  0
   -0.9955    0.3421   -1.5407 C   0  0  0  0  0  0  0  0  0  0  0  0
   -1.3392   -0.5870   -2.5170 C   0  0  0  0  0  0  0  0  0  0  0  0
   -0.3442   -1.1423   -3.3154 C   0  0  0  0  0  0  0  0  0  0  0  0
   -0.6734   -2.0446   -4.2639 O   0  0  0  0  0  0  0  0  0  0  0  0
    0.9900   -0.7836   -3.1522 C   0  0  0  0  0  0  0  0  0  0  0  0
    1.3280    0.1462   -2.1747 C   0  0  0  0  0  0  0  0  0  0  0  0
    4.1171    1.5206    0.5259 C   0  0  0  0  0  0  0  0  0  0  0  0
    5.2092    1.7705    1.5541 C   0  0  0  0  0  0  0  0  0  0  0  0
    4.5602    4.3436    1.7359 C   0  0  0  0  0  0  0  0  0  0  0  0
    5.5418    5.9228    3.4666 H   0  0  0  0  0  0  0  0  0  0  0  0
    2.9179    4.7680    3.0358 H   0  0  0  0  0  0  0  0  0  0  0  0
    5.3661    3.3493    3.8742 H   0  0  0  0  0  0  0  0  0  0  0  0
    3.8348    2.8509    4.1450 H   0  0  0  0  0  0  0  0  0  0  0  0
    1.4742    0.1409    0.8075 H   0  0  0  0  0  0  0  0  0  0  0  0
   -0.8650    1.4689    1.9658 H   0  0  0  0  0  0  0  0  0  0  0  0
   -2.3951   -0.0100    2.8919 H   0  0  0  0  0  0  0  0  0  0  0  0
   -2.4982   -1.4465    2.1221 H   0  0  0  0  0  0  0  0  0  0  0  0
   -1.7284   -1.3433    3.5586 H   0  0  0  0  0  0  0  0  0  0  0  0
   -0.0529    2.3565   -0.1726 H   0  0  0  0  0  0  0  0  0  0  0  0
    1.5191    2.2280   -0.5957 H   0  0  0  0  0  0  0  0  0  0  0  0
   -1.7028    0.7475   -0.9617 H   0  0  0  0  0  0  0  0  0  0  0  0
   -2.2945   -0.8539   -2.6442 H   0  0  0  0  0  0  0  0  0  0  0  0
    0.0383   -2.4464   -4.8401 H   0  0  0  0  0  0  0  0  0  0  0  0
    1.6975   -1.1894   -3.7308 H   0  0  0  0  0  0  0  0  0  0  0  0
    2.2832    0.4134   -2.0477 H   0  0  0  0  0  0  0  0  0  0  0  0
    4.1869    2.0598   -0.3133 H   0  0  0  0  0  0  0  0  0  0  0  0
    3.9589    0.5609    0.2933 H   0  0  0  0  0  0  0  0  0  0  0  0
    5.3632    1.0196    2.1963 H   0  0  0  0  0  0  0  0  0  0  0  0
    6.0847    2.0695    1.1746 H   0  0  0  0  0  0  0  0  0  0  0  0
    4.0609    4.6689    0.9328 H   0  0  0  0  0  0  0  0  0  0  0  0
    5.5221    4.6061    1.6593 H   0  0  0  0  0  0  0  0  0  0  0  0
  1  2  1  0  0  0  0
  2  3  1  0  0  0  0
  2  4  1  0  0  0  0
  4  5  1  0  0  0  0
  5  6  1  0  0  0  0
  6  7  1  0  0  0  0
  7  8  1  0  0  0  0
  8  9  2  0  0  0  0
  8 10  1  0  0  0  0
 10 11  1  0  0  0  0
 11 12  1  0  0  0  0
 12 13  2  0  0  0  0
 12 14  1  0  0  0  0
 10 15  1  0  0  0  0
 15 16  1  0  0  0  0
 16 17  1  0  0  0  0
 17 18  2  0  0  0  0
 18 19  1  0  0  0  0
 19 20  1  0  0  0  0
 19 21  2  0  0  0  0
 21 22  1  0  0  0  0
 22 16  2  0  0  0  0
  7 23  1  0  0  0  0
 23 24  1  0  0  0  0
 24  6  1  0  0  0  0
  6 25  1  0  0  0  0
 25  4  1  0  0  0  0
  2 26  1  0  0  0  0
  4 27  1  0  0  0  0
  5 28  1  0  0  0  0
  5 29  1  0  0  0  0
 10 30  1  0  0  0  0
 11 31  1  0  0  0  0
 14 32  1  0  0  0  0
 14 33  1  0  0  0  0
 14 34  1  0  0  0  0
 15 35  1  0  0  0  0
 15 36  1  0  0  0  0
 17 37  1  0  0  0  0
 18 38  1  0  0  0  0
 20 39  1  0  0  0  0
 21 40  1  0  0  0  0
 22 41  1  0  0  0  0
 23 42  1  0  0  0  0
 23 43  1  0  0  0  0
 24 44  1  0  0  0  0
 24 45  1  0  0  0  0
 25 46  1  0  0  0  0
 25 47  1  0  0  0  0
M  END
>  <result-rank>
43

>  <similarity>
0.950

>  <query-name>
LIG_A_1101_CCC[C@H]([R*])C1CCC1_2

>  <query-smiles>
O=C(N[C@H](C1CCC1)CCC)[C@@H](NC(=O)C)Cc2ccc(O)cc2

>  <source>
REALspace_2019-12

>  <similarity-descriptor>
0.970;1.000;0.852;0.852;0.864;0.864;0.0;0.0;1.000;1.000;1.000;1.000;1.000;1.000;0.0

>  <similarity-descriptor-smiles>
FC(F)C1CCC1;c1ccccc1;C=O;C=O;C1CCN1;C1CCN1;;;C;N;C=O;C;C;O;

>  <reaction-name>
s_22

>  <reagent1-name>
15768112

>  <reagent1-smiles>
[R1*]N1C2(CC(C(F)F)C2)CC1

>  <reagent2-name>
17513450

>  <reagent2-smiles>
[R1*]C(=O)C(NC(=O)C)Cc1ccc(O)cc1

$$$$
s_22____554418____17513450
          04022015093D 1   1.00000     0.00000     0
            
 51 51  0  0  0  0            999 V2000
    0.4000    1.0000   -0.0392 O   0  0  0  0  0  0  0  0  0  0  0  0
    1.0000    1.0000    1.0000 C   0  0  0  0  0  0  0  0  0  0  0  0
    0.3150    1.0000    2.1865 N   0  0  0  0  0  0  0  0  0  0  0  0
   -1.0885    0.5646    2.2248 C   0  0  0  0  0  0  0  0  0  0  0  0
   -1.1823   -0.7819    2.9238 C   0  0  0  0  0  0  0  0  0  0  0  0
   -2.5293   -0.8995    3.6183 C   0  0  0  0  0  0  0  0  0  0  0  0
   -1.0417   -1.8956    1.8991 C   0  0  0  0  0  0  0  0  0  0  0  0
    0.9835    1.4354    3.4211 C   0  0  0  0  0  0  0  0  0  0  0  0
    0.7895    2.9321    3.6016 C   0  0  0  0  0  0  0  0  0  0  0  0
    1.4807    3.3824    4.8783 C   0  0  0  0  0  0  0  0  0  0  0  0
    2.5200    1.0000    1.0000 C   0  0  3  0  0  0  0  0  0  0  0  0
    3.0100    1.6930   -0.2002 N   0  0  0  0  0  0  0  0  0  0  0  0
    3.2383    3.0434   -0.1663 C   0  0  0  0  0  0  0  0  0  0  0  0
    3.0383    3.6605    0.8432 O   0  0  0  0  0  0  0  0  0  0  0  0
    3.7450    3.7599   -1.4074 C   0  0  0  0  0  0  0  0  0  0  0  0
    3.0267   -0.4331    1.0000 C   0  0  0  0  0  0  0  0  0  0  0  0
    4.5467   -0.4331    1.0000 C   0  0  0  0  0  0  0  0  0  0  0  0
    5.2311   -0.4331    2.2110 C   0  0  0  0  0  0  0  0  0  0  0  0
    6.6219   -0.4338    2.2159 C   0  0  0  0  0  0  0  0  0  0  0  0
    7.3116   -0.4351    1.0075 C   0  0  0  0  0  0  0  0  0  0  0  0
    8.7316   -0.4355    1.0077 O   0  0  0  0  0  0  0  0  0  0  0  0
    6.6320   -0.4347   -0.2063 C   0  0  0  0  0  0  0  0  0  0  0  0
    5.2412   -0.4344   -0.2053 C   0  0  0  0  0  0  0  0  0  0  0  0
   -1.4371    0.4806    1.2913 H   0  0  0  0  0  0  0  0  0  0  0  0
   -1.6330    1.2383    2.7246 H   0  0  0  0  0  0  0  0  0  0  0  0
   -0.4504   -0.8576    3.6010 H   0  0  0  0  0  0  0  0  0  0  0  0
   -2.5910   -1.7853    4.0782 H   0  0  0  0  0  0  0  0  0  0  0  0
   -2.6218   -0.1667    4.2925 H   0  0  0  0  0  0  0  0  0  0  0  0
   -3.2612   -0.8237    2.9412 H   0  0  0  0  0  0  0  0  0  0  0  0
   -1.1035   -2.7815    2.3589 H   0  0  0  0  0  0  0  0  0  0  0  0
   -1.7737   -1.8199    1.2219 H   0  0  0  0  0  0  0  0  0  0  0  0
   -0.1556   -1.8183    1.4422 H   0  0  0  0  0  0  0  0  0  0  0  0
    1.9605    1.2308    3.3612 H   0  0  0  0  0  0  0  0  0  0  0  0
    0.5889    0.9515    4.2023 H   0  0  0  0  0  0  0  0  0  0  0  0
   -0.1875    3.1367    3.6616 H   0  0  0  0  0  0  0  0  0  0  0  0
    1.1840    3.4160    2.8205 H   0  0  0  0  0  0  0  0  0  0  0  0
    1.3530    4.3670    4.9970 H   0  0  0  0  0  0  0  0  0  0  0  0
    1.0861    2.8985    5.6594 H   0  0  0  0  0  0  0  0  0  0  0  0
    2.4577    3.1777    4.8183 H   0  0  0  0  0  0  0  0  0  0  0  0
    2.8533    1.4714    1.8165 H   0  0  0  0  0  0  0  0  0  0  0  0
    3.1767    1.1787   -1.0415 H   0  0  0  0  0  0  0  0  0  0  0  0
    3.8561    3.1005   -2.1510 H   0  0  0  0  0  0  0  0  0  0  0  0
    3.0863    4.4614   -1.6796 H   0  0  0  0  0  0  0  0  0  0  0  0
    4.6259    4.1892   -1.2082 H   0  0  0  0  0  0  0  0  0  0  0  0
    2.6933   -0.9045    1.8165 H   0  0  0  0  0  0  0  0  0  0  0  0
    2.6933   -0.9045    0.1835 H   0  0  0  0  0  0  0  0  0  0  0  0
    4.7256   -0.4325    3.0738 H   0  0  0  0  0  0  0  0  0  0  0  0
    7.1226   -0.4335    3.0815 H   0  0  0  0  0  0  0  0  0  0  0  0
    9.2317   -0.4364    0.1417 H   0  0  0  0  0  0  0  0  0  0  0  0
    7.1374   -0.4347   -1.0692 H   0  0  0  0  0  0  0  0  0  0  0  0
    4.7405   -0.4351   -1.0710 H   0  0  0  0  0  0  0  0  0  0  0  0
  1  2  2  0  0  0  0
  2  3  1  0  0  0  0
  3  4  1  0  0  0  0
  4  5  1  0  0  0  0
  5  6  1  0  0  0  0
  5  7  1  0  0  0  0
  3  8  1  0  0  0  0
  8  9  1  0  0  0  0
  9 10  1  0  0  0  0
  2 11  1  0  0  0  0
 11 12  1  0  0  0  0
 12 13  1  0  0  0  0
 13 14  2  0  0  0  0
 13 15  1  0  0  0  0
 11 16  1  0  0  0  0
 16 17  1  0  0  0  0
 17 18  1  0  0  0  0
 18 19  2  0  0  0  0
 19 20  1  0  0  0  0
 20 21  1  0  0  0  0
 20 22  2  0  0  0  0
 22 23  1  0  0  0  0
 23 17  2  0  0  0  0
  4 24  1  0  0  0  0
  4 25  1  0  0  0  0
  5 26  1  0  0  0  0
  6 27  1  0  0  0  0
  6 28  1  0  0  0  0
  6 29  1  0  0  0  0
  7 30  1  0  0  0  0
  7 31  1  0  0  0  0
  7 32  1  0  0  0  0
  8 33  1  0  0  0  0
  8 34  1  0  0  0  0
  9 35  1  0  0  0  0
  9 36  1  0  0  0  0
 10 37  1  0  0  0  0
 10 38  1  0  0  0  0
 10 39  1  0  0  0  0
 11 40  1  0  0  0  0
 12 41  1  0  0  0  0
 15 42  1  0  0  0  0
 15 43  1  0  0  0  0
 15 44  1  0  0  0  0
 16 45  1  0  0  0  0
 16 46  1  0  0  0  0
 18 47  1  0  0  0  0
 19 48  1  0  0  0  0
 21 49  1  0  0  0  0
 22 50  1  0  0  0  0
 23 51  1  0  0  0  0
M  END
>  <result-rank>
44

>  <similarity>
0.950

>  <query-name>
LIG_A_1101_CCC[C@H]([R*])C1CCC1_2

>  <query-smiles>
O=C(N[C@H](C1CCC1)CCC)[C@@H](NC(=O)C)Cc2ccc(O)cc2

>  <source>
REALspace_2019-12

>  <similarity-descriptor>
0.879;1.000;0.852;0.852;0.956;0.956;0.949;0.0;1.000;1.000;1.000;1.000;1.000;1.000;0.0

>  <similarity-descriptor-smiles>
CC(C)C;c1ccccc1;O=C;O=C;NCC;NCC;C;;C;N;C=O;C;C;O;

>  <reaction-name>
s_22

>  <reagent1-name>
554418

>  <reagent1-smiles>
[R1*]N(CC(C)C)CCC

>  <reagent2-name>
17513450

>  <reagent2-smiles>
[R1*]C(=O)C(NC(=O)C)Cc1ccc(O)cc1

$$$$
s_512____10971300____13611202
          04022015093D 1   1.00000     0.00000     0
            
 56 57  0  0  0  0            999 V2000
    6.3256   -0.5699    5.5897 F   0  0  0  0  0  0  0  0  0  0  0  0
    5.5599   -0.4980    4.5043 C   0  0  0  0  0  0  0  0  0  0  0  0
    4.2153   -0.1631    4.6269 C   0  0  0  0  0  0  0  0  0  0  0  0
    3.4205   -0.0908    3.4874 C   0  0  0  0  0  0  0  0  0  0  0  0
    3.9788   -0.3536    2.2409 C   0  0  0  0  0  0  0  0  0  0  0  0
    5.3238   -0.6873    2.1242 C   0  0  0  0  0  0  0  0  0  0  0  0
    6.1233   -0.7608    3.2599 C   0  0  0  0  0  0  0  0  0  0  0  0
    3.1050   -0.2731    1.0000 C   0  0  3  0  0  0  0  0  0  0  0  0
    2.3700    1.0000    1.0000 N   0  0  0  0  0  0  0  0  0  0  0  0
    1.0000    1.0000    1.0000 C   0  0  0  0  0  0  0  0  0  0  0  0
    0.4000   -0.0392    1.0000 O   0  0  0  0  0  0  0  0  0  0  0  0
    0.3150    2.1865    1.0000 N   0  0  0  0  0  0  0  0  0  0  0  0
   -1.1553    2.1865    1.0000 C   0  0  3  0  0  0  0  0  0  0  0  0
   -1.7028    2.8929    2.2236 C   0  0  3  0  0  0  0  0  0  0  0  0
   -1.9856    1.9186    3.3562 C   0  0  0  0  0  0  0  0  0  0  0  0
   -0.6991    1.2105    3.7484 C   0  0  0  0  0  0  0  0  0  0  0  0
   -2.5310    2.6788    4.5541 C   0  0  0  0  0  0  0  0  0  0  0  0
   -3.0093    0.8926    2.8982 C   0  0  0  0  0  0  0  0  0  0  0  0
   -2.9603    3.5563    1.6992 C   0  0  0  0  0  0  0  0  0  0  0  0
   -2.5436    4.0694    0.3399 C   0  0  0  0  0  0  0  0  0  0  0  0
   -1.7214    2.9195   -0.2027 C   0  0  0  0  0  0  0  0  0  0  0  0
    3.1050    2.2731    1.0000 C   0  0  0  0  0  0  0  0  0  0  0  0
    3.9789   -0.3536   -0.2411 C   0  0  0  0  0  0  0  0  0  0  0  0
    3.1625   -0.2784   -1.4005 O   0  0  0  0  0  0  0  0  0  0  0  0
    2.7675   -1.5864   -1.7870 C   0  0  0  0  0  0  0  0  0  0  0  0
    3.8229    0.0242    5.5274 H   0  0  0  0  0  0  0  0  0  0  0  0
    2.4527    0.1488    3.5642 H   0  0  0  0  0  0  0  0  0  0  0  0
    5.7161   -0.8745    1.2236 H   0  0  0  0  0  0  0  0  0  0  0  0
    7.0913   -0.9996    3.1828 H   0  0  0  0  0  0  0  0  0  0  0  0
    2.4552   -1.0331    1.0000 H   0  0  0  0  0  0  0  0  0  0  0  0
    0.8150    3.0525    1.0000 H   0  0  0  0  0  0  0  0  0  0  0  0
   -1.4832    1.2418    0.9925 H   0  0  0  0  0  0  0  0  0  0  0  0
   -1.0548    3.5900    2.5304 H   0  0  0  0  0  0  0  0  0  0  0  0
   -0.8850    0.5697    4.4933 H   0  0  0  0  0  0  0  0  0  0  0  0
   -0.3402    0.7104    2.9603 H   0  0  0  0  0  0  0  0  0  0  0  0
   -0.0256    1.8855    4.0497 H   0  0  0  0  0  0  0  0  0  0  0  0
   -2.7170    2.0380    5.2990 H   0  0  0  0  0  0  0  0  0  0  0  0
   -1.8575    3.3538    4.8554 H   0  0  0  0  0  0  0  0  0  0  0  0
   -3.3774    3.1446    4.2960 H   0  0  0  0  0  0  0  0  0  0  0  0
   -3.1952    0.2519    3.6430 H   0  0  0  0  0  0  0  0  0  0  0  0
   -3.8557    1.3585    2.6401 H   0  0  0  0  0  0  0  0  0  0  0  0
   -2.6504    0.3925    2.1101 H   0  0  0  0  0  0  0  0  0  0  0  0
   -3.2431    4.3084    2.2945 H   0  0  0  0  0  0  0  0  0  0  0  0
   -3.7068    2.8958    1.6191 H   0  0  0  0  0  0  0  0  0  0  0  0
   -3.3393    4.2498   -0.2383 H   0  0  0  0  0  0  0  0  0  0  0  0
   -1.9942    4.9011    0.4199 H   0  0  0  0  0  0  0  0  0  0  0  0
   -2.2993    2.3056   -0.7405 H   0  0  0  0  0  0  0  0  0  0  0  0
   -0.9793    3.2663   -0.7763 H   0  0  0  0  0  0  0  0  0  0  0  0
    4.0882    2.0903    1.0000 H   0  0  0  0  0  0  0  0  0  0  0  0
    2.8634    2.7974    0.1835 H   0  0  0  0  0  0  0  0  0  0  0  0
    2.8634    2.7974    1.8165 H   0  0  0  0  0  0  0  0  0  0  0  0
    4.6287    0.4065   -0.2411 H   0  0  0  0  0  0  0  0  0  0  0  0
    4.4789   -1.2196   -0.2411 H   0  0  0  0  0  0  0  0  0  0  0  0
    2.1926   -1.5334   -2.6035 H   0  0  0  0  0  0  0  0  0  0  0  0
    3.5798   -2.1347   -1.9862 H   0  0  0  0  0  0  0  0  0  0  0  0
    2.2521   -2.0123   -1.0434 H   0  0  0  0  0  0  0  0  0  0  0  0
  1  2  1  0  0  0  0
  2  3  1  0  0  0  0
  3  4  2  0  0  0  0
  4  5  1  0  0  0  0
  5  6  2  0  0  0  0
  6  7  1  0  0  0  0
  7  2  2  0  0  0  0
  5  8  1  0  0  0  0
  8  9  1  0  0  0  0
  9 10  1  0  0  0  0
 10 11  2  0  0  0  0
 10 12  1  0  0  0  0
 12 13  1  0  0  0  0
 13 14  1  0  0  0  0
 14 15  1  0  0  0  0
 15 16  1  0  0  0  0
 15 17  1  0  0  0  0
 15 18  1  0  0  0  0
 14 19  1  0  0  0  0
 19 20  1  0  0  0  0
 20 21  1  0  0  0  0
 21 13  1  0  0  0  0
  9 22  1  0  0  0  0
  8 23  1  0  0  0  0
 23 24  1  0  0  0  0
 24 25  1  0  0  0  0
  3 26  1  0  0  0  0
  4 27  1  0  0  0  0
  6 28  1  0  0  0  0
  7 29  1  0  0  0  0
  8 30  1  0  0  0  0
 12 31  1  0  0  0  0
 13 32  1  0  0  0  0
 14 33  1  0  0  0  0
 16 34  1  0  0  0  0
 16 35  1  0  0  0  0
 16 36  1  0  0  0  0
 17 37  1  0  0  0  0
 17 38  1  0  0  0  0
 17 39  1  0  0  0  0
 18 40  1  0  0  0  0
 18 41  1  0  0  0  0
 18 42  1  0  0  0  0
 19 43  1  0  0  0  0
 19 44  1  0  0  0  0
 20 45  1  0  0  0  0
 20 46  1  0  0  0  0
 21 47  1  0  0  0  0
 21 48  1  0  0  0  0
 22 49  1  0  0  0  0
 22 50  1  0  0  0  0
 22 51  1  0  0  0  0
 23 52  1  0  0  0  0
 23 53  1  0  0  0  0
 25 54  1  0  0  0  0
 25 55  1  0  0  0  0
 25 56  1  0  0  0  0
M  END
>  <result-rank>
45

>  <similarity>
0.950

>  <query-name>
LIG_A_1101_CCC[C@H]([R*])C1CCC1_2

>  <query-smiles>
O=C(N[C@H](C1CCC1)CCC)[C@@H](NC(=O)C)Cc2ccc(O)cc2

>  <source>
REALspace_2019-12

>  <similarity-descriptor>
1.000;0.983;0.995;1.000;1.000;0.937;0.937;1.000;0.951;0.735;0.735;0.994;0.951;0.0;0.0

>  <similarity-descriptor-smiles>
C1CCCC1;Fc1ccccc1;C=O;N;C1CCCC1;C(C)C;C(C)C;C;CNC;CO;CO;C;CNC;;

>  <reaction-name>
s_512

>  <reagent1-name>
10971300

>  <reagent1-smiles>
[R1*]C(=O)NC1C(C(C)(C)C)CCC1

>  <reagent2-name>
13611202

>  <reagent2-smiles>
[R1*]N(C(c1ccc(F)cc1)COC)C

$$$$
s_22____12056416____17057108
          04022015093D 1   1.00000     0.00000     0
            
 58 59  0  0  0  0            999 V2000
    4.7893   -1.1701   -4.6874 F   0  0  0  0  0  0  0  0  0  0  0  0
    3.9005   -0.3144   -5.1842 C   0  0  0  0  0  0  0  0  0  0  0  0
    3.6109    0.7684   -4.1574 C   0  0  0  0  0  0  0  0  0  0  0  0
    2.6250    0.2398   -3.1279 C   0  0  3  0  0  0  0  0  0  0  0  0
    2.0759    1.4259   -2.3472 C   0  0  0  0  0  0  0  0  0  0  0  0
    0.9068    1.0659   -1.5264 N   0  0  0  0  0  0  0  0  0  0  0  0
    0.7075    1.7208   -0.3059 C   0  0  0  0  0  0  0  0  0  0  0  0
    0.3056    2.8514   -0.2902 O   0  0  0  0  0  0  0  0  0  0  0  0
    1.0000    1.0000    1.0000 C   0  0  3  0  0  0  0  0  0  0  0  0
    1.8487    1.8487    1.8487 N   0  0  0  0  0  0  0  0  0  0  0  0
    3.0831    1.4052    2.2442 C   0  0  0  0  0  0  0  0  0  0  0  0
    3.3670    0.2444    2.1351 O   0  0  0  0  0  0  0  0  0  0  0  0
    4.0932    2.3836    2.8212 C   0  0  0  0  0  0  0  0  0  0  0  0
    4.2718    2.1109    4.3058 C   0  0  0  0  0  0  0  0  0  0  0  0
    5.2819    3.0892    4.8827 C   0  0  0  0  0  0  0  0  0  0  0  0
    2.9389    2.2810    5.0161 C   0  0  0  0  0  0  0  0  0  0  0  0
   -0.3059    0.7075    1.7208 C   0  0  0  0  0  0  0  0  0  0  0  0
   -0.1561   -0.5602    2.5461 C   0  0  0  0  0  0  0  0  0  0  0  0
   -0.4624   -1.7901    1.9731 C   0  0  0  0  0  0  0  0  0  0  0  0
   -0.3262   -2.9527    2.7243 C   0  0  0  0  0  0  0  0  0  0  0  0
    0.1159   -2.8702    4.0409 C   0  0  0  0  0  0  0  0  0  0  0  0
    0.2492   -3.9960    4.7736 O   0  0  0  0  0  0  0  0  0  0  0  0
    0.4233   -1.6427    4.6189 C   0  0  0  0  0  0  0  0  0  0  0  0
    0.2856   -0.4834    3.8630 C   0  0  0  0  0  0  0  0  0  0  0  0
   -0.0664    0.0378   -1.9315 C   0  0  0  0  0  0  0  0  0  0  0  0
    0.5948   -1.0887   -2.7139 C   0  0  0  0  0  0  0  0  0  0  0  0
    1.5297   -0.5764   -3.8017 C   0  0  0  0  0  0  0  0  0  0  0  0
    3.0549   -0.8014   -5.4026 H   0  0  0  0  0  0  0  0  0  0  0  0
    4.2685    0.1037   -6.0147 H   0  0  0  0  0  0  0  0  0  0  0  0
    4.4610    1.0307   -3.7008 H   0  0  0  0  0  0  0  0  0  0  0  0
    3.2188    1.5660   -4.6157 H   0  0  0  0  0  0  0  0  0  0  0  0
    3.1184   -0.3554   -2.4937 H   0  0  0  0  0  0  0  0  0  0  0  0
    2.7948    1.7752   -1.7463 H   0  0  0  0  0  0  0  0  0  0  0  0
    1.8065    2.1391   -2.9943 H   0  0  0  0  0  0  0  0  0  0  0  0
    1.4742    0.1409    0.8075 H   0  0  0  0  0  0  0  0  0  0  0  0
    1.5250    2.7498    2.1374 H   0  0  0  0  0  0  0  0  0  0  0  0
    3.7633    3.3187    2.6914 H   0  0  0  0  0  0  0  0  0  0  0  0
    4.9702    2.2717    2.3538 H   0  0  0  0  0  0  0  0  0  0  0  0
    4.6018    1.1758    4.4356 H   0  0  0  0  0  0  0  0  0  0  0  0
    5.3995    2.9098    5.8595 H   0  0  0  0  0  0  0  0  0  0  0  0
    6.1589    2.9773    4.4154 H   0  0  0  0  0  0  0  0  0  0  0  0
    4.9520    4.0243    4.7529 H   0  0  0  0  0  0  0  0  0  0  0  0
    3.0564    2.1015    5.9929 H   0  0  0  0  0  0  0  0  0  0  0  0
    2.6089    3.2160    4.8864 H   0  0  0  0  0  0  0  0  0  0  0  0
    2.2743    1.6373    4.6366 H   0  0  0  0  0  0  0  0  0  0  0  0
   -0.5327    1.4727    2.3233 H   0  0  0  0  0  0  0  0  0  0  0  0
   -1.0367    0.5838    1.0495 H   0  0  0  0  0  0  0  0  0  0  0  0
   -0.7790   -1.8381    1.0258 H   0  0  0  0  0  0  0  0  0  0  0  0
   -0.5443   -3.8414    2.3210 H   0  0  0  0  0  0  0  0  0  0  0  0
    0.5666   -3.9418    5.7203 H   0  0  0  0  0  0  0  0  0  0  0  0
    0.7394   -1.5945    5.5664 H   0  0  0  0  0  0  0  0  0  0  0  0
    0.5041    0.4053    4.2662 H   0  0  0  0  0  0  0  0  0  0  0  0
   -0.7666    0.4628   -2.5050 H   0  0  0  0  0  0  0  0  0  0  0  0
   -0.4935   -0.3444   -1.1120 H   0  0  0  0  0  0  0  0  0  0  0  0
   -0.1190   -1.6442   -3.1405 H   0  0  0  0  0  0  0  0  0  0  0  0
    1.1217   -1.6535   -2.0787 H   0  0  0  0  0  0  0  0  0  0  0  0
    1.9339   -1.3474   -4.2938 H   0  0  0  0  0  0  0  0  0  0  0  0
    1.0223   -0.0008   -4.4430 H   0  0  0  0  0  0  0  0  0  0  0  0
  1  2  1  0  0  0  0
  2  3  1  0  0  0  0
  3  4  1  0  0  0  0
  4  5  1  0  0  0  0
  5  6  1  0  0  0  0
  6  7  1  0  0  0  0
  7  8  2  0  0  0  0
  7  9  1  0  0  0  0
  9 10  1  0  0  0  0
 10 11  1  0  0  0  0
 11 12  2  0  0  0  0
 11 13  1  0  0  0  0
 13 14  1  0  0  0  0
 14 15  1  0  0  0  0
 14 16  1  0  0  0  0
  9 17  1  0  0  0  0
 17 18  1  0  0  0  0
 18 19  1  0  0  0  0
 19 20  2  0  0  0  0
 20 21  1  0  0  0  0
 21 22  1  0  0  0  0
 21 23  2  0  0  0  0
 23 24  1  0  0  0  0
 24 18  2  0  0  0  0
  6 25  1  0  0  0  0
 25 26  1  0  0  0  0
 26 27  1  0  0  0  0
 27  4  1  0  0  0  0
  2 28  1  0  0  0  0
  2 29  1  0  0  0  0
  3 30  1  0  0  0  0
  3 31  1  0  0  0  0
  4 32  1  0  0  0  0
  5 33  1  0  0  0  0
  5 34  1  0  0  0  0
  9 35  1  0  0  0  0
 10 36  1  0  0  0  0
 13 37  1  0  0  0  0
 13 38  1  0  0  0  0
 14 39  1  0  0  0  0
 15 40  1  0  0  0  0
 15 41  1  0  0  0  0
 15 42  1  0  0  0  0
 16 43  1  0  0  0  0
 16 44  1  0  0  0  0
 16 45  1  0  0  0  0
 17 46  1  0  0  0  0
 17 47  1  0  0  0  0
 19 48  1  0  0  0  0
 20 49  1  0  0  0  0
 22 50  1  0  0  0  0
 23 51  1  0  0  0  0
 24 52  1  0  0  0  0
 25 53  1  0  0  0  0
 25 54  1  0  0  0  0
 26 55  1  0  0  0  0
 26 56  1  0  0  0  0
 27 57  1  0  0  0  0
 27 58  1  0  0  0  0
M  END
>  <result-rank>
46

>  <similarity>
0.949

>  <query-name>
LIG_A_1101_CCC[C@H]([R*])C1CCC1_2

>  <query-smiles>
O=C(N[C@H](C1CCC1)CCC)[C@@H](NC(=O)C)Cc2ccc(O)cc2

>  <source>
REALspace_2019-12

>  <similarity-descriptor>
0.980;1.000;0.852;0.852;0.980;0.966;0.966;0.0;1.000;1.000;1.000;0.949;1.000;1.000;0.214

>  <similarity-descriptor-smiles>
C1CCCNC1;c1ccccc1;C=O;C=O;C1CCCNC1;FCC;FCC;;C;N;C=O;C;C;O;C.C.C

>  <reaction-name>
s_22

>  <reagent1-name>
12056416

>  <reagent1-smiles>
[R1*]N1CC(CCF)CCC1

>  <reagent2-name>
17057108

>  <reagent2-smiles>
[R1*]C(=O)C(NC(=O)CC(C)C)Cc1ccc(O)cc1

$$$$
s_22____5531216____12900018
          04022015093D 1   1.00000     0.00000     0
            
 48 49  0  0  0  0            999 V2000
    3.0383    3.2257   -0.4661 O   0  0  0  0  0  0  0  0  0  0  0  0
    3.2383    2.1865   -1.0318 C   0  0  0  0  0  0  0  0  0  0  0  0
    3.0100    1.0000   -0.3859 N   0  0  0  0  0  0  0  0  0  0  0  0
    3.2434   -0.2126   -1.0460 C   0  0  0  0  0  0  0  0  0  0  0  0
    2.2184   -0.8090   -1.7736 C   0  0  0  0  0  0  0  0  0  0  0  0
    2.4541   -2.0135   -2.4281 C   0  0  0  0  0  0  0  0  0  0  0  0
    3.7069   -2.6126   -2.3521 C   0  0  0  0  0  0  0  0  0  0  0  0
    4.7243   -2.0071   -1.6223 C   0  0  0  0  0  0  0  0  0  0  0  0
    4.5003   -0.8027   -0.9635 C   0  0  0  0  0  0  0  0  0  0  0  0
    2.5200    1.0000    1.0000 C   0  0  0  0  0  0  0  0  0  0  0  0
    1.0000    1.0000    1.0000 C   0  0  0  0  0  0  0  0  0  0  0  0
    0.4000    1.0000   -0.0392 O   0  0  0  0  0  0  0  0  0  0  0  0
    0.3150    1.0000    2.1865 N   0  0  0  0  0  0  0  0  0  0  0  0
   -1.1547    1.0000    2.1865 C   0  0  3  0  0  0  0  0  0  0  0  0
   -1.6725   -0.2380    2.9012 C   0  0  0  0  0  0  0  0  0  0  0  0
   -3.1925   -0.2431    2.9121 C   0  0  3  0  0  0  0  0  0  0  0  0
   -3.7105    1.0080    3.6033 C   0  0  0  0  0  0  0  0  0  0  0  0
   -3.1939    2.2478    2.8911 C   0  0  0  0  0  0  0  0  0  0  0  0
   -1.6737    2.2469    2.8849 C   0  0  0  0  0  0  0  0  0  0  0  0
   -3.7057   -1.4823    3.6266 C   0  0  0  0  0  0  0  0  0  0  0  0
   -3.2080   -2.7250    2.9066 C   0  0  0  0  0  0  0  0  0  0  0  0
    3.7450    2.1865   -2.4648 C   0  0  0  0  0  0  0  0  0  0  0  0
    1.3190   -0.3750   -1.8256 H   0  0  0  0  0  0  0  0  0  0  0  0
    1.7228   -2.4486   -2.9533 H   0  0  0  0  0  0  0  0  0  0  0  0
    3.8762   -3.4789   -2.8222 H   0  0  0  0  0  0  0  0  0  0  0  0
    5.6238   -2.4410   -1.5707 H   0  0  0  0  0  0  0  0  0  0  0  0
    5.2318   -0.3676   -0.4386 H   0  0  0  0  0  0  0  0  0  0  0  0
    2.8533    1.8165    1.4714 H   0  0  0  0  0  0  0  0  0  0  0  0
    2.8533    0.1835    1.4714 H   0  0  0  0  0  0  0  0  0  0  0  0
    0.8150    1.0000    3.0525 H   0  0  0  0  0  0  0  0  0  0  0  0
   -1.4822    0.9936    1.2416 H   0  0  0  0  0  0  0  0  0  0  0  0
   -1.3357   -0.2404    3.8428 H   0  0  0  0  0  0  0  0  0  0  0  0
   -1.3431   -1.0546    2.4273 H   0  0  0  0  0  0  0  0  0  0  0  0
   -3.5234   -0.2527    1.9685 H   0  0  0  0  0  0  0  0  0  0  0  0
   -3.3958    1.0162    4.5524 H   0  0  0  0  0  0  0  0  0  0  0  0
   -4.7103    1.0073    3.5835 H   0  0  0  0  0  0  0  0  0  0  0  0
   -3.5291    2.2525    1.9490 H   0  0  0  0  0  0  0  0  0  0  0  0
   -3.5229    3.0639    3.3661 H   0  0  0  0  0  0  0  0  0  0  0  0
   -1.3445    3.0580    2.4014 H   0  0  0  0  0  0  0  0  0  0  0  0
   -1.3390    2.2618    3.8271 H   0  0  0  0  0  0  0  0  0  0  0  0
   -4.7057   -1.4760    3.6282 H   0  0  0  0  0  0  0  0  0  0  0  0
   -3.3709   -1.4864    4.5689 H   0  0  0  0  0  0  0  0  0  0  0  0
   -3.5457   -3.5404    3.3768 H   0  0  0  0  0  0  0  0  0  0  0  0
   -3.5428   -2.7208    1.9643 H   0  0  0  0  0  0  0  0  0  0  0  0
   -2.2080   -2.7313    2.9050 H   0  0  0  0  0  0  0  0  0  0  0  0
    3.8561    1.2436   -2.7791 H   0  0  0  0  0  0  0  0  0  0  0  0
    3.0863    2.6579   -3.0513 H   0  0  0  0  0  0  0  0  0  0  0  0
    4.6259    2.6579   -2.5069 H   0  0  0  0  0  0  0  0  0  0  0  0
  1  2  2  0  0  0  0
  2  3  1  0  0  0  0
  3  4  1  0  0  0  0
  4  5  1  0  0  0  0
  5  6  2  0  0  0  0
  6  7  1  0  0  0  0
  7  8  2  0  0  0  0
  8  9  1  0  0  0  0
  9  4  2  0  0  0  0
  3 10  1  0  0  0  0
 10 11  1  0  0  0  0
 11 12  2  0  0  0  0
 11 13  1  0  0  0  0
 13 14  1  0  0  0  0
 14 15  1  0  0  0  0
 15 16  1  0  0  0  0
 16 17  1  0  0  0  0
 17 18  1  0  0  0  0
 18 19  1  0  0  0  0
 19 14  1  0  0  0  0
 16 20  1  0  0  0  0
 20 21  1  0  0  0  0
  2 22  1  0  0  0  0
  5 23  1  0  0  0  0
  6 24  1  0  0  0  0
  7 25  1  0  0  0  0
  8 26  1  0  0  0  0
  9 27  1  0  0  0  0
 10 28  1  0  0  0  0
 10 29  1  0  0  0  0
 13 30  1  0  0  0  0
 14 31  1  0  0  0  0
 15 32  1  0  0  0  0
 15 33  1  0  0  0  0
 16 34  1  0  0  0  0
 17 35  1  0  0  0  0
 17 36  1  0  0  0  0
 18 37  1  0  0  0  0
 18 38  1  0  0  0  0
 19 39  1  0  0  0  0
 19 40  1  0  0  0  0
 20 41  1  0  0  0  0
 20 42  1  0  0  0  0
 21 43  1  0  0  0  0
 21 44  1  0  0  0  0
 21 45  1  0  0  0  0
 22 46  1  0  0  0  0
 22 47  1  0  0  0  0
 22 48  1  0  0  0  0
M  END
>  <result-rank>
47

>  <similarity>
0.949

>  <query-name>
LIG_A_1101_CCC[C@H]([R*])C1CCC1_2

>  <query-smiles>
O=C(N[C@H](C1CCC1)CCC)[C@@H](NC(=O)C)Cc2ccc(O)cc2

>  <source>
REALspace_2019-12

>  <similarity-descriptor>
1.000;0.925;1.000;1.000;1.000;1.000;1.000;1.000;0.909;0.852;0.852;1.000;0.925;0.0;0.0

>  <similarity-descriptor-smiles>
C1CCCCC1;c1ccccc1;C=O;N;C1CCCCC1;C1CCCCC1;C;C;NC;O=C;O=C;C;c1ccccc1;;

>  <reaction-name>
s_22

>  <reagent1-name>
5531216

>  <reagent1-smiles>
[R1*]NC1CC(CCC1)CC

>  <reagent2-name>
12900018

>  <reagent2-smiles>
[R1*]C(=O)CN(c1ccccc1)C(=O)C

$$$$
s_22____9163312____1291058
          04022015093D 1   1.00000     0.00000     0
            
 45 46  0  0  0  0            999 V2000
    6.5447    0.9816    1.0109 F   0  0  0  0  0  0  0  0  0  0  0  0
    5.2146    0.9911    1.0050 C   0  0  0  0  0  0  0  0  0  0  0  0
    4.5168   -0.0222    1.6522 C   0  0  0  0  0  0  0  0  0  0  0  0
    5.2143   -1.0448    2.3052 N   0  0  0  0  0  0  0  0  0  0  0  0
    4.5621   -2.1919    2.6735 C   0  0  0  0  0  0  0  0  0  0  0  0
    3.6276   -2.5837    2.0305 O   0  0  0  0  0  0  0  0  0  0  0  0
    5.0220   -2.9684    3.8965 C   0  0  0  0  0  0  0  0  0  0  0  0
    3.1259   -0.0254    1.6545 C   0  0  0  0  0  0  0  0  0  0  0  0
    2.4503    1.0000    1.0000 C   0  0  0  0  0  0  0  0  0  0  0  0
    3.1462    2.0157    0.3518 C   0  0  0  0  0  0  0  0  0  0  0  0
    4.5371    2.0154    0.3515 C   0  0  0  0  0  0  0  0  0  0  0  0
    1.0000    1.0000    1.0000 C   0  0  0  0  0  0  0  0  0  0  0  0
    0.4000   -0.0383    0.9556 O   0  0  0  0  0  0  0  0  0  0  0  0
    0.3150    2.1854    1.0507 N   0  0  0  0  0  0  0  0  0  0  0  0
   -1.1546    2.1854    1.0507 C   0  0  3  0  0  0  0  0  0  0  0  0
   -1.7105    2.9455   -0.1447 C   0  0  0  0  0  0  0  0  0  0  0  0
   -1.7514    4.4565    0.0315 C   0  0  0  0  0  0  0  0  0  0  0  0
   -3.0906    4.9146    0.5880 C   0  0  3  0  0  0  0  0  0  0  0  0
   -3.2753    4.6297    2.0723 C   0  0  0  0  0  0  0  0  0  0  0  0
   -3.0821    3.1637    2.4204 C   0  0  0  0  0  0  0  0  0  0  0  0
   -1.6104    2.7794    2.3770 C   0  0  0  0  0  0  0  0  0  0  0  0
   -3.1983    6.4171    0.3888 C   0  0  0  0  0  0  0  0  0  0  0  0
    6.1887   -0.9382    2.5029 H   0  0  0  0  0  0  0  0  0  0  0  0
    5.8059   -2.5052    4.3101 H   0  0  0  0  0  0  0  0  0  0  0  0
    4.2757   -3.0176    4.5603 H   0  0  0  0  0  0  0  0  0  0  0  0
    5.2871   -3.8933    3.6239 H   0  0  0  0  0  0  0  0  0  0  0  0
    2.6199   -0.7523    2.1188 H   0  0  0  0  0  0  0  0  0  0  0  0
    2.6463    2.7459   -0.1139 H   0  0  0  0  0  0  0  0  0  0  0  0
    5.0435    2.7422   -0.1125 H   0  0  0  0  0  0  0  0  0  0  0  0
    0.8150    3.0506    1.0877 H   0  0  0  0  0  0  0  0  0  0  0  0
   -1.4723    1.2385    1.0008 H   0  0  0  0  0  0  0  0  0  0  0  0
   -2.6429    2.6253   -0.3123 H   0  0  0  0  0  0  0  0  0  0  0  0
   -1.1394    2.7390   -0.9392 H   0  0  0  0  0  0  0  0  0  0  0  0
   -1.0259    4.7301    0.6630 H   0  0  0  0  0  0  0  0  0  0  0  0
   -1.6020    4.8917   -0.8564 H   0  0  0  0  0  0  0  0  0  0  0  0
   -3.8245    4.4662    0.0777 H   0  0  0  0  0  0  0  0  0  0  0  0
   -4.2006    4.9014    2.3369 H   0  0  0  0  0  0  0  0  0  0  0  0
   -2.6094    5.1703    2.5864 H   0  0  0  0  0  0  0  0  0  0  0  0
   -3.4360    2.9972    3.3407 H   0  0  0  0  0  0  0  0  0  0  0  0
   -3.5855    2.6029    1.7631 H   0  0  0  0  0  0  0  0  0  0  0  0
   -1.0674    3.5999    2.5554 H   0  0  0  0  0  0  0  0  0  0  0  0
   -1.4418    2.1052    3.0961 H   0  0  0  0  0  0  0  0  0  0  0  0
   -4.0739    6.7392    0.7489 H   0  0  0  0  0  0  0  0  0  0  0  0
   -2.4511    6.8720    0.8733 H   0  0  0  0  0  0  0  0  0  0  0  0
   -3.1409    6.6290   -0.5868 H   0  0  0  0  0  0  0  0  0  0  0  0
  1  2  1  0  0  0  0
  2  3  1  0  0  0  0
  3  4  1  0  0  0  0
  4  5  1  0  0  0  0
  5  6  2  0  0  0  0
  5  7  1  0  0  0  0
  3  8  2  0  0  0  0
  8  9  1  0  0  0  0
  9 10  2  0  0  0  0
 10 11  1  0  0  0  0
 11  2  2  0  0  0  0
  9 12  1  0  0  0  0
 12 13  2  0  0  0  0
 12 14  1  0  0  0  0
 14 15  1  0  0  0  0
 15 16  1  0  0  0  0
 16 17  1  0  0  0  0
 17 18  1  0  0  0  0
 18 19  1  0  0  0  0
 19 20  1  0  0  0  0
 20 21  1  0  0  0  0
 21 15  1  0  0  0  0
 18 22  1  0  0  0  0
  4 23  1  0  0  0  0
  7 24  1  0  0  0  0
  7 25  1  0  0  0  0
  7 26  1  0  0  0  0
  8 27  1  0  0  0  0
 10 28  1  0  0  0  0
 11 29  1  0  0  0  0
 14 30  1  0  0  0  0
 15 31  1  0  0  0  0
 16 32  1  0  0  0  0
 16 33  1  0  0  0  0
 17 34  1  0  0  0  0
 17 35  1  0  0  0  0
 18 36  1  0  0  0  0
 19 37  1  0  0  0  0
 19 38  1  0  0  0  0
 20 39  1  0  0  0  0
 20 40  1  0  0  0  0
 21 41  1  0  0  0  0
 21 42  1  0  0  0  0
 22 43  1  0  0  0  0
 22 44  1  0  0  0  0
 22 45  1  0  0  0  0
M  END
>  <result-rank>
48

>  <similarity>
0.949

>  <query-name>
LIG_A_1101_CCC[C@H]([R*])C1CCC1_2

>  <query-smiles>
O=C(N[C@H](C1CCC1)CCC)[C@@H](NC(=O)C)Cc2ccc(O)cc2

>  <source>
REALspace_2019-12

>  <similarity-descriptor>
1.000;0.867;1.000;1.000;1.000;1.000;1.000;1.000;0.867;1.000;1.000;1.000;0.867;0.0;0.0

>  <similarity-descriptor-smiles>
C1CCCCCC1;Fc1ccccc1;C=O;N;C1CCCCCC1;C1CCCCCC1;C1CCCCCC1;C;Fc1ccccc1;N;C=O;C;Fc1ccccc1;;

>  <reaction-name>
s_22

>  <reagent1-name>
9163312

>  <reagent1-smiles>
[R1*]NC1CCC(CCC1)C

>  <reagent2-name>
1291058

>  <reagent2-smiles>
[R1*]C(=O)c1cc(NC(=O)C)c(F)cc1

$$$$
s_22____9106718____14260948
          04022015093D 1   1.00000     0.00000     0
            
 70 71  0  0  0  0            999 V2000
    2.4284   -1.2362    5.5727 F   0  0  0  0  0  0  0  0  0  0  0  0
    2.9705   -0.5318    4.5839 C   0  0  0  0  0  0  0  0  0  0  0  0
    2.1661    0.2711    3.7828 C   0  0  0  0  0  0  0  0  0  0  0  0
    2.7548    1.0003    2.7548 C   0  0  0  0  0  0  0  0  0  0  0  0
    4.1249    0.9370    2.5216 C   0  0  0  0  0  0  0  0  0  0  0  0
    4.9192    0.1310    3.3306 C   0  0  0  0  0  0  0  0  0  0  0  0
    4.3418   -0.6042    4.3613 C   0  0  0  0  0  0  0  0  0  0  0  0
    1.8776    1.8776    1.8776 C   0  0  3  0  0  0  0  0  0  0  0  0
    1.0289    2.7263    2.7263 N   0  0  0  0  0  0  0  0  0  0  0  0
    1.1178    4.0905    2.6374 C   0  0  0  0  0  0  0  0  0  0  0  0
    0.4249    4.7833    3.3302 O   0  0  0  0  0  0  0  0  0  0  0  0
    1.9591    4.6386    1.7961 O   0  0  0  0  0  0  0  0  0  0  0  0
    2.0512    6.0527    1.7039 C   0  0  0  0  0  0  0  0  0  0  0  0
    3.0931    6.4257    0.6620 C   0  0  0  0  0  0  0  0  0  0  0  0
    0.7020    6.6229    1.2980 C   0  0  0  0  0  0  0  0  0  0  0  0
    2.4571    6.6229    3.0532 C   0  0  0  0  0  0  0  0  0  0  0  0
    1.0000    1.0000    1.0000 C   0  0  0  0  0  0  0  0  0  0  0  0
    1.8776    0.1224    0.1224 C   0  0  0  0  0  0  0  0  0  0  0  0
    3.0725    0.2003    0.2003 O   0  0  0  0  0  0  0  0  0  0  0  0
    1.3043   -0.7574   -0.7574 N   0  0  0  0  0  0  0  0  0  0  0  0
    2.1528   -1.6059   -1.6059 C   0  0  3  0  0  0  0  0  0  0  0  0
    1.8954   -1.3485   -3.0835 C   0  0  0  0  0  0  0  0  0  0  0  0
    0.6802   -2.0703   -3.6477 C   0  0  0  0  0  0  0  0  0  0  0  0
    1.0604   -3.4194   -4.2381 C   0  0  3  0  0  0  0  0  0  0  0  0
   -0.0962   -3.9048   -5.0958 C   0  0  0  0  0  0  0  0  0  0  0  0
   -1.3417   -4.0433   -4.2355 C   0  0  0  0  0  0  0  0  0  0  0  0
   -0.3576   -2.9026   -6.2082 C   0  0  0  0  0  0  0  0  0  0  0  0
    0.2537   -5.2543   -5.7015 C   0  0  0  0  0  0  0  0  0  0  0  0
    1.3476   -4.4930   -3.1972 C   0  0  0  0  0  0  0  0  0  0  0  0
    2.4198   -4.0798   -2.2036 C   0  0  0  0  0  0  0  0  0  0  0  0
    1.8851   -3.0535   -1.2154 C   0  0  0  0  0  0  0  0  0  0  0  0
    1.1805    0.3234    3.9430 H   0  0  0  0  0  0  0  0  0  0  0  0
    4.5351    1.4662    1.7789 H   0  0  0  0  0  0  0  0  0  0  0  0
    5.9051    0.0799    3.1714 H   0  0  0  0  0  0  0  0  0  0  0  0
    4.9127   -1.1845    4.9421 H   0  0  0  0  0  0  0  0  0  0  0  0
    2.4549    2.4549    1.3002 H   0  0  0  0  0  0  0  0  0  0  0  0
    0.3866    2.3078    3.3685 H   0  0  0  0  0  0  0  0  0  0  0  0
    3.1580    7.4215    0.5971 H   0  0  0  0  0  0  0  0  0  0  0  0
    3.9808    6.0505    0.9291 H   0  0  0  0  0  0  0  0  0  0  0  0
    2.8261    6.0505   -0.2256 H   0  0  0  0  0  0  0  0  0  0  0  0
    0.7668    7.6187    1.2332 H   0  0  0  0  0  0  0  0  0  0  0  0
    0.4349    6.2477    0.4104 H   0  0  0  0  0  0  0  0  0  0  0  0
    0.0165    6.3775    1.9835 H   0  0  0  0  0  0  0  0  0  0  0  0
    2.5220    7.6187    2.9883 H   0  0  0  0  0  0  0  0  0  0  0  0
    1.7716    6.3775    3.7387 H   0  0  0  0  0  0  0  0  0  0  0  0
    3.3448    6.2477    3.3202 H   0  0  0  0  0  0  0  0  0  0  0  0
    0.4226    0.4226    1.5774 H   0  0  0  0  0  0  0  0  0  0  0  0
    0.4226    1.5774    0.4226 H   0  0  0  0  0  0  0  0  0  0  0  0
    0.3085   -0.8223   -0.8223 H   0  0  0  0  0  0  0  0  0  0  0  0
    3.1104   -1.3956   -1.4089 H   0  0  0  0  0  0  0  0  0  0  0  0
    2.7008   -1.6446   -3.5970 H   0  0  0  0  0  0  0  0  0  0  0  0
    1.7618   -0.3657   -3.2107 H   0  0  0  0  0  0  0  0  0  0  0  0
    0.0162   -2.2120   -2.9135 H   0  0  0  0  0  0  0  0  0  0  0  0
    0.2700   -1.5057   -4.3639 H   0  0  0  0  0  0  0  0  0  0  0  0
    1.8677   -3.3044   -4.8170 H   0  0  0  0  0  0  0  0  0  0  0  0
   -2.1028   -4.3627   -4.8000 H   0  0  0  0  0  0  0  0  0  0  0  0
   -1.1697   -4.7026   -3.5037 H   0  0  0  0  0  0  0  0  0  0  0  0
   -1.5719   -3.1555   -3.8370 H   0  0  0  0  0  0  0  0  0  0  0  0
   -1.1188   -3.2221   -6.7727 H   0  0  0  0  0  0  0  0  0  0  0  0
   -0.5878   -2.0148   -5.8097 H   0  0  0  0  0  0  0  0  0  0  0  0
    0.4618   -2.8115   -6.7742 H   0  0  0  0  0  0  0  0  0  0  0  0
   -0.5074   -5.5738   -6.2660 H   0  0  0  0  0  0  0  0  0  0  0  0
    1.0731   -5.1632   -6.2675 H   0  0  0  0  0  0  0  0  0  0  0  0
    0.4257   -5.9137   -4.9697 H   0  0  0  0  0  0  0  0  0  0  0  0
    1.6510   -5.3213   -3.6682 H   0  0  0  0  0  0  0  0  0  0  0  0
    0.5041   -4.6848   -2.6953 H   0  0  0  0  0  0  0  0  0  0  0  0
    2.7278   -4.8875   -1.7009 H   0  0  0  0  0  0  0  0  0  0  0  0
    3.1908   -3.6828   -2.7015 H   0  0  0  0  0  0  0  0  0  0  0  0
    0.8960   -3.1790   -1.1385 H   0  0  0  0  0  0  0  0  0  0  0  0
    2.3126   -3.2221   -0.3273 H   0  0  0  0  0  0  0  0  0  0  0  0
  1  2  1  0  0  0  0
  2  3  1  0  0  0  0
  3  4  2  0  0  0  0
  4  5  1  0  0  0  0
  5  6  2  0  0  0  0
  6  7  1  0  0  0  0
  7  2  2  0  0  0  0
  4  8  1  0  0  0  0
  8  9  1  0  0  0  0
  9 10  1  0  0  0  0
 10 11  2  0  0  0  0
 10 12  1  0  0  0  0
 12 13  1  0  0  0  0
 13 14  1  0  0  0  0
 13 15  1  0  0  0  0
 13 16  1  0  0  0  0
  8 17  1  0  0  0  0
 17 18  1  0  0  0  0
 18 19  2  0  0  0  0
 18 20  1  0  0  0  0
 20 21  1  0  0  0  0
 21 22  1  0  0  0  0
 22 23  1  0  0  0  0
 23 24  1  0  0  0  0
 24 25  1  0  0  0  0
 25 26  1  0  0  0  0
 25 27  1  0  0  0  0
 25 28  1  0  0  0  0
 24 29  1  0  0  0  0
 29 30  1  0  0  0  0
 30 31  1  0  0  0  0
 31 21  1  0  0  0  0
  3 32  1  0  0  0  0
  5 33  1  0  0  0  0
  6 34  1  0  0  0  0
  7 35  1  0  0  0  0
  8 36  1  0  0  0  0
  9 37  1  0  0  0  0
 14 38  1  0  0  0  0
 14 39  1  0  0  0  0
 14 40  1  0  0  0  0
 15 41  1  0  0  0  0
 15 42  1  0  0  0  0
 15 43  1  0  0  0  0
 16 44  1  0  0  0  0
 16 45  1  0  0  0  0
 16 46  1  0  0  0  0
 17 47  1  0  0  0  0
 17 48  1  0  0  0  0
 20 49  1  0  0  0  0
 21 50  1  0  0  0  0
 22 51  1  0  0  0  0
 22 52  1  0  0  0  0
 23 53  1  0  0  0  0
 23 54  1  0  0  0  0
 24 55  1  0  0  0  0
 26 56  1  0  0  0  0
 26 57  1  0  0  0  0
 26 58  1  0  0  0  0
 27 59  1  0  0  0  0
 27 60  1  0  0  0  0
 27 61  1  0  0  0  0
 28 62  1  0  0  0  0
 28 63  1  0  0  0  0
 28 64  1  0  0  0  0
 29 65  1  0  0  0  0
 29 66  1  0  0  0  0
 30 67  1  0  0  0  0
 30 68  1  0  0  0  0
 31 69  1  0  0  0  0
 31 70  1  0  0  0  0
M  END
>  <result-rank>
49

>  <similarity>
0.949

>  <query-name>
LIG_A_1101_CCC[C@H]([R*])C1CCC1_2

>  <query-smiles>
O=C(N[C@H](C1CCC1)CCC)[C@@H](NC(=O)C)Cc2ccc(O)cc2

>  <source>
REALspace_2019-12

>  <similarity-descriptor>
1.000;0.983;1.000;1.000;1.000;1.000;1.000;0.975;1.000;1.000;0.851;0.971;1.000;0.0;0.235

>  <similarity-descriptor-smiles>
C1CCCCCC1;Fc1ccccc1;C=O;N;C1CCCCCC1;C1CCCCCC1;C1CCCCCC1;CC;CC;N;C(=O)O;CC;CC;;C.C.C.C

>  <reaction-name>
s_22

>  <reagent1-name>
9106718

>  <reagent1-smiles>
[R1*]NC1CCC(C(C)(C)C)CCC1

>  <reagent2-name>
14260948

>  <reagent2-smiles>
[R1*]C(=O)CC(NC(=O)OC(C)(C)C)c1cc(F)ccc1

$$$$
s_2708____9163340____861764
          04022015093D 1   1.00000     0.00000     0
            
 49 50  0  0  0  0            999 V2000
    9.2226   -1.6511    1.4790 F   0  0  0  0  0  0  0  0  0  0  0  0
    8.7814   -0.4157    1.2597 C   0  0  0  0  0  0  0  0  0  0  0  0
    9.2257    0.0111    0.0810 F   0  0  0  0  0  0  0  0  0  0  0  0
    9.2259    0.3906    2.2195 F   0  0  0  0  0  0  0  0  0  0  0  0
    7.2613   -0.4133    1.2589 C   0  0  0  0  0  0  0  0  0  0  0  0
    6.5716   -0.2012    2.4483 C   0  0  0  0  0  0  0  0  0  0  0  0
    5.1809   -0.2009    2.4421 C   0  0  0  0  0  0  0  0  0  0  0  0
    4.4970   -0.4113    1.2488 C   0  0  0  0  0  0  0  0  0  0  0  0
    5.1877   -0.6210    0.0592 C   0  0  0  0  0  0  0  0  0  0  0  0
    6.5787   -0.6227    0.0656 C   0  0  0  0  0  0  0  0  0  0  0  0
    2.9767   -0.4113    1.2488 C   0  0  0  0  0  0  0  0  0  0  0  0
    2.4700    1.0000    1.0000 C   0  0  0  0  0  0  0  0  0  0  0  0
    1.0000    1.0000    1.0000 N   0  0  0  0  0  0  0  0  0  0  0  0
    0.3150    1.0000    2.1865 C   0  0  0  0  0  0  0  0  0  0  0  0
    0.9150    1.0000    3.2257 O   0  0  0  0  0  0  0  0  0  0  0  0
   -1.0550    1.0000    2.1865 N   0  0  0  0  0  0  0  0  0  0  0  0
   -1.7899    1.0000    3.4594 C   0  0  3  0  0  0  0  0  0  0  0  0
   -2.6844   -0.2255    3.5936 C   0  0  0  0  0  0  0  0  0  0  0  0
   -3.9814   -0.1592    2.7949 C   0  0  0  0  0  0  0  0  0  0  0  0
   -5.0986    0.3326    3.6996 C   0  0  3  0  0  0  0  0  0  0  0  0
   -5.0399    1.8295    3.9819 C   0  0  0  0  0  0  0  0  0  0  0  0
   -3.7081    2.2728    4.5731 C   0  0  0  0  0  0  0  0  0  0  0  0
   -2.5955    2.2966    3.5349 C   0  0  0  0  0  0  0  0  0  0  0  0
   -6.4298    0.0337    3.0288 C   0  0  0  0  0  0  0  0  0  0  0  0
    7.0718   -0.0501    3.3009 H   0  0  0  0  0  0  0  0  0  0  0  0
    4.6748   -0.0502    3.2913 H   0  0  0  0  0  0  0  0  0  0  0  0
    4.6878   -0.7694   -0.7940 H   0  0  0  0  0  0  0  0  0  0  0  0
    7.0851   -0.7738   -0.7834 H   0  0  0  0  0  0  0  0  0  0  0  0
    2.6433   -0.7338    2.1348 H   0  0  0  0  0  0  0  0  0  0  0  0
    2.6433   -1.0173    0.5266 H   0  0  0  0  0  0  0  0  0  0  0  0
    2.8033    1.6060    1.7222 H   0  0  0  0  0  0  0  0  0  0  0  0
    2.8033    1.3225    0.1140 H   0  0  0  0  0  0  0  0  0  0  0  0
    0.5000    1.0000    0.1340 H   0  0  0  0  0  0  0  0  0  0  0  0
   -1.5550    1.0000    1.3204 H   0  0  0  0  0  0  0  0  0  0  0  0
   -1.1276    0.9934    4.2086 H   0  0  0  0  0  0  0  0  0  0  0  0
   -2.9188   -0.3355    4.5595 H   0  0  0  0  0  0  0  0  0  0  0  0
   -2.1679   -1.0234    3.2829 H   0  0  0  0  0  0  0  0  0  0  0  0
   -3.8699    0.4720    2.0273 H   0  0  0  0  0  0  0  0  0  0  0  0
   -4.2077   -1.0693    2.4480 H   0  0  0  0  0  0  0  0  0  0  0  0
   -5.0547   -0.1627    4.5672 H   0  0  0  0  0  0  0  0  0  0  0  0
   -5.7676    2.0606    4.6277 H   0  0  0  0  0  0  0  0  0  0  0  0
   -5.1870    2.3214    3.1238 H   0  0  0  0  0  0  0  0  0  0  0  0
   -3.8144    3.1922    4.9519 H   0  0  0  0  0  0  0  0  0  0  0  0
   -3.4533    1.6389    5.3032 H   0  0  0  0  0  0  0  0  0  0  0  0
   -3.0052    2.4653    2.6384 H   0  0  0  0  0  0  0  0  0  0  0  0
   -1.9699    3.0432    3.7613 H   0  0  0  0  0  0  0  0  0  0  0  0
   -7.1763    0.3521    3.6130 H   0  0  0  0  0  0  0  0  0  0  0  0
   -6.4721    0.5045    2.1476 H   0  0  0  0  0  0  0  0  0  0  0  0
   -6.5165   -0.9520    2.8846 H   0  0  0  0  0  0  0  0  0  0  0  0
  1  2  1  0  0  0  0
  2  3  1  0  0  0  0
  2  4  1  0  0  0  0
  2  5  1  0  0  0  0
  5  6  1  0  0  0  0
  6  7  2  0  0  0  0
  7  8  1  0  0  0  0
  8  9  2  0  0  0  0
  9 10  1  0  0  0  0
 10  5  2  0  0  0  0
  8 11  1  0  0  0  0
 11 12  1  0  0  0  0
 12 13  1  0  0  0  0
 13 14  1  0  0  0  0
 14 15  2  0  0  0  0
 14 16  1  0  0  0  0
 16 17  1  0  0  0  0
 17 18  1  0  0  0  0
 18 19  1  0  0  0  0
 19 20  1  0  0  0  0
 20 21  1  0  0  0  0
 21 22  1  0  0  0  0
 22 23  1  0  0  0  0
 23 17  1  0  0  0  0
 20 24  1  0  0  0  0
  6 25  1  0  0  0  0
  7 26  1  0  0  0  0
  9 27  1  0  0  0  0
 10 28  1  0  0  0  0
 11 29  1  0  0  0  0
 11 30  1  0  0  0  0
 12 31  1  0  0  0  0
 12 32  1  0  0  0  0
 13 33  1  0  0  0  0
 16 34  1  0  0  0  0
 17 35  1  0  0  0  0
 18 36  1  0  0  0  0
 18 37  1  0  0  0  0
 19 38  1  0  0  0  0
 19 39  1  0  0  0  0
 20 40  1  0  0  0  0
 21 41  1  0  0  0  0
 21 42  1  0  0  0  0
 22 43  1  0  0  0  0
 22 44  1  0  0  0  0
 23 45  1  0  0  0  0
 23 46  1  0  0  0  0
 24 47  1  0  0  0  0
 24 48  1  0  0  0  0
 24 49  1  0  0  0  0
M  END
>  <result-rank>
50

>  <similarity>
0.949

>  <query-name>
LIG_A_1101_CCC[C@H]([R*])C1CCC1_2

>  <query-smiles>
O=C(N[C@H](C1CCC1)CCC)[C@@H](NC(=O)C)Cc2ccc(O)cc2

>  <source>
REALspace_2019-12

>  <similarity-descriptor>
1.000;0.944;0.995;1.000;1.000;1.000;1.000;1.000;0.952;0.952;0.0;0.0;1.000;0.0;0.0

>  <similarity-descriptor-smiles>
C1CCCCCC1;FC(F)(F)c1ccccc1;C=O;N;C1CCCCCC1;C1CCCCCC1;C1CCCCCC1;C;CN;CN;;;C;;

>  <reaction-name>
s_2708

>  <reagent1-name>
9163340

>  <reagent1-smiles>
[R1*]C(=O)NC1CCC(CCC1)C

>  <reagent2-name>
861764

>  <reagent2-smiles>
[R1*]NCCc1ccc(cc1)C(F)(F)F

$$$$
s_2708____6465958____17608306
          04022015093D 1   1.00000     0.00000     0
            
 54 56  0  0  0  0            999 V2000
    3.4716    0.3240    1.8978 O   0  0  0  0  0  0  0  0  0  0  0  0
    3.0831    1.4052    2.2442 C   0  0  0  0  0  0  0  0  0  0  0  0
    1.8487    1.8487    1.8487 N   0  0  0  0  0  0  0  0  0  0  0  0
    1.0000    1.0000    1.0000 C   0  0  3  0  0  0  0  0  0  0  0  0
    0.7075    1.7208   -0.3059 C   0  0  0  0  0  0  0  0  0  0  0  0
   -0.1124    0.9010   -1.1257 O   0  0  0  0  0  0  0  0  0  0  0  0
   -0.3856    1.5744   -2.3456 C   0  0  0  0  0  0  0  0  0  0  0  0
   -0.3059    0.7075    1.7208 C   0  0  0  0  0  0  0  0  0  0  0  0
   -0.0133   -0.0135    3.0269 C   0  0  0  0  0  0  0  0  0  0  0  0
    0.1956    0.7227    4.1885 C   0  0  0  0  0  0  0  0  0  0  0  0
    0.4639    0.0591    5.3813 C   0  0  0  0  0  0  0  0  0  0  0  0
    0.5203   -1.3305    5.4067 C   0  0  0  0  0  0  0  0  0  0  0  0
    0.3095   -2.0555    4.2404 C   0  0  0  0  0  0  0  0  0  0  0  0
    0.0410   -1.4036    3.0412 C   0  0  0  0  0  0  0  0  0  0  0  0
    3.8741    2.1962    3.0352 N   0  0  0  0  0  0  0  0  0  0  0  0
    5.1995    1.7201    3.4598 C   0  0  3  0  0  0  0  0  0  0  0  0
    6.2442    2.6973    2.9342 C   0  0  0  0  0  0  0  0  0  0  0  0
    7.6158    2.6054    3.5957 C   0  0  0  0  0  0  0  0  0  0  0  0
    7.7580    3.3989    4.8937 C   0  0  0  0  0  0  0  0  0  0  0  0
    9.1332    3.9108    5.2043 C   0  0  0  0  0  0  0  0  0  0  0  0
    8.1215    4.8138    4.5523 C   0  0  0  0  0  0  0  0  0  0  0  0
    6.8615    3.1499    6.1000 C   0  0  0  0  0  0  0  0  0  0  0  0
    5.4148    2.8531    5.7380 C   0  0  0  0  0  0  0  0  0  0  0  0
    5.2764    1.5452    4.9699 C   0  0  0  0  0  0  0  0  0  0  0  0
    1.5250    2.7498    2.1374 H   0  0  0  0  0  0  0  0  0  0  0  0
    1.4742    0.1409    0.8075 H   0  0  0  0  0  0  0  0  0  0  0  0
    0.2333    2.5799   -0.1134 H   0  0  0  0  0  0  0  0  0  0  0  0
    1.5666    1.9133   -0.7801 H   0  0  0  0  0  0  0  0  0  0  0  0
   -0.9630    0.9970   -2.9230 H   0  0  0  0  0  0  0  0  0  0  0  0
   -0.8599    2.4335   -2.1532 H   0  0  0  0  0  0  0  0  0  0  0  0
    0.4735    1.7668   -2.8199 H   0  0  0  0  0  0  0  0  0  0  0  0
   -0.7801    1.5666    1.9133 H   0  0  0  0  0  0  0  0  0  0  0  0
   -0.8832    0.1301    1.1435 H   0  0  0  0  0  0  0  0  0  0  0  0
    0.1533    1.7216    4.1663 H   0  0  0  0  0  0  0  0  0  0  0  0
    0.6162    0.5811    6.2206 H   0  0  0  0  0  0  0  0  0  0  0  0
    0.7125   -1.8076    6.2643 H   0  0  0  0  0  0  0  0  0  0  0  0
    0.3511   -3.0544    4.2632 H   0  0  0  0  0  0  0  0  0  0  0  0
   -0.1106   -1.9262    2.2022 H   0  0  0  0  0  0  0  0  0  0  0  0
    3.5504    3.0973    3.3238 H   0  0  0  0  0  0  0  0  0  0  0  0
    5.3625    0.8301    3.0339 H   0  0  0  0  0  0  0  0  0  0  0  0
    5.8964    3.6247    3.0721 H   0  0  0  0  0  0  0  0  0  0  0  0
    6.3613    2.5274    1.9557 H   0  0  0  0  0  0  0  0  0  0  0  0
    7.7994    1.6434    3.7979 H   0  0  0  0  0  0  0  0  0  0  0  0
    8.2969    2.9456    2.9473 H   0  0  0  0  0  0  0  0  0  0  0  0
    9.9196    3.5811    4.6819 H   0  0  0  0  0  0  0  0  0  0  0  0
    9.4059    4.0681    6.1535 H   0  0  0  0  0  0  0  0  0  0  0  0
    7.7214    5.5714    5.0679 H   0  0  0  0  0  0  0  0  0  0  0  0
    8.2351    5.0844    3.5963 H   0  0  0  0  0  0  0  0  0  0  0  0
    6.8806    3.9640    6.6805 H   0  0  0  0  0  0  0  0  0  0  0  0
    7.2259    2.3695    6.6081 H   0  0  0  0  0  0  0  0  0  0  0  0
    5.0640    3.5989    5.1717 H   0  0  0  0  0  0  0  0  0  0  0  0
    4.8774    2.7920    6.5791 H   0  0  0  0  0  0  0  0  0  0  0  0
    6.0680    0.9716    5.1802 H   0  0  0  0  0  0  0  0  0  0  0  0
    4.4420    1.0872    5.2764 H   0  0  0  0  0  0  0  0  0  0  0  0
  1  2  2  0  0  0  0
  2  3  1  0  0  0  0
  3  4  1  0  0  0  0
  4  5  1  0  0  0  0
  5  6  1  0  0  0  0
  6  7  1  0  0  0  0
  4  8  1  0  0  0  0
  8  9  1  0  0  0  0
  9 10  1  0  0  0  0
 10 11  2  0  0  0  0
 11 12  1  0  0  0  0
 12 13  2  0  0  0  0
 13 14  1  0  0  0  0
 14  9  2  0  0  0  0
  2 15  1  0  0  0  0
 15 16  1  0  0  0  0
 16 17  1  0  0  0  0
 17 18  1  0  0  0  0
 18 19  1  0  0  0  0
 19 20  1  0  0  0  0
 20 21  1  0  0  0  0
 21 19  1  0  0  0  0
 19 22  1  0  0  0  0
 22 23  1  0  0  0  0
 23 24  1  0  0  0  0
 24 16  1  0  0  0  0
  3 25  1  0  0  0  0
  4 26  1  0  0  0  0
  5 27  1  0  0  0  0
  5 28  1  0  0  0  0
  7 29  1  0  0  0  0
  7 30  1  0  0  0  0
  7 31  1  0  0  0  0
  8 32  1  0  0  0  0
  8 33  1  0  0  0  0
 10 34  1  0  0  0  0
 11 35  1  0  0  0  0
 12 36  1  0  0  0  0
 13 37  1  0  0  0  0
 14 38  1  0  0  0  0
 15 39  1  0  0  0  0
 16 40  1  0  0  0  0
 17 41  1  0  0  0  0
 17 42  1  0  0  0  0
 18 43  1  0  0  0  0
 18 44  1  0  0  0  0
 20 45  1  0  0  0  0
 20 46  1  0  0  0  0
 21 47  1  0  0  0  0
 21 48  1  0  0  0  0
 22 49  1  0  0  0  0
 22 50  1  0  0  0  0
 23 51  1  0  0  0  0
 23 52  1  0  0  0  0
 24 53  1  0  0  0  0
 24 54  1  0  0  0  0
M  END
>  <result-rank>
51

>  <similarity>
0.949

>  <query-name>
LIG_A_1101_CCC[C@H]([R*])C1CCC1_2

>  <query-smiles>
O=C(N[C@H](C1CCC1)CCC)[C@@H](NC(=O)C)Cc2ccc(O)cc2

>  <source>
REALspace_2019-12

>  <similarity-descriptor>
0.986;0.960;0.995;1.000;0.986;0.986;0.888;0.888;0.999;0.999;0.770;0.994;1.000;0.0;0.0

>  <similarity-descriptor-smiles>
C1CCCCCC1;c1ccccc1;O=C;N;C1CCCCCC1;C1CCCCCC1;C1CC1;C1CC1;NC;NC;CO;C;C;;

>  <reaction-name>
s_2708

>  <reagent1-name>
6465958

>  <reagent1-smiles>
[R1*]C(=O)NC(COC)Cc1ccccc1

>  <reagent2-name>
17608306

>  <reagent2-smiles>
[R1*]NC1CCC2(CC2)CCC1

$$$$
s_22____9141774____17513450
          04022015093D 1   1.00000     0.00000     0
            
 56 58  0  0  0  0            999 V2000
    0.4000    1.0000   -0.0392 O   0  0  0  0  0  0  0  0  0  0  0  0
    1.0000    1.0000    1.0000 C   0  0  0  0  0  0  0  0  0  0  0  0
    0.3150    1.0000    2.1865 N   0  0  0  0  0  0  0  0  0  0  0  0
   -1.1561    1.0000    2.1865 C   0  0  3  0  0  0  0  0  0  0  0  0
   -1.6526    0.2854    3.4257 C   0  0  0  0  0  0  0  0  0  0  0  0
   -2.9132    1.0575    3.7785 C   0  0  3  0  0  0  0  0  0  0  0  0
   -3.2927    0.8037    5.2279 C   0  0  0  0  0  0  0  0  0  0  0  0
   -4.6488    1.4286    5.5136 C   0  0  0  0  0  0  0  0  0  0  0  0
   -5.8035    0.8175    5.0359 C   0  0  0  0  0  0  0  0  0  0  0  0
   -7.0423    1.3931    5.2989 C   0  0  0  0  0  0  0  0  0  0  0  0
   -7.1199    2.5703    6.0357 C   0  0  0  0  0  0  0  0  0  0  0  0
   -5.9599    3.1716    6.5083 C   0  0  0  0  0  0  0  0  0  0  0  0
   -4.7151    2.6063    6.2515 C   0  0  0  0  0  0  0  0  0  0  0  0
   -2.4570    2.4831    3.5774 C   0  0  0  0  0  0  0  0  0  0  0  0
   -1.7067    2.4152    2.2641 C   0  0  0  0  0  0  0  0  0  0  0  0
    2.5200    1.0000    1.0000 C   0  0  3  0  0  0  0  0  0  0  0  0
    3.0100    1.0000   -0.3859 N   0  0  0  0  0  0  0  0  0  0  0  0
    3.7976    2.0275   -0.8340 C   0  0  0  0  0  0  0  0  0  0  0  0
    4.0875    2.9275   -0.0951 O   0  0  0  0  0  0  0  0  0  0  0  0
    4.3043    2.0275   -2.2671 C   0  0  0  0  0  0  0  0  0  0  0  0
    3.0267   -0.2411    1.7165 C   0  0  0  0  0  0  0  0  0  0  0  0
    4.5467   -0.2411    1.7165 C   0  0  0  0  0  0  0  0  0  0  0  0
    5.2311    0.3644    2.7653 C   0  0  0  0  0  0  0  0  0  0  0  0
    6.6219    0.3662    2.7699 C   0  0  0  0  0  0  0  0  0  0  0  0
    7.3116   -0.2391    1.7241 C   0  0  0  0  0  0  0  0  0  0  0  0
    8.6614   -0.2393    1.7244 O   0  0  0  0  0  0  0  0  0  0  0  0
    6.6320   -0.8457    0.6727 C   0  0  0  0  0  0  0  0  0  0  0  0
    5.2412   -0.8449    0.6734 C   0  0  0  0  0  0  0  0  0  0  0  0
    0.8150    1.0000    3.0525 H   0  0  0  0  0  0  0  0  0  0  0  0
   -1.4993    0.5428    1.3660 H   0  0  0  0  0  0  0  0  0  0  0  0
   -0.9804    0.3365    4.1644 H   0  0  0  0  0  0  0  0  0  0  0  0
   -1.8603   -0.6730    3.2298 H   0  0  0  0  0  0  0  0  0  0  0  0
   -3.6649    0.8266    3.1608 H   0  0  0  0  0  0  0  0  0  0  0  0
   -3.3382   -0.1816    5.3929 H   0  0  0  0  0  0  0  0  0  0  0  0
   -2.6048    1.2108    5.8288 H   0  0  0  0  0  0  0  0  0  0  0  0
   -5.7435   -0.0293    4.5074 H   0  0  0  0  0  0  0  0  0  0  0  0
   -7.8771    0.9606    4.9582 H   0  0  0  0  0  0  0  0  0  0  0  0
   -8.0105    2.9838    6.2253 H   0  0  0  0  0  0  0  0  0  0  0  0
   -6.0204    4.0180    7.0374 H   0  0  0  0  0  0  0  0  0  0  0  0
   -3.8807    3.0397    6.5920 H   0  0  0  0  0  0  0  0  0  0  0  0
   -1.8557    2.7767    4.3205 H   0  0  0  0  0  0  0  0  0  0  0  0
   -3.2373    3.1052    3.5143 H   0  0  0  0  0  0  0  0  0  0  0  0
   -2.3250    2.5926    1.4984 H   0  0  0  0  0  0  0  0  0  0  0  0
   -0.9614    3.0818    2.2521 H   0  0  0  0  0  0  0  0  0  0  0  0
    2.8533    1.8165    1.4714 H   0  0  0  0  0  0  0  0  0  0  0  0
    2.7684    0.2500   -1.0017 H   0  0  0  0  0  0  0  0  0  0  0  0
    3.9710    1.2110   -2.7385 H   0  0  0  0  0  0  0  0  0  0  0  0
    3.9710    2.8440   -2.7385 H   0  0  0  0  0  0  0  0  0  0  0  0
    5.3043    2.0275   -2.2671 H   0  0  0  0  0  0  0  0  0  0  0  0
    2.6933   -0.2411    2.6593 H   0  0  0  0  0  0  0  0  0  0  0  0
    2.6933   -1.0576    1.2451 H   0  0  0  0  0  0  0  0  0  0  0  0
    4.7256    0.7963    3.5122 H   0  0  0  0  0  0  0  0  0  0  0  0
    7.1226    0.7993    3.5194 H   0  0  0  0  0  0  0  0  0  0  0  0
    9.1615   -0.6731    0.9749 H   0  0  0  0  0  0  0  0  0  0  0  0
    7.1374   -1.2771   -0.0746 H   0  0  0  0  0  0  0  0  0  0  0  0
    4.7405   -1.2783   -0.0759 H   0  0  0  0  0  0  0  0  0  0  0  0
  1  2  2  0  0  0  0
  2  3  1  0  0  0  0
  3  4  1  0  0  0  0
  4  5  1  0  0  0  0
  5  6  1  0  0  0  0
  6  7  1  0  0  0  0
  7  8  1  0  0  0  0
  8  9  1  0  0  0  0
  9 10  2  0  0  0  0
 10 11  1  0  0  0  0
 11 12  2  0  0  0  0
 12 13  1  0  0  0  0
 13  8  2  0  0  0  0
  6 14  1  0  0  0  0
 14 15  1  0  0  0  0
 15  4  1  0  0  0  0
  2 16  1  0  0  0  0
 16 17  1  0  0  0  0
 17 18  1  0  0  0  0
 18 19  2  0  0  0  0
 18 20  1  0  0  0  0
 16 21  1  0  0  0  0
 21 22  1  0  0  0  0
 22 23  1  0  0  0  0
 23 24  2  0  0  0  0
 24 25  1  0  0  0  0
 25 26  1  0  0  0  0
 25 27  2  0  0  0  0
 27 28  1  0  0  0  0
 28 22  2  0  0  0  0
  3 29  1  0  0  0  0
  4 30  1  0  0  0  0
  5 31  1  0  0  0  0
  5 32  1  0  0  0  0
  6 33  1  0  0  0  0
  7 34  1  0  0  0  0
  7 35  1  0  0  0  0
  9 36  1  0  0  0  0
 10 37  1  0  0  0  0
 11 38  1  0  0  0  0
 12 39  1  0  0  0  0
 13 40  1  0  0  0  0
 14 41  1  0  0  0  0
 14 42  1  0  0  0  0
 15 43  1  0  0  0  0
 15 44  1  0  0  0  0
 16 45  1  0  0  0  0
 17 46  1  0  0  0  0
 20 47  1  0  0  0  0
 20 48  1  0  0  0  0
 20 49  1  0  0  0  0
 21 50  1  0  0  0  0
 21 51  1  0  0  0  0
 23 52  1  0  0  0  0
 24 53  1  0  0  0  0
 26 54  1  0  0  0  0
 27 55  1  0  0  0  0
 28 56  1  0  0  0  0
M  END
>  <result-rank>
52

>  <similarity>
0.948

>  <query-name>
LIG_A_1101_CCC[C@H]([R*])C1CCC1_2

>  <query-smiles>
O=C(N[C@H](C1CCC1)CCC)[C@@H](NC(=O)C)Cc2ccc(O)cc2

>  <source>
REALspace_2019-12

>  <similarity-descriptor>
1.000;1.000;1.000;1.000;1.000;1.000;0.0;0.0;1.000;1.000;1.000;1.000;1.000;1.000;0.083

>  <similarity-descriptor-smiles>
C1CCCC1;c1ccccc1;O=C;N;C1CCCC1;C;;;C;N;C=O;C;C;O;c1ccccc1

>  <reaction-name>
s_22

>  <reagent1-name>
9141774

>  <reagent1-smiles>
[R1*]NC1CC(Cc2ccccc2)CC1

>  <reagent2-name>
17513450

>  <reagent2-smiles>
[R1*]C(=O)C(NC(=O)C)Cc1ccc(O)cc1

$$$$
s_22____14524286____219891
          04022015093D 1   1.00000     0.00000     0
            
 54 55  0  0  0  0            999 V2000
    3.8076    2.2502   -2.3506 O   0  0  0  0  0  0  0  0  0  0  0  0
    4.6793    1.9120   -1.5984 C   0  0  0  0  0  0  0  0  0  0  0  0
    4.3972    1.0643   -0.5598 N   0  0  0  0  0  0  0  0  0  0  0  0
    3.0267    0.5691   -0.3667 C   0  0  3  0  0  0  0  0  0  0  0  0
    3.0192   -0.9487   -0.4546 C   0  0  0  0  0  0  0  0  0  0  0  0
    3.7378   -1.6961    0.4728 C   0  0  0  0  0  0  0  0  0  0  0  0
    3.7289   -3.0846    0.3883 C   0  0  0  0  0  0  0  0  0  0  0  0
    3.0041   -3.7156   -0.6172 C   0  0  0  0  0  0  0  0  0  0  0  0
    2.2896   -2.9588   -1.5378 C   0  0  0  0  0  0  0  0  0  0  0  0
    2.2910   -1.5698   -1.4644 C   0  0  0  0  0  0  0  0  0  0  0  0
    2.5200    1.0000    1.0000 C   0  0  0  0  0  0  0  0  0  0  0  0
    1.0000    1.0000    1.0000 C   0  0  0  0  0  0  0  0  0  0  0  0
    0.4000    1.0000   -0.0392 O   0  0  0  0  0  0  0  0  0  0  0  0
    0.3150    1.0000    2.1865 N   0  0  0  0  0  0  0  0  0  0  0  0
   -1.1542    1.0000    2.1865 C   0  0  3  0  0  0  0  0  0  0  0  0
   -1.6622    2.2414    2.9032 C   0  0  0  0  0  0  0  0  0  0  0  0
   -3.1791    2.2217    3.0054 C   0  0  0  0  0  0  0  0  0  0  0  0
   -3.6913    0.9615    3.6882 C   0  0  3  0  0  0  0  0  0  0  0  0
   -5.1102    0.9740    3.6889 O   0  0  0  0  0  0  0  0  0  0  0  0
   -3.2525    0.8984    5.1439 C   0  0  0  0  0  0  0  0  0  0  0  0
   -3.9480    1.9973    5.9308 C   0  0  0  0  0  0  0  0  0  0  0  0
   -3.6243   -0.4552    5.7269 C   0  0  0  0  0  0  0  0  0  0  0  0
   -3.1963   -0.2426    2.9018 C   0  0  0  0  0  0  0  0  0  0  0  0
   -1.6793   -0.2921    2.7910 C   0  0  0  0  0  0  0  0  0  0  0  0
    5.9566    2.3735   -1.7783 N   0  0  0  0  0  0  0  0  0  0  0  0
    5.1236    0.7825    0.0671 H   0  0  0  0  0  0  0  0  0  0  0  0
    2.4326    0.9470   -1.0768 H   0  0  0  0  0  0  0  0  0  0  0  0
    4.2568   -1.2387    1.1948 H   0  0  0  0  0  0  0  0  0  0  0  0
    4.2437   -3.6291    1.0506 H   0  0  0  0  0  0  0  0  0  0  0  0
    2.9972   -4.7138   -0.6776 H   0  0  0  0  0  0  0  0  0  0  0  0
    1.7700   -3.4167   -2.2591 H   0  0  0  0  0  0  0  0  0  0  0  0
    1.7765   -1.0259   -2.1273 H   0  0  0  0  0  0  0  0  0  0  0  0
    2.8533    0.3630    1.6951 H   0  0  0  0  0  0  0  0  0  0  0  0
    2.8533    1.9205    1.2041 H   0  0  0  0  0  0  0  0  0  0  0  0
    0.8150    1.0000    3.0525 H   0  0  0  0  0  0  0  0  0  0  0  0
   -1.4629    1.0441    1.2363 H   0  0  0  0  0  0  0  0  0  0  0  0
   -1.3782    3.0537    2.3936 H   0  0  0  0  0  0  0  0  0  0  0  0
   -1.2717    2.2718    3.8233 H   0  0  0  0  0  0  0  0  0  0  0  0
   -3.4770    3.0176    3.5325 H   0  0  0  0  0  0  0  0  0  0  0  0
   -3.5649    2.2687    2.0841 H   0  0  0  0  0  0  0  0  0  0  0  0
   -5.4436    1.0152    2.7471 H   0  0  0  0  0  0  0  0  0  0  0  0
   -2.2621    1.0246    5.1992 H   0  0  0  0  0  0  0  0  0  0  0  0
   -3.6597    1.9558    6.8874 H   0  0  0  0  0  0  0  0  0  0  0  0
   -3.7035    2.8878    5.5472 H   0  0  0  0  0  0  0  0  0  0  0  0
   -4.9385    1.8711    5.8754 H   0  0  0  0  0  0  0  0  0  0  0  0
   -3.3359   -0.4967    6.6835 H   0  0  0  0  0  0  0  0  0  0  0  0
   -4.6147   -0.5814    5.6715 H   0  0  0  0  0  0  0  0  0  0  0  0
   -3.1667   -1.1782    5.2092 H   0  0  0  0  0  0  0  0  0  0  0  0
   -3.5828   -0.2032    1.9804 H   0  0  0  0  0  0  0  0  0  0  0  0
   -3.5104   -1.0743    3.3598 H   0  0  0  0  0  0  0  0  0  0  0  0
   -1.2854   -0.4144    3.7020 H   0  0  0  0  0  0  0  0  0  0  0  0
   -1.4157   -1.0605    2.2079 H   0  0  0  0  0  0  0  0  0  0  0  0
    6.6830    2.0917   -1.1515 H   0  0  0  0  0  0  0  0  0  0  0  0
    6.1626    2.9923   -2.5364 H   0  0  0  0  0  0  0  0  0  0  0  0
  1  2  2  0  0  0  0
  2  3  1  0  0  0  0
  3  4  1  0  0  0  0
  4  5  1  0  0  0  0
  5  6  1  0  0  0  0
  6  7  2  0  0  0  0
  7  8  1  0  0  0  0
  8  9  2  0  0  0  0
  9 10  1  0  0  0  0
 10  5  2  0  0  0  0
  4 11  1  0  0  0  0
 11 12  1  0  0  0  0
 12 13  2  0  0  0  0
 12 14  1  0  0  0  0
 14 15  1  0  0  0  0
 15 16  1  0  0  0  0
 16 17  1  0  0  0  0
 17 18  1  0  0  0  0
 18 19  1  0  0  0  0
 18 20  1  0  0  0  0
 20 21  1  0  0  0  0
 20 22  1  0  0  0  0
 18 23  1  0  0  0  0
 23 24  1  0  0  0  0
 24 15  1  0  0  0  0
  2 25  1  0  0  0  0
  3 26  1  0  0  0  0
  4 27  1  0  0  0  0
  6 28  1  0  0  0  0
  7 29  1  0  0  0  0
  8 30  1  0  0  0  0
  9 31  1  0  0  0  0
 10 32  1  0  0  0  0
 11 33  1  0  0  0  0
 11 34  1  0  0  0  0
 14 35  1  0  0  0  0
 15 36  1  0  0  0  0
 16 37  1  0  0  0  0
 16 38  1  0  0  0  0
 17 39  1  0  0  0  0
 17 40  1  0  0  0  0
 19 41  1  0  0  0  0
 20 42  1  0  0  0  0
 21 43  1  0  0  0  0
 21 44  1  0  0  0  0
 21 45  1  0  0  0  0
 22 46  1  0  0  0  0
 22 47  1  0  0  0  0
 22 48  1  0  0  0  0
 23 49  1  0  0  0  0
 23 50  1  0  0  0  0
 24 51  1  0  0  0  0
 24 52  1  0  0  0  0
 25 53  1  0  0  0  0
 25 54  1  0  0  0  0
M  END
>  <result-rank>
53

>  <similarity>
0.948

>  <query-name>
LIG_A_1101_CCC[C@H]([R*])C1CCC1_2

>  <query-smiles>
O=C(N[C@H](C1CCC1)CCC)[C@@H](NC(=O)C)Cc2ccc(O)cc2

>  <source>
REALspace_2019-12

>  <similarity-descriptor>
0.978;0.960;1.000;1.000;0.978;0.998;0.998;1.000;1.000;1.000;0.840;0.840;1.000;0.0;0.154

>  <similarity-descriptor-smiles>
C1CCCCC1;c1ccccc1;C=O;N;C1CCCCC1;CC;CC;C;CC;N;O=C;O=C;CC;;O.N

>  <reaction-name>
s_22

>  <reagent1-name>
14524286

>  <reagent1-smiles>
[R1*]NC1CCC(O)(C(C)C)CC1

>  <reagent2-name>
219891

>  <reagent2-smiles>
[R1*]C(=O)CC(NC(=O)N)c1ccccc1

$$$$
s_272212____13250204____11403114
          04022015093D 1   1.00000     0.00000     0
            
 47 49  0  0  0  0            999 V2000
    5.3743    2.3475    2.4635 O   0  0  0  0  0  0  0  0  0  0  0  0
    4.1555    2.2887    2.4892 C   0  0  0  0  0  0  0  0  0  0  0  0
    3.3018    3.3939    2.5029 N   0  0  0  0  0  0  0  0  0  0  0  0
    1.9798    2.9577    2.5312 C   0  0  0  0  0  0  0  0  0  0  0  0
    0.9852    3.6651    2.5372 O   0  0  0  0  0  0  0  0  0  0  0  0
    1.9945    1.4468    2.5386 C   0  0  3  0  0  0  0  0  0  0  0  0
    3.4189    1.1018    2.5147 N   0  0  0  0  0  0  0  0  0  0  0  0
    1.2739    0.8762    1.3276 C   0  0  0  0  0  0  0  0  0  0  0  0
    1.4079   -0.6383    1.3251 C   0  0  0  0  0  0  0  0  0  0  0  0
    0.4558   -1.4218    1.9698 C   0  0  0  0  0  0  0  0  0  0  0  0
   -0.5929   -0.8536    2.6029 O   0  0  0  0  0  0  0  0  0  0  0  0
    0.5785   -2.8078    1.9677 C   0  0  0  0  0  0  0  0  0  0  0  0
    1.6531   -3.4100    1.3205 C   0  0  0  0  0  0  0  0  0  0  0  0
    2.6045   -2.6261    0.6754 C   0  0  0  0  0  0  0  0  0  0  0  0
    2.4814   -1.2404    0.6774 C   0  0  0  0  0  0  0  0  0  0  0  0
    3.7351    4.7984    2.4884 C   0  0  0  0  0  0  0  0  0  0  0  0
    3.1800    5.5011    1.2598 C   0  0  0  0  0  0  0  0  0  0  0  0
    3.6346    6.9516    1.2560 C   0  0  0  0  0  0  0  0  0  0  0  0
    3.1617    7.6611    2.5147 C   0  0  3  0  0  0  0  0  0  0  0  0
    3.7186    6.9507    3.7379 C   0  0  0  0  0  0  0  0  0  0  0  0
    3.2687    5.4986    3.7546 C   0  0  0  0  0  0  0  0  0  0  0  0
    3.6199    9.1097    2.5016 C   0  0  0  0  0  0  0  0  0  0  0  0
    5.1378    9.1605    2.4412 C   0  0  0  0  0  0  0  0  0  0  0  0
    1.5740    1.1049    3.3790 H   0  0  0  0  0  0  0  0  0  0  0  0
    3.7980    0.1764    2.5163 H   0  0  0  0  0  0  0  0  0  0  0  0
    0.3062    1.1252    1.3677 H   0  0  0  0  0  0  0  0  0  0  0  0
    1.6794    1.2481    0.4926 H   0  0  0  0  0  0  0  0  0  0  0  0
   -1.2704   -1.4278    3.0625 H   0  0  0  0  0  0  0  0  0  0  0  0
   -0.1054   -3.3710    2.4314 H   0  0  0  0  0  0  0  0  0  0  0  0
    1.7415   -4.4060    1.3189 H   0  0  0  0  0  0  0  0  0  0  0  0
    3.3769   -3.0587    0.2103 H   0  0  0  0  0  0  0  0  0  0  0  0
    3.1649   -0.6772    0.2130 H   0  0  0  0  0  0  0  0  0  0  0  0
    4.7341    4.8275    2.4530 H   0  0  0  0  0  0  0  0  0  0  0  0
    2.1808    5.4651    1.2783 H   0  0  0  0  0  0  0  0  0  0  0  0
    3.5147    5.0448    0.4353 H   0  0  0  0  0  0  0  0  0  0  0  0
    4.6332    6.9833    1.2158 H   0  0  0  0  0  0  0  0  0  0  0  0
    3.2539    7.4136    0.4550 H   0  0  0  0  0  0  0  0  0  0  0  0
    2.1626    7.6349    2.5485 H   0  0  0  0  0  0  0  0  0  0  0  0
    3.3886    7.4079    4.5637 H   0  0  0  0  0  0  0  0  0  0  0  0
    4.7177    6.9863    3.7137 H   0  0  0  0  0  0  0  0  0  0  0  0
    3.6609    5.0390    4.5514 H   0  0  0  0  0  0  0  0  0  0  0  0
    2.2707    5.4611    3.8059 H   0  0  0  0  0  0  0  0  0  0  0  0
    3.3039    9.5668    3.3330 H   0  0  0  0  0  0  0  0  0  0  0  0
    3.2387    9.5727    1.7013 H   0  0  0  0  0  0  0  0  0  0  0  0
    5.4394   10.1139    2.4326 H   0  0  0  0  0  0  0  0  0  0  0  0
    5.5190    8.6976    3.2414 H   0  0  0  0  0  0  0  0  0  0  0  0
    5.4538    8.7035    1.6097 H   0  0  0  0  0  0  0  0  0  0  0  0
  1  2  2  0  0  0  0
  2  3  1  0  0  0  0
  3  4  1  0  0  0  0
  4  5  2  0  0  0  0
  4  6  1  0  0  0  0
  6  7  1  0  0  0  0
  7  2  1  0  0  0  0
  6  8  1  0  0  0  0
  8  9  1  0  0  0  0
  9 10  1  0  0  0  0
 10 11  1  0  0  0  0
 10 12  2  0  0  0  0
 12 13  1  0  0  0  0
 13 14  2  0  0  0  0
 14 15  1  0  0  0  0
 15  9  2  0  0  0  0
  3 16  1  0  0  0  0
 16 17  1  0  0  0  0
 17 18  1  0  0  0  0
 18 19  1  0  0  0  0
 19 20  1  0  0  0  0
 20 21  1  0  0  0  0
 21 16  1  0  0  0  0
 19 22  1  0  0  0  0
 22 23  1  0  0  0  0
  6 24  1  0  0  0  0
  7 25  1  0  0  0  0
  8 26  1  0  0  0  0
  8 27  1  0  0  0  0
 11 28  1  0  0  0  0
 12 29  1  0  0  0  0
 13 30  1  0  0  0  0
 14 31  1  0  0  0  0
 15 32  1  0  0  0  0
 16 33  1  0  0  0  0
 17 34  1  0  0  0  0
 17 35  1  0  0  0  0
 18 36  1  0  0  0  0
 18 37  1  0  0  0  0
 19 38  1  0  0  0  0
 20 39  1  0  0  0  0
 20 40  1  0  0  0  0
 21 41  1  0  0  0  0
 21 42  1  0  0  0  0
 22 43  1  0  0  0  0
 22 44  1  0  0  0  0
 23 45  1  0  0  0  0
 23 46  1  0  0  0  0
 23 47  1  0  0  0  0
M  END
>  <result-rank>
54

>  <similarity>
0.948

>  <query-name>
LIG_A_1101_CCC[C@H]([R*])C1CCC1_2

>  <query-smiles>
O=C(N[C@H](C1CCC1)CCC)[C@@H](NC(=O)C)Cc2ccc(O)cc2

>  <source>
REALspace_2019-12

>  <similarity-descriptor>
1.000;1.000;0.850;0.850;1.000;1.000;1.000;1.000;0.850;0.850;0.850;0.0;1.000;1.000;0.0

>  <similarity-descriptor-smiles>
C1CCCCC1;c1ccccc1;O=C1NCC(N1)=O;O=C1NCC(N1)=O;C1CCCCC1;C1CCCCC1;C;C;O=C1NCC(N1)=O;O=C1NCC(N1)=O;O=C1NCC(N1)=O;;C;O;

>  <reaction-name>
s_272212

>  <reagent1-name>
13250204

>  <reagent1-smiles>
[R2*]N(C([R1*])=O)C1CCC(CC1)CC

>  <reagent2-name>
11403114

>  <reagent2-smiles>
[R1*]N(Cc1c(O)cccc1)CC([R2*])=O

$$$$
s_22____10971288____9736332
          04022015093D 1   1.00000     0.00000     0
            
 51 52  0  0  0  0            999 V2000
    0.4000    1.0000   -0.0392 O   0  0  0  0  0  0  0  0  0  0  0  0
    1.0000    1.0000    1.0000 C   0  0  0  0  0  0  0  0  0  0  0  0
    0.3150    1.0000    2.1865 N   0  0  0  0  0  0  0  0  0  0  0  0
   -1.1553    1.0000    2.1865 C   0  0  3  0  0  0  0  0  0  0  0  0
   -1.7028   -0.2236    2.8929 C   0  0  3  0  0  0  0  0  0  0  0  0
   -1.9856   -1.3562    1.9186 C   0  0  0  0  0  0  0  0  0  0  0  0
   -0.6991   -1.7484    1.2105 C   0  0  0  0  0  0  0  0  0  0  0  0
   -2.5310   -2.5541    2.6788 C   0  0  0  0  0  0  0  0  0  0  0  0
   -3.0093   -0.8982    0.8926 C   0  0  0  0  0  0  0  0  0  0  0  0
   -2.9603    0.3008    3.5563 C   0  0  0  0  0  0  0  0  0  0  0  0
   -2.5436    1.6601    4.0694 C   0  0  0  0  0  0  0  0  0  0  0  0
   -1.7214    2.2027    2.9195 C   0  0  0  0  0  0  0  0  0  0  0  0
    2.5200    1.0000    1.0000 C   0  0  3  0  0  0  0  0  0  0  0  0
    3.0100    0.1091    2.0617 N   0  0  0  0  0  0  0  0  0  0  0  0
    3.7976    0.6082    3.0654 C   0  0  0  0  0  0  0  0  0  0  0  0
    4.0875    1.7726    3.0779 O   0  0  0  0  0  0  0  0  0  0  0  0
    4.3043   -0.3129    4.1632 C   0  0  0  0  0  0  0  0  0  0  0  0
    3.0267    0.5099   -0.3466 C   0  0  0  0  0  0  0  0  0  0  0  0
    4.5482    0.5099   -0.3466 C   0  0  0  0  0  0  0  0  0  0  0  0
    5.3561   -0.5205    0.0284 N   0  0  0  0  0  0  0  0  0  0  0  0
    6.6175   -0.1695   -0.1034 C   0  0  0  0  0  0  0  0  0  0  0  0
    6.6386    1.1139   -0.5768 N   0  0  0  0  0  0  0  0  0  0  0  0
    5.3513    1.5485   -0.7256 C   0  0  0  0  0  0  0  0  0  0  0  0
    0.8150    1.0000    3.0525 H   0  0  0  0  0  0  0  0  0  0  0  0
   -1.4832    1.0075    1.2418 H   0  0  0  0  0  0  0  0  0  0  0  0
   -1.0548   -0.5304    3.5900 H   0  0  0  0  0  0  0  0  0  0  0  0
   -0.8850   -2.4933    0.5697 H   0  0  0  0  0  0  0  0  0  0  0  0
   -0.3402   -0.9603    0.7104 H   0  0  0  0  0  0  0  0  0  0  0  0
   -0.0256   -2.0497    1.8855 H   0  0  0  0  0  0  0  0  0  0  0  0
   -2.7170   -3.2990    2.0380 H   0  0  0  0  0  0  0  0  0  0  0  0
   -1.8575   -2.8554    3.3538 H   0  0  0  0  0  0  0  0  0  0  0  0
   -3.3774   -2.2960    3.1446 H   0  0  0  0  0  0  0  0  0  0  0  0
   -3.1952   -1.6430    0.2519 H   0  0  0  0  0  0  0  0  0  0  0  0
   -3.8557   -0.6401    1.3585 H   0  0  0  0  0  0  0  0  0  0  0  0
   -2.6504   -0.1101    0.3925 H   0  0  0  0  0  0  0  0  0  0  0  0
   -3.2431   -0.2945    4.3084 H   0  0  0  0  0  0  0  0  0  0  0  0
   -3.7068    0.3809    2.8958 H   0  0  0  0  0  0  0  0  0  0  0  0
   -3.3393    2.2383    4.2498 H   0  0  0  0  0  0  0  0  0  0  0  0
   -1.9942    1.5801    4.9011 H   0  0  0  0  0  0  0  0  0  0  0  0
   -2.2993    2.7405    2.3056 H   0  0  0  0  0  0  0  0  0  0  0  0
   -0.9793    2.7763    3.2663 H   0  0  0  0  0  0  0  0  0  0  0  0
    2.8533    1.9285    1.1637 H   0  0  0  0  0  0  0  0  0  0  0  0
    2.7684   -0.8612    2.0513 H   0  0  0  0  0  0  0  0  0  0  0  0
    3.9710   -1.2414    3.9995 H   0  0  0  0  0  0  0  0  0  0  0  0
    5.3043   -0.3129    4.1632 H   0  0  0  0  0  0  0  0  0  0  0  0
    3.9710    0.0095    5.0491 H   0  0  0  0  0  0  0  0  0  0  0  0
    2.6933   -0.4186   -0.5104 H   0  0  0  0  0  0  0  0  0  0  0  0
    2.6933    1.1159   -1.0689 H   0  0  0  0  0  0  0  0  0  0  0  0
    7.4143   -0.7368    0.1044 H   0  0  0  0  0  0  0  0  0  0  0  0
    7.4603    1.6462   -0.7803 H   0  0  0  0  0  0  0  0  0  0  0  0
    5.0558    2.4479   -1.0479 H   0  0  0  0  0  0  0  0  0  0  0  0
  1  2  2  0  0  0  0
  2  3  1  0  0  0  0
  3  4  1  0  0  0  0
  4  5  1  0  0  0  0
  5  6  1  0  0  0  0
  6  7  1  0  0  0  0
  6  8  1  0  0  0  0
  6  9  1  0  0  0  0
  5 10  1  0  0  0  0
 10 11  1  0  0  0  0
 11 12  1  0  0  0  0
 12  4  1  0  0  0  0
  2 13  1  0  0  0  0
 13 14  1  0  0  0  0
 14 15  1  0  0  0  0
 15 16  2  0  0  0  0
 15 17  1  0  0  0  0
 13 18  1  0  0  0  0
 18 19  1  0  0  0  0
 19 20  1  0  0  0  0
 20 21  2  0  0  0  0
 21 22  1  0  0  0  0
 22 23  1  0  0  0  0
 19 23  2  0  0  0  0
  3 24  1  0  0  0  0
  4 25  1  0  0  0  0
  5 26  1  0  0  0  0
  7 27  1  0  0  0  0
  7 28  1  0  0  0  0
  7 29  1  0  0  0  0
  8 30  1  0  0  0  0
  8 31  1  0  0  0  0
  8 32  1  0  0  0  0
  9 33  1  0  0  0  0
  9 34  1  0  0  0  0
  9 35  1  0  0  0  0
 10 36  1  0  0  0  0
 10 37  1  0  0  0  0
 11 38  1  0  0  0  0
 11 39  1  0  0  0  0
 12 40  1  0  0  0  0
 12 41  1  0  0  0  0
 13 42  1  0  0  0  0
 14 43  1  0  0  0  0
 17 44  1  0  0  0  0
 17 45  1  0  0  0  0
 17 46  1  0  0  0  0
 18 47  1  0  0  0  0
 18 48  1  0  0  0  0
 21 49  1  0  0  0  0
 22 50  1  0  0  0  0
 23 51  1  0  0  0  0
M  END
>  <result-rank>
55

>  <similarity>
0.948

>  <query-name>
LIG_A_1101_CCC[C@H]([R*])C1CCC1_2

>  <query-smiles>
O=C(N[C@H](C1CCC1)CCC)[C@@H](NC(=O)C)Cc2ccc(O)cc2

>  <source>
REALspace_2019-12

>  <similarity-descriptor>
1.000;0.823;1.000;1.000;1.000;0.937;0.937;1.000;1.000;1.000;1.000;1.000;1.000;0.823;0.0

>  <similarity-descriptor-smiles>
C1CCCC1;C1=CNC=N1;O=C;N;C1CCCC1;C(C)C;C(C)C;C;C;N;C=O;C;C;C1=CNC=N1;

>  <reaction-name>
s_22

>  <reagent1-name>
10971288

>  <reagent1-smiles>
[R1*]NC1C(C(C)(C)C)CCC1

>  <reagent2-name>
9736332

>  <reagent2-smiles>
[R1*]C(=O)C(NC(=O)C)CC=1N=CNC1

$$$$
m_272310____9698476____14588568
          04022015093D 1   1.00000     0.00000     0
            
 52 53  0  0  0  0            999 V2000
    4.0547    2.7087    0.5722 O   0  5  0  0  0  0  0  0  0  0  0  0
    2.9767    2.2411    0.2835 C   0  0  0  0  0  0  0  0  0  0  0  0
    2.2797    2.7786   -0.6041 O   0  0  0  0  0  0  0  0  0  0  0  0
    2.4700    1.0000    1.0000 C   0  0  3  0  0  0  0  0  0  0  0  0
    1.0000    1.0000    1.0000 N   0  0  0  0  0  0  0  0  0  0  0  0
    0.3150    1.0000    2.1865 C   0  0  0  0  0  0  0  0  0  0  0  0
    0.9150    1.0000    3.2257 O   0  0  0  0  0  0  0  0  0  0  0  0
   -1.0550    1.0000    2.1865 N   0  0  0  0  0  0  0  0  0  0  0  0
   -1.7899    1.0000    3.4594 C   0  0  0  0  0  0  0  0  0  0  0  0
   -2.6685    2.2374    3.5524 C   0  0  0  0  0  0  0  0  0  0  0  0
   -3.4229    2.2261    4.8720 C   0  0  0  0  0  0  0  0  0  0  0  0
   -4.2791    0.9749    4.9852 C   0  0  3  0  0  0  0  0  0  0  0  0
   -3.3935   -0.2570    4.8883 C   0  0  0  0  0  0  0  0  0  0  0  0
   -2.6350   -0.2587    3.5708 C   0  0  0  0  0  0  0  0  0  0  0  0
   -5.0296    0.9728    6.3064 C   0  0  0  0  0  0  0  0  0  0  0  0
   -4.0340    1.0011    7.4546 C   0  0  0  0  0  0  0  0  0  0  0  0
    2.9767   -0.2411    0.2835 C   0  0  0  0  0  0  0  0  0  0  0  0
    4.4851   -0.3381    0.4434 C   0  0  0  0  0  0  0  0  0  0  0  0
    5.0161   -0.8889    1.6051 C   0  0  0  0  0  0  0  0  0  0  0  0
    6.3958   -0.9805    1.7555 C   0  0  0  0  0  0  0  0  0  0  0  0
    7.2281   -0.5197    0.7403 C   0  0  0  0  0  0  0  0  0  0  0  0
    8.5676   -0.6063    0.8823 O   0  0  0  0  0  0  0  0  0  0  0  0
    9.4239   -0.0429   -0.1004 C   0  0  0  0  0  0  0  0  0  0  0  0
    6.7022    0.0323   -0.4233 C   0  0  0  0  0  0  0  0  0  0  0  0
    5.3218    0.1210   -0.5687 C   0  0  0  0  0  0  0  0  0  0  0  0
    2.8033    1.0000    1.9428 H   0  0  0  0  0  0  0  0  0  0  0  0
    0.5000    1.0000    0.1340 H   0  0  0  0  0  0  0  0  0  0  0  0
   -1.5550    1.0000    1.3204 H   0  0  0  0  0  0  0  0  0  0  0  0
   -1.1317    1.0144    4.2120 H   0  0  0  0  0  0  0  0  0  0  0  0
   -3.3217    2.2399    2.7952 H   0  0  0  0  0  0  0  0  0  0  0  0
   -2.0970    3.0564    3.5023 H   0  0  0  0  0  0  0  0  0  0  0  0
   -2.7667    2.2452    5.6263 H   0  0  0  0  0  0  0  0  0  0  0  0
   -4.0113    3.0331    4.9216 H   0  0  0  0  0  0  0  0  0  0  0  0
   -4.9396    0.9621    4.2345 H   0  0  0  0  0  0  0  0  0  0  0  0
   -3.9626   -1.0775    4.9425 H   0  0  0  0  0  0  0  0  0  0  0  0
   -2.7401   -0.2540    5.6453 H   0  0  0  0  0  0  0  0  0  0  0  0
   -2.0405   -1.0619    3.5314 H   0  0  0  0  0  0  0  0  0  0  0  0
   -3.2866   -0.2889    2.8129 H   0  0  0  0  0  0  0  0  0  0  0  0
   -5.5890    0.1464    6.3706 H   0  0  0  0  0  0  0  0  0  0  0  0
   -5.6190    1.7791    6.3562 H   0  0  0  0  0  0  0  0  0  0  0  0
   -4.5279    0.9997    8.3241 H   0  0  0  0  0  0  0  0  0  0  0  0
   -3.4446    0.1948    7.4048 H   0  0  0  0  0  0  0  0  0  0  0  0
   -3.4745    1.8275    7.3904 H   0  0  0  0  0  0  0  0  0  0  0  0
    2.5467   -1.0529    0.6784 H   0  0  0  0  0  0  0  0  0  0  0  0
    2.7476   -0.1819   -0.6881 H   0  0  0  0  0  0  0  0  0  0  0  0
    4.4089   -1.2175    2.3285 H   0  0  0  0  0  0  0  0  0  0  0  0
    6.7867   -1.3747    2.5873 H   0  0  0  0  0  0  0  0  0  0  0  0
   10.3770   -0.1965    0.1603 H   0  0  0  0  0  0  0  0  0  0  0  0
    9.2463   -0.4750   -0.9846 H   0  0  0  0  0  0  0  0  0  0  0  0
    9.2513    0.9397   -0.1691 H   0  0  0  0  0  0  0  0  0  0  0  0
    7.3093    0.3614   -1.1466 H   0  0  0  0  0  0  0  0  0  0  0  0
    4.9308    0.5148   -1.4006 H   0  0  0  0  0  0  0  0  0  0  0  0
  1  2  1  0  0  0  0
  2  3  2  0  0  0  0
  2  4  1  0  0  0  0
  4  5  1  0  0  0  0
  5  6  1  0  0  0  0
  6  7  2  0  0  0  0
  6  8  1  0  0  0  0
  8  9  1  0  0  0  0
  9 10  1  0  0  0  0
 10 11  1  0  0  0  0
 11 12  1  0  0  0  0
 12 13  1  0  0  0  0
 13 14  1  0  0  0  0
 14  9  1  0  0  0  0
 12 15  1  0  0  0  0
 15 16  1  0  0  0  0
  4 17  1  0  0  0  0
 17 18  1  0  0  0  0
 18 19  1  0  0  0  0
 19 20  2  0  0  0  0
 20 21  1  0  0  0  0
 21 22  1  0  0  0  0
 22 23  1  0  0  0  0
 21 24  2  0  0  0  0
 24 25  1  0  0  0  0
 25 18  2  0  0  0  0
  4 26  1  0  0  0  0
  5 27  1  0  0  0  0
  8 28  1  0  0  0  0
  9 29  1  0  0  0  0
 10 30  1  0  0  0  0
 10 31  1  0  0  0  0
 11 32  1  0  0  0  0
 11 33  1  0  0  0  0
 12 34  1  0  0  0  0
 13 35  1  0  0  0  0
 13 36  1  0  0  0  0
 14 37  1  0  0  0  0
 14 38  1  0  0  0  0
 15 39  1  0  0  0  0
 15 40  1  0  0  0  0
 16 41  1  0  0  0  0
 16 42  1  0  0  0  0
 16 43  1  0  0  0  0
 17 44  1  0  0  0  0
 17 45  1  0  0  0  0
 19 46  1  0  0  0  0
 20 47  1  0  0  0  0
 23 48  1  0  0  0  0
 23 49  1  0  0  0  0
 23 50  1  0  0  0  0
 24 51  1  0  0  0  0
 25 52  1  0  0  0  0
M  CHG  1   1  -1
M  END
>  <result-rank>
56

>  <similarity>
0.948

>  <query-name>
LIG_A_1101_CCC[C@H]([R*])C1CCC1_2

>  <query-smiles>
O=C(N[C@H](C1CCC1)CCC)[C@@H](NC(=O)C)Cc2ccc(O)cc2

>  <source>
REALspace_2019-12

>  <similarity-descriptor>
1.000;1.000;0.995;1.000;1.000;1.000;1.000;1.000;1.000;1.000;0.733;0.733;1.000;0.704;0.083

>  <similarity-descriptor-smiles>
C1CCCCC1;c1ccccc1;C=O;N;C1CCCCC1;C1CCCCC1;C;C;CN;CN;[O-]C=O;[O-]C=O;C;O;C

>  <reaction-name>
m_272310

>  <reagent1-name>
9698476

>  <reagent1-smiles>
[R1*]C(=O)NC1CCC(CC1)CC

>  <reagent2-name>
14588568

>  <reagent2-smiles>
[R1*]NC(C(=O)O)Cc1ccc(OC)cc1

$$$$
s_272164____9388494____9376838
          04022015093D 1   1.00000     0.00000     0
            
 51 53  0  0  0  0            999 V2000
    2.9700    2.0392    1.0000 O   0  0  0  0  0  0  0  0  0  0  0  0
    2.3700    1.0000    1.0000 C   0  0  0  0  0  0  0  0  0  0  0  0
    3.0703   -0.2130    1.0000 N   0  0  0  0  0  0  0  0  0  0  0  0
    4.4742   -0.2096    1.0000 C   0  0  0  0  0  0  0  0  0  0  0  0
    5.0810   -0.5368   -0.2049 C   0  0  0  0  0  0  0  0  0  0  0  0
    4.3328   -0.8704   -1.3386 N   0  0  0  0  0  0  0  0  0  0  0  0
    3.3059   -1.8086   -1.1992 C   0  0  0  0  0  0  0  0  0  0  0  0
    2.5945   -2.0945   -2.1492 O   0  0  0  0  0  0  0  0  0  0  0  0
    3.1005   -2.4428    0.1667 C   0  0  0  0  0  0  0  0  0  0  0  0
    2.2858   -1.4608    0.9894 C   0  0  3  0  0  0  0  0  0  0  0  0
    2.0276   -2.0862    2.3537 C   0  0  0  0  0  0  0  0  0  0  0  0
    6.4643   -0.5489   -0.3058 C   0  0  0  0  0  0  0  0  0  0  0  0
    7.2514   -0.2409    0.7984 C   0  0  0  0  0  0  0  0  0  0  0  0
    6.6674    0.0833    2.0183 C   0  0  0  0  0  0  0  0  0  0  0  0
    5.2780    0.0933    2.1031 C   0  0  0  0  0  0  0  0  0  0  0  0
    1.0000    1.0000    1.0000 N   0  0  0  0  0  0  0  0  0  0  0  0
    0.2649    2.2733    1.0000 C   0  0  3  0  0  0  0  0  0  0  0  0
   -0.6006    2.3303    2.2488 C   0  0  3  0  0  0  0  0  0  0  0  0
   -1.4644    3.5858    2.3061 C   0  0  0  0  0  0  0  0  0  0  0  0
   -2.6578    3.5369    1.3552 C   0  0  0  0  0  0  0  0  0  0  0  0
   -2.3986    4.1247   -0.0273 C   0  0  0  0  0  0  0  0  0  0  0  0
   -1.0350    3.7644   -0.6057 C   0  0  0  0  0  0  0  0  0  0  0  0
   -0.5674    2.3519   -0.2711 C   0  0  0  0  0  0  0  0  0  0  0  0
    0.3100    2.3195    3.4664 C   0  0  0  0  0  0  0  0  0  0  0  0
    4.5272   -0.4493   -2.2246 H   0  0  0  0  0  0  0  0  0  0  0  0
    3.9837   -2.6093    0.6051 H   0  0  0  0  0  0  0  0  0  0  0  0
    2.6062   -3.3071    0.0740 H   0  0  0  0  0  0  0  0  0  0  0  0
    1.4116   -1.2955    0.5328 H   0  0  0  0  0  0  0  0  0  0  0  0
    1.4913   -2.9227    2.2409 H   0  0  0  0  0  0  0  0  0  0  0  0
    2.9000   -2.3060    2.7902 H   0  0  0  0  0  0  0  0  0  0  0  0
    1.5218   -1.4406    2.9260 H   0  0  0  0  0  0  0  0  0  0  0  0
    6.8977   -0.7801   -1.1768 H   0  0  0  0  0  0  0  0  0  0  0  0
    8.2478   -0.2527    0.7144 H   0  0  0  0  0  0  0  0  0  0  0  0
    7.2312    0.3036    2.8143 H   0  0  0  0  0  0  0  0  0  0  0  0
    4.8441    0.3227    2.9743 H   0  0  0  0  0  0  0  0  0  0  0  0
    0.5000    0.1340    1.0000 H   0  0  0  0  0  0  0  0  0  0  0  0
    0.9170    3.0312    1.0152 H   0  0  0  0  0  0  0  0  0  0  0  0
   -1.1919    1.5242    2.2747 H   0  0  0  0  0  0  0  0  0  0  0  0
   -0.8974    4.3733    2.0647 H   0  0  0  0  0  0  0  0  0  0  0  0
   -1.8059    3.6946    3.2397 H   0  0  0  0  0  0  0  0  0  0  0  0
   -3.4099    4.0461    1.7737 H   0  0  0  0  0  0  0  0  0  0  0  0
   -2.9256    2.5802    1.2412 H   0  0  0  0  0  0  0  0  0  0  0  0
   -3.1042    3.7870   -0.6503 H   0  0  0  0  0  0  0  0  0  0  0  0
   -2.4601    5.1207    0.0375 H   0  0  0  0  0  0  0  0  0  0  0  0
   -1.0835    3.8512   -1.6007 H   0  0  0  0  0  0  0  0  0  0  0  0
   -0.3615    4.4109   -0.2471 H   0  0  0  0  0  0  0  0  0  0  0  0
   -1.3729    1.7702   -0.1584 H   0  0  0  0  0  0  0  0  0  0  0  0
   -0.0150    2.0126   -1.0325 H   0  0  0  0  0  0  0  0  0  0  0  0
   -0.2446    2.3566    4.2977 H   0  0  0  0  0  0  0  0  0  0  0  0
    0.8558    1.4816    3.4670 H   0  0  0  0  0  0  0  0  0  0  0  0
    0.9175    3.1131    3.4353 H   0  0  0  0  0  0  0  0  0  0  0  0
  1  2  2  0  0  0  0
  2  3  1  0  0  0  0
  3  4  1  0  0  0  0
  4  5  1  0  0  0  0
  5  6  1  0  0  0  0
  6  7  1  0  0  0  0
  7  8  2  0  0  0  0
  7  9  1  0  0  0  0
  9 10  1  0  0  0  0
 10  3  1  0  0  0  0
 10 11  1  0  0  0  0
  5 12  2  0  0  0  0
 12 13  1  0  0  0  0
 13 14  2  0  0  0  0
 14 15  1  0  0  0  0
 15  4  2  0  0  0  0
  2 16  1  0  0  0  0
 16 17  1  0  0  0  0
 17 18  1  0  0  0  0
 18 19  1  0  0  0  0
 19 20  1  0  0  0  0
 20 21  1  0  0  0  0
 21 22  1  0  0  0  0
 22 23  1  0  0  0  0
 23 17  1  0  0  0  0
 18 24  1  0  0  0  0
  6 25  1  0  0  0  0
  9 26  1  0  0  0  0
  9 27  1  0  0  0  0
 10 28  1  0  0  0  0
 11 29  1  0  0  0  0
 11 30  1  0  0  0  0
 11 31  1  0  0  0  0
 12 32  1  0  0  0  0
 13 33  1  0  0  0  0
 14 34  1  0  0  0  0
 15 35  1  0  0  0  0
 16 36  1  0  0  0  0
 17 37  1  0  0  0  0
 18 38  1  0  0  0  0
 19 39  1  0  0  0  0
 19 40  1  0  0  0  0
 20 41  1  0  0  0  0
 20 42  1  0  0  0  0
 21 43  1  0  0  0  0
 21 44  1  0  0  0  0
 22 45  1  0  0  0  0
 22 46  1  0  0  0  0
 23 47  1  0  0  0  0
 23 48  1  0  0  0  0
 24 49  1  0  0  0  0
 24 50  1  0  0  0  0
 24 51  1  0  0  0  0
M  END
>  <result-rank>
57

>  <similarity>
0.947

>  <query-name>
LIG_A_1101_CCC[C@H]([R*])C1CCC1_2

>  <query-smiles>
O=C(N[C@H](C1CCC1)CCC)[C@@H](NC(=O)C)Cc2ccc(O)cc2

>  <source>
REALspace_2019-12

>  <similarity-descriptor>
1.000;0.984;0.995;1.000;1.000;1.000;1.000;1.000;0.834;0.834;0.834;1.000;0.834;0.0;0.0

>  <similarity-descriptor-smiles>
C1CCCCCC1;c1ccccc1;O=C;N;C1CCCCCC1;C1CCCCCC1;C1CCCCCC1;C;N1CCC(Ncc1)=O;N1CCC(Ncc1)=O;N1CCC(Ncc1)=O;C;N1CCC(Ncc1)=O;;

>  <reaction-name>
s_272164

>  <reagent1-name>
9388494

>  <reagent1-smiles>
[R1*]C(=O)N1c2c(NC(=O)CC1C)cccc2

>  <reagent2-name>
9376838

>  <reagent2-smiles>
[R1*]NC1C(CCCCC1)C

$$$$
s_2708____5531246____9156422
          04022015093D 1   1.00000     0.00000     0
            
 59 60  0  0  0  0            999 V2000
    0.4000   -0.0392    1.0000 O   0  0  0  0  0  0  0  0  0  0  0  0
    1.0000    1.0000    1.0000 C   0  0  0  0  0  0  0  0  0  0  0  0
    2.3700    1.0000    1.0000 N   0  0  0  0  0  0  0  0  0  0  0  0
    3.1050    2.1963    1.4354 C   0  0  0  0  0  0  0  0  0  0  0  0
    3.3584    2.1185    2.9324 C   0  0  0  0  0  0  0  0  0  0  0  0
    4.5197    1.5154    3.4043 C   0  0  0  0  0  0  0  0  0  0  0  0
    4.7472    1.4456    4.7749 C   0  0  0  0  0  0  0  0  0  0  0  0
    3.8176    1.9776    5.6622 C   0  0  0  0  0  0  0  0  0  0  0  0
    2.6614    2.5781    5.1795 C   0  0  0  0  0  0  0  0  0  0  0  0
    2.4220    2.6536    3.8113 C   0  0  0  0  0  0  0  0  0  0  0  0
    3.1050   -0.1963    0.5646 C   0  0  0  0  0  0  0  0  0  0  0  0
    3.6270    0.0156   -0.8472 C   0  0  3  0  0  0  0  0  0  0  0  0
    4.0977    1.3485   -0.9827 O   0  0  0  0  0  0  0  0  0  0  0  0
    4.7660   -0.9539   -1.1171 C   0  0  0  0  0  0  0  0  0  0  0  0
    5.2880   -0.7420   -2.5289 C   0  0  0  0  0  0  0  0  0  0  0  0
    2.5059   -0.2295   -1.8440 C   0  0  0  0  0  0  0  0  0  0  0  0
    0.3150    2.1865    1.0000 N   0  0  0  0  0  0  0  0  0  0  0  0
   -1.1547    2.1865    1.0000 C   0  0  3  0  0  0  0  0  0  0  0  0
   -1.6725    2.1865    2.4295 C   0  0  0  0  0  0  0  0  0  0  0  0
   -3.1925    2.1933    2.4394 C   0  0  3  0  0  0  0  0  0  0  0  0
   -3.7105    3.4175    1.7014 C   0  0  0  0  0  0  0  0  0  0  0  0
   -3.1939    3.4206    0.2718 C   0  0  0  0  0  0  0  0  0  0  0  0
   -1.6737    3.4148    0.2693 C   0  0  0  0  0  0  0  0  0  0  0  0
   -3.7058    2.1925    3.8701 C   0  0  0  0  0  0  0  0  0  0  0  0
   -5.2258    2.1994    3.8631 C   0  0  0  0  0  0  0  0  0  0  0  0
    2.5646    3.0124    1.2308 H   0  0  0  0  0  0  0  0  0  0  0  0
    3.9788    2.2452    0.9515 H   0  0  0  0  0  0  0  0  0  0  0  0
    5.1860    1.1350    2.7630 H   0  0  0  0  0  0  0  0  0  0  0  0
    5.5792    1.0128    5.1222 H   0  0  0  0  0  0  0  0  0  0  0  0
    3.9815    1.9280    6.6475 H   0  0  0  0  0  0  0  0  0  0  0  0
    1.9957    2.9592    5.8211 H   0  0  0  0  0  0  0  0  0  0  0  0
    1.5895    3.0860    3.4647 H   0  0  0  0  0  0  0  0  0  0  0  0
    2.4930   -0.9870    0.5785 H   0  0  0  0  0  0  0  0  0  0  0  0
    3.8737   -0.3588    1.1833 H   0  0  0  0  0  0  0  0  0  0  0  0
    4.4411    1.4879   -1.9115 H   0  0  0  0  0  0  0  0  0  0  0  0
    4.4345   -1.8925   -1.0217 H   0  0  0  0  0  0  0  0  0  0  0  0
    5.5035   -0.7926   -0.4613 H   0  0  0  0  0  0  0  0  0  0  0  0
    6.0374   -1.3799   -2.7064 H   0  0  0  0  0  0  0  0  0  0  0  0
    4.5505   -0.9033   -3.1846 H   0  0  0  0  0  0  0  0  0  0  0  0
    5.6195    0.1966   -2.6243 H   0  0  0  0  0  0  0  0  0  0  0  0
    2.1744   -1.1682   -1.7485 H   0  0  0  0  0  0  0  0  0  0  0  0
    1.7565    0.4083   -1.6664 H   0  0  0  0  0  0  0  0  0  0  0  0
    2.8493   -0.0901   -2.7727 H   0  0  0  0  0  0  0  0  0  0  0  0
    0.8150    3.0525    1.0000 H   0  0  0  0  0  0  0  0  0  0  0  0
   -1.4822    1.3650    0.5331 H   0  0  0  0  0  0  0  0  0  0  0  0
   -1.3357    3.0007    2.9024 H   0  0  0  0  0  0  0  0  0  0  0  0
   -1.3431    1.3677    2.8997 H   0  0  0  0  0  0  0  0  0  0  0  0
   -3.5234    1.3713    1.9759 H   0  0  0  0  0  0  0  0  0  0  0  0
   -3.3958    4.2436    2.1689 H   0  0  0  0  0  0  0  0  0  0  0  0
   -4.7103    3.4000    1.6922 H   0  0  0  0  0  0  0  0  0  0  0  0
   -3.5291    2.6071   -0.2034 H   0  0  0  0  0  0  0  0  0  0  0  0
   -3.5229    4.2401   -0.1976 H   0  0  0  0  0  0  0  0  0  0  0  0
   -1.3445    3.4016   -0.6748 H   0  0  0  0  0  0  0  0  0  0  0  0
   -1.3390    4.2382    0.7276 H   0  0  0  0  0  0  0  0  0  0  0  0
   -3.3710    3.0065    4.3448 H   0  0  0  0  0  0  0  0  0  0  0  0
   -3.3784    1.3735    4.3413 H   0  0  0  0  0  0  0  0  0  0  0  0
   -5.5635    2.1989    4.8043 H   0  0  0  0  0  0  0  0  0  0  0  0
   -5.5532    3.0184    3.3919 H   0  0  0  0  0  0  0  0  0  0  0  0
   -5.5606    1.3854    3.3883 H   0  0  0  0  0  0  0  0  0  0  0  0
  1  2  2  0  0  0  0
  2  3  1  0  0  0  0
  3  4  1  0  0  0  0
  4  5  1  0  0  0  0
  5  6  1  0  0  0  0
  6  7  2  0  0  0  0
  7  8  1  0  0  0  0
  8  9  2  0  0  0  0
  9 10  1  0  0  0  0
 10  5  2  0  0  0  0
  3 11  1  0  0  0  0
 11 12  1  0  0  0  0
 12 13  1  0  0  0  0
 12 14  1  0  0  0  0
 14 15  1  0  0  0  0
 12 16  1  0  0  0  0
  2 17  1  0  0  0  0
 17 18  1  0  0  0  0
 18 19  1  0  0  0  0
 19 20  1  0  0  0  0
 20 21  1  0  0  0  0
 21 22  1  0  0  0  0
 22 23  1  0  0  0  0
 23 18  1  0  0  0  0
 20 24  1  0  0  0  0
 24 25  1  0  0  0  0
  4 26  1  0  0  0  0
  4 27  1  0  0  0  0
  6 28  1  0  0  0  0
  7 29  1  0  0  0  0
  8 30  1  0  0  0  0
  9 31  1  0  0  0  0
 10 32  1  0  0  0  0
 11 33  1  0  0  0  0
 11 34  1  0  0  0  0
 13 35  1  0  0  0  0
 14 36  1  0  0  0  0
 14 37  1  0  0  0  0
 15 38  1  0  0  0  0
 15 39  1  0  0  0  0
 15 40  1  0  0  0  0
 16 41  1  0  0  0  0
 16 42  1  0  0  0  0
 16 43  1  0  0  0  0
 17 44  1  0  0  0  0
 18 45  1  0  0  0  0
 19 46  1  0  0  0  0
 19 47  1  0  0  0  0
 20 48  1  0  0  0  0
 21 49  1  0  0  0  0
 21 50  1  0  0  0  0
 22 51  1  0  0  0  0
 22 52  1  0  0  0  0
 23 53  1  0  0  0  0
 23 54  1  0  0  0  0
 24 55  1  0  0  0  0
 24 56  1  0  0  0  0
 25 57  1  0  0  0  0
 25 58  1  0  0  0  0
 25 59  1  0  0  0  0
M  END
>  <result-rank>
58

>  <similarity>
0.947

>  <query-name>
LIG_A_1101_CCC[C@H]([R*])C1CCC1_2

>  <query-smiles>
O=C(N[C@H](C1CCC1)CCC)[C@@H](NC(=O)C)Cc2ccc(O)cc2

>  <source>
REALspace_2019-12

>  <similarity-descriptor>
1.000;0.960;0.995;1.000;1.000;1.000;1.000;1.000;0.953;0.830;0.830;1.000;0.953;0.0;0.143

>  <similarity-descriptor-smiles>
C1CCCCC1;c1ccccc1;O=C;N;C1CCCCC1;C1CCCCC1;C;C;N(C)C;CO;CO;C;N(C)C;;C.C

>  <reaction-name>
s_2708

>  <reagent1-name>
5531246

>  <reagent1-smiles>
[R1*]C(=O)NC1CC(CCC1)CC

>  <reagent2-name>
9156422

>  <reagent2-smiles>
[R1*]N(Cc1ccccc1)CC(O)(CC)C

$$$$
s_2708____17318976____9106748
          04022015093D 1   1.00000     0.00000     0
            
 62 63  0  0  0  0            999 V2000
    2.1552   -2.8482    2.8419 F   0  0  0  0  0  0  0  0  0  0  0  0
    3.4617   -3.0252    2.6671 C   0  0  0  0  0  0  0  0  0  0  0  0
    4.2784   -1.9229    2.4366 C   0  0  0  0  0  0  0  0  0  0  0  0
    5.6474   -2.0841    2.2514 C   0  0  0  0  0  0  0  0  0  0  0  0
    6.1936   -3.3631    2.2995 C   0  0  0  0  0  0  0  0  0  0  0  0
    5.3722   -4.4615    2.5302 C   0  0  0  0  0  0  0  0  0  0  0  0
    5.8956   -5.6825    2.5757 F   0  0  0  0  0  0  0  0  0  0  0  0
    4.0030   -4.3055    2.7155 C   0  0  0  0  0  0  0  0  0  0  0  0
    3.6795   -0.5264    2.3842 C   0  0  0  0  0  0  0  0  0  0  0  0
    3.1050   -0.2731    1.0000 C   0  0  3  0  0  0  0  0  0  0  0  0
    2.3700    1.0000    1.0000 N   0  0  0  0  0  0  0  0  0  0  0  0
    1.0000    1.0000    1.0000 C   0  0  0  0  0  0  0  0  0  0  0  0
    0.4000   -0.0392    1.0000 O   0  0  0  0  0  0  0  0  0  0  0  0
    0.3150    2.1865    1.0000 N   0  0  0  0  0  0  0  0  0  0  0  0
   -1.1549    2.1865    1.0000 C   0  0  3  0  0  0  0  0  0  0  0  0
   -1.7183    2.8940   -0.2255 C   0  0  0  0  0  0  0  0  0  0  0  0
   -1.6751    4.4165   -0.1592 C   0  0  0  0  0  0  0  0  0  0  0  0
   -3.0172    4.9318    0.3326 C   0  0  3  0  0  0  0  0  0  0  0  0
   -3.1019    6.4200    0.0337 C   0  0  0  0  0  0  0  0  0  0  0  0
   -4.4383    6.9587    0.5176 C   0  0  0  0  0  0  0  0  0  0  0  0
   -1.9740    7.1454    0.7494 C   0  0  0  0  0  0  0  0  0  0  0  0
   -2.9779    6.6437   -1.4646 C   0  0  0  0  0  0  0  0  0  0  0  0
   -3.2324    4.7397    1.8295 C   0  0  0  0  0  0  0  0  0  0  0  0
   -3.0784    3.2908    2.2728 C   0  0  0  0  0  0  0  0  0  0  0  0
   -1.6231    2.8464    2.2966 C   0  0  0  0  0  0  0  0  0  0  0  0
    4.2359   -0.2052   -0.0133 C   0  0  0  0  0  0  0  0  0  0  0  0
    3.7113    0.1457   -1.2853 O   0  0  0  0  0  0  0  0  0  0  0  0
    3.3593   -1.0335   -1.9939 C   0  0  0  0  0  0  0  0  0  0  0  0
    6.2324   -1.2902    2.0856 H   0  0  0  0  0  0  0  0  0  0  0  0
    7.1764   -3.4925    2.1682 H   0  0  0  0  0  0  0  0  0  0  0  0
    3.4180   -5.0995    2.8805 H   0  0  0  0  0  0  0  0  0  0  0  0
    4.3911    0.1489    2.5785 H   0  0  0  0  0  0  0  0  0  0  0  0
    2.9522   -0.4498    3.0662 H   0  0  0  0  0  0  0  0  0  0  0  0
    2.4830   -1.0171    0.7560 H   0  0  0  0  0  0  0  0  0  0  0  0
    2.8700    1.8660    1.0000 H   0  0  0  0  0  0  0  0  0  0  0  0
    0.8150    3.0525    1.0000 H   0  0  0  0  0  0  0  0  0  0  0  0
   -1.4725    1.2383    0.9934 H   0  0  0  0  0  0  0  0  0  0  0  0
   -2.6720    2.6141   -0.3355 H   0  0  0  0  0  0  0  0  0  0  0  0
   -1.1910    2.6020   -1.0234 H   0  0  0  0  0  0  0  0  0  0  0  0
   -0.9546    4.7038    0.4720 H   0  0  0  0  0  0  0  0  0  0  0  0
   -1.4878    4.7861   -1.0693 H   0  0  0  0  0  0  0  0  0  0  0  0
   -3.7466    4.4599   -0.1627 H   0  0  0  0  0  0  0  0  0  0  0  0
   -4.4940    7.9376    0.3210 H   0  0  0  0  0  0  0  0  0  0  0  0
   -5.1803    6.4814    0.0468 H   0  0  0  0  0  0  0  0  0  0  0  0
   -4.5198    6.8115    1.5034 H   0  0  0  0  0  0  0  0  0  0  0  0
   -2.0297    8.1243    0.5528 H   0  0  0  0  0  0  0  0  0  0  0  0
   -2.0556    6.9982    1.7351 H   0  0  0  0  0  0  0  0  0  0  0  0
   -1.0948    6.7910    0.4310 H   0  0  0  0  0  0  0  0  0  0  0  0
   -3.0336    7.6226   -1.6612 H   0  0  0  0  0  0  0  0  0  0  0  0
   -2.0987    6.2893   -1.7829 H   0  0  0  0  0  0  0  0  0  0  0  0
   -3.7199    6.1664   -1.9354 H   0  0  0  0  0  0  0  0  0  0  0  0
   -4.1555    5.0471    2.0606 H   0  0  0  0  0  0  0  0  0  0  0  0
   -2.5628    5.2962    2.3214 H   0  0  0  0  0  0  0  0  0  0  0  0
   -3.4596    3.1935    3.1922 H   0  0  0  0  0  0  0  0  0  0  0  0
   -3.5834    2.7050    1.6389 H   0  0  0  0  0  0  0  0  0  0  0  0
   -1.0515    3.6494    2.4653 H   0  0  0  0  0  0  0  0  0  0  0  0
   -1.5063    2.1913    3.0432 H   0  0  0  0  0  0  0  0  0  0  0  0
    4.9007    0.4841    0.2747 H   0  0  0  0  0  0  0  0  0  0  0  0
    4.6846   -1.0969   -0.0723 H   0  0  0  0  0  0  0  0  0  0  0  0
    2.9898   -0.7864   -2.8896 H   0  0  0  0  0  0  0  0  0  0  0  0
    4.1710   -1.6049   -2.1142 H   0  0  0  0  0  0  0  0  0  0  0  0
    2.6691   -1.5396   -1.4767 H   0  0  0  0  0  0  0  0  0  0  0  0
  1  2  1  0  0  0  0
  2  3  1  0  0  0  0
  3  4  2  0  0  0  0
  4  5  1  0  0  0  0
  5  6  2  0  0  0  0
  6  7  1  0  0  0  0
  6  8  1  0  0  0  0
  8  2  2  0  0  0  0
  3  9  1  0  0  0  0
  9 10  1  0  0  0  0
 10 11  1  0  0  0  0
 11 12  1  0  0  0  0
 12 13  2  0  0  0  0
 12 14  1  0  0  0  0
 14 15  1  0  0  0  0
 15 16  1  0  0  0  0
 16 17  1  0  0  0  0
 17 18  1  0  0  0  0
 18 19  1  0  0  0  0
 19 20  1  0  0  0  0
 19 21  1  0  0  0  0
 19 22  1  0  0  0  0
 18 23  1  0  0  0  0
 23 24  1  0  0  0  0
 24 25  1  0  0  0  0
 25 15  1  0  0  0  0
 10 26  1  0  0  0  0
 26 27  1  0  0  0  0
 27 28  1  0  0  0  0
  4 29  1  0  0  0  0
  5 30  1  0  0  0  0
  8 31  1  0  0  0  0
  9 32  1  0  0  0  0
  9 33  1  0  0  0  0
 10 34  1  0  0  0  0
 11 35  1  0  0  0  0
 14 36  1  0  0  0  0
 15 37  1  0  0  0  0
 16 38  1  0  0  0  0
 16 39  1  0  0  0  0
 17 40  1  0  0  0  0
 17 41  1  0  0  0  0
 18 42  1  0  0  0  0
 20 43  1  0  0  0  0
 20 44  1  0  0  0  0
 20 45  1  0  0  0  0
 21 46  1  0  0  0  0
 21 47  1  0  0  0  0
 21 48  1  0  0  0  0
 22 49  1  0  0  0  0
 22 50  1  0  0  0  0
 22 51  1  0  0  0  0
 23 52  1  0  0  0  0
 23 53  1  0  0  0  0
 24 54  1  0  0  0  0
 24 55  1  0  0  0  0
 25 56  1  0  0  0  0
 25 57  1  0  0  0  0
 26 58  1  0  0  0  0
 26 59  1  0  0  0  0
 28 60  1  0  0  0  0
 28 61  1  0  0  0  0
 28 62  1  0  0  0  0
M  END
>  <result-rank>
59

>  <similarity>
0.947

>  <query-name>
LIG_A_1101_CCC[C@H]([R*])C1CCC1_2

>  <query-smiles>
O=C(N[C@H](C1CCC1)CCC)[C@@H](NC(=O)C)Cc2ccc(O)cc2

>  <source>
REALspace_2019-12

>  <similarity-descriptor>
1.000;0.948;0.995;1.000;1.000;1.000;1.000;0.975;0.999;0.999;0.770;0.994;1.000;0.0;0.143

>  <similarity-descriptor-smiles>
C1CCCCCC1;Fc1cc(ccc1)F;C=O;N;C1CCCCCC1;C1CCCCCC1;C1CCCCCC1;CC;CN;CN;CO;C;C;;C.C

>  <reaction-name>
s_2708

>  <reagent1-name>
17318976

>  <reagent1-smiles>
[R1*]C(=O)NC(COC)Cc1c(F)cc(F)cc1

>  <reagent2-name>
9106748

>  <reagent2-smiles>
[R1*]NC1CCC(C(C)(C)C)CCC1

$$$$
s_240690a____13308446____7414598
          04022015093D 1   1.00000     0.00000     0
            
 64 65  0  0  0  0            999 V2000
    2.8740   -0.3713    0.5734 O   0  0  0  0  0  0  0  0  0  0  0  0
    1.8776    0.1224    0.1224 C   0  0  0  0  0  0  0  0  0  0  0  0
    1.5240   -0.1094   -1.2095 N   0  0  0  0  0  0  0  0  0  0  0  0
    2.4016   -0.9652   -2.0245 C   0  0  0  0  0  0  0  0  0  0  0  0
    2.4104   -0.5432   -3.4873 C   0  0  0  0  0  0  0  0  0  0  0  0
    1.0091   -0.2770   -4.0191 C   0  0  0  0  0  0  0  0  0  0  0  0
    1.1427    0.2150   -5.4514 C   0  0  0  0  0  0  0  0  0  0  0  0
   -0.2383    0.4937   -6.0222 C   0  0  0  0  0  0  0  0  0  0  0  0
   -0.1092    0.9694   -7.4071 N   0  3  0  0  0  0  0  0  0  0  0  0
    1.9672    1.4917   -5.4738 C   0  0  0  0  0  0  0  0  0  0  0  0
    1.8325   -0.8485   -6.2902 C   0  0  0  0  0  0  0  0  0  0  0  0
    0.4108    0.8618   -3.2053 C   0  0  0  0  0  0  0  0  0  0  0  0
    0.2965    0.5178   -1.7267 C   0  0  0  0  0  0  0  0  0  0  0  0
    1.0000    1.0000    1.0000 C   0  0  0  0  0  0  0  0  0  0  0  0
    1.8776    1.8776    1.8776 C   0  0  3  0  0  0  0  0  0  0  0  0
    1.0385    2.5935    2.8494 N   0  0  0  0  0  0  0  0  0  0  0  0
    1.2401    2.4132    4.1924 C   0  0  0  0  0  0  0  0  0  0  0  0
    2.1015    1.6708    4.5755 O   0  0  0  0  0  0  0  0  0  0  0  0
    0.3725    3.1535    5.1972 C   0  0  0  0  0  0  0  0  0  0  0  0
    2.6181    2.8827    1.0098 C   0  0  0  0  0  0  0  0  0  0  0  0
    3.9722    2.7066    0.7427 C   0  0  0  0  0  0  0  0  0  0  0  0
    4.6440    1.6491    1.2466 O   0  0  0  0  0  0  0  0  0  0  0  0
    6.0504    1.5542    1.0751 C   0  0  0  0  0  0  0  0  0  0  0  0
    6.5559    0.2798    1.7314 C   0  0  0  0  0  0  0  0  0  0  0  0
    4.6500    3.6264   -0.0513 C   0  0  0  0  0  0  0  0  0  0  0  0
    3.9732    4.7221   -0.5785 C   0  0  0  0  0  0  0  0  0  0  0  0
    2.6190    4.8974   -0.3117 C   0  0  0  0  0  0  0  0  0  0  0  0
    1.9416    3.9774    0.4819 C   0  0  0  0  0  0  0  0  0  0  0  0
   -1.0177    1.1527   -7.7826 H   0  0  0  0  0  0  0  0  0  0  0  0
    0.4333    1.8093   -7.4218 H   0  0  0  0  0  0  0  0  0  0  0  0
    0.3447    0.2697   -7.9590 H   0  0  0  0  0  0  0  0  0  0  0  0
    2.0793   -1.9099   -1.9629 H   0  0  0  0  0  0  0  0  0  0  0  0
    3.3333   -0.9068   -1.6659 H   0  0  0  0  0  0  0  0  0  0  0  0
    2.9530    0.2919   -3.5780 H   0  0  0  0  0  0  0  0  0  0  0  0
    2.8274   -1.2723   -4.0300 H   0  0  0  0  0  0  0  0  0  0  0  0
    0.4397   -1.0975   -3.9686 H   0  0  0  0  0  0  0  0  0  0  0  0
   -0.7807   -0.3463   -6.0075 H   0  0  0  0  0  0  0  0  0  0  0  0
   -0.6921    1.1933   -5.4704 H   0  0  0  0  0  0  0  0  0  0  0  0
    2.0550    1.8153   -6.4159 H   0  0  0  0  0  0  0  0  0  0  0  0
    1.5134    2.1914   -4.9220 H   0  0  0  0  0  0  0  0  0  0  0  0
    2.8757    1.3084   -5.0983 H   0  0  0  0  0  0  0  0  0  0  0  0
    1.9203   -0.5249   -7.2323 H   0  0  0  0  0  0  0  0  0  0  0  0
    2.7410   -1.0318   -5.9147 H   0  0  0  0  0  0  0  0  0  0  0  0
    1.2900   -1.6884   -6.2755 H   0  0  0  0  0  0  0  0  0  0  0  0
   -0.5019    1.0652   -3.5596 H   0  0  0  0  0  0  0  0  0  0  0  0
    0.9939    1.6682   -3.3037 H   0  0  0  0  0  0  0  0  0  0  0  0
    0.1216    1.3574   -1.2125 H   0  0  0  0  0  0  0  0  0  0  0  0
   -0.4673   -0.1154   -1.6006 H   0  0  0  0  0  0  0  0  0  0  0  0
    0.4226    0.4226    1.5774 H   0  0  0  0  0  0  0  0  0  0  0  0
    0.4226    1.5774    0.4226 H   0  0  0  0  0  0  0  0  0  0  0  0
    2.5386    1.3068    2.3646 H   0  0  0  0  0  0  0  0  0  0  0  0
    0.3207    3.2122    2.5301 H   0  0  0  0  0  0  0  0  0  0  0  0
   -0.2886    3.7242    4.7102 H   0  0  0  0  0  0  0  0  0  0  0  0
   -0.1145    2.4924    5.7680 H   0  0  0  0  0  0  0  0  0  0  0  0
    0.9499    3.7308    5.7746 H   0  0  0  0  0  0  0  0  0  0  0  0
    6.4920    2.3451    1.4987 H   0  0  0  0  0  0  0  0  0  0  0  0
    6.2666    1.5348    0.0989 H   0  0  0  0  0  0  0  0  0  0  0  0
    7.5464    0.2129    1.6106 H   0  0  0  0  0  0  0  0  0  0  0  0
    6.3397    0.2991    2.7076 H   0  0  0  0  0  0  0  0  0  0  0  0
    6.1143   -0.5111    1.3078 H   0  0  0  0  0  0  0  0  0  0  0  0
    5.6233    3.5002   -0.2430 H   0  0  0  0  0  0  0  0  0  0  0  0
    4.4602    5.3833   -1.1491 H   0  0  0  0  0  0  0  0  0  0  0  0
    2.1327    5.6848   -0.6905 H   0  0  0  0  0  0  0  0  0  0  0  0
    0.9681    4.1031    0.6729 H   0  0  0  0  0  0  0  0  0  0  0  0
  1  2  2  0  0  0  0
  2  3  1  0  0  0  0
  3  4  1  0  0  0  0
  4  5  1  0  0  0  0
  5  6  1  0  0  0  0
  6  7  1  0  0  0  0
  7  8  1  0  0  0  0
  8  9  1  0  0  0  0
  7 10  1  0  0  0  0
  7 11  1  0  0  0  0
  6 12  1  0  0  0  0
 12 13  1  0  0  0  0
 13  3  1  0  0  0  0
  2 14  1  0  0  0  0
 14 15  1  0  0  0  0
 15 16  1  0  0  0  0
 16 17  1  0  0  0  0
 17 18  2  0  0  0  0
 17 19  1  0  0  0  0
 15 20  1  0  0  0  0
 20 21  1  0  0  0  0
 21 22  1  0  0  0  0
 22 23  1  0  0  0  0
 23 24  1  0  0  0  0
 21 25  2  0  0  0  0
 25 26  1  0  0  0  0
 26 27  2  0  0  0  0
 27 28  1  0  0  0  0
 28 20  2  0  0  0  0
  9 29  1  0  0  0  0
  9 30  1  0  0  0  0
  9 31  1  0  0  0  0
  4 32  1  0  0  0  0
  4 33  1  0  0  0  0
  5 34  1  0  0  0  0
  5 35  1  0  0  0  0
  6 36  1  0  0  0  0
  8 37  1  0  0  0  0
  8 38  1  0  0  0  0
 10 39  1  0  0  0  0
 10 40  1  0  0  0  0
 10 41  1  0  0  0  0
 11 42  1  0  0  0  0
 11 43  1  0  0  0  0
 11 44  1  0  0  0  0
 12 45  1  0  0  0  0
 12 46  1  0  0  0  0
 13 47  1  0  0  0  0
 13 48  1  0  0  0  0
 14 49  1  0  0  0  0
 14 50  1  0  0  0  0
 15 51  1  0  0  0  0
 16 52  1  0  0  0  0
 19 53  1  0  0  0  0
 19 54  1  0  0  0  0
 19 55  1  0  0  0  0
 23 56  1  0  0  0  0
 23 57  1  0  0  0  0
 24 58  1  0  0  0  0
 24 59  1  0  0  0  0
 24 60  1  0  0  0  0
 25 61  1  0  0  0  0
 26 62  1  0  0  0  0
 27 63  1  0  0  0  0
 28 64  1  0  0  0  0
M  CHG  1   9   1
M  END
>  <result-rank>
60

>  <similarity>
0.946

>  <query-name>
LIG_A_1101_CCC[C@H]([R*])C1CCC1_2

>  <query-smiles>
O=C(N[C@H](C1CCC1)CCC)[C@@H](NC(=O)C)Cc2ccc(O)cc2

>  <source>
REALspace_2019-12

>  <similarity-descriptor>
0.980;1.000;0.852;0.852;0.980;0.955;0.955;1.000;1.000;1.000;1.000;1.000;1.000;0.704;0.188

>  <similarity-descriptor-smiles>
N1CCCCC1;c1ccccc1;O=C;O=C;N1CCCCC1;C(C)C;C(C)C;C;CC;N;C=O;C;CC;O;[NH3+].C.C

>  <reaction-name>
s_240690a

>  <reagent1-name>
13308446

>  <reagent1-smiles>
[R1*]N1CCC(C(CN)(C)C)CC1

>  <reagent2-name>
7414598

>  <reagent2-smiles>
[R1*]C(=O)CC(NC(=O)C)c1c(OCC)cccc1

$$$$
s_527a____15421630____17513452
          04022015093D 1   1.00000     0.00000     0
            
 54 57  0  0  0  0            999 V2000
   -1.0213    2.0766    0.4260 O   0  0  0  0  0  0  0  0  0  0  0  0
    0.1224    1.8776    0.1224 C   0  0  0  0  0  0  0  0  0  0  0  0
    0.6373    2.4413   -1.0152 N   0  0  0  0  0  0  0  0  0  0  0  0
   -0.2119    3.2904   -1.8643 C   0  0  3  0  0  0  0  0  0  0  0  0
   -0.3148    2.7111   -3.2495 C   0  0  0  0  0  0  0  0  0  0  0  0
   -0.3194    4.1282   -3.7714 C   0  0  3  0  0  0  0  0  0  0  0  0
    0.2753    4.3804   -5.1421 C   0  0  3  0  0  0  0  0  0  0  0  0
   -0.8885    4.2552   -6.0810 C   0  0  0  0  0  0  0  0  0  0  0  0
   -1.7472    5.2219   -5.3019 C   0  0  3  0  0  0  0  0  0  0  0  0
   -1.7128    4.6991   -3.8764 C   0  0  0  0  0  0  0  0  0  0  0  0
   -0.9049    6.4767   -5.2366 C   0  0  0  0  0  0  0  0  0  0  0  0
    0.4756    5.8795   -5.2703 C   0  0  0  0  0  0  0  0  0  0  0  0
    0.6459    4.2835   -2.6180 C   0  0  0  0  0  0  0  0  0  0  0  0
    1.0000    1.0000    1.0000 C   0  0  3  0  0  0  0  0  0  0  0  0
    1.8487    0.1513    0.1513 N   0  0  0  0  0  0  0  0  0  0  0  0
    1.7598   -1.2129    0.2402 C   0  0  0  0  0  0  0  0  0  0  0  0
    0.9891   -1.7150    1.0109 O   0  0  0  0  0  0  0  0  0  0  0  0
    2.6374   -2.0905   -0.6374 C   0  0  0  0  0  0  0  0  0  0  0  0
    1.8776    1.8776    1.8776 C   0  0  0  0  0  0  0  0  0  0  0  0
    1.0000    2.7552    2.7552 C   0  0  0  0  0  0  0  0  0  0  0  0
    0.6049    2.2940    4.0066 C   0  0  0  0  0  0  0  0  0  0  0  0
   -0.1975    3.0939    4.8134 C   0  0  0  0  0  0  0  0  0  0  0  0
   -0.5947    4.3470    4.3576 C   0  0  0  0  0  0  0  0  0  0  0  0
   -1.3737    5.1264    5.1372 O   0  0  0  0  0  0  0  0  0  0  0  0
   -0.2026    4.8128    3.1068 C   0  0  0  0  0  0  0  0  0  0  0  0
    0.6001    4.0090    2.3044 C   0  0  0  0  0  0  0  0  0  0  0  0
    1.5904    2.2754   -1.2682 H   0  0  0  0  0  0  0  0  0  0  0  0
   -1.0553    3.6393   -1.4558 H   0  0  0  0  0  0  0  0  0  0  0  0
    0.4736    2.1650   -3.5327 H   0  0  0  0  0  0  0  0  0  0  0  0
   -1.1555    2.1991   -3.4259 H   0  0  0  0  0  0  0  0  0  0  0  0
    1.0720    3.8214   -5.3718 H   0  0  0  0  0  0  0  0  0  0  0  0
   -1.2684    3.3309   -6.1179 H   0  0  0  0  0  0  0  0  0  0  0  0
   -0.6832    4.5684   -7.0083 H   0  0  0  0  0  0  0  0  0  0  0  0
   -2.6656    5.3560   -5.6740 H   0  0  0  0  0  0  0  0  0  0  0  0
   -1.8512    5.4380   -3.2170 H   0  0  0  0  0  0  0  0  0  0  0  0
   -2.4049    3.9914   -3.7342 H   0  0  0  0  0  0  0  0  0  0  0  0
   -1.0664    6.9866   -4.3917 H   0  0  0  0  0  0  0  0  0  0  0  0
   -1.0688    7.0731   -6.0224 H   0  0  0  0  0  0  0  0  0  0  0  0
    0.9296    6.0984   -6.1340 H   0  0  0  0  0  0  0  0  0  0  0  0
    1.0240    6.2248   -4.5087 H   0  0  0  0  0  0  0  0  0  0  0  0
    0.6752    5.1993   -2.2176 H   0  0  0  0  0  0  0  0  0  0  0  0
    1.5773    3.9726   -2.8074 H   0  0  0  0  0  0  0  0  0  0  0  0
    0.4226    0.4226    1.5774 H   0  0  0  0  0  0  0  0  0  0  0  0
    2.4909    0.5697   -0.4909 H   0  0  0  0  0  0  0  0  0  0  0  0
    3.2147   -1.5131   -1.2147 H   0  0  0  0  0  0  0  0  0  0  0  0
    3.2147   -2.6678   -0.0600 H   0  0  0  0  0  0  0  0  0  0  0  0
    2.0600   -2.6678   -1.2147 H   0  0  0  0  0  0  0  0  0  0  0  0
    2.4549    1.3002    2.4549 H   0  0  0  0  0  0  0  0  0  0  0  0
    2.4549    2.4549    1.3002 H   0  0  0  0  0  0  0  0  0  0  0  0
    0.8963    1.3918    4.3246 H   0  0  0  0  0  0  0  0  0  0  0  0
   -0.4868    2.7706    5.7144 H   0  0  0  0  0  0  0  0  0  0  0  0
   -1.6617    6.0278    4.8140 H   0  0  0  0  0  0  0  0  0  0  0  0
   -0.4944    5.7147    2.7884 H   0  0  0  0  0  0  0  0  0  0  0  0
    0.8898    4.3323    1.4035 H   0  0  0  0  0  0  0  0  0  0  0  0
  1  2  2  0  0  0  0
  2  3  1  0  0  0  0
  3  4  1  0  0  0  0
  4  5  1  0  0  0  0
  5  6  1  0  0  0  0
  6  7  1  0  0  0  0
  7  8  1  0  0  0  0
  8  9  1  0  0  0  0
  9 10  1  0  0  0  0
 10  6  1  0  0  0  0
  9 11  1  0  0  0  0
 11 12  1  0  0  0  0
 12  7  1  0  0  0  0
  6 13  1  0  0  0  0
 13  4  1  0  0  0  0
  2 14  1  0  0  0  0
 14 15  1  0  0  0  0
 15 16  1  0  0  0  0
 16 17  2  0  0  0  0
 16 18  1  0  0  0  0
 14 19  1  0  0  0  0
 19 20  1  0  0  0  0
 20 21  1  0  0  0  0
 21 22  2  0  0  0  0
 22 23  1  0  0  0  0
 23 24  1  0  0  0  0
 23 25  2  0  0  0  0
 25 26  1  0  0  0  0
 26 20  2  0  0  0  0
  3 27  1  0  0  0  0
  4 28  1  0  0  0  0
  5 29  1  0  0  0  0
  5 30  1  0  0  0  0
  7 31  1  0  0  0  0
  8 32  1  0  0  0  0
  8 33  1  0  0  0  0
  9 34  1  0  0  0  0
 10 35  1  0  0  0  0
 10 36  1  0  0  0  0
 11 37  1  0  0  0  0
 11 38  1  0  0  0  0
 12 39  1  0  0  0  0
 12 40  1  0  0  0  0
 13 41  1  0  0  0  0
 13 42  1  0  0  0  0
 14 43  1  0  0  0  0
 15 44  1  0  0  0  0
 18 45  1  0  0  0  0
 18 46  1  0  0  0  0
 18 47  1  0  0  0  0
 19 48  1  0  0  0  0
 19 49  1  0  0  0  0
 21 50  1  0  0  0  0
 22 51  1  0  0  0  0
 24 52  1  0  0  0  0
 25 53  1  0  0  0  0
 26 54  1  0  0  0  0
M  END
>  <result-rank>
61

>  <similarity>
0.946

>  <query-name>
LIG_A_1101_CCC[C@H]([R*])C1CCC1_2

>  <query-smiles>
O=C(N[C@H](C1CCC1)CCC)[C@@H](NC(=O)C)Cc2ccc(O)cc2

>  <source>
REALspace_2019-12

>  <similarity-descriptor>
0.930;1.000;1.000;1.000;0.895;0.895;0.895;0.0;1.000;1.000;1.000;1.000;1.000;1.000;0.083

>  <similarity-descriptor-smiles>
C1CCCC1;c1ccccc1;O=C;N;C1CCC1;C1CCC1;C1CCC1;;C;N;C=O;C;C;O;C1CCCC1

>  <reaction-name>
s_527a

>  <reagent1-name>
15421630

>  <reagent1-smiles>
[R1*]NC1CC2(C3CC(C2)CC3)C1

>  <reagent2-name>
17513452

>  <reagent2-smiles>
[R1*]C(=O)C(NC(=O)C)Cc1ccc(O)cc1

$$$$
s_527a____9322548____217438
          04022015093D 1   1.00000     0.00000     0
            
 42 42  0  0  0  0            999 V2000
    1.6287   -2.8076   -4.4731 Cl  0  0  0  0  0  0  0  0  0  0  0  0
    2.0403   -1.5646   -3.2675 C   0  0  0  0  0  0  0  0  0  0  0  0
    2.8044   -1.9046   -2.1567 C   0  0  0  0  0  0  0  0  0  0  0  0
    3.1278   -0.9363   -1.2116 C   0  0  0  0  0  0  0  0  0  0  0  0
    2.6787    0.3673   -1.3944 C   0  0  0  0  0  0  0  0  0  0  0  0
    1.9143    0.7077   -2.5049 C   0  0  0  0  0  0  0  0  0  0  0  0
    1.5908   -0.2609   -3.4501 C   0  0  0  0  0  0  0  0  0  0  0  0
    3.0267    1.4309   -0.3667 C   0  0  3  0  0  0  0  0  0  0  0  0
    4.4855    1.6046   -0.3161 N   0  0  0  0  0  0  0  0  0  0  0  0
    5.0404    2.8242   -0.6018 C   0  0  0  0  0  0  0  0  0  0  0  0
    4.3356    3.7506   -0.8934 O   0  0  0  0  0  0  0  0  0  0  0  0
    6.5489    3.0038   -0.5495 C   0  0  0  0  0  0  0  0  0  0  0  0
    2.5200    1.0000    1.0000 C   0  0  0  0  0  0  0  0  0  0  0  0
    1.0000    1.0000    1.0000 C   0  0  0  0  0  0  0  0  0  0  0  0
    0.4000    1.0000   -0.0392 O   0  0  0  0  0  0  0  0  0  0  0  0
    0.3150    1.0000    2.1865 N   0  0  0  0  0  0  0  0  0  0  0  0
   -1.1550    1.0000    2.1865 C   0  0  3  0  0  0  0  0  0  0  0  0
   -1.6617    2.2411    2.9030 C   0  0  0  0  0  0  0  0  0  0  0  0
   -1.1883    3.4005    2.2336 O   0  0  0  0  0  0  0  0  0  0  0  0
   -1.6617   -0.2411    2.9030 C   0  0  0  0  0  0  0  0  0  0  0  0
   -3.1817   -0.2411    2.9030 C   0  0  0  0  0  0  0  0  0  0  0  0
   -3.6250   -0.2411    1.6491 F   0  0  0  0  0  0  0  0  0  0  0  0
   -3.6250   -1.3270    3.5300 F   0  0  0  0  0  0  0  0  0  0  0  0
    3.1216   -2.8454   -2.0371 H   0  0  0  0  0  0  0  0  0  0  0  0
    3.6767   -1.1747   -0.4104 H   0  0  0  0  0  0  0  0  0  0  0  0
    1.5971    1.6485   -2.6242 H   0  0  0  0  0  0  0  0  0  0  0  0
    1.0417   -0.0225   -4.2512 H   0  0  0  0  0  0  0  0  0  0  0  0
    2.5967    2.2963   -0.6240 H   0  0  0  0  0  0  0  0  0  0  0  0
    5.0728    0.8326   -0.0731 H   0  0  0  0  0  0  0  0  0  0  0  0
    6.9789    2.1384   -0.2922 H   0  0  0  0  0  0  0  0  0  0  0  0
    6.8822    3.2873   -1.4486 H   0  0  0  0  0  0  0  0  0  0  0  0
    6.7779    3.7039    0.1269 H   0  0  0  0  0  0  0  0  0  0  0  0
    2.8533    0.0795    1.2041 H   0  0  0  0  0  0  0  0  0  0  0  0
    2.8533    1.6370    1.6951 H   0  0  0  0  0  0  0  0  0  0  0  0
    0.8150    1.0000    3.0525 H   0  0  0  0  0  0  0  0  0  0  0  0
   -1.4883    1.0000    1.2436 H   0  0  0  0  0  0  0  0  0  0  0  0
   -2.6617    2.2411    2.9030 H   0  0  0  0  0  0  0  0  0  0  0  0
   -1.3283    2.2411    3.8458 H   0  0  0  0  0  0  0  0  0  0  0  0
   -1.5217    4.2170    2.7050 H   0  0  0  0  0  0  0  0  0  0  0  0
   -1.3283   -0.2411    3.8458 H   0  0  0  0  0  0  0  0  0  0  0  0
   -1.3283   -1.0576    2.4316 H   0  0  0  0  0  0  0  0  0  0  0  0
   -3.5150    0.5754    3.3744 H   0  0  0  0  0  0  0  0  0  0  0  0
  1  2  1  0  0  0  0
  2  3  1  0  0  0  0
  3  4  2  0  0  0  0
  4  5  1  0  0  0  0
  5  6  2  0  0  0  0
  6  7  1  0  0  0  0
  7  2  2  0  0  0  0
  5  8  1  0  0  0  0
  8  9  1  0  0  0  0
  9 10  1  0  0  0  0
 10 11  2  0  0  0  0
 10 12  1  0  0  0  0
  8 13  1  0  0  0  0
 13 14  1  0  0  0  0
 14 15  2  0  0  0  0
 14 16  1  0  0  0  0
 16 17  1  0  0  0  0
 17 18  1  0  0  0  0
 18 19  1  0  0  0  0
 17 20  1  0  0  0  0
 20 21  1  0  0  0  0
 21 22  1  0  0  0  0
 21 23  1  0  0  0  0
  3 24  1  0  0  0  0
  4 25  1  0  0  0  0
  6 26  1  0  0  0  0
  7 27  1  0  0  0  0
  8 28  1  0  0  0  0
  9 29  1  0  0  0  0
 12 30  1  0  0  0  0
 12 31  1  0  0  0  0
 12 32  1  0  0  0  0
 13 33  1  0  0  0  0
 13 34  1  0  0  0  0
 16 35  1  0  0  0  0
 17 36  1  0  0  0  0
 18 37  1  0  0  0  0
 18 38  1  0  0  0  0
 19 39  1  0  0  0  0
 20 40  1  0  0  0  0
 20 41  1  0  0  0  0
 21 42  1  0  0  0  0
M  END
>  <result-rank>
62

>  <similarity>
0.946

>  <query-name>
LIG_A_1101_CCC[C@H]([R*])C1CCC1_2

>  <query-smiles>
O=C(N[C@H](C1CCC1)CCC)[C@@H](NC(=O)C)Cc2ccc(O)cc2

>  <source>
REALspace_2019-12

>  <similarity-descriptor>
0.0;0.968;1.000;1.000;0.996;0.996;0.986;0.986;1.000;1.000;1.000;1.000;1.000;0.0;0.077

>  <similarity-descriptor-smiles>
;Clc1ccccc1;C=O;N;CC;CC;CC(F)F;CC(F)F;CC;N;C=O;C;CC;;O

>  <reaction-name>
s_527a

>  <reagent1-name>
9322548

>  <reagent1-smiles>
[R1*]NC(CO)CC(F)F

>  <reagent2-name>
217438

>  <reagent2-smiles>
[R1*]C(=O)CC(NC(=O)C)c1ccc(Cl)cc1

$$$$
s_22____16911156____13287762
          04022015093D 1   1.00000     0.00000     0
            
 60 61  0  0  0  0            999 V2000
    5.0222    0.5711    7.3289 Br  0  0  0  0  0  0  0  0  0  0  0  0
    4.4183    0.3290    5.4800 C   0  0  0  0  0  0  0  0  0  0  0  0
    3.1754   -0.2438    5.2305 C   0  0  0  0  0  0  0  0  0  0  0  0
    2.7523   -0.4130    3.9163 C   0  0  0  0  0  0  0  0  0  0  0  0
    3.5738   -0.0090    2.8690 C   0  0  0  0  0  0  0  0  0  0  0  0
    4.8157    0.5633    3.1258 C   0  0  0  0  0  0  0  0  0  0  0  0
    5.2456    0.7355    4.4376 C   0  0  0  0  0  0  0  0  0  0  0  0
    3.1050   -0.1963    1.4354 C   0  0  0  0  0  0  0  0  0  0  0  0
    2.3700    1.0000    1.0000 N   0  0  0  0  0  0  0  0  0  0  0  0
    1.0000    1.0000    1.0000 C   0  0  0  0  0  0  0  0  0  0  0  0
    0.4000   -0.0392    1.0000 O   0  0  0  0  0  0  0  0  0  0  0  0
    0.2402    2.3160    1.0000 C   0  0  0  0  0  0  0  0  0  0  0  0
   -1.2145    2.0788    0.6307 C   0  0  0  0  0  0  0  0  0  0  0  0
   -2.0242    3.3674    0.6805 C   0  0  0  0  0  0  0  0  0  0  0  0
   -1.2155    4.5106    1.1328 N   0  3  0  0  0  0  0  0  0  0  0  0
   -2.0382    5.7262    1.2171 C   0  0  0  0  0  0  0  0  0  0  0  0
   -2.2043    6.3229   -0.1709 C   0  0  0  0  0  0  0  0  0  0  0  0
   -3.0549    7.5797   -0.0837 C   0  0  0  0  0  0  0  0  0  0  0  0
   -0.8386    6.6738   -0.7384 C   0  0  0  0  0  0  0  0  0  0  0  0
   -0.5709    4.2263    2.4239 C   0  0  0  0  0  0  0  0  0  0  0  0
    0.2486    2.9434    2.3845 C   0  0  0  0  0  0  0  0  0  0  0  0
    3.1050    2.1963    0.5646 C   0  0  0  0  0  0  0  0  0  0  0  0
    3.2232    2.1947   -0.9508 C   0  0  0  0  0  0  0  0  0  0  0  0
    2.7473    1.2966   -1.5888 O   0  0  0  0  0  0  0  0  0  0  0  0
    3.8731    3.2185   -1.5883 N   0  0  0  0  0  0  0  0  0  0  0  0
    3.9874    3.2170   -3.0538 C   0  0  0  0  0  0  0  0  0  0  0  0
    4.4561    4.3186   -0.8067 C   0  0  0  0  0  0  0  0  0  0  0  0
   -0.4969    4.6690    0.4557 H   0  0  0  0  0  0  0  0  0  0  0  0
    2.5912   -0.5315    5.9894 H   0  0  0  0  0  0  0  0  0  0  0  0
    1.8607   -0.8236    3.7250 H   0  0  0  0  0  0  0  0  0  0  0  0
    5.3998    0.8511    2.3668 H   0  0  0  0  0  0  0  0  0  0  0  0
    6.1372    1.1459    4.6288 H   0  0  0  0  0  0  0  0  0  0  0  0
    3.8971   -0.3355    0.8412 H   0  0  0  0  0  0  0  0  0  0  0  0
    2.5044   -0.9941    1.3826 H   0  0  0  0  0  0  0  0  0  0  0  0
    0.6561    2.9447    0.3430 H   0  0  0  0  0  0  0  0  0  0  0  0
   -1.6095    1.4226    1.2736 H   0  0  0  0  0  0  0  0  0  0  0  0
   -1.2570    1.7048   -0.2958 H   0  0  0  0  0  0  0  0  0  0  0  0
   -2.3760    3.5630   -0.2348 H   0  0  0  0  0  0  0  0  0  0  0  0
   -2.7894    3.2434    1.3123 H   0  0  0  0  0  0  0  0  0  0  0  0
   -1.5900    6.3913    1.8144 H   0  0  0  0  0  0  0  0  0  0  0  0
   -2.9368    5.4954    1.5904 H   0  0  0  0  0  0  0  0  0  0  0  0
   -2.6526    5.6579   -0.7682 H   0  0  0  0  0  0  0  0  0  0  0  0
   -3.1641    7.9723   -0.9969 H   0  0  0  0  0  0  0  0  0  0  0  0
   -3.9534    7.3488    0.2896 H   0  0  0  0  0  0  0  0  0  0  0  0
   -2.6066    8.2447    0.5136 H   0  0  0  0  0  0  0  0  0  0  0  0
   -0.9479    7.0664   -1.6516 H   0  0  0  0  0  0  0  0  0  0  0  0
   -0.3903    7.3389   -0.1411 H   0  0  0  0  0  0  0  0  0  0  0  0
   -0.2790    5.8470   -0.7958 H   0  0  0  0  0  0  0  0  0  0  0  0
   -1.2785    4.1355    3.1247 H   0  0  0  0  0  0  0  0  0  0  0  0
    0.0335    4.9880    2.6572 H   0  0  0  0  0  0  0  0  0  0  0  0
    1.1924    3.1533    2.6399 H   0  0  0  0  0  0  0  0  0  0  0  0
   -0.1366    2.2921    3.0382 H   0  0  0  0  0  0  0  0  0  0  0  0
    4.0190    2.1920    0.9702 H   0  0  0  0  0  0  0  0  0  0  0  0
    2.6132    3.0155    0.8597 H   0  0  0  0  0  0  0  0  0  0  0  0
    4.4874    4.0308   -3.3500 H   0  0  0  0  0  0  0  0  0  0  0  0
    4.4792    2.3978   -3.3489 H   0  0  0  0  0  0  0  0  0  0  0  0
    3.0734    3.2213   -3.4595 H   0  0  0  0  0  0  0  0  0  0  0  0
    4.8888    4.9743   -1.4255 H   0  0  0  0  0  0  0  0  0  0  0  0
    3.7351    4.7767   -0.2868 H   0  0  0  0  0  0  0  0  0  0  0  0
    5.1409    3.9532   -0.1762 H   0  0  0  0  0  0  0  0  0  0  0  0
  1  2  1  0  0  0  0
  2  3  1  0  0  0  0
  3  4  2  0  0  0  0
  4  5  1  0  0  0  0
  5  6  2  0  0  0  0
  6  7  1  0  0  0  0
  7  2  2  0  0  0  0
  5  8  1  0  0  0  0
  8  9  1  0  0  0  0
  9 10  1  0  0  0  0
 10 11  2  0  0  0  0
 10 12  1  0  0  0  0
 12 13  1  0  0  0  0
 13 14  1  0  0  0  0
 14 15  1  0  0  0  0
 15 16  1  0  0  0  0
 16 17  1  0  0  0  0
 17 18  1  0  0  0  0
 17 19  1  0  0  0  0
 15 20  1  0  0  0  0
 20 21  1  0  0  0  0
 21 12  1  0  0  0  0
  9 22  1  0  0  0  0
 22 23  1  0  0  0  0
 23 24  2  0  0  0  0
 23 25  1  0  0  0  0
 25 26  1  0  0  0  0
 25 27  1  0  0  0  0
 15 28  1  0  0  0  0
  3 29  1  0  0  0  0
  4 30  1  0  0  0  0
  6 31  1  0  0  0  0
  7 32  1  0  0  0  0
  8 33  1  0  0  0  0
  8 34  1  0  0  0  0
 12 35  1  0  0  0  0
 13 36  1  0  0  0  0
 13 37  1  0  0  0  0
 14 38  1  0  0  0  0
 14 39  1  0  0  0  0
 16 40  1  0  0  0  0
 16 41  1  0  0  0  0
 17 42  1  0  0  0  0
 18 43  1  0  0  0  0
 18 44  1  0  0  0  0
 18 45  1  0  0  0  0
 19 46  1  0  0  0  0
 19 47  1  0  0  0  0
 19 48  1  0  0  0  0
 20 49  1  0  0  0  0
 20 50  1  0  0  0  0
 21 51  1  0  0  0  0
 21 52  1  0  0  0  0
 22 53  1  0  0  0  0
 22 54  1  0  0  0  0
 26 55  1  0  0  0  0
 26 56  1  0  0  0  0
 26 57  1  0  0  0  0
 27 58  1  0  0  0  0
 27 59  1  0  0  0  0
 27 60  1  0  0  0  0
M  CHG  1  15   1
M  END
>  <result-rank>
63

>  <similarity>
0.946

>  <query-name>
LIG_A_1101_CCC[C@H]([R*])C1CCC1_2

>  <query-smiles>
O=C(N[C@H](C1CCC1)CCC)[C@@H](NC(=O)C)Cc2ccc(O)cc2

>  <source>
REALspace_2019-12

>  <similarity-descriptor>
0.991;0.962;1.000;0.991;0.991;0.972;0.972;1.000;0.953;0.852;0.852;0.977;0.953;0.0;0.143

>  <similarity-descriptor-smiles>
C1CC[NH+]CC1;Brc1ccccc1;C=O;C1CC[NH+]CC1;C1CC[NH+]CC1;CC;CC;C;CNC;C=O;C=O;NC;CNC;;C.C

>  <reaction-name>
s_22

>  <reagent1-name>
16911156

>  <reagent1-smiles>
[R1*]N(Cc1ccc(Br)cc1)CC(=O)N(C)C

>  <reagent2-name>
13287762

>  <reagent2-smiles>
[R1*]C(=O)C1CCN(CC(C)C)CC1

$$$$
s_2708____9163340____5904686
          04022015093D 1   1.00000     0.00000     0
            
 63 65  0  0  0  0            999 V2000
    0.9150    1.0000    3.2257 O   0  0  0  0  0  0  0  0  0  0  0  0
    0.3150    1.0000    2.1865 C   0  0  0  0  0  0  0  0  0  0  0  0
    1.0000    1.0000    1.0000 N   0  0  0  0  0  0  0  0  0  0  0  0
    2.4700    1.0000    1.0000 C   0  0  3  0  0  0  0  0  0  0  0  0
    2.9767   -0.0133   -0.0133 C   0  0  0  0  0  0  0  0  0  0  0  0
    2.2887   -0.3248   -0.9459 O   0  0  0  0  0  0  0  0  0  0  0  0
    4.2188   -0.5711    0.1380 N   0  0  0  0  0  0  0  0  0  0  0  0
    4.8163   -1.2501   -0.9309 C   0  0  0  0  0  0  0  0  0  0  0  0
    4.6016   -2.6159   -1.0854 C   0  0  0  0  0  0  0  0  0  0  0  0
    5.1967   -3.2870   -2.1486 C   0  0  0  0  0  0  0  0  0  0  0  0
    5.9995   -2.5926   -3.0472 C   0  0  0  0  0  0  0  0  0  0  0  0
    6.2067   -1.2270   -2.8833 C   0  0  0  0  0  0  0  0  0  0  0  0
    5.6170   -0.5455   -1.8238 C   0  0  0  0  0  0  0  0  0  0  0  0
    4.9243   -0.4568    1.4226 C   0  0  0  0  0  0  0  0  0  0  0  0
    2.9767    2.3842    0.6291 C   0  0  0  0  0  0  0  0  0  0  0  0
    3.1456    3.2167    1.8900 C   0  0  0  0  0  0  0  0  0  0  0  0
    2.0829    3.9831    2.3572 C   0  0  0  0  0  0  0  0  0  0  0  0
    2.2420    4.7440    3.5108 C   0  0  0  0  0  0  0  0  0  0  0  0
    3.4564    4.7338    4.1888 C   0  0  0  0  0  0  0  0  0  0  0  0
    4.5109    3.9641    3.7131 C   0  0  0  0  0  0  0  0  0  0  0  0
    4.3646    3.1994    2.5603 C   0  0  0  0  0  0  0  0  0  0  0  0
   -1.0550    1.0000    2.1865 N   0  0  0  0  0  0  0  0  0  0  0  0
   -1.7898    1.0000    3.4591 C   0  0  3  0  0  0  0  0  0  0  0  0
   -2.6812   -0.2268    3.5864 C   0  0  0  0  0  0  0  0  0  0  0  0
   -4.0155   -0.1154    2.8632 C   0  0  0  0  0  0  0  0  0  0  0  0
   -5.1021    0.4211    3.7823 C   0  0  3  0  0  0  0  0  0  0  0  0
   -5.0029    1.9163    4.0529 C   0  0  0  0  0  0  0  0  0  0  0  0
   -3.6507    2.3267    4.6104 C   0  0  0  0  0  0  0  0  0  0  0  0
   -2.5807    2.2997    3.5288 C   0  0  0  0  0  0  0  0  0  0  0  0
   -6.4486    0.1579    3.1293 C   0  0  0  0  0  0  0  0  0  0  0  0
    0.5000    1.0000    0.1340 H   0  0  0  0  0  0  0  0  0  0  0  0
    2.8033    0.7560    1.9107 H   0  0  0  0  0  0  0  0  0  0  0  0
    4.0237   -3.1115   -0.4370 H   0  0  0  0  0  0  0  0  0  0  0  0
    5.0472   -4.2686   -2.2669 H   0  0  0  0  0  0  0  0  0  0  0  0
    6.4277   -3.0751   -3.8113 H   0  0  0  0  0  0  0  0  0  0  0  0
    6.7842   -0.7314   -3.5320 H   0  0  0  0  0  0  0  0  0  0  0  0
    5.7663    0.4362   -1.7059 H   0  0  0  0  0  0  0  0  0  0  0  0
    4.3585    0.0547    2.0693 H   0  0  0  0  0  0  0  0  0  0  0  0
    5.1036   -1.3706    1.7869 H   0  0  0  0  0  0  0  0  0  0  0  0
    5.7907    0.0234    1.2854 H   0  0  0  0  0  0  0  0  0  0  0  0
    3.8576    2.3029    0.1629 H   0  0  0  0  0  0  0  0  0  0  0  0
    2.3180    2.8287    0.0220 H   0  0  0  0  0  0  0  0  0  0  0  0
    1.2110    3.9870    1.8674 H   0  0  0  0  0  0  0  0  0  0  0  0
    1.4832    5.2984    3.8526 H   0  0  0  0  0  0  0  0  0  0  0  0
    3.5707    5.2803    5.0184 H   0  0  0  0  0  0  0  0  0  0  0  0
    5.3823    3.9598    4.2036 H   0  0  0  0  0  0  0  0  0  0  0  0
    5.1240    2.6457    2.2187 H   0  0  0  0  0  0  0  0  0  0  0  0
   -1.5550    1.0000    1.3204 H   0  0  0  0  0  0  0  0  0  0  0  0
   -1.1275    0.9906    4.2083 H   0  0  0  0  0  0  0  0  0  0  0  0
   -2.8641   -0.3806    4.5575 H   0  0  0  0  0  0  0  0  0  0  0  0
   -2.1876   -1.0117    3.2119 H   0  0  0  0  0  0  0  0  0  0  0  0
   -3.9129    0.5039    2.0848 H   0  0  0  0  0  0  0  0  0  0  0  0
   -4.2845   -1.0210    2.5355 H   0  0  0  0  0  0  0  0  0  0  0  0
   -5.0622   -0.0695    4.6528 H   0  0  0  0  0  0  0  0  0  0  0  0
   -5.7104    2.1689    4.7128 H   0  0  0  0  0  0  0  0  0  0  0  0
   -5.1567    2.4068    3.1951 H   0  0  0  0  0  0  0  0  0  0  0  0
   -3.7177    3.2533    4.9805 H   0  0  0  0  0  0  0  0  0  0  0  0
   -3.3929    1.6939    5.3406 H   0  0  0  0  0  0  0  0  0  0  0  0
   -3.0258    2.4429    2.6448 H   0  0  0  0  0  0  0  0  0  0  0  0
   -1.9397    3.0470    3.7042 H   0  0  0  0  0  0  0  0  0  0  0  0
   -7.1784    0.5038    3.7190 H   0  0  0  0  0  0  0  0  0  0  0  0
   -6.4865    0.6224    2.2446 H   0  0  0  0  0  0  0  0  0  0  0  0
   -6.5671   -0.8259    2.9945 H   0  0  0  0  0  0  0  0  0  0  0  0
  1  2  2  0  0  0  0
  2  3  1  0  0  0  0
  3  4  1  0  0  0  0
  4  5  1  0  0  0  0
  5  6  2  0  0  0  0
  5  7  1  0  0  0  0
  7  8  1  0  0  0  0
  8  9  1  0  0  0  0
  9 10  2  0  0  0  0
 10 11  1  0  0  0  0
 11 12  2  0  0  0  0
 12 13  1  0  0  0  0
 13  8  2  0  0  0  0
  7 14  1  0  0  0  0
  4 15  1  0  0  0  0
 15 16  1  0  0  0  0
 16 17  1  0  0  0  0
 17 18  2  0  0  0  0
 18 19  1  0  0  0  0
 19 20  2  0  0  0  0
 20 21  1  0  0  0  0
 21 16  2  0  0  0  0
  2 22  1  0  0  0  0
 22 23  1  0  0  0  0
 23 24  1  0  0  0  0
 24 25  1  0  0  0  0
 25 26  1  0  0  0  0
 26 27  1  0  0  0  0
 27 28  1  0  0  0  0
 28 29  1  0  0  0  0
 29 23  1  0  0  0  0
 26 30  1  0  0  0  0
  3 31  1  0  0  0  0
  4 32  1  0  0  0  0
  9 33  1  0  0  0  0
 10 34  1  0  0  0  0
 11 35  1  0  0  0  0
 12 36  1  0  0  0  0
 13 37  1  0  0  0  0
 14 38  1  0  0  0  0
 14 39  1  0  0  0  0
 14 40  1  0  0  0  0
 15 41  1  0  0  0  0
 15 42  1  0  0  0  0
 17 43  1  0  0  0  0
 18 44  1  0  0  0  0
 19 45  1  0  0  0  0
 20 46  1  0  0  0  0
 21 47  1  0  0  0  0
 22 48  1  0  0  0  0
 23 49  1  0  0  0  0
 24 50  1  0  0  0  0
 24 51  1  0  0  0  0
 25 52  1  0  0  0  0
 25 53  1  0  0  0  0
 26 54  1  0  0  0  0
 27 55  1  0  0  0  0
 27 56  1  0  0  0  0
 28 57  1  0  0  0  0
 28 58  1  0  0  0  0
 29 59  1  0  0  0  0
 29 60  1  0  0  0  0
 30 61  1  0  0  0  0
 30 62  1  0  0  0  0
 30 63  1  0  0  0  0
M  END
>  <result-rank>
64

>  <similarity>
0.946

>  <query-name>
LIG_A_1101_CCC[C@H]([R*])C1CCC1_2

>  <query-smiles>
O=C(N[C@H](C1CCC1)CCC)[C@@H](NC(=O)C)Cc2ccc(O)cc2

>  <source>
REALspace_2019-12

>  <similarity-descriptor>
1.000;0.960;0.995;1.000;1.000;1.000;1.000;1.000;1.000;1.000;1.000;0.977;1.000;0.0;0.083

>  <similarity-descriptor-smiles>
C1CCCCCC1;c1ccccc1;O=C;N;C1CCCCCC1;C1CCCCCC1;C1CCCCCC1;C;NC;NC;C=O;NC;C;;c1ccccc1

>  <reaction-name>
s_2708

>  <reagent1-name>
9163340

>  <reagent1-smiles>
[R1*]C(=O)NC1CCC(CCC1)C

>  <reagent2-name>
5904686

>  <reagent2-smiles>
[R1*]NC(C(=O)N(c1ccccc1)C)Cc2ccccc2

$$$$
s_2708____3191936____7940594
          04022015093D 1   1.00000     0.00000     0
            
 57 58  0  0  0  0            999 V2000
    0.4000   -0.0392    1.0000 O   0  0  0  0  0  0  0  0  0  0  0  0
    1.0000    1.0000    1.0000 C   0  0  0  0  0  0  0  0  0  0  0  0
    2.3700    1.0000    1.0000 N   0  0  0  0  0  0  0  0  0  0  0  0
    3.1050   -0.2731    1.0000 C   0  0  3  0  0  0  0  0  0  0  0  0
    3.9789   -0.3536   -0.2411 C   0  0  0  0  0  0  0  0  0  0  0  0
    5.2596   -0.8875   -0.1429 C   0  0  0  0  0  0  0  0  0  0  0  0
    6.0625   -0.9639   -1.2760 C   0  0  0  0  0  0  0  0  0  0  0  0
    5.5732   -0.5050   -2.4949 C   0  0  0  0  0  0  0  0  0  0  0  0
    6.3492   -0.5769   -3.5971 O   0  0  0  0  0  0  0  0  0  0  0  0
    7.6587   -1.1192   -3.5093 C   0  0  0  0  0  0  0  0  0  0  0  0
    4.2933    0.0302   -2.5985 C   0  0  0  0  0  0  0  0  0  0  0  0
    3.4946    0.1038   -1.4624 C   0  0  0  0  0  0  0  0  0  0  0  0
    3.9789   -0.3536    2.2411 C   0  0  0  0  0  0  0  0  0  0  0  0
    3.1625   -0.2784    3.4005 O   0  0  0  0  0  0  0  0  0  0  0  0
    3.1050    2.2731    1.0000 C   0  0  0  0  0  0  0  0  0  0  0  0
    0.3150    2.1865    1.0000 N   0  0  0  0  0  0  0  0  0  0  0  0
   -1.1548    2.1865    1.0000 C   0  0  3  0  0  0  0  0  0  0  0  0
   -1.6790    2.8999   -0.2357 C   0  0  3  0  0  0  0  0  0  0  0  0
   -3.1991    2.9037   -0.2279 C   0  0  0  0  0  0  0  0  0  0  0  0
   -3.7180    3.5935    1.0233 C   0  0  0  0  0  0  0  0  0  0  0  0
   -3.1934    2.8795    2.2586 C   0  0  0  0  0  0  0  0  0  0  0  0
   -1.6734    2.8711    2.2543 C   0  0  0  0  0  0  0  0  0  0  0  0
   -1.1625    2.2070   -1.4862 C   0  0  0  0  0  0  0  0  0  0  0  0
   -1.6900    2.9249   -2.7177 C   0  0  0  0  0  0  0  0  0  0  0  0
   -1.1735    2.2321   -3.9682 C   0  0  0  0  0  0  0  0  0  0  0  0
    2.4552   -1.0331    1.0000 H   0  0  0  0  0  0  0  0  0  0  0  0
    5.6013   -1.2148    0.7381 H   0  0  0  0  0  0  0  0  0  0  0  0
    6.9846   -1.3459   -1.2151 H   0  0  0  0  0  0  0  0  0  0  0  0
    8.0900   -1.0966   -4.4112 H   0  0  0  0  0  0  0  0  0  0  0  0
    8.2012   -0.5780   -2.8668 H   0  0  0  0  0  0  0  0  0  0  0  0
    7.6070   -2.0647   -3.1881 H   0  0  0  0  0  0  0  0  0  0  0  0
    3.9517    0.3581   -3.4793 H   0  0  0  0  0  0  0  0  0  0  0  0
    2.5723    0.4854   -1.5233 H   0  0  0  0  0  0  0  0  0  0  0  0
    4.4789   -1.2196    2.2411 H   0  0  0  0  0  0  0  0  0  0  0  0
    4.6287    0.4065    2.2411 H   0  0  0  0  0  0  0  0  0  0  0  0
    3.7374   -0.3313    4.2170 H   0  0  0  0  0  0  0  0  0  0  0  0
    4.0882    2.0903    1.0000 H   0  0  0  0  0  0  0  0  0  0  0  0
    2.8634    2.7974    0.1835 H   0  0  0  0  0  0  0  0  0  0  0  0
    2.8634    2.7974    1.8165 H   0  0  0  0  0  0  0  0  0  0  0  0
    0.8150    3.0525    1.0000 H   0  0  0  0  0  0  0  0  0  0  0  0
   -1.4787    1.2404    0.9898 H   0  0  0  0  0  0  0  0  0  0  0  0
   -1.3516    3.8447   -0.2289 H   0  0  0  0  0  0  0  0  0  0  0  0
   -3.5315    1.9608   -0.2469 H   0  0  0  0  0  0  0  0  0  0  0  0
   -3.5319    3.3908   -1.0354 H   0  0  0  0  0  0  0  0  0  0  0  0
   -4.7177    3.5698    1.0254 H   0  0  0  0  0  0  0  0  0  0  0  0
   -3.4071    4.5440    1.0319 H   0  0  0  0  0  0  0  0  0  0  0  0
   -3.5188    3.3531    3.0771 H   0  0  0  0  0  0  0  0  0  0  0  0
   -3.5289    1.9375    2.2631 H   0  0  0  0  0  0  0  0  0  0  0  0
   -1.3380    3.8129    2.2790 H   0  0  0  0  0  0  0  0  0  0  0  0
   -1.3436    2.3786    3.0596 H   0  0  0  0  0  0  0  0  0  0  0  0
   -1.4753    1.2573   -1.4944 H   0  0  0  0  0  0  0  0  0  0  0  0
   -0.1627    2.2287   -1.4904 H   0  0  0  0  0  0  0  0  0  0  0  0
   -1.3772    3.8747   -2.7095 H   0  0  0  0  0  0  0  0  0  0  0  0
   -2.6898    2.9033   -2.7135 H   0  0  0  0  0  0  0  0  0  0  0  0
   -1.5206    2.7044   -4.7784 H   0  0  0  0  0  0  0  0  0  0  0  0
   -0.1738    2.2538   -3.9724 H   0  0  0  0  0  0  0  0  0  0  0  0
   -1.4864    1.2824   -3.9764 H   0  0  0  0  0  0  0  0  0  0  0  0
  1  2  2  0  0  0  0
  2  3  1  0  0  0  0
  3  4  1  0  0  0  0
  4  5  1  0  0  0  0
  5  6  1  0  0  0  0
  6  7  2  0  0  0  0
  7  8  1  0  0  0  0
  8  9  1  0  0  0  0
  9 10  1  0  0  0  0
  8 11  2  0  0  0  0
 11 12  1  0  0  0  0
 12  5  2  0  0  0  0
  4 13  1  0  0  0  0
 13 14  1  0  0  0  0
  3 15  1  0  0  0  0
  2 16  1  0  0  0  0
 16 17  1  0  0  0  0
 17 18  1  0  0  0  0
 18 19  1  0  0  0  0
 19 20  1  0  0  0  0
 20 21  1  0  0  0  0
 21 22  1  0  0  0  0
 22 17  1  0  0  0  0
 18 23  1  0  0  0  0
 23 24  1  0  0  0  0
 24 25  1  0  0  0  0
  4 26  1  0  0  0  0
  6 27  1  0  0  0  0
  7 28  1  0  0  0  0
 10 29  1  0  0  0  0
 10 30  1  0  0  0  0
 10 31  1  0  0  0  0
 11 32  1  0  0  0  0
 12 33  1  0  0  0  0
 13 34  1  0  0  0  0
 13 35  1  0  0  0  0
 14 36  1  0  0  0  0
 15 37  1  0  0  0  0
 15 38  1  0  0  0  0
 15 39  1  0  0  0  0
 16 40  1  0  0  0  0
 17 41  1  0  0  0  0
 18 42  1  0  0  0  0
 19 43  1  0  0  0  0
 19 44  1  0  0  0  0
 20 45  1  0  0  0  0
 20 46  1  0  0  0  0
 21 47  1  0  0  0  0
 21 48  1  0  0  0  0
 22 49  1  0  0  0  0
 22 50  1  0  0  0  0
 23 51  1  0  0  0  0
 23 52  1  0  0  0  0
 24 53  1  0  0  0  0
 24 54  1  0  0  0  0
 25 55  1  0  0  0  0
 25 56  1  0  0  0  0
 25 57  1  0  0  0  0
M  END
>  <result-rank>
65

>  <similarity>
0.946

>  <query-name>
LIG_A_1101_CCC[C@H]([R*])C1CCC1_2

>  <query-smiles>
O=C(N[C@H](C1CCC1)CCC)[C@@H](NC(=O)C)Cc2ccc(O)cc2

>  <source>
REALspace_2019-12

>  <similarity-descriptor>
1.000;1.000;0.995;1.000;1.000;1.000;1.000;0.949;0.951;0.828;0.828;0.828;0.951;0.704;0.143

>  <similarity-descriptor-smiles>
C1CCCCC1;c1ccccc1;O=C;N;C1CCCCC1;C1CCCCC1;C;C;N(C)C;CO;CO;CO;N(C)C;O;C.C

>  <reaction-name>
s_2708

>  <reagent1-name>
3191936

>  <reagent1-smiles>
[R1*]C(=O)NC1C(CCCC1)CCC

>  <reagent2-name>
7940594

>  <reagent2-smiles>
[R1*]N(C(c1ccc(OC)cc1)CO)C

$$$$
s_527a____13579206____17513452
          04022015093D 1   1.00000     0.00000     0
            
 56 58  0  0  0  0            999 V2000
    7.7526    0.6385   -0.3193 O   0  0  0  0  0  0  0  0  0  0  0  0
    7.4797   -0.5294   -0.2789 C   0  0  0  0  0  0  0  0  0  0  0  0
    7.5926   -1.2660   -1.3563 O   0  0  0  0  0  0  0  0  0  0  0  0
    8.0378   -0.6825   -2.5719 C   0  0  0  0  0  0  0  0  0  0  0  0
    7.0024   -1.1551    1.0244 C   0  0  3  0  0  0  0  0  0  0  0  0
    5.6387   -1.7738    0.9950 C   0  0  3  0  0  0  0  0  0  0  0  0
    6.8594   -2.6496    0.9921 C   0  0  0  0  0  0  0  0  0  0  0  0
    4.7532   -1.6727    2.2282 C   0  0  0  0  0  0  0  0  0  0  0  0
    3.9825   -0.3620    2.2392 C   0  0  0  0  0  0  0  0  0  0  0  0
    3.1054   -0.2737    1.0000 C   0  0  3  0  0  0  0  0  0  0  0  0
    2.3700    1.0000    1.0000 N   0  0  0  0  0  0  0  0  0  0  0  0
    1.0000    1.0000    1.0000 C   0  0  0  0  0  0  0  0  0  0  0  0
    0.4000   -0.0392    1.0000 O   0  0  0  0  0  0  0  0  0  0  0  0
    0.2400    2.3164    1.0000 C   0  0  3  0  0  0  0  0  0  0  0  0
   -1.2052    2.0477    1.0000 N   0  0  0  0  0  0  0  0  0  0  0  0
   -1.9871    2.5058    2.0275 C   0  0  0  0  0  0  0  0  0  0  0  0
   -1.4922    3.1263    2.9275 O   0  0  0  0  0  0  0  0  0  0  0  0
   -3.4815    2.2281    2.0275 C   0  0  0  0  0  0  0  0  0  0  0  0
    0.6072    3.1134   -0.2411 C   0  0  0  0  0  0  0  0  0  0  0  0
   -0.1528    4.4298   -0.2411 C   0  0  0  0  0  0  0  0  0  0  0  0
    0.4132    5.5469    0.3644 C   0  0  0  0  0  0  0  0  0  0  0  0
   -0.2782    6.7537    0.3662 C   0  0  0  0  0  0  0  0  0  0  0  0
   -1.5287    6.8280   -0.2391 C   0  0  0  0  0  0  0  0  0  0  0  0
   -2.2034    7.9972   -0.2393 O   0  0  0  0  0  0  0  0  0  0  0  0
   -2.0995    5.7138   -0.8457 C   0  0  0  0  0  0  0  0  0  0  0  0
   -1.4035    4.5097   -0.8449 C   0  0  0  0  0  0  0  0  0  0  0  0
    3.9701   -0.3663   -0.2467 C   0  0  0  0  0  0  0  0  0  0  0  0
    4.6960   -1.7024   -0.1996 C   0  0  0  0  0  0  0  0  0  0  0  0
    8.0655   -1.3813   -3.2867 H   0  0  0  0  0  0  0  0  0  0  0  0
    7.4083    0.0460   -2.8422 H   0  0  0  0  0  0  0  0  0  0  0  0
    8.9532   -0.3011   -2.4430 H   0  0  0  0  0  0  0  0  0  0  0  0
    7.3044   -0.7350    1.8802 H   0  0  0  0  0  0  0  0  0  0  0  0
    7.1083   -3.1585    0.1680 H   0  0  0  0  0  0  0  0  0  0  0  0
    7.0882   -3.1919    1.8006 H   0  0  0  0  0  0  0  0  0  0  0  0
    5.3254   -1.7226    3.0468 H   0  0  0  0  0  0  0  0  0  0  0  0
    4.1044   -2.4337    2.2282 H   0  0  0  0  0  0  0  0  0  0  0  0
    3.4081   -0.3208    3.0568 H   0  0  0  0  0  0  0  0  0  0  0  0
    4.6269    0.4027    2.2457 H   0  0  0  0  0  0  0  0  0  0  0  0
    2.4522   -1.0309    1.0045 H   0  0  0  0  0  0  0  0  0  0  0  0
    2.8700    1.8660    1.0000 H   0  0  0  0  0  0  0  0  0  0  0  0
    0.4816    2.8407    1.8165 H   0  0  0  0  0  0  0  0  0  0  0  0
   -1.6177    1.5307    0.2500 H   0  0  0  0  0  0  0  0  0  0  0  0
   -3.7231    1.7037    1.2110 H   0  0  0  0  0  0  0  0  0  0  0  0
   -3.7231    1.7037    2.8440 H   0  0  0  0  0  0  0  0  0  0  0  0
   -3.9815    3.0941    2.0275 H   0  0  0  0  0  0  0  0  0  0  0  0
    1.5904    3.2961   -0.2411 H   0  0  0  0  0  0  0  0  0  0  0  0
    0.3656    2.5890   -1.0576 H   0  0  0  0  0  0  0  0  0  0  0  0
    1.3129    5.4826    0.7963 H   0  0  0  0  0  0  0  0  0  0  0  0
    0.1206    7.5620    0.7993 H   0  0  0  0  0  0  0  0  0  0  0  0
   -3.1025    8.0555   -0.6731 H   0  0  0  0  0  0  0  0  0  0  0  0
   -2.9994    5.7778   -1.2771 H   0  0  0  0  0  0  0  0  0  0  0  0
   -1.8020    3.7014   -1.2783 H   0  0  0  0  0  0  0  0  0  0  0  0
    4.6329    0.3824   -0.2591 H   0  0  0  0  0  0  0  0  0  0  0  0
    3.3968   -0.3175   -1.0646 H   0  0  0  0  0  0  0  0  0  0  0  0
    4.0220   -2.4376   -0.1279 H   0  0  0  0  0  0  0  0  0  0  0  0
    5.2253   -1.8161   -1.0403 H   0  0  0  0  0  0  0  0  0  0  0  0
  1  2  2  0  0  0  0
  2  3  1  0  0  0  0
  3  4  1  0  0  0  0
  2  5  1  0  0  0  0
  5  6  1  0  0  0  0
  6  7  1  0  0  0  0
  7  5  1  0  0  0  0
  6  8  1  0  0  0  0
  8  9  1  0  0  0  0
  9 10  1  0  0  0  0
 10 11  1  0  0  0  0
 11 12  1  0  0  0  0
 12 13  2  0  0  0  0
 12 14  1  0  0  0  0
 14 15  1  0  0  0  0
 15 16  1  0  0  0  0
 16 17  2  0  0  0  0
 16 18  1  0  0  0  0
 14 19  1  0  0  0  0
 19 20  1  0  0  0  0
 20 21  1  0  0  0  0
 21 22  2  0  0  0  0
 22 23  1  0  0  0  0
 23 24  1  0  0  0  0
 23 25  2  0  0  0  0
 25 26  1  0  0  0  0
 26 20  2  0  0  0  0
 10 27  1  0  0  0  0
 27 28  1  0  0  0  0
 28  6  1  0  0  0  0
  4 29  1  0  0  0  0
  4 30  1  0  0  0  0
  4 31  1  0  0  0  0
  5 32  1  0  0  0  0
  7 33  1  0  0  0  0
  7 34  1  0  0  0  0
  8 35  1  0  0  0  0
  8 36  1  0  0  0  0
  9 37  1  0  0  0  0
  9 38  1  0  0  0  0
 10 39  1  0  0  0  0
 11 40  1  0  0  0  0
 14 41  1  0  0  0  0
 15 42  1  0  0  0  0
 18 43  1  0  0  0  0
 18 44  1  0  0  0  0
 18 45  1  0  0  0  0
 19 46  1  0  0  0  0
 19 47  1  0  0  0  0
 21 48  1  0  0  0  0
 22 49  1  0  0  0  0
 24 50  1  0  0  0  0
 25 51  1  0  0  0  0
 26 52  1  0  0  0  0
 27 53  1  0  0  0  0
 27 54  1  0  0  0  0
 28 55  1  0  0  0  0
 28 56  1  0  0  0  0
M  END
>  <result-rank>
66

>  <similarity>
0.945

>  <query-name>
LIG_A_1101_CCC[C@H]([R*])C1CCC1_2

>  <query-smiles>
O=C(N[C@H](C1CCC1)CCC)[C@@H](NC(=O)C)Cc2ccc(O)cc2

>  <source>
REALspace_2019-12

>  <similarity-descriptor>
0.922;1.000;1.000;1.000;0.922;0.922;0.868;0.868;1.000;1.000;1.000;1.000;1.000;1.000;0.214

>  <similarity-descriptor-smiles>
C1CCCCC1;c1ccccc1;C=O;N;C1CCCCC1;C1CCCCC1;C1CC1;C1CC1;C;N;C=O;C;C;O;O=C.O.C

>  <reaction-name>
s_527a

>  <reagent1-name>
13579206

>  <reagent1-smiles>
[R1*]NC1CCC2(C(C(=O)OC)C2)CC1

>  <reagent2-name>
17513452

>  <reagent2-smiles>
[R1*]C(=O)C(NC(=O)C)Cc1ccc(O)cc1

$$$$
s_276436a____16945484____14107082
          04022015093D 1   1.00000     0.00000     0
            
 50 51  0  0  0  0            999 V2000
    8.2818    0.3852    2.2810 Br  0  0  0  0  0  0  0  0  0  0  0  0
    6.8164    0.2368    0.9881 C   0  0  0  0  0  0  0  0  0  0  0  0
    5.5191    0.0220    1.4403 C   0  0  0  0  0  0  0  0  0  0  0  0
    4.4898   -0.0818    0.5098 C   0  0  0  0  0  0  0  0  0  0  0  0
    4.7433    0.0260   -0.8534 C   0  0  0  0  0  0  0  0  0  0  0  0
    6.0484    0.2402   -1.2841 C   0  0  0  0  0  0  0  0  0  0  0  0
    7.0919    0.3471   -0.3707 C   0  0  0  0  0  0  0  0  0  0  0  0
    3.0700   -0.3164    1.0000 C   0  0  3  0  0  0  0  0  0  0  0  0
    2.3956   -1.2716    0.1091 N   0  0  0  0  0  0  0  0  0  0  0  0
    1.9201   -2.4555    0.6082 C   0  0  0  0  0  0  0  0  0  0  0  0
    2.0543   -2.7128    1.7726 O   0  0  0  0  0  0  0  0  0  0  0  0
    1.2227   -3.4432   -0.3129 C   0  0  0  0  0  0  0  0  0  0  0  0
    2.3100    1.0000    1.0000 C   0  0  0  0  0  0  0  0  0  0  0  0
    2.9100    2.0392    1.0000 O   0  0  0  0  0  0  0  0  0  0  0  0
    1.0000    1.0000    1.0000 O   0  0  0  0  0  0  0  0  0  0  0  0
    0.2901    2.2296    1.0000 C   0  0  0  0  0  0  0  0  0  0  0  0
   -0.5888    2.3236    2.2370 C   0  0  0  0  0  0  0  0  0  0  0  0
   -1.3514    3.6387    2.2345 C   0  0  0  0  0  0  0  0  0  0  0  0
   -2.2041    3.7509    0.9808 C   0  0  3  0  0  0  0  0  0  0  0  0
   -1.3150    3.6599   -0.2488 C   0  0  0  0  0  0  0  0  0  0  0  0
   -0.5563    2.3422   -0.2578 C   0  0  0  0  0  0  0  0  0  0  0  0
   -2.9541    5.0726    0.9810 C   0  0  0  0  0  0  0  0  0  0  0  0
   -3.8027    5.1739   -0.2760 C   0  0  0  0  0  0  0  0  0  0  0  0
   -4.5528    6.4959   -0.2758 C   0  0  0  0  0  0  0  0  0  0  0  0
    5.3289   -0.0566    2.4189 H   0  0  0  0  0  0  0  0  0  0  0  0
    3.9972   -0.0495   -1.5151 H   0  0  0  0  0  0  0  0  0  0  0  0
    6.2389    0.3184   -2.2627 H   0  0  0  0  0  0  0  0  0  0  0  0
    8.0280    0.5012   -0.6868 H   0  0  0  0  0  0  0  0  0  0  0  0
    3.0949   -0.6869    1.9285 H   0  0  0  0  0  0  0  0  0  0  0  0
    2.2838   -1.0571   -0.8612 H   0  0  0  0  0  0  0  0  0  0  0  0
    1.1979   -3.0727   -1.2414 H   0  0  0  0  0  0  0  0  0  0  0  0
    1.7227   -4.3092   -0.3129 H   0  0  0  0  0  0  0  0  0  0  0  0
    0.2888   -3.5975    0.0095 H   0  0  0  0  0  0  0  0  0  0  0  0
    0.9485    2.9822    1.0142 H   0  0  0  0  0  0  0  0  0  0  0  0
   -0.0156    2.2747    3.0549 H   0  0  0  0  0  0  0  0  0  0  0  0
   -1.2390    1.5638    2.2397 H   0  0  0  0  0  0  0  0  0  0  0  0
   -1.9423    3.6791    3.0402 H   0  0  0  0  0  0  0  0  0  0  0  0
   -0.7007    4.3976    2.2600 H   0  0  0  0  0  0  0  0  0  0  0  0
   -2.8638    2.9995    0.9647 H   0  0  0  0  0  0  0  0  0  0  0  0
   -0.6612    4.4165   -0.2395 H   0  0  0  0  0  0  0  0  0  0  0  0
   -1.8819    3.7194   -1.0705 H   0  0  0  0  0  0  0  0  0  0  0  0
   -1.2075    1.5839   -0.2893 H   0  0  0  0  0  0  0  0  0  0  0  0
    0.0369    2.3057   -1.0620 H   0  0  0  0  0  0  0  0  0  0  0  0
   -2.2988    5.8277    1.0026 H   0  0  0  0  0  0  0  0  0  0  0  0
   -3.5446    5.1206    1.7866 H   0  0  0  0  0  0  0  0  0  0  0  0
   -4.4579    4.4188   -0.2976 H   0  0  0  0  0  0  0  0  0  0  0  0
   -3.2121    5.1259   -1.0816 H   0  0  0  0  0  0  0  0  0  0  0  0
   -5.1111    6.5625   -1.1027 H   0  0  0  0  0  0  0  0  0  0  0  0
   -5.1434    6.5439    0.5298 H   0  0  0  0  0  0  0  0  0  0  0  0
   -3.8976    7.2510   -0.2542 H   0  0  0  0  0  0  0  0  0  0  0  0
  1  2  1  0  0  0  0
  2  3  1  0  0  0  0
  3  4  2  0  0  0  0
  4  5  1  0  0  0  0
  5  6  2  0  0  0  0
  6  7  1  0  0  0  0
  7  2  2  0  0  0  0
  4  8  1  0  0  0  0
  8  9  1  0  0  0  0
  9 10  1  0  0  0  0
 10 11  2  0  0  0  0
 10 12  1  0  0  0  0
  8 13  1  0  0  0  0
 13 14  2  0  0  0  0
 13 15  1  0  0  0  0
 15 16  1  0  0  0  0
 16 17  1  0  0  0  0
 17 18  1  0  0  0  0
 18 19  1  0  0  0  0
 19 20  1  0  0  0  0
 20 21  1  0  0  0  0
 21 16  1  0  0  0  0
 19 22  1  0  0  0  0
 22 23  1  0  0  0  0
 23 24  1  0  0  0  0
  3 25  1  0  0  0  0
  5 26  1  0  0  0  0
  6 27  1  0  0  0  0
  7 28  1  0  0  0  0
  8 29  1  0  0  0  0
  9 30  1  0  0  0  0
 12 31  1  0  0  0  0
 12 32  1  0  0  0  0
 12 33  1  0  0  0  0
 16 34  1  0  0  0  0
 17 35  1  0  0  0  0
 17 36  1  0  0  0  0
 18 37  1  0  0  0  0
 18 38  1  0  0  0  0
 19 39  1  0  0  0  0
 20 40  1  0  0  0  0
 20 41  1  0  0  0  0
 21 42  1  0  0  0  0
 21 43  1  0  0  0  0
 22 44  1  0  0  0  0
 22 45  1  0  0  0  0
 23 46  1  0  0  0  0
 23 47  1  0  0  0  0
 24 48  1  0  0  0  0
 24 49  1  0  0  0  0
 24 50  1  0  0  0  0
M  END
>  <result-rank>
67

>  <similarity>
0.945

>  <query-name>
LIG_A_1101_CCC[C@H]([R*])C1CCC1_2

>  <query-smiles>
O=C(N[C@H](C1CCC1)CCC)[C@@H](NC(=O)C)Cc2ccc(O)cc2

>  <source>
REALspace_2019-12

>  <similarity-descriptor>
1.000;0.969;0.998;0.283;1.000;1.000;1.000;0.949;1.000;1.000;1.000;1.000;0.969;0.0;0.091

>  <similarity-descriptor-smiles>
C1CCCCC1;Brc1ccccc1;C=O;O;C1CCCCC1;C1CCCCC1;C;C;C;N;C=O;C;Brc1ccccc1;;C

>  <reaction-name>
s_276436a

>  <reagent1-name>
16945484

>  <reagent1-smiles>
[R1*]OC1CCC(CC1)CCC

>  <reagent2-name>
14107082

>  <reagent2-smiles>
[R1*]C(=O)C(NC(=O)C)c1cc(Br)ccc1

$$$$
s_22____8964248____16717358
          04022015093D 1   1.00000     0.00000     0
            
 56 57  0  0  0  0            999 V2000
   -2.0374    1.7598    1.0994 O   0  0  0  0  0  0  0  0  0  0  0  0
   -1.0631    2.0913    1.7165 C   0  0  0  0  0  0  0  0  0  0  0  0
   -1.1497    2.3106    3.0956 N   0  0  0  0  0  0  0  0  0  0  0  0
   -2.4469    2.1278    3.7651 C   0  0  0  0  0  0  0  0  0  0  0  0
   -2.6437    0.7065    4.2720 C   0  0  3  0  0  0  0  0  0  0  0  0
   -1.7727    0.3709    5.4769 C   0  0  0  0  0  0  0  0  0  0  0  0
   -0.2831    0.6255    5.2673 C   0  0  0  0  0  0  0  0  0  0  0  0
    0.0835    2.1032    5.2285 C   0  0  0  0  0  0  0  0  0  0  0  0
    0.0597    2.7100    3.8301 C   0  0  0  0  0  0  0  0  0  0  0  0
   -4.0935    0.4834    4.6703 C   0  0  0  0  0  0  0  0  0  0  0  0
    0.2650    2.2731    1.0000 C   0  0  3  0  0  0  0  0  0  0  0  0
    1.0000    1.0000    1.0000 N   0  0  0  0  0  0  0  0  0  0  0  0
    2.3700    1.0000    1.0000 C   0  0  0  0  0  0  0  0  0  0  0  0
    2.9700    2.0392    1.0000 O   0  0  0  0  0  0  0  0  0  0  0  0
    3.1300   -0.3164    1.0000 C   0  0  0  0  0  0  0  0  0  0  0  0
    3.3750   -0.7407   -0.3859 N   0  0  0  0  0  0  0  0  0  0  0  0
    4.5167   -0.3452   -1.0318 C   0  0  0  0  0  0  0  0  0  0  0  0
    5.3167    0.3476   -0.4661 O   0  0  0  0  0  0  0  0  0  0  0  0
    4.7700   -0.7840   -2.4648 C   0  0  0  0  0  0  0  0  0  0  0  0
    0.0117    2.7118   -0.4331 C   0  0  0  0  0  0  0  0  0  0  0  0
   -0.7484    4.0282   -0.4331 C   0  0  0  0  0  0  0  0  0  0  0  0
   -0.0418    5.2264   -0.4331 C   0  0  0  0  0  0  0  0  0  0  0  0
   -0.7330    6.4334   -0.4338 C   0  0  0  0  0  0  0  0  0  0  0  0
   -2.1243    6.4265   -0.4351 C   0  0  0  0  0  0  0  0  0  0  0  0
   -2.8341    7.6563   -0.4355 O   0  0  0  0  0  0  0  0  0  0  0  0
   -2.8357    5.2310   -0.4347 C   0  0  0  0  0  0  0  0  0  0  0  0
   -2.1394    4.0270   -0.4344 C   0  0  0  0  0  0  0  0  0  0  0  0
   -3.1764    2.3407    3.1151 H   0  0  0  0  0  0  0  0  0  0  0  0
   -2.4986    2.7557    4.5417 H   0  0  0  0  0  0  0  0  0  0  0  0
   -2.4178    0.0728    3.5321 H   0  0  0  0  0  0  0  0  0  0  0  0
   -1.8972   -0.5975    5.6930 H   0  0  0  0  0  0  0  0  0  0  0  0
   -2.0794    0.9270    6.2493 H   0  0  0  0  0  0  0  0  0  0  0  0
   -0.0102    0.2092    4.3999 H   0  0  0  0  0  0  0  0  0  0  0  0
    0.2198    0.1946    6.0166 H   0  0  0  0  0  0  0  0  0  0  0  0
   -0.5668    2.6038    5.7999 H   0  0  0  0  0  0  0  0  0  0  0  0
    1.0052    2.2087    5.6017 H   0  0  0  0  0  0  0  0  0  0  0  0
    0.0799    3.7068    3.9071 H   0  0  0  0  0  0  0  0  0  0  0  0
    0.8650    2.3983    3.3259 H   0  0  0  0  0  0  0  0  0  0  0  0
   -4.2079   -0.4534    5.0010 H   0  0  0  0  0  0  0  0  0  0  0  0
   -4.3426    1.1256    5.3952 H   0  0  0  0  0  0  0  0  0  0  0  0
   -4.6837    0.6312    3.8767 H   0  0  0  0  0  0  0  0  0  0  0  0
    0.8054    2.9700    1.4714 H   0  0  0  0  0  0  0  0  0  0  0  0
    0.5000    0.1340    1.0000 H   0  0  0  0  0  0  0  0  0  0  0  0
    4.0038   -0.1968    1.4714 H   0  0  0  0  0  0  0  0  0  0  0  0
    2.5896   -1.0133    1.4714 H   0  0  0  0  0  0  0  0  0  0  0  0
    2.7083   -1.3181   -0.8573 H   0  0  0  0  0  0  0  0  0  0  0  0
    4.0091   -1.3516   -2.7791 H   0  0  0  0  0  0  0  0  0  0  0  0
    4.8489    0.0221   -3.0513 H   0  0  0  0  0  0  0  0  0  0  0  0
    5.6187   -1.3112   -2.5069 H   0  0  0  0  0  0  0  0  0  0  0  0
    0.8854    2.8314   -0.9045 H   0  0  0  0  0  0  0  0  0  0  0  0
   -0.5288    2.0149   -0.9045 H   0  0  0  0  0  0  0  0  0  0  0  0
    0.9582    5.2201   -0.4325 H   0  0  0  0  0  0  0  0  0  0  0  0
   -0.2336    7.2998   -0.4335 H   0  0  0  0  0  0  0  0  0  0  0  0
   -3.8341    7.6564   -0.4364 H   0  0  0  0  0  0  0  0  0  0  0  0
   -3.8357    5.2372   -0.4347 H   0  0  0  0  0  0  0  0  0  0  0  0
   -2.6388    3.1606   -0.4351 H   0  0  0  0  0  0  0  0  0  0  0  0
  1  2  2  0  0  0  0
  2  3  1  0  0  0  0
  3  4  1  0  0  0  0
  4  5  1  0  0  0  0
  5  6  1  0  0  0  0
  6  7  1  0  0  0  0
  7  8  1  0  0  0  0
  8  9  1  0  0  0  0
  9  3  1  0  0  0  0
  5 10  1  0  0  0  0
  2 11  1  0  0  0  0
 11 12  1  0  0  0  0
 12 13  1  0  0  0  0
 13 14  2  0  0  0  0
 13 15  1  0  0  0  0
 15 16  1  0  0  0  0
 16 17  1  0  0  0  0
 17 18  2  0  0  0  0
 17 19  1  0  0  0  0
 11 20  1  0  0  0  0
 20 21  1  0  0  0  0
 21 22  1  0  0  0  0
 22 23  2  0  0  0  0
 23 24  1  0  0  0  0
 24 25  1  0  0  0  0
 24 26  2  0  0  0  0
 26 27  1  0  0  0  0
 27 21  2  0  0  0  0
  4 28  1  0  0  0  0
  4 29  1  0  0  0  0
  5 30  1  0  0  0  0
  6 31  1  0  0  0  0
  6 32  1  0  0  0  0
  7 33  1  0  0  0  0
  7 34  1  0  0  0  0
  8 35  1  0  0  0  0
  8 36  1  0  0  0  0
  9 37  1  0  0  0  0
  9 38  1  0  0  0  0
 10 39  1  0  0  0  0
 10 40  1  0  0  0  0
 10 41  1  0  0  0  0
 11 42  1  0  0  0  0
 12 43  1  0  0  0  0
 15 44  1  0  0  0  0
 15 45  1  0  0  0  0
 16 46  1  0  0  0  0
 19 47  1  0  0  0  0
 19 48  1  0  0  0  0
 19 49  1  0  0  0  0
 20 50  1  0  0  0  0
 20 51  1  0  0  0  0
 22 52  1  0  0  0  0
 23 53  1  0  0  0  0
 25 54  1  0  0  0  0
 26 55  1  0  0  0  0
 27 56  1  0  0  0  0
M  END
>  <result-rank>
68

>  <similarity>
0.944

>  <query-name>
LIG_A_1101_CCC[C@H]([R*])C1CCC1_2

>  <query-smiles>
O=C(N[C@H](C1CCC1)CCC)[C@@H](NC(=O)C)Cc2ccc(O)cc2

>  <source>
REALspace_2019-12

>  <similarity-descriptor>
0.983;1.000;0.852;0.852;0.983;0.983;0.949;0.0;1.000;1.000;1.000;0.955;1.000;1.000;0.231

>  <similarity-descriptor-smiles>
N1CCCCCC1;c1ccccc1;O=C;O=C;N1CCCCCC1;N1CCCCCC1;C;;C;N;C=O;C;C;O;N.C=O.C

>  <reaction-name>
s_22

>  <reagent1-name>
8964248

>  <reagent1-smiles>
[R1*]N1CC(CCCC1)C

>  <reagent2-name>
16717358

>  <reagent2-smiles>
[R1*]C(=O)C(NC(=O)CNC(=O)C)Cc1ccc(O)cc1

$$$$
s_527a____543010____15715224
          04022015093D 1   1.00000     0.00000     0
            
 61 62  0  0  0  0            999 V2000
    3.4716    0.3240    1.8978 O   0  0  0  0  0  0  0  0  0  0  0  0
    3.0831    1.4052    2.2442 C   0  0  0  0  0  0  0  0  0  0  0  0
    3.8395    2.1616    3.0005 O   0  0  0  0  0  0  0  0  0  0  0  0
    5.1190    1.7019    3.4104 C   0  0  0  0  0  0  0  0  0  0  0  0
    5.7854    2.7611    4.2732 C   0  0  0  0  0  0  0  0  0  0  0  0
    4.9639    0.4196    4.2118 C   0  0  0  0  0  0  0  0  0  0  0  0
    5.9772    1.4330    2.1851 C   0  0  0  0  0  0  0  0  0  0  0  0
    1.8487    1.8487    1.8487 N   0  0  0  0  0  0  0  0  0  0  0  0
    1.0000    1.0000    1.0000 C   0  0  3  0  0  0  0  0  0  0  0  0
    0.7075    1.7208   -0.3059 C   0  0  0  0  0  0  0  0  0  0  0  0
   -0.3868    1.6571   -0.7943 O   0  0  0  0  0  0  0  0  0  0  0  0
    1.6931    2.4433   -0.9252 N   0  0  0  0  0  0  0  0  0  0  0  0
    1.4102    3.1403   -2.1880 C   0  0  0  0  0  0  0  0  0  0  0  0
    1.6420    4.6336   -2.0207 C   0  0  0  0  0  0  0  0  0  0  0  0
    1.3465    5.3430   -3.3322 C   0  0  0  0  0  0  0  0  0  0  0  0
    2.2350    4.8034   -4.4415 C   0  0  3  0  0  0  0  0  0  0  0  0
    1.9992    3.3099   -4.6000 C   0  0  0  0  0  0  0  0  0  0  0  0
    2.2939    2.5882   -3.2948 C   0  0  0  0  0  0  0  0  0  0  0  0
    1.9332    5.5187   -5.7476 C   0  0  0  0  0  0  0  0  0  0  0  0
    2.8289    4.9683   -6.8454 C   0  0  0  0  0  0  0  0  0  0  0  0
   -0.3059    0.7075    1.7208 C   0  0  0  0  0  0  0  0  0  0  0  0
   -0.0134   -0.0133    3.0265 C   0  0  0  0  0  0  0  0  0  0  0  0
    0.0423   -1.3821    3.0498 C   0  0  0  0  0  0  0  0  0  0  0  0
    0.3174   -2.0242    4.2861 C   0  0  0  0  0  0  0  0  0  0  0  0
    0.3684   -3.2433    4.3096 O   0  0  0  0  0  0  0  0  0  0  0  0
    0.5188   -1.2755    5.4165 N   0  0  0  0  0  0  0  0  0  0  0  0
    0.4609    0.0936    5.3801 C   0  0  0  0  0  0  0  0  0  0  0  0
    0.1984    0.7502    4.2054 C   0  0  0  0  0  0  0  0  0  0  0  0
    6.6864    2.4374    4.5619 H   0  0  0  0  0  0  0  0  0  0  0  0
    5.8874    3.6047    3.7460 H   0  0  0  0  0  0  0  0  0  0  0  0
    5.2207    2.9380    5.0794 H   0  0  0  0  0  0  0  0  0  0  0  0
    5.8649    0.0959    4.5004 H   0  0  0  0  0  0  0  0  0  0  0  0
    4.3992    0.5966    5.0179 H   0  0  0  0  0  0  0  0  0  0  0  0
    4.5255   -0.2772    3.6441 H   0  0  0  0  0  0  0  0  0  0  0  0
    6.8783    1.1093    2.4738 H   0  0  0  0  0  0  0  0  0  0  0  0
    5.5388    0.7361    1.6175 H   0  0  0  0  0  0  0  0  0  0  0  0
    6.0792    2.2766    1.6579 H   0  0  0  0  0  0  0  0  0  0  0  0
    1.5250    2.7498    2.1374 H   0  0  0  0  0  0  0  0  0  0  0  0
    1.4742    0.1409    0.8075 H   0  0  0  0  0  0  0  0  0  0  0  0
    2.6049    2.4964   -0.5181 H   0  0  0  0  0  0  0  0  0  0  0  0
    0.4528    2.9879   -2.4332 H   0  0  0  0  0  0  0  0  0  0  0  0
    2.5940    4.7960   -1.7612 H   0  0  0  0  0  0  0  0  0  0  0  0
    1.0370    4.9868   -1.3071 H   0  0  0  0  0  0  0  0  0  0  0  0
    0.3882    5.1959   -3.5772 H   0  0  0  0  0  0  0  0  0  0  0  0
    1.5158    6.3224   -3.2219 H   0  0  0  0  0  0  0  0  0  0  0  0
    3.1923    4.9588   -4.1978 H   0  0  0  0  0  0  0  0  0  0  0  0
    2.6002    2.9552   -5.3162 H   0  0  0  0  0  0  0  0  0  0  0  0
    1.0456    3.1518   -4.8564 H   0  0  0  0  0  0  0  0  0  0  0  0
    2.1127    1.6113   -3.4078 H   0  0  0  0  0  0  0  0  0  0  0  0
    3.2543    2.7230   -3.0508 H   0  0  0  0  0  0  0  0  0  0  0  0
    2.1032    6.4980   -5.6384 H   0  0  0  0  0  0  0  0  0  0  0  0
    0.9752    5.3721   -5.9942 H   0  0  0  0  0  0  0  0  0  0  0  0
    2.6302    5.4390   -7.7051 H   0  0  0  0  0  0  0  0  0  0  0  0
    3.7868    5.1148   -6.5988 H   0  0  0  0  0  0  0  0  0  0  0  0
    2.6588    3.9889   -6.9547 H   0  0  0  0  0  0  0  0  0  0  0  0
   -0.7801    1.5666    1.9133 H   0  0  0  0  0  0  0  0  0  0  0  0
   -0.8832    0.1301    1.1435 H   0  0  0  0  0  0  0  0  0  0  0  0
   -0.1069   -1.9155    2.2171 H   0  0  0  0  0  0  0  0  0  0  0  0
    0.7114   -1.7361    6.2830 H   0  0  0  0  0  0  0  0  0  0  0  0
    0.6115    0.6183    6.2179 H   0  0  0  0  0  0  0  0  0  0  0  0
    0.1568    1.7490    4.1792 H   0  0  0  0  0  0  0  0  0  0  0  0
  1  2  2  0  0  0  0
  2  3  1  0  0  0  0
  3  4  1  0  0  0  0
  4  5  1  0  0  0  0
  4  6  1  0  0  0  0
  4  7  1  0  0  0  0
  2  8  1  0  0  0  0
  8  9  1  0  0  0  0
  9 10  1  0  0  0  0
 10 11  2  0  0  0  0
 10 12  1  0  0  0  0
 12 13  1  0  0  0  0
 13 14  1  0  0  0  0
 14 15  1  0  0  0  0
 15 16  1  0  0  0  0
 16 17  1  0  0  0  0
 17 18  1  0  0  0  0
 18 13  1  0  0  0  0
 16 19  1  0  0  0  0
 19 20  1  0  0  0  0
  9 21  1  0  0  0  0
 21 22  1  0  0  0  0
 22 23  2  0  0  0  0
 23 24  1  0  0  0  0
 24 25  2  0  0  0  0
 24 26  1  0  0  0  0
 26 27  1  0  0  0  0
 27 28  2  0  0  0  0
 28 22  1  0  0  0  0
  5 29  1  0  0  0  0
  5 30  1  0  0  0  0
  5 31  1  0  0  0  0
  6 32  1  0  0  0  0
  6 33  1  0  0  0  0
  6 34  1  0  0  0  0
  7 35  1  0  0  0  0
  7 36  1  0  0  0  0
  7 37  1  0  0  0  0
  8 38  1  0  0  0  0
  9 39  1  0  0  0  0
 12 40  1  0  0  0  0
 13 41  1  0  0  0  0
 14 42  1  0  0  0  0
 14 43  1  0  0  0  0
 15 44  1  0  0  0  0
 15 45  1  0  0  0  0
 16 46  1  0  0  0  0
 17 47  1  0  0  0  0
 17 48  1  0  0  0  0
 18 49  1  0  0  0  0
 18 50  1  0  0  0  0
 19 51  1  0  0  0  0
 19 52  1  0  0  0  0
 20 53  1  0  0  0  0
 20 54  1  0  0  0  0
 20 55  1  0  0  0  0
 21 56  1  0  0  0  0
 21 57  1  0  0  0  0
 23 58  1  0  0  0  0
 26 59  1  0  0  0  0
 27 60  1  0  0  0  0
 28 61  1  0  0  0  0
M  END
>  <result-rank>
69

>  <similarity>
0.944

>  <query-name>
LIG_A_1101_CCC[C@H]([R*])C1CCC1_2

>  <query-smiles>
O=C(N[C@H](C1CCC1)CCC)[C@@H](NC(=O)C)Cc2ccc(O)cc2

>  <source>
REALspace_2019-12

>  <similarity-descriptor>
1.000;0.900;1.000;1.000;1.000;1.000;1.000;1.000;1.000;1.000;0.851;0.971;1.000;0.900;0.133

>  <similarity-descriptor-smiles>
C1CCCCC1;C=1C=CNC(C1)=O;C=O;N;C1CCCCC1;C1CCCCC1;C;C;C;N;O=CO;CC;C;C=1C=CNC(C1)=O;C.C

>  <reaction-name>
s_527a

>  <reagent1-name>
543010

>  <reagent1-smiles>
[R1*]NC1CCC(CC1)CC

>  <reagent2-name>
15715224

>  <reagent2-smiles>
[R1*]C(=O)C(NC(=O)OC(C)(C)C)Cc1cc(O)ncc1

$$$$
s_272104____15425646____11403110
          04022015093D 1   1.00000     0.00000     0
            
 51 54  0  0  0  0            999 V2000
    5.3743    2.3475    2.4635 O   0  0  0  0  0  0  0  0  0  0  0  0
    4.1555    2.2887    2.4892 C   0  0  0  0  0  0  0  0  0  0  0  0
    3.3018    3.3939    2.5029 N   0  0  0  0  0  0  0  0  0  0  0  0
    1.9798    2.9577    2.5312 C   0  0  0  0  0  0  0  0  0  0  0  0
    0.9852    3.6651    2.5372 O   0  0  0  0  0  0  0  0  0  0  0  0
    1.9945    1.4468    2.5386 C   0  0  3  0  0  0  0  0  0  0  0  0
    3.4189    1.1018    2.5147 N   0  0  0  0  0  0  0  0  0  0  0  0
    1.2739    0.8762    1.3276 C   0  0  0  0  0  0  0  0  0  0  0  0
    1.4079   -0.6383    1.3251 C   0  0  0  0  0  0  0  0  0  0  0  0
    0.4558   -1.4218    1.9698 C   0  0  0  0  0  0  0  0  0  0  0  0
   -0.5929   -0.8536    2.6029 O   0  0  0  0  0  0  0  0  0  0  0  0
    0.5785   -2.8078    1.9677 C   0  0  0  0  0  0  0  0  0  0  0  0
    1.6531   -3.4100    1.3205 C   0  0  0  0  0  0  0  0  0  0  0  0
    2.6045   -2.6261    0.6754 C   0  0  0  0  0  0  0  0  0  0  0  0
    2.4814   -1.2404    0.6774 C   0  0  0  0  0  0  0  0  0  0  0  0
    3.7359    4.8008    2.4884 C   0  0  3  0  0  0  0  0  0  0  0  0
    3.2507    5.5451    3.7195 C   0  0  0  0  0  0  0  0  0  0  0  0
    2.4486    6.6517    3.1764 N   0  3  3  0  0  0  0  0  0  0  0  0
    2.9263    6.9602    1.8209 C   0  0  0  0  0  0  0  0  0  0  0  0
    3.1316    5.5383    1.3087 C   0  0  0  0  0  0  0  0  0  0  0  0
    4.1374    7.8768    1.7426 C   0  0  0  0  0  0  0  0  0  0  0  0
    4.2057    8.4336    0.3312 C   0  0  0  0  0  0  0  0  0  0  0  0
    2.7845    8.3453   -0.1794 C   0  0  0  0  0  0  0  0  0  0  0  0
    1.9661    7.7764    0.9634 C   0  0  0  0  0  0  0  0  0  0  0  0
    2.5507    7.7876    4.1094 C   0  0  0  0  0  0  0  0  0  0  0  0
    1.4929    6.3621    3.1238 H   0  0  0  0  0  0  0  0  0  0  0  0
    1.5740    1.1049    3.3790 H   0  0  0  0  0  0  0  0  0  0  0  0
    3.7980    0.1764    2.5163 H   0  0  0  0  0  0  0  0  0  0  0  0
    0.3062    1.1252    1.3677 H   0  0  0  0  0  0  0  0  0  0  0  0
    1.6794    1.2481    0.4926 H   0  0  0  0  0  0  0  0  0  0  0  0
   -1.2704   -1.4278    3.0625 H   0  0  0  0  0  0  0  0  0  0  0  0
   -0.1054   -3.3710    2.4314 H   0  0  0  0  0  0  0  0  0  0  0  0
    1.7415   -4.4060    1.3189 H   0  0  0  0  0  0  0  0  0  0  0  0
    3.3769   -3.0587    0.2103 H   0  0  0  0  0  0  0  0  0  0  0  0
    3.1649   -0.6772    0.2130 H   0  0  0  0  0  0  0  0  0  0  0  0
    4.7337    4.8454    2.4388 H   0  0  0  0  0  0  0  0  0  0  0  0
    2.6907    4.9503    4.2962 H   0  0  0  0  0  0  0  0  0  0  0  0
    4.0228    5.8937    4.2508 H   0  0  0  0  0  0  0  0  0  0  0  0
    3.7558    5.5295    0.5275 H   0  0  0  0  0  0  0  0  0  0  0  0
    2.2593    5.1278    1.0431 H   0  0  0  0  0  0  0  0  0  0  0  0
    4.9692    7.3599    1.9452 H   0  0  0  0  0  0  0  0  0  0  0  0
    4.0414    8.6247    2.3994 H   0  0  0  0  0  0  0  0  0  0  0  0
    4.8198    7.8850   -0.2361 H   0  0  0  0  0  0  0  0  0  0  0  0
    4.5197    9.3830    0.3404 H   0  0  0  0  0  0  0  0  0  0  0  0
    2.4480    9.2531   -0.4299 H   0  0  0  0  0  0  0  0  0  0  0  0
    2.7377    7.7412   -0.9749 H   0  0  0  0  0  0  0  0  0  0  0  0
    1.5654    8.5168    1.5031 H   0  0  0  0  0  0  0  0  0  0  0  0
    1.2375    7.1908    0.6082 H   0  0  0  0  0  0  0  0  0  0  0  0
    2.2111    7.5119    5.0087 H   0  0  0  0  0  0  0  0  0  0  0  0
    3.5067    8.0707    4.1866 H   0  0  0  0  0  0  0  0  0  0  0  0
    2.0036    8.5511    3.7662 H   0  0  0  0  0  0  0  0  0  0  0  0
  1  2  2  0  0  0  0
  2  3  1  0  0  0  0
  3  4  1  0  0  0  0
  4  5  2  0  0  0  0
  4  6  1  0  0  0  0
  6  7  1  0  0  0  0
  7  2  1  0  0  0  0
  6  8  1  0  0  0  0
  8  9  1  0  0  0  0
  9 10  1  0  0  0  0
 10 11  1  0  0  0  0
 10 12  2  0  0  0  0
 12 13  1  0  0  0  0
 13 14  2  0  0  0  0
 14 15  1  0  0  0  0
 15  9  2  0  0  0  0
  3 16  1  0  0  0  0
 16 17  1  0  0  0  0
 17 18  1  0  0  0  0
 18 19  1  0  0  0  0
 19 20  1  0  0  0  0
 20 16  1  0  0  0  0
 19 21  1  0  0  0  0
 21 22  1  0  0  0  0
 22 23  1  0  0  0  0
 23 24  1  0  0  0  0
 24 19  1  0  0  0  0
 18 25  1  0  0  0  0
 18 26  1  0  0  0  0
  6 27  1  0  0  0  0
  7 28  1  0  0  0  0
  8 29  1  0  0  0  0
  8 30  1  0  0  0  0
 11 31  1  0  0  0  0
 12 32  1  0  0  0  0
 13 33  1  0  0  0  0
 14 34  1  0  0  0  0
 15 35  1  0  0  0  0
 16 36  1  0  0  0  0
 17 37  1  0  0  0  0
 17 38  1  0  0  0  0
 20 39  1  0  0  0  0
 20 40  1  0  0  0  0
 21 41  1  0  0  0  0
 21 42  1  0  0  0  0
 22 43  1  0  0  0  0
 22 44  1  0  0  0  0
 23 45  1  0  0  0  0
 23 46  1  0  0  0  0
 24 47  1  0  0  0  0
 24 48  1  0  0  0  0
 25 49  1  0  0  0  0
 25 50  1  0  0  0  0
 25 51  1  0  0  0  0
M  CHG  1  18   1
M  END
>  <result-rank>
70

>  <similarity>
0.943

>  <query-name>
LIG_A_1101_CCC[C@H]([R*])C1CCC1_2

>  <query-smiles>
O=C(N[C@H](C1CCC1)CCC)[C@@H](NC(=O)C)Cc2ccc(O)cc2

>  <source>
REALspace_2019-12

>  <similarity-descriptor>
0.979;1.000;0.893;0.899;0.899;0.899;0.899;0.995;0.893;0.893;0.893;0.0;1.000;1.000;0.0

>  <similarity-descriptor-smiles>
C1CCCC1;c1ccccc1;O=C1NCC(N1)=O;C1CC[NH+]C1;C1CC[NH+]C1;C1CC[NH+]C1;C1CC[NH+]C1;C;O=C1NCC(N1)=O;O=C1NCC(N1)=O;O=C1NCC(N1)=O;;C;O;

>  <reaction-name>
s_272104

>  <reagent1-name>
15425646

>  <reagent1-smiles>
[R2*]N(C([R1*])=O)C1CN(C2(C1)CCCC2)C

>  <reagent2-name>
11403110

>  <reagent2-smiles>
[R1*]N(Cc1c(O)cccc1)CC([R2*])=O

$$$$
s_22____13462392____12624298
          04022015093D 1   1.00000     0.00000     0
            
 43 45  0  0  0  0            999 V2000
   -4.3722    0.4352    0.6595 Br  0  0  0  0  0  0  0  0  0  0  0  0
   -2.6869    0.4404    1.6597 C   0  0  0  0  0  0  0  0  0  0  0  0
   -1.4943    0.7082    0.9968 C   0  0  0  0  0  0  0  0  0  0  0  0
   -0.3061    0.7074    1.7209 C   0  0  0  0  0  0  0  0  0  0  0  0
   -0.2999    0.4442    3.0865 C   0  0  0  0  0  0  0  0  0  0  0  0
   -1.5042    0.1782    3.7298 C   0  0  0  0  0  0  0  0  0  0  0  0
   -2.7031    0.1741    3.0247 C   0  0  0  0  0  0  0  0  0  0  0  0
    1.0000    1.0000    1.0000 C   0  0  3  0  0  0  0  0  0  0  0  0
    1.8487    1.8487    1.8487 N   0  0  0  0  0  0  0  0  0  0  0  0
    3.1799    1.5592    1.9935 C   0  0  0  0  0  0  0  0  0  0  0  0
    3.6531    0.6128    1.4274 O   0  0  0  0  0  0  0  0  0  0  0  0
    4.0575    2.4368    2.8710 C   0  0  0  0  0  0  0  0  0  0  0  0
    0.7075    1.7208   -0.3059 C   0  0  0  0  0  0  0  0  0  0  0  0
    0.8354    1.1449   -1.3508 O   0  0  0  0  0  0  0  0  0  0  0  0
    0.2886    3.0571   -0.2895 N   0  0  0  0  0  0  0  0  0  0  0  0
    0.2648    4.1530   -1.2606 C   0  0  3  0  0  0  0  0  0  0  0  0
    1.5056    4.2149   -2.1446 C   0  0  0  0  0  0  0  0  0  0  0  0
    1.8752    5.6384   -2.5121 C   0  0  0  0  0  0  0  0  0  0  0  0
    2.2696    5.0923   -3.8668 C   0  0  0  0  0  0  0  0  0  0  0  0
    1.2414    4.0041   -3.6193 C   0  0  0  0  0  0  0  0  0  0  0  0
    0.3710    5.0568   -0.0561 C   0  0  0  0  0  0  0  0  0  0  0  0
   -0.3566    3.9499    0.6715 C   0  0  0  0  0  0  0  0  0  0  0  0
   -1.4905    0.8983    0.0150 H   0  0  0  0  0  0  0  0  0  0  0  0
    0.5588    0.4462    3.5991 H   0  0  0  0  0  0  0  0  0  0  0  0
   -1.5080   -0.0125    4.7115 H   0  0  0  0  0  0  0  0  0  0  0  0
   -3.5655   -0.0178    3.4931 H   0  0  0  0  0  0  0  0  0  0  0  0
    1.4742    0.1409    0.8075 H   0  0  0  0  0  0  0  0  0  0  0  0
    1.4544    2.6374    2.3204 H   0  0  0  0  0  0  0  0  0  0  0  0
    3.5064    3.1735    3.2627 H   0  0  0  0  0  0  0  0  0  0  0  0
    4.4492    1.8856    3.6078 H   0  0  0  0  0  0  0  0  0  0  0  0
    4.7943    2.8285    2.3199 H   0  0  0  0  0  0  0  0  0  0  0  0
   -0.5974    4.2375   -1.7601 H   0  0  0  0  0  0  0  0  0  0  0  0
    2.2739    3.6790   -1.7946 H   0  0  0  0  0  0  0  0  0  0  0  0
    2.6278    6.0274   -1.9808 H   0  0  0  0  0  0  0  0  0  0  0  0
    1.1093    6.2812   -2.5252 H   0  0  0  0  0  0  0  0  0  0  0  0
    3.2145    4.7717   -3.9328 H   0  0  0  0  0  0  0  0  0  0  0  0
    2.0674    5.6949   -4.6388 H   0  0  0  0  0  0  0  0  0  0  0  0
    0.3131    4.2278   -3.9161 H   0  0  0  0  0  0  0  0  0  0  0  0
    1.4938    3.1008   -3.9665 H   0  0  0  0  0  0  0  0  0  0  0  0
   -0.1284    5.9204   -0.1263 H   0  0  0  0  0  0  0  0  0  0  0  0
    1.3022    5.2351    0.2618 H   0  0  0  0  0  0  0  0  0  0  0  0
   -0.0835    3.8169    1.6243 H   0  0  0  0  0  0  0  0  0  0  0  0
   -1.3542    3.9873    0.6128 H   0  0  0  0  0  0  0  0  0  0  0  0
  1  2  1  0  0  0  0
  2  3  1  0  0  0  0
  3  4  2  0  0  0  0
  4  5  1  0  0  0  0
  5  6  2  0  0  0  0
  6  7  1  0  0  0  0
  7  2  2  0  0  0  0
  4  8  1  0  0  0  0
  8  9  1  0  0  0  0
  9 10  1  0  0  0  0
 10 11  2  0  0  0  0
 10 12  1  0  0  0  0
  8 13  1  0  0  0  0
 13 14  2  0  0  0  0
 13 15  1  0  0  0  0
 15 16  1  0  0  0  0
 16 17  1  0  0  0  0
 17 18  1  0  0  0  0
 18 19  1  0  0  0  0
 19 20  1  0  0  0  0
 20 17  1  0  0  0  0
 16 21  1  0  0  0  0
 21 22  1  0  0  0  0
 22 15  1  0  0  0  0
  3 23  1  0  0  0  0
  5 24  1  0  0  0  0
  6 25  1  0  0  0  0
  7 26  1  0  0  0  0
  8 27  1  0  0  0  0
  9 28  1  0  0  0  0
 12 29  1  0  0  0  0
 12 30  1  0  0  0  0
 12 31  1  0  0  0  0
 16 32  1  0  0  0  0
 17 33  1  0  0  0  0
 18 34  1  0  0  0  0
 18 35  1  0  0  0  0
 19 36  1  0  0  0  0
 19 37  1  0  0  0  0
 20 38  1  0  0  0  0
 20 39  1  0  0  0  0
 21 40  1  0  0  0  0
 21 41  1  0  0  0  0
 22 42  1  0  0  0  0
 22 43  1  0  0  0  0
M  END
>  <result-rank>
71

>  <similarity>
0.943

>  <query-name>
LIG_A_1101_CCC[C@H]([R*])C1CCC1_2

>  <query-smiles>
O=C(N[C@H](C1CCC1)CCC)[C@@H](NC(=O)C)Cc2ccc(O)cc2

>  <source>
REALspace_2019-12

>  <similarity-descriptor>
1.000;0.969;0.852;0.852;0.892;0.892;0.892;0.0;1.000;1.000;1.000;1.000;0.969;0.0;0.0

>  <similarity-descriptor-smiles>
C1CCC1;Brc1ccccc1;C=O;C=O;N1CCC1;N1CCC1;N1CCC1;;C;N;C=O;C;Brc1ccccc1;;

>  <reaction-name>
s_22

>  <reagent1-name>
13462392

>  <reagent1-smiles>
[R1*]N1C(C2CCC2)CC1

>  <reagent2-name>
12624298

>  <reagent2-smiles>
[R1*]C(=O)C(NC(=O)C)c1cc(Br)ccc1

$$$$
s_2708____6465958____16908188
          04022015093D 1   1.00000     0.00000     0
            
 53 54  0  0  0  0            999 V2000
    0.9150    1.0000    3.2257 O   0  0  0  0  0  0  0  0  0  0  0  0
    0.3150    1.0000    2.1865 C   0  0  0  0  0  0  0  0  0  0  0  0
   -1.0795    1.0000    2.1865 N   0  0  0  0  0  0  0  0  0  0  0  0
   -1.8099    1.0000    0.9103 C   0  0  3  0  0  0  0  0  0  0  0  0
   -3.0506    0.1179    0.8970 C   0  0  0  0  0  0  0  0  0  0  0  0
   -2.6599   -1.3533    0.8320 C   0  0  0  0  0  0  0  0  0  0  0  0
   -1.9566   -1.8718    2.0841 C   0  0  0  0  0  0  0  0  0  0  0  0
   -2.5856   -1.4655    3.4135 C   0  0  0  0  0  0  0  0  0  0  0  0
   -1.8581   -0.3586    4.1704 C   0  0  0  0  0  0  0  0  0  0  0  0
   -1.7516    1.0107    3.5003 C   0  0  0  0  0  0  0  0  0  0  0  0
   -2.1994    2.4424    0.6346 C   0  0  0  0  0  0  0  0  0  0  0  0
    1.0000    1.0000    1.0000 N   0  0  0  0  0  0  0  0  0  0  0  0
    2.4700    1.0000    1.0000 C   0  0  3  0  0  0  0  0  0  0  0  0
    2.9767   -0.2411    0.2835 C   0  0  0  0  0  0  0  0  0  0  0  0
    4.3967   -0.2411    0.2835 O   0  0  0  0  0  0  0  0  0  0  0  0
    4.8700   -1.4005   -0.3859 C   0  0  0  0  0  0  0  0  0  0  0  0
    2.9767    2.2411    0.2835 C   0  0  0  0  0  0  0  0  0  0  0  0
    2.4699    3.4824    1.0001 C   0  0  0  0  0  0  0  0  0  0  0  0
    3.2268    4.0450    2.0226 C   0  0  0  0  0  0  0  0  0  0  0  0
    2.7591    5.1803    2.6763 C   0  0  0  0  0  0  0  0  0  0  0  0
    1.5434    5.7453    2.3053 C   0  0  0  0  0  0  0  0  0  0  0  0
    0.7960    5.1750    1.2822 C   0  0  0  0  0  0  0  0  0  0  0  0
    1.2526    4.0394    0.6212 C   0  0  0  0  0  0  0  0  0  0  0  0
   -1.1910    0.6922    0.1876 H   0  0  0  0  0  0  0  0  0  0  0  0
   -3.6077    0.3459    0.0984 H   0  0  0  0  0  0  0  0  0  0  0  0
   -3.5793    0.2814    1.7299 H   0  0  0  0  0  0  0  0  0  0  0  0
   -2.0463   -1.4804    0.0527 H   0  0  0  0  0  0  0  0  0  0  0  0
   -3.4908   -1.8923    0.6935 H   0  0  0  0  0  0  0  0  0  0  0  0
   -1.0167   -1.5305    2.0720 H   0  0  0  0  0  0  0  0  0  0  0  0
   -1.9490   -2.8708    2.0406 H   0  0  0  0  0  0  0  0  0  0  0  0
   -3.5179   -1.1532    3.2310 H   0  0  0  0  0  0  0  0  0  0  0  0
   -2.6139   -2.2740    4.0013 H   0  0  0  0  0  0  0  0  0  0  0  0
   -2.3345   -0.2290    5.0401 H   0  0  0  0  0  0  0  0  0  0  0  0
   -0.9269   -0.6787    4.3449 H   0  0  0  0  0  0  0  0  0  0  0  0
   -2.6765    1.3695    3.3747 H   0  0  0  0  0  0  0  0  0  0  0  0
   -1.2387    1.6167    4.1083 H   0  0  0  0  0  0  0  0  0  0  0  0
   -2.7016    2.4929   -0.2287 H   0  0  0  0  0  0  0  0  0  0  0  0
   -2.7783    2.7791    1.3772 H   0  0  0  0  0  0  0  0  0  0  0  0
   -1.3746    3.0046    0.5738 H   0  0  0  0  0  0  0  0  0  0  0  0
    0.5000    1.0000    0.1340 H   0  0  0  0  0  0  0  0  0  0  0  0
    2.8033    1.0000    1.9428 H   0  0  0  0  0  0  0  0  0  0  0  0
    2.6433   -1.0576    0.7549 H   0  0  0  0  0  0  0  0  0  0  0  0
    2.6433   -0.2411   -0.6593 H   0  0  0  0  0  0  0  0  0  0  0  0
    5.8700   -1.4005   -0.3859 H   0  0  0  0  0  0  0  0  0  0  0  0
    4.5367   -2.2170    0.0855 H   0  0  0  0  0  0  0  0  0  0  0  0
    4.5367   -1.4005   -1.3287 H   0  0  0  0  0  0  0  0  0  0  0  0
    3.9767    2.2411    0.2835 H   0  0  0  0  0  0  0  0  0  0  0  0
    2.6433    2.2411   -0.6593 H   0  0  0  0  0  0  0  0  0  0  0  0
    4.1008    3.6364    2.2858 H   0  0  0  0  0  0  0  0  0  0  0  0
    3.2968    5.5903    3.4131 H   0  0  0  0  0  0  0  0  0  0  0  0
    1.2074    6.5618    2.7748 H   0  0  0  0  0  0  0  0  0  0  0  0
   -0.0774    5.5845    1.0188 H   0  0  0  0  0  0  0  0  0  0  0  0
    0.7141    3.6296   -0.1150 H   0  0  0  0  0  0  0  0  0  0  0  0
  1  2  2  0  0  0  0
  2  3  1  0  0  0  0
  3  4  1  0  0  0  0
  4  5  1  0  0  0  0
  5  6  1  0  0  0  0
  6  7  1  0  0  0  0
  7  8  1  0  0  0  0
  8  9  1  0  0  0  0
  9 10  1  0  0  0  0
 10  3  1  0  0  0  0
  4 11  1  0  0  0  0
  2 12  1  0  0  0  0
 12 13  1  0  0  0  0
 13 14  1  0  0  0  0
 14 15  1  0  0  0  0
 15 16  1  0  0  0  0
 13 17  1  0  0  0  0
 17 18  1  0  0  0  0
 18 19  1  0  0  0  0
 19 20  2  0  0  0  0
 20 21  1  0  0  0  0
 21 22  2  0  0  0  0
 22 23  1  0  0  0  0
 23 18  2  0  0  0  0
  4 24  1  0  0  0  0
  5 25  1  0  0  0  0
  5 26  1  0  0  0  0
  6 27  1  0  0  0  0
  6 28  1  0  0  0  0
  7 29  1  0  0  0  0
  7 30  1  0  0  0  0
  8 31  1  0  0  0  0
  8 32  1  0  0  0  0
  9 33  1  0  0  0  0
  9 34  1  0  0  0  0
 10 35  1  0  0  0  0
 10 36  1  0  0  0  0
 11 37  1  0  0  0  0
 11 38  1  0  0  0  0
 11 39  1  0  0  0  0
 12 40  1  0  0  0  0
 13 41  1  0  0  0  0
 14 42  1  0  0  0  0
 14 43  1  0  0  0  0
 16 44  1  0  0  0  0
 16 45  1  0  0  0  0
 16 46  1  0  0  0  0
 17 47  1  0  0  0  0
 17 48  1  0  0  0  0
 19 49  1  0  0  0  0
 20 50  1  0  0  0  0
 21 51  1  0  0  0  0
 22 52  1  0  0  0  0
 23 53  1  0  0  0  0
M  END
>  <result-rank>
72

>  <similarity>
0.943

>  <query-name>
LIG_A_1101_CCC[C@H]([R*])C1CCC1_2

>  <query-smiles>
O=C(N[C@H](C1CCC1)CCC)[C@@H](NC(=O)C)Cc2ccc(O)cc2

>  <source>
REALspace_2019-12

>  <similarity-descriptor>
0.986;0.960;0.857;0.857;0.986;0.986;0.986;1.000;0.999;0.999;0.770;0.994;1.000;0.0;0.0

>  <similarity-descriptor-smiles>
N1CCCCCCC1;c1ccccc1;O=C;O=C;N1CCCCCCC1;N1CCCCCCC1;N1CCCCCCC1;C;NC;NC;CO;C;C;;

>  <reaction-name>
s_2708

>  <reagent1-name>
6465958

>  <reagent1-smiles>
[R1*]C(=O)NC(COC)Cc1ccccc1

>  <reagent2-name>
16908188

>  <reagent2-smiles>
[R1*]N1C(CCCCCC1)C

$$$$
s_58____14655618____12369798
          04022015093D 1   1.00000     0.00000     0
            
 49 50  0  0  0  0            999 V2000
    4.3930    3.6542   -3.5793 F   0  0  0  0  0  0  0  0  0  0  0  0
    3.9487    3.0287   -2.4929 C   0  0  0  0  0  0  0  0  0  0  0  0
    3.7181    3.7490   -1.3253 C   0  0  0  0  0  0  0  0  0  0  0  0
    3.2542    3.0877   -0.1927 C   0  0  0  0  0  0  0  0  0  0  0  0
    3.0266    1.7164   -0.2409 C   0  0  0  0  0  0  0  0  0  0  0  0
    3.2583    1.0015   -1.4111 C   0  0  0  0  0  0  0  0  0  0  0  0
    3.7218    1.6573   -2.5466 C   0  0  0  0  0  0  0  0  0  0  0  0
    2.5200    1.0000    1.0000 C   0  0  3  0  0  0  0  0  0  0  0  0
    1.0000    1.0000    1.0000 C   0  0  0  0  0  0  0  0  0  0  0  0
    0.4000    1.0000   -0.0392 O   0  0  0  0  0  0  0  0  0  0  0  0
    0.3150    1.0000    2.1865 N   0  0  0  0  0  0  0  0  0  0  0  0
   -1.1539    1.0000    2.1865 C   0  0  3  0  0  0  0  0  0  0  0  0
   -1.7361   -0.4014    2.1865 C   0  0  3  0  0  0  0  0  0  0  0  0
   -1.6289   -1.0398    0.8112 C   0  0  0  0  0  0  0  0  0  0  0  0
   -2.2217   -2.4388    0.8544 C   0  0  0  0  0  0  0  0  0  0  0  0
   -2.3907   -0.1977   -0.1992 C   0  0  0  0  0  0  0  0  0  0  0  0
   -3.1865   -0.1654    2.5758 C   0  0  0  0  0  0  0  0  0  0  0  0
   -3.1816    1.1147    3.3905 C   0  0  0  0  0  0  0  0  0  0  0  0
   -1.7238    1.5284    3.4876 C   0  0  0  0  0  0  0  0  0  0  0  0
    3.0267   -0.4331    1.0000 C   0  0  0  0  0  0  0  0  0  0  0  0
    4.5467   -0.4331    1.0000 C   0  0  0  0  0  0  0  0  0  0  0  0
    5.1517   -0.4331    2.0479 O   0  5  0  0  0  0  0  0  0  0  0  0
    5.1717   -0.4331   -0.0825 O   0  0  0  0  0  0  0  0  0  0  0  0
    3.0267    1.7165    2.2411 C   0  0  0  0  0  0  0  0  0  0  0  0
    3.8846    4.7347   -1.3003 H   0  0  0  0  0  0  0  0  0  0  0  0
    3.0853    3.5957    0.6519 H   0  0  0  0  0  0  0  0  0  0  0  0
    3.0917    0.0158   -1.4360 H   0  0  0  0  0  0  0  0  0  0  0  0
    3.8898    1.1492   -3.3914 H   0  0  0  0  0  0  0  0  0  0  0  0
    0.8150    1.0000    3.0525 H   0  0  0  0  0  0  0  0  0  0  0  0
   -1.5046    1.5253    1.4111 H   0  0  0  0  0  0  0  0  0  0  0  0
   -1.2791   -0.9691    2.8712 H   0  0  0  0  0  0  0  0  0  0  0  0
   -0.6671   -1.0935    0.5427 H   0  0  0  0  0  0  0  0  0  0  0  0
   -2.1511   -2.8588   -0.0504 H   0  0  0  0  0  0  0  0  0  0  0  0
   -1.7205   -2.9928    1.5191 H   0  0  0  0  0  0  0  0  0  0  0  0
   -3.1835   -2.3851    1.1228 H   0  0  0  0  0  0  0  0  0  0  0  0
   -2.3201   -0.6177   -1.1039 H   0  0  0  0  0  0  0  0  0  0  0  0
   -3.3525   -0.1440    0.0693 H   0  0  0  0  0  0  0  0  0  0  0  0
   -2.0006    0.7227   -0.2276 H   0  0  0  0  0  0  0  0  0  0  0  0
   -3.5301   -0.9278    3.1241 H   0  0  0  0  0  0  0  0  0  0  0  0
   -3.7548   -0.0588    1.7599 H   0  0  0  0  0  0  0  0  0  0  0  0
   -3.7162    1.8237    2.9306 H   0  0  0  0  0  0  0  0  0  0  0  0
   -3.5597    0.9505    4.3016 H   0  0  0  0  0  0  0  0  0  0  0  0
   -1.6322    2.5224    3.5464 H   0  0  0  0  0  0  0  0  0  0  0  0
   -1.2786    1.1053    4.2768 H   0  0  0  0  0  0  0  0  0  0  0  0
    2.6933   -0.9045    1.8165 H   0  0  0  0  0  0  0  0  0  0  0  0
    2.6933   -0.9045    0.1835 H   0  0  0  0  0  0  0  0  0  0  0  0
    2.6933    1.2451    3.0576 H   0  0  0  0  0  0  0  0  0  0  0  0
    4.0267    1.7165    2.2411 H   0  0  0  0  0  0  0  0  0  0  0  0
    2.6933    2.6593    2.2411 H   0  0  0  0  0  0  0  0  0  0  0  0
  1  2  1  0  0  0  0
  2  3  1  0  0  0  0
  3  4  2  0  0  0  0
  4  5  1  0  0  0  0
  5  6  2  0  0  0  0
  6  7  1  0  0  0  0
  7  2  2  0  0  0  0
  5  8  1  0  0  0  0
  8  9  1  0  0  0  0
  9 10  2  0  0  0  0
  9 11  1  0  0  0  0
 11 12  1  0  0  0  0
 12 13  1  0  0  0  0
 13 14  1  0  0  0  0
 14 15  1  0  0  0  0
 14 16  1  0  0  0  0
 13 17  1  0  0  0  0
 17 18  1  0  0  0  0
 18 19  1  0  0  0  0
 19 12  1  0  0  0  0
  8 20  1  0  0  0  0
 20 21  1  0  0  0  0
 21 22  1  0  0  0  0
 21 23  2  0  0  0  0
  8 24  1  0  0  0  0
  3 25  1  0  0  0  0
  4 26  1  0  0  0  0
  6 27  1  0  0  0  0
  7 28  1  0  0  0  0
 11 29  1  0  0  0  0
 12 30  1  0  0  0  0
 13 31  1  0  0  0  0
 14 32  1  0  0  0  0
 15 33  1  0  0  0  0
 15 34  1  0  0  0  0
 15 35  1  0  0  0  0
 16 36  1  0  0  0  0
 16 37  1  0  0  0  0
 16 38  1  0  0  0  0
 17 39  1  0  0  0  0
 17 40  1  0  0  0  0
 18 41  1  0  0  0  0
 18 42  1  0  0  0  0
 19 43  1  0  0  0  0
 19 44  1  0  0  0  0
 20 45  1  0  0  0  0
 20 46  1  0  0  0  0
 24 47  1  0  0  0  0
 24 48  1  0  0  0  0
 24 49  1  0  0  0  0
M  CHG  1  22  -1
M  END
>  <result-rank>
73

>  <similarity>
0.943

>  <query-name>
LIG_A_1101_CCC[C@H]([R*])C1CCC1_2

>  <query-smiles>
O=C(N[C@H](C1CCC1)CCC)[C@@H](NC(=O)C)Cc2ccc(O)cc2

>  <source>
REALspace_2019-12

>  <similarity-descriptor>
1.000;0.983;1.000;1.000;1.000;0.998;0.998;1.000;0.931;0.752;0.752;0.0;0.931;0.0;0.0

>  <similarity-descriptor-smiles>
C1CCCC1;Fc1ccccc1;C=O;N;C1CCCC1;CC;CC;C;C(C)C;C([O-])=O;C([O-])=O;;C(C)C;;

>  <reaction-name>
s_58

>  <reagent1-name>
14655618

>  <reagent1-smiles>
[R1*]NC1C(C(C)C)CCC1

>  <reagent2-name>
12369798

>  <reagent2-smiles>
[R1*]C(=O)C(c1ccc(F)cc1)(CC(=O)O)C

$$$$
s_11a____16536188____16717356
          04022015093D 1   1.00000     0.00000     0
            
 60 62  0  0  0  0            999 V2000
    1.6090   -7.3415   -3.5236 F   0  0  0  0  0  0  0  0  0  0  0  0
    1.9737   -6.0896   -3.8051 C   0  0  3  0  0  0  0  0  0  0  0  0
    2.3952   -6.0626   -5.0667 F   0  0  0  0  0  0  0  0  0  0  0  0
    0.7792   -5.1613   -3.6449 C   0  0  0  0  0  0  0  0  0  0  0  0
    1.2113   -3.7352   -3.9598 C   0  0  0  0  0  0  0  0  0  0  0  0
    2.3209   -3.2670   -3.0317 C   0  0  3  0  0  0  0  0  0  0  0  0
    1.7998   -2.9825   -1.6290 C   0  0  0  0  0  0  0  0  0  0  0  0
    2.8375   -1.8803   -1.5436 C   0  0  3  0  0  0  0  0  0  0  0  0
    2.3481   -0.6814   -0.8514 N   0  0  0  0  0  0  0  0  0  0  0  0
    2.9767   -0.2411    0.2835 C   0  0  0  0  0  0  0  0  0  0  0  0
    3.9272   -0.8352    0.7118 O   0  0  0  0  0  0  0  0  0  0  0  0
    2.4700    1.0000    1.0000 C   0  0  3  0  0  0  0  0  0  0  0  0
    1.0000    1.0000    1.0000 N   0  0  0  0  0  0  0  0  0  0  0  0
    0.3150    1.0000    2.1865 C   0  0  0  0  0  0  0  0  0  0  0  0
    0.9150    1.0000    3.2257 O   0  0  0  0  0  0  0  0  0  0  0  0
   -1.2050    1.0000    2.1865 C   0  0  0  0  0  0  0  0  0  0  0  0
   -1.6950    1.0000    3.5724 N   0  0  0  0  0  0  0  0  0  0  0  0
   -1.7291    2.1684    4.2869 C   0  0  0  0  0  0  0  0  0  0  0  0
   -1.3590    3.1919    3.7814 O   0  0  0  0  0  0  0  0  0  0  0  0
   -2.2358    2.1684    5.7200 C   0  0  0  0  0  0  0  0  0  0  0  0
    2.9767    2.2411    0.2835 C   0  0  0  0  0  0  0  0  0  0  0  0
    4.4967    2.2411    0.2835 C   0  0  0  0  0  0  0  0  0  0  0  0
    5.1811    1.6356   -0.7653 C   0  0  0  0  0  0  0  0  0  0  0  0
    6.5719    1.6338   -0.7699 C   0  0  0  0  0  0  0  0  0  0  0  0
    7.2616    2.2391    0.2759 C   0  0  0  0  0  0  0  0  0  0  0  0
    8.6114    2.2393    0.2756 O   0  0  0  0  0  0  0  0  0  0  0  0
    6.5820    2.8457    1.3273 C   0  0  0  0  0  0  0  0  0  0  0  0
    5.1912    2.8449    1.3266 C   0  0  0  0  0  0  0  0  0  0  0  0
    2.6762   -1.7983   -3.0446 C   0  0  0  0  0  0  0  0  0  0  0  0
    3.4927   -4.2268   -3.1813 C   0  0  0  0  0  0  0  0  0  0  0  0
    3.0883   -5.6574   -2.8599 C   0  0  0  0  0  0  0  0  0  0  0  0
    0.4415   -5.2091   -2.7049 H   0  0  0  0  0  0  0  0  0  0  0  0
    0.0532   -5.4381   -4.2744 H   0  0  0  0  0  0  0  0  0  0  0  0
    1.5402   -3.6969   -4.9034 H   0  0  0  0  0  0  0  0  0  0  0  0
    0.4240   -3.1275   -3.8563 H   0  0  0  0  0  0  0  0  0  0  0  0
    1.9287   -3.7290   -0.9762 H   0  0  0  0  0  0  0  0  0  0  0  0
    0.8516   -2.6671   -1.5918 H   0  0  0  0  0  0  0  0  0  0  0  0
    3.7404   -2.1883   -1.2435 H   0  0  0  0  0  0  0  0  0  0  0  0
    1.5560   -0.1864   -1.2083 H   0  0  0  0  0  0  0  0  0  0  0  0
    2.8033    1.0000    1.9428 H   0  0  0  0  0  0  0  0  0  0  0  0
    0.5000    1.0000    0.1340 H   0  0  0  0  0  0  0  0  0  0  0  0
   -1.5383    1.8165    1.7151 H   0  0  0  0  0  0  0  0  0  0  0  0
   -1.5383    0.1835    1.7151 H   0  0  0  0  0  0  0  0  0  0  0  0
   -2.0034    0.1471    3.9937 H   0  0  0  0  0  0  0  0  0  0  0  0
   -2.5012    1.2399    5.9797 H   0  0  0  0  0  0  0  0  0  0  0  0
   -1.5116    2.4909    6.3295 H   0  0  0  0  0  0  0  0  0  0  0  0
   -3.0278    2.7745    5.7935 H   0  0  0  0  0  0  0  0  0  0  0  0
    2.6433    2.2411   -0.6593 H   0  0  0  0  0  0  0  0  0  0  0  0
    2.6433    3.0576    0.7549 H   0  0  0  0  0  0  0  0  0  0  0  0
    4.6756    1.2037   -1.5122 H   0  0  0  0  0  0  0  0  0  0  0  0
    7.0726    1.2007   -1.5194 H   0  0  0  0  0  0  0  0  0  0  0  0
    9.1115    2.6731    1.0251 H   0  0  0  0  0  0  0  0  0  0  0  0
    7.0874    3.2771    2.0746 H   0  0  0  0  0  0  0  0  0  0  0  0
    4.6905    3.2783    2.0759 H   0  0  0  0  0  0  0  0  0  0  0  0
    1.9397   -1.1953   -3.3510 H   0  0  0  0  0  0  0  0  0  0  0  0
    3.5157   -1.5782   -3.5414 H   0  0  0  0  0  0  0  0  0  0  0  0
    4.2225   -3.9478   -2.5572 H   0  0  0  0  0  0  0  0  0  0  0  0
    3.8263   -4.1875   -4.1232 H   0  0  0  0  0  0  0  0  0  0  0  0
    3.8770   -6.2614   -2.9751 H   0  0  0  0  0  0  0  0  0  0  0  0
    2.7641   -5.7088   -1.9154 H   0  0  0  0  0  0  0  0  0  0  0  0
  1  2  1  0  0  0  0
  2  3  1  0  0  0  0
  2  4  1  0  0  0  0
  4  5  1  0  0  0  0
  5  6  1  0  0  0  0
  6  7  1  0  0  0  0
  7  8  1  0  0  0  0
  8  9  1  0  0  0  0
  9 10  1  0  0  0  0
 10 11  2  0  0  0  0
 10 12  1  0  0  0  0
 12 13  1  0  0  0  0
 13 14  1  0  0  0  0
 14 15  2  0  0  0  0
 14 16  1  0  0  0  0
 16 17  1  0  0  0  0
 17 18  1  0  0  0  0
 18 19  2  0  0  0  0
 18 20  1  0  0  0  0
 12 21  1  0  0  0  0
 21 22  1  0  0  0  0
 22 23  1  0  0  0  0
 23 24  2  0  0  0  0
 24 25  1  0  0  0  0
 25 26  1  0  0  0  0
 25 27  2  0  0  0  0
 27 28  1  0  0  0  0
 28 22  2  0  0  0  0
  8 29  1  0  0  0  0
 29  6  1  0  0  0  0
  6 30  1  0  0  0  0
 30 31  1  0  0  0  0
 31  2  1  0  0  0  0
  4 32  1  0  0  0  0
  4 33  1  0  0  0  0
  5 34  1  0  0  0  0
  5 35  1  0  0  0  0
  7 36  1  0  0  0  0
  7 37  1  0  0  0  0
  8 38  1  0  0  0  0
  9 39  1  0  0  0  0
 12 40  1  0  0  0  0
 13 41  1  0  0  0  0
 16 42  1  0  0  0  0
 16 43  1  0  0  0  0
 17 44  1  0  0  0  0
 20 45  1  0  0  0  0
 20 46  1  0  0  0  0
 20 47  1  0  0  0  0
 21 48  1  0  0  0  0
 21 49  1  0  0  0  0
 23 50  1  0  0  0  0
 24 51  1  0  0  0  0
 26 52  1  0  0  0  0
 27 53  1  0  0  0  0
 28 54  1  0  0  0  0
 29 55  1  0  0  0  0
 29 56  1  0  0  0  0
 30 57  1  0  0  0  0
 30 58  1  0  0  0  0
 31 59  1  0  0  0  0
 31 60  1  0  0  0  0
M  END
>  <result-rank>
74

>  <similarity>
0.943

>  <query-name>
LIG_A_1101_CCC[C@H]([R*])C1CCC1_2

>  <query-smiles>
O=C(N[C@H](C1CCC1)CCC)[C@@H](NC(=O)C)Cc2ccc(O)cc2

>  <source>
REALspace_2019-12

>  <similarity-descriptor>
0.940;1.000;1.000;1.000;0.895;0.895;0.895;0.0;1.000;1.000;1.000;0.955;1.000;1.000;0.214

>  <similarity-descriptor-smiles>
FC1(CCCCC1)F;c1ccccc1;C=O;N;C1CCC1;C1CCC1;C1CCC1;;C;N;C=O;C;C;O;N.C=O.C

>  <reaction-name>
s_11a

>  <reagent1-name>
16536188

>  <reagent1-smiles>
[R1*]NC1CC2(C1)CCC(F)(F)CC2

>  <reagent2-name>
16717356

>  <reagent2-smiles>
[R1*]C(=O)C(NC(=O)CNC(=O)C)Cc1ccc(O)cc1

$$$$
s_22____10687150____107333
          04022015093D 1   1.00000     0.00000     0
            
 58 59  0  0  0  0            999 V2000
   -2.3692    0.6878    7.4930 Br  0  0  0  0  0  0  0  0  0  0  0  0
   -2.0123    0.4680    5.5784 C   0  0  0  0  0  0  0  0  0  0  0  0
   -1.4503   -0.7167    5.1138 C   0  0  0  0  0  0  0  0  0  0  0  0
   -1.1994   -0.8669    3.7539 C   0  0  0  0  0  0  0  0  0  0  0  0
   -1.5119    0.1659    2.8760 C   0  0  0  0  0  0  0  0  0  0  0  0
   -2.0738    1.3481    3.3475 C   0  0  0  0  0  0  0  0  0  0  0  0
   -2.3275    1.5054    4.7062 C   0  0  0  0  0  0  0  0  0  0  0  0
   -1.2356   -0.0051    1.3912 C   0  0  3  0  0  0  0  0  0  0  0  0
   -2.0400   -1.1187    0.8682 N   0  0  0  0  0  0  0  0  0  0  0  0
   -2.9486   -0.8964   -0.1328 C   0  0  0  0  0  0  0  0  0  0  0  0
   -3.0878    0.2073   -0.5826 O   0  0  0  0  0  0  0  0  0  0  0  0
   -3.7804   -2.0479   -0.6736 C   0  0  0  0  0  0  0  0  0  0  0  0
    0.2400   -0.3038    1.1816 C   0  0  0  0  0  0  0  0  0  0  0  0
    1.0000    1.0000    1.0000 C   0  0  0  0  0  0  0  0  0  0  0  0
    0.4000    2.0293    0.8566 O   0  0  0  0  0  0  0  0  0  0  0  0
    2.4061    1.0000    1.0000 N   0  0  0  0  0  0  0  0  0  0  0  0
    3.1707   -0.1088    1.5878 C   0  0  0  0  0  0  0  0  0  0  0  0
    4.5014   -0.2222    0.8613 C   0  0  3  0  0  0  0  0  0  0  0  0
    5.2727   -1.4453    1.3297 C   0  0  0  0  0  0  0  0  0  0  0  0
    6.1395   -1.9634    0.1937 C   0  0  0  0  0  0  0  0  0  0  0  0
    7.3408   -1.0494    0.0156 C   0  0  0  0  0  0  0  0  0  0  0  0
    7.5170   -0.4869   -1.0297 O   0  0  0  0  0  0  0  0  0  0  0  0
    8.2225   -0.8679    1.0483 N   0  0  0  0  0  0  0  0  0  0  0  0
    6.6164   -3.3691    0.5208 C   0  0  0  0  0  0  0  0  0  0  0  0
    5.3280   -1.9899   -1.0913 C   0  0  0  0  0  0  0  0  0  0  0  0
    5.3251    1.0091    1.1998 C   0  0  0  0  0  0  0  0  0  0  0  0
    4.4851    2.2777    1.1944 C   0  0  0  0  0  0  0  0  0  0  0  0
    3.1888    2.1008    0.4193 C   0  0  0  0  0  0  0  0  0  0  0  0
   -1.2287   -1.4540    5.7520 H   0  0  0  0  0  0  0  0  0  0  0  0
   -0.7957   -1.7141    3.4086 H   0  0  0  0  0  0  0  0  0  0  0  0
   -2.2955    2.0853    2.7092 H   0  0  0  0  0  0  0  0  0  0  0  0
   -2.7309    2.3528    5.0515 H   0  0  0  0  0  0  0  0  0  0  0  0
   -1.4773    0.8364    0.9081 H   0  0  0  0  0  0  0  0  0  0  0  0
   -1.9241   -2.0386    1.2430 H   0  0  0  0  0  0  0  0  0  0  0  0
   -3.5387   -2.8895   -0.1905 H   0  0  0  0  0  0  0  0  0  0  0  0
   -4.7512   -1.8515   -0.5357 H   0  0  0  0  0  0  0  0  0  0  0  0
   -3.5986   -2.1604   -1.6505 H   0  0  0  0  0  0  0  0  0  0  0  0
    0.5982   -0.7902    1.9785 H   0  0  0  0  0  0  0  0  0  0  0  0
    0.3526   -0.8716    0.3662 H   0  0  0  0  0  0  0  0  0  0  0  0
    2.6583   -0.9616    1.4867 H   0  0  0  0  0  0  0  0  0  0  0  0
    3.3313    0.0705    2.5584 H   0  0  0  0  0  0  0  0  0  0  0  0
    4.3492   -0.2712   -0.1258 H   0  0  0  0  0  0  0  0  0  0  0  0
    5.8531   -1.1966    2.1052 H   0  0  0  0  0  0  0  0  0  0  0  0
    4.6294   -2.1578    1.6099 H   0  0  0  0  0  0  0  0  0  0  0  0
    8.0757   -1.3367    1.9193 H   0  0  0  0  0  0  0  0  0  0  0  0
    9.0129   -0.2666    0.9311 H   0  0  0  0  0  0  0  0  0  0  0  0
    5.8260   -3.9704    0.6380 H   0  0  0  0  0  0  0  0  0  0  0  0
    7.1866   -3.7100   -0.2266 H   0  0  0  0  0  0  0  0  0  0  0  0
    7.1502   -3.3517    1.3662 H   0  0  0  0  0  0  0  0  0  0  0  0
    4.5376   -2.5912   -0.9741 H   0  0  0  0  0  0  0  0  0  0  0  0
    5.0142   -1.0651   -1.3065 H   0  0  0  0  0  0  0  0  0  0  0  0
    5.8983   -2.3308   -1.8387 H   0  0  0  0  0  0  0  0  0  0  0  0
    6.0564    1.1036    0.5243 H   0  0  0  0  0  0  0  0  0  0  0  0
    5.7243    0.8903    2.1089 H   0  0  0  0  0  0  0  0  0  0  0  0
    4.2655    2.5232    2.1386 H   0  0  0  0  0  0  0  0  0  0  0  0
    5.0150    3.0137    0.7732 H   0  0  0  0  0  0  0  0  0  0  0  0
    2.6568    2.9463    0.4651 H   0  0  0  0  0  0  0  0  0  0  0  0
    3.3991    1.8906   -0.5355 H   0  0  0  0  0  0  0  0  0  0  0  0
  1  2  1  0  0  0  0
  2  3  1  0  0  0  0
  3  4  2  0  0  0  0
  4  5  1  0  0  0  0
  5  6  2  0  0  0  0
  6  7  1  0  0  0  0
  7  2  2  0  0  0  0
  5  8  1  0  0  0  0
  8  9  1  0  0  0  0
  9 10  1  0  0  0  0
 10 11  2  0  0  0  0
 10 12  1  0  0  0  0
  8 13  1  0  0  0  0
 13 14  1  0  0  0  0
 14 15  2  0  0  0  0
 14 16  1  0  0  0  0
 16 17  1  0  0  0  0
 17 18  1  0  0  0  0
 18 19  1  0  0  0  0
 19 20  1  0  0  0  0
 20 21  1  0  0  0  0
 21 22  2  0  0  0  0
 21 23  1  0  0  0  0
 20 24  1  0  0  0  0
 20 25  1  0  0  0  0
 18 26  1  0  0  0  0
 26 27  1  0  0  0  0
 27 28  1  0  0  0  0
 28 16  1  0  0  0  0
  3 29  1  0  0  0  0
  4 30  1  0  0  0  0
  6 31  1  0  0  0  0
  7 32  1  0  0  0  0
  8 33  1  0  0  0  0
  9 34  1  0  0  0  0
 12 35  1  0  0  0  0
 12 36  1  0  0  0  0
 12 37  1  0  0  0  0
 13 38  1  0  0  0  0
 13 39  1  0  0  0  0
 17 40  1  0  0  0  0
 17 41  1  0  0  0  0
 18 42  1  0  0  0  0
 19 43  1  0  0  0  0
 19 44  1  0  0  0  0
 23 45  1  0  0  0  0
 23 46  1  0  0  0  0
 24 47  1  0  0  0  0
 24 48  1  0  0  0  0
 24 49  1  0  0  0  0
 25 50  1  0  0  0  0
 25 51  1  0  0  0  0
 25 52  1  0  0  0  0
 26 53  1  0  0  0  0
 26 54  1  0  0  0  0
 27 55  1  0  0  0  0
 27 56  1  0  0  0  0
 28 57  1  0  0  0  0
 28 58  1  0  0  0  0
M  END
>  <result-rank>
75

>  <similarity>
0.942

>  <query-name>
LIG_A_1101_CCC[C@H]([R*])C1CCC1_2

>  <query-smiles>
O=C(N[C@H](C1CCC1)CCC)[C@@H](NC(=O)C)Cc2ccc(O)cc2

>  <source>
REALspace_2019-12

>  <similarity-descriptor>
0.980;0.962;0.852;0.852;0.980;1.000;0.964;0.964;1.000;1.000;1.000;1.000;1.000;0.0;0.143

>  <similarity-descriptor-smiles>
N1CCCCC1;Brc1ccccc1;C=O;C=O;N1CCCCC1;C;C(C)C;C(C)C;CC;N;C=O;C;CC;;C=O.N

>  <reaction-name>
s_22

>  <reagent1-name>
10687150

>  <reagent1-smiles>
[R1*]N1CC(CC(C(=O)N)(C)C)CCC1

>  <reagent2-name>
107333

>  <reagent2-smiles>
[R1*]C(=O)CC(NC(=O)C)c1ccc(Br)cc1

$$$$
s_1458____17513454____15767436
          04022015093D 1   1.00000     0.00000     0
            
 43 45  0  0  0  0            999 V2000
    4.0999    6.3841    5.9912 F   0  0  0  0  0  0  0  0  0  0  0  0
    3.6670    5.4643    5.1317 C   0  0  3  0  0  0  0  0  0  0  0  0
    4.5787    4.7230    4.5059 F   0  0  0  0  0  0  0  0  0  0  0  0
    2.3504    4.8320    5.4995 C   0  0  3  0  0  0  0  0  0  0  0  0
    2.4135    5.8376    4.3865 C   0  0  3  0  0  0  0  0  0  0  0  0
    1.9263    5.1415    3.1345 C   0  0  0  0  0  0  0  0  0  0  0  0
    2.1628    3.6705    3.3919 C   0  0  3  0  0  0  0  0  0  0  0  0
    1.3435    2.8512    2.5726 O   0  0  0  0  0  0  0  0  0  0  0  0
    1.8776    1.8776    1.8776 C   0  0  0  0  0  0  0  0  0  0  0  0
    3.0596    1.6786    1.9338 O   0  0  0  0  0  0  0  0  0  0  0  0
    1.0000    1.0000    1.0000 C   0  0  3  0  0  0  0  0  0  0  0  0
   -0.2629    0.7171    1.6971 N   0  0  0  0  0  0  0  0  0  0  0  0
   -0.6150   -0.5766    1.9787 C   0  0  0  0  0  0  0  0  0  0  0  0
    0.1075   -1.4788    1.6563 O   0  0  0  0  0  0  0  0  0  0  0  0
   -1.9209   -0.8691    2.6995 C   0  0  0  0  0  0  0  0  0  0  0  0
    0.7075    1.7208   -0.3059 C   0  0  0  0  0  0  0  0  0  0  0  0
   -0.1701    0.8432   -1.1835 C   0  0  0  0  0  0  0  0  0  0  0  0
   -1.5540    0.9425   -1.0842 C   0  0  0  0  0  0  0  0  0  0  0  0
   -2.3610    0.1420   -1.8857 C   0  0  0  0  0  0  0  0  0  0  0  0
   -1.7726   -0.7486   -2.7781 C   0  0  0  0  0  0  0  0  0  0  0  0
   -2.5520   -1.5276   -3.5577 O   0  0  0  0  0  0  0  0  0  0  0  0
   -0.3891   -0.8520   -2.8811 C   0  0  0  0  0  0  0  0  0  0  0  0
    0.4131   -0.0489   -2.0774 C   0  0  0  0  0  0  0  0  0  0  0  0
    1.7469    3.6007    4.8491 C   0  0  0  0  0  0  0  0  0  0  0  0
    1.9311    5.1370    6.3546 H   0  0  0  0  0  0  0  0  0  0  0  0
    2.0307    6.7418    4.5757 H   0  0  0  0  0  0  0  0  0  0  0  0
    0.9537    5.3213    2.9875 H   0  0  0  0  0  0  0  0  0  0  0  0
    2.4461    5.4473    2.3368 H   0  0  0  0  0  0  0  0  0  0  0  0
    3.1290    3.4370    3.2821 H   0  0  0  0  0  0  0  0  0  0  0  0
    1.4742    0.1409    0.8075 H   0  0  0  0  0  0  0  0  0  0  0  0
   -0.8650    1.4689    1.9658 H   0  0  0  0  0  0  0  0  0  0  0  0
   -2.3951   -0.0100    2.8919 H   0  0  0  0  0  0  0  0  0  0  0  0
   -2.4982   -1.4465    2.1221 H   0  0  0  0  0  0  0  0  0  0  0  0
   -1.7284   -1.3433    3.5586 H   0  0  0  0  0  0  0  0  0  0  0  0
    0.2333    2.5799   -0.1134 H   0  0  0  0  0  0  0  0  0  0  0  0
    1.5666    1.9133   -0.7801 H   0  0  0  0  0  0  0  0  0  0  0  0
   -1.9667    1.5862   -0.4397 H   0  0  0  0  0  0  0  0  0  0  0  0
   -3.3569    0.2061   -1.8211 H   0  0  0  0  0  0  0  0  0  0  0  0
   -2.1337   -2.1692   -4.2005 H   0  0  0  0  0  0  0  0  0  0  0  0
    0.0237   -1.4961   -3.5251 H   0  0  0  0  0  0  0  0  0  0  0  0
    1.4089   -0.1127   -2.1423 H   0  0  0  0  0  0  0  0  0  0  0  0
    2.1035    2.7694    5.2754 H   0  0  0  0  0  0  0  0  0  0  0  0
    0.7502    3.6153    4.9296 H   0  0  0  0  0  0  0  0  0  0  0  0
  1  2  1  0  0  0  0
  2  3  1  0  0  0  0
  2  4  1  0  0  0  0
  4  5  1  0  0  0  0
  5  2  1  0  0  0  0
  5  6  1  0  0  0  0
  6  7  1  0  0  0  0
  7  8  1  0  0  0  0
  8  9  1  0  0  0  0
  9 10  2  0  0  0  0
  9 11  1  0  0  0  0
 11 12  1  0  0  0  0
 12 13  1  0  0  0  0
 13 14  2  0  0  0  0
 13 15  1  0  0  0  0
 11 16  1  0  0  0  0
 16 17  1  0  0  0  0
 17 18  1  0  0  0  0
 18 19  2  0  0  0  0
 19 20  1  0  0  0  0
 20 21  1  0  0  0  0
 20 22  2  0  0  0  0
 22 23  1  0  0  0  0
 23 17  2  0  0  0  0
  7 24  1  0  0  0  0
 24  4  1  0  0  0  0
  4 25  1  0  0  0  0
  5 26  1  0  0  0  0
  6 27  1  0  0  0  0
  6 28  1  0  0  0  0
  7 29  1  0  0  0  0
 11 30  1  0  0  0  0
 12 31  1  0  0  0  0
 15 32  1  0  0  0  0
 15 33  1  0  0  0  0
 15 34  1  0  0  0  0
 16 35  1  0  0  0  0
 16 36  1  0  0  0  0
 18 37  1  0  0  0  0
 19 38  1  0  0  0  0
 21 39  1  0  0  0  0
 22 40  1  0  0  0  0
 23 41  1  0  0  0  0
 24 42  1  0  0  0  0
 24 43  1  0  0  0  0
M  END
>  <result-rank>
76

>  <similarity>
0.942

>  <query-name>
LIG_A_1101_CCC[C@H]([R*])C1CCC1_2

>  <query-smiles>
O=C(N[C@H](C1CCC1)CCC)[C@@H](NC(=O)C)Cc2ccc(O)cc2

>  <source>
REALspace_2019-12

>  <similarity-descriptor>
0.960;1.000;0.998;0.283;0.960;0.895;0.895;0.0;1.000;1.000;1.000;1.000;1.000;1.000;0.0

>  <similarity-descriptor-smiles>
C1CCCC1;c1ccccc1;C=O;O;C1CCCC1;FC1(CC1)F;FC1(CC1)F;;C;N;C=O;C;C;O;

>  <reaction-name>
s_1458

>  <reagent1-name>
17513454

>  <reagent1-smiles>
[R1*]OC(=O)C(NC(=O)C)Cc1ccc(O)cc1

>  <reagent2-name>
15767436

>  <reagent2-smiles>
[R1*]C1CC2C(F)(F)C2C1

$$$$
s_2230a____8737804____666216
          04022015093D 1   1.00000     0.00000     0
            
 58 59  0  0  0  0            999 V2000
   -0.2238    2.6484    2.6484 O   0  0  0  0  0  0  0  0  0  0  0  0
    0.9711    2.7263    2.7263 C   0  0  0  0  0  0  0  0  0  0  0  0
    1.5444    3.6061    3.6061 N   0  0  0  0  0  0  0  0  0  0  0  0
    0.6957    4.4548    4.4548 C   0  0  3  0  0  0  0  0  0  0  0  0
    0.9882    5.9175    4.1623 C   0  0  0  0  0  0  0  0  0  0  0  0
    0.0896    6.7115    4.1162 O   0  0  0  0  0  0  0  0  0  0  0  0
    2.4189    6.3743    3.9282 C   0  0  0  0  0  0  0  0  0  0  0  0
    0.9882    4.1623    5.9175 C   0  0  0  0  0  0  0  0  0  0  0  0
    0.1105    5.0401    6.7952 C   0  0  0  0  0  0  0  0  0  0  0  0
   -1.1418    4.5834    7.1930 C   0  0  0  0  0  0  0  0  0  0  0  0
   -1.9421    5.3901    7.9955 C   0  0  0  0  0  0  0  0  0  0  0  0
   -1.4879    6.6425    8.3952 C   0  0  0  0  0  0  0  0  0  0  0  0
   -0.2350    7.0881    7.9921 C   0  0  0  0  0  0  0  0  0  0  0  0
    0.5744    6.2911    7.1892 C   0  0  0  0  0  0  0  0  0  0  0  0
    1.8487    1.8487    1.8487 C   0  0  0  0  0  0  0  0  0  0  0  0
    1.0000    1.0000    1.0000 N   0  3  0  0  0  0  0  0  0  0  0  0
    1.8487    0.1513    0.1513 C   0  0  3  0  0  0  0  0  0  0  0  0
    2.7264    1.0290   -0.7264 C   0  0  0  0  0  0  0  0  0  0  0  0
    3.6392    0.2303   -1.6392 C   0  0  0  0  0  0  0  0  0  0  0  0
    3.3820    1.2949   -2.6899 C   0  0  0  0  0  0  0  0  0  0  0  0
    2.0565    1.4953   -2.0016 C   0  0  0  0  0  0  0  0  0  0  0  0
    0.9711   -0.7263   -0.7263 C   0  0  0  0  0  0  0  0  0  0  0  0
    0.0936   -1.6038    0.1513 C   0  0  0  0  0  0  0  0  0  0  0  0
   -0.7840   -2.4814   -0.7263 C   0  0  0  0  0  0  0  0  0  0  0  0
   -1.6616   -3.3590    0.1513 C   0  0  0  0  0  0  0  0  0  0  0  0
    0.4226    0.4226    1.5774 H   0  0  0  0  0  0  0  0  0  0  0  0
    0.4226    1.5774    0.4226 H   0  0  0  0  0  0  0  0  0  0  0  0
    2.5402    3.6710    3.6710 H   0  0  0  0  0  0  0  0  0  0  0  0
   -0.2666    4.2624    4.2624 H   0  0  0  0  0  0  0  0  0  0  0  0
    3.0355    5.5905    4.0026 H   0  0  0  0  0  0  0  0  0  0  0  0
    2.4961    6.7736    3.0147 H   0  0  0  0  0  0  0  0  0  0  0  0
    2.6664    7.0593    4.6134 H   0  0  0  0  0  0  0  0  0  0  0  0
    0.7958    3.2001    6.1099 H   0  0  0  0  0  0  0  0  0  0  0  0
    1.9505    4.3548    6.1099 H   0  0  0  0  0  0  0  0  0  0  0  0
   -1.4644    3.6820    6.9043 H   0  0  0  0  0  0  0  0  0  0  0  0
   -2.8440    5.0696    8.2850 H   0  0  0  0  0  0  0  0  0  0  0  0
   -2.0629    7.2222    8.9726 H   0  0  0  0  0  0  0  0  0  0  0  0
    0.0875    7.9892    8.2817 H   0  0  0  0  0  0  0  0  0  0  0  0
    1.4760    6.6126    6.8996 H   0  0  0  0  0  0  0  0  0  0  0  0
    2.4261    2.4261    1.2714 H   0  0  0  0  0  0  0  0  0  0  0  0
    2.4261    1.2714    2.4261 H   0  0  0  0  0  0  0  0  0  0  0  0
    2.4261   -0.4261    0.7286 H   0  0  0  0  0  0  0  0  0  0  0  0
    3.1940    1.7584   -0.2271 H   0  0  0  0  0  0  0  0  0  0  0  0
    3.3029   -0.6814   -1.8751 H   0  0  0  0  0  0  0  0  0  0  0  0
    4.5884    0.1661   -1.3311 H   0  0  0  0  0  0  0  0  0  0  0  0
    3.3241    0.9569   -3.6293 H   0  0  0  0  0  0  0  0  0  0  0  0
    3.9995    2.0808   -2.6559 H   0  0  0  0  0  0  0  0  0  0  0  0
    1.7351    2.4421   -1.9822 H   0  0  0  0  0  0  0  0  0  0  0  0
    1.3221    0.9007   -2.3289 H   0  0  0  0  0  0  0  0  0  0  0  0
    1.5485   -1.3036   -1.3036 H   0  0  0  0  0  0  0  0  0  0  0  0
    0.3938   -0.1489   -1.3036 H   0  0  0  0  0  0  0  0  0  0  0  0
   -0.4838   -1.0265    0.7286 H   0  0  0  0  0  0  0  0  0  0  0  0
    0.6709   -2.1812    0.7286 H   0  0  0  0  0  0  0  0  0  0  0  0
   -0.2067   -3.0588   -1.3036 H   0  0  0  0  0  0  0  0  0  0  0  0
   -1.3614   -1.9041   -1.3036 H   0  0  0  0  0  0  0  0  0  0  0  0
   -2.2389   -3.9363   -0.4261 H   0  0  0  0  0  0  0  0  0  0  0  0
   -1.0842   -3.9363    0.7286 H   0  0  0  0  0  0  0  0  0  0  0  0
   -2.2389   -2.7816    0.7286 H   0  0  0  0  0  0  0  0  0  0  0  0
  1  2  2  0  0  0  0
  2  3  1  0  0  0  0
  3  4  1  0  0  0  0
  4  5  1  0  0  0  0
  5  6  2  0  0  0  0
  5  7  1  0  0  0  0
  4  8  1  0  0  0  0
  8  9  1  0  0  0  0
  9 10  1  0  0  0  0
 10 11  2  0  0  0  0
 11 12  1  0  0  0  0
 12 13  2  0  0  0  0
 13 14  1  0  0  0  0
 14  9  2  0  0  0  0
  2 15  1  0  0  0  0
 15 16  1  0  0  0  0
 16 17  1  0  0  0  0
 17 18  1  0  0  0  0
 18 19  1  0  0  0  0
 19 20  1  0  0  0  0
 20 21  1  0  0  0  0
 21 18  1  0  0  0  0
 17 22  1  0  0  0  0
 22 23  1  0  0  0  0
 23 24  1  0  0  0  0
 24 25  1  0  0  0  0
 16 26  1  0  0  0  0
 16 27  1  0  0  0  0
  3 28  1  0  0  0  0
  4 29  1  0  0  0  0
  7 30  1  0  0  0  0
  7 31  1  0  0  0  0
  7 32  1  0  0  0  0
  8 33  1  0  0  0  0
  8 34  1  0  0  0  0
 10 35  1  0  0  0  0
 11 36  1  0  0  0  0
 12 37  1  0  0  0  0
 13 38  1  0  0  0  0
 14 39  1  0  0  0  0
 15 40  1  0  0  0  0
 15 41  1  0  0  0  0
 17 42  1  0  0  0  0
 18 43  1  0  0  0  0
 19 44  1  0  0  0  0
 19 45  1  0  0  0  0
 20 46  1  0  0  0  0
 20 47  1  0  0  0  0
 21 48  1  0  0  0  0
 21 49  1  0  0  0  0
 22 50  1  0  0  0  0
 22 51  1  0  0  0  0
 23 52  1  0  0  0  0
 23 53  1  0  0  0  0
 24 54  1  0  0  0  0
 24 55  1  0  0  0  0
 25 56  1  0  0  0  0
 25 57  1  0  0  0  0
 25 58  1  0  0  0  0
M  CHG  1  16   1
M  END
>  <result-rank>
77

>  <similarity>
0.942

>  <query-name>
LIG_A_1101_CCC[C@H]([R*])C1CCC1_2

>  <query-smiles>
O=C(N[C@H](C1CCC1)CCC)[C@@H](NC(=O)C)Cc2ccc(O)cc2

>  <source>
REALspace_2019-12

>  <similarity-descriptor>
1.000;0.960;0.857;0.757;1.000;1.000;1.000;0.949;1.000;1.000;0.907;1.000;1.000;0.0;0.067

>  <similarity-descriptor-smiles>
C1CCC1;c1ccccc1;O=CC;[NH2+];CC;CC;C;C;NC;NC;C=O;C;C;;C

>  <reaction-name>
s_2230a

>  <reagent1-name>
8737804

>  <reagent1-smiles>
[R1*]NC(C1CCC1)CCCC

>  <reagent2-name>
666216

>  <reagent2-smiles>
[R1*]CC(=O)NC(C(=O)C)Cc1ccccc1

$$$$
s_512____6108006____10211702
          04022015093D 1   1.00000     0.00000     0
            
 44 45  0  0  0  0            999 V2000
    6.2097   -0.2187   -3.2546 Cl  0  0  0  0  0  0  0  0  0  0  0  0
    4.7316   -0.7226   -2.4003 C   0  0  0  0  0  0  0  0  0  0  0  0
    4.5174   -0.3105   -1.0892 C   0  0  0  0  0  0  0  0  0  0  0  0
    5.4291    0.4689   -0.4690 O   0  0  0  0  0  0  0  0  0  0  0  0
    3.3584   -0.7120   -0.4336 C   0  0  0  0  0  0  0  0  0  0  0  0
    2.4194   -1.5151   -1.0723 C   0  0  0  0  0  0  0  0  0  0  0  0
    2.6522   -1.9160   -2.3836 C   0  0  0  0  0  0  0  0  0  0  0  0
    1.4588   -2.9440   -3.2125 Cl  0  0  0  0  0  0  0  0  0  0  0  0
    3.8051   -1.5256   -3.0573 C   0  0  0  0  0  0  0  0  0  0  0  0
    3.1050   -0.2731    1.0000 C   0  0  0  0  0  0  0  0  0  0  0  0
    2.3700    1.0000    1.0000 N   0  0  0  0  0  0  0  0  0  0  0  0
    1.0000    1.0000    1.0000 C   0  0  0  0  0  0  0  0  0  0  0  0
    0.4000   -0.0392    1.0000 O   0  0  0  0  0  0  0  0  0  0  0  0
    0.3150    2.1865    1.0000 N   0  0  0  0  0  0  0  0  0  0  0  0
   -1.1552    2.1865    1.0000 C   0  0  3  0  0  0  0  0  0  0  0  0
   -1.6373    2.9075   -0.2488 C   0  0  3  0  0  0  0  0  0  0  0  0
   -3.1566    3.0278   -0.3061 C   0  0  0  0  0  0  0  0  0  0  0  0
   -3.7109    4.0857    0.6448 C   0  0  0  0  0  0  0  0  0  0  0  0
   -4.0904    3.5674    2.0273 C   0  0  0  0  0  0  0  0  0  0  0  0
   -3.0966    2.5666    2.6057 C   0  0  0  0  0  0  0  0  0  0  0  0
   -1.6395    2.8679    2.2711 C   0  0  0  0  0  0  0  0  0  0  0  0
   -1.1727    2.1243   -1.4664 C   0  0  0  0  0  0  0  0  0  0  0  0
    5.2751    0.7652    0.4736 H   0  0  0  0  0  0  0  0  0  0  0  0
    1.5881   -1.8004   -0.5951 H   0  0  0  0  0  0  0  0  0  0  0  0
    3.9654   -1.8180   -4.0001 H   0  0  0  0  0  0  0  0  0  0  0  0
    2.5646   -0.9700    1.4714 H   0  0  0  0  0  0  0  0  0  0  0  0
    3.9788   -0.1535    1.4714 H   0  0  0  0  0  0  0  0  0  0  0  0
    2.8700    1.8660    1.0000 H   0  0  0  0  0  0  0  0  0  0  0  0
    0.8150    3.0525    1.0000 H   0  0  0  0  0  0  0  0  0  0  0  0
   -1.4855    1.2427    0.9848 H   0  0  0  0  0  0  0  0  0  0  0  0
   -1.2349    3.8226   -0.2747 H   0  0  0  0  0  0  0  0  0  0  0  0
   -3.5551    2.1430   -0.0647 H   0  0  0  0  0  0  0  0  0  0  0  0
   -3.4216    3.2691   -1.2397 H   0  0  0  0  0  0  0  0  0  0  0  0
   -4.5279    4.4825    0.2263 H   0  0  0  0  0  0  0  0  0  0  0  0
   -3.0163    4.7960    0.7588 H   0  0  0  0  0  0  0  0  0  0  0  0
   -4.1507    4.3473    2.6503 H   0  0  0  0  0  0  0  0  0  0  0  0
   -4.9837    3.1226    1.9625 H   0  0  0  0  0  0  0  0  0  0  0  0
   -3.1960    2.5652    3.6007 H   0  0  0  0  0  0  0  0  0  0  0  0
   -3.3197    1.6601    2.2471 H   0  0  0  0  0  0  0  0  0  0  0  0
   -1.5384    3.8564    2.1584 H   0  0  0  0  0  0  0  0  0  0  0  0
   -1.0695    2.5592    3.0325 H   0  0  0  0  0  0  0  0  0  0  0  0
   -1.4822    2.5860   -2.2977 H   0  0  0  0  0  0  0  0  0  0  0  0
   -0.1742    2.0705   -1.4670 H   0  0  0  0  0  0  0  0  0  0  0  0
   -1.5563    1.2013   -1.4353 H   0  0  0  0  0  0  0  0  0  0  0  0
  1  2  1  0  0  0  0
  2  3  1  0  0  0  0
  3  4  1  0  0  0  0
  3  5  2  0  0  0  0
  5  6  1  0  0  0  0
  6  7  2  0  0  0  0
  7  8  1  0  0  0  0
  7  9  1  0  0  0  0
  9  2  2  0  0  0  0
  5 10  1  0  0  0  0
 10 11  1  0  0  0  0
 11 12  1  0  0  0  0
 12 13  2  0  0  0  0
 12 14  1  0  0  0  0
 14 15  1  0  0  0  0
 15 16  1  0  0  0  0
 16 17  1  0  0  0  0
 17 18  1  0  0  0  0
 18 19  1  0  0  0  0
 19 20  1  0  0  0  0
 20 21  1  0  0  0  0
 21 15  1  0  0  0  0
 16 22  1  0  0  0  0
  4 23  1  0  0  0  0
  6 24  1  0  0  0  0
  9 25  1  0  0  0  0
 10 26  1  0  0  0  0
 10 27  1  0  0  0  0
 11 28  1  0  0  0  0
 14 29  1  0  0  0  0
 15 30  1  0  0  0  0
 16 31  1  0  0  0  0
 17 32  1  0  0  0  0
 17 33  1  0  0  0  0
 18 34  1  0  0  0  0
 18 35  1  0  0  0  0
 19 36  1  0  0  0  0
 19 37  1  0  0  0  0
 20 38  1  0  0  0  0
 20 39  1  0  0  0  0
 21 40  1  0  0  0  0
 21 41  1  0  0  0  0
 22 42  1  0  0  0  0
 22 43  1  0  0  0  0
 22 44  1  0  0  0  0
M  END
>  <result-rank>
78

>  <similarity>
0.942

>  <query-name>
LIG_A_1101_CCC[C@H]([R*])C1CCC1_2

>  <query-smiles>
O=C(N[C@H](C1CCC1)CCC)[C@@H](NC(=O)C)Cc2ccc(O)cc2

>  <source>
REALspace_2019-12

>  <similarity-descriptor>
1.000;0.904;0.995;1.000;1.000;1.000;1.000;1.000;0.952;0.952;0.0;0.0;0.904;1.000;0.0

>  <similarity-descriptor-smiles>
C1CCCCCC1;Clc1cc(ccc1)Cl;C=O;N;C1CCCCCC1;C1CCCCCC1;C1CCCCCC1;C;CN;CN;;;Clc1cc(ccc1)Cl;O;

>  <reaction-name>
s_512

>  <reagent1-name>
6108006

>  <reagent1-smiles>
[R1*]C(=O)NC1C(CCCCC1)C

>  <reagent2-name>
10211702

>  <reagent2-smiles>
[R1*]NCc1c(O)c(Cl)cc(Cl)c1

$$$$
s_2708____908366____11566486
          04022015093D 1   1.00000     0.00000     0
            
 60 61  0  0  0  0            999 V2000
    1.9588   -5.7469    2.1269 F   0  0  0  0  0  0  0  0  0  0  0  0
    2.6743   -4.8985    1.3945 C   0  0  0  0  0  0  0  0  0  0  0  0
    3.8889   -5.3128    0.8562 C   0  0  0  0  0  0  0  0  0  0  0  0
    4.3338   -6.5682    1.0799 O   0  0  0  0  0  0  0  0  0  0  0  0
    5.5733   -6.9906    0.5305 C   0  0  0  0  0  0  0  0  0  0  0  0
    4.6545   -4.4436    0.0860 C   0  0  0  0  0  0  0  0  0  0  0  0
    4.1914   -3.1517   -0.1410 C   0  0  0  0  0  0  0  0  0  0  0  0
    2.9765   -2.7434    0.3998 C   0  0  0  0  0  0  0  0  0  0  0  0
    2.2070   -3.6081    1.1702 C   0  0  0  0  0  0  0  0  0  0  0  0
    2.4700   -1.3325    0.1511 C   0  0  0  0  0  0  0  0  0  0  0  0
    2.9767   -0.4113    1.2488 C   0  0  3  0  0  0  0  0  0  0  0  0
    4.4967   -0.4113    1.2488 C   0  0  0  0  0  0  0  0  0  0  0  0
    5.0967   -0.7667    2.2254 O   0  0  0  0  0  0  0  0  0  0  0  0
    5.1817   -0.0055    0.1339 N   0  0  0  0  0  0  0  0  0  0  0  0
    6.6517   -0.0055    0.1339 C   0  0  0  0  0  0  0  0  0  0  0  0
    2.4700    1.0000    1.0000 C   0  0  0  0  0  0  0  0  0  0  0  0
    1.0000    1.0000    1.0000 N   0  0  0  0  0  0  0  0  0  0  0  0
    0.3150    1.0000    2.1865 C   0  0  0  0  0  0  0  0  0  0  0  0
    0.9150    1.0000    3.2257 O   0  0  0  0  0  0  0  0  0  0  0  0
   -1.0550    1.0000    2.1865 N   0  0  0  0  0  0  0  0  0  0  0  0
   -1.7899    1.0000    3.4593 C   0  0  3  0  0  0  0  0  0  0  0  0
   -2.6698   -0.2357    3.5566 C   0  0  3  0  0  0  0  0  0  0  0  0
   -3.4332   -0.2279    4.8711 C   0  0  0  0  0  0  0  0  0  0  0  0
   -4.2901    1.0233    4.9756 C   0  0  0  0  0  0  0  0  0  0  0  0
   -3.4094    2.2586    4.8783 C   0  0  0  0  0  0  0  0  0  0  0  0
   -2.6422    2.2543    3.5661 C   0  0  0  0  0  0  0  0  0  0  0  0
   -1.8116   -1.4862    3.4557 C   0  0  0  0  0  0  0  0  0  0  0  0
   -2.6971   -2.7177    3.5536 C   0  0  0  0  0  0  0  0  0  0  0  0
    5.7478   -7.9398    0.7924 H   0  0  0  0  0  0  0  0  0  0  0  0
    5.5369   -6.9212   -0.4664 H   0  0  0  0  0  0  0  0  0  0  0  0
    6.3079   -6.4083    0.8786 H   0  0  0  0  0  0  0  0  0  0  0  0
    5.5270   -4.7437   -0.2997 H   0  0  0  0  0  0  0  0  0  0  0  0
    4.7317   -2.5165   -0.6930 H   0  0  0  0  0  0  0  0  0  0  0  0
    1.3344   -3.3079    1.5555 H   0  0  0  0  0  0  0  0  0  0  0  0
    1.4700   -1.3325    0.1511 H   0  0  0  0  0  0  0  0  0  0  0  0
    2.8033   -1.0100   -0.7349 H   0  0  0  0  0  0  0  0  0  0  0  0
    2.6433   -0.7338    2.1348 H   0  0  0  0  0  0  0  0  0  0  0  0
    4.6817    0.2907   -0.6799 H   0  0  0  0  0  0  0  0  0  0  0  0
    6.9850    0.3170   -0.7520 H   0  0  0  0  0  0  0  0  0  0  0  0
    6.9850    0.6005    0.8562 H   0  0  0  0  0  0  0  0  0  0  0  0
    6.9850   -0.9340    0.2977 H   0  0  0  0  0  0  0  0  0  0  0  0
    2.8033    1.6060    1.7222 H   0  0  0  0  0  0  0  0  0  0  0  0
    2.8033    1.3225    0.1140 H   0  0  0  0  0  0  0  0  0  0  0  0
    0.5000    1.0000    0.1340 H   0  0  0  0  0  0  0  0  0  0  0  0
   -1.5550    1.0000    1.3204 H   0  0  0  0  0  0  0  0  0  0  0  0
   -1.1326    0.9898    4.2129 H   0  0  0  0  0  0  0  0  0  0  0  0
   -3.3244   -0.2289    2.8006 H   0  0  0  0  0  0  0  0  0  0  0  0
   -2.7828   -0.2469    5.6305 H   0  0  0  0  0  0  0  0  0  0  0  0
   -4.0215   -1.0354    4.9158 H   0  0  0  0  0  0  0  0  0  0  0  0
   -4.7694    1.0254    5.8533 H   0  0  0  0  0  0  0  0  0  0  0  0
   -4.9577    1.0319    4.2312 H   0  0  0  0  0  0  0  0  0  0  0  0
   -3.9822    3.0771    4.9233 H   0  0  0  0  0  0  0  0  0  0  0  0
   -2.7613    2.2631    5.6398 H   0  0  0  0  0  0  0  0  0  0  0  0
   -3.2900    2.2790    2.8048 H   0  0  0  0  0  0  0  0  0  0  0  0
   -2.0507    3.0596    3.5268 H   0  0  0  0  0  0  0  0  0  0  0  0
   -1.1455   -1.4944    4.2015 H   0  0  0  0  0  0  0  0  0  0  0  0
   -1.3304   -1.4904    2.5790 H   0  0  0  0  0  0  0  0  0  0  0  0
   -2.1324   -3.5404    3.4872 H   0  0  0  0  0  0  0  0  0  0  0  0
   -3.1782   -2.7135    4.4303 H   0  0  0  0  0  0  0  0  0  0  0  0
   -3.3631   -2.7095    2.8078 H   0  0  0  0  0  0  0  0  0  0  0  0
  1  2  1  0  0  0  0
  2  3  1  0  0  0  0
  3  4  1  0  0  0  0
  4  5  1  0  0  0  0
  3  6  2  0  0  0  0
  6  7  1  0  0  0  0
  7  8  2  0  0  0  0
  8  9  1  0  0  0  0
  9  2  2  0  0  0  0
  8 10  1  0  0  0  0
 10 11  1  0  0  0  0
 11 12  1  0  0  0  0
 12 13  2  0  0  0  0
 12 14  1  0  0  0  0
 14 15  1  0  0  0  0
 11 16  1  0  0  0  0
 16 17  1  0  0  0  0
 17 18  1  0  0  0  0
 18 19  2  0  0  0  0
 18 20  1  0  0  0  0
 20 21  1  0  0  0  0
 21 22  1  0  0  0  0
 22 23  1  0  0  0  0
 23 24  1  0  0  0  0
 24 25  1  0  0  0  0
 25 26  1  0  0  0  0
 26 21  1  0  0  0  0
 22 27  1  0  0  0  0
 27 28  1  0  0  0  0
  5 29  1  0  0  0  0
  5 30  1  0  0  0  0
  5 31  1  0  0  0  0
  6 32  1  0  0  0  0
  7 33  1  0  0  0  0
  9 34  1  0  0  0  0
 10 35  1  0  0  0  0
 10 36  1  0  0  0  0
 11 37  1  0  0  0  0
 14 38  1  0  0  0  0
 15 39  1  0  0  0  0
 15 40  1  0  0  0  0
 15 41  1  0  0  0  0
 16 42  1  0  0  0  0
 16 43  1  0  0  0  0
 17 44  1  0  0  0  0
 20 45  1  0  0  0  0
 21 46  1  0  0  0  0
 22 47  1  0  0  0  0
 23 48  1  0  0  0  0
 23 49  1  0  0  0  0
 24 50  1  0  0  0  0
 24 51  1  0  0  0  0
 25 52  1  0  0  0  0
 25 53  1  0  0  0  0
 26 54  1  0  0  0  0
 26 55  1  0  0  0  0
 27 56  1  0  0  0  0
 27 57  1  0  0  0  0
 28 58  1  0  0  0  0
 28 59  1  0  0  0  0
 28 60  1  0  0  0  0
M  END
>  <result-rank>
79

>  <similarity>
0.941

>  <query-name>
LIG_A_1101_CCC[C@H]([R*])C1CCC1_2

>  <query-smiles>
O=C(N[C@H](C1CCC1)CCC)[C@@H](NC(=O)C)Cc2ccc(O)cc2

>  <source>
REALspace_2019-12

>  <similarity-descriptor>
1.000;0.965;0.995;1.000;1.000;1.000;1.000;1.000;0.824;0.824;0.852;0.995;1.000;0.704;0.067

>  <similarity-descriptor-smiles>
C1CCCCC1;Fc1ccccc1;C=O;N;C1CCCCC1;C1CCCCC1;C;C;CCN;CCN;C(=O)N;C;C;O;C

>  <reaction-name>
s_2708

>  <reagent1-name>
908366

>  <reagent1-smiles>
[R1*]C(=O)NC1C(CCCC1)CC

>  <reagent2-name>
11566486

>  <reagent2-smiles>
[R1*]NCC(C(=O)NC)Cc1cc(F)c(OC)cc1

$$$$
s_1458____474620____16618802
          04022015093D 1   1.00000     0.00000     0
            
 51 52  0  0  0  0            999 V2000
    0.4000    1.0000   -0.0392 O   0  0  0  0  0  0  0  0  0  0  0  0
    1.0000    1.0000    1.0000 C   0  0  0  0  0  0  0  0  0  0  0  0
    0.3450    1.0000    2.1345 O   0  0  0  0  0  0  0  0  0  0  0  0
   -1.0750    1.0000    2.1345 C   0  0  0  0  0  0  0  0  0  0  0  0
   -1.5817    2.4331    2.1345 C   0  0  3  0  0  0  0  0  0  0  0  0
   -3.1052    2.4331    2.1345 C   0  0  0  0  0  0  0  0  0  0  0  0
   -3.6769    1.7311    3.3504 C   0  0  0  0  0  0  0  0  0  0  0  0
   -4.7611    1.2125    2.4314 C   0  0  0  0  0  0  0  0  0  0  0  0
   -3.7367    1.3271    1.3177 C   0  0  0  0  0  0  0  0  0  0  0  0
   -1.0750    3.1496    3.3756 C   0  0  0  0  0  0  0  0  0  0  0  0
    2.5200    1.0000    1.0000 C   0  0  0  0  0  0  0  0  0  0  0  0
    3.0267    1.4901   -0.3466 C   0  0  3  0  0  0  0  0  0  0  0  0
    4.4967    1.4901   -0.3466 N   0  0  0  0  0  0  0  0  0  0  0  0
    5.1817    0.7275   -1.2555 C   0  0  0  0  0  0  0  0  0  0  0  0
    4.5817    0.0595   -2.0516 O   0  0  0  0  0  0  0  0  0  0  0  0
    6.7017    0.7275   -1.2555 C   0  0  0  0  0  0  0  0  0  0  0  0
    2.5200    2.9015   -0.5955 C   0  0  0  0  0  0  0  0  0  0  0  0
    2.8191    3.9070    0.3179 C   0  0  0  0  0  0  0  0  0  0  0  0
    2.3582    5.2000    0.0940 C   0  0  0  0  0  0  0  0  0  0  0  0
    1.6033    5.4713   -1.0428 C   0  0  0  0  0  0  0  0  0  0  0  0
    1.1538    6.7248   -1.2639 O   0  0  0  0  0  0  0  0  0  0  0  0
    0.0738    6.9441   -2.1594 C   0  0  0  0  0  0  0  0  0  0  0  0
    1.3011    4.4693   -1.9593 C   0  0  0  0  0  0  0  0  0  0  0  0
    1.7649    3.1782   -1.7306 C   0  0  0  0  0  0  0  0  0  0  0  0
   -1.4083    0.5286    2.9510 H   0  0  0  0  0  0  0  0  0  0  0  0
   -1.4083    0.5286    1.3180 H   0  0  0  0  0  0  0  0  0  0  0  0
   -1.2483    2.9045    1.3180 H   0  0  0  0  0  0  0  0  0  0  0  0
   -3.5058    3.3338    1.9667 H   0  0  0  0  0  0  0  0  0  0  0  0
   -3.9970    2.3408    4.0755 H   0  0  0  0  0  0  0  0  0  0  0  0
   -3.0872    1.0258    3.7441 H   0  0  0  0  0  0  0  0  0  0  0  0
   -5.5552    1.8128    2.3364 H   0  0  0  0  0  0  0  0  0  0  0  0
   -5.0686    0.2812    2.6264 H   0  0  0  0  0  0  0  0  0  0  0  0
   -3.1624    0.5185    1.1903 H   0  0  0  0  0  0  0  0  0  0  0  0
   -4.1066    1.6158    0.4346 H   0  0  0  0  0  0  0  0  0  0  0  0
   -0.0750    3.1496    3.3756 H   0  0  0  0  0  0  0  0  0  0  0  0
   -1.4083    4.0924    3.3756 H   0  0  0  0  0  0  0  0  0  0  0  0
   -1.4083    2.6782    4.1921 H   0  0  0  0  0  0  0  0  0  0  0  0
    2.8533    0.0715    1.1637 H   0  0  0  0  0  0  0  0  0  0  0  0
    2.8533    1.6060    1.7222 H   0  0  0  0  0  0  0  0  0  0  0  0
    2.6933    0.8841   -1.0689 H   0  0  0  0  0  0  0  0  0  0  0  0
    4.9967    2.0468    0.3168 H   0  0  0  0  0  0  0  0  0  0  0  0
    7.0350    1.3335   -0.5333 H   0  0  0  0  0  0  0  0  0  0  0  0
    7.0350   -0.2010   -1.0918 H   0  0  0  0  0  0  0  0  0  0  0  0
    7.0350    1.0500   -2.1415 H   0  0  0  0  0  0  0  0  0  0  0  0
    3.3627    3.7012    1.1316 H   0  0  0  0  0  0  0  0  0  0  0  0
    2.5679    5.9293    0.7452 H   0  0  0  0  0  0  0  0  0  0  0  0
   -0.1283    7.9224   -2.2046 H   0  0  0  0  0  0  0  0  0  0  0  0
    0.3229    6.6128   -3.0695 H   0  0  0  0  0  0  0  0  0  0  0  0
   -0.7337    6.4516   -1.8348 H   0  0  0  0  0  0  0  0  0  0  0  0
    0.7570    4.6749   -2.7727 H   0  0  0  0  0  0  0  0  0  0  0  0
    1.5555    2.4490   -2.3820 H   0  0  0  0  0  0  0  0  0  0  0  0
  1  2  2  0  0  0  0
  2  3  1  0  0  0  0
  3  4  1  0  0  0  0
  4  5  1  0  0  0  0
  5  6  1  0  0  0  0
  6  7  1  0  0  0  0
  7  8  1  0  0  0  0
  8  9  1  0  0  0  0
  9  6  1  0  0  0  0
  5 10  1  0  0  0  0
  2 11  1  0  0  0  0
 11 12  1  0  0  0  0
 12 13  1  0  0  0  0
 13 14  1  0  0  0  0
 14 15  2  0  0  0  0
 14 16  1  0  0  0  0
 12 17  1  0  0  0  0
 17 18  1  0  0  0  0
 18 19  2  0  0  0  0
 19 20  1  0  0  0  0
 20 21  1  0  0  0  0
 21 22  1  0  0  0  0
 20 23  2  0  0  0  0
 23 24  1  0  0  0  0
 24 17  2  0  0  0  0
  4 25  1  0  0  0  0
  4 26  1  0  0  0  0
  5 27  1  0  0  0  0
  6 28  1  0  0  0  0
  7 29  1  0  0  0  0
  7 30  1  0  0  0  0
  8 31  1  0  0  0  0
  8 32  1  0  0  0  0
  9 33  1  0  0  0  0
  9 34  1  0  0  0  0
 10 35  1  0  0  0  0
 10 36  1  0  0  0  0
 10 37  1  0  0  0  0
 11 38  1  0  0  0  0
 11 39  1  0  0  0  0
 12 40  1  0  0  0  0
 13 41  1  0  0  0  0
 16 42  1  0  0  0  0
 16 43  1  0  0  0  0
 16 44  1  0  0  0  0
 18 45  1  0  0  0  0
 19 46  1  0  0  0  0
 22 47  1  0  0  0  0
 22 48  1  0  0  0  0
 22 49  1  0  0  0  0
 23 50  1  0  0  0  0
 24 51  1  0  0  0  0
M  END
>  <result-rank>
80

>  <similarity>
0.941

>  <query-name>
LIG_A_1101_CCC[C@H]([R*])C1CCC1_2

>  <query-smiles>
O=C(N[C@H](C1CCC1)CCC)[C@@H](NC(=O)C)Cc2ccc(O)cc2

>  <source>
REALspace_2019-12

>  <similarity-descriptor>
1.000;1.000;0.998;0.283;1.000;1.000;0.949;0.0;1.000;1.000;1.000;1.000;1.000;0.704;0.071

>  <similarity-descriptor-smiles>
C1CCC1;c1ccccc1;O=C;O;CC;CC;C;;CC;N;C=O;C;CC;O;C

>  <reaction-name>
s_1458

>  <reagent1-name>
474620

>  <reagent1-smiles>
[R1*]OC(=O)CC(NC(=O)C)c1ccc(OC)cc1

>  <reagent2-name>
16618802

>  <reagent2-smiles>
[R1*]CC(C1CCC1)C

$$$$
s_2708____9163340____14190262
          04022015093D 1   1.00000     0.00000     0
            
 53 54  0  0  0  0            999 V2000
    0.9150    1.0000    3.2257 O   0  0  0  0  0  0  0  0  0  0  0  0
    0.3150    1.0000    2.1865 C   0  0  0  0  0  0  0  0  0  0  0  0
   -1.0550    1.0000    2.1865 N   0  0  0  0  0  0  0  0  0  0  0  0
   -1.7899    1.0000    3.4594 C   0  0  3  0  0  0  0  0  0  0  0  0
   -2.6844   -0.2255    3.5936 C   0  0  0  0  0  0  0  0  0  0  0  0
   -3.9814   -0.1592    2.7949 C   0  0  0  0  0  0  0  0  0  0  0  0
   -5.0986    0.3326    3.6996 C   0  0  3  0  0  0  0  0  0  0  0  0
   -5.0399    1.8295    3.9819 C   0  0  0  0  0  0  0  0  0  0  0  0
   -3.7081    2.2728    4.5731 C   0  0  0  0  0  0  0  0  0  0  0  0
   -2.5955    2.2966    3.5349 C   0  0  0  0  0  0  0  0  0  0  0  0
   -6.4298    0.0337    3.0288 C   0  0  0  0  0  0  0  0  0  0  0  0
    1.0000    1.0000    1.0000 N   0  0  0  0  0  0  0  0  0  0  0  0
    2.4700    1.0000    1.0000 C   0  0  0  0  0  0  0  0  0  0  0  0
    2.9768   -0.4333    1.0000 C   0  0  0  0  0  0  0  0  0  0  0  0
    3.2029   -1.0730   -0.2143 C   0  0  0  0  0  0  0  0  0  0  0  0
    3.6671   -2.3842   -0.2105 C   0  0  0  0  0  0  0  0  0  0  0  0
    3.9048   -3.0542    0.9851 C   0  0  0  0  0  0  0  0  0  0  0  0
    3.6724   -2.3960    2.1885 C   0  0  0  0  0  0  0  0  0  0  0  0
    3.2082   -1.0849    2.2070 C   0  0  0  0  0  0  0  0  0  0  0  0
    3.9177   -3.0953   -1.5306 C   0  0  0  0  0  0  0  0  0  0  0  0
    3.6073   -2.2210   -2.6055 O   0  0  0  0  0  0  0  0  0  0  0  0
    5.3791   -3.5046   -1.6162 C   0  0  0  0  0  0  0  0  0  0  0  0
    3.0392   -4.3329   -1.6142 C   0  0  0  0  0  0  0  0  0  0  0  0
   -1.5550    1.0000    1.3204 H   0  0  0  0  0  0  0  0  0  0  0  0
   -1.1276    0.9934    4.2086 H   0  0  0  0  0  0  0  0  0  0  0  0
   -2.9188   -0.3355    4.5595 H   0  0  0  0  0  0  0  0  0  0  0  0
   -2.1679   -1.0234    3.2829 H   0  0  0  0  0  0  0  0  0  0  0  0
   -3.8699    0.4720    2.0273 H   0  0  0  0  0  0  0  0  0  0  0  0
   -4.2077   -1.0693    2.4480 H   0  0  0  0  0  0  0  0  0  0  0  0
   -5.0547   -0.1627    4.5672 H   0  0  0  0  0  0  0  0  0  0  0  0
   -5.7676    2.0606    4.6277 H   0  0  0  0  0  0  0  0  0  0  0  0
   -5.1870    2.3214    3.1238 H   0  0  0  0  0  0  0  0  0  0  0  0
   -3.8144    3.1922    4.9519 H   0  0  0  0  0  0  0  0  0  0  0  0
   -3.4533    1.6389    5.3032 H   0  0  0  0  0  0  0  0  0  0  0  0
   -3.0052    2.4653    2.6384 H   0  0  0  0  0  0  0  0  0  0  0  0
   -1.9699    3.0432    3.7613 H   0  0  0  0  0  0  0  0  0  0  0  0
   -7.1763    0.3521    3.6130 H   0  0  0  0  0  0  0  0  0  0  0  0
   -6.4721    0.5045    2.1476 H   0  0  0  0  0  0  0  0  0  0  0  0
   -6.5165   -0.9520    2.8846 H   0  0  0  0  0  0  0  0  0  0  0  0
    0.5000    1.0000    0.1340 H   0  0  0  0  0  0  0  0  0  0  0  0
    2.8033    1.4714    1.8165 H   0  0  0  0  0  0  0  0  0  0  0  0
    2.8033    1.4714    0.1835 H   0  0  0  0  0  0  0  0  0  0  0  0
    3.0343   -0.5972   -1.0775 H   0  0  0  0  0  0  0  0  0  0  0  0
    4.2385   -3.9968    0.9797 H   0  0  0  0  0  0  0  0  0  0  0  0
    3.8414   -2.8718    3.0517 H   0  0  0  0  0  0  0  0  0  0  0  0
    3.0432   -0.6175    3.0755 H   0  0  0  0  0  0  0  0  0  0  0  0
    3.7721   -2.6887   -3.4739 H   0  0  0  0  0  0  0  0  0  0  0  0
    5.5977   -4.1203   -0.8591 H   0  0  0  0  0  0  0  0  0  0  0  0
    5.5439   -3.9723   -2.4845 H   0  0  0  0  0  0  0  0  0  0  0  0
    5.9570   -2.6904   -1.5612 H   0  0  0  0  0  0  0  0  0  0  0  0
    3.2578   -4.9486   -0.8572 H   0  0  0  0  0  0  0  0  0  0  0  0
    2.0778   -4.0637   -1.5579 H   0  0  0  0  0  0  0  0  0  0  0  0
    3.2041   -4.8006   -2.4825 H   0  0  0  0  0  0  0  0  0  0  0  0
  1  2  2  0  0  0  0
  2  3  1  0  0  0  0
  3  4  1  0  0  0  0
  4  5  1  0  0  0  0
  5  6  1  0  0  0  0
  6  7  1  0  0  0  0
  7  8  1  0  0  0  0
  8  9  1  0  0  0  0
  9 10  1  0  0  0  0
 10  4  1  0  0  0  0
  7 11  1  0  0  0  0
  2 12  1  0  0  0  0
 12 13  1  0  0  0  0
 13 14  1  0  0  0  0
 14 15  1  0  0  0  0
 15 16  2  0  0  0  0
 16 17  1  0  0  0  0
 17 18  2  0  0  0  0
 18 19  1  0  0  0  0
 19 14  2  0  0  0  0
 16 20  1  0  0  0  0
 20 21  1  0  0  0  0
 20 22  1  0  0  0  0
 20 23  1  0  0  0  0
  3 24  1  0  0  0  0
  4 25  1  0  0  0  0
  5 26  1  0  0  0  0
  5 27  1  0  0  0  0
  6 28  1  0  0  0  0
  6 29  1  0  0  0  0
  7 30  1  0  0  0  0
  8 31  1  0  0  0  0
  8 32  1  0  0  0  0
  9 33  1  0  0  0  0
  9 34  1  0  0  0  0
 10 35  1  0  0  0  0
 10 36  1  0  0  0  0
 11 37  1  0  0  0  0
 11 38  1  0  0  0  0
 11 39  1  0  0  0  0
 12 40  1  0  0  0  0
 13 41  1  0  0  0  0
 13 42  1  0  0  0  0
 15 43  1  0  0  0  0
 17 44  1  0  0  0  0
 18 45  1  0  0  0  0
 19 46  1  0  0  0  0
 21 47  1  0  0  0  0
 22 48  1  0  0  0  0
 22 49  1  0  0  0  0
 22 50  1  0  0  0  0
 23 51  1  0  0  0  0
 23 52  1  0  0  0  0
 23 53  1  0  0  0  0
M  END
>  <result-rank>
81

>  <similarity>
0.941

>  <query-name>
LIG_A_1101_CCC[C@H]([R*])C1CCC1_2

>  <query-smiles>
O=C(N[C@H](C1CCC1)CCC)[C@@H](NC(=O)C)Cc2ccc(O)cc2

>  <source>
REALspace_2019-12

>  <similarity-descriptor>
1.000;0.990;0.995;1.000;1.000;1.000;1.000;1.000;0.869;0.869;0.0;0.0;0.869;0.859;0.182

>  <similarity-descriptor-smiles>
C1CCCCCC1;c1cccc(c1)C;O=C;N;C1CCCCCC1;C1CCCCCC1;C1CCCCCC1;C;NC;NC;;;NC;O;C.C

>  <reaction-name>
s_2708

>  <reagent1-name>
9163340

>  <reagent1-smiles>
[R1*]C(=O)NC1CCC(CCC1)C

>  <reagent2-name>
14190262

>  <reagent2-smiles>
[R1*]NCc1cc(ccc1)C(O)(C)C

$$$$
s_512____8902436____9820830
          04022015093D 1   1.00000     0.00000     0
            
 53 54  0  0  0  0            999 V2000
   -2.3440    0.7176    2.2637 Cl  0  0  0  0  0  0  0  0  0  0  0  0
   -1.1474   -0.3103    3.0888 C   0  0  0  0  0  0  0  0  0  0  0  0
    0.0116   -0.7119    2.4333 C   0  0  0  0  0  0  0  0  0  0  0  0
    0.9397   -1.5145    3.0894 C   0  0  0  0  0  0  0  0  0  0  0  0
    0.7082   -1.9159    4.4013 C   0  0  0  0  0  0  0  0  0  0  0  0
   -0.4546   -1.5088    5.0471 C   0  0  0  0  0  0  0  0  0  0  0  0
   -0.7523   -2.0221    6.7255 Cl  0  0  0  0  0  0  0  0  0  0  0  0
   -1.3885   -0.7061    4.4004 C   0  0  0  0  0  0  0  0  0  0  0  0
    0.2650   -0.2731    1.0000 C   0  0  0  0  0  0  0  0  0  0  0  0
    1.0000    1.0000    1.0000 N   0  0  0  0  0  0  0  0  0  0  0  0
    2.3700    1.0000    1.0000 C   0  0  0  0  0  0  0  0  0  0  0  0
    2.9700    2.0392    1.0000 O   0  0  0  0  0  0  0  0  0  0  0  0
    3.0550   -0.1865    1.0000 N   0  0  0  0  0  0  0  0  0  0  0  0
    4.5250   -0.1865    1.0000 C   0  0  3  0  0  0  0  0  0  0  0  0
    5.0317   -0.9030    2.2411 C   0  0  0  0  0  0  0  0  0  0  0  0
    4.5250   -0.1865    3.4821 C   0  0  0  0  0  0  0  0  0  0  0  0
    5.0319   -0.9033    4.7237 C   0  0  0  0  0  0  0  0  0  0  0  0
    6.5322   -0.9231    4.7580 C   0  0  0  0  0  0  0  0  0  0  0  0
    5.7732   -2.1668    4.3940 C   0  0  0  0  0  0  0  0  0  0  0  0
    5.0317   -0.9030   -0.2411 C   0  0  0  0  0  0  0  0  0  0  0  0
    0.2650    2.2731    1.0000 C   0  0  0  0  0  0  0  0  0  0  0  0
    0.0117    2.7118   -0.4331 C   0  0  0  0  0  0  0  0  0  0  0  0
   -0.7233    3.9849   -0.4331 N   0  0  0  0  0  0  0  0  0  0  0  0
   -1.0658    4.5781   -1.6195 C   0  0  0  0  0  0  0  0  0  0  0  0
   -0.7658    4.0585   -2.6588 O   0  0  0  0  0  0  0  0  0  0  0  0
   -1.8258    5.8945   -1.6195 C   0  0  0  0  0  0  0  0  0  0  0  0
    1.7732   -1.8028    2.6180 H   0  0  0  0  0  0  0  0  0  0  0  0
    1.3727   -2.4928    4.8763 H   0  0  0  0  0  0  0  0  0  0  0  0
   -2.2218   -0.4174    4.8719 H   0  0  0  0  0  0  0  0  0  0  0  0
    0.8054   -0.9700    0.5286 H   0  0  0  0  0  0  0  0  0  0  0  0
   -0.6088   -0.1535    0.5286 H   0  0  0  0  0  0  0  0  0  0  0  0
    2.5550   -1.0525    1.0000 H   0  0  0  0  0  0  0  0  0  0  0  0
    4.8583    0.7564    1.0000 H   0  0  0  0  0  0  0  0  0  0  0  0
    6.0317   -0.9030    2.2411 H   0  0  0  0  0  0  0  0  0  0  0  0
    4.6983   -1.8458    2.2411 H   0  0  0  0  0  0  0  0  0  0  0  0
    4.8583    0.7564    3.4821 H   0  0  0  0  0  0  0  0  0  0  0  0
    3.5250   -0.1865    3.4821 H   0  0  0  0  0  0  0  0  0  0  0  0
    4.5170   -0.8390    5.5786 H   0  0  0  0  0  0  0  0  0  0  0  0
    7.0130   -0.8689    5.6332 H   0  0  0  0  0  0  0  0  0  0  0  0
    7.0547   -0.4339    4.0597 H   0  0  0  0  0  0  0  0  0  0  0  0
    5.7902   -2.5057    3.4533 H   0  0  0  0  0  0  0  0  0  0  0  0
    5.7485   -2.9408    5.0268 H   0  0  0  0  0  0  0  0  0  0  0  0
    6.0317   -0.9030   -0.2411 H   0  0  0  0  0  0  0  0  0  0  0  0
    4.6983   -1.8458   -0.2411 H   0  0  0  0  0  0  0  0  0  0  0  0
    4.6983   -0.4316   -1.0576 H   0  0  0  0  0  0  0  0  0  0  0  0
    0.8054    2.9700    1.4714 H   0  0  0  0  0  0  0  0  0  0  0  0
   -0.6088    2.1535    1.4714 H   0  0  0  0  0  0  0  0  0  0  0  0
    0.8854    2.8314   -0.9045 H   0  0  0  0  0  0  0  0  0  0  0  0
   -0.5288    2.0149   -0.9045 H   0  0  0  0  0  0  0  0  0  0  0  0
   -0.9733    4.4179    0.4330 H   0  0  0  0  0  0  0  0  0  0  0  0
   -1.9925    6.1832   -0.6767 H   0  0  0  0  0  0  0  0  0  0  0  0
   -1.2854    6.5914   -2.0909 H   0  0  0  0  0  0  0  0  0  0  0  0
   -2.6996    5.7749   -2.0909 H   0  0  0  0  0  0  0  0  0  0  0  0
  1  2  1  0  0  0  0
  2  3  1  0  0  0  0
  3  4  2  0  0  0  0
  4  5  1  0  0  0  0
  5  6  2  0  0  0  0
  6  7  1  0  0  0  0
  6  8  1  0  0  0  0
  8  2  2  0  0  0  0
  3  9  1  0  0  0  0
  9 10  1  0  0  0  0
 10 11  1  0  0  0  0
 11 12  2  0  0  0  0
 11 13  1  0  0  0  0
 13 14  1  0  0  0  0
 14 15  1  0  0  0  0
 15 16  1  0  0  0  0
 16 17  1  0  0  0  0
 17 18  1  0  0  0  0
 18 19  1  0  0  0  0
 19 17  1  0  0  0  0
 14 20  1  0  0  0  0
 10 21  1  0  0  0  0
 21 22  1  0  0  0  0
 22 23  1  0  0  0  0
 23 24  1  0  0  0  0
 24 25  2  0  0  0  0
 24 26  1  0  0  0  0
  4 27  1  0  0  0  0
  5 28  1  0  0  0  0
  8 29  1  0  0  0  0
  9 30  1  0  0  0  0
  9 31  1  0  0  0  0
 13 32  1  0  0  0  0
 14 33  1  0  0  0  0
 15 34  1  0  0  0  0
 15 35  1  0  0  0  0
 16 36  1  0  0  0  0
 16 37  1  0  0  0  0
 17 38  1  0  0  0  0
 18 39  1  0  0  0  0
 18 40  1  0  0  0  0
 19 41  1  0  0  0  0
 19 42  1  0  0  0  0
 20 43  1  0  0  0  0
 20 44  1  0  0  0  0
 20 45  1  0  0  0  0
 21 46  1  0  0  0  0
 21 47  1  0  0  0  0
 22 48  1  0  0  0  0
 22 49  1  0  0  0  0
 23 50  1  0  0  0  0
 26 51  1  0  0  0  0
 26 52  1  0  0  0  0
 26 53  1  0  0  0  0
M  END
>  <result-rank>
82

>  <similarity>
0.940

>  <query-name>
LIG_A_1101_CCC[C@H]([R*])C1CCC1_2

>  <query-smiles>
O=C(N[C@H](C1CCC1)CCC)[C@@H](NC(=O)C)Cc2ccc(O)cc2

>  <source>
REALspace_2019-12

>  <similarity-descriptor>
1.000;0.921;0.995;1.000;1.000;1.000;0.949;0.0;0.953;0.723;1.000;1.000;0.953;0.0;0.0

>  <similarity-descriptor-smiles>
CC1CC1;Clc1cc(ccc1)Cl;C=O;N;CC;CC;C;;CNC;CN;C=O;C;CNC;;

>  <reaction-name>
s_512

>  <reagent1-name>
8902436

>  <reagent1-smiles>
[R1*]C(=O)NC(CCC1CC1)C

>  <reagent2-name>
9820830

>  <reagent2-smiles>
[R1*]N(Cc1c(Cl)cc(Cl)cc1)CCNC(=O)C

$$$$
s_240690a____7347544____12624318
          04022015093D 1   1.00000     0.00000     0
            
 45 46  0  0  0  0            999 V2000
   -3.5596    2.9626    3.1573 Br  0  0  0  0  0  0  0  0  0  0  0  0
   -2.3485    1.4914    2.6994 C   0  0  0  0  0  0  0  0  0  0  0  0
   -1.1548    1.7629    2.0397 C   0  0  0  0  0  0  0  0  0  0  0  0
   -0.3061    0.7074    1.7209 C   0  0  0  0  0  0  0  0  0  0  0  0
   -0.6365   -0.6023    2.0520 C   0  0  0  0  0  0  0  0  0  0  0  0
   -1.8357   -0.8516    2.7112 C   0  0  0  0  0  0  0  0  0  0  0  0
   -2.6984    0.1889    3.0392 C   0  0  0  0  0  0  0  0  0  0  0  0
    1.0000    1.0000    1.0000 C   0  0  3  0  0  0  0  0  0  0  0  0
    1.8487    1.8487    1.8487 N   0  0  0  0  0  0  0  0  0  0  0  0
    3.0831    1.4052    2.2442 C   0  0  0  0  0  0  0  0  0  0  0  0
    3.4716    0.3240    1.8978 O   0  0  0  0  0  0  0  0  0  0  0  0
    3.9607    2.2828    3.1218 C   0  0  0  0  0  0  0  0  0  0  0  0
    0.7075    1.7208   -0.3059 C   0  0  0  0  0  0  0  0  0  0  0  0
    0.9606    2.8886   -0.4164 O   0  0  0  0  0  0  0  0  0  0  0  0
    0.1433    1.0231   -1.3785 N   0  0  0  0  0  0  0  0  0  0  0  0
   -0.2299    1.7748   -2.5886 C   0  0  0  0  0  0  0  0  0  0  0  0
   -1.4546    1.1867   -3.2751 C   0  0  3  0  0  0  0  0  0  0  0  0
   -1.3785   -0.3293   -3.3913 C   0  0  3  0  0  0  0  0  0  0  0  0
   -2.6394   -0.8000   -3.9828 N   0  3  0  0  0  0  0  0  0  0  0  0
   -1.2851   -0.9157   -1.9894 C   0  0  0  0  0  0  0  0  0  0  0  0
   -0.0523   -0.4296   -1.2397 C   0  0  0  0  0  0  0  0  0  0  0  0
   -1.5862    1.8317   -4.6455 C   0  0  0  0  0  0  0  0  0  0  0  0
   -2.6152   -1.7958   -4.0704 H   0  0  0  0  0  0  0  0  0  0  0  0
   -3.4030   -0.5356   -3.3939 H   0  0  0  0  0  0  0  0  0  0  0  0
   -2.7575   -0.3887   -4.8867 H   0  0  0  0  0  0  0  0  0  0  0  0
   -0.9103    2.7020    1.7983 H   0  0  0  0  0  0  0  0  0  0  0  0
   -0.0202   -1.3547    1.8193 H   0  0  0  0  0  0  0  0  0  0  0  0
   -2.0807   -1.7907    2.9523 H   0  0  0  0  0  0  0  0  0  0  0  0
   -3.5591    0.0030    3.5133 H   0  0  0  0  0  0  0  0  0  0  0  0
    1.4742    0.1409    0.8075 H   0  0  0  0  0  0  0  0  0  0  0  0
    1.5250    2.7498    2.1374 H   0  0  0  0  0  0  0  0  0  0  0  0
    3.4865    3.1419    3.3142 H   0  0  0  0  0  0  0  0  0  0  0  0
    4.1532    1.8086    3.9809 H   0  0  0  0  0  0  0  0  0  0  0  0
    4.8198    2.4753    2.6475 H   0  0  0  0  0  0  0  0  0  0  0  0
    0.5381    1.7567   -3.2288 H   0  0  0  0  0  0  0  0  0  0  0  0
   -0.4277    2.7209   -2.3319 H   0  0  0  0  0  0  0  0  0  0  0  0
   -2.2631    1.4223   -2.7358 H   0  0  0  0  0  0  0  0  0  0  0  0
   -0.5960   -0.6069   -3.9485 H   0  0  0  0  0  0  0  0  0  0  0  0
   -1.2462   -1.9124   -2.0599 H   0  0  0  0  0  0  0  0  0  0  0  0
   -2.1000   -0.6495   -1.4747 H   0  0  0  0  0  0  0  0  0  0  0  0
   -0.1571   -0.6497   -0.2699 H   0  0  0  0  0  0  0  0  0  0  0  0
    0.7522   -0.8995   -1.6031 H   0  0  0  0  0  0  0  0  0  0  0  0
   -1.6342    2.8253   -4.5430 H   0  0  0  0  0  0  0  0  0  0  0  0
   -0.7921    1.5923   -5.2042 H   0  0  0  0  0  0  0  0  0  0  0  0
   -2.4187    1.5019   -5.0906 H   0  0  0  0  0  0  0  0  0  0  0  0
  1  2  1  0  0  0  0
  2  3  1  0  0  0  0
  3  4  2  0  0  0  0
  4  5  1  0  0  0  0
  5  6  2  0  0  0  0
  6  7  1  0  0  0  0
  7  2  2  0  0  0  0
  4  8  1  0  0  0  0
  8  9  1  0  0  0  0
  9 10  1  0  0  0  0
 10 11  2  0  0  0  0
 10 12  1  0  0  0  0
  8 13  1  0  0  0  0
 13 14  2  0  0  0  0
 13 15  1  0  0  0  0
 15 16  1  0  0  0  0
 16 17  1  0  0  0  0
 17 18  1  0  0  0  0
 18 19  1  0  0  0  0
 18 20  1  0  0  0  0
 20 21  1  0  0  0  0
 21 15  1  0  0  0  0
 17 22  1  0  0  0  0
 19 23  1  0  0  0  0
 19 24  1  0  0  0  0
 19 25  1  0  0  0  0
  3 26  1  0  0  0  0
  5 27  1  0  0  0  0
  6 28  1  0  0  0  0
  7 29  1  0  0  0  0
  8 30  1  0  0  0  0
  9 31  1  0  0  0  0
 12 32  1  0  0  0  0
 12 33  1  0  0  0  0
 12 34  1  0  0  0  0
 16 35  1  0  0  0  0
 16 36  1  0  0  0  0
 17 37  1  0  0  0  0
 18 38  1  0  0  0  0
 20 39  1  0  0  0  0
 20 40  1  0  0  0  0
 21 41  1  0  0  0  0
 21 42  1  0  0  0  0
 22 43  1  0  0  0  0
 22 44  1  0  0  0  0
 22 45  1  0  0  0  0
M  CHG  1  19   1
M  END
>  <result-rank>
83

>  <similarity>
0.940

>  <query-name>
LIG_A_1101_CCC[C@H]([R*])C1CCC1_2

>  <query-smiles>
O=C(N[C@H](C1CCC1)CCC)[C@@H](NC(=O)C)Cc2ccc(O)cc2

>  <source>
REALspace_2019-12

>  <similarity-descriptor>
0.991;0.969;0.852;0.852;0.991;0.949;0.0;0.0;1.000;1.000;1.000;1.000;0.969;0.0;0.111

>  <similarity-descriptor-smiles>
N1CCCCC1;Brc1ccccc1;C=O;C=O;N1CCCCC1;C;;;C;N;C=O;C;Brc1ccccc1;;[NH3+]

>  <reaction-name>
s_240690a

>  <reagent1-name>
7347544

>  <reagent1-smiles>
[R1*]N1CC(C(N)CC1)C

>  <reagent2-name>
12624318

>  <reagent2-smiles>
[R1*]C(=O)C(NC(=O)C)c1cc(Br)ccc1

$$$$
s_2708____14785312____8804248
          04022015093D 1   1.00000     0.00000     0
            
 51 53  0  0  0  0            999 V2000
    0.9720   -5.6788    4.6716 F   0  0  0  0  0  0  0  0  0  0  0  0
    2.1166   -5.3997    4.0526 C   0  0  0  0  0  0  0  0  0  0  0  0
    2.2423   -4.2130    3.3381 C   0  0  0  0  0  0  0  0  0  0  0  0
    3.4465   -3.9406    2.6972 C   0  0  0  0  0  0  0  0  0  0  0  0
    3.5784   -2.7485    1.9761 N   0  0  0  0  0  0  0  0  0  0  0  0
    4.1838   -1.6376    2.5760 C   0  0  0  0  0  0  0  0  0  0  0  0
    4.6377   -1.6851    3.7068 O   0  0  0  0  0  0  0  0  0  0  0  0
    4.2747   -0.3176    1.8313 C   0  0  0  0  0  0  0  0  0  0  0  0
    3.0701   -0.2126    1.0000 N   0  0  0  0  0  0  0  0  0  0  0  0
    2.3700    1.0000    1.0000 C   0  0  0  0  0  0  0  0  0  0  0  0
    2.9700    2.0392    1.0000 O   0  0  0  0  0  0  0  0  0  0  0  0
    1.0000    1.0000    1.0000 N   0  0  0  0  0  0  0  0  0  0  0  0
    0.2655    2.2721    1.0000 C   0  0  3  0  0  0  0  0  0  0  0  0
   -0.0256    2.7763   -0.4014 C   0  0  3  0  0  0  0  0  0  0  0  0
    1.2191    3.3711   -1.0398 C   0  0  0  0  0  0  0  0  0  0  0  0
    0.8853    3.8629   -2.4388 C   0  0  0  0  0  0  0  0  0  0  0  0
    1.7132    4.5360   -0.1977 C   0  0  0  0  0  0  0  0  0  0  0  0
   -1.0879    3.8377   -0.1654 C   0  0  0  0  0  0  0  0  0  0  0  0
   -1.7910    3.4261    1.1147 C   0  0  0  0  0  0  0  0  0  0  0  0
   -1.1462    2.1151    1.5284 C   0  0  0  0  0  0  0  0  0  0  0  0
    2.5585   -1.3174    0.1709 C   0  0  0  0  0  0  0  0  0  0  0  0
    3.0732   -2.6882    0.5896 C   0  0  0  0  0  0  0  0  0  0  0  0
    4.5106   -4.8339    2.7645 C   0  0  0  0  0  0  0  0  0  0  0  0
    4.3700   -6.0177    3.4800 C   0  0  0  0  0  0  0  0  0  0  0  0
    3.1720   -6.3016    4.1261 C   0  0  0  0  0  0  0  0  0  0  0  0
    1.4805   -3.5672    3.2861 H   0  0  0  0  0  0  0  0  0  0  0  0
    4.3113    0.4418    2.4810 H   0  0  0  0  0  0  0  0  0  0  0  0
    5.0921   -0.3033    1.2555 H   0  0  0  0  0  0  0  0  0  0  0  0
    0.5000    0.1340    1.0000 H   0  0  0  0  0  0  0  0  0  0  0  0
    0.7617    2.9634    1.5253 H   0  0  0  0  0  0  0  0  0  0  0  0
   -0.3900    2.0381   -0.9691 H   0  0  0  0  0  0  0  0  0  0  0  0
    1.9325    2.6724   -1.0935 H   0  0  0  0  0  0  0  0  0  0  0  0
    1.7041    4.2542   -2.8588 H   0  0  0  0  0  0  0  0  0  0  0  0
    0.5602    3.0965   -2.9928 H   0  0  0  0  0  0  0  0  0  0  0  0
    0.1719    4.5616   -2.3851 H   0  0  0  0  0  0  0  0  0  0  0  0
    2.5320    4.9272   -0.6177 H   0  0  0  0  0  0  0  0  0  0  0  0
    0.9998    5.2347   -0.1440 H   0  0  0  0  0  0  0  0  0  0  0  0
    1.9328    4.2124    0.7227 H   0  0  0  0  0  0  0  0  0  0  0  0
   -1.7345    3.8612   -0.9278 H   0  0  0  0  0  0  0  0  0  0  0  0
   -0.6655    4.7378   -0.0588 H   0  0  0  0  0  0  0  0  0  0  0  0
   -1.6600    4.1190    1.8237 H   0  0  0  0  0  0  0  0  0  0  0  0
   -2.7691    3.2980    0.9505 H   0  0  0  0  0  0  0  0  0  0  0  0
   -1.1513    2.0063    2.5224 H   0  0  0  0  0  0  0  0  0  0  0  0
   -1.6071    1.3350    1.1053 H   0  0  0  0  0  0  0  0  0  0  0  0
    2.8324   -1.1536   -0.7768 H   0  0  0  0  0  0  0  0  0  0  0  0
    1.5605   -1.3226    0.2333 H   0  0  0  0  0  0  0  0  0  0  0  0
    2.3245   -3.3449    0.5000 H   0  0  0  0  0  0  0  0  0  0  0  0
    3.8176   -2.9452   -0.0267 H   0  0  0  0  0  0  0  0  0  0  0  0
    5.3718   -4.6259    2.3009 H   0  0  0  0  0  0  0  0  0  0  0  0
    5.1306   -6.6650    3.5300 H   0  0  0  0  0  0  0  0  0  0  0  0
    3.0698   -7.1521    4.6421 H   0  0  0  0  0  0  0  0  0  0  0  0
  1  2  1  0  0  0  0
  2  3  1  0  0  0  0
  3  4  2  0  0  0  0
  4  5  1  0  0  0  0
  5  6  1  0  0  0  0
  6  7  2  0  0  0  0
  6  8  1  0  0  0  0
  8  9  1  0  0  0  0
  9 10  1  0  0  0  0
 10 11  2  0  0  0  0
 10 12  1  0  0  0  0
 12 13  1  0  0  0  0
 13 14  1  0  0  0  0
 14 15  1  0  0  0  0
 15 16  1  0  0  0  0
 15 17  1  0  0  0  0
 14 18  1  0  0  0  0
 18 19  1  0  0  0  0
 19 20  1  0  0  0  0
 20 13  1  0  0  0  0
  9 21  1  0  0  0  0
 21 22  1  0  0  0  0
 22  5  1  0  0  0  0
  4 23  1  0  0  0  0
 23 24  2  0  0  0  0
 24 25  1  0  0  0  0
 25  2  2  0  0  0  0
  3 26  1  0  0  0  0
  8 27  1  0  0  0  0
  8 28  1  0  0  0  0
 12 29  1  0  0  0  0
 13 30  1  0  0  0  0
 14 31  1  0  0  0  0
 15 32  1  0  0  0  0
 16 33  1  0  0  0  0
 16 34  1  0  0  0  0
 16 35  1  0  0  0  0
 17 36  1  0  0  0  0
 17 37  1  0  0  0  0
 17 38  1  0  0  0  0
 18 39  1  0  0  0  0
 18 40  1  0  0  0  0
 19 41  1  0  0  0  0
 19 42  1  0  0  0  0
 20 43  1  0  0  0  0
 20 44  1  0  0  0  0
 21 45  1  0  0  0  0
 21 46  1  0  0  0  0
 22 47  1  0  0  0  0
 22 48  1  0  0  0  0
 23 49  1  0  0  0  0
 24 50  1  0  0  0  0
 25 51  1  0  0  0  0
M  END
>  <result-rank>
84

>  <similarity>
0.940

>  <query-name>
LIG_A_1101_CCC[C@H]([R*])C1CCC1_2

>  <query-smiles>
O=C(N[C@H](C1CCC1)CCC)[C@@H](NC(=O)C)Cc2ccc(O)cc2

>  <source>
REALspace_2019-12

>  <similarity-descriptor>
1.000;0.982;0.995;1.000;1.000;0.998;0.998;1.000;0.820;0.820;0.820;0.820;0.820;0.0;0.0

>  <similarity-descriptor-smiles>
C1CCCC1;Fc1ccccc1;C=O;N;C1CCCC1;CC;CC;C;N1CCNCC1=O;N1CCNCC1=O;N1CCNCC1=O;N1CCNCC1=O;N1CCNCC1=O;;

>  <reaction-name>
s_2708

>  <reagent1-name>
14785312

>  <reagent1-smiles>
[R1*]C(=O)NC1C(C(C)C)CCC1

>  <reagent2-name>
8804248

>  <reagent2-smiles>
[R1*]N1CC(=O)N(c2cc(F)ccc2)CC1

$$$$
s_2708____11569280____12214562
          04022015093D 1   1.00000     0.00000     0
            
 57 59  0  0  0  0            999 V2000
    4.1399    6.3669    5.6527 F   0  0  0  0  0  0  0  0  0  0  0  0
    3.3989    5.4805    4.9932 C   0  0  0  0  0  0  0  0  0  0  0  0
    3.0177    5.7375    3.6803 C   0  0  0  0  0  0  0  0  0  0  0  0
    2.2420    4.8063    2.9973 C   0  0  0  0  0  0  0  0  0  0  0  0
    1.8576    3.6310    3.6341 C   0  0  0  0  0  0  0  0  0  0  0  0
    2.2420    3.3791    4.9466 C   0  0  0  0  0  0  0  0  0  0  0  0
    3.0178    4.3063    5.6343 C   0  0  0  0  0  0  0  0  0  0  0  0
    1.0100    2.6179    2.8824 C   0  0  0  0  0  0  0  0  0  0  0  0
    1.8776    1.8776    1.8776 C   0  0  3  0  0  0  0  0  0  0  0  0
    2.8824    1.0100    2.6179 C   0  0  0  0  0  0  0  0  0  0  0  0
    2.5270    0.3416    3.5489 O   0  0  0  0  0  0  0  0  0  0  0  0
    4.1939    0.9912    2.2222 N   0  0  0  0  0  0  0  0  0  0  0  0
    5.0913   -0.0696    2.7021 C   0  0  0  0  0  0  0  0  0  0  0  0
    4.7037    2.0318    1.3177 C   0  0  0  0  0  0  0  0  0  0  0  0
    1.0000    1.0000    1.0000 C   0  0  0  0  0  0  0  0  0  0  0  0
    1.8487    0.1513    0.1513 N   0  0  0  0  0  0  0  0  0  0  0  0
    2.0760   -1.1545    0.4979 C   0  0  0  0  0  0  0  0  0  0  0  0
    1.5116   -1.6312    1.4436 O   0  0  0  0  0  0  0  0  0  0  0  0
    2.9475   -1.9161   -0.2351 N   0  0  0  0  0  0  0  0  0  0  0  0
    3.1921   -3.3214    0.1379 C   0  0  3  0  0  0  0  0  0  0  0  0
    2.2650   -4.3271   -0.5168 C   0  0  0  0  0  0  0  0  0  0  0  0
    3.4812   -5.2106   -0.6186 C   0  0  0  0  0  0  0  0  0  0  0  0
    4.3147   -3.9477   -0.6633 C   0  0  0  0  0  0  0  0  0  0  0  0
    1.0774   -4.7804    0.3016 C   0  0  0  0  0  0  0  0  0  0  0  0
    0.1933   -5.5497   -0.6578 C   0  0  0  0  0  0  0  0  0  0  0  0
    0.5316   -5.0100   -2.0397 C   0  0  0  0  0  0  0  0  0  0  0  0
    1.5692   -3.9331   -1.8045 C   0  0  0  0  0  0  0  0  0  0  0  0
    3.2991    6.5852    3.2307 H   0  0  0  0  0  0  0  0  0  0  0  0
    1.9623    4.9809    2.0533 H   0  0  0  0  0  0  0  0  0  0  0  0
    1.9606    2.5312    5.3960 H   0  0  0  0  0  0  0  0  0  0  0  0
    3.2981    4.1310    6.5781 H   0  0  0  0  0  0  0  0  0  0  0  0
    0.2728    3.0918    2.4009 H   0  0  0  0  0  0  0  0  0  0  0  0
    0.6188    1.9643    3.5304 H   0  0  0  0  0  0  0  0  0  0  0  0
    2.3646    2.5386    1.3068 H   0  0  0  0  0  0  0  0  0  0  0  0
    6.0046    0.0677    2.3187 H   0  0  0  0  0  0  0  0  0  0  0  0
    5.1406   -0.0382    3.7004 H   0  0  0  0  0  0  0  0  0  0  0  0
    4.7391   -0.9600    2.4136 H   0  0  0  0  0  0  0  0  0  0  0  0
    5.6727    1.8675    1.1331 H   0  0  0  0  0  0  0  0  0  0  0  0
    4.1919    2.0070    0.4589 H   0  0  0  0  0  0  0  0  0  0  0  0
    4.5934    2.9288    1.7457 H   0  0  0  0  0  0  0  0  0  0  0  0
    0.4226    0.4226    1.5774 H   0  0  0  0  0  0  0  0  0  0  0  0
    0.4226    1.5774    0.4226 H   0  0  0  0  0  0  0  0  0  0  0  0
    2.2602    0.5271   -0.6791 H   0  0  0  0  0  0  0  0  0  0  0  0
    3.4178   -1.5188   -1.0232 H   0  0  0  0  0  0  0  0  0  0  0  0
    3.2880   -3.4568    1.1240 H   0  0  0  0  0  0  0  0  0  0  0  0
    3.5235   -5.7676   -1.4481 H   0  0  0  0  0  0  0  0  0  0  0  0
    3.6440   -5.7895    0.1803 H   0  0  0  0  0  0  0  0  0  0  0  0
    5.1938   -4.0030   -0.1899 H   0  0  0  0  0  0  0  0  0  0  0  0
    4.4511   -3.5617   -1.5756 H   0  0  0  0  0  0  0  0  0  0  0  0
    0.5871   -3.9916    0.6723 H   0  0  0  0  0  0  0  0  0  0  0  0
    1.3751   -5.3706    1.0520 H   0  0  0  0  0  0  0  0  0  0  0  0
   -0.7716   -5.3924   -0.4472 H   0  0  0  0  0  0  0  0  0  0  0  0
    0.3902   -6.5288   -0.6066 H   0  0  0  0  0  0  0  0  0  0  0  0
    0.9047   -5.7358   -2.6176 H   0  0  0  0  0  0  0  0  0  0  0  0
   -0.2822   -4.6236   -2.4738 H   0  0  0  0  0  0  0  0  0  0  0  0
    2.2221   -3.9038   -2.5613 H   0  0  0  0  0  0  0  0  0  0  0  0
    1.1313   -3.0393   -1.7073 H   0  0  0  0  0  0  0  0  0  0  0  0
  1  2  1  0  0  0  0
  2  3  1  0  0  0  0
  3  4  2  0  0  0  0
  4  5  1  0  0  0  0
  5  6  2  0  0  0  0
  6  7  1  0  0  0  0
  7  2  2  0  0  0  0
  5  8  1  0  0  0  0
  8  9  1  0  0  0  0
  9 10  1  0  0  0  0
 10 11  2  0  0  0  0
 10 12  1  0  0  0  0
 12 13  1  0  0  0  0
 12 14  1  0  0  0  0
  9 15  1  0  0  0  0
 15 16  1  0  0  0  0
 16 17  1  0  0  0  0
 17 18  2  0  0  0  0
 17 19  1  0  0  0  0
 19 20  1  0  0  0  0
 20 21  1  0  0  0  0
 21 22  1  0  0  0  0
 22 23  1  0  0  0  0
 23 20  1  0  0  0  0
 21 24  1  0  0  0  0
 24 25  1  0  0  0  0
 25 26  1  0  0  0  0
 26 27  1  0  0  0  0
 27 21  1  0  0  0  0
  3 28  1  0  0  0  0
  4 29  1  0  0  0  0
  6 30  1  0  0  0  0
  7 31  1  0  0  0  0
  8 32  1  0  0  0  0
  8 33  1  0  0  0  0
  9 34  1  0  0  0  0
 13 35  1  0  0  0  0
 13 36  1  0  0  0  0
 13 37  1  0  0  0  0
 14 38  1  0  0  0  0
 14 39  1  0  0  0  0
 14 40  1  0  0  0  0
 15 41  1  0  0  0  0
 15 42  1  0  0  0  0
 16 43  1  0  0  0  0
 19 44  1  0  0  0  0
 20 45  1  0  0  0  0
 22 46  1  0  0  0  0
 22 47  1  0  0  0  0
 23 48  1  0  0  0  0
 23 49  1  0  0  0  0
 24 50  1  0  0  0  0
 24 51  1  0  0  0  0
 25 52  1  0  0  0  0
 25 53  1  0  0  0  0
 26 54  1  0  0  0  0
 26 55  1  0  0  0  0
 27 56  1  0  0  0  0
 27 57  1  0  0  0  0
M  END
>  <result-rank>
85

>  <similarity>
0.940

>  <query-name>
LIG_A_1101_CCC[C@H]([R*])C1CCC1_2

>  <query-smiles>
O=C(N[C@H](C1CCC1)CCC)[C@@H](NC(=O)C)Cc2ccc(O)cc2

>  <source>
REALspace_2019-12

>  <similarity-descriptor>
0.980;0.983;0.995;1.000;0.895;0.895;0.895;0.0;0.824;0.824;1.000;0.977;1.000;0.0;0.077

>  <similarity-descriptor-smiles>
C1CCCC1;Fc1ccccc1;C=O;N;C1CCC1;C1CCC1;C1CCC1;;CCN;CCN;C=O;NC;C;;C

>  <reaction-name>
s_2708

>  <reagent1-name>
11569280

>  <reagent1-smiles>
[R1*]C(=O)NCC(C(=O)N(C)C)Cc1ccc(F)cc1

>  <reagent2-name>
12214562

>  <reagent2-smiles>
[R1*]NC1C2(CC1)CCCC2

$$$$
s_2708____11569280____5343582
          04022015093D 1   1.00000     0.00000     0
            
 64 64  0  0  0  0            999 V2000
    2.4056   -1.1354   -5.0370 F   0  0  0  0  0  0  0  0  0  0  0  0
    2.9591   -0.6347   -3.9359 C   0  0  0  0  0  0  0  0  0  0  0  0
    4.0087   -1.3093   -3.3208 C   0  0  0  0  0  0  0  0  0  0  0  0
    4.5819   -0.7799   -2.1691 C   0  0  0  0  0  0  0  0  0  0  0  0
    4.0999    0.4157   -1.6470 C   0  0  0  0  0  0  0  0  0  0  0  0
    3.0506    1.0861   -2.2665 C   0  0  0  0  0  0  0  0  0  0  0  0
    2.4738    0.5619   -3.4184 C   0  0  0  0  0  0  0  0  0  0  0  0
    4.7304    0.9885   -0.3884 C   0  0  0  0  0  0  0  0  0  0  0  0
    4.5806   -0.0062    0.7512 C   0  0  3  0  0  0  0  0  0  0  0  0
    5.2112    0.5667    2.0099 C   0  0  0  0  0  0  0  0  0  0  0  0
    4.8036    1.5975    2.4695 O   0  0  0  0  0  0  0  0  0  0  0  0
    6.2449   -0.0939    2.6199 N   0  0  0  0  0  0  0  0  0  0  0  0
    6.7441   -1.3567    2.0569 C   0  0  0  0  0  0  0  0  0  0  0  0
    6.8547    0.4601    3.8372 C   0  0  0  0  0  0  0  0  0  0  0  0
    3.1050   -0.2731    1.0000 C   0  0  0  0  0  0  0  0  0  0  0  0
    2.3700    1.0000    1.0000 N   0  0  0  0  0  0  0  0  0  0  0  0
    1.0000    1.0000    1.0000 C   0  0  0  0  0  0  0  0  0  0  0  0
    0.4000   -0.0392    1.0000 O   0  0  0  0  0  0  0  0  0  0  0  0
    0.3150    2.1865    1.0000 N   0  0  0  0  0  0  0  0  0  0  0  0
   -1.1550    2.1865    1.0000 C   0  0  3  0  0  0  0  0  0  0  0  0
   -1.6617    2.9030   -0.2411 C   0  0  0  0  0  0  0  0  0  0  0  0
   -3.1817    2.9030   -0.2411 C   0  0  0  0  0  0  0  0  0  0  0  0
   -1.1550    4.3361   -0.2411 C   0  0  0  0  0  0  0  0  0  0  0  0
   -1.1550    2.1865   -1.4821 C   0  0  0  0  0  0  0  0  0  0  0  0
   -1.6617    2.9030    2.2411 C   0  0  0  0  0  0  0  0  0  0  0  0
   -1.1550    2.1865    3.4821 C   0  0  0  0  0  0  0  0  0  0  0  0
   -1.6617    2.9030    4.7232 C   0  0  0  0  0  0  0  0  0  0  0  0
   -1.6617    0.7534    3.4821 C   0  0  0  0  0  0  0  0  0  0  0  0
    4.3486   -2.1683   -3.7036 H   0  0  0  0  0  0  0  0  0  0  0  0
    5.3369   -1.2567   -1.7187 H   0  0  0  0  0  0  0  0  0  0  0  0
    2.7109    1.9452   -1.8836 H   0  0  0  0  0  0  0  0  0  0  0  0
    1.7195    1.0393   -3.8691 H   0  0  0  0  0  0  0  0  0  0  0  0
    4.2731    1.8442   -0.1462 H   0  0  0  0  0  0  0  0  0  0  0  0
    5.7012    1.1641   -0.5521 H   0  0  0  0  0  0  0  0  0  0  0  0
    5.0378   -0.8619    0.5090 H   0  0  0  0  0  0  0  0  0  0  0  0
    7.4939   -1.7004    2.6224 H   0  0  0  0  0  0  0  0  0  0  0  0
    6.0044   -2.0294    2.0394 H   0  0  0  0  0  0  0  0  0  0  0  0
    7.0738   -1.1995    1.1260 H   0  0  0  0  0  0  0  0  0  0  0  0
    7.5886   -0.1444    4.1472 H   0  0  0  0  0  0  0  0  0  0  0  0
    7.2299    1.3657    3.6396 H   0  0  0  0  0  0  0  0  0  0  0  0
    6.1606    0.5358    4.5531 H   0  0  0  0  0  0  0  0  0  0  0  0
    2.7468   -0.8647    0.2778 H   0  0  0  0  0  0  0  0  0  0  0  0
    2.9924   -0.7230    1.8860 H   0  0  0  0  0  0  0  0  0  0  0  0
    2.8700    1.8660    1.0000 H   0  0  0  0  0  0  0  0  0  0  0  0
    0.8150    3.0525    1.0000 H   0  0  0  0  0  0  0  0  0  0  0  0
   -1.4883    1.2436    1.0000 H   0  0  0  0  0  0  0  0  0  0  0  0
   -3.5150    3.3744   -1.0576 H   0  0  0  0  0  0  0  0  0  0  0  0
   -3.5150    1.9602   -0.2411 H   0  0  0  0  0  0  0  0  0  0  0  0
   -3.5150    3.3744    0.5754 H   0  0  0  0  0  0  0  0  0  0  0  0
   -1.4883    4.8075   -1.0576 H   0  0  0  0  0  0  0  0  0  0  0  0
   -1.4883    4.8075    0.5754 H   0  0  0  0  0  0  0  0  0  0  0  0
   -0.1550    4.3361   -0.2411 H   0  0  0  0  0  0  0  0  0  0  0  0
   -1.4883    2.6579   -2.2986 H   0  0  0  0  0  0  0  0  0  0  0  0
   -0.1550    2.1865   -1.4821 H   0  0  0  0  0  0  0  0  0  0  0  0
   -1.4883    1.2436   -1.4821 H   0  0  0  0  0  0  0  0  0  0  0  0
   -2.6617    2.9030    2.2411 H   0  0  0  0  0  0  0  0  0  0  0  0
   -1.3283    3.8458    2.2411 H   0  0  0  0  0  0  0  0  0  0  0  0
   -0.1550    2.1865    3.4821 H   0  0  0  0  0  0  0  0  0  0  0  0
   -1.3283    2.4316    5.5397 H   0  0  0  0  0  0  0  0  0  0  0  0
   -1.3283    3.8458    4.7232 H   0  0  0  0  0  0  0  0  0  0  0  0
   -2.6617    2.9030    4.7232 H   0  0  0  0  0  0  0  0  0  0  0  0
   -1.3283    0.2820    4.2986 H   0  0  0  0  0  0  0  0  0  0  0  0
   -2.6617    0.7534    3.4821 H   0  0  0  0  0  0  0  0  0  0  0  0
   -1.3283    0.2820    2.6657 H   0  0  0  0  0  0  0  0  0  0  0  0
  1  2  1  0  0  0  0
  2  3  1  0  0  0  0
  3  4  2  0  0  0  0
  4  5  1  0  0  0  0
  5  6  2  0  0  0  0
  6  7  1  0  0  0  0
  7  2  2  0  0  0  0
  5  8  1  0  0  0  0
  8  9  1  0  0  0  0
  9 10  1  0  0  0  0
 10 11  2  0  0  0  0
 10 12  1  0  0  0  0
 12 13  1  0  0  0  0
 12 14  1  0  0  0  0
  9 15  1  0  0  0  0
 15 16  1  0  0  0  0
 16 17  1  0  0  0  0
 17 18  2  0  0  0  0
 17 19  1  0  0  0  0
 19 20  1  0  0  0  0
 20 21  1  0  0  0  0
 21 22  1  0  0  0  0
 21 23  1  0  0  0  0
 21 24  1  0  0  0  0
 20 25  1  0  0  0  0
 25 26  1  0  0  0  0
 26 27  1  0  0  0  0
 26 28  1  0  0  0  0
  3 29  1  0  0  0  0
  4 30  1  0  0  0  0
  6 31  1  0  0  0  0
  7 32  1  0  0  0  0
  8 33  1  0  0  0  0
  8 34  1  0  0  0  0
  9 35  1  0  0  0  0
 13 36  1  0  0  0  0
 13 37  1  0  0  0  0
 13 38  1  0  0  0  0
 14 39  1  0  0  0  0
 14 40  1  0  0  0  0
 14 41  1  0  0  0  0
 15 42  1  0  0  0  0
 15 43  1  0  0  0  0
 16 44  1  0  0  0  0
 19 45  1  0  0  0  0
 20 46  1  0  0  0  0
 22 47  1  0  0  0  0
 22 48  1  0  0  0  0
 22 49  1  0  0  0  0
 23 50  1  0  0  0  0
 23 51  1  0  0  0  0
 23 52  1  0  0  0  0
 24 53  1  0  0  0  0
 24 54  1  0  0  0  0
 24 55  1  0  0  0  0
 25 56  1  0  0  0  0
 25 57  1  0  0  0  0
 26 58  1  0  0  0  0
 27 59  1  0  0  0  0
 27 60  1  0  0  0  0
 27 61  1  0  0  0  0
 28 62  1  0  0  0  0
 28 63  1  0  0  0  0
 28 64  1  0  0  0  0
M  END
>  <result-rank>
86

>  <similarity>
0.939

>  <query-name>
LIG_A_1101_CCC[C@H]([R*])C1CCC1_2

>  <query-smiles>
O=C(N[C@H](C1CCC1)CCC)[C@@H](NC(=O)C)Cc2ccc(O)cc2

>  <source>
REALspace_2019-12

>  <similarity-descriptor>
0.880;0.983;0.995;1.000;1.000;0.937;0.937;1.000;0.824;0.824;1.000;0.977;1.000;0.0;0.050

>  <similarity-descriptor-smiles>
CC(C)C;Fc1ccccc1;C=O;N;C;C(C)C;C(C)C;C;CCN;CCN;C=O;NC;C;;C

>  <reaction-name>
s_2708

>  <reagent1-name>
11569280

>  <reagent1-smiles>
[R1*]C(=O)NCC(C(=O)N(C)C)Cc1ccc(F)cc1

>  <reagent2-name>
5343582

>  <reagent2-smiles>
[R1*]NC(C(C)(C)C)CC(C)C

$$$$
s_512____13611284____11973834
          04022015093D 1   1.00000     0.00000     0
            
 48 49  0  0  0  0            999 V2000
    4.3409    5.5892   -1.6391 F   0  0  0  0  0  0  0  0  0  0  0  0
    3.8961    4.5040   -1.0112 C   0  0  0  0  0  0  0  0  0  0  0  0
    3.3709    4.6136    0.2723 C   0  0  0  0  0  0  0  0  0  0  0  0
    2.9086    3.4742    0.9229 C   0  0  0  0  0  0  0  0  0  0  0  0
    2.9766    2.2409    0.2836 C   0  0  0  0  0  0  0  0  0  0  0  0
    3.5022    2.1373   -0.9998 C   0  0  0  0  0  0  0  0  0  0  0  0
    3.9656    3.2731   -1.6554 C   0  0  0  0  0  0  0  0  0  0  0  0
    2.4700    1.0000    1.0000 C   0  0  3  0  0  0  0  0  0  0  0  0
    1.0000    1.0000    1.0000 N   0  0  0  0  0  0  0  0  0  0  0  0
    0.3150    1.0000    2.1865 C   0  0  0  0  0  0  0  0  0  0  0  0
    0.9150    1.0000    3.2257 O   0  0  0  0  0  0  0  0  0  0  0  0
   -1.0550    1.0000    2.1865 N   0  0  0  0  0  0  0  0  0  0  0  0
   -1.7898    1.0000    3.4591 C   0  0  3  0  0  0  0  0  0  0  0  0
   -2.6678   -0.2374    3.5511 C   0  0  0  0  0  0  0  0  0  0  0  0
   -3.4332   -0.2395    4.8645 C   0  0  3  0  0  0  0  0  0  0  0  0
   -4.2866    1.0137    4.9743 C   0  0  3  0  0  0  0  0  0  0  0  0
   -4.9970    1.0116    6.2033 O   0  0  0  0  0  0  0  0  0  0  0  0
   -3.4082    2.2510    4.8818 C   0  0  0  0  0  0  0  0  0  0  0  0
   -2.6456    2.2515    3.5667 C   0  0  0  0  0  0  0  0  0  0  0  0
   -4.3115   -1.4768    4.9530 C   0  0  0  0  0  0  0  0  0  0  0  0
    2.9767   -0.2411    0.2835 C   0  0  0  0  0  0  0  0  0  0  0  0
    4.3955   -0.2706    0.3338 O   0  0  0  0  0  0  0  0  0  0  0  0
    4.8688   -1.4301   -0.3356 C   0  0  0  0  0  0  0  0  0  0  0  0
    3.3260    5.5047    0.7238 H   0  0  0  0  0  0  0  0  0  0  0  0
    2.5292    3.5416    1.8457 H   0  0  0  0  0  0  0  0  0  0  0  0
    3.5469    1.2462   -1.4514 H   0  0  0  0  0  0  0  0  0  0  0  0
    4.3441    3.2056   -2.5786 H   0  0  0  0  0  0  0  0  0  0  0  0
    2.8033    1.0000    1.9428 H   0  0  0  0  0  0  0  0  0  0  0  0
    0.5000    1.0000    0.1340 H   0  0  0  0  0  0  0  0  0  0  0  0
   -1.5550    1.0000    1.3204 H   0  0  0  0  0  0  0  0  0  0  0  0
   -1.1333    0.9894    4.2134 H   0  0  0  0  0  0  0  0  0  0  0  0
   -2.0936   -1.0546    3.5017 H   0  0  0  0  0  0  0  0  0  0  0  0
   -3.3167   -0.2396    2.7902 H   0  0  0  0  0  0  0  0  0  0  0  0
   -2.7787   -0.2525    5.6204 H   0  0  0  0  0  0  0  0  0  0  0  0
   -4.9435    1.0255    4.2203 H   0  0  0  0  0  0  0  0  0  0  0  0
   -5.5553    1.8388    6.2671 H   0  0  0  0  0  0  0  0  0  0  0  0
   -2.7580    2.2528    5.6415 H   0  0  0  0  0  0  0  0  0  0  0  0
   -3.9818    3.0686    4.9321 H   0  0  0  0  0  0  0  0  0  0  0  0
   -3.2958    2.2738    2.8073 H   0  0  0  0  0  0  0  0  0  0  0  0
   -2.0573    3.0591    3.5257 H   0  0  0  0  0  0  0  0  0  0  0  0
   -3.7421   -2.2956    4.8800 H   0  0  0  0  0  0  0  0  0  0  0  0
   -4.7923   -1.4822    5.8298 H   0  0  0  0  0  0  0  0  0  0  0  0
   -4.9779   -1.4665    4.2075 H   0  0  0  0  0  0  0  0  0  0  0  0
    2.6102   -1.0571    0.7305 H   0  0  0  0  0  0  0  0  0  0  0  0
    2.6773   -0.2208   -0.6705 H   0  0  0  0  0  0  0  0  0  0  0  0
    5.8680   -1.4509   -0.3001 H   0  0  0  0  0  0  0  0  0  0  0  0
    4.5023   -2.2460    0.1115 H   0  0  0  0  0  0  0  0  0  0  0  0
    4.5695   -1.4098   -1.2895 H   0  0  0  0  0  0  0  0  0  0  0  0
  1  2  1  0  0  0  0
  2  3  1  0  0  0  0
  3  4  2  0  0  0  0
  4  5  1  0  0  0  0
  5  6  2  0  0  0  0
  6  7  1  0  0  0  0
  7  2  2  0  0  0  0
  5  8  1  0  0  0  0
  8  9  1  0  0  0  0
  9 10  1  0  0  0  0
 10 11  2  0  0  0  0
 10 12  1  0  0  0  0
 12 13  1  0  0  0  0
 13 14  1  0  0  0  0
 14 15  1  0  0  0  0
 15 16  1  0  0  0  0
 16 17  1  0  0  0  0
 16 18  1  0  0  0  0
 18 19  1  0  0  0  0
 19 13  1  0  0  0  0
 15 20  1  0  0  0  0
  8 21  1  0  0  0  0
 21 22  1  0  0  0  0
 22 23  1  0  0  0  0
  3 24  1  0  0  0  0
  4 25  1  0  0  0  0
  6 26  1  0  0  0  0
  7 27  1  0  0  0  0
  8 28  1  0  0  0  0
  9 29  1  0  0  0  0
 12 30  1  0  0  0  0
 13 31  1  0  0  0  0
 14 32  1  0  0  0  0
 14 33  1  0  0  0  0
 15 34  1  0  0  0  0
 16 35  1  0  0  0  0
 17 36  1  0  0  0  0
 18 37  1  0  0  0  0
 18 38  1  0  0  0  0
 19 39  1  0  0  0  0
 19 40  1  0  0  0  0
 20 41  1  0  0  0  0
 20 42  1  0  0  0  0
 20 43  1  0  0  0  0
 21 44  1  0  0  0  0
 21 45  1  0  0  0  0
 23 46  1  0  0  0  0
 23 47  1  0  0  0  0
 23 48  1  0  0  0  0
M  END
>  <result-rank>
87

>  <similarity>
0.939

>  <query-name>
LIG_A_1101_CCC[C@H]([R*])C1CCC1_2

>  <query-smiles>
O=C(N[C@H](C1CCC1)CCC)[C@@H](NC(=O)C)Cc2ccc(O)cc2

>  <source>
REALspace_2019-12

>  <similarity-descriptor>
0.990;0.954;0.995;1.000;0.990;0.990;0.949;0.0;1.000;1.000;0.770;0.994;0.954;0.0;0.091

>  <similarity-descriptor-smiles>
C1CCCCC1;Fc1ccccc1;C=O;N;C1CCCCC1;C1CCCCC1;C;;CN;CN;CO;C;Fc1ccccc1;;O

>  <reaction-name>
s_512

>  <reagent1-name>
13611284

>  <reagent1-smiles>
[R1*]C(=O)NC(c1ccc(F)cc1)COC

>  <reagent2-name>
11973834

>  <reagent2-smiles>
[R1*]NC1CC(C(O)CC1)C

$$$$
s_2230a____7638982____666216
          04022015093D 1   1.00000     0.00000     0
            
 53 54  0  0  0  0            999 V2000
    0.4000    1.0000   -0.0392 O   0  0  0  0  0  0  0  0  0  0  0  0
    1.0000    1.0000    1.0000 C   0  0  0  0  0  0  0  0  0  0  0  0
    0.3150    1.0000    2.1865 N   0  0  0  0  0  0  0  0  0  0  0  0
   -1.1550    1.0000    2.1865 C   0  0  3  0  0  0  0  0  0  0  0  0
   -1.6617    1.7165    3.4275 C   0  0  0  0  0  0  0  0  0  0  0  0
   -1.8617    1.0994    4.4370 O   0  0  0  0  0  0  0  0  0  0  0  0
   -1.9150    3.2148    3.3899 C   0  0  0  0  0  0  0  0  0  0  0  0
   -1.6617   -0.4331    2.1865 C   0  0  0  0  0  0  0  0  0  0  0  0
   -3.1359   -0.4493    1.8155 C   0  0  0  0  0  0  0  0  0  0  0  0
   -3.5267   -0.0924    0.5291 C   0  0  0  0  0  0  0  0  0  0  0  0
   -4.8768   -0.1078    0.1941 C   0  0  0  0  0  0  0  0  0  0  0  0
   -5.8244   -0.4796    1.1419 C   0  0  0  0  0  0  0  0  0  0  0  0
   -5.4224   -0.8347    2.4237 C   0  0  0  0  0  0  0  0  0  0  0  0
   -4.0755   -0.8227    2.7712 C   0  0  0  0  0  0  0  0  0  0  0  0
    2.5200    1.0000    1.0000 C   0  0  0  0  0  0  0  0  0  0  0  0
    3.0105   -0.3873    1.0000 N   0  3  3  0  0  0  0  0  0  0  0  0
    2.5386   -1.1133   -0.1898 C   0  0  0  0  0  0  0  0  0  0  0  0
    3.0621   -2.5416   -0.2172 C   0  0  3  0  0  0  0  0  0  0  0  0
    2.5634   -3.2933   -1.4406 C   0  0  3  0  0  0  0  0  0  0  0  0
    1.1441   -3.3348   -1.4246 O   0  0  0  0  0  0  0  0  0  0  0  0
    3.1119   -4.7108   -1.4226 C   0  0  0  0  0  0  0  0  0  0  0  0
    2.6293   -3.2652    1.0481 C   0  0  0  0  0  0  0  0  0  0  0  0
    3.1392   -2.4969    2.2568 C   0  0  0  0  0  0  0  0  0  0  0  0
    2.6095   -1.0720    2.2380 C   0  0  0  0  0  0  0  0  0  0  0  0
    4.0097   -0.3619    0.9705 H   0  0  0  0  0  0  0  0  0  0  0  0
    0.8150    1.0000    3.0525 H   0  0  0  0  0  0  0  0  0  0  0  0
   -1.4883    1.4714    1.3700 H   0  0  0  0  0  0  0  0  0  0  0  0
   -1.6984    3.5667    2.4793 H   0  0  0  0  0  0  0  0  0  0  0  0
   -2.8764    3.3956    3.5971 H   0  0  0  0  0  0  0  0  0  0  0  0
   -1.3368    3.6678    4.0685 H   0  0  0  0  0  0  0  0  0  0  0  0
   -1.1442   -0.9696    1.5198 H   0  0  0  0  0  0  0  0  0  0  0  0
   -1.5427   -0.8287    3.0971 H   0  0  0  0  0  0  0  0  0  0  0  0
   -2.8423    0.1734   -0.1498 H   0  0  0  0  0  0  0  0  0  0  0  0
   -5.1660    0.1484   -0.7283 H   0  0  0  0  0  0  0  0  0  0  0  0
   -6.7949   -0.4913    0.9010 H   0  0  0  0  0  0  0  0  0  0  0  0
   -6.1071   -1.1012    3.1020 H   0  0  0  0  0  0  0  0  0  0  0  0
   -3.7871   -1.0784    3.6939 H   0  0  0  0  0  0  0  0  0  0  0  0
    2.8533    1.4714    0.1835 H   0  0  0  0  0  0  0  0  0  0  0  0
    2.8533    1.4714    1.8165 H   0  0  0  0  0  0  0  0  0  0  0  0
    2.8559   -0.6354   -1.0089 H   0  0  0  0  0  0  0  0  0  0  0  0
    1.5388   -1.1340   -0.1822 H   0  0  0  0  0  0  0  0  0  0  0  0
    4.0614   -2.5150   -0.2440 H   0  0  0  0  0  0  0  0  0  0  0  0
    2.8740   -2.8262   -2.2684 H   0  0  0  0  0  0  0  0  0  0  0  0
    0.8160   -3.8294   -2.2295 H   0  0  0  0  0  0  0  0  0  0  0  0
    4.1115   -4.6816   -1.4338 H   0  0  0  0  0  0  0  0  0  0  0  0
    2.8014   -5.1779   -0.5948 H   0  0  0  0  0  0  0  0  0  0  0  0
    2.7839   -5.2054   -2.2274 H   0  0  0  0  0  0  0  0  0  0  0  0
    3.0109   -4.1895    1.0529 H   0  0  0  0  0  0  0  0  0  0  0  0
    1.6311   -3.3165    1.0801 H   0  0  0  0  0  0  0  0  0  0  0  0
    2.8305   -2.9527    3.0917 H   0  0  0  0  0  0  0  0  0  0  0  0
    4.1389   -2.4776    2.2377 H   0  0  0  0  0  0  0  0  0  0  0  0
    1.6113   -1.0916    2.2942 H   0  0  0  0  0  0  0  0  0  0  0  0
    2.9778   -0.5740    3.0231 H   0  0  0  0  0  0  0  0  0  0  0  0
  1  2  2  0  0  0  0
  2  3  1  0  0  0  0
  3  4  1  0  0  0  0
  4  5  1  0  0  0  0
  5  6  2  0  0  0  0
  5  7  1  0  0  0  0
  4  8  1  0  0  0  0
  8  9  1  0  0  0  0
  9 10  1  0  0  0  0
 10 11  2  0  0  0  0
 11 12  1  0  0  0  0
 12 13  2  0  0  0  0
 13 14  1  0  0  0  0
 14  9  2  0  0  0  0
  2 15  1  0  0  0  0
 15 16  1  0  0  0  0
 16 17  1  0  0  0  0
 17 18  1  0  0  0  0
 18 19  1  0  0  0  0
 19 20  1  0  0  0  0
 19 21  1  0  0  0  0
 18 22  1  0  0  0  0
 22 23  1  0  0  0  0
 23 24  1  0  0  0  0
 24 16  1  0  0  0  0
 16 25  1  0  0  0  0
  3 26  1  0  0  0  0
  4 27  1  0  0  0  0
  7 28  1  0  0  0  0
  7 29  1  0  0  0  0
  7 30  1  0  0  0  0
  8 31  1  0  0  0  0
  8 32  1  0  0  0  0
 10 33  1  0  0  0  0
 11 34  1  0  0  0  0
 12 35  1  0  0  0  0
 13 36  1  0  0  0  0
 14 37  1  0  0  0  0
 15 38  1  0  0  0  0
 15 39  1  0  0  0  0
 17 40  1  0  0  0  0
 17 41  1  0  0  0  0
 18 42  1  0  0  0  0
 19 43  1  0  0  0  0
 20 44  1  0  0  0  0
 21 45  1  0  0  0  0
 21 46  1  0  0  0  0
 21 47  1  0  0  0  0
 22 48  1  0  0  0  0
 22 49  1  0  0  0  0
 23 50  1  0  0  0  0
 23 51  1  0  0  0  0
 24 52  1  0  0  0  0
 24 53  1  0  0  0  0
M  CHG  1  16   1
M  END
>  <result-rank>
88

>  <similarity>
0.939

>  <query-name>
LIG_A_1101_CCC[C@H]([R*])C1CCC1_2

>  <query-smiles>
O=C(N[C@H](C1CCC1)CCC)[C@@H](NC(=O)C)Cc2ccc(O)cc2

>  <source>
REALspace_2019-12

>  <similarity-descriptor>
0.991;0.960;0.857;0.991;0.991;0.940;0.949;0.0;1.000;1.000;0.907;1.000;1.000;0.0;0.083

>  <similarity-descriptor-smiles>
[NH+]1CCCCC1;c1ccccc1;O=CC;[NH+]1CCCCC1;[NH+]1CCCCC1;C;C;;NC;NC;C=O;C;C;;O

>  <reaction-name>
s_2230a

>  <reagent1-name>
7638982

>  <reagent1-smiles>
[R1*]N1CC(C(O)C)CCC1

>  <reagent2-name>
666216

>  <reagent2-smiles>
[R1*]CC(=O)NC(C(=O)C)Cc1ccccc1

$$$$
s_22____16911156____14652054
          04022015093D 1   1.00000     0.00000     0
            
 54 55  0  0  0  0            999 V2000
    5.0238   -1.5710   -4.7992 Br  0  0  0  0  0  0  0  0  0  0  0  0
    4.4193   -1.1648   -2.9796 C   0  0  0  0  0  0  0  0  0  0  0  0
    3.1759   -1.6166   -2.5496 C   0  0  0  0  0  0  0  0  0  0  0  0
    2.7523   -1.3252   -1.2571 C   0  0  0  0  0  0  0  0  0  0  0  0
    3.5738   -0.5874   -0.4112 C   0  0  0  0  0  0  0  0  0  0  0  0
    4.8163   -0.1386   -0.8477 C   0  0  0  0  0  0  0  0  0  0  0  0
    5.2465   -0.4261   -2.1391 C   0  0  0  0  0  0  0  0  0  0  0  0
    3.1050   -0.2731    1.0000 C   0  0  0  0  0  0  0  0  0  0  0  0
    2.3700    1.0000    1.0000 N   0  0  0  0  0  0  0  0  0  0  0  0
    1.0000    1.0000    1.0000 C   0  0  0  0  0  0  0  0  0  0  0  0
    0.4000   -0.0392    1.0000 O   0  0  0  0  0  0  0  0  0  0  0  0
    0.2400    2.3164    1.0000 C   0  0  0  0  0  0  0  0  0  0  0  0
   -1.2356    2.0495    0.7512 C   0  0  3  0  0  0  0  0  0  0  0  0
   -1.5119    2.0850   -0.7433 C   0  0  0  0  0  0  0  0  0  0  0  0
   -2.7660    1.3233   -1.1326 C   0  0  0  0  0  0  0  0  0  0  0  0
   -3.0153    2.4200   -2.1517 C   0  0  0  0  0  0  0  0  0  0  0  0
   -2.2607    3.3173   -1.2049 C   0  0  0  0  0  0  0  0  0  0  0  0
   -2.0674    3.1154    1.4457 C   0  0  0  0  0  0  0  0  0  0  0  0
   -1.7910    3.0799    2.9399 C   0  0  0  0  0  0  0  0  0  0  0  0
    3.1050    2.2731    1.0000 C   0  0  0  0  0  0  0  0  0  0  0  0
    3.3583    2.7118    2.4331 C   0  0  0  0  0  0  0  0  0  0  0  0
    2.9684    2.0365    3.3452 O   0  0  0  0  0  0  0  0  0  0  0  0
    4.0318    3.8783    2.6834 N   0  0  0  0  0  0  0  0  0  0  0  0
    4.2768    4.3027    4.0693 C   0  0  0  0  0  0  0  0  0  0  0  0
    4.5094    4.7056    1.5661 C   0  0  0  0  0  0  0  0  0  0  0  0
    2.5916   -2.1464   -3.1644 H   0  0  0  0  0  0  0  0  0  0  0  0
    1.8604   -1.6450   -0.9372 H   0  0  0  0  0  0  0  0  0  0  0  0
    5.4005    0.3911   -0.2328 H   0  0  0  0  0  0  0  0  0  0  0  0
    6.1382   -0.1062   -2.4590 H   0  0  0  0  0  0  0  0  0  0  0  0
    2.5044   -1.0047    1.3225 H   0  0  0  0  0  0  0  0  0  0  0  0
    3.8971   -0.2006    1.6060 H   0  0  0  0  0  0  0  0  0  0  0  0
    0.5982    2.9080    0.2778 H   0  0  0  0  0  0  0  0  0  0  0  0
    0.3526    2.7663    1.8860 H   0  0  0  0  0  0  0  0  0  0  0  0
   -1.4773    1.1494    1.1136 H   0  0  0  0  0  0  0  0  0  0  0  0
   -0.7152    1.8635   -1.3056 H   0  0  0  0  0  0  0  0  0  0  0  0
   -3.4562    1.2558   -0.4121 H   0  0  0  0  0  0  0  0  0  0  0  0
   -2.6021    0.4175   -1.5232 H   0  0  0  0  0  0  0  0  0  0  0  0
   -3.9763    2.6609   -2.2875 H   0  0  0  0  0  0  0  0  0  0  0  0
   -2.5782    2.2793   -3.0401 H   0  0  0  0  0  0  0  0  0  0  0  0
   -1.6919    4.0092   -1.6496 H   0  0  0  0  0  0  0  0  0  0  0  0
   -2.8246    3.7509   -0.5020 H   0  0  0  0  0  0  0  0  0  0  0  0
   -3.0381    2.9398    1.2820 H   0  0  0  0  0  0  0  0  0  0  0  0
   -1.8257    4.0155    1.0833 H   0  0  0  0  0  0  0  0  0  0  0  0
   -2.3383    3.7811    3.3969 H   0  0  0  0  0  0  0  0  0  0  0  0
   -2.0327    2.1798    3.3023 H   0  0  0  0  0  0  0  0  0  0  0  0
   -0.8203    3.2555    3.1037 H   0  0  0  0  0  0  0  0  0  0  0  0
    2.5646    2.9700    0.5286 H   0  0  0  0  0  0  0  0  0  0  0  0
    3.9788    2.1535    0.5286 H   0  0  0  0  0  0  0  0  0  0  0  0
    4.7768    5.1687    4.0693 H   0  0  0  0  0  0  0  0  0  0  0  0
    3.4030    4.4222    4.5407 H   0  0  0  0  0  0  0  0  0  0  0  0
    4.8172    3.6058    4.5407 H   0  0  0  0  0  0  0  0  0  0  0  0
    4.9760    5.5138    1.9254 H   0  0  0  0  0  0  0  0  0  0  0  0
    5.1457    4.1746    1.0064 H   0  0  0  0  0  0  0  0  0  0  0  0
    3.7315    4.9911    1.0064 H   0  0  0  0  0  0  0  0  0  0  0  0
  1  2  1  0  0  0  0
  2  3  1  0  0  0  0
  3  4  2  0  0  0  0
  4  5  1  0  0  0  0
  5  6  2  0  0  0  0
  6  7  1  0  0  0  0
  7  2  2  0  0  0  0
  5  8  1  0  0  0  0
  8  9  1  0  0  0  0
  9 10  1  0  0  0  0
 10 11  2  0  0  0  0
 10 12  1  0  0  0  0
 12 13  1  0  0  0  0
 13 14  1  0  0  0  0
 14 15  1  0  0  0  0
 15 16  1  0  0  0  0
 16 17  1  0  0  0  0
 17 14  1  0  0  0  0
 13 18  1  0  0  0  0
 18 19  1  0  0  0  0
  9 20  1  0  0  0  0
 20 21  1  0  0  0  0
 21 22  2  0  0  0  0
 21 23  1  0  0  0  0
 23 24  1  0  0  0  0
 23 25  1  0  0  0  0
  3 26  1  0  0  0  0
  4 27  1  0  0  0  0
  6 28  1  0  0  0  0
  7 29  1  0  0  0  0
  8 30  1  0  0  0  0
  8 31  1  0  0  0  0
 12 32  1  0  0  0  0
 12 33  1  0  0  0  0
 13 34  1  0  0  0  0
 14 35  1  0  0  0  0
 15 36  1  0  0  0  0
 15 37  1  0  0  0  0
 16 38  1  0  0  0  0
 16 39  1  0  0  0  0
 17 40  1  0  0  0  0
 17 41  1  0  0  0  0
 18 42  1  0  0  0  0
 18 43  1  0  0  0  0
 19 44  1  0  0  0  0
 19 45  1  0  0  0  0
 19 46  1  0  0  0  0
 20 47  1  0  0  0  0
 20 48  1  0  0  0  0
 24 49  1  0  0  0  0
 24 50  1  0  0  0  0
 24 51  1  0  0  0  0
 25 52  1  0  0  0  0
 25 53  1  0  0  0  0
 25 54  1  0  0  0  0
M  END
>  <result-rank>
89

>  <similarity>
0.939

>  <query-name>
LIG_A_1101_CCC[C@H]([R*])C1CCC1_2

>  <query-smiles>
O=C(N[C@H](C1CCC1)CCC)[C@@H](NC(=O)C)Cc2ccc(O)cc2

>  <source>
REALspace_2019-12

>  <similarity-descriptor>
1.000;0.962;0.852;0.852;0.996;0.996;1.000;1.000;0.953;0.852;0.852;0.977;0.953;0.0;0.071

>  <similarity-descriptor-smiles>
C1CCC1;Brc1ccccc1;C=O;C=O;CC;CC;C;C;CNC;C=O;C=O;NC;CNC;;C

>  <reaction-name>
s_22

>  <reagent1-name>
16911156

>  <reagent1-smiles>
[R1*]N(Cc1ccc(Br)cc1)CC(=O)N(C)C

>  <reagent2-name>
14652054

>  <reagent2-smiles>
[R1*]C(=O)CC(C1CCC1)CC

$$$$
s_276530____14772634____14278174
          04022015093D 1   1.00000     0.00000     0
            
 46 48  0  0  0  0            999 V2000
    2.8646    5.3410    2.1541 F   0  0  0  0  0  0  0  0  0  0  0  0
    2.7666    4.0386    2.4034 C   0  0  0  0  0  0  0  0  0  0  0  0
    1.9640    3.2374    1.5989 C   0  0  0  0  0  0  0  0  0  0  0  0
    1.8772    1.8772    1.8772 C   0  0  0  0  0  0  0  0  0  0  0  0
    2.5774    1.3148    2.9398 C   0  0  0  0  0  0  0  0  0  0  0  0
    3.3779    2.1266    3.7368 C   0  0  0  0  0  0  0  0  0  0  0  0
    3.4719    3.4889    3.4690 C   0  0  0  0  0  0  0  0  0  0  0  0
    1.0000    1.0000    1.0000 C   0  0  0  0  0  0  0  0  0  0  0  0
    1.8221    0.4590   -0.1588 C   0  0  3  0  0  0  0  0  0  0  0  0
    2.9342   -0.3308    0.3931 N   0  0  0  0  0  0  0  0  0  0  0  0
    3.4572   -1.4213   -0.3138 C   0  0  0  0  0  0  0  0  0  0  0  0
    4.3785   -2.0463    0.1866 O   0  0  0  0  0  0  0  0  0  0  0  0
    2.8867   -1.8129   -1.6689 C   0  0  3  0  0  0  0  0  0  0  0  0
    1.4629   -1.4594   -1.7802 N   0  0  0  0  0  0  0  0  0  0  0  0
    0.9323   -0.3769   -1.0665 C   0  0  0  0  0  0  0  0  0  0  0  0
   -0.2555   -0.1257   -1.1929 O   0  0  0  0  0  0  0  0  0  0  0  0
    3.0158   -3.3158   -1.8588 C   0  0  0  0  0  0  0  0  0  0  0  0
    2.2157   -4.0452   -0.7904 C   0  0  0  0  0  0  0  0  0  0  0  0
    2.5680   -5.5208   -0.6596 C   0  0  0  0  0  0  0  0  0  0  0  0
    1.7176   -6.4478   -1.5188 C   0  0  0  0  0  0  0  0  0  0  0  0
    1.4117   -5.9101   -2.9134 C   0  0  0  0  0  0  0  0  0  0  0  0
    2.5585   -5.1416   -3.5634 C   0  0  0  0  0  0  0  0  0  0  0  0
    2.5346   -3.6489   -3.2658 C   0  0  0  0  0  0  0  0  0  0  0  0
    1.4574    3.6325    0.8326 H   0  0  0  0  0  0  0  0  0  0  0  0
    2.5057    0.3354    3.1290 H   0  0  0  0  0  0  0  0  0  0  0  0
    3.8858    1.7312    4.5020 H   0  0  0  0  0  0  0  0  0  0  0  0
    4.0464    4.0727    4.0427 H   0  0  0  0  0  0  0  0  0  0  0  0
    0.2378    1.5407    0.6442 H   0  0  0  0  0  0  0  0  0  0  0  0
    0.6442    0.2378    1.5407 H   0  0  0  0  0  0  0  0  0  0  0  0
    2.1939    1.2260   -0.6819 H   0  0  0  0  0  0  0  0  0  0  0  0
    3.3207   -0.0865    1.2824 H   0  0  0  0  0  0  0  0  0  0  0  0
    3.3990   -1.3452   -2.3892 H   0  0  0  0  0  0  0  0  0  0  0  0
    0.8657   -1.9992   -2.3735 H   0  0  0  0  0  0  0  0  0  0  0  0
    3.9788   -3.5724   -1.7754 H   0  0  0  0  0  0  0  0  0  0  0  0
    1.2448   -3.9718   -1.0184 H   0  0  0  0  0  0  0  0  0  0  0  0
    2.3860   -3.6012    0.0893 H   0  0  0  0  0  0  0  0  0  0  0  0
    2.4517   -5.7867    0.2973 H   0  0  0  0  0  0  0  0  0  0  0  0
    3.5250   -5.6387   -0.9245 H   0  0  0  0  0  0  0  0  0  0  0  0
    0.8501   -6.6038   -1.0465 H   0  0  0  0  0  0  0  0  0  0  0  0
    2.2040   -7.3159   -1.6181 H   0  0  0  0  0  0  0  0  0  0  0  0
    1.1816   -6.6846   -3.5027 H   0  0  0  0  0  0  0  0  0  0  0  0
    0.6244   -5.2973   -2.8456 H   0  0  0  0  0  0  0  0  0  0  0  0
    3.4221   -5.5175   -3.2274 H   0  0  0  0  0  0  0  0  0  0  0  0
    2.5029   -5.2678   -4.5538 H   0  0  0  0  0  0  0  0  0  0  0  0
    3.1263   -3.1831   -3.9238 H   0  0  0  0  0  0  0  0  0  0  0  0
    1.5965   -3.3183   -3.3686 H   0  0  0  0  0  0  0  0  0  0  0  0
  1  2  1  0  0  0  0
  2  3  1  0  0  0  0
  3  4  2  0  0  0  0
  4  5  1  0  0  0  0
  5  6  2  0  0  0  0
  6  7  1  0  0  0  0
  7  2  2  0  0  0  0
  4  8  1  0  0  0  0
  8  9  1  0  0  0  0
  9 10  1  0  0  0  0
 10 11  1  0  0  0  0
 11 12  2  0  0  0  0
 11 13  1  0  0  0  0
 13 14  1  0  0  0  0
 14 15  1  0  0  0  0
 15  9  1  0  0  0  0
 15 16  2  0  0  0  0
 13 17  1  0  0  0  0
 17 18  1  0  0  0  0
 18 19  1  0  0  0  0
 19 20  1  0  0  0  0
 20 21  1  0  0  0  0
 21 22  1  0  0  0  0
 22 23  1  0  0  0  0
 23 17  1  0  0  0  0
  3 24  1  0  0  0  0
  5 25  1  0  0  0  0
  6 26  1  0  0  0  0
  7 27  1  0  0  0  0
  8 28  1  0  0  0  0
  8 29  1  0  0  0  0
  9 30  1  0  0  0  0
 10 31  1  0  0  0  0
 13 32  1  0  0  0  0
 14 33  1  0  0  0  0
 17 34  1  0  0  0  0
 18 35  1  0  0  0  0
 18 36  1  0  0  0  0
 19 37  1  0  0  0  0
 19 38  1  0  0  0  0
 20 39  1  0  0  0  0
 20 40  1  0  0  0  0
 21 41  1  0  0  0  0
 21 42  1  0  0  0  0
 22 43  1  0  0  0  0
 22 44  1  0  0  0  0
 23 45  1  0  0  0  0
 23 46  1  0  0  0  0
M  END
>  <result-rank>
90

>  <similarity>
0.939

>  <query-name>
LIG_A_1101_CCC[C@H]([R*])C1CCC1_2

>  <query-smiles>
O=C(N[C@H](C1CCC1)CCC)[C@@H](NC(=O)C)Cc2ccc(O)cc2

>  <source>
REALspace_2019-12

>  <similarity-descriptor>
0.992;0.983;0.883;0.883;0.992;0.992;0.992;0.0;0.883;0.883;0.883;0.883;1.000;0.0;0.0

>  <similarity-descriptor-smiles>
C1CCCCCC1;Fc1ccccc1;C1C(NCC(N1)=O)=O;C1C(NCC(N1)=O)=O;C1CCCCCC1;C1CCCCCC1;C1CCCCCC1;;C1C(NCC(N1)=O)=O;C1C(NCC(N1)=O)=O;C1C(NCC(N1)=O)=O;C1C(NCC(N1)=O)=O;C;;

>  <reaction-name>
s_276530

>  <reagent1-name>
14772634

>  <reagent1-smiles>
[R1*]NC(C([R2*])=O)Cc1cc(F)ccc1

>  <reagent2-name>
14278174

>  <reagent2-smiles>
[R2*]NC(C([R1*])=O)C1CCCCCC1

$$$$
s_2708____6108022____14482960
          04022015093D 1   1.00000     0.00000     0
            
 56 57  0  0  0  0            999 V2000
    0.9150    1.0000    3.2257 O   0  0  0  0  0  0  0  0  0  0  0  0
    0.3150    1.0000    2.1865 C   0  0  0  0  0  0  0  0  0  0  0  0
    1.0000    1.0000    1.0000 N   0  0  0  0  0  0  0  0  0  0  0  0
    2.4700    1.0000    1.0000 C   0  0  3  0  0  0  0  0  0  0  0  0
    2.9767   -0.2411    0.2835 C   0  0  0  0  0  0  0  0  0  0  0  0
    4.4967   -0.2411    0.2835 C   0  0  0  0  0  0  0  0  0  0  0  0
    5.0033   -1.4822   -0.4331 C   0  0  0  0  0  0  0  0  0  0  0  0
    5.2315   -1.4355   -1.8045 C   0  0  0  0  0  0  0  0  0  0  0  0
    5.6958   -2.5684   -2.4642 C   0  0  0  0  0  0  0  0  0  0  0  0
    5.9269   -3.7354   -1.7426 C   0  0  0  0  0  0  0  0  0  0  0  0
    6.3772   -4.8373   -2.3790 O   0  0  0  0  0  0  0  0  0  0  0  0
    5.7000   -3.7875   -0.3711 C   0  0  0  0  0  0  0  0  0  0  0  0
    5.2361   -2.6515    0.2836 C   0  0  0  0  0  0  0  0  0  0  0  0
    2.9767    2.2411    0.2835 C   0  0  0  0  0  0  0  0  0  0  0  0
    0.2650    1.0000   -0.2731 C   0  0  0  0  0  0  0  0  0  0  0  0
   -1.0550    1.0000    2.1865 N   0  0  0  0  0  0  0  0  0  0  0  0
   -1.7901    1.0000    3.4597 C   0  0  3  0  0  0  0  0  0  0  0  0
   -2.6556   -0.2488    3.5167 C   0  0  3  0  0  0  0  0  0  0  0  0
   -3.5194   -0.3061    4.7723 C   0  0  0  0  0  0  0  0  0  0  0  0
   -4.7128    0.6448    4.7234 C   0  0  0  0  0  0  0  0  0  0  0  0
   -4.4536    2.0273    5.3112 C   0  0  0  0  0  0  0  0  0  0  0  0
   -3.0900    2.6057    4.9509 C   0  0  0  0  0  0  0  0  0  0  0  0
   -2.6224    2.2711    3.5383 C   0  0  0  0  0  0  0  0  0  0  0  0
   -1.7450   -1.4664    3.5059 C   0  0  0  0  0  0  0  0  0  0  0  0
    2.8033    1.0000    1.9428 H   0  0  0  0  0  0  0  0  0  0  0  0
    2.6433   -0.2411   -0.6593 H   0  0  0  0  0  0  0  0  0  0  0  0
    2.6433   -1.0576    0.7549 H   0  0  0  0  0  0  0  0  0  0  0  0
    4.8300    0.5754   -0.1879 H   0  0  0  0  0  0  0  0  0  0  0  0
    4.8300   -0.2411    1.2263 H   0  0  0  0  0  0  0  0  0  0  0  0
    5.0625   -0.5915   -2.3135 H   0  0  0  0  0  0  0  0  0  0  0  0
    5.8624   -2.5445   -3.4499 H   0  0  0  0  0  0  0  0  0  0  0  0
    6.5447   -5.6784   -1.8647 H   0  0  0  0  0  0  0  0  0  0  0  0
    5.8685   -4.6316    0.1379 H   0  0  0  0  0  0  0  0  0  0  0  0
    5.0699   -2.6753    1.2694 H   0  0  0  0  0  0  0  0  0  0  0  0
    3.9767    2.2411    0.2835 H   0  0  0  0  0  0  0  0  0  0  0  0
    2.6433    2.2411   -0.6593 H   0  0  0  0  0  0  0  0  0  0  0  0
    2.6433    3.0576    0.7549 H   0  0  0  0  0  0  0  0  0  0  0  0
    0.9148    1.0000   -1.0331 H   0  0  0  0  0  0  0  0  0  0  0  0
   -0.3099    0.1835   -0.3260 H   0  0  0  0  0  0  0  0  0  0  0  0
   -0.3099    1.8165   -0.3260 H   0  0  0  0  0  0  0  0  0  0  0  0
   -1.5550    1.0000    1.3204 H   0  0  0  0  0  0  0  0  0  0  0  0
   -1.1380    0.9848    4.2176 H   0  0  0  0  0  0  0  0  0  0  0  0
   -3.2469   -0.2747    2.7107 H   0  0  0  0  0  0  0  0  0  0  0  0
   -2.9524   -0.0647    5.5598 H   0  0  0  0  0  0  0  0  0  0  0  0
   -3.8609   -1.2397    4.8811 H   0  0  0  0  0  0  0  0  0  0  0  0
   -5.4649    0.2263    5.2325 H   0  0  0  0  0  0  0  0  0  0  0  0
   -4.9806    0.7588    3.7667 H   0  0  0  0  0  0  0  0  0  0  0  0
   -5.1592    2.6503    4.9735 H   0  0  0  0  0  0  0  0  0  0  0  0
   -4.5151    1.9625    6.3072 H   0  0  0  0  0  0  0  0  0  0  0  0
   -3.1385    3.6007    5.0377 H   0  0  0  0  0  0  0  0  0  0  0  0
   -2.4165    2.2471    5.5973 H   0  0  0  0  0  0  0  0  0  0  0  0
   -3.4279    2.1584    2.9566 H   0  0  0  0  0  0  0  0  0  0  0  0
   -2.0700    3.0325    3.1991 H   0  0  0  0  0  0  0  0  0  0  0  0
   -2.2996   -2.2977    3.5431 H   0  0  0  0  0  0  0  0  0  0  0  0
   -1.1992   -1.4670    2.6681 H   0  0  0  0  0  0  0  0  0  0  0  0
   -1.1375   -1.4353    4.2996 H   0  0  0  0  0  0  0  0  0  0  0  0
  1  2  2  0  0  0  0
  2  3  1  0  0  0  0
  3  4  1  0  0  0  0
  4  5  1  0  0  0  0
  5  6  1  0  0  0  0
  6  7  1  0  0  0  0
  7  8  1  0  0  0  0
  8  9  2  0  0  0  0
  9 10  1  0  0  0  0
 10 11  1  0  0  0  0
 10 12  2  0  0  0  0
 12 13  1  0  0  0  0
 13  7  2  0  0  0  0
  4 14  1  0  0  0  0
  3 15  1  0  0  0  0
  2 16  1  0  0  0  0
 16 17  1  0  0  0  0
 17 18  1  0  0  0  0
 18 19  1  0  0  0  0
 19 20  1  0  0  0  0
 20 21  1  0  0  0  0
 21 22  1  0  0  0  0
 22 23  1  0  0  0  0
 23 17  1  0  0  0  0
 18 24  1  0  0  0  0
  4 25  1  0  0  0  0
  5 26  1  0  0  0  0
  5 27  1  0  0  0  0
  6 28  1  0  0  0  0
  6 29  1  0  0  0  0
  8 30  1  0  0  0  0
  9 31  1  0  0  0  0
 11 32  1  0  0  0  0
 12 33  1  0  0  0  0
 13 34  1  0  0  0  0
 14 35  1  0  0  0  0
 14 36  1  0  0  0  0
 14 37  1  0  0  0  0
 15 38  1  0  0  0  0
 15 39  1  0  0  0  0
 15 40  1  0  0  0  0
 16 41  1  0  0  0  0
 17 42  1  0  0  0  0
 18 43  1  0  0  0  0
 19 44  1  0  0  0  0
 19 45  1  0  0  0  0
 20 46  1  0  0  0  0
 20 47  1  0  0  0  0
 21 48  1  0  0  0  0
 21 49  1  0  0  0  0
 22 50  1  0  0  0  0
 22 51  1  0  0  0  0
 23 52  1  0  0  0  0
 23 53  1  0  0  0  0
 24 54  1  0  0  0  0
 24 55  1  0  0  0  0
 24 56  1  0  0  0  0
M  END
>  <result-rank>
91

>  <similarity>
0.938

>  <query-name>
LIG_A_1101_CCC[C@H]([R*])C1CCC1_2

>  <query-smiles>
O=C(N[C@H](C1CCC1)CCC)[C@@H](NC(=O)C)Cc2ccc(O)cc2

>  <source>
REALspace_2019-12

>  <similarity-descriptor>
1.000;1.000;0.868;1.000;1.000;1.000;1.000;1.000;0.972;0.0;0.0;0.0;0.972;1.000;0.167

>  <similarity-descriptor-smiles>
C1CCCCCC1;c1ccccc1;O=CNC;N;C1CCCCCC1;C1CCCCCC1;C1CCCCCC1;C;CC;;;;CC;O;C.C

>  <reaction-name>
s_2708

>  <reagent1-name>
6108022

>  <reagent1-smiles>
[R1*]C(=O)NC1C(CCCCC1)C

>  <reagent2-name>
14482960

>  <reagent2-smiles>
[R1*]N(C(CCc1ccc(O)cc1)C)C

$$$$
s_2708____6108022____9609408
          04022015093D 1   1.00000     0.00000     0
            
 49 50  0  0  0  0            999 V2000
    5.7029    0.6966   -0.2982 Cl  0  0  0  0  0  0  0  0  0  0  0  0
    4.5058   -0.3309   -1.1228 C   0  0  0  0  0  0  0  0  0  0  0  0
    4.6983   -0.7361   -2.3873 N   0  0  0  0  0  0  0  0  0  0  0  0
    3.8045   -1.5108   -3.0206 C   0  0  0  0  0  0  0  0  0  0  0  0
    2.6399   -1.9218   -2.3810 C   0  0  0  0  0  0  0  0  0  0  0  0
    2.4177   -1.5148   -1.0697 C   0  0  0  0  0  0  0  0  0  0  0  0
    3.3584   -0.7119   -0.4332 C   0  0  0  0  0  0  0  0  0  0  0  0
    3.1050   -0.2731    1.0000 C   0  0  0  0  0  0  0  0  0  0  0  0
    2.3700    1.0000    1.0000 N   0  0  0  0  0  0  0  0  0  0  0  0
    1.0000    1.0000    1.0000 C   0  0  0  0  0  0  0  0  0  0  0  0
    0.4000   -0.0392    1.0000 O   0  0  0  0  0  0  0  0  0  0  0  0
    0.3150    2.1865    1.0000 N   0  0  0  0  0  0  0  0  0  0  0  0
   -1.1552    2.1865    1.0000 C   0  0  3  0  0  0  0  0  0  0  0  0
   -1.6373    2.9075   -0.2488 C   0  0  3  0  0  0  0  0  0  0  0  0
   -3.1566    3.0278   -0.3061 C   0  0  0  0  0  0  0  0  0  0  0  0
   -3.7109    4.0857    0.6448 C   0  0  0  0  0  0  0  0  0  0  0  0
   -4.0904    3.5674    2.0273 C   0  0  0  0  0  0  0  0  0  0  0  0
   -3.0966    2.5666    2.6057 C   0  0  0  0  0  0  0  0  0  0  0  0
   -1.6395    2.8679    2.2711 C   0  0  0  0  0  0  0  0  0  0  0  0
   -1.1727    2.1243   -1.4664 C   0  0  0  0  0  0  0  0  0  0  0  0
    3.1050    2.2731    1.0000 C   0  0  0  0  0  0  0  0  0  0  0  0
    3.3583    2.7118    2.4331 C   0  0  0  0  0  0  0  0  0  0  0  0
    4.0683    3.9416    2.4331 O   0  0  0  0  0  0  0  0  0  0  0  0
    3.9776   -1.7958   -3.9634 H   0  0  0  0  0  0  0  0  0  0  0  0
    1.9749   -2.4991   -2.8548 H   0  0  0  0  0  0  0  0  0  0  0  0
    1.5880   -1.7972   -0.5883 H   0  0  0  0  0  0  0  0  0  0  0  0
    2.5646   -0.9700    1.4714 H   0  0  0  0  0  0  0  0  0  0  0  0
    3.9788   -0.1535    1.4714 H   0  0  0  0  0  0  0  0  0  0  0  0
    0.8150    3.0525    1.0000 H   0  0  0  0  0  0  0  0  0  0  0  0
   -1.4855    1.2427    0.9848 H   0  0  0  0  0  0  0  0  0  0  0  0
   -1.2349    3.8226   -0.2747 H   0  0  0  0  0  0  0  0  0  0  0  0
   -3.5551    2.1430   -0.0647 H   0  0  0  0  0  0  0  0  0  0  0  0
   -3.4216    3.2691   -1.2397 H   0  0  0  0  0  0  0  0  0  0  0  0
   -4.5279    4.4825    0.2263 H   0  0  0  0  0  0  0  0  0  0  0  0
   -3.0163    4.7960    0.7588 H   0  0  0  0  0  0  0  0  0  0  0  0
   -4.1507    4.3473    2.6503 H   0  0  0  0  0  0  0  0  0  0  0  0
   -4.9837    3.1226    1.9625 H   0  0  0  0  0  0  0  0  0  0  0  0
   -3.1960    2.5652    3.6007 H   0  0  0  0  0  0  0  0  0  0  0  0
   -3.3197    1.6601    2.2471 H   0  0  0  0  0  0  0  0  0  0  0  0
   -1.5384    3.8564    2.1584 H   0  0  0  0  0  0  0  0  0  0  0  0
   -1.0695    2.5592    3.0325 H   0  0  0  0  0  0  0  0  0  0  0  0
   -1.4822    2.5860   -2.2977 H   0  0  0  0  0  0  0  0  0  0  0  0
   -0.1742    2.0705   -1.4670 H   0  0  0  0  0  0  0  0  0  0  0  0
   -1.5563    1.2013   -1.4353 H   0  0  0  0  0  0  0  0  0  0  0  0
    2.5646    2.9700    0.5286 H   0  0  0  0  0  0  0  0  0  0  0  0
    3.9788    2.1535    0.5286 H   0  0  0  0  0  0  0  0  0  0  0  0
    2.4846    2.8314    2.9045 H   0  0  0  0  0  0  0  0  0  0  0  0
    3.8988    2.0149    2.9045 H   0  0  0  0  0  0  0  0  0  0  0  0
    4.2350    4.2303    3.3759 H   0  0  0  0  0  0  0  0  0  0  0  0
  1  2  1  0  0  0  0
  2  3  1  0  0  0  0
  3  4  2  0  0  0  0
  4  5  1  0  0  0  0
  5  6  2  0  0  0  0
  6  7  1  0  0  0  0
  7  2  2  0  0  0  0
  7  8  1  0  0  0  0
  8  9  1  0  0  0  0
  9 10  1  0  0  0  0
 10 11  2  0  0  0  0
 10 12  1  0  0  0  0
 12 13  1  0  0  0  0
 13 14  1  0  0  0  0
 14 15  1  0  0  0  0
 15 16  1  0  0  0  0
 16 17  1  0  0  0  0
 17 18  1  0  0  0  0
 18 19  1  0  0  0  0
 19 13  1  0  0  0  0
 14 20  1  0  0  0  0
  9 21  1  0  0  0  0
 21 22  1  0  0  0  0
 22 23  1  0  0  0  0
  4 24  1  0  0  0  0
  5 25  1  0  0  0  0
  6 26  1  0  0  0  0
  8 27  1  0  0  0  0
  8 28  1  0  0  0  0
 12 29  1  0  0  0  0
 13 30  1  0  0  0  0
 14 31  1  0  0  0  0
 15 32  1  0  0  0  0
 15 33  1  0  0  0  0
 16 34  1  0  0  0  0
 16 35  1  0  0  0  0
 17 36  1  0  0  0  0
 17 37  1  0  0  0  0
 18 38  1  0  0  0  0
 18 39  1  0  0  0  0
 19 40  1  0  0  0  0
 19 41  1  0  0  0  0
 20 42  1  0  0  0  0
 20 43  1  0  0  0  0
 20 44  1  0  0  0  0
 21 45  1  0  0  0  0
 21 46  1  0  0  0  0
 22 47  1  0  0  0  0
 22 48  1  0  0  0  0
 23 49  1  0  0  0  0
M  END
>  <result-rank>
92

>  <similarity>
0.938

>  <query-name>
LIG_A_1101_CCC[C@H]([R*])C1CCC1_2

>  <query-smiles>
O=C(N[C@H](C1CCC1)CCC)[C@@H](NC(=O)C)Cc2ccc(O)cc2

>  <source>
REALspace_2019-12

>  <similarity-descriptor>
1.000;0.884;0.995;1.000;1.000;1.000;1.000;1.000;0.953;0.828;0.828;0.828;0.953;0.884;0.0

>  <similarity-descriptor-smiles>
C1CCCCCC1;Clc1ccccn1;C=O;N;C1CCCCCC1;C1CCCCCC1;C1CCCCCC1;C;CNC;CO;CO;CO;CNC;Clc1ccccn1;

>  <reaction-name>
s_2708

>  <reagent1-name>
6108022

>  <reagent1-smiles>
[R1*]C(=O)NC1C(CCCCC1)C

>  <reagent2-name>
9609408

>  <reagent2-smiles>
[R1*]N(Cc1c(Cl)nccc1)CCO

$$$$
s_2708____908366____9750454
          04022015093D 1   1.00000     0.00000     0
            
 48 49  0  0  0  0            999 V2000
    2.9700    2.0392    1.0000 O   0  0  0  0  0  0  0  0  0  0  0  0
    2.3700    1.0000    1.0000 C   0  0  0  0  0  0  0  0  0  0  0  0
    1.0000    1.0000    1.0000 N   0  0  0  0  0  0  0  0  0  0  0  0
    0.2850    2.2384    1.0000 O   0  0  0  0  0  0  0  0  0  0  0  0
   -0.3482    2.4194   -0.2580 C   0  0  0  0  0  0  0  0  0  0  0  0
   -1.1084    3.7361   -0.2580 C   0  0  0  0  0  0  0  0  0  0  0  0
   -0.4755    4.9047   -0.6702 C   0  0  0  0  0  0  0  0  0  0  0  0
    0.8134    4.8873   -1.0726 O   0  0  0  0  0  0  0  0  0  0  0  0
    1.4432    6.0896   -1.4900 C   0  0  0  0  0  0  0  0  0  0  0  0
   -1.1710    6.1097   -0.6700 C   0  0  0  0  0  0  0  0  0  0  0  0
   -2.4997    6.1458   -0.2582 C   0  0  0  0  0  0  0  0  0  0  0  0
   -3.1324    4.9770    0.1532 C   0  0  0  0  0  0  0  0  0  0  0  0
   -2.4368    3.7723    0.1527 C   0  0  0  0  0  0  0  0  0  0  0  0
    3.0550   -0.1865    1.0000 N   0  0  0  0  0  0  0  0  0  0  0  0
    4.5248   -0.1865    1.0000 C   0  0  3  0  0  0  0  0  0  0  0  0
    5.0490   -0.8999   -0.2357 C   0  0  3  0  0  0  0  0  0  0  0  0
    6.5691   -0.9037   -0.2279 C   0  0  0  0  0  0  0  0  0  0  0  0
    7.0880   -1.5935    1.0233 C   0  0  0  0  0  0  0  0  0  0  0  0
    6.5634   -0.8795    2.2586 C   0  0  0  0  0  0  0  0  0  0  0  0
    5.0434   -0.8711    2.2543 C   0  0  0  0  0  0  0  0  0  0  0  0
    4.5325   -0.2070   -1.4862 C   0  0  0  0  0  0  0  0  0  0  0  0
    5.0600   -0.9249   -2.7177 C   0  0  0  0  0  0  0  0  0  0  0  0
    0.5000    0.1340    1.0000 H   0  0  0  0  0  0  0  0  0  0  0  0
   -0.9856    1.6665   -0.4218 H   0  0  0  0  0  0  0  0  0  0  0  0
    0.3433    2.4337   -0.9803 H   0  0  0  0  0  0  0  0  0  0  0  0
    2.3887    5.8969   -1.7524 H   0  0  0  0  0  0  0  0  0  0  0  0
    0.9507    6.4694   -2.2730 H   0  0  0  0  0  0  0  0  0  0  0  0
    1.4337    6.7492   -0.7384 H   0  0  0  0  0  0  0  0  0  0  0  0
   -0.7162    6.9497   -0.9658 H   0  0  0  0  0  0  0  0  0  0  0  0
   -2.9998    7.0118   -0.2579 H   0  0  0  0  0  0  0  0  0  0  0  0
   -4.0872    5.0029    0.4493 H   0  0  0  0  0  0  0  0  0  0  0  0
   -2.8919    2.9321    0.4476 H   0  0  0  0  0  0  0  0  0  0  0  0
    2.5550   -1.0525    1.0000 H   0  0  0  0  0  0  0  0  0  0  0  0
    4.8487    0.7596    0.9898 H   0  0  0  0  0  0  0  0  0  0  0  0
    4.7216   -1.8447   -0.2289 H   0  0  0  0  0  0  0  0  0  0  0  0
    6.9015    0.0392   -0.2469 H   0  0  0  0  0  0  0  0  0  0  0  0
    6.9019   -1.3908   -1.0354 H   0  0  0  0  0  0  0  0  0  0  0  0
    8.0877   -1.5698    1.0254 H   0  0  0  0  0  0  0  0  0  0  0  0
    6.7771   -2.5440    1.0319 H   0  0  0  0  0  0  0  0  0  0  0  0
    6.8888   -1.3531    3.0771 H   0  0  0  0  0  0  0  0  0  0  0  0
    6.8989    0.0625    2.2631 H   0  0  0  0  0  0  0  0  0  0  0  0
    4.7080   -1.8129    2.2790 H   0  0  0  0  0  0  0  0  0  0  0  0
    4.7136   -0.3786    3.0596 H   0  0  0  0  0  0  0  0  0  0  0  0
    4.8453    0.7427   -1.4944 H   0  0  0  0  0  0  0  0  0  0  0  0
    3.5327   -0.2287   -1.4904 H   0  0  0  0  0  0  0  0  0  0  0  0
    4.7202   -0.4691   -3.5404 H   0  0  0  0  0  0  0  0  0  0  0  0
    6.0598   -0.9033   -2.7135 H   0  0  0  0  0  0  0  0  0  0  0  0
    4.7472   -1.8747   -2.7095 H   0  0  0  0  0  0  0  0  0  0  0  0
  1  2  2  0  0  0  0
  2  3  1  0  0  0  0
  3  4  1  0  0  0  0
  4  5  1  0  0  0  0
  5  6  1  0  0  0  0
  6  7  1  0  0  0  0
  7  8  1  0  0  0  0
  8  9  1  0  0  0  0
  7 10  2  0  0  0  0
 10 11  1  0  0  0  0
 11 12  2  0  0  0  0
 12 13  1  0  0  0  0
 13  6  2  0  0  0  0
  2 14  1  0  0  0  0
 14 15  1  0  0  0  0
 15 16  1  0  0  0  0
 16 17  1  0  0  0  0
 17 18  1  0  0  0  0
 18 19  1  0  0  0  0
 19 20  1  0  0  0  0
 20 15  1  0  0  0  0
 16 21  1  0  0  0  0
 21 22  1  0  0  0  0
  3 23  1  0  0  0  0
  5 24  1  0  0  0  0
  5 25  1  0  0  0  0
  9 26  1  0  0  0  0
  9 27  1  0  0  0  0
  9 28  1  0  0  0  0
 10 29  1  0  0  0  0
 11 30  1  0  0  0  0
 12 31  1  0  0  0  0
 13 32  1  0  0  0  0
 14 33  1  0  0  0  0
 15 34  1  0  0  0  0
 16 35  1  0  0  0  0
 17 36  1  0  0  0  0
 17 37  1  0  0  0  0
 18 38  1  0  0  0  0
 18 39  1  0  0  0  0
 19 40  1  0  0  0  0
 19 41  1  0  0  0  0
 20 42  1  0  0  0  0
 20 43  1  0  0  0  0
 21 44  1  0  0  0  0
 21 45  1  0  0  0  0
 22 46  1  0  0  0  0
 22 47  1  0  0  0  0
 22 48  1  0  0  0  0
M  END
>  <result-rank>
93

>  <similarity>
0.938

>  <query-name>
LIG_A_1101_CCC[C@H]([R*])C1CCC1_2

>  <query-smiles>
O=C(N[C@H](C1CCC1)CCC)[C@@H](NC(=O)C)Cc2ccc(O)cc2

>  <source>
REALspace_2019-12

>  <similarity-descriptor>
1.000;1.000;0.995;1.000;1.000;1.000;1.000;1.000;0.744;0.744;0.744;0.0;0.993;0.704;0.091

>  <similarity-descriptor-smiles>
C1CCCCC1;c1ccccc1;O=C;N;C1CCCCC1;C1CCCCC1;C;C;NO;NO;NO;;C;O;C

>  <reaction-name>
s_2708

>  <reagent1-name>
908366

>  <reagent1-smiles>
[R1*]C(=O)NC1C(CCCC1)CC

>  <reagent2-name>
9750454

>  <reagent2-smiles>
[R1*]NOCc1c(OC)cccc1

$$$$
s_22____8696600____5637262
          04022015093D 1   1.00000     0.00000     0
            
 51 52  0  0  0  0            999 V2000
    4.6176    2.1698    2.4529 F   0  0  0  0  0  0  0  0  0  0  0  0
    3.9744    1.2128    3.1157 C   0  0  0  0  0  0  0  0  0  0  0  0
    2.6181    1.0098    2.8827 C   0  0  0  0  0  0  0  0  0  0  0  0
    1.9251    0.0147    3.5640 C   0  0  0  0  0  0  0  0  0  0  0  0
    2.6046   -0.7784    4.4837 C   0  0  0  0  0  0  0  0  0  0  0  0
    3.9606   -0.5709    4.7126 C   0  0  0  0  0  0  0  0  0  0  0  0
    4.6081   -1.3293    5.5916 F   0  0  0  0  0  0  0  0  0  0  0  0
    4.6576    0.4230    4.0343 C   0  0  0  0  0  0  0  0  0  0  0  0
    1.8776    1.8776    1.8776 C   0  0  3  0  0  0  0  0  0  0  0  0
    1.0385    2.8494    2.5935 N   0  0  0  0  0  0  0  0  0  0  0  0
    1.2401    4.1924    2.4132 C   0  0  0  0  0  0  0  0  0  0  0  0
    2.1015    4.5755    1.6708 O   0  0  0  0  0  0  0  0  0  0  0  0
    0.3725    5.1972    3.1535 C   0  0  0  0  0  0  0  0  0  0  0  0
    1.0000    1.0000    1.0000 C   0  0  0  0  0  0  0  0  0  0  0  0
    1.8776    0.1224    0.1224 C   0  0  0  0  0  0  0  0  0  0  0  0
    3.0596    0.3214    0.0662 O   0  0  0  0  0  0  0  0  0  0  0  0
    1.3060   -0.9195   -0.6213 N   0  0  0  0  0  0  0  0  0  0  0  0
    2.0424   -1.8311   -1.5006 C   0  0  0  0  0  0  0  0  0  0  0  0
    1.2999   -3.1320   -1.3082 C   0  0  3  0  0  0  0  0  0  0  0  0
    1.4393   -4.0417   -2.5179 C   0  0  0  0  0  0  0  0  0  0  0  0
    0.6755   -5.3326   -2.2718 C   0  0  0  0  0  0  0  0  0  0  0  0
    0.8737   -3.3442   -3.7443 C   0  0  0  0  0  0  0  0  0  0  0  0
    2.9082   -4.3580   -2.7474 C   0  0  0  0  0  0  0  0  0  0  0  0
   -0.1453   -2.7244   -1.1137 C   0  0  0  0  0  0  0  0  0  0  0  0
   -0.1156   -1.2805   -0.6374 C   0  0  0  0  0  0  0  0  0  0  0  0
    0.9501   -0.1292    3.3949 H   0  0  0  0  0  0  0  0  0  0  0  0
    2.1180   -1.4974    4.9799 H   0  0  0  0  0  0  0  0  0  0  0  0
    5.6325    0.5672    4.2040 H   0  0  0  0  0  0  0  0  0  0  0  0
    2.5386    2.3646    1.3068 H   0  0  0  0  0  0  0  0  0  0  0  0
    0.3207    2.5301    3.2122 H   0  0  0  0  0  0  0  0  0  0  0  0
   -0.2886    4.7102    3.7242 H   0  0  0  0  0  0  0  0  0  0  0  0
    0.9499    5.7746    3.7308 H   0  0  0  0  0  0  0  0  0  0  0  0
   -0.1145    5.7680    2.4924 H   0  0  0  0  0  0  0  0  0  0  0  0
    0.4226    0.4226    1.5774 H   0  0  0  0  0  0  0  0  0  0  0  0
    0.4226    1.5774    0.4226 H   0  0  0  0  0  0  0  0  0  0  0  0
    2.9980   -1.9141   -1.2178 H   0  0  0  0  0  0  0  0  0  0  0  0
    2.0016   -1.5280   -2.4527 H   0  0  0  0  0  0  0  0  0  0  0  0
    1.6357   -3.5986   -0.4900 H   0  0  0  0  0  0  0  0  0  0  0  0
    0.7672   -5.9311   -3.0677 H   0  0  0  0  0  0  0  0  0  0  0  0
    1.0476   -5.7914   -1.4650 H   0  0  0  0  0  0  0  0  0  0  0  0
   -0.2909   -5.1244   -2.1209 H   0  0  0  0  0  0  0  0  0  0  0  0
    0.9654   -3.9427   -4.5401 H   0  0  0  0  0  0  0  0  0  0  0  0
   -0.0927   -3.1361   -3.5933 H   0  0  0  0  0  0  0  0  0  0  0  0
    1.3762   -2.4949   -3.9062 H   0  0  0  0  0  0  0  0  0  0  0  0
    2.9999   -4.9565   -3.5432 H   0  0  0  0  0  0  0  0  0  0  0  0
    3.4108   -3.5088   -2.9093 H   0  0  0  0  0  0  0  0  0  0  0  0
    3.2803   -4.8169   -1.9405 H   0  0  0  0  0  0  0  0  0  0  0  0
   -0.5811   -3.3072   -0.4279 H   0  0  0  0  0  0  0  0  0  0  0  0
   -0.6450   -2.7948   -1.9771 H   0  0  0  0  0  0  0  0  0  0  0  0
   -0.6214   -0.6913   -1.2676 H   0  0  0  0  0  0  0  0  0  0  0  0
   -0.5088   -1.2038    0.2789 H   0  0  0  0  0  0  0  0  0  0  0  0
  1  2  1  0  0  0  0
  2  3  1  0  0  0  0
  3  4  2  0  0  0  0
  4  5  1  0  0  0  0
  5  6  2  0  0  0  0
  6  7  1  0  0  0  0
  6  8  1  0  0  0  0
  8  2  2  0  0  0  0
  3  9  1  0  0  0  0
  9 10  1  0  0  0  0
 10 11  1  0  0  0  0
 11 12  2  0  0  0  0
 11 13  1  0  0  0  0
  9 14  1  0  0  0  0
 14 15  1  0  0  0  0
 15 16  2  0  0  0  0
 15 17  1  0  0  0  0
 17 18  1  0  0  0  0
 18 19  1  0  0  0  0
 19 20  1  0  0  0  0
 20 21  1  0  0  0  0
 20 22  1  0  0  0  0
 20 23  1  0  0  0  0
 19 24  1  0  0  0  0
 24 25  1  0  0  0  0
 25 17  1  0  0  0  0
  4 26  1  0  0  0  0
  5 27  1  0  0  0  0
  8 28  1  0  0  0  0
  9 29  1  0  0  0  0
 10 30  1  0  0  0  0
 13 31  1  0  0  0  0
 13 32  1  0  0  0  0
 13 33  1  0  0  0  0
 14 34  1  0  0  0  0
 14 35  1  0  0  0  0
 18 36  1  0  0  0  0
 18 37  1  0  0  0  0
 19 38  1  0  0  0  0
 21 39  1  0  0  0  0
 21 40  1  0  0  0  0
 21 41  1  0  0  0  0
 22 42  1  0  0  0  0
 22 43  1  0  0  0  0
 22 44  1  0  0  0  0
 23 45  1  0  0  0  0
 23 46  1  0  0  0  0
 23 47  1  0  0  0  0
 24 48  1  0  0  0  0
 24 49  1  0  0  0  0
 25 50  1  0  0  0  0
 25 51  1  0  0  0  0
M  END
>  <result-rank>
94

>  <similarity>
0.938

>  <query-name>
LIG_A_1101_CCC[C@H]([R*])C1CCC1_2

>  <query-smiles>
O=C(N[C@H](C1CCC1)CCC)[C@@H](NC(=O)C)Cc2ccc(O)cc2

>  <source>
REALspace_2019-12

>  <similarity-descriptor>
0.908;0.948;0.852;0.852;0.908;0.937;0.937;1.000;1.000;1.000;1.000;1.000;1.000;0.0;0.0

>  <similarity-descriptor-smiles>
N1CCCC1;Fc1cc(ccc1)F;C=O;C=O;N1CCCC1;C(C)C;C(C)C;C;CC;N;C=O;C;CC;;

>  <reaction-name>
s_22

>  <reagent1-name>
8696600

>  <reagent1-smiles>
[R1*]N1CC(C(C)(C)C)CC1

>  <reagent2-name>
5637262

>  <reagent2-smiles>
[R1*]C(=O)CC(NC(=O)C)c1c(F)cc(F)cc1

$$$$
s_272104____9342666____11403110
          04022015093D 1   1.00000     0.00000     0
            
 60 62  0  0  0  0            999 V2000
    7.3427    2.9752    3.0449 O   0  0  0  0  0  0  0  0  0  0  0  0
    6.6154    3.6739    3.7322 C   0  0  0  0  0  0  0  0  0  0  0  0
    5.2194    3.6554    3.6935 N   0  0  0  0  0  0  0  0  0  0  0  0
    4.7185    4.5775    4.6087 C   0  0  0  0  0  0  0  0  0  0  0  0
    3.5408    4.8043    4.8353 O   0  0  0  0  0  0  0  0  0  0  0  0
    5.8961    5.2402    5.2847 C   0  0  3  0  0  0  0  0  0  0  0  0
    7.0661    4.6103    4.6660 N   0  0  0  0  0  0  0  0  0  0  0  0
    5.8805    5.0068    6.7869 C   0  0  0  0  0  0  0  0  0  0  0  0
    7.1366    5.5999    7.4051 C   0  0  0  0  0  0  0  0  0  0  0  0
    7.1387    6.9200    7.8448 C   0  0  0  0  0  0  0  0  0  0  0  0
    6.0343    7.6884    7.7296 O   0  0  0  0  0  0  0  0  0  0  0  0
    8.2883    7.4629    8.4103 C   0  0  0  0  0  0  0  0  0  0  0  0
    9.4354    6.6854    8.5364 C   0  0  0  0  0  0  0  0  0  0  0  0
    9.4326    5.3652    8.0972 C   0  0  0  0  0  0  0  0  0  0  0  0
    8.2830    4.8226    7.5321 C   0  0  0  0  0  0  0  0  0  0  0  0
    4.4085    2.7942    2.8219 C   0  0  3  0  0  0  0  0  0  0  0  0
    3.5358    3.6413    1.9093 C   0  0  3  0  0  0  0  0  0  0  0  0
    2.6798    2.7438    1.0298 C   0  0  0  0  0  0  0  0  0  0  0  0
    1.8486    1.8486    1.8486 N   0  3  3  0  0  0  0  0  0  0  0  0
    2.6621    1.0285    2.7593 C   0  0  0  0  0  0  0  0  0  0  0  0
    3.5115    1.9037    3.6680 C   0  0  0  0  0  0  0  0  0  0  0  0
    1.0000    1.0000    1.0000 C   0  0  0  0  0  0  0  0  0  0  0  0
    1.8769    0.1561    0.0894 C   0  0  0  0  0  0  0  0  0  0  0  0
    0.9994   -0.7215   -0.7882 C   0  0  0  0  0  0  0  0  0  0  0  0
    1.8186   -1.5098   -1.6389 O   0  0  0  0  0  0  0  0  0  0  0  0
    0.9988   -2.3297   -2.4587 C   0  0  0  0  0  0  0  0  0  0  0  0
    0.7448   -3.6542   -1.7577 C   0  0  0  0  0  0  0  0  0  0  0  0
    4.4160    4.5461    1.0618 C   0  0  0  0  0  0  0  0  0  0  0  0
    1.2466    2.4187    2.4077 H   0  0  0  0  0  0  0  0  0  0  0  0
    5.8938    6.2213    5.0912 H   0  0  0  0  0  0  0  0  0  0  0  0
    8.0220    4.8154    4.8760 H   0  0  0  0  0  0  0  0  0  0  0  0
    5.0744    5.4455    7.1841 H   0  0  0  0  0  0  0  0  0  0  0  0
    5.8502    4.0244    6.9713 H   0  0  0  0  0  0  0  0  0  0  0  0
    6.0487    8.6357    8.0495 H   0  0  0  0  0  0  0  0  0  0  0  0
    8.2901    8.4118    8.7260 H   0  0  0  0  0  0  0  0  0  0  0  0
   10.2616    7.0754    8.9428 H   0  0  0  0  0  0  0  0  0  0  0  0
   10.2569    4.8064    8.1877 H   0  0  0  0  0  0  0  0  0  0  0  0
    8.2809    3.8735    7.2171 H   0  0  0  0  0  0  0  0  0  0  0  0
    5.0125    2.2231    2.2660 H   0  0  0  0  0  0  0  0  0  0  0  0
    2.9356    4.2095    2.4722 H   0  0  0  0  0  0  0  0  0  0  0  0
    2.0863    3.3126    0.4605 H   0  0  0  0  0  0  0  0  0  0  0  0
    3.2757    2.1938    0.4447 H   0  0  0  0  0  0  0  0  0  0  0  0
    3.2621    0.4378    2.2199 H   0  0  0  0  0  0  0  0  0  0  0  0
    2.0565    0.4647    3.3210 H   0  0  0  0  0  0  0  0  0  0  0  0
    2.9156    2.4731    4.2344 H   0  0  0  0  0  0  0  0  0  0  0  0
    4.0761    1.3245    4.2559 H   0  0  0  0  0  0  0  0  0  0  0  0
    0.4009    1.5769    0.4448 H   0  0  0  0  0  0  0  0  0  0  0  0
    0.4448    0.4009    1.5769 H   0  0  0  0  0  0  0  0  0  0  0  0
    2.4321    0.7552   -0.4875 H   0  0  0  0  0  0  0  0  0  0  0  0
    2.4760   -0.4208    0.6446 H   0  0  0  0  0  0  0  0  0  0  0  0
    0.4442   -1.3206   -0.2113 H   0  0  0  0  0  0  0  0  0  0  0  0
    0.4003   -0.1445   -1.3434 H   0  0  0  0  0  0  0  0  0  0  0  0
    1.4600   -2.4968   -3.3302 H   0  0  0  0  0  0  0  0  0  0  0  0
    0.1273   -1.8685   -2.6258 H   0  0  0  0  0  0  0  0  0  0  0  0
    0.1674   -4.2316   -2.3351 H   0  0  0  0  0  0  0  0  0  0  0  0
    1.6162   -4.1154   -1.5906 H   0  0  0  0  0  0  0  0  0  0  0  0
    0.2836   -3.4871   -0.8863 H   0  0  0  0  0  0  0  0  0  0  0  0
    3.8417    5.1030    0.4618 H   0  0  0  0  0  0  0  0  0  0  0  0
    4.9523    5.1432    1.6583 H   0  0  0  0  0  0  0  0  0  0  0  0
    5.0331    3.9871    0.5079 H   0  0  0  0  0  0  0  0  0  0  0  0
  1  2  2  0  0  0  0
  2  3  1  0  0  0  0
  3  4  1  0  0  0  0
  4  5  2  0  0  0  0
  4  6  1  0  0  0  0
  6  7  1  0  0  0  0
  7  2  1  0  0  0  0
  6  8  1  0  0  0  0
  8  9  1  0  0  0  0
  9 10  1  0  0  0  0
 10 11  1  0  0  0  0
 10 12  2  0  0  0  0
 12 13  1  0  0  0  0
 13 14  2  0  0  0  0
 14 15  1  0  0  0  0
 15  9  2  0  0  0  0
  3 16  1  0  0  0  0
 16 17  1  0  0  0  0
 17 18  1  0  0  0  0
 18 19  1  0  0  0  0
 19 20  1  0  0  0  0
 20 21  1  0  0  0  0
 21 16  1  0  0  0  0
 19 22  1  0  0  0  0
 22 23  1  0  0  0  0
 23 24  1  0  0  0  0
 24 25  1  0  0  0  0
 25 26  1  0  0  0  0
 26 27  1  0  0  0  0
 17 28  1  0  0  0  0
 19 29  1  0  0  0  0
  6 30  1  0  0  0  0
  7 31  1  0  0  0  0
  8 32  1  0  0  0  0
  8 33  1  0  0  0  0
 11 34  1  0  0  0  0
 12 35  1  0  0  0  0
 13 36  1  0  0  0  0
 14 37  1  0  0  0  0
 15 38  1  0  0  0  0
 16 39  1  0  0  0  0
 17 40  1  0  0  0  0
 18 41  1  0  0  0  0
 18 42  1  0  0  0  0
 20 43  1  0  0  0  0
 20 44  1  0  0  0  0
 21 45  1  0  0  0  0
 21 46  1  0  0  0  0
 22 47  1  0  0  0  0
 22 48  1  0  0  0  0
 23 49  1  0  0  0  0
 23 50  1  0  0  0  0
 24 51  1  0  0  0  0
 24 52  1  0  0  0  0
 26 53  1  0  0  0  0
 26 54  1  0  0  0  0
 27 55  1  0  0  0  0
 27 56  1  0  0  0  0
 27 57  1  0  0  0  0
 28 58  1  0  0  0  0
 28 59  1  0  0  0  0
 28 60  1  0  0  0  0
M  CHG  1  19   1
M  END
>  <result-rank>
95

>  <similarity>
0.938

>  <query-name>
LIG_A_1101_CCC[C@H]([R*])C1CCC1_2

>  <query-smiles>
O=C(N[C@H](C1CCC1)CCC)[C@@H](NC(=O)C)Cc2ccc(O)cc2

>  <source>
REALspace_2019-12

>  <similarity-descriptor>
0.998;1.000;0.893;0.998;0.998;0.993;1.000;0.956;0.893;0.893;0.893;0.0;1.000;1.000;0.333

>  <similarity-descriptor-smiles>
C1CC[NH+]CC1;c1ccccc1;O=C1NCC(N1)=O;C1CC[NH+]CC1;C1CC[NH+]CC1;C;C;C;O=C1NCC(N1)=O;O=C1NCC(N1)=O;O=C1NCC(N1)=O;;C;O;O.C.C.C

>  <reaction-name>
s_272104

>  <reagent1-name>
9342666

>  <reagent1-smiles>
[R2*]N(C([R1*])=O)C1C(CN(CC1)CCCOCC)C

>  <reagent2-name>
11403110

>  <reagent2-smiles>
[R1*]N(Cc1c(O)cccc1)CC([R2*])=O

$$$$
s_2708____11973844____4509338
          04022015093D 1   1.00000     0.00000     0
            
 48 49  0  0  0  0            999 V2000
    0.4000   -0.0392    1.0000 O   0  0  0  0  0  0  0  0  0  0  0  0
    1.0000    1.0000    1.0000 C   0  0  0  0  0  0  0  0  0  0  0  0
    2.3700    1.0000    1.0000 N   0  0  0  0  0  0  0  0  0  0  0  0
    3.1050   -0.2731    1.0000 C   0  0  3  0  0  0  0  0  0  0  0  0
    3.9785   -0.3535   -0.2406 C   0  0  0  0  0  0  0  0  0  0  0  0
    5.2577   -0.8892   -0.1315 C   0  0  0  0  0  0  0  0  0  0  0  0
    6.0552   -0.9628   -1.2681 C   0  0  0  0  0  0  0  0  0  0  0  0
    7.2998   -1.4779   -1.1845 O   0  0  0  0  0  0  0  0  0  0  0  0
    5.5818   -0.5076   -2.4945 C   0  0  0  0  0  0  0  0  0  0  0  0
    4.3008    0.0273   -2.5907 C   0  0  0  0  0  0  0  0  0  0  0  0
    3.4930    0.1053   -1.4610 C   0  0  0  0  0  0  0  0  0  0  0  0
    3.9789   -0.3536    2.2411 C   0  0  0  0  0  0  0  0  0  0  0  0
    3.1050    2.2731    1.0000 C   0  0  0  0  0  0  0  0  0  0  0  0
    0.3150    2.1865    1.0000 N   0  0  0  0  0  0  0  0  0  0  0  0
   -1.1545    2.1865    1.0000 C   0  0  3  0  0  0  0  0  0  0  0  0
   -1.6732    2.9009   -0.2374 C   0  0  0  0  0  0  0  0  0  0  0  0
   -3.1934    2.9070   -0.2395 C   0  0  3  0  0  0  0  0  0  0  0  0
   -3.7151    3.5912    1.0137 C   0  0  3  0  0  0  0  0  0  0  0  0
   -5.1347    3.5919    1.0116 O   0  0  0  0  0  0  0  0  0  0  0  0
   -3.1959    2.8767    2.2510 C   0  0  0  0  0  0  0  0  0  0  0  0
   -1.6757    2.8738    2.2515 C   0  0  0  0  0  0  0  0  0  0  0  0
   -3.7091    3.6234   -1.4768 C   0  0  0  0  0  0  0  0  0  0  0  0
    2.4552   -1.0331    1.0000 H   0  0  0  0  0  0  0  0  0  0  0  0
    5.5981   -1.2161    0.7501 H   0  0  0  0  0  0  0  0  0  0  0  0
    7.8747   -1.5316   -2.0009 H   0  0  0  0  0  0  0  0  0  0  0  0
    6.1621   -0.5648   -3.3069 H   0  0  0  0  0  0  0  0  0  0  0  0
    3.9610    0.3557   -3.4720 H   0  0  0  0  0  0  0  0  0  0  0  0
    2.5713    0.4879   -1.5254 H   0  0  0  0  0  0  0  0  0  0  0  0
    4.4789   -1.2196    2.2411 H   0  0  0  0  0  0  0  0  0  0  0  0
    4.6287    0.4065    2.2411 H   0  0  0  0  0  0  0  0  0  0  0  0
    3.4040   -0.3006    3.0576 H   0  0  0  0  0  0  0  0  0  0  0  0
    4.0882    2.0903    1.0000 H   0  0  0  0  0  0  0  0  0  0  0  0
    2.8634    2.7974    0.1835 H   0  0  0  0  0  0  0  0  0  0  0  0
    2.8634    2.7974    1.8165 H   0  0  0  0  0  0  0  0  0  0  0  0
    0.8150    3.0525    1.0000 H   0  0  0  0  0  0  0  0  0  0  0  0
   -1.4795    1.2408    0.9894 H   0  0  0  0  0  0  0  0  0  0  0  0
   -1.3433    2.4282   -1.0546 H   0  0  0  0  0  0  0  0  0  0  0  0
   -1.3387    3.8433   -0.2396 H   0  0  0  0  0  0  0  0  0  0  0  0
   -3.5208    1.9622   -0.2525 H   0  0  0  0  0  0  0  0  0  0  0  0
   -3.3906    4.5370    1.0255 H   0  0  0  0  0  0  0  0  0  0  0  0
   -5.4691    4.0435    1.8388 H   0  0  0  0  0  0  0  0  0  0  0  0
   -3.5287    1.9337    2.2528 H   0  0  0  0  0  0  0  0  0  0  0  0
   -3.5262    3.3483    3.0686 H   0  0  0  0  0  0  0  0  0  0  0  0
   -1.3431    3.8167    2.2738 H   0  0  0  0  0  0  0  0  0  0  0  0
   -1.3460    2.3849    3.0591 H   0  0  0  0  0  0  0  0  0  0  0  0
   -3.3612    3.1668   -2.2956 H   0  0  0  0  0  0  0  0  0  0  0  0
   -4.7089    3.6013   -1.4822 H   0  0  0  0  0  0  0  0  0  0  0  0
   -3.3967    4.5733   -1.4665 H   0  0  0  0  0  0  0  0  0  0  0  0
  1  2  2  0  0  0  0
  2  3  1  0  0  0  0
  3  4  1  0  0  0  0
  4  5  1  0  0  0  0
  5  6  1  0  0  0  0
  6  7  2  0  0  0  0
  7  8  1  0  0  0  0
  7  9  1  0  0  0  0
  9 10  2  0  0  0  0
 10 11  1  0  0  0  0
 11  5  2  0  0  0  0
  4 12  1  0  0  0  0
  3 13  1  0  0  0  0
  2 14  1  0  0  0  0
 14 15  1  0  0  0  0
 15 16  1  0  0  0  0
 16 17  1  0  0  0  0
 17 18  1  0  0  0  0
 18 19  1  0  0  0  0
 18 20  1  0  0  0  0
 20 21  1  0  0  0  0
 21 15  1  0  0  0  0
 17 22  1  0  0  0  0
  4 23  1  0  0  0  0
  6 24  1  0  0  0  0
  8 25  1  0  0  0  0
  9 26  1  0  0  0  0
 10 27  1  0  0  0  0
 11 28  1  0  0  0  0
 12 29  1  0  0  0  0
 12 30  1  0  0  0  0
 12 31  1  0  0  0  0
 13 32  1  0  0  0  0
 13 33  1  0  0  0  0
 13 34  1  0  0  0  0
 14 35  1  0  0  0  0
 15 36  1  0  0  0  0
 16 37  1  0  0  0  0
 16 38  1  0  0  0  0
 17 39  1  0  0  0  0
 18 40  1  0  0  0  0
 19 41  1  0  0  0  0
 20 42  1  0  0  0  0
 20 43  1  0  0  0  0
 21 44  1  0  0  0  0
 21 45  1  0  0  0  0
 22 46  1  0  0  0  0
 22 47  1  0  0  0  0
 22 48  1  0  0  0  0
M  END
>  <result-rank>
96

>  <similarity>
0.937

>  <query-name>
LIG_A_1101_CCC[C@H]([R*])C1CCC1_2

>  <query-smiles>
O=C(N[C@H](C1CCC1)CCC)[C@@H](NC(=O)C)Cc2ccc(O)cc2

>  <source>
REALspace_2019-12

>  <similarity-descriptor>
0.990;1.000;0.969;1.000;0.990;0.990;0.949;0.0;0.967;0.0;0.0;0.0;0.967;1.000;0.182

>  <similarity-descriptor-smiles>
C1CCCCC1;c1ccccc1;O=CN;N;C1CCCCC1;C1CCCCC1;C;;CC;;;;CC;O;C.O

>  <reaction-name>
s_2708

>  <reagent1-name>
11973844

>  <reagent1-smiles>
[R1*]C(=O)NC1CC(C(O)CC1)C

>  <reagent2-name>
4509338

>  <reagent2-smiles>
[R1*]N(C(c1cc(O)ccc1)C)C

$$$$
s_275532____17541832____13658700
          04022015093D 1   1.00000     0.00000     0
            
 47 48  0  0  0  0            999 V2000
    1.4118   -0.6300    5.1406 O   0  5  0  0  0  0  0  0  0  0  0  0
    0.6828   -0.2411    4.2566 C   0  0  0  0  0  0  0  0  0  0  0  0
   -0.3722   -0.8599    3.9988 O   0  0  0  0  0  0  0  0  0  0  0  0
    1.0500    1.0000    3.4595 C   0  0  3  0  0  0  0  0  0  0  0  0
    0.3150    1.0000    2.1865 N   0  0  0  0  0  0  0  0  0  0  0  0
    1.0000    1.0000    1.0000 C   0  0  0  0  0  0  0  0  0  0  0  0
    0.4000    1.0000   -0.0392 O   0  0  0  0  0  0  0  0  0  0  0  0
    2.5200    1.0000    1.0000 C   0  0  0  0  0  0  0  0  0  0  0  0
    3.0100    0.7593   -0.3649 N   0  3  3  0  0  0  0  0  0  0  0  0
    2.9464    2.0093   -1.1358 C   0  0  0  0  0  0  0  0  0  0  0  0
    3.2749    1.7236   -2.5921 C   0  0  3  0  0  0  0  0  0  0  0  0
    3.2423    2.9313   -3.4866 C   0  0  3  0  0  0  0  0  0  0  0  0
    2.0908    1.9679   -3.4801 C   0  0  0  0  0  0  0  0  0  0  0  0
    2.8976    4.2287   -2.7711 C   0  0  0  0  0  0  0  0  0  0  0  0
    4.4012    0.2877   -0.3100 C   0  0  0  0  0  0  0  0  0  0  0  0
    0.6828    2.2411    4.2566 C   0  0  0  0  0  0  0  0  0  0  0  0
    1.0500    3.4822    3.4595 C   0  0  0  0  0  0  0  0  0  0  0  0
    2.3152    4.0410    3.6073 C   0  0  0  0  0  0  0  0  0  0  0  0
    2.6559    5.1761    2.8795 C   0  0  0  0  0  0  0  0  0  0  0  0
    1.7255    5.7385    2.0113 C   0  0  0  0  0  0  0  0  0  0  0  0
    2.0518    6.8404    1.3033 O   0  0  0  0  0  0  0  0  0  0  0  0
    0.4587    5.1838    1.8600 C   0  0  0  0  0  0  0  0  0  0  0  0
    0.1235    4.0485    2.5900 C   0  0  0  0  0  0  0  0  0  0  0  0
    2.4402    0.0661   -0.8062 H   0  0  0  0  0  0  0  0  0  0  0  0
    2.0332    1.0000    3.2768 H   0  0  0  0  0  0  0  0  0  0  0  0
   -0.6850    1.0000    2.1865 H   0  0  0  0  0  0  0  0  0  0  0  0
    2.8533    1.8860    1.3225 H   0  0  0  0  0  0  0  0  0  0  0  0
    2.8533    0.2778    1.6060 H   0  0  0  0  0  0  0  0  0  0  0  0
    3.6077    2.6625   -0.7669 H   0  0  0  0  0  0  0  0  0  0  0  0
    2.0258    2.3944   -1.0711 H   0  0  0  0  0  0  0  0  0  0  0  0
    3.8995    0.9740   -2.8110 H   0  0  0  0  0  0  0  0  0  0  0  0
    3.8454    2.9618   -4.2837 H   0  0  0  0  0  0  0  0  0  0  0  0
    1.2147    2.2390   -3.0814 H   0  0  0  0  0  0  0  0  0  0  0  0
    1.9288    1.3774   -4.2707 H   0  0  0  0  0  0  0  0  0  0  0  0
    2.8957    4.9819   -3.4290 H   0  0  0  0  0  0  0  0  0  0  0  0
    1.9925    4.1488   -2.3534 H   0  0  0  0  0  0  0  0  0  0  0  0
    3.5779    4.4085   -2.0606 H   0  0  0  0  0  0  0  0  0  0  0  0
    4.7345    0.1240   -1.2385 H   0  0  0  0  0  0  0  0  0  0  0  0
    4.9710    0.9809    0.1313 H   0  0  0  0  0  0  0  0  0  0  0  0
    4.4444   -0.5626    0.2145 H   0  0  0  0  0  0  0  0  0  0  0  0
   -0.3004    2.2411    4.4393 H   0  0  0  0  0  0  0  0  0  0  0  0
    1.1828    2.2411    5.1226 H   0  0  0  0  0  0  0  0  0  0  0  0
    2.9766    3.6285    4.2339 H   0  0  0  0  0  0  0  0  0  0  0  0
    3.5630    5.5851    2.9794 H   0  0  0  0  0  0  0  0  0  0  0  0
    1.3864    7.2483    0.6780 H   0  0  0  0  0  0  0  0  0  0  0  0
   -0.2029    5.5965    1.2339 H   0  0  0  0  0  0  0  0  0  0  0  0
   -0.7834    3.6392    2.4898 H   0  0  0  0  0  0  0  0  0  0  0  0
  1  2  1  0  0  0  0
  2  3  2  0  0  0  0
  2  4  1  0  0  0  0
  4  5  1  0  0  0  0
  5  6  1  0  0  0  0
  6  7  2  0  0  0  0
  6  8  1  0  0  0  0
  8  9  1  0  0  0  0
  9 10  1  0  0  0  0
 10 11  1  0  0  0  0
 11 12  1  0  0  0  0
 12 13  1  0  0  0  0
 13 11  1  0  0  0  0
 12 14  1  0  0  0  0
  9 15  1  0  0  0  0
  4 16  1  0  0  0  0
 16 17  1  0  0  0  0
 17 18  1  0  0  0  0
 18 19  2  0  0  0  0
 19 20  1  0  0  0  0
 20 21  1  0  0  0  0
 20 22  2  0  0  0  0
 22 23  1  0  0  0  0
 23 17  2  0  0  0  0
  9 24  1  0  0  0  0
  4 25  1  0  0  0  0
  5 26  1  0  0  0  0
  8 27  1  0  0  0  0
  8 28  1  0  0  0  0
 10 29  1  0  0  0  0
 10 30  1  0  0  0  0
 11 31  1  0  0  0  0
 12 32  1  0  0  0  0
 13 33  1  0  0  0  0
 13 34  1  0  0  0  0
 14 35  1  0  0  0  0
 14 36  1  0  0  0  0
 14 37  1  0  0  0  0
 15 38  1  0  0  0  0
 15 39  1  0  0  0  0
 15 40  1  0  0  0  0
 16 41  1  0  0  0  0
 16 42  1  0  0  0  0
 18 43  1  0  0  0  0
 19 44  1  0  0  0  0
 21 45  1  0  0  0  0
 22 46  1  0  0  0  0
 23 47  1  0  0  0  0
M  CHG  2   1  -1   9   1
M  END
>  <result-rank>
97

>  <similarity>
0.936

>  <query-name>
LIG_A_1101_CCC[C@H]([R*])C1CCC1_2

>  <query-smiles>
O=C(N[C@H](C1CCC1)CCC)[C@@H](NC(=O)C)Cc2ccc(O)cc2

>  <source>
REALspace_2019-12

>  <similarity-descriptor>
0.985;1.000;1.000;0.970;0.970;0.945;0.0;0.0;1.000;1.000;0.733;0.733;1.000;1.000;0.077

>  <similarity-descriptor-smiles>
CC1CC1;c1ccccc1;C=O;C[NH+];C[NH+];C;;;CN;CN;[O-]C=O;[O-]C=O;C;O;C

>  <reaction-name>
s_275532

>  <reagent1-name>
17541832

>  <reagent1-smiles>
[R1*]N(CC(=O)NC(C(=O)O)Cc1ccc(O)cc1)C

>  <reagent2-name>
13658700

>  <reagent2-smiles>
[R1*]CC1C(C1)C

$$$$
s_22____10813308____17513450
          04022015093D 1   1.00000     0.00000     0
            
 63 65  0  0  0  0            999 V2000
    0.4000    2.0316    0.8739 O   0  0  0  0  0  0  0  0  0  0  0  0
    1.0000    1.0000    1.0000 C   0  0  0  0  0  0  0  0  0  0  0  0
    2.3974    1.0000    1.0000 N   0  0  0  0  0  0  0  0  0  0  0  0
    3.0942    2.2871    0.8427 C   0  0  0  0  0  0  0  0  0  0  0  0
    4.4162    2.1328    0.1035 C   0  0  0  0  0  0  0  0  0  0  0  0
    5.2334    0.9581    0.6227 C   0  0  0  0  0  0  0  0  0  0  0  0
    6.4829    0.8475   -0.2357 C   0  0  0  0  0  0  0  0  0  0  0  0
    7.3301   -0.3171    0.2505 C   0  0  0  0  0  0  0  0  0  0  0  0
    8.5407   -0.4243   -0.5812 N   0  3  0  0  0  0  0  0  0  0  0  0
    9.3538    0.7993   -0.5160 C   0  0  0  0  0  0  0  0  0  0  0  0
   10.5911    0.6556   -1.3877 C   0  0  0  0  0  0  0  0  0  0  0  0
   11.3449   -0.4831   -0.9961 O   0  0  0  0  0  0  0  0  0  0  0  0
   10.5809   -1.6795   -1.0641 C   0  0  0  0  0  0  0  0  0  0  0  0
    9.3465   -1.5881   -0.1804 C   0  0  0  0  0  0  0  0  0  0  0  0
    4.4202   -0.3093    0.4004 C   0  0  0  0  0  0  0  0  0  0  0  0
    3.0969   -0.2865    1.1527 C   0  0  0  0  0  0  0  0  0  0  0  0
    0.2400   -0.3066    1.1597 C   0  0  3  0  0  0  0  0  0  0  0  0
   -1.0444   -0.2162    0.4505 N   0  0  0  0  0  0  0  0  0  0  0  0
   -1.1292   -0.5931   -0.8639 C   0  0  0  0  0  0  0  0  0  0  0  0
   -0.1550   -0.9971   -1.4363 O   0  0  0  0  0  0  0  0  0  0  0  0
   -2.4574   -0.4997   -1.5972 C   0  0  0  0  0  0  0  0  0  0  0  0
   -0.0133   -0.5684    2.6354 C   0  0  0  0  0  0  0  0  0  0  0  0
   -0.7734   -1.8750    2.7951 C   0  0  0  0  0  0  0  0  0  0  0  0
   -0.0668   -3.0644    2.9404 C   0  0  0  0  0  0  0  0  0  0  0  0
   -0.7580   -4.2623    3.0876 C   0  0  0  0  0  0  0  0  0  0  0  0
   -2.1493   -4.2553    3.0880 C   0  0  0  0  0  0  0  0  0  0  0  0
   -2.8591   -5.4760    3.2376 O   0  0  0  0  0  0  0  0  0  0  0  0
   -2.8607   -3.0687    2.9426 C   0  0  0  0  0  0  0  0  0  0  0  0
   -2.1644   -1.8737    2.7963 C   0  0  0  0  0  0  0  0  0  0  0  0
    8.2546   -0.5568   -1.5302 H   0  0  0  0  0  0  0  0  0  0  0  0
    3.2737    2.6701    1.7489 H   0  0  0  0  0  0  0  0  0  0  0  0
    2.5070    2.9114    0.3274 H   0  0  0  0  0  0  0  0  0  0  0  0
    4.2268    1.9887   -0.8678 H   0  0  0  0  0  0  0  0  0  0  0  0
    4.9489    2.9712    0.2185 H   0  0  0  0  0  0  0  0  0  0  0  0
    5.4655    1.0758    1.5883 H   0  0  0  0  0  0  0  0  0  0  0  0
    7.0101    1.6945   -0.1676 H   0  0  0  0  0  0  0  0  0  0  0  0
    6.2204    0.6939   -1.1883 H   0  0  0  0  0  0  0  0  0  0  0  0
    7.5927   -0.1635    1.2031 H   0  0  0  0  0  0  0  0  0  0  0  0
    6.8029   -1.1641    0.1824 H   0  0  0  0  0  0  0  0  0  0  0  0
    9.6336    0.9598    0.4305 H   0  0  0  0  0  0  0  0  0  0  0  0
    8.8106    1.5743   -0.8390 H   0  0  0  0  0  0  0  0  0  0  0  0
   10.3113    0.5529   -2.3422 H   0  0  0  0  0  0  0  0  0  0  0  0
   11.1577    1.4741   -1.2926 H   0  0  0  0  0  0  0  0  0  0  0  0
   11.1457   -2.4462   -0.7589 H   0  0  0  0  0  0  0  0  0  0  0  0
   10.2952   -1.8319   -2.0103 H   0  0  0  0  0  0  0  0  0  0  0  0
    8.8022   -2.4209   -0.2810 H   0  0  0  0  0  0  0  0  0  0  0  0
    9.6269   -1.4864    0.7741 H   0  0  0  0  0  0  0  0  0  0  0  0
    4.9551   -1.0937    0.7144 H   0  0  0  0  0  0  0  0  0  0  0  0
    4.2327   -0.4036   -0.5773 H   0  0  0  0  0  0  0  0  0  0  0  0
    2.5117   -1.0161    0.7988 H   0  0  0  0  0  0  0  0  0  0  0  0
    3.2750   -0.4438    2.1241 H   0  0  0  0  0  0  0  0  0  0  0  0
    0.7804   -1.0556    0.7763 H   0  0  0  0  0  0  0  0  0  0  0  0
   -1.8563    0.1204    0.9275 H   0  0  0  0  0  0  0  0  0  0  0  0
   -3.1569   -0.1461   -0.9761 H   0  0  0  0  0  0  0  0  0  0  0  0
   -2.3637    0.1166   -2.3792 H   0  0  0  0  0  0  0  0  0  0  0  0
   -2.7253   -1.4079   -1.9187 H   0  0  0  0  0  0  0  0  0  0  0  0
    0.8604   -0.6299    3.1178 H   0  0  0  0  0  0  0  0  0  0  0  0
   -0.5538    0.1806    3.0188 H   0  0  0  0  0  0  0  0  0  0  0  0
    0.9332   -3.0581    2.9391 H   0  0  0  0  0  0  0  0  0  0  0  0
   -0.2586   -5.1223    3.1923 H   0  0  0  0  0  0  0  0  0  0  0  0
   -3.8591   -5.4760    3.2385 H   0  0  0  0  0  0  0  0  0  0  0  0
   -3.8607   -3.0749    2.9434 H   0  0  0  0  0  0  0  0  0  0  0  0
   -2.6638   -1.0135    2.6919 H   0  0  0  0  0  0  0  0  0  0  0  0
  1  2  2  0  0  0  0
  2  3  1  0  0  0  0
  3  4  1  0  0  0  0
  4  5  1  0  0  0  0
  5  6  1  0  0  0  0
  6  7  1  0  0  0  0
  7  8  1  0  0  0  0
  8  9  1  0  0  0  0
  9 10  1  0  0  0  0
 10 11  1  0  0  0  0
 11 12  1  0  0  0  0
 12 13  1  0  0  0  0
 13 14  1  0  0  0  0
 14  9  1  0  0  0  0
  6 15  1  0  0  0  0
 15 16  1  0  0  0  0
 16  3  1  0  0  0  0
  2 17  1  0  0  0  0
 17 18  1  0  0  0  0
 18 19  1  0  0  0  0
 19 20  2  0  0  0  0
 19 21  1  0  0  0  0
 17 22  1  0  0  0  0
 22 23  1  0  0  0  0
 23 24  1  0  0  0  0
 24 25  2  0  0  0  0
 25 26  1  0  0  0  0
 26 27  1  0  0  0  0
 26 28  2  0  0  0  0
 28 29  1  0  0  0  0
 29 23  2  0  0  0  0
  9 30  1  0  0  0  0
  4 31  1  0  0  0  0
  4 32  1  0  0  0  0
  5 33  1  0  0  0  0
  5 34  1  0  0  0  0
  6 35  1  0  0  0  0
  7 36  1  0  0  0  0
  7 37  1  0  0  0  0
  8 38  1  0  0  0  0
  8 39  1  0  0  0  0
 10 40  1  0  0  0  0
 10 41  1  0  0  0  0
 11 42  1  0  0  0  0
 11 43  1  0  0  0  0
 13 44  1  0  0  0  0
 13 45  1  0  0  0  0
 14 46  1  0  0  0  0
 14 47  1  0  0  0  0
 15 48  1  0  0  0  0
 15 49  1  0  0  0  0
 16 50  1  0  0  0  0
 16 51  1  0  0  0  0
 17 52  1  0  0  0  0
 18 53  1  0  0  0  0
 21 54  1  0  0  0  0
 21 55  1  0  0  0  0
 21 56  1  0  0  0  0
 22 57  1  0  0  0  0
 22 58  1  0  0  0  0
 24 59  1  0  0  0  0
 25 60  1  0  0  0  0
 27 61  1  0  0  0  0
 28 62  1  0  0  0  0
 29 63  1  0  0  0  0
M  CHG  1   9   1
M  END
>  <result-rank>
98

>  <similarity>
0.936

>  <query-name>
LIG_A_1101_CCC[C@H]([R*])C1CCC1_2

>  <query-smiles>
O=C(N[C@H](C1CCC1)CCC)[C@@H](NC(=O)C)Cc2ccc(O)cc2

>  <source>
REALspace_2019-12

>  <similarity-descriptor>
0.980;1.000;0.852;0.852;0.980;1.000;0.993;0.0;1.000;1.000;1.000;1.000;1.000;1.000;0.083

>  <similarity-descriptor-smiles>
N1CCCCC1;c1ccccc1;O=C;O=C;N1CCCCC1;C;C;;C;N;C=O;C;C;O;[NH+]1CCOCC1

>  <reaction-name>
s_22

>  <reagent1-name>
10813308

>  <reagent1-smiles>
[R1*]N1CCC(CC1)CCN2CCOCC2

>  <reagent2-name>
17513450

>  <reagent2-smiles>
[R1*]C(=O)C(NC(=O)C)Cc1ccc(O)cc1

$$$$
s_512____784460____13913670
          04022015093D 1   1.00000     0.00000     0
            
 48 50  0  0  0  0            999 V2000
    0.1081    3.0659    2.5193 O   0  0  0  0  0  0  0  0  0  0  0  0
    1.2902    2.8669    2.5755 C   0  0  0  0  0  0  0  0  0  0  0  0
    2.0811    3.6579    3.3665 N   0  0  0  0  0  0  0  0  0  0  0  0
    1.4823    4.7496    4.1458 C   0  0  3  0  0  0  0  0  0  0  0  0
    1.7049    4.5896    5.6384 C   0  0  3  0  0  0  0  0  0  0  0  0
    0.7860    3.5264    6.2193 C   0  0  0  0  0  0  0  0  0  0  0  0
    1.0092    3.3713    7.6953 C   0  0  0  0  0  0  0  0  0  0  0  0
    1.5416    2.3392    6.7431 C   0  0  0  0  0  0  0  0  0  0  0  0
    1.3679    5.9691    6.1806 C   0  0  0  0  0  0  0  0  0  0  0  0
    1.6439    6.9293    5.0385 C   0  0  0  0  0  0  0  0  0  0  0  0
    2.1852    6.0712    3.9088 C   0  0  0  0  0  0  0  0  0  0  0  0
    1.8487    1.8487    1.8487 N   0  0  0  0  0  0  0  0  0  0  0  0
    1.0000    1.0000    1.0000 C   0  0  0  0  0  0  0  0  0  0  0  0
    0.7075    1.7208   -0.3059 C   0  0  0  0  0  0  0  0  0  0  0  0
   -0.1698    0.8436   -1.1831 C   0  0  0  0  0  0  0  0  0  0  0  0
   -1.5525    0.9507   -1.0760 C   0  0  0  0  0  0  0  0  0  0  0  0
   -2.3536    0.1476   -1.8803 C   0  0  0  0  0  0  0  0  0  0  0  0
   -3.6975    0.2346   -1.7917 O   0  0  0  0  0  0  0  0  0  0  0  0
   -4.2913    1.1452   -0.8782 C   0  0  0  0  0  0  0  0  0  0  0  0
   -1.7814   -0.7488   -2.7771 C   0  0  0  0  0  0  0  0  0  0  0  0
   -0.3969   -0.8476   -2.8743 C   0  0  0  0  0  0  0  0  0  0  0  0
    0.4152   -0.0489   -2.0759 C   0  0  0  0  0  0  0  0  0  0  0  0
    3.0662    3.4920    3.4133 H   0  0  0  0  0  0  0  0  0  0  0  0
    0.5063    4.8303    3.9436 H   0  0  0  0  0  0  0  0  0  0  0  0
    2.6610    4.3649    5.8264 H   0  0  0  0  0  0  0  0  0  0  0  0
   -0.1313    3.4029    5.8407 H   0  0  0  0  0  0  0  0  0  0  0  0
    0.2417    3.1484    8.2963 H   0  0  0  0  0  0  0  0  0  0  0  0
    1.6396    3.9835    8.1727 H   0  0  0  0  0  0  0  0  0  0  0  0
    2.5264    2.2642    6.5862 H   0  0  0  0  0  0  0  0  0  0  0  0
    1.1286    1.4291    6.7098 H   0  0  0  0  0  0  0  0  0  0  0  0
    1.9452    6.1864    6.9677 H   0  0  0  0  0  0  0  0  0  0  0  0
    0.4060    6.0137    6.4504 H   0  0  0  0  0  0  0  0  0  0  0  0
    0.8014    7.3879    4.7562 H   0  0  0  0  0  0  0  0  0  0  0  0
    2.3200    7.6132    5.3126 H   0  0  0  0  0  0  0  0  0  0  0  0
    1.9464    6.4539    3.0163 H   0  0  0  0  0  0  0  0  0  0  0  0
    3.1780    5.9706    3.9735 H   0  0  0  0  0  0  0  0  0  0  0  0
    2.8337    1.6829    1.8955 H   0  0  0  0  0  0  0  0  0  0  0  0
    0.1409    0.8075    1.4742 H   0  0  0  0  0  0  0  0  0  0  0  0
    1.4742    0.1409    0.8075 H   0  0  0  0  0  0  0  0  0  0  0  0
    0.2333    2.5799   -0.1134 H   0  0  0  0  0  0  0  0  0  0  0  0
    1.5666    1.9133   -0.7801 H   0  0  0  0  0  0  0  0  0  0  0  0
   -1.9638    1.5948   -0.4310 H   0  0  0  0  0  0  0  0  0  0  0  0
   -5.2871    1.0801   -0.9424 H   0  0  0  0  0  0  0  0  0  0  0  0
   -4.0019    0.9204    0.0523 H   0  0  0  0  0  0  0  0  0  0  0  0
   -4.0031    2.0765   -1.1010 H   0  0  0  0  0  0  0  0  0  0  0  0
   -2.3652   -1.3221   -3.3520 H   0  0  0  0  0  0  0  0  0  0  0  0
    0.0144   -1.4929   -3.5182 H   0  0  0  0  0  0  0  0  0  0  0  0
    1.4107   -0.1155   -2.1430 H   0  0  0  0  0  0  0  0  0  0  0  0
  1  2  2  0  0  0  0
  2  3  1  0  0  0  0
  3  4  1  0  0  0  0
  4  5  1  0  0  0  0
  5  6  1  0  0  0  0
  6  7  1  0  0  0  0
  7  8  1  0  0  0  0
  8  6  1  0  0  0  0
  5  9  1  0  0  0  0
  9 10  1  0  0  0  0
 10 11  1  0  0  0  0
 11  4  1  0  0  0  0
  2 12  1  0  0  0  0
 12 13  1  0  0  0  0
 13 14  1  0  0  0  0
 14 15  1  0  0  0  0
 15 16  1  0  0  0  0
 16 17  2  0  0  0  0
 17 18  1  0  0  0  0
 18 19  1  0  0  0  0
 17 20  1  0  0  0  0
 20 21  2  0  0  0  0
 21 22  1  0  0  0  0
 22 15  2  0  0  0  0
  3 23  1  0  0  0  0
  4 24  1  0  0  0  0
  5 25  1  0  0  0  0
  6 26  1  0  0  0  0
  7 27  1  0  0  0  0
  7 28  1  0  0  0  0
  8 29  1  0  0  0  0
  8 30  1  0  0  0  0
  9 31  1  0  0  0  0
  9 32  1  0  0  0  0
 10 33  1  0  0  0  0
 10 34  1  0  0  0  0
 11 35  1  0  0  0  0
 11 36  1  0  0  0  0
 12 37  1  0  0  0  0
 13 38  1  0  0  0  0
 13 39  1  0  0  0  0
 14 40  1  0  0  0  0
 14 41  1  0  0  0  0
 16 42  1  0  0  0  0
 19 43  1  0  0  0  0
 19 44  1  0  0  0  0
 19 45  1  0  0  0  0
 20 46  1  0  0  0  0
 21 47  1  0  0  0  0
 22 48  1  0  0  0  0
M  END
>  <result-rank>
99

>  <similarity>
0.936

>  <query-name>
LIG_A_1101_CCC[C@H]([R*])C1CCC1_2

>  <query-smiles>
O=C(N[C@H](C1CCC1)CCC)[C@@H](NC(=O)C)Cc2ccc(O)cc2

>  <source>
REALspace_2019-12

>  <similarity-descriptor>
1.000;1.000;0.995;1.000;1.000;0.874;0.874;0.874;0.952;0.952;0.0;0.0;1.000;0.704;0.100

>  <similarity-descriptor-smiles>
C1CCCC1;c1ccccc1;O=C;N;C1CCCC1;C1CC1;C1CC1;C1CC1;NC;NC;;;C;O;C

>  <reaction-name>
s_512

>  <reagent1-name>
784460

>  <reagent1-smiles>
[R1*]C(=O)NCCc1cc(OC)ccc1

>  <reagent2-name>
13913670

>  <reagent2-smiles>
[R1*]NC1C(C2CC2)CCC1

$$$$
s_8____14591234____83777
          04022015093D 1   1.00000     0.00000     0
            
 54 55  0  0  0  0            999 V2000
    3.8538    0.3215    1.1365 S   0  0  0  0  0  0  0  0  0  0  0  0
    3.1982    1.6215    1.9129 C   0  0  0  0  0  0  0  0  0  0  0  0
    1.8487    1.8487    1.8487 N   0  0  0  0  0  0  0  0  0  0  0  0
    1.2494    2.9412    2.6286 C   0  0  0  0  0  0  0  0  0  0  0  0
    1.0673    2.4943    4.0693 C   0  0  0  0  0  0  0  0  0  0  0  0
   -0.1242    1.8791    4.4394 C   0  0  0  0  0  0  0  0  0  0  0  0
   -0.2885    1.4701    5.7582 C   0  0  0  0  0  0  0  0  0  0  0  0
   -1.4370    0.8723    6.1389 O   0  0  0  0  0  0  0  0  0  0  0  0
    0.7219    1.6733    6.6925 C   0  0  0  0  0  0  0  0  0  0  0  0
    1.9089    2.2909    6.3104 C   0  0  0  0  0  0  0  0  0  0  0  0
    2.0857    2.7036    4.9938 C   0  0  0  0  0  0  0  0  0  0  0  0
    1.0000    1.0000    1.0000 C   0  0  0  0  0  0  0  0  0  0  0  0
    0.7075    1.7208   -0.3059 C   0  0  0  0  0  0  0  0  0  0  0  0
   -0.1124    0.9010   -1.1257 O   0  0  0  0  0  0  0  0  0  0  0  0
   -0.3856    1.5744   -2.3456 C   0  0  0  0  0  0  0  0  0  0  0  0
   -1.6532    2.3997   -2.1959 C   0  0  0  0  0  0  0  0  0  0  0  0
    4.0034    2.4737    2.6216 N   0  0  0  0  0  0  0  0  0  0  0  0
    5.4577    2.2615    2.6452 C   0  0  3  0  0  0  0  0  0  0  0  0
    6.1759    3.6009    2.6168 C   0  0  3  0  0  0  0  0  0  0  0  0
    7.6806    3.3854    2.6402 C   0  0  0  0  0  0  0  0  0  0  0  0
    8.0778    2.6065    3.8838 C   0  0  0  0  0  0  0  0  0  0  0  0
    7.3599    1.2669    3.9122 C   0  0  0  0  0  0  0  0  0  0  0  0
    5.8551    1.4812    3.8878 C   0  0  0  0  0  0  0  0  0  0  0  0
    5.7853    4.3769    1.3697 C   0  0  0  0  0  0  0  0  0  0  0  0
    0.3601    3.1801    2.2387 H   0  0  0  0  0  0  0  0  0  0  0  0
    1.8509    3.7396    2.6007 H   0  0  0  0  0  0  0  0  0  0  0  0
   -0.8507    1.7334    3.7679 H   0  0  0  0  0  0  0  0  0  0  0  0
   -1.5569    0.5775    7.0869 H   0  0  0  0  0  0  0  0  0  0  0  0
    0.5953    1.3756    7.6387 H   0  0  0  0  0  0  0  0  0  0  0  0
    2.6348    2.4381    6.9823 H   0  0  0  0  0  0  0  0  0  0  0  0
    2.9374    3.1468    4.7142 H   0  0  0  0  0  0  0  0  0  0  0  0
    0.1409    0.8075    1.4742 H   0  0  0  0  0  0  0  0  0  0  0  0
    1.4742    0.1409    0.8075 H   0  0  0  0  0  0  0  0  0  0  0  0
    0.2333    2.5799   -0.1134 H   0  0  0  0  0  0  0  0  0  0  0  0
    1.5666    1.9133   -0.7801 H   0  0  0  0  0  0  0  0  0  0  0  0
   -0.5093    0.9031   -3.0765 H   0  0  0  0  0  0  0  0  0  0  0  0
    0.3796    2.1769   -2.5725 H   0  0  0  0  0  0  0  0  0  0  0  0
   -1.8457    2.8739   -3.0550 H   0  0  0  0  0  0  0  0  0  0  0  0
   -2.4184    1.7972   -1.9691 H   0  0  0  0  0  0  0  0  0  0  0  0
   -1.5296    3.0709   -1.4651 H   0  0  0  0  0  0  0  0  0  0  0  0
    3.6017    3.2401    3.1229 H   0  0  0  0  0  0  0  0  0  0  0  0
    5.7208    1.7364    1.8359 H   0  0  0  0  0  0  0  0  0  0  0  0
    5.9109    4.1286    3.4238 H   0  0  0  0  0  0  0  0  0  0  0  0
    8.1417    4.2728    2.6445 H   0  0  0  0  0  0  0  0  0  0  0  0
    7.9538    2.8717    1.8269 H   0  0  0  0  0  0  0  0  0  0  0  0
    7.8291    3.1325    4.6971 H   0  0  0  0  0  0  0  0  0  0  0  0
    9.0658    2.4522    3.8759 H   0  0  0  0  0  0  0  0  0  0  0  0
    7.6305    0.7294    3.1136 H   0  0  0  0  0  0  0  0  0  0  0  0
    7.6105    0.7747    4.7458 H   0  0  0  0  0  0  0  0  0  0  0  0
    5.3948    0.5935    3.8820 H   0  0  0  0  0  0  0  0  0  0  0  0
    5.5810    1.9936    4.7016 H   0  0  0  0  0  0  0  0  0  0  0  0
    6.2627    5.2555    1.3606 H   0  0  0  0  0  0  0  0  0  0  0  0
    6.0384    3.8516    0.5573 H   0  0  0  0  0  0  0  0  0  0  0  0
    4.7977    4.5341    1.3707 H   0  0  0  0  0  0  0  0  0  0  0  0
  1  2  2  0  0  0  0
  2  3  1  0  0  0  0
  3  4  1  0  0  0  0
  4  5  1  0  0  0  0
  5  6  1  0  0  0  0
  6  7  2  0  0  0  0
  7  8  1  0  0  0  0
  7  9  1  0  0  0  0
  9 10  2  0  0  0  0
 10 11  1  0  0  0  0
 11  5  2  0  0  0  0
  3 12  1  0  0  0  0
 12 13  1  0  0  0  0
 13 14  1  0  0  0  0
 14 15  1  0  0  0  0
 15 16  1  0  0  0  0
  2 17  1  0  0  0  0
 17 18  1  0  0  0  0
 18 19  1  0  0  0  0
 19 20  1  0  0  0  0
 20 21  1  0  0  0  0
 21 22  1  0  0  0  0
 22 23  1  0  0  0  0
 23 18  1  0  0  0  0
 19 24  1  0  0  0  0
  4 25  1  0  0  0  0
  4 26  1  0  0  0  0
  6 27  1  0  0  0  0
  8 28  1  0  0  0  0
  9 29  1  0  0  0  0
 10 30  1  0  0  0  0
 11 31  1  0  0  0  0
 12 32  1  0  0  0  0
 12 33  1  0  0  0  0
 13 34  1  0  0  0  0
 13 35  1  0  0  0  0
 15 36  1  0  0  0  0
 15 37  1  0  0  0  0
 16 38  1  0  0  0  0
 16 39  1  0  0  0  0
 16 40  1  0  0  0  0
 17 41  1  0  0  0  0
 18 42  1  0  0  0  0
 19 43  1  0  0  0  0
 20 44  1  0  0  0  0
 20 45  1  0  0  0  0
 21 46  1  0  0  0  0
 21 47  1  0  0  0  0
 22 48  1  0  0  0  0
 22 49  1  0  0  0  0
 23 50  1  0  0  0  0
 23 51  1  0  0  0  0
 24 52  1  0  0  0  0
 24 53  1  0  0  0  0
 24 54  1  0  0  0  0
M  END
>  <result-rank>
100

>  <similarity>
0.936

>  <query-name>
LIG_A_1101_CCC[C@H]([R*])C1CCC1_2

>  <query-smiles>
O=C(N[C@H](C1CCC1)CCC)[C@@H](NC(=O)C)Cc2ccc(O)cc2

>  <source>
REALspace_2019-12

>  <similarity-descriptor>
1.000;1.000;0.848;0.990;1.000;1.000;0.949;0.0;0.951;0.735;0.735;0.957;0.951;1.000;0.077

>  <similarity-descriptor-smiles>
C1CCCCC1;c1ccccc1;S=C;N;C1CCCCC1;C1CCCCC1;C;;N(C)C;CO;CO;C;N(C)C;O;C

>  <reaction-name>
s_8

>  <reagent1-name>
14591234

>  <reagent1-smiles>
[R1*]N(Cc1cc(O)ccc1)CCOCC

>  <reagent2-name>
83777

>  <reagent2-smiles>
[R1*]C(=S)NC1C(CCCC1)C

$$$$
