s_22____9044506____17513450
          04022015093D 1   1.00000     0.00000     0
            
 52 53  0  0  0  0            999 V2000
    0.4000    1.0000   -0.0392 O   0  0  0  0  0  0  0  0  0  0  0  0
    1.0000    1.0000    1.0000 C   0  0  0  0  0  0  0  0  0  0  0  0
    0.3150    1.0000    2.1865 N   0  0  0  0  0  0  0  0  0  0  0  0
   -1.1555    1.0000    2.1865 C   0  0  3  0  0  0  0  0  0  0  0  0
   -1.7202    2.2151    2.8880 C   0  0  3  0  0  0  0  0  0  0  0  0
   -1.6146    3.3688    1.9837 N   0  3  0  0  0  0  0  0  0  0  0  0
   -2.3767    3.1002    0.7557 C   0  0  0  0  0  0  0  0  0  0  0  0
   -2.1586    4.5626    2.6468 C   0  0  0  0  0  0  0  0  0  0  0  0
   -3.1727    1.8364    3.0912 C   0  0  0  0  0  0  0  0  0  0  0  0
   -3.1757    0.3277    3.2450 C   0  0  0  0  0  0  0  0  0  0  0  0
   -1.7301   -0.0958    3.0507 C   0  0  0  0  0  0  0  0  0  0  0  0
    2.5200    1.0000    1.0000 C   0  0  3  0  0  0  0  0  0  0  0  0
    3.0100    1.0000   -0.3859 N   0  0  0  0  0  0  0  0  0  0  0  0
    3.7976    2.0275   -0.8340 C   0  0  0  0  0  0  0  0  0  0  0  0
    4.0875    2.9275   -0.0951 O   0  0  0  0  0  0  0  0  0  0  0  0
    4.3043    2.0275   -2.2671 C   0  0  0  0  0  0  0  0  0  0  0  0
    3.0267   -0.2411    1.7165 C   0  0  0  0  0  0  0  0  0  0  0  0
    4.5467   -0.2411    1.7165 C   0  0  0  0  0  0  0  0  0  0  0  0
    5.2311    0.3644    2.7653 C   0  0  0  0  0  0  0  0  0  0  0  0
    6.6219    0.3662    2.7699 C   0  0  0  0  0  0  0  0  0  0  0  0
    7.3116   -0.2391    1.7241 C   0  0  0  0  0  0  0  0  0  0  0  0
    8.6614   -0.2393    1.7244 O   0  0  0  0  0  0  0  0  0  0  0  0
    6.6320   -0.8457    0.6727 C   0  0  0  0  0  0  0  0  0  0  0  0
    5.2412   -0.8449    0.6734 C   0  0  0  0  0  0  0  0  0  0  0  0
   -0.6541    3.5244    1.7526 H   0  0  0  0  0  0  0  0  0  0  0  0
    0.8150    1.0000    3.0525 H   0  0  0  0  0  0  0  0  0  0  0  0
   -1.5086    0.9353    1.2531 H   0  0  0  0  0  0  0  0  0  0  0  0
   -1.2585    2.3858    3.7585 H   0  0  0  0  0  0  0  0  0  0  0  0
   -2.3048    3.8852    0.1404 H   0  0  0  0  0  0  0  0  0  0  0  0
   -2.0065    2.2881    0.3046 H   0  0  0  0  0  0  0  0  0  0  0  0
   -3.3371    2.9446    0.9867 H   0  0  0  0  0  0  0  0  0  0  0  0
   -2.0868    5.3476    2.0315 H   0  0  0  0  0  0  0  0  0  0  0  0
   -3.1191    4.4070    2.8778 H   0  0  0  0  0  0  0  0  0  0  0  0
   -1.6402    4.7453    3.4822 H   0  0  0  0  0  0  0  0  0  0  0  0
   -3.7197    2.1088    2.2996 H   0  0  0  0  0  0  0  0  0  0  0  0
   -3.5366    2.2730    3.9140 H   0  0  0  0  0  0  0  0  0  0  0  0
   -3.7608   -0.0942    2.5524 H   0  0  0  0  0  0  0  0  0  0  0  0
   -3.4974    0.0688    4.1558 H   0  0  0  0  0  0  0  0  0  0  0  0
   -1.2518   -0.1476    3.9273 H   0  0  0  0  0  0  0  0  0  0  0  0
   -1.6760   -0.9810    2.5886 H   0  0  0  0  0  0  0  0  0  0  0  0
    2.8533    1.8165    1.4714 H   0  0  0  0  0  0  0  0  0  0  0  0
    2.7684    0.2500   -1.0017 H   0  0  0  0  0  0  0  0  0  0  0  0
    3.9710    1.2110   -2.7385 H   0  0  0  0  0  0  0  0  0  0  0  0
    3.9710    2.8440   -2.7385 H   0  0  0  0  0  0  0  0  0  0  0  0
    5.3043    2.0275   -2.2671 H   0  0  0  0  0  0  0  0  0  0  0  0
    2.6933   -0.2411    2.6593 H   0  0  0  0  0  0  0  0  0  0  0  0
    2.6933   -1.0576    1.2451 H   0  0  0  0  0  0  0  0  0  0  0  0
    4.7256    0.7963    3.5122 H   0  0  0  0  0  0  0  0  0  0  0  0
    7.1226    0.7993    3.5194 H   0  0  0  0  0  0  0  0  0  0  0  0
    9.1615   -0.6731    0.9749 H   0  0  0  0  0  0  0  0  0  0  0  0
    7.1374   -1.2771   -0.0746 H   0  0  0  0  0  0  0  0  0  0  0  0
    4.7405   -1.2783   -0.0759 H   0  0  0  0  0  0  0  0  0  0  0  0
  1  2  2  0  0  0  0
  2  3  1  0  0  0  0
  3  4  1  0  0  0  0
  4  5  1  0  0  0  0
  5  6  1  0  0  0  0
  6  7  1  0  0  0  0
  6  8  1  0  0  0  0
  5  9  1  0  0  0  0
  9 10  1  0  0  0  0
 10 11  1  0  0  0  0
 11  4  1  0  0  0  0
  2 12  1  0  0  0  0
 12 13  1  0  0  0  0
 13 14  1  0  0  0  0
 14 15  2  0  0  0  0
 14 16  1  0  0  0  0
 12 17  1  0  0  0  0
 17 18  1  0  0  0  0
 18 19  1  0  0  0  0
 19 20  2  0  0  0  0
 20 21  1  0  0  0  0
 21 22  1  0  0  0  0
 21 23  2  0  0  0  0
 23 24  1  0  0  0  0
 24 18  2  0  0  0  0
  6 25  1  0  0  0  0
  3 26  1  0  0  0  0
  4 27  1  0  0  0  0
  5 28  1  0  0  0  0
  7 29  1  0  0  0  0
  7 30  1  0  0  0  0
  7 31  1  0  0  0  0
  8 32  1  0  0  0  0
  8 33  1  0  0  0  0
  8 34  1  0  0  0  0
  9 35  1  0  0  0  0
  9 36  1  0  0  0  0
 10 37  1  0  0  0  0
 10 38  1  0  0  0  0
 11 39  1  0  0  0  0
 11 40  1  0  0  0  0
 12 41  1  0  0  0  0
 13 42  1  0  0  0  0
 16 43  1  0  0  0  0
 16 44  1  0  0  0  0
 16 45  1  0  0  0  0
 17 46  1  0  0  0  0
 17 47  1  0  0  0  0
 19 48  1  0  0  0  0
 20 49  1  0  0  0  0
 22 50  1  0  0  0  0
 23 51  1  0  0  0  0
 24 52  1  0  0  0  0
M  CHG  1   6   1
M  END
>  <result-rank>
1

>  <similarity>
1.000

>  <query-name>
LIG_A_1101_C[NH+](C)[C@H]([R*])C1CCC1_2

>  <query-smiles>
O=C(N[C@@H]([NH+](C)C)C1CCC1)[C@@H](NC(=O)C)Cc2ccc(O)cc2

>  <source>
REALspace_2019-12

>  <similarity-descriptor>
1.000;1.000;1.000;1.000;1.000;1.000;1.000;1.000;1.000;1.000;1.000;1.000;1.000;1.000;0.0

>  <similarity-descriptor-smiles>
C1CCCC1;c1ccccc1;O=C;N;C1CCCC1;[NH+];C;C;C;N;C=O;C;C;O;

>  <reaction-name>
s_22

>  <reagent1-name>
9044506

>  <reagent1-smiles>
[R1*]NC1C(N(C)C)CCC1

>  <reagent2-name>
17513450

>  <reagent2-smiles>
[R1*]C(=O)C(NC(=O)C)Cc1ccc(O)cc1

$$$$
s_22____15425608____17513450
          04022015093D 1   1.00000     0.00000     0
            
 56 58  0  0  0  0            999 V2000
    3.0596    1.6786    1.9338 O   0  0  0  0  0  0  0  0  0  0  0  0
    1.8776    1.8776    1.8776 C   0  0  0  0  0  0  0  0  0  0  0  0
    1.3190    2.8957    2.6044 N   0  0  0  0  0  0  0  0  0  0  0  0
    2.1691    3.7458    3.4545 C   0  0  3  0  0  0  0  0  0  0  0  0
    1.7487    3.6723    4.9114 C   0  0  0  0  0  0  0  0  0  0  0  0
    1.4341    5.0649    5.2645 N   0  3  3  0  0  0  0  0  0  0  0  0
    2.1983    5.9596    4.3833 C   0  0  0  0  0  0  0  0  0  0  0  0
    2.0272    5.2058    3.0684 C   0  0  0  0  0  0  0  0  0  0  0  0
    3.6317    6.2365    4.8096 C   0  0  0  0  0  0  0  0  0  0  0  0
    4.0999    7.4817    4.0767 C   0  0  0  0  0  0  0  0  0  0  0  0
    2.8258    8.2259    3.7434 C   0  0  0  0  0  0  0  0  0  0  0  0
    1.6958    7.3974    4.3230 C   0  0  0  0  0  0  0  0  0  0  0  0
    1.7344    5.2500    6.6951 C   0  0  0  0  0  0  0  0  0  0  0  0
    1.0000    1.0000    1.0000 C   0  0  3  0  0  0  0  0  0  0  0  0
   -0.2629    0.7171    1.6971 N   0  0  0  0  0  0  0  0  0  0  0  0
   -0.6150   -0.5766    1.9787 C   0  0  0  0  0  0  0  0  0  0  0  0
    0.1075   -1.4788    1.6563 O   0  0  0  0  0  0  0  0  0  0  0  0
   -1.9209   -0.8691    2.6995 C   0  0  0  0  0  0  0  0  0  0  0  0
    0.7075    1.7208   -0.3059 C   0  0  0  0  0  0  0  0  0  0  0  0
   -0.1701    0.8432   -1.1835 C   0  0  0  0  0  0  0  0  0  0  0  0
   -1.5540    0.9425   -1.0842 C   0  0  0  0  0  0  0  0  0  0  0  0
   -2.3610    0.1420   -1.8857 C   0  0  0  0  0  0  0  0  0  0  0  0
   -1.7726   -0.7486   -2.7781 C   0  0  0  0  0  0  0  0  0  0  0  0
   -2.5520   -1.5276   -3.5577 O   0  0  0  0  0  0  0  0  0  0  0  0
   -0.3891   -0.8520   -2.8811 C   0  0  0  0  0  0  0  0  0  0  0  0
    0.4131   -0.0489   -2.0774 C   0  0  0  0  0  0  0  0  0  0  0  0
    0.4578    5.2227    5.1165 H   0  0  0  0  0  0  0  0  0  0  0  0
    0.3340    3.0616    2.5576 H   0  0  0  0  0  0  0  0  0  0  0  0
    3.1245    3.4645    3.3645 H   0  0  0  0  0  0  0  0  0  0  0  0
    0.9443    3.0882    5.0198 H   0  0  0  0  0  0  0  0  0  0  0  0
    2.4940    3.3220    5.4787 H   0  0  0  0  0  0  0  0  0  0  0  0
    2.7354    5.4699    2.4136 H   0  0  0  0  0  0  0  0  0  0  0  0
    1.1256    5.3821    2.6734 H   0  0  0  0  0  0  0  0  0  0  0  0
    4.2145    5.4604    4.5689 H   0  0  0  0  0  0  0  0  0  0  0  0
    3.6698    6.3883    5.7973 H   0  0  0  0  0  0  0  0  0  0  0  0
    4.5944    7.2362    3.2429 H   0  0  0  0  0  0  0  0  0  0  0  0
    4.6901    8.0363    4.6633 H   0  0  0  0  0  0  0  0  0  0  0  0
    2.8368    9.1365    4.1566 H   0  0  0  0  0  0  0  0  0  0  0  0
    2.7219    8.3108    2.7524 H   0  0  0  0  0  0  0  0  0  0  0  0
    1.4657    7.7214    5.2407 H   0  0  0  0  0  0  0  0  0  0  0  0
    0.8882    7.4565    3.7363 H   0  0  0  0  0  0  0  0  0  0  0  0
    1.1839    4.6143    7.2363 H   0  0  0  0  0  0  0  0  0  0  0  0
    2.7050    5.0723    6.8577 H   0  0  0  0  0  0  0  0  0  0  0  0
    1.5182    6.1891    6.9623 H   0  0  0  0  0  0  0  0  0  0  0  0
    1.4742    0.1409    0.8075 H   0  0  0  0  0  0  0  0  0  0  0  0
   -0.8650    1.4689    1.9658 H   0  0  0  0  0  0  0  0  0  0  0  0
   -2.3951   -0.0100    2.8919 H   0  0  0  0  0  0  0  0  0  0  0  0
   -2.4982   -1.4465    2.1221 H   0  0  0  0  0  0  0  0  0  0  0  0
   -1.7284   -1.3433    3.5586 H   0  0  0  0  0  0  0  0  0  0  0  0
    0.2333    2.5799   -0.1134 H   0  0  0  0  0  0  0  0  0  0  0  0
    1.5666    1.9133   -0.7801 H   0  0  0  0  0  0  0  0  0  0  0  0
   -1.9667    1.5862   -0.4397 H   0  0  0  0  0  0  0  0  0  0  0  0
   -3.3569    0.2061   -1.8211 H   0  0  0  0  0  0  0  0  0  0  0  0
   -2.1337   -2.1692   -4.2005 H   0  0  0  0  0  0  0  0  0  0  0  0
    0.0237   -1.4961   -3.5251 H   0  0  0  0  0  0  0  0  0  0  0  0
    1.4089   -0.1127   -2.1423 H   0  0  0  0  0  0  0  0  0  0  0  0
  1  2  2  0  0  0  0
  2  3  1  0  0  0  0
  3  4  1  0  0  0  0
  4  5  1  0  0  0  0
  5  6  1  0  0  0  0
  6  7  1  0  0  0  0
  7  8  1  0  0  0  0
  8  4  1  0  0  0  0
  7  9  1  0  0  0  0
  9 10  1  0  0  0  0
 10 11  1  0  0  0  0
 11 12  1  0  0  0  0
 12  7  1  0  0  0  0
  6 13  1  0  0  0  0
  2 14  1  0  0  0  0
 14 15  1  0  0  0  0
 15 16  1  0  0  0  0
 16 17  2  0  0  0  0
 16 18  1  0  0  0  0
 14 19  1  0  0  0  0
 19 20  1  0  0  0  0
 20 21  1  0  0  0  0
 21 22  2  0  0  0  0
 22 23  1  0  0  0  0
 23 24  1  0  0  0  0
 23 25  2  0  0  0  0
 25 26  1  0  0  0  0
 26 20  2  0  0  0  0
  6 27  1  0  0  0  0
  3 28  1  0  0  0  0
  4 29  1  0  0  0  0
  5 30  1  0  0  0  0
  5 31  1  0  0  0  0
  8 32  1  0  0  0  0
  8 33  1  0  0  0  0
  9 34  1  0  0  0  0
  9 35  1  0  0  0  0
 10 36  1  0  0  0  0
 10 37  1  0  0  0  0
 11 38  1  0  0  0  0
 11 39  1  0  0  0  0
 12 40  1  0  0  0  0
 12 41  1  0  0  0  0
 13 42  1  0  0  0  0
 13 43  1  0  0  0  0
 13 44  1  0  0  0  0
 14 45  1  0  0  0  0
 15 46  1  0  0  0  0
 18 47  1  0  0  0  0
 18 48  1  0  0  0  0
 18 49  1  0  0  0  0
 19 50  1  0  0  0  0
 19 51  1  0  0  0  0
 21 52  1  0  0  0  0
 22 53  1  0  0  0  0
 24 54  1  0  0  0  0
 25 55  1  0  0  0  0
 26 56  1  0  0  0  0
M  CHG  1   6   1
M  END
>  <result-rank>
2

>  <similarity>
0.969

>  <query-name>
LIG_A_1101_C[NH+](C)[C@H]([R*])C1CCC1_2

>  <query-smiles>
O=C(N[C@@H]([NH+](C)C)C1CCC1)[C@@H](NC(=O)C)Cc2ccc(O)cc2

>  <source>
REALspace_2019-12

>  <similarity-descriptor>
0.979;1.000;1.000;1.000;0.878;0.878;0.878;0.878;1.000;1.000;1.000;1.000;1.000;1.000;0.083

>  <similarity-descriptor-smiles>
C1CCCC1;c1ccccc1;O=C;N;C1CC[NH+]C1;C1CC[NH+]C1;C1CC[NH+]C1;C1CC[NH+]C1;C;N;C=O;C;C;O;C

>  <reaction-name>
s_22

>  <reagent1-name>
15425608

>  <reagent1-smiles>
[R1*]NC1CN(C2(C1)CCCC2)C

>  <reagent2-name>
17513450

>  <reagent2-smiles>
[R1*]C(=O)C(NC(=O)C)Cc1ccc(O)cc1

$$$$
s_240690a____16508828____17513472
          04022015093D 1   1.00000     0.00000     0
            
 50 51  0  0  0  0            999 V2000
    0.4000   -0.0392    1.0000 O   0  0  0  0  0  0  0  0  0  0  0  0
    1.0000    1.0000    1.0000 C   0  0  0  0  0  0  0  0  0  0  0  0
    2.3700    1.0000    1.0000 N   0  0  0  0  0  0  0  0  0  0  0  0
    3.1050   -0.2731    1.0000 C   0  0  0  0  0  0  0  0  0  0  0  0
    4.6039    0.0055    1.0000 C   0  0  0  0  0  0  0  0  0  0  0  0
    5.0095    0.7486   -0.1371 O   0  0  0  0  0  0  0  0  0  0  0  0
    5.1722    0.5653    2.2916 C   0  0  0  0  0  0  0  0  0  0  0  0
    5.3585   -0.8718    2.7399 C   0  0  3  0  0  0  0  0  0  0  0  0
    6.6563   -1.0600    3.5100 C   0  0  0  0  0  0  0  0  0  0  0  0
    6.7842   -2.4664    3.9184 N   0  3  0  0  0  0  0  0  0  0  0  0
    5.4878   -1.1945    1.2651 C   0  0  0  0  0  0  0  0  0  0  0  0
    0.2400    2.3164    1.0000 C   0  0  3  0  0  0  0  0  0  0  0  0
   -1.2052    2.0477    1.0000 N   0  0  0  0  0  0  0  0  0  0  0  0
   -1.9871    2.5058    2.0275 C   0  0  0  0  0  0  0  0  0  0  0  0
   -1.4922    3.1263    2.9275 O   0  0  0  0  0  0  0  0  0  0  0  0
   -3.4815    2.2281    2.0275 C   0  0  0  0  0  0  0  0  0  0  0  0
    0.6072    3.1134   -0.2411 C   0  0  0  0  0  0  0  0  0  0  0  0
   -0.1528    4.4298   -0.2411 C   0  0  0  0  0  0  0  0  0  0  0  0
    0.4132    5.5469    0.3644 C   0  0  0  0  0  0  0  0  0  0  0  0
   -0.2782    6.7537    0.3662 C   0  0  0  0  0  0  0  0  0  0  0  0
   -1.5287    6.8280   -0.2391 C   0  0  0  0  0  0  0  0  0  0  0  0
   -2.2034    7.9972   -0.2393 O   0  0  0  0  0  0  0  0  0  0  0  0
   -2.0995    5.7138   -0.8457 C   0  0  0  0  0  0  0  0  0  0  0  0
   -1.4035    4.5097   -0.8449 C   0  0  0  0  0  0  0  0  0  0  0  0
    7.6376   -2.5901    4.4247 H   0  0  0  0  0  0  0  0  0  0  0  0
    6.0113   -2.7157    4.5018 H   0  0  0  0  0  0  0  0  0  0  0  0
    6.7908   -3.0500    3.1063 H   0  0  0  0  0  0  0  0  0  0  0  0
    2.8700    1.8660    1.0000 H   0  0  0  0  0  0  0  0  0  0  0  0
    2.8634   -0.7974    0.1835 H   0  0  0  0  0  0  0  0  0  0  0  0
    2.8634   -0.7974    1.8165 H   0  0  0  0  0  0  0  0  0  0  0  0
    5.9958    0.9082   -0.0966 H   0  0  0  0  0  0  0  0  0  0  0  0
    4.5242    1.0942    2.8396 H   0  0  0  0  0  0  0  0  0  0  0  0
    6.0205    1.0841    2.1856 H   0  0  0  0  0  0  0  0  0  0  0  0
    4.5558   -1.2733    3.1808 H   0  0  0  0  0  0  0  0  0  0  0  0
    7.4292   -0.8107    2.9266 H   0  0  0  0  0  0  0  0  0  0  0  0
    6.6497   -0.4764    4.3220 H   0  0  0  0  0  0  0  0  0  0  0  0
    6.4158   -1.1188    0.9005 H   0  0  0  0  0  0  0  0  0  0  0  0
    5.0934   -2.0723    0.9932 H   0  0  0  0  0  0  0  0  0  0  0  0
    0.4816    2.8407    1.8165 H   0  0  0  0  0  0  0  0  0  0  0  0
   -1.6177    1.5307    0.2500 H   0  0  0  0  0  0  0  0  0  0  0  0
   -3.7231    1.7037    1.2110 H   0  0  0  0  0  0  0  0  0  0  0  0
   -3.7231    1.7037    2.8440 H   0  0  0  0  0  0  0  0  0  0  0  0
   -3.9815    3.0941    2.0275 H   0  0  0  0  0  0  0  0  0  0  0  0
    1.5904    3.2961   -0.2411 H   0  0  0  0  0  0  0  0  0  0  0  0
    0.3656    2.5890   -1.0576 H   0  0  0  0  0  0  0  0  0  0  0  0
    1.3129    5.4826    0.7963 H   0  0  0  0  0  0  0  0  0  0  0  0
    0.1206    7.5620    0.7993 H   0  0  0  0  0  0  0  0  0  0  0  0
   -3.1025    8.0555   -0.6731 H   0  0  0  0  0  0  0  0  0  0  0  0
   -2.9994    5.7778   -1.2771 H   0  0  0  0  0  0  0  0  0  0  0  0
   -1.8020    3.7014   -1.2783 H   0  0  0  0  0  0  0  0  0  0  0  0
  1  2  2  0  0  0  0
  2  3  1  0  0  0  0
  3  4  1  0  0  0  0
  4  5  1  0  0  0  0
  5  6  1  0  0  0  0
  5  7  1  0  0  0  0
  7  8  1  0  0  0  0
  8  9  1  0  0  0  0
  9 10  1  0  0  0  0
  8 11  1  0  0  0  0
 11  5  1  0  0  0  0
  2 12  1  0  0  0  0
 12 13  1  0  0  0  0
 13 14  1  0  0  0  0
 14 15  2  0  0  0  0
 14 16  1  0  0  0  0
 12 17  1  0  0  0  0
 17 18  1  0  0  0  0
 18 19  1  0  0  0  0
 19 20  2  0  0  0  0
 20 21  1  0  0  0  0
 21 22  1  0  0  0  0
 21 23  2  0  0  0  0
 23 24  1  0  0  0  0
 24 18  2  0  0  0  0
 10 25  1  0  0  0  0
 10 26  1  0  0  0  0
 10 27  1  0  0  0  0
  3 28  1  0  0  0  0
  4 29  1  0  0  0  0
  4 30  1  0  0  0  0
  6 31  1  0  0  0  0
  7 32  1  0  0  0  0
  7 33  1  0  0  0  0
  8 34  1  0  0  0  0
  9 35  1  0  0  0  0
  9 36  1  0  0  0  0
 11 37  1  0  0  0  0
 11 38  1  0  0  0  0
 12 39  1  0  0  0  0
 13 40  1  0  0  0  0
 16 41  1  0  0  0  0
 16 42  1  0  0  0  0
 16 43  1  0  0  0  0
 17 44  1  0  0  0  0
 17 45  1  0  0  0  0
 19 46  1  0  0  0  0
 20 47  1  0  0  0  0
 22 48  1  0  0  0  0
 23 49  1  0  0  0  0
 24 50  1  0  0  0  0
M  CHG  1  10   1
M  END
>  <result-rank>
3

>  <similarity>
0.961

>  <query-name>
LIG_A_1101_C[NH+](C)[C@H]([R*])C1CCC1_2

>  <query-smiles>
O=C(N[C@@H]([NH+](C)C)C1CCC1)[C@@H](NC(=O)C)Cc2ccc(O)cc2

>  <source>
REALspace_2019-12

>  <similarity-descriptor>
0.986;1.000;1.000;1.000;0.942;0.0;0.0;0.0;1.000;1.000;1.000;1.000;1.000;1.000;0.143

>  <similarity-descriptor-smiles>
C1CC(C1)C;c1ccccc1;O=C;N;C;;;;C;N;C=O;C;C;O;O.[NH3+]

>  <reaction-name>
s_240690a

>  <reagent1-name>
16508828

>  <reagent1-smiles>
[R1*]NCC1(O)CC(CN)C1

>  <reagent2-name>
17513472

>  <reagent2-smiles>
[R1*]C(=O)C(NC(=O)C)Cc1ccc(O)cc1

$$$$
s_22____10547740____17513450
          04022015093D 1   1.00000     0.00000     0
            
 47 48  0  0  0  0            999 V2000
    0.4000   -0.0392    1.0000 O   0  0  0  0  0  0  0  0  0  0  0  0
    1.0000    1.0000    1.0000 C   0  0  0  0  0  0  0  0  0  0  0  0
    2.3700    1.0000    1.0000 N   0  0  0  0  0  0  0  0  0  0  0  0
    3.1050   -0.2731    1.0000 C   0  0  0  0  0  0  0  0  0  0  0  0
    3.1428   -0.8363   -0.4113 C   0  0  3  0  0  0  0  0  0  0  0  0
    3.7943    0.0864   -1.2719 O   0  0  0  0  0  0  0  0  0  0  0  0
    3.8297   -0.4397   -2.5903 C   0  0  0  0  0  0  0  0  0  0  0  0
    3.9031   -2.1532   -0.4113 C   0  0  0  0  0  0  0  0  0  0  0  0
    3.2422   -3.1553    0.4894 C   0  0  0  0  0  0  0  0  0  0  0  0
    4.5037   -2.4687    0.9284 C   0  0  0  0  0  0  0  0  0  0  0  0
    0.2400    2.3164    1.0000 C   0  0  3  0  0  0  0  0  0  0  0  0
   -1.2052    2.0477    1.0000 N   0  0  0  0  0  0  0  0  0  0  0  0
   -1.9871    2.5058    2.0275 C   0  0  0  0  0  0  0  0  0  0  0  0
   -1.4922    3.1263    2.9275 O   0  0  0  0  0  0  0  0  0  0  0  0
   -3.4815    2.2281    2.0275 C   0  0  0  0  0  0  0  0  0  0  0  0
    0.6072    3.1134   -0.2411 C   0  0  0  0  0  0  0  0  0  0  0  0
   -0.1528    4.4298   -0.2411 C   0  0  0  0  0  0  0  0  0  0  0  0
    0.4132    5.5469    0.3644 C   0  0  0  0  0  0  0  0  0  0  0  0
   -0.2782    6.7537    0.3662 C   0  0  0  0  0  0  0  0  0  0  0  0
   -1.5287    6.8280   -0.2391 C   0  0  0  0  0  0  0  0  0  0  0  0
   -2.2034    7.9972   -0.2393 O   0  0  0  0  0  0  0  0  0  0  0  0
   -2.0995    5.7138   -0.8457 C   0  0  0  0  0  0  0  0  0  0  0  0
   -1.4035    4.5097   -0.8449 C   0  0  0  0  0  0  0  0  0  0  0  0
    2.8700    1.8660    1.0000 H   0  0  0  0  0  0  0  0  0  0  0  0
    2.6462   -0.9228    1.6060 H   0  0  0  0  0  0  0  0  0  0  0  0
    4.0389   -0.1188    1.3225 H   0  0  0  0  0  0  0  0  0  0  0  0
    2.2089   -0.9906   -0.7338 H   0  0  0  0  0  0  0  0  0  0  0  0
    4.2885    0.2101   -3.1963 H   0  0  0  0  0  0  0  0  0  0  0  0
    4.3297   -1.3057   -2.5903 H   0  0  0  0  0  0  0  0  0  0  0  0
    2.8957   -0.5940   -2.9128 H   0  0  0  0  0  0  0  0  0  0  0  0
    4.3609   -2.4617   -1.2452 H   0  0  0  0  0  0  0  0  0  0  0  0
    3.2580   -4.1269    0.2531 H   0  0  0  0  0  0  0  0  0  0  0  0
    2.3728   -2.9338    0.9310 H   0  0  0  0  0  0  0  0  0  0  0  0
    4.4743   -1.7898    1.6620 H   0  0  0  0  0  0  0  0  0  0  0  0
    5.3595   -2.9829    0.9841 H   0  0  0  0  0  0  0  0  0  0  0  0
    0.4816    2.8407    1.8165 H   0  0  0  0  0  0  0  0  0  0  0  0
   -1.6177    1.5307    0.2500 H   0  0  0  0  0  0  0  0  0  0  0  0
   -3.7231    1.7037    1.2110 H   0  0  0  0  0  0  0  0  0  0  0  0
   -3.7231    1.7037    2.8440 H   0  0  0  0  0  0  0  0  0  0  0  0
   -3.9815    3.0941    2.0275 H   0  0  0  0  0  0  0  0  0  0  0  0
    1.5904    3.2961   -0.2411 H   0  0  0  0  0  0  0  0  0  0  0  0
    0.3656    2.5890   -1.0576 H   0  0  0  0  0  0  0  0  0  0  0  0
    1.3129    5.4826    0.7963 H   0  0  0  0  0  0  0  0  0  0  0  0
    0.1206    7.5620    0.7993 H   0  0  0  0  0  0  0  0  0  0  0  0
   -3.1025    8.0555   -0.6731 H   0  0  0  0  0  0  0  0  0  0  0  0
   -2.9994    5.7778   -1.2771 H   0  0  0  0  0  0  0  0  0  0  0  0
   -1.8020    3.7014   -1.2783 H   0  0  0  0  0  0  0  0  0  0  0  0
  1  2  2  0  0  0  0
  2  3  1  0  0  0  0
  3  4  1  0  0  0  0
  4  5  1  0  0  0  0
  5  6  1  0  0  0  0
  6  7  1  0  0  0  0
  5  8  1  0  0  0  0
  8  9  1  0  0  0  0
  9 10  1  0  0  0  0
 10  8  1  0  0  0  0
  2 11  1  0  0  0  0
 11 12  1  0  0  0  0
 12 13  1  0  0  0  0
 13 14  2  0  0  0  0
 13 15  1  0  0  0  0
 11 16  1  0  0  0  0
 16 17  1  0  0  0  0
 17 18  1  0  0  0  0
 18 19  2  0  0  0  0
 19 20  1  0  0  0  0
 20 21  1  0  0  0  0
 20 22  2  0  0  0  0
 22 23  1  0  0  0  0
 23 17  2  0  0  0  0
  3 24  1  0  0  0  0
  4 25  1  0  0  0  0
  4 26  1  0  0  0  0
  5 27  1  0  0  0  0
  7 28  1  0  0  0  0
  7 29  1  0  0  0  0
  7 30  1  0  0  0  0
  8 31  1  0  0  0  0
  9 32  1  0  0  0  0
  9 33  1  0  0  0  0
 10 34  1  0  0  0  0
 10 35  1  0  0  0  0
 11 36  1  0  0  0  0
 12 37  1  0  0  0  0
 15 38  1  0  0  0  0
 15 39  1  0  0  0  0
 15 40  1  0  0  0  0
 16 41  1  0  0  0  0
 16 42  1  0  0  0  0
 18 43  1  0  0  0  0
 19 44  1  0  0  0  0
 21 45  1  0  0  0  0
 22 46  1  0  0  0  0
 23 47  1  0  0  0  0
M  END
>  <result-rank>
4

>  <similarity>
0.960

>  <query-name>
LIG_A_1101_C[NH+](C)[C@H]([R*])C1CCC1_2

>  <query-smiles>
O=C(N[C@@H]([NH+](C)C)C1CCC1)[C@@H](NC(=O)C)Cc2ccc(O)cc2

>  <source>
REALspace_2019-12

>  <similarity-descriptor>
0.985;1.000;1.000;1.000;0.942;0.0;0.0;0.0;1.000;1.000;1.000;1.000;1.000;1.000;0.143

>  <similarity-descriptor-smiles>
CC1CC1;c1ccccc1;O=C;N;C;;;;C;N;C=O;C;C;O;O.C

>  <reaction-name>
s_22

>  <reagent1-name>
10547740

>  <reagent1-smiles>
[R1*]NCC(OC)C1CC1

>  <reagent2-name>
17513450

>  <reagent2-smiles>
[R1*]C(=O)C(NC(=O)C)Cc1ccc(O)cc1

$$$$
s_22____9609722____17513450
          04022015093D 1   1.00000     0.00000     0
            
 52 53  0  0  0  0            999 V2000
    0.4000    1.0000   -0.0392 O   0  0  0  0  0  0  0  0  0  0  0  0
    1.0000    1.0000    1.0000 C   0  0  0  0  0  0  0  0  0  0  0  0
    0.3150    1.0000    2.1865 N   0  0  0  0  0  0  0  0  0  0  0  0
   -1.1550    1.0000    2.1865 C   0  0  0  0  0  0  0  0  0  0  0  0
   -1.6622    2.4128    1.9373 C   0  0  0  0  0  0  0  0  0  0  0  0
   -3.1626    2.5014    1.9217 C   0  0  0  0  0  0  0  0  0  0  0  0
   -2.3943    2.9679    3.1191 C   0  0  0  0  0  0  0  0  0  0  0  0
   -2.2498    4.4712    3.2998 C   0  0  0  0  0  0  0  0  0  0  0  0
   -2.4867    2.0948    4.3606 C   0  0  0  0  0  0  0  0  0  0  0  0
   -3.7296    3.5791    1.0114 C   0  0  0  0  0  0  0  0  0  0  0  0
   -3.9471    1.2097    2.0962 C   0  0  0  0  0  0  0  0  0  0  0  0
    2.5200    1.0000    1.0000 C   0  0  3  0  0  0  0  0  0  0  0  0
    3.0100    1.0000   -0.3859 N   0  0  0  0  0  0  0  0  0  0  0  0
    3.7976    2.0275   -0.8340 C   0  0  0  0  0  0  0  0  0  0  0  0
    4.0875    2.9275   -0.0951 O   0  0  0  0  0  0  0  0  0  0  0  0
    4.3043    2.0275   -2.2671 C   0  0  0  0  0  0  0  0  0  0  0  0
    3.0267   -0.2411    1.7165 C   0  0  0  0  0  0  0  0  0  0  0  0
    4.5467   -0.2411    1.7165 C   0  0  0  0  0  0  0  0  0  0  0  0
    5.2311    0.3644    2.7653 C   0  0  0  0  0  0  0  0  0  0  0  0
    6.6219    0.3662    2.7699 C   0  0  0  0  0  0  0  0  0  0  0  0
    7.3116   -0.2391    1.7241 C   0  0  0  0  0  0  0  0  0  0  0  0
    8.6614   -0.2393    1.7244 O   0  0  0  0  0  0  0  0  0  0  0  0
    6.6320   -0.8457    0.6727 C   0  0  0  0  0  0  0  0  0  0  0  0
    5.2412   -0.8449    0.6734 C   0  0  0  0  0  0  0  0  0  0  0  0
    0.8150    1.0000    3.0525 H   0  0  0  0  0  0  0  0  0  0  0  0
   -1.4883    0.6775    3.0724 H   0  0  0  0  0  0  0  0  0  0  0  0
   -1.4883    0.3940    1.4642 H   0  0  0  0  0  0  0  0  0  0  0  0
   -1.1293    3.0293    1.3577 H   0  0  0  0  0  0  0  0  0  0  0  0
   -1.7212    4.6581    4.1278 H   0  0  0  0  0  0  0  0  0  0  0  0
   -1.7771    4.8582    2.5081 H   0  0  0  0  0  0  0  0  0  0  0  0
   -3.1561    4.8857    3.3823 H   0  0  0  0  0  0  0  0  0  0  0  0
   -1.9390    2.4984    5.0935 H   0  0  0  0  0  0  0  0  0  0  0  0
   -3.4408    2.0317    4.6535 H   0  0  0  0  0  0  0  0  0  0  0  0
   -2.1411    1.1801    4.1513 H   0  0  0  0  0  0  0  0  0  0  0  0
   -4.2186    3.1504    0.2517 H   0  0  0  0  0  0  0  0  0  0  0  0
   -4.3601    4.1561    1.5305 H   0  0  0  0  0  0  0  0  0  0  0  0
   -2.9829    4.1396    0.6532 H   0  0  0  0  0  0  0  0  0  0  0  0
   -4.4205    0.9894    1.2434 H   0  0  0  0  0  0  0  0  0  0  0  0
   -3.3192    0.4674    2.3303 H   0  0  0  0  0  0  0  0  0  0  0  0
   -4.6172    1.3232    2.8298 H   0  0  0  0  0  0  0  0  0  0  0  0
    2.8533    1.8165    1.4714 H   0  0  0  0  0  0  0  0  0  0  0  0
    2.7684    0.2500   -1.0017 H   0  0  0  0  0  0  0  0  0  0  0  0
    3.9710    1.2110   -2.7385 H   0  0  0  0  0  0  0  0  0  0  0  0
    3.9710    2.8440   -2.7385 H   0  0  0  0  0  0  0  0  0  0  0  0
    5.3043    2.0275   -2.2671 H   0  0  0  0  0  0  0  0  0  0  0  0
    2.6933   -0.2411    2.6593 H   0  0  0  0  0  0  0  0  0  0  0  0
    2.6933   -1.0576    1.2451 H   0  0  0  0  0  0  0  0  0  0  0  0
    4.7256    0.7963    3.5122 H   0  0  0  0  0  0  0  0  0  0  0  0
    7.1226    0.7993    3.5194 H   0  0  0  0  0  0  0  0  0  0  0  0
    9.1615   -0.6731    0.9749 H   0  0  0  0  0  0  0  0  0  0  0  0
    7.1374   -1.2771   -0.0746 H   0  0  0  0  0  0  0  0  0  0  0  0
    4.7405   -1.2783   -0.0759 H   0  0  0  0  0  0  0  0  0  0  0  0
  1  2  2  0  0  0  0
  2  3  1  0  0  0  0
  3  4  1  0  0  0  0
  4  5  1  0  0  0  0
  5  6  1  0  0  0  0
  6  7  1  0  0  0  0
  7  5  1  0  0  0  0
  7  8  1  0  0  0  0
  7  9  1  0  0  0  0
  6 10  1  0  0  0  0
  6 11  1  0  0  0  0
  2 12  1  0  0  0  0
 12 13  1  0  0  0  0
 13 14  1  0  0  0  0
 14 15  2  0  0  0  0
 14 16  1  0  0  0  0
 12 17  1  0  0  0  0
 17 18  1  0  0  0  0
 18 19  1  0  0  0  0
 19 20  2  0  0  0  0
 20 21  1  0  0  0  0
 21 22  1  0  0  0  0
 21 23  2  0  0  0  0
 23 24  1  0  0  0  0
 24 18  2  0  0  0  0
  3 25  1  0  0  0  0
  4 26  1  0  0  0  0
  4 27  1  0  0  0  0
  5 28  1  0  0  0  0
  8 29  1  0  0  0  0
  8 30  1  0  0  0  0
  8 31  1  0  0  0  0
  9 32  1  0  0  0  0
  9 33  1  0  0  0  0
  9 34  1  0  0  0  0
 10 35  1  0  0  0  0
 10 36  1  0  0  0  0
 10 37  1  0  0  0  0
 11 38  1  0  0  0  0
 11 39  1  0  0  0  0
 11 40  1  0  0  0  0
 12 41  1  0  0  0  0
 13 42  1  0  0  0  0
 16 43  1  0  0  0  0
 16 44  1  0  0  0  0
 16 45  1  0  0  0  0
 17 46  1  0  0  0  0
 17 47  1  0  0  0  0
 19 48  1  0  0  0  0
 20 49  1  0  0  0  0
 22 50  1  0  0  0  0
 23 51  1  0  0  0  0
 24 52  1  0  0  0  0
M  END
>  <result-rank>
5

>  <similarity>
0.958

>  <query-name>
LIG_A_1101_C[NH+](C)[C@H]([R*])C1CCC1_2

>  <query-smiles>
O=C(N[C@@H]([NH+](C)C)C1CCC1)[C@@H](NC(=O)C)Cc2ccc(O)cc2

>  <source>
REALspace_2019-12

>  <similarity-descriptor>
0.942;1.000;1.000;1.000;0.942;0.0;0.0;0.0;1.000;1.000;1.000;1.000;1.000;1.000;0.067

>  <similarity-descriptor-smiles>
C1C(C1C)(C)C;c1ccccc1;O=C;N;C;;;;C;N;C=O;C;C;O;C

>  <reaction-name>
s_22

>  <reagent1-name>
9609722

>  <reagent1-smiles>
[R1*]NCC1C(C1(C)C)(C)C

>  <reagent2-name>
17513450

>  <reagent2-smiles>
[R1*]C(=O)C(NC(=O)C)Cc1ccc(O)cc1

$$$$
s_22____10741068____17512240
          04022015093D 1   1.00000     0.00000     0
            
 51 52  0  0  0  0            999 V2000
    0.4000    1.0000   -0.0392 O   0  0  0  0  0  0  0  0  0  0  0  0
    1.0000    1.0000    1.0000 C   0  0  0  0  0  0  0  0  0  0  0  0
    0.3150    1.0000    2.1865 N   0  0  0  0  0  0  0  0  0  0  0  0
   -1.1550    1.0000    2.1865 C   0  0  0  0  0  0  0  0  0  0  0  0
   -1.6617    1.0000    3.6195 C   0  0  0  0  0  0  0  0  0  0  0  0
   -1.1538   -0.2439    4.3377 C   0  0  0  0  0  0  0  0  0  0  0  0
   -1.6251   -1.5213    3.6712 C   0  0  0  0  0  0  0  0  0  0  0  0
   -1.7526   -2.0968    5.0646 C   0  0  0  0  0  0  0  0  0  0  0  0
   -1.9860   -0.6704    5.5271 C   0  0  0  0  0  0  0  0  0  0  0  0
   -1.1550    2.2411    4.3361 C   0  0  0  0  0  0  0  0  0  0  0  0
   -3.1817    1.0000    3.6195 C   0  0  0  0  0  0  0  0  0  0  0  0
    2.5200    1.0000    1.0000 C   0  0  3  0  0  0  0  0  0  0  0  0
    3.0100    0.1091    2.0617 N   0  0  0  0  0  0  0  0  0  0  0  0
    3.7976    0.6082    3.0654 C   0  0  0  0  0  0  0  0  0  0  0  0
    4.0875    1.7726    3.0779 O   0  0  0  0  0  0  0  0  0  0  0  0
    4.3043   -0.3129    4.1632 C   0  0  0  0  0  0  0  0  0  0  0  0
    3.0267    0.5099   -0.3466 C   0  0  0  0  0  0  0  0  0  0  0  0
    4.5470    0.5099   -0.3466 C   0  0  0  0  0  0  0  0  0  0  0  0
    5.2360   -0.6256    0.0666 C   0  0  0  0  0  0  0  0  0  0  0  0
    6.6271   -0.6211    0.0659 C   0  0  0  0  0  0  0  0  0  0  0  0
    7.3187    0.5127   -0.3473 C   0  0  0  0  0  0  0  0  0  0  0  0
    6.6199    1.6411   -0.7585 C   0  0  0  0  0  0  0  0  0  0  0  0
    5.2289    1.6493   -0.7618 C   0  0  0  0  0  0  0  0  0  0  0  0
    0.8150    1.0000    3.0525 H   0  0  0  0  0  0  0  0  0  0  0  0
   -1.4883    0.1835    1.7151 H   0  0  0  0  0  0  0  0  0  0  0  0
   -1.4883    1.8165    1.7151 H   0  0  0  0  0  0  0  0  0  0  0  0
   -0.1711   -0.2271    4.5217 H   0  0  0  0  0  0  0  0  0  0  0  0
   -0.9436   -1.9693    3.0926 H   0  0  0  0  0  0  0  0  0  0  0  0
   -2.4866   -1.4403    3.1699 H   0  0  0  0  0  0  0  0  0  0  0  0
   -0.9220   -2.5244    5.4212 H   0  0  0  0  0  0  0  0  0  0  0  0
   -2.5282   -2.7142    5.1959 H   0  0  0  0  0  0  0  0  0  0  0  0
   -2.9399   -0.3712    5.5015 H   0  0  0  0  0  0  0  0  0  0  0  0
   -1.5906   -0.4476    6.4181 H   0  0  0  0  0  0  0  0  0  0  0  0
   -1.4883    3.0576    3.8647 H   0  0  0  0  0  0  0  0  0  0  0  0
   -1.4883    2.2411    5.2789 H   0  0  0  0  0  0  0  0  0  0  0  0
   -0.1550    2.2411    4.3361 H   0  0  0  0  0  0  0  0  0  0  0  0
   -3.5150    1.8165    3.1481 H   0  0  0  0  0  0  0  0  0  0  0  0
   -3.5150    0.1835    3.1481 H   0  0  0  0  0  0  0  0  0  0  0  0
   -3.5150    1.0000    4.5623 H   0  0  0  0  0  0  0  0  0  0  0  0
    2.8533    1.9285    1.1637 H   0  0  0  0  0  0  0  0  0  0  0  0
    2.7684   -0.8612    2.0513 H   0  0  0  0  0  0  0  0  0  0  0  0
    3.9710   -1.2414    3.9995 H   0  0  0  0  0  0  0  0  0  0  0  0
    5.3043   -0.3129    4.1632 H   0  0  0  0  0  0  0  0  0  0  0  0
    3.9710    0.0095    5.0491 H   0  0  0  0  0  0  0  0  0  0  0  0
    2.6933   -0.4186   -0.5104 H   0  0  0  0  0  0  0  0  0  0  0  0
    2.6933    1.1159   -1.0689 H   0  0  0  0  0  0  0  0  0  0  0  0
    4.7351   -1.4391    0.3621 H   0  0  0  0  0  0  0  0  0  0  0  0
    7.1299   -1.4330    0.3625 H   0  0  0  0  0  0  0  0  0  0  0  0
    8.3187    0.5158   -0.3485 H   0  0  0  0  0  0  0  0  0  0  0  0
    7.1212    2.4541   -1.0547 H   0  0  0  0  0  0  0  0  0  0  0  0
    4.7268    2.4618   -1.0579 H   0  0  0  0  0  0  0  0  0  0  0  0
  1  2  2  0  0  0  0
  2  3  1  0  0  0  0
  3  4  1  0  0  0  0
  4  5  1  0  0  0  0
  5  6  1  0  0  0  0
  6  7  1  0  0  0  0
  7  8  1  0  0  0  0
  8  9  1  0  0  0  0
  9  6  1  0  0  0  0
  5 10  1  0  0  0  0
  5 11  1  0  0  0  0
  2 12  1  0  0  0  0
 12 13  1  0  0  0  0
 13 14  1  0  0  0  0
 14 15  2  0  0  0  0
 14 16  1  0  0  0  0
 12 17  1  0  0  0  0
 17 18  1  0  0  0  0
 18 19  1  0  0  0  0
 19 20  2  0  0  0  0
 20 21  1  0  0  0  0
 21 22  2  0  0  0  0
 22 23  1  0  0  0  0
 23 18  2  0  0  0  0
  3 24  1  0  0  0  0
  4 25  1  0  0  0  0
  4 26  1  0  0  0  0
  6 27  1  0  0  0  0
  7 28  1  0  0  0  0
  7 29  1  0  0  0  0
  8 30  1  0  0  0  0
  8 31  1  0  0  0  0
  9 32  1  0  0  0  0
  9 33  1  0  0  0  0
 10 34  1  0  0  0  0
 10 35  1  0  0  0  0
 10 36  1  0  0  0  0
 11 37  1  0  0  0  0
 11 38  1  0  0  0  0
 11 39  1  0  0  0  0
 12 40  1  0  0  0  0
 13 41  1  0  0  0  0
 16 42  1  0  0  0  0
 16 43  1  0  0  0  0
 16 44  1  0  0  0  0
 17 45  1  0  0  0  0
 17 46  1  0  0  0  0
 19 47  1  0  0  0  0
 20 48  1  0  0  0  0
 21 49  1  0  0  0  0
 22 50  1  0  0  0  0
 23 51  1  0  0  0  0
M  END
>  <result-rank>
6

>  <similarity>
0.957

>  <query-name>
LIG_A_1101_C[NH+](C)[C@H]([R*])C1CCC1_2

>  <query-smiles>
O=C(N[C@@H]([NH+](C)C)C1CCC1)[C@@H](NC(=O)C)Cc2ccc(O)cc2

>  <source>
REALspace_2019-12

>  <similarity-descriptor>
1.000;0.960;0.852;0.852;0.914;0.914;0.995;0.995;1.000;1.000;1.000;1.000;1.000;0.0;0.0

>  <similarity-descriptor-smiles>
C1CCC1;c1ccccc1;O=C;O=C;NCC;NCC;C;C;C;N;C=O;C;C;;

>  <reaction-name>
s_22

>  <reagent1-name>
10741068

>  <reagent1-smiles>
[R1*]NCC(C1CCC1)(C)C

>  <reagent2-name>
17512240

>  <reagent2-smiles>
[R1*]C(=O)C(NC(=O)C)Cc1ccccc1

$$$$
s_22____13472478____17064022
          04022015093D 1   1.00000     0.00000     0
            
 55 56  0  0  0  0            999 V2000
   -0.3868    1.6571   -0.7943 O   0  0  0  0  0  0  0  0  0  0  0  0
    0.7075    1.7208   -0.3059 C   0  0  0  0  0  0  0  0  0  0  0  0
    1.6931    2.4433   -0.9252 N   0  0  0  0  0  0  0  0  0  0  0  0
    1.4102    3.1404   -2.1881 C   0  0  3  0  0  0  0  0  0  0  0  0
    1.6455    4.6312   -2.0077 C   0  0  0  0  0  0  0  0  0  0  0  0
    1.3528    5.3523   -3.3141 C   0  0  0  0  0  0  0  0  0  0  0  0
    1.5749    6.8299   -3.1737 C   0  0  0  0  0  0  0  0  0  0  0  0
    0.1775    6.2806   -3.2060 C   0  0  0  0  0  0  0  0  0  0  0  0
    2.3295    2.6104   -3.2763 C   0  0  0  0  0  0  0  0  0  0  0  0
    1.0000    1.0000    1.0000 C   0  0  3  0  0  0  0  0  0  0  0  0
    1.8487    1.8487    1.8487 N   0  0  0  0  0  0  0  0  0  0  0  0
    3.0831    1.4052    2.2442 C   0  0  0  0  0  0  0  0  0  0  0  0
    3.4716    0.3240    1.8978 O   0  0  0  0  0  0  0  0  0  0  0  0
    3.9607    2.2828    3.1218 C   0  0  3  0  0  0  0  0  0  0  0  0
    3.2399    2.5753    4.4276 C   0  0  0  0  0  0  0  0  0  0  0  0
    4.1175    3.4529    5.3052 C   0  0  0  0  0  0  0  0  0  0  0  0
    5.2666    1.5620    3.4143 C   0  0  0  0  0  0  0  0  0  0  0  0
   -0.3059    0.7075    1.7208 C   0  0  0  0  0  0  0  0  0  0  0  0
   -0.0133   -0.0134    3.0267 C   0  0  0  0  0  0  0  0  0  0  0  0
    0.1949    0.7274    4.1855 C   0  0  0  0  0  0  0  0  0  0  0  0
    0.4621    0.0721    5.3829 C   0  0  0  0  0  0  0  0  0  0  0  0
    0.5173   -1.3180    5.4060 C   0  0  0  0  0  0  0  0  0  0  0  0
    0.7767   -1.9580    6.5658 O   0  0  0  0  0  0  0  0  0  0  0  0
    0.3102   -2.0634    4.2499 C   0  0  0  0  0  0  0  0  0  0  0  0
    0.0429   -1.4030    3.0554 C   0  0  0  0  0  0  0  0  0  0  0  0
    2.6049    2.4964   -0.5181 H   0  0  0  0  0  0  0  0  0  0  0  0
    0.4581    2.9825   -2.4500 H   0  0  0  0  0  0  0  0  0  0  0  0
    2.5976    4.7890   -1.7458 H   0  0  0  0  0  0  0  0  0  0  0  0
    1.0406    4.9798   -1.2917 H   0  0  0  0  0  0  0  0  0  0  0  0
    1.5504    4.9014   -4.1845 H   0  0  0  0  0  0  0  0  0  0  0  0
    1.9220    7.3591   -3.9480 H   0  0  0  0  0  0  0  0  0  0  0  0
    1.9467    7.2010   -2.3228 H   0  0  0  0  0  0  0  0  0  0  0  0
   -0.3811    6.2857   -2.3765 H   0  0  0  0  0  0  0  0  0  0  0  0
   -0.4058    6.4437   -4.0017 H   0  0  0  0  0  0  0  0  0  0  0  0
    2.1371    3.0846   -4.1355 H   0  0  0  0  0  0  0  0  0  0  0  0
    3.2816    2.7682   -3.0145 H   0  0  0  0  0  0  0  0  0  0  0  0
    2.1747    1.6296   -3.3950 H   0  0  0  0  0  0  0  0  0  0  0  0
    1.4742    0.1409    0.8075 H   0  0  0  0  0  0  0  0  0  0  0  0
    1.5250    2.7498    2.1374 H   0  0  0  0  0  0  0  0  0  0  0  0
    4.1532    3.1419    2.6475 H   0  0  0  0  0  0  0  0  0  0  0  0
    3.0475    1.7162    4.9018 H   0  0  0  0  0  0  0  0  0  0  0  0
    2.3808    3.0496    4.2352 H   0  0  0  0  0  0  0  0  0  0  0  0
    3.6433    3.6454    6.1643 H   0  0  0  0  0  0  0  0  0  0  0  0
    4.9766    2.9787    5.4976 H   0  0  0  0  0  0  0  0  0  0  0  0
    4.3099    4.3120    4.8310 H   0  0  0  0  0  0  0  0  0  0  0  0
    5.8439    2.1394    3.9916 H   0  0  0  0  0  0  0  0  0  0  0  0
    5.0741    0.7029    3.8885 H   0  0  0  0  0  0  0  0  0  0  0  0
    5.7408    1.3696    2.5552 H   0  0  0  0  0  0  0  0  0  0  0  0
   -0.7801    1.5666    1.9133 H   0  0  0  0  0  0  0  0  0  0  0  0
   -0.8832    0.1301    1.1435 H   0  0  0  0  0  0  0  0  0  0  0  0
    0.1526    1.7261    4.1579 H   0  0  0  0  0  0  0  0  0  0  0  0
    0.6134    0.5962    6.2210 H   0  0  0  0  0  0  0  0  0  0  0  0
    0.8174   -2.9569    6.5874 H   0  0  0  0  0  0  0  0  0  0  0  0
    0.3529   -3.0622    4.2773 H   0  0  0  0  0  0  0  0  0  0  0  0
   -0.1088   -1.9271    2.2174 H   0  0  0  0  0  0  0  0  0  0  0  0
  1  2  2  0  0  0  0
  2  3  1  0  0  0  0
  3  4  1  0  0  0  0
  4  5  1  0  0  0  0
  5  6  1  0  0  0  0
  6  7  1  0  0  0  0
  7  8  1  0  0  0  0
  8  6  1  0  0  0  0
  4  9  1  0  0  0  0
  2 10  1  0  0  0  0
 10 11  1  0  0  0  0
 11 12  1  0  0  0  0
 12 13  2  0  0  0  0
 12 14  1  0  0  0  0
 14 15  1  0  0  0  0
 15 16  1  0  0  0  0
 14 17  1  0  0  0  0
 10 18  1  0  0  0  0
 18 19  1  0  0  0  0
 19 20  1  0  0  0  0
 20 21  2  0  0  0  0
 21 22  1  0  0  0  0
 22 23  1  0  0  0  0
 22 24  2  0  0  0  0
 24 25  1  0  0  0  0
 25 19  2  0  0  0  0
  3 26  1  0  0  0  0
  4 27  1  0  0  0  0
  5 28  1  0  0  0  0
  5 29  1  0  0  0  0
  6 30  1  0  0  0  0
  7 31  1  0  0  0  0
  7 32  1  0  0  0  0
  8 33  1  0  0  0  0
  8 34  1  0  0  0  0
  9 35  1  0  0  0  0
  9 36  1  0  0  0  0
  9 37  1  0  0  0  0
 10 38  1  0  0  0  0
 11 39  1  0  0  0  0
 14 40  1  0  0  0  0
 15 41  1  0  0  0  0
 15 42  1  0  0  0  0
 16 43  1  0  0  0  0
 16 44  1  0  0  0  0
 16 45  1  0  0  0  0
 17 46  1  0  0  0  0
 17 47  1  0  0  0  0
 17 48  1  0  0  0  0
 18 49  1  0  0  0  0
 18 50  1  0  0  0  0
 20 51  1  0  0  0  0
 21 52  1  0  0  0  0
 23 53  1  0  0  0  0
 24 54  1  0  0  0  0
 25 55  1  0  0  0  0
M  END
>  <result-rank>
7

>  <similarity>
0.952

>  <query-name>
LIG_A_1101_C[NH+](C)[C@H]([R*])C1CCC1_2

>  <query-smiles>
O=C(N[C@@H]([NH+](C)C)C1CCC1)[C@@H](NC(=O)C)Cc2ccc(O)cc2

>  <source>
REALspace_2019-12

>  <similarity-descriptor>
1.000;1.000;0.852;0.852;0.984;0.984;0.0;0.995;1.000;1.000;0.890;1.000;1.000;1.000;0.125

>  <similarity-descriptor-smiles>
CC1CC1;c1ccccc1;O=C;O=C;NC;NC;;C;C;N;C(=O)C;C;C;O;C.C

>  <reaction-name>
s_22

>  <reagent1-name>
13472478

>  <reagent1-smiles>
[R1*]NC(CC1CC1)C

>  <reagent2-name>
17064022

>  <reagent2-smiles>
[R1*]C(=O)C(NC(=O)C(CC)C)Cc1ccc(O)cc1

$$$$
s_22____130461____14260948
          04022015093D 1   1.00000     0.00000     0
            
 58 59  0  0  0  0            999 V2000
    0.4492    4.1141   -2.6949 F   0  0  0  0  0  0  0  0  0  0  0  0
   -0.0932    3.4080   -1.7074 C   0  0  0  0  0  0  0  0  0  0  0  0
    0.7114    2.6065   -0.9052 C   0  0  0  0  0  0  0  0  0  0  0  0
    0.1228    1.8772    0.1228 C   0  0  0  0  0  0  0  0  0  0  0  0
   -1.2474    1.9402    0.3557 C   0  0  0  0  0  0  0  0  0  0  0  0
   -2.0417    2.7466   -0.4530 C   0  0  0  0  0  0  0  0  0  0  0  0
   -1.4646    3.4799   -1.4853 C   0  0  0  0  0  0  0  0  0  0  0  0
    1.0000    1.0000    1.0000 C   0  0  3  0  0  0  0  0  0  0  0  0
    1.8487    0.1513    0.1513 N   0  0  0  0  0  0  0  0  0  0  0  0
    1.7598   -1.2129    0.2402 C   0  0  0  0  0  0  0  0  0  0  0  0
    0.9891   -1.7150    1.0109 O   0  0  0  0  0  0  0  0  0  0  0  0
    2.5162   -1.9693   -0.5162 O   0  0  0  0  0  0  0  0  0  0  0  0
    2.4240   -3.3833   -0.4240 C   0  0  0  0  0  0  0  0  0  0  0  0
    1.0090   -3.8221   -0.7642 C   0  0  0  0  0  0  0  0  0  0  0  0
    3.4002   -4.0193   -1.4002 C   0  0  0  0  0  0  0  0  0  0  0  0
    2.7642   -3.8221    0.9910 C   0  0  0  0  0  0  0  0  0  0  0  0
    1.8776    1.8776    1.8776 C   0  0  0  0  0  0  0  0  0  0  0  0
    1.0000    2.7551    2.7551 C   0  0  0  0  0  0  0  0  0  0  0  0
   -0.1949    2.6773    2.6773 O   0  0  0  0  0  0  0  0  0  0  0  0
    1.5733    3.6350    3.6350 N   0  0  0  0  0  0  0  0  0  0  0  0
    0.7229    4.4854    4.4854 C   0  0  0  0  0  0  0  0  0  0  0  0
    1.0072    5.9522    4.2010 C   0  0  0  0  0  0  0  0  0  0  0  0
    0.1421    6.8236    5.0976 C   0  0  0  0  0  0  0  0  0  0  0  0
    0.3841    6.5282    6.5179 N   0  3  3  0  0  0  0  0  0  0  0  0
    0.1424    5.1107    6.8265 C   0  0  0  0  0  0  0  0  0  0  0  0
    1.0075    4.2151    5.9541 C   0  0  0  0  0  0  0  0  0  0  0  0
   -0.4324    7.3942    7.3843 C   0  0  0  0  0  0  0  0  0  0  0  0
    1.3458    6.7230    6.7107 H   0  0  0  0  0  0  0  0  0  0  0  0
    1.6973    2.5551   -1.0647 H   0  0  0  0  0  0  0  0  0  0  0  0
   -1.6577    1.4105    1.0980 H   0  0  0  0  0  0  0  0  0  0  0  0
   -3.0273    2.7992   -0.2926 H   0  0  0  0  0  0  0  0  0  0  0  0
   -2.0358    4.0586   -2.0674 H   0  0  0  0  0  0  0  0  0  0  0  0
    0.4226    0.4226    1.5774 H   0  0  0  0  0  0  0  0  0  0  0  0
    2.4909    0.5697   -0.4909 H   0  0  0  0  0  0  0  0  0  0  0  0
    0.9442   -4.8178   -0.6993 H   0  0  0  0  0  0  0  0  0  0  0  0
    0.3668   -3.4036   -0.1220 H   0  0  0  0  0  0  0  0  0  0  0  0
    0.7853   -3.5334   -1.6951 H   0  0  0  0  0  0  0  0  0  0  0  0
    3.3353   -5.0151   -1.3353 H   0  0  0  0  0  0  0  0  0  0  0  0
    3.1764   -3.7306   -2.3311 H   0  0  0  0  0  0  0  0  0  0  0  0
    4.3311   -3.7306   -1.1764 H   0  0  0  0  0  0  0  0  0  0  0  0
    2.6993   -4.8178    1.0558 H   0  0  0  0  0  0  0  0  0  0  0  0
    3.6951   -3.5334    1.2147 H   0  0  0  0  0  0  0  0  0  0  0  0
    2.1220   -3.4036    1.6332 H   0  0  0  0  0  0  0  0  0  0  0  0
    2.4549    1.3002    2.4549 H   0  0  0  0  0  0  0  0  0  0  0  0
    2.4549    2.4549    1.3002 H   0  0  0  0  0  0  0  0  0  0  0  0
    2.5690    3.6999    3.6999 H   0  0  0  0  0  0  0  0  0  0  0  0
   -0.2389    4.2906    4.2927 H   0  0  0  0  0  0  0  0  0  0  0  0
    0.8001    6.1516    3.2433 H   0  0  0  0  0  0  0  0  0  0  0  0
    1.9719    6.1449    4.3805 H   0  0  0  0  0  0  0  0  0  0  0  0
    0.3557    7.7848    4.9231 H   0  0  0  0  0  0  0  0  0  0  0  0
   -0.8207    6.6527    4.8882 H   0  0  0  0  0  0  0  0  0  0  0  0
   -0.8207    4.8985    6.6612 H   0  0  0  0  0  0  0  0  0  0  0  0
    0.3607    4.9423    7.7878 H   0  0  0  0  0  0  0  0  0  0  0  0
    1.9718    4.4001    6.1437 H   0  0  0  0  0  0  0  0  0  0  0  0
    0.8051    3.2576    6.1596 H   0  0  0  0  0  0  0  0  0  0  0  0
   -0.2499    7.1741    8.3426 H   0  0  0  0  0  0  0  0  0  0  0  0
   -0.2006    8.3516    7.2122 H   0  0  0  0  0  0  0  0  0  0  0  0
   -1.4013    7.2451    7.1867 H   0  0  0  0  0  0  0  0  0  0  0  0
  1  2  1  0  0  0  0
  2  3  1  0  0  0  0
  3  4  2  0  0  0  0
  4  5  1  0  0  0  0
  5  6  2  0  0  0  0
  6  7  1  0  0  0  0
  7  2  2  0  0  0  0
  4  8  1  0  0  0  0
  8  9  1  0  0  0  0
  9 10  1  0  0  0  0
 10 11  2  0  0  0  0
 10 12  1  0  0  0  0
 12 13  1  0  0  0  0
 13 14  1  0  0  0  0
 13 15  1  0  0  0  0
 13 16  1  0  0  0  0
  8 17  1  0  0  0  0
 17 18  1  0  0  0  0
 18 19  2  0  0  0  0
 18 20  1  0  0  0  0
 20 21  1  0  0  0  0
 21 22  1  0  0  0  0
 22 23  1  0  0  0  0
 23 24  1  0  0  0  0
 24 25  1  0  0  0  0
 25 26  1  0  0  0  0
 26 21  1  0  0  0  0
 24 27  1  0  0  0  0
 24 28  1  0  0  0  0
  3 29  1  0  0  0  0
  5 30  1  0  0  0  0
  6 31  1  0  0  0  0
  7 32  1  0  0  0  0
  8 33  1  0  0  0  0
  9 34  1  0  0  0  0
 14 35  1  0  0  0  0
 14 36  1  0  0  0  0
 14 37  1  0  0  0  0
 15 38  1  0  0  0  0
 15 39  1  0  0  0  0
 15 40  1  0  0  0  0
 16 41  1  0  0  0  0
 16 42  1  0  0  0  0
 16 43  1  0  0  0  0
 17 44  1  0  0  0  0
 17 45  1  0  0  0  0
 20 46  1  0  0  0  0
 21 47  1  0  0  0  0
 22 48  1  0  0  0  0
 22 49  1  0  0  0  0
 23 50  1  0  0  0  0
 23 51  1  0  0  0  0
 25 52  1  0  0  0  0
 25 53  1  0  0  0  0
 26 54  1  0  0  0  0
 26 55  1  0  0  0  0
 27 56  1  0  0  0  0
 27 57  1  0  0  0  0
 27 58  1  0  0  0  0
M  CHG  1  24   1
M  END
>  <result-rank>
8

>  <similarity>
0.950

>  <query-name>
LIG_A_1101_C[NH+](C)[C@H]([R*])C1CCC1_2

>  <query-smiles>
O=C(N[C@@H]([NH+](C)C)C1CCC1)[C@@H](NC(=O)C)Cc2ccc(O)cc2

>  <source>
REALspace_2019-12

>  <similarity-descriptor>
0.986;0.983;1.000;1.000;0.986;0.986;0.0;1.000;1.000;1.000;0.851;0.971;1.000;0.0;0.143

>  <similarity-descriptor-smiles>
C1CC[NH+]CC1;Fc1ccccc1;C=O;N;C1CC[NH+]CC1;C1CC[NH+]CC1;;C;CC;N;C(=O)O;CC;CC;;C.C

>  <reaction-name>
s_22

>  <reagent1-name>
130461

>  <reagent1-smiles>
[R1*]NC1CCN(CC1)C

>  <reagent2-name>
14260948

>  <reagent2-smiles>
[R1*]C(=O)CC(NC(=O)OC(C)(C)C)c1cc(F)ccc1

$$$$
s_2708____5730620____2680692
          04022015093D 1   1.00000     0.00000     0
            
 46 47  0  0  0  0            999 V2000
    7.2338   -1.3514   -0.4332 F   0  0  0  0  0  0  0  0  0  0  0  0
    6.5686   -0.1994   -0.4329 C   0  0  0  0  0  0  0  0  0  0  0  0
    7.2752    0.9988   -0.4327 C   0  0  0  0  0  0  0  0  0  0  0  0
    6.5684    2.1967   -0.4326 C   0  0  0  0  0  0  0  0  0  0  0  0
    7.2366    3.3466   -0.4320 F   0  0  0  0  0  0  0  0  0  0  0  0
    5.1777    2.2121   -0.4328 C   0  0  0  0  0  0  0  0  0  0  0  0
    4.4961    1.0000   -0.4331 C   0  0  0  0  0  0  0  0  0  0  0  0
    5.1778   -0.2125   -0.4331 C   0  0  0  0  0  0  0  0  0  0  0  0
    2.9767    1.0000   -0.4331 C   0  0  0  0  0  0  0  0  0  0  0  0
    2.4700    1.0000    1.0000 C   0  0  0  0  0  0  0  0  0  0  0  0
    1.0000    1.0000    1.0000 N   0  0  0  0  0  0  0  0  0  0  0  0
    0.3150    1.0000    2.1865 C   0  0  0  0  0  0  0  0  0  0  0  0
    0.9150    1.0000    3.2257 O   0  0  0  0  0  0  0  0  0  0  0  0
   -1.0550    1.0000    2.1865 N   0  0  0  0  0  0  0  0  0  0  0  0
   -1.7913    1.0000    3.4617 C   0  0  3  0  0  0  0  0  0  0  0  0
   -2.6682    2.2383    3.5508 C   0  0  0  0  0  0  0  0  0  0  0  0
   -3.4430    2.2184    4.8585 C   0  0  3  0  0  0  0  0  0  0  0  0
   -4.2598    0.9989    4.9586 N   0  3  3  0  0  0  0  0  0  0  0  0
   -3.4418   -0.2190    4.8603 C   0  0  0  0  0  0  0  0  0  0  0  0
   -2.6698   -0.2376    3.5506 C   0  0  0  0  0  0  0  0  0  0  0  0
   -4.9837    0.9541    6.2377 C   0  0  0  0  0  0  0  0  0  0  0  0
   -4.3089    3.4667    4.9138 C   0  0  0  0  0  0  0  0  0  0  0  0
   -4.9264    0.9980    4.2132 H   0  0  0  0  0  0  0  0  0  0  0  0
    8.2752    0.9989   -0.4326 H   0  0  0  0  0  0  0  0  0  0  0  0
    4.6776    3.0780   -0.4327 H   0  0  0  0  0  0  0  0  0  0  0  0
    4.6770   -1.0780   -0.4332 H   0  0  0  0  0  0  0  0  0  0  0  0
    2.6433    0.1835   -0.9045 H   0  0  0  0  0  0  0  0  0  0  0  0
    2.6433    1.8165   -0.9045 H   0  0  0  0  0  0  0  0  0  0  0  0
    2.8033    0.1835    1.4714 H   0  0  0  0  0  0  0  0  0  0  0  0
    2.8033    1.8165    1.4714 H   0  0  0  0  0  0  0  0  0  0  0  0
    0.5000    1.0000    0.1340 H   0  0  0  0  0  0  0  0  0  0  0  0
   -1.5550    1.0000    1.3204 H   0  0  0  0  0  0  0  0  0  0  0  0
   -1.1401    0.9996    4.2206 H   0  0  0  0  0  0  0  0  0  0  0  0
   -2.0942    3.0564    3.5160 H   0  0  0  0  0  0  0  0  0  0  0  0
   -3.3096    2.2483    2.7836 H   0  0  0  0  0  0  0  0  0  0  0  0
   -2.7952    2.2386    5.6200 H   0  0  0  0  0  0  0  0  0  0  0  0
   -4.0385   -1.0204    4.9020 H   0  0  0  0  0  0  0  0  0  0  0  0
   -2.7960   -0.2442    5.6234 H   0  0  0  0  0  0  0  0  0  0  0  0
   -2.0969   -1.0563    3.5131 H   0  0  0  0  0  0  0  0  0  0  0  0
   -3.3129   -0.2454    2.7848 H   0  0  0  0  0  0  0  0  0  0  0  0
   -5.5305    0.1180    6.2821 H   0  0  0  0  0  0  0  0  0  0  0  0
   -4.3278    0.9639    6.9924 H   0  0  0  0  0  0  0  0  0  0  0  0
   -5.5851    1.7499    6.3083 H   0  0  0  0  0  0  0  0  0  0  0  0
   -3.7288    4.2782    4.8438 H   0  0  0  0  0  0  0  0  0  0  0  0
   -4.9592    3.4553    4.1542 H   0  0  0  0  0  0  0  0  0  0  0  0
   -4.8085    3.4878    5.7799 H   0  0  0  0  0  0  0  0  0  0  0  0
  1  2  1  0  0  0  0
  2  3  1  0  0  0  0
  3  4  2  0  0  0  0
  4  5  1  0  0  0  0
  4  6  1  0  0  0  0
  6  7  2  0  0  0  0
  7  8  1  0  0  0  0
  8  2  2  0  0  0  0
  7  9  1  0  0  0  0
  9 10  1  0  0  0  0
 10 11  1  0  0  0  0
 11 12  1  0  0  0  0
 12 13  2  0  0  0  0
 12 14  1  0  0  0  0
 14 15  1  0  0  0  0
 15 16  1  0  0  0  0
 16 17  1  0  0  0  0
 17 18  1  0  0  0  0
 18 19  1  0  0  0  0
 19 20  1  0  0  0  0
 20 15  1  0  0  0  0
 18 21  1  0  0  0  0
 17 22  1  0  0  0  0
 18 23  1  0  0  0  0
  3 24  1  0  0  0  0
  6 25  1  0  0  0  0
  8 26  1  0  0  0  0
  9 27  1  0  0  0  0
  9 28  1  0  0  0  0
 10 29  1  0  0  0  0
 10 30  1  0  0  0  0
 11 31  1  0  0  0  0
 14 32  1  0  0  0  0
 15 33  1  0  0  0  0
 16 34  1  0  0  0  0
 16 35  1  0  0  0  0
 17 36  1  0  0  0  0
 19 37  1  0  0  0  0
 19 38  1  0  0  0  0
 20 39  1  0  0  0  0
 20 40  1  0  0  0  0
 21 41  1  0  0  0  0
 21 42  1  0  0  0  0
 21 43  1  0  0  0  0
 22 44  1  0  0  0  0
 22 45  1  0  0  0  0
 22 46  1  0  0  0  0
M  CHG  1  18   1
M  END
>  <result-rank>
9

>  <similarity>
0.950

>  <query-name>
LIG_A_1101_C[NH+](C)[C@H]([R*])C1CCC1_2

>  <query-smiles>
O=C(N[C@@H]([NH+](C)C)C1CCC1)[C@@H](NC(=O)C)Cc2ccc(O)cc2

>  <source>
REALspace_2019-12

>  <similarity-descriptor>
0.999;0.948;0.995;1.000;0.999;0.999;1.000;0.995;0.952;0.952;0.0;0.0;1.000;0.0;0.0

>  <similarity-descriptor-smiles>
C1CC[NH+]CC1;Fc1cccc(c1)F;C=O;N;C1CC[NH+]CC1;C1CC[NH+]CC1;C;C;CN;CN;;;C;;

>  <reaction-name>
s_2708

>  <reagent1-name>
5730620

>  <reagent1-smiles>
[R1*]C(=O)NC1CC(N(CC1)C)C

>  <reagent2-name>
2680692

>  <reagent2-smiles>
[R1*]NCCc1cc(F)cc(F)c1

$$$$
s_22____2335960____107333
          04022015093D 1   1.00000     0.00000     0
            
 52 54  0  0  0  0            999 V2000
   -2.5978    4.6070   -2.6115 Br  0  0  0  0  0  0  0  0  0  0  0  0
   -1.4668    3.4748   -1.4799 C   0  0  0  0  0  0  0  0  0  0  0  0
   -0.2147    3.0763   -1.9366 C   0  0  0  0  0  0  0  0  0  0  0  0
    0.5834    2.2728   -1.1290 C   0  0  0  0  0  0  0  0  0  0  0  0
    0.1225    1.8775    0.1225 C   0  0  0  0  0  0  0  0  0  0  0  0
   -1.1309    2.2798    0.5731 C   0  0  0  0  0  0  0  0  0  0  0  0
   -1.9347    3.0832   -0.2292 C   0  0  0  0  0  0  0  0  0  0  0  0
    1.0000    1.0000    1.0000 C   0  0  3  0  0  0  0  0  0  0  0  0
    1.8487    0.1513    0.1513 N   0  0  0  0  0  0  0  0  0  0  0  0
    2.2442   -1.0831    0.5948 C   0  0  0  0  0  0  0  0  0  0  0  0
    1.8978   -1.4716    1.6760 O   0  0  0  0  0  0  0  0  0  0  0  0
    3.1218   -1.9607   -0.2828 C   0  0  0  0  0  0  0  0  0  0  0  0
    1.8776    1.8776    1.8776 C   0  0  0  0  0  0  0  0  0  0  0  0
    1.0000    2.7551    2.7551 C   0  0  0  0  0  0  0  0  0  0  0  0
    0.6536    3.8364    2.3667 O   0  0  0  0  0  0  0  0  0  0  0  0
    0.5958    2.3019    4.0169 N   0  0  0  0  0  0  0  0  0  0  0  0
   -0.2529    3.1418    4.8744 C   0  0  0  0  0  0  0  0  0  0  0  0
    0.1296    2.9545    6.3316 C   0  0  3  0  0  0  0  0  0  0  0  0
    1.5834    2.9896    6.5376 N   0  3  3  0  0  0  0  0  0  0  0  0
    2.2426    1.6729    6.5949 C   0  0  0  0  0  0  0  0  0  0  0  0
    2.3689    1.0252    5.2231 C   0  0  0  0  0  0  0  0  0  0  0  0
    1.0480    0.9737    4.4672 C   0  0  0  0  0  0  0  0  0  0  0  0
    1.7559    3.7015    7.8043 C   0  0  0  0  0  0  0  0  0  0  0  0
    0.7334    4.8057    7.6782 C   0  0  0  0  0  0  0  0  0  0  0  0
   -0.4855    4.0457    7.1906 C   0  0  0  0  0  0  0  0  0  0  0  0
    2.0004    3.5279    5.8052 H   0  0  0  0  0  0  0  0  0  0  0  0
    0.1088    3.3650   -2.8377 H   0  0  0  0  0  0  0  0  0  0  0  0
    1.4853    1.9803   -1.4469 H   0  0  0  0  0  0  0  0  0  0  0  0
   -1.4542    1.9911    1.4742 H   0  0  0  0  0  0  0  0  0  0  0  0
   -2.8366    3.3755    0.0886 H   0  0  0  0  0  0  0  0  0  0  0  0
    0.4226    0.4226    1.5774 H   0  0  0  0  0  0  0  0  0  0  0  0
    2.1374    0.4750   -0.7498 H   0  0  0  0  0  0  0  0  0  0  0  0
    3.3142   -1.4865   -1.1419 H   0  0  0  0  0  0  0  0  0  0  0  0
    3.9809   -2.1532    0.1914 H   0  0  0  0  0  0  0  0  0  0  0  0
    2.6475   -2.8198   -0.4753 H   0  0  0  0  0  0  0  0  0  0  0  0
    2.4549    1.3002    2.4549 H   0  0  0  0  0  0  0  0  0  0  0  0
    2.4549    2.4549    1.3002 H   0  0  0  0  0  0  0  0  0  0  0  0
   -1.2104    2.8822    4.7479 H   0  0  0  0  0  0  0  0  0  0  0  0
   -0.1315    4.1016    4.6214 H   0  0  0  0  0  0  0  0  0  0  0  0
   -0.2164    2.0692    6.6423 H   0  0  0  0  0  0  0  0  0  0  0  0
    1.7058    1.0707    7.1858 H   0  0  0  0  0  0  0  0  0  0  0  0
    3.1580    1.7888    6.9805 H   0  0  0  0  0  0  0  0  0  0  0  0
    2.7054    0.0910    5.3413 H   0  0  0  0  0  0  0  0  0  0  0  0
    3.0258    1.5501    4.6819 H   0  0  0  0  0  0  0  0  0  0  0  0
    1.1610    0.3860    3.6660 H   0  0  0  0  0  0  0  0  0  0  0  0
    0.3502    0.5858    5.0694 H   0  0  0  0  0  0  0  0  0  0  0  0
    2.6813    4.0702    7.8919 H   0  0  0  0  0  0  0  0  0  0  0  0
    1.5578    3.1090    8.5851 H   0  0  0  0  0  0  0  0  0  0  0  0
    1.0223    5.4953    7.0141 H   0  0  0  0  0  0  0  0  0  0  0  0
    0.5604    5.2441    8.5601 H   0  0  0  0  0  0  0  0  0  0  0  0
   -0.9990    3.6571    7.9556 H   0  0  0  0  0  0  0  0  0  0  0  0
   -1.0866    4.6349    6.6507 H   0  0  0  0  0  0  0  0  0  0  0  0
  1  2  1  0  0  0  0
  2  3  1  0  0  0  0
  3  4  2  0  0  0  0
  4  5  1  0  0  0  0
  5  6  2  0  0  0  0
  6  7  1  0  0  0  0
  7  2  2  0  0  0  0
  5  8  1  0  0  0  0
  8  9  1  0  0  0  0
  9 10  1  0  0  0  0
 10 11  2  0  0  0  0
 10 12  1  0  0  0  0
  8 13  1  0  0  0  0
 13 14  1  0  0  0  0
 14 15  2  0  0  0  0
 14 16  1  0  0  0  0
 16 17  1  0  0  0  0
 17 18  1  0  0  0  0
 18 19  1  0  0  0  0
 19 20  1  0  0  0  0
 20 21  1  0  0  0  0
 21 22  1  0  0  0  0
 22 16  1  0  0  0  0
 19 23  1  0  0  0  0
 23 24  1  0  0  0  0
 24 25  1  0  0  0  0
 25 18  1  0  0  0  0
 19 26  1  0  0  0  0
  3 27  1  0  0  0  0
  4 28  1  0  0  0  0
  6 29  1  0  0  0  0
  7 30  1  0  0  0  0
  8 31  1  0  0  0  0
  9 32  1  0  0  0  0
 12 33  1  0  0  0  0
 12 34  1  0  0  0  0
 12 35  1  0  0  0  0
 13 36  1  0  0  0  0
 13 37  1  0  0  0  0
 17 38  1  0  0  0  0
 17 39  1  0  0  0  0
 18 40  1  0  0  0  0
 20 41  1  0  0  0  0
 20 42  1  0  0  0  0
 21 43  1  0  0  0  0
 21 44  1  0  0  0  0
 22 45  1  0  0  0  0
 22 46  1  0  0  0  0
 23 47  1  0  0  0  0
 23 48  1  0  0  0  0
 24 49  1  0  0  0  0
 24 50  1  0  0  0  0
 25 51  1  0  0  0  0
 25 52  1  0  0  0  0
M  CHG  1  19   1
M  END
>  <result-rank>
10

>  <similarity>
0.950

>  <query-name>
LIG_A_1101_C[NH+](C)[C@H]([R*])C1CCC1_2

>  <query-smiles>
O=C(N[C@@H]([NH+](C)C)C1CCC1)[C@@H](NC(=O)C)Cc2ccc(O)cc2

>  <source>
REALspace_2019-12

>  <similarity-descriptor>
0.998;0.962;1.000;0.998;0.998;0.772;0.772;0.772;1.000;1.000;1.000;1.000;1.000;0.0;0.0

>  <similarity-descriptor-smiles>
N1CCC[NH+]CC1;Brc1ccccc1;C=O;N1CCC[NH+]CC1;N1CCC[NH+]CC1;C1CCC[NH+]1;C1CCC[NH+]1;C1CCC[NH+]1;CC;N;C=O;C;CC;;

>  <reaction-name>
s_22

>  <reagent1-name>
2335960

>  <reagent1-smiles>
[R1*]N1CC2N(CCC1)CCC2

>  <reagent2-name>
107333

>  <reagent2-smiles>
[R1*]C(=O)CC(NC(=O)C)c1ccc(Br)cc1

$$$$
s_22____4836848____5637262
          04022015093D 1   1.00000     0.00000     0
            
 54 55  0  0  0  0            999 V2000
    0.4725    4.3755   -1.2122 F   0  0  0  0  0  0  0  0  0  0  0  0
   -0.6031    3.8538   -0.6294 C   0  0  0  0  0  0  0  0  0  0  0  0
   -0.5605    2.5464   -0.1561 C   0  0  0  0  0  0  0  0  0  0  0  0
   -1.6731    1.9801    0.4572 C   0  0  0  0  0  0  0  0  0  0  0  0
   -2.8327    2.7373    0.5932 C   0  0  0  0  0  0  0  0  0  0  0  0
   -2.8696    4.0439    0.1180 C   0  0  0  0  0  0  0  0  0  0  0  0
   -3.9781    4.7656    0.2486 F   0  0  0  0  0  0  0  0  0  0  0  0
   -1.7600    4.6141   -0.4962 C   0  0  0  0  0  0  0  0  0  0  0  0
    0.7075    1.7208   -0.3059 C   0  0  3  0  0  0  0  0  0  0  0  0
    0.5256    0.7340   -1.3802 N   0  0  0  0  0  0  0  0  0  0  0  0
    1.3520    0.7509   -2.4728 C   0  0  0  0  0  0  0  0  0  0  0  0
    2.2242    1.5711   -2.5528 O   0  0  0  0  0  0  0  0  0  0  0  0
    1.1640   -0.2695   -3.5836 C   0  0  0  0  0  0  0  0  0  0  0  0
    1.0000    1.0000    1.0000 C   0  0  0  0  0  0  0  0  0  0  0  0
    1.8776    1.8776    1.8776 C   0  0  0  0  0  0  0  0  0  0  0  0
    2.0766    3.0213    1.5740 O   0  0  0  0  0  0  0  0  0  0  0  0
    2.4526    1.3524    3.0379 N   0  0  0  0  0  0  0  0  0  0  0  0
    2.1828   -0.0552    3.3736 C   0  0  0  0  0  0  0  0  0  0  0  0
    2.1490   -0.2857    4.8782 C   0  0  0  0  0  0  0  0  0  0  0  0
    3.3124    0.3890    5.5912 C   0  0  0  0  0  0  0  0  0  0  0  0
    3.1330    0.1661    7.0844 C   0  0  0  0  0  0  0  0  0  0  0  0
    4.2398    0.8043    7.8116 N   0  3  0  0  0  0  0  0  0  0  0  0
    4.0663    0.5888    9.2553 C   0  0  0  0  0  0  0  0  0  0  0  0
    5.5150    0.2155    7.3780 C   0  0  0  0  0  0  0  0  0  0  0  0
    3.2051    1.8870    5.3431 C   0  0  0  0  0  0  0  0  0  0  0  0
    3.2927    2.2356    3.8636 C   0  0  0  0  0  0  0  0  0  0  0  0
    4.2432    1.7856    7.6190 H   0  0  0  0  0  0  0  0  0  0  0  0
   -1.6401    1.0400    0.7964 H   0  0  0  0  0  0  0  0  0  0  0  0
   -3.6394    2.3420    1.0325 H   0  0  0  0  0  0  0  0  0  0  0  0
   -1.7933    5.5540   -0.8360 H   0  0  0  0  0  0  0  0  0  0  0  0
    1.4727    2.3233   -0.5327 H   0  0  0  0  0  0  0  0  0  0  0  0
   -0.2012    0.0505   -1.3134 H   0  0  0  0  0  0  0  0  0  0  0  0
    0.3988   -0.8720   -3.3568 H   0  0  0  0  0  0  0  0  0  0  0  0
    0.9715    0.2047   -4.4427 H   0  0  0  0  0  0  0  0  0  0  0  0
    1.9979   -0.8124   -3.6821 H   0  0  0  0  0  0  0  0  0  0  0  0
    0.1409    0.8075    1.4742 H   0  0  0  0  0  0  0  0  0  0  0  0
    1.4742    0.1409    0.8075 H   0  0  0  0  0  0  0  0  0  0  0  0
    2.9014   -0.6255    2.9756 H   0  0  0  0  0  0  0  0  0  0  0  0
    1.2981   -0.3156    2.9871 H   0  0  0  0  0  0  0  0  0  0  0  0
    1.2926    0.0819    5.2408 H   0  0  0  0  0  0  0  0  0  0  0  0
    2.1906   -1.2692    5.0540 H   0  0  0  0  0  0  0  0  0  0  0  0
    4.1902    0.0304    5.2735 H   0  0  0  0  0  0  0  0  0  0  0  0
    2.2655    0.5667    7.3794 H   0  0  0  0  0  0  0  0  0  0  0  0
    3.1297   -0.8152    7.2769 H   0  0  0  0  0  0  0  0  0  0  0  0
    4.8192    1.0230    9.7499 H   0  0  0  0  0  0  0  0  0  0  0  0
    3.1988    0.9893    9.5502 H   0  0  0  0  0  0  0  0  0  0  0  0
    4.0630   -0.3925    9.4478 H   0  0  0  0  0  0  0  0  0  0  0  0
    6.2679    0.6497    7.8726 H   0  0  0  0  0  0  0  0  0  0  0  0
    5.5117   -0.7657    7.5705 H   0  0  0  0  0  0  0  0  0  0  0  0
    5.6330    0.3622    6.3958 H   0  0  0  0  0  0  0  0  0  0  0  0
    3.9497    2.3472    5.8265 H   0  0  0  0  0  0  0  0  0  0  0  0
    2.3276    2.2096    5.6980 H   0  0  0  0  0  0  0  0  0  0  0  0
    2.9906    3.1803    3.7362 H   0  0  0  0  0  0  0  0  0  0  0  0
    4.2435    2.1468    3.5668 H   0  0  0  0  0  0  0  0  0  0  0  0
  1  2  1  0  0  0  0
  2  3  1  0  0  0  0
  3  4  2  0  0  0  0
  4  5  1  0  0  0  0
  5  6  2  0  0  0  0
  6  7  1  0  0  0  0
  6  8  1  0  0  0  0
  8  2  2  0  0  0  0
  3  9  1  0  0  0  0
  9 10  1  0  0  0  0
 10 11  1  0  0  0  0
 11 12  2  0  0  0  0
 11 13  1  0  0  0  0
  9 14  1  0  0  0  0
 14 15  1  0  0  0  0
 15 16  2  0  0  0  0
 15 17  1  0  0  0  0
 17 18  1  0  0  0  0
 18 19  1  0  0  0  0
 19 20  1  0  0  0  0
 20 21  1  0  0  0  0
 21 22  1  0  0  0  0
 22 23  1  0  0  0  0
 22 24  1  0  0  0  0
 20 25  1  0  0  0  0
 25 26  1  0  0  0  0
 26 17  1  0  0  0  0
 22 27  1  0  0  0  0
  4 28  1  0  0  0  0
  5 29  1  0  0  0  0
  8 30  1  0  0  0  0
  9 31  1  0  0  0  0
 10 32  1  0  0  0  0
 13 33  1  0  0  0  0
 13 34  1  0  0  0  0
 13 35  1  0  0  0  0
 14 36  1  0  0  0  0
 14 37  1  0  0  0  0
 18 38  1  0  0  0  0
 18 39  1  0  0  0  0
 19 40  1  0  0  0  0
 19 41  1  0  0  0  0
 20 42  1  0  0  0  0
 21 43  1  0  0  0  0
 21 44  1  0  0  0  0
 23 45  1  0  0  0  0
 23 46  1  0  0  0  0
 23 47  1  0  0  0  0
 24 48  1  0  0  0  0
 24 49  1  0  0  0  0
 24 50  1  0  0  0  0
 25 51  1  0  0  0  0
 25 52  1  0  0  0  0
 26 53  1  0  0  0  0
 26 54  1  0  0  0  0
M  CHG  1  22   1
M  END
>  <result-rank>
11

>  <similarity>
0.950

>  <query-name>
LIG_A_1101_C[NH+](C)[C@H]([R*])C1CCC1_2

>  <query-smiles>
O=C(N[C@@H]([NH+](C)C)C1CCC1)[C@@H](NC(=O)C)Cc2ccc(O)cc2

>  <source>
REALspace_2019-12

>  <similarity-descriptor>
0.981;0.948;0.852;0.852;0.981;0.958;0.958;1.000;1.000;1.000;1.000;1.000;1.000;0.0;0.083

>  <similarity-descriptor-smiles>
N1CCCCC1;Fc1cc(ccc1)F;C=O;C=O;N1CCCCC1;C[NH+];C[NH+];C;CC;N;C=O;C;CC;;C

>  <reaction-name>
s_22

>  <reagent1-name>
4836848

>  <reagent1-smiles>
[R1*]N1CCC(CN(C)C)CC1

>  <reagent2-name>
5637262

>  <reagent2-smiles>
[R1*]C(=O)CC(NC(=O)C)c1c(F)cc(F)cc1

$$$$
s_22____5730600____999588
          04022015093D 1   1.00000     0.00000     0
            
 48 49  0  0  0  0            999 V2000
    5.6624    4.8886    2.4837 O   0  0  0  0  0  0  0  0  0  0  0  0
    5.6830    3.6888    2.4782 C   0  0  0  0  0  0  0  0  0  0  0  0
    6.8811    3.0244    2.4643 N   0  0  0  0  0  0  0  0  0  0  0  0
    8.1434    3.7826    2.4561 C   0  0  3  0  0  0  0  0  0  0  0  0
    8.5985    4.0418    3.8830 C   0  0  0  0  0  0  0  0  0  0  0  0
    9.9141    4.8031    3.8656 C   0  0  3  0  0  0  0  0  0  0  0  0
   10.9388    4.0506    3.1255 N   0  3  3  0  0  0  0  0  0  0  0  0
   10.5222    3.7696    1.7436 C   0  0  0  0  0  0  0  0  0  0  0  0
    9.2174    2.9891    1.7292 C   0  0  0  0  0  0  0  0  0  0  0  0
   12.2039    4.7974    3.0721 C   0  0  0  0  0  0  0  0  0  0  0  0
   10.3401    5.0432    5.3048 C   0  0  0  0  0  0  0  0  0  0  0  0
    4.3800    2.9062    2.4867 C   0  0  0  0  0  0  0  0  0  0  0  0
    3.1728    3.5972    2.5008 C   0  0  0  0  0  0  0  0  0  0  0  0
    1.9830    2.8768    2.5101 C   0  0  0  0  0  0  0  0  0  0  0  0
    0.7008    3.5955    2.5256 N   0  0  0  0  0  0  0  0  0  0  0  0
   -0.4768    2.8955    2.5349 C   0  0  0  0  0  0  0  0  0  0  0  0
   -0.4616    1.6956    2.5303 O   0  0  0  0  0  0  0  0  0  0  0  0
   -1.8026    3.6387    2.5510 C   0  0  0  0  0  0  0  0  0  0  0  0
   -2.2590    3.8917    1.1233 C   0  0  0  0  0  0  0  0  0  0  0  0
    1.9867    1.4860    2.5051 C   0  0  0  0  0  0  0  0  0  0  0  0
    3.2053    0.8159    2.4905 C   0  0  0  0  0  0  0  0  0  0  0  0
    4.4072    1.5158    2.4809 C   0  0  0  0  0  0  0  0  0  0  0  0
   11.0993    3.1820    3.5944 H   0  0  0  0  0  0  0  0  0  0  0  0
    6.8983    2.0246    2.4598 H   0  0  0  0  0  0  0  0  0  0  0  0
    8.0029    4.6556    1.9891 H   0  0  0  0  0  0  0  0  0  0  0  0
    7.9064    4.5833    4.3603 H   0  0  0  0  0  0  0  0  0  0  0  0
    8.7243    3.1699    4.3562 H   0  0  0  0  0  0  0  0  0  0  0  0
    9.7725    5.6858    3.4174 H   0  0  0  0  0  0  0  0  0  0  0  0
   11.2322    3.2321    1.2887 H   0  0  0  0  0  0  0  0  0  0  0  0
   10.3944    4.6334    1.2563 H   0  0  0  0  0  0  0  0  0  0  0  0
    8.9332    2.8326    0.7833 H   0  0  0  0  0  0  0  0  0  0  0  0
    9.3498    2.1102    2.1873 H   0  0  0  0  0  0  0  0  0  0  0  0
   12.8831    4.2667    2.5651 H   0  0  0  0  0  0  0  0  0  0  0  0
   12.0548    5.6732    2.6131 H   0  0  0  0  0  0  0  0  0  0  0  0
   12.5343    4.9603    4.0018 H   0  0  0  0  0  0  0  0  0  0  0  0
    9.6265    5.5554    5.7827 H   0  0  0  0  0  0  0  0  0  0  0  0
   10.4825    4.1649    5.7613 H   0  0  0  0  0  0  0  0  0  0  0  0
   11.1917    5.5673    5.3174 H   0  0  0  0  0  0  0  0  0  0  0  0
    3.1605    4.5971    2.5042 H   0  0  0  0  0  0  0  0  0  0  0  0
    0.6881    4.5954    2.5294 H   0  0  0  0  0  0  0  0  0  0  0  0
   -1.6894    4.5122    3.0245 H   0  0  0  0  0  0  0  0  0  0  0  0
   -2.4879    3.0877    3.0272 H   0  0  0  0  0  0  0  0  0  0  0  0
   -3.1312    4.3806    1.1339 H   0  0  0  0  0  0  0  0  0  0  0  0
   -1.5737    4.4427    0.6470 H   0  0  0  0  0  0  0  0  0  0  0  0
   -2.3722    3.0182    0.6498 H   0  0  0  0  0  0  0  0  0  0  0  0
    1.1266    0.9758    2.5119 H   0  0  0  0  0  0  0  0  0  0  0  0
    3.2176   -0.1840    2.4868 H   0  0  0  0  0  0  0  0  0  0  0  0
    5.2790    1.0260    2.4700 H   0  0  0  0  0  0  0  0  0  0  0  0
  1  2  2  0  0  0  0
  2  3  1  0  0  0  0
  3  4  1  0  0  0  0
  4  5  1  0  0  0  0
  5  6  1  0  0  0  0
  6  7  1  0  0  0  0
  7  8  1  0  0  0  0
  8  9  1  0  0  0  0
  9  4  1  0  0  0  0
  7 10  1  0  0  0  0
  6 11  1  0  0  0  0
  2 12  1  0  0  0  0
 12 13  1  0  0  0  0
 13 14  2  0  0  0  0
 14 15  1  0  0  0  0
 15 16  1  0  0  0  0
 16 17  2  0  0  0  0
 16 18  1  0  0  0  0
 18 19  1  0  0  0  0
 14 20  1  0  0  0  0
 20 21  2  0  0  0  0
 21 22  1  0  0  0  0
 22 12  2  0  0  0  0
  7 23  1  0  0  0  0
  3 24  1  0  0  0  0
  4 25  1  0  0  0  0
  5 26  1  0  0  0  0
  5 27  1  0  0  0  0
  6 28  1  0  0  0  0
  8 29  1  0  0  0  0
  8 30  1  0  0  0  0
  9 31  1  0  0  0  0
  9 32  1  0  0  0  0
 10 33  1  0  0  0  0
 10 34  1  0  0  0  0
 10 35  1  0  0  0  0
 11 36  1  0  0  0  0
 11 37  1  0  0  0  0
 11 38  1  0  0  0  0
 13 39  1  0  0  0  0
 15 40  1  0  0  0  0
 18 41  1  0  0  0  0
 18 42  1  0  0  0  0
 19 43  1  0  0  0  0
 19 44  1  0  0  0  0
 19 45  1  0  0  0  0
 20 46  1  0  0  0  0
 21 47  1  0  0  0  0
 22 48  1  0  0  0  0
M  CHG  1   7   1
M  END
>  <result-rank>
12

>  <similarity>
0.950

>  <query-name>
LIG_A_1101_C[NH+](C)[C@H]([R*])C1CCC1_2

>  <query-smiles>
O=C(N[C@@H]([NH+](C)C)C1CCC1)[C@@H](NC(=O)C)Cc2ccc(O)cc2

>  <source>
REALspace_2019-12

>  <similarity-descriptor>
0.999;0.893;1.000;1.000;0.999;0.999;1.000;0.995;0.893;1.000;1.000;0.949;0.893;0.0;0.100

>  <similarity-descriptor-smiles>
C1CC[NH+]CC1;c1ccccc1;O=C;N;C1CC[NH+]CC1;C1CC[NH+]CC1;C;C;c1ccccc1;N;C=O;C;c1ccccc1;;C

>  <reaction-name>
s_22

>  <reagent1-name>
5730600

>  <reagent1-smiles>
[R1*]NC1CC(N(CC1)C)C

>  <reagent2-name>
999588

>  <reagent2-smiles>
[R1*]C(=O)c1cc(NC(=O)CC)ccc1

$$$$
s_2708____1181760____8696720
          04022015093D 1   1.00000     0.00000     0
            
 48 50  0  0  0  0            999 V2000
    2.1263   -2.4260    2.0155 F   0  0  0  0  0  0  0  0  0  0  0  0
    1.9162   -1.6462    3.0728 C   0  0  0  0  0  0  0  0  0  0  0  0
    2.4235   -0.3508    3.0940 C   0  0  0  0  0  0  0  0  0  0  0  0
    2.2101    0.4721    4.1951 C   0  0  0  0  0  0  0  0  0  0  0  0
    1.4845   -0.0127    5.2784 C   0  0  0  0  0  0  0  0  0  0  0  0
    0.9791   -1.3089    5.2532 C   0  0  0  0  0  0  0  0  0  0  0  0
    1.1902   -2.1341    4.1535 C   0  0  0  0  0  0  0  0  0  0  0  0
    3.2154    0.1669    1.9034 C   0  0  3  0  0  0  0  0  0  0  0  0
    2.4042    1.0000    1.0000 N   0  0  0  0  0  0  0  0  0  0  0  0
    1.0000    1.0000    1.0000 C   0  0  0  0  0  0  0  0  0  0  0  0
    0.4000    0.0767    1.4769 O   0  0  0  0  0  0  0  0  0  0  0  0
    0.3150    2.0541    0.4555 N   0  0  0  0  0  0  0  0  0  0  0  0
   -1.1557    2.0541    0.4555 C   0  0  3  0  0  0  0  0  0  0  0  0
   -1.7133    3.2458    1.2200 C   0  0  0  0  0  0  0  0  0  0  0  0
   -3.1849    3.2516    1.2117 N   0  3  3  0  0  0  0  0  0  0  0  0
   -3.7107    3.2727   -0.1614 C   0  0  0  0  0  0  0  0  0  0  0  0
   -3.1945    2.0793   -0.9493 C   0  0  0  0  0  0  0  0  0  0  0  0
   -1.6744    2.0801   -0.9736 C   0  0  0  0  0  0  0  0  0  0  0  0
   -3.7111    4.3924    1.9779 C   0  0  0  0  0  0  0  0  0  0  0  0
    3.2046    1.8126    0.0726 C   0  0  0  0  0  0  0  0  0  0  0  0
    4.0319    2.8270    0.8461 C   0  0  0  0  0  0  0  0  0  0  0  0
    4.7791    2.1733    1.9317 N   0  0  0  0  0  0  0  0  0  0  0  0
    4.4126    0.9299    2.4626 C   0  0  0  0  0  0  0  0  0  0  0  0
    5.0560    0.4852    3.4004 O   0  0  0  0  0  0  0  0  0  0  0  0
   -3.5006    2.4108    1.6515 H   0  0  0  0  0  0  0  0  0  0  0  0
    2.5747    1.4031    4.2077 H   0  0  0  0  0  0  0  0  0  0  0  0
    1.3262    0.5703    6.0753 H   0  0  0  0  0  0  0  0  0  0  0  0
    0.4580   -1.6512    6.0350 H   0  0  0  0  0  0  0  0  0  0  0  0
    0.8249   -3.0649    4.1404 H   0  0  0  0  0  0  0  0  0  0  0  0
    3.5561   -0.6184    1.3864 H   0  0  0  0  0  0  0  0  0  0  0  0
    0.8150    2.8236    0.0581 H   0  0  0  0  0  0  0  0  0  0  0  0
   -1.4749    1.2149    0.8957 H   0  0  0  0  0  0  0  0  0  0  0  0
   -1.3939    3.2027    2.1667 H   0  0  0  0  0  0  0  0  0  0  0  0
   -1.3827    4.0882    0.7946 H   0  0  0  0  0  0  0  0  0  0  0  0
   -3.4184    4.1159   -0.6125 H   0  0  0  0  0  0  0  0  0  0  0  0
   -4.7097    3.2397   -0.1315 H   0  0  0  0  0  0  0  0  0  0  0  0
   -3.5393    2.1288   -1.8866 H   0  0  0  0  0  0  0  0  0  0  0  0
   -3.5170    1.2360   -0.5195 H   0  0  0  0  0  0  0  0  0  0  0  0
   -1.3466    1.2725   -1.4639 H   0  0  0  0  0  0  0  0  0  0  0  0
   -1.3469    2.9052   -1.4341 H   0  0  0  0  0  0  0  0  0  0  0  0
   -4.7107    4.3748    1.9577 H   0  0  0  0  0  0  0  0  0  0  0  0
   -3.3957    4.3318    2.9249 H   0  0  0  0  0  0  0  0  0  0  0  0
   -3.3844    5.2458    1.5717 H   0  0  0  0  0  0  0  0  0  0  0  0
    2.5942    2.2943   -0.5562 H   0  0  0  0  0  0  0  0  0  0  0  0
    3.8153    1.2155   -0.4475 H   0  0  0  0  0  0  0  0  0  0  0  0
    4.6778    3.2670    0.2223 H   0  0  0  0  0  0  0  0  0  0  0  0
    3.4228    3.5172    1.2367 H   0  0  0  0  0  0  0  0  0  0  0  0
    5.5824    2.6361    2.3065 H   0  0  0  0  0  0  0  0  0  0  0  0
  1  2  1  0  0  0  0
  2  3  1  0  0  0  0
  3  4  2  0  0  0  0
  4  5  1  0  0  0  0
  5  6  2  0  0  0  0
  6  7  1  0  0  0  0
  7  2  2  0  0  0  0
  3  8  1  0  0  0  0
  8  9  1  0  0  0  0
  9 10  1  0  0  0  0
 10 11  2  0  0  0  0
 10 12  1  0  0  0  0
 12 13  1  0  0  0  0
 13 14  1  0  0  0  0
 14 15  1  0  0  0  0
 15 16  1  0  0  0  0
 16 17  1  0  0  0  0
 17 18  1  0  0  0  0
 18 13  1  0  0  0  0
 15 19  1  0  0  0  0
  9 20  1  0  0  0  0
 20 21  1  0  0  0  0
 21 22  1  0  0  0  0
 22 23  1  0  0  0  0
 23  8  1  0  0  0  0
 23 24  2  0  0  0  0
 15 25  1  0  0  0  0
  4 26  1  0  0  0  0
  5 27  1  0  0  0  0
  6 28  1  0  0  0  0
  7 29  1  0  0  0  0
  8 30  1  0  0  0  0
 12 31  1  0  0  0  0
 13 32  1  0  0  0  0
 14 33  1  0  0  0  0
 14 34  1  0  0  0  0
 16 35  1  0  0  0  0
 16 36  1  0  0  0  0
 17 37  1  0  0  0  0
 17 38  1  0  0  0  0
 18 39  1  0  0  0  0
 18 40  1  0  0  0  0
 19 41  1  0  0  0  0
 19 42  1  0  0  0  0
 19 43  1  0  0  0  0
 20 44  1  0  0  0  0
 20 45  1  0  0  0  0
 21 46  1  0  0  0  0
 21 47  1  0  0  0  0
 22 48  1  0  0  0  0
M  CHG  1  15   1
M  END
>  <result-rank>
13

>  <similarity>
0.950

>  <query-name>
LIG_A_1101_C[NH+](C)[C@H]([R*])C1CCC1_2

>  <query-smiles>
O=C(N[C@@H]([NH+](C)C)C1CCC1)[C@@H](NC(=O)C)Cc2ccc(O)cc2

>  <source>
REALspace_2019-12

>  <similarity-descriptor>
0.986;0.983;0.995;1.000;0.986;0.986;0.0;1.000;0.897;0.897;0.897;0.897;0.897;0.0;0.0

>  <similarity-descriptor-smiles>
C1CCC[NH+]C1;Fc1ccccc1;C=O;N;C1CCC[NH+]C1;C1CCC[NH+]C1;;C;C1C(NCCN1)=O;C1C(NCCN1)=O;C1C(NCCN1)=O;C1C(NCCN1)=O;C1C(NCCN1)=O;;

>  <reaction-name>
s_2708

>  <reagent1-name>
1181760

>  <reagent1-smiles>
[R1*]C(=O)NC1CN(CCC1)C

>  <reagent2-name>
8696720

>  <reagent2-smiles>
[R1*]N1C(c2c(F)cccc2)C(=O)NCC1

$$$$
s_22____4974230____219891
          04022015093D 1   1.00000     0.00000     0
            
 53 54  0  0  0  0            999 V2000
    4.3356    3.7506   -0.8934 O   0  0  0  0  0  0  0  0  0  0  0  0
    5.0404    2.8242   -0.6018 C   0  0  0  0  0  0  0  0  0  0  0  0
    4.4855    1.6046   -0.3161 N   0  0  0  0  0  0  0  0  0  0  0  0
    3.0267    1.4309   -0.3667 C   0  0  3  0  0  0  0  0  0  0  0  0
    2.6784    0.3666   -1.3950 C   0  0  0  0  0  0  0  0  0  0  0  0
    3.1262   -0.9380   -1.2150 C   0  0  0  0  0  0  0  0  0  0  0  0
    2.8060   -1.9086   -2.1588 C   0  0  0  0  0  0  0  0  0  0  0  0
    2.0424   -1.5717   -3.2714 C   0  0  0  0  0  0  0  0  0  0  0  0
    1.6002   -0.2654   -3.4405 C   0  0  0  0  0  0  0  0  0  0  0  0
    1.9142    0.7144   -2.5044 C   0  0  0  0  0  0  0  0  0  0  0  0
    2.5200    1.0000    1.0000 C   0  0  0  0  0  0  0  0  0  0  0  0
    1.0000    1.0000    1.0000 C   0  0  0  0  0  0  0  0  0  0  0  0
    0.4000    1.0000   -0.0392 O   0  0  0  0  0  0  0  0  0  0  0  0
    0.3150    1.0000    2.1865 N   0  0  0  0  0  0  0  0  0  0  0  0
   -1.1575    1.0000    2.1865 C   0  0  3  0  0  0  0  0  0  0  0  0
   -1.6732   -0.2383    2.9014 C   0  0  0  0  0  0  0  0  0  0  0  0
   -3.1931   -0.2184    2.9185 C   0  0  3  0  0  0  0  0  0  0  0  0
   -3.6882    1.0011    3.5758 N   0  3  3  0  0  0  0  0  0  0  0  0
   -3.1940    2.2190    2.9166 C   0  0  0  0  0  0  0  0  0  0  0  0
   -1.6738    2.2376    2.9029 C   0  0  0  0  0  0  0  0  0  0  0  0
   -5.1578    1.0459    3.5632 C   0  0  0  0  0  0  0  0  0  0  0  0
   -5.6318    2.3168    4.2492 C   0  0  0  0  0  0  0  0  0  0  0  0
   -3.6740   -1.4667    3.6408 C   0  0  0  0  0  0  0  0  0  0  0  0
    6.4000    2.9861   -0.5546 N   0  0  0  0  0  0  0  0  0  0  0  0
   -3.3759    1.0020    4.5258 H   0  0  0  0  0  0  0  0  0  0  0  0
    5.0728    0.8326   -0.0731 H   0  0  0  0  0  0  0  0  0  0  0  0
    2.5967    2.2963   -0.6240 H   0  0  0  0  0  0  0  0  0  0  0  0
    3.6742   -1.1764   -0.4132 H   0  0  0  0  0  0  0  0  0  0  0  0
    3.1249   -2.8486   -2.0372 H   0  0  0  0  0  0  0  0  0  0  0  0
    1.8117   -2.2695   -3.9495 H   0  0  0  0  0  0  0  0  0  0  0  0
    1.0515   -0.0276   -4.2421 H   0  0  0  0  0  0  0  0  0  0  0  0
    1.5955    1.6543   -2.6269 H   0  0  0  0  0  0  0  0  0  0  0  0
    2.8533    0.0795    1.2041 H   0  0  0  0  0  0  0  0  0  0  0  0
    2.8533    1.6370    1.6951 H   0  0  0  0  0  0  0  0  0  0  0  0
    0.8150    1.0000    3.0525 H   0  0  0  0  0  0  0  0  0  0  0  0
   -1.4892    1.0004    1.2430 H   0  0  0  0  0  0  0  0  0  0  0  0
   -1.3560   -1.0564    2.4216 H   0  0  0  0  0  0  0  0  0  0  0  0
   -1.3295   -0.2483    3.8404 H   0  0  0  0  0  0  0  0  0  0  0  0
   -3.5287   -0.2386    1.9767 H   0  0  0  0  0  0  0  0  0  0  0  0
   -3.5285    3.0204    3.4124 H   0  0  0  0  0  0  0  0  0  0  0  0
   -3.5319    2.2442    1.9757 H   0  0  0  0  0  0  0  0  0  0  0  0
   -1.3548    3.0563    2.4255 H   0  0  0  0  0  0  0  0  0  0  0  0
   -1.3322    2.2454    3.8427 H   0  0  0  0  0  0  0  0  0  0  0  0
   -5.5197    0.2501    4.0487 H   0  0  0  0  0  0  0  0  0  0  0  0
   -5.4835    1.0361    2.6178 H   0  0  0  0  0  0  0  0  0  0  0  0
   -6.6313    2.3473    4.2407 H   0  0  0  0  0  0  0  0  0  0  0  0
   -5.3061    2.3266    5.1946 H   0  0  0  0  0  0  0  0  0  0  0  0
   -5.2699    3.1125    3.7637 H   0  0  0  0  0  0  0  0  0  0  0  0
   -3.3232   -2.2782    3.1733 H   0  0  0  0  0  0  0  0  0  0  0  0
   -3.3412   -1.4553    4.5837 H   0  0  0  0  0  0  0  0  0  0  0  0
   -4.6737   -1.4878    3.6403 H   0  0  0  0  0  0  0  0  0  0  0  0
    6.9873    2.2141   -0.3117 H   0  0  0  0  0  0  0  0  0  0  0  0
    6.8051    3.8763   -0.7632 H   0  0  0  0  0  0  0  0  0  0  0  0
  1  2  2  0  0  0  0
  2  3  1  0  0  0  0
  3  4  1  0  0  0  0
  4  5  1  0  0  0  0
  5  6  1  0  0  0  0
  6  7  2  0  0  0  0
  7  8  1  0  0  0  0
  8  9  2  0  0  0  0
  9 10  1  0  0  0  0
 10  5  2  0  0  0  0
  4 11  1  0  0  0  0
 11 12  1  0  0  0  0
 12 13  2  0  0  0  0
 12 14  1  0  0  0  0
 14 15  1  0  0  0  0
 15 16  1  0  0  0  0
 16 17  1  0  0  0  0
 17 18  1  0  0  0  0
 18 19  1  0  0  0  0
 19 20  1  0  0  0  0
 20 15  1  0  0  0  0
 18 21  1  0  0  0  0
 21 22  1  0  0  0  0
 17 23  1  0  0  0  0
  2 24  1  0  0  0  0
 18 25  1  0  0  0  0
  3 26  1  0  0  0  0
  4 27  1  0  0  0  0
  6 28  1  0  0  0  0
  7 29  1  0  0  0  0
  8 30  1  0  0  0  0
  9 31  1  0  0  0  0
 10 32  1  0  0  0  0
 11 33  1  0  0  0  0
 11 34  1  0  0  0  0
 14 35  1  0  0  0  0
 15 36  1  0  0  0  0
 16 37  1  0  0  0  0
 16 38  1  0  0  0  0
 17 39  1  0  0  0  0
 19 40  1  0  0  0  0
 19 41  1  0  0  0  0
 20 42  1  0  0  0  0
 20 43  1  0  0  0  0
 21 44  1  0  0  0  0
 21 45  1  0  0  0  0
 22 46  1  0  0  0  0
 22 47  1  0  0  0  0
 22 48  1  0  0  0  0
 23 49  1  0  0  0  0
 23 50  1  0  0  0  0
 23 51  1  0  0  0  0
 24 52  1  0  0  0  0
 24 53  1  0  0  0  0
M  CHG  1  18   1
M  END
>  <result-rank>
14

>  <similarity>
0.950

>  <query-name>
LIG_A_1101_C[NH+](C)[C@H]([R*])C1CCC1_2

>  <query-smiles>
O=C(N[C@@H]([NH+](C)C)C1CCC1)[C@@H](NC(=O)C)Cc2ccc(O)cc2

>  <source>
REALspace_2019-12

>  <similarity-descriptor>
0.999;0.960;1.000;1.000;0.999;0.999;0.951;0.995;1.000;1.000;0.840;0.840;1.000;0.0;0.167

>  <similarity-descriptor-smiles>
C1CC[NH+]CC1;c1ccccc1;C=O;N;C1CC[NH+]CC1;C1CC[NH+]CC1;C;C;CC;N;O=C;O=C;CC;;C.N

>  <reaction-name>
s_22

>  <reagent1-name>
4974230

>  <reagent1-smiles>
[R1*]NC1CC(N(CC1)CC)C

>  <reagent2-name>
219891

>  <reagent2-smiles>
[R1*]C(=O)CC(NC(=O)N)c1ccccc1

$$$$
s_2708____5730620____9820842
          04022015093D 1   1.00000     0.00000     0
            
 56 57  0  0  0  0            999 V2000
    2.4274    2.2637   -2.0372 Cl  0  0  0  0  0  0  0  0  0  0  0  0
    0.9389    3.0888   -1.5149 C   0  0  0  0  0  0  0  0  0  0  0  0
    0.0116    2.4333   -0.7119 C   0  0  0  0  0  0  0  0  0  0  0  0
   -1.1475    3.0894   -0.3094 C   0  0  0  0  0  0  0  0  0  0  0  0
   -1.3794    4.4013   -0.7107 C   0  0  0  0  0  0  0  0  0  0  0  0
   -0.4454    5.0471   -1.5142 C   0  0  0  0  0  0  0  0  0  0  0  0
   -0.7411    6.7255   -2.0286 Cl  0  0  0  0  0  0  0  0  0  0  0  0
    0.7167    4.4004   -1.9216 C   0  0  0  0  0  0  0  0  0  0  0  0
    0.2650    1.0000   -0.2731 C   0  0  0  0  0  0  0  0  0  0  0  0
    1.0000    1.0000    1.0000 N   0  0  0  0  0  0  0  0  0  0  0  0
    0.3150    1.0000    2.1865 C   0  0  0  0  0  0  0  0  0  0  0  0
    0.9150    1.0000    3.2257 O   0  0  0  0  0  0  0  0  0  0  0  0
   -1.0550    1.0000    2.1865 N   0  0  0  0  0  0  0  0  0  0  0  0
   -1.7913    1.0000    3.4617 C   0  0  3  0  0  0  0  0  0  0  0  0
   -2.6682    2.2383    3.5508 C   0  0  0  0  0  0  0  0  0  0  0  0
   -3.4430    2.2184    4.8585 C   0  0  3  0  0  0  0  0  0  0  0  0
   -4.2598    0.9989    4.9586 N   0  3  3  0  0  0  0  0  0  0  0  0
   -3.4418   -0.2190    4.8603 C   0  0  0  0  0  0  0  0  0  0  0  0
   -2.6698   -0.2376    3.5506 C   0  0  0  0  0  0  0  0  0  0  0  0
   -4.9837    0.9541    6.2377 C   0  0  0  0  0  0  0  0  0  0  0  0
   -4.3089    3.4667    4.9138 C   0  0  0  0  0  0  0  0  0  0  0  0
    2.4700    1.0000    1.0000 C   0  0  0  0  0  0  0  0  0  0  0  0
    2.9767   -0.4331    1.0000 C   0  0  0  0  0  0  0  0  0  0  0  0
    4.4467   -0.4331    1.0000 N   0  0  0  0  0  0  0  0  0  0  0  0
    5.1317   -0.2270    2.1684 C   0  0  0  0  0  0  0  0  0  0  0  0
    4.5317   -0.0466    3.1919 O   0  0  0  0  0  0  0  0  0  0  0  0
    6.6517   -0.2270    2.1684 C   0  0  0  0  0  0  0  0  0  0  0  0
   -4.9264    0.9980    4.2132 H   0  0  0  0  0  0  0  0  0  0  0  0
   -1.8139    2.6180    0.2682 H   0  0  0  0  0  0  0  0  0  0  0  0
   -2.2112    4.8763   -0.4236 H   0  0  0  0  0  0  0  0  0  0  0  0
    1.3833    4.8719   -2.4989 H   0  0  0  0  0  0  0  0  0  0  0  0
   -0.6088    0.5286   -0.1535 H   0  0  0  0  0  0  0  0  0  0  0  0
    0.8054    0.5286   -0.9700 H   0  0  0  0  0  0  0  0  0  0  0  0
   -1.5550    1.0000    1.3204 H   0  0  0  0  0  0  0  0  0  0  0  0
   -1.1401    0.9996    4.2206 H   0  0  0  0  0  0  0  0  0  0  0  0
   -2.0942    3.0564    3.5160 H   0  0  0  0  0  0  0  0  0  0  0  0
   -3.3096    2.2483    2.7836 H   0  0  0  0  0  0  0  0  0  0  0  0
   -2.7952    2.2386    5.6200 H   0  0  0  0  0  0  0  0  0  0  0  0
   -4.0385   -1.0204    4.9020 H   0  0  0  0  0  0  0  0  0  0  0  0
   -2.7960   -0.2442    5.6234 H   0  0  0  0  0  0  0  0  0  0  0  0
   -2.0969   -1.0563    3.5131 H   0  0  0  0  0  0  0  0  0  0  0  0
   -3.3129   -0.2454    2.7848 H   0  0  0  0  0  0  0  0  0  0  0  0
   -5.5305    0.1180    6.2821 H   0  0  0  0  0  0  0  0  0  0  0  0
   -4.3278    0.9639    6.9924 H   0  0  0  0  0  0  0  0  0  0  0  0
   -5.5851    1.7499    6.3083 H   0  0  0  0  0  0  0  0  0  0  0  0
   -3.7288    4.2782    4.8438 H   0  0  0  0  0  0  0  0  0  0  0  0
   -4.9592    3.4553    4.1542 H   0  0  0  0  0  0  0  0  0  0  0  0
   -4.8085    3.4878    5.7799 H   0  0  0  0  0  0  0  0  0  0  0  0
    2.8033    1.4714    1.8165 H   0  0  0  0  0  0  0  0  0  0  0  0
    2.8033    1.4714    0.1835 H   0  0  0  0  0  0  0  0  0  0  0  0
    2.6433   -0.9045    1.8165 H   0  0  0  0  0  0  0  0  0  0  0  0
    2.6433   -0.9045    0.1835 H   0  0  0  0  0  0  0  0  0  0  0  0
    4.9467   -0.5835    0.1471 H   0  0  0  0  0  0  0  0  0  0  0  0
    6.9850   -0.3908    1.2399 H   0  0  0  0  0  0  0  0  0  0  0  0
    6.9850    0.6589    2.4909 H   0  0  0  0  0  0  0  0  0  0  0  0
    6.9850   -0.9493    2.7745 H   0  0  0  0  0  0  0  0  0  0  0  0
  1  2  1  0  0  0  0
  2  3  1  0  0  0  0
  3  4  2  0  0  0  0
  4  5  1  0  0  0  0
  5  6  2  0  0  0  0
  6  7  1  0  0  0  0
  6  8  1  0  0  0  0
  8  2  2  0  0  0  0
  3  9  1  0  0  0  0
  9 10  1  0  0  0  0
 10 11  1  0  0  0  0
 11 12  2  0  0  0  0
 11 13  1  0  0  0  0
 13 14  1  0  0  0  0
 14 15  1  0  0  0  0
 15 16  1  0  0  0  0
 16 17  1  0  0  0  0
 17 18  1  0  0  0  0
 18 19  1  0  0  0  0
 19 14  1  0  0  0  0
 17 20  1  0  0  0  0
 16 21  1  0  0  0  0
 10 22  1  0  0  0  0
 22 23  1  0  0  0  0
 23 24  1  0  0  0  0
 24 25  1  0  0  0  0
 25 26  2  0  0  0  0
 25 27  1  0  0  0  0
 17 28  1  0  0  0  0
  4 29  1  0  0  0  0
  5 30  1  0  0  0  0
  8 31  1  0  0  0  0
  9 32  1  0  0  0  0
  9 33  1  0  0  0  0
 13 34  1  0  0  0  0
 14 35  1  0  0  0  0
 15 36  1  0  0  0  0
 15 37  1  0  0  0  0
 16 38  1  0  0  0  0
 18 39  1  0  0  0  0
 18 40  1  0  0  0  0
 19 41  1  0  0  0  0
 19 42  1  0  0  0  0
 20 43  1  0  0  0  0
 20 44  1  0  0  0  0
 20 45  1  0  0  0  0
 21 46  1  0  0  0  0
 21 47  1  0  0  0  0
 21 48  1  0  0  0  0
 22 49  1  0  0  0  0
 22 50  1  0  0  0  0
 23 51  1  0  0  0  0
 23 52  1  0  0  0  0
 24 53  1  0  0  0  0
 27 54  1  0  0  0  0
 27 55  1  0  0  0  0
 27 56  1  0  0  0  0
M  CHG  1  17   1
M  END
>  <result-rank>
15

>  <similarity>
0.950

>  <query-name>
LIG_A_1101_C[NH+](C)[C@H]([R*])C1CCC1_2

>  <query-smiles>
O=C(N[C@@H]([NH+](C)C)C1CCC1)[C@@H](NC(=O)C)Cc2ccc(O)cc2

>  <source>
REALspace_2019-12

>  <similarity-descriptor>
0.999;0.921;0.995;1.000;0.999;0.999;1.000;0.995;0.953;0.723;1.000;1.000;0.953;0.0;0.0

>  <similarity-descriptor-smiles>
C1CC[NH+]CC1;Clc1cc(ccc1)Cl;C=O;N;C1CC[NH+]CC1;C1CC[NH+]CC1;C;C;CNC;CN;C=O;C;CNC;;

>  <reaction-name>
s_2708

>  <reagent1-name>
5730620

>  <reagent1-smiles>
[R1*]C(=O)NC1CC(N(CC1)C)C

>  <reagent2-name>
9820842

>  <reagent2-smiles>
[R1*]N(Cc1c(Cl)cc(Cl)cc1)CCNC(=O)C

$$$$
s_22____2308218____17513450
          04022015093D 1   1.00000     0.00000     0
            
 49 50  0  0  0  0            999 V2000
    7.5173   -1.4612    2.1346 F   0  0  0  0  0  0  0  0  0  0  0  0
    7.4704   -1.9686    0.9061 C   0  0  0  0  0  0  0  0  0  0  0  0
    7.0329   -3.2234    0.9612 F   0  0  0  0  0  0  0  0  0  0  0  0
    8.6876   -1.9467    0.3706 F   0  0  0  0  0  0  0  0  0  0  0  0
    6.5257   -1.1397    0.0513 C   0  0  0  0  0  0  0  0  0  0  0  0
    5.1503   -1.3081    0.5375 N   0  3  3  0  0  0  0  0  0  0  0  0
    4.6019   -0.0359    1.0000 C   0  0  0  0  0  0  0  0  0  0  0  0
    3.1048   -0.2727    1.0000 C   0  0  3  0  0  0  0  0  0  0  0  0
    2.3700    1.0000    1.0000 N   0  0  0  0  0  0  0  0  0  0  0  0
    1.0000    1.0000    1.0000 C   0  0  0  0  0  0  0  0  0  0  0  0
    0.4000   -0.0392    1.0000 O   0  0  0  0  0  0  0  0  0  0  0  0
    0.2400    2.3164    1.0000 C   0  0  3  0  0  0  0  0  0  0  0  0
    0.9144    3.2716    0.1091 N   0  0  0  0  0  0  0  0  0  0  0  0
    0.2459    3.7951   -0.9660 C   0  0  0  0  0  0  0  0  0  0  0  0
   -0.8902    3.4738   -1.1805 O   0  0  0  0  0  0  0  0  0  0  0  0
    0.9433    4.7827   -1.8871 C   0  0  0  0  0  0  0  0  0  0  0  0
    0.2022    2.8796    2.4113 C   0  0  0  0  0  0  0  0  0  0  0  0
   -0.5578    4.1960    2.4113 C   0  0  0  0  0  0  0  0  0  0  0  0
   -1.9328    4.1924    2.6216 C   0  0  0  0  0  0  0  0  0  0  0  0
   -2.6323    5.3945    2.6232 C   0  0  0  0  0  0  0  0  0  0  0  0
   -1.9464    6.5869    2.4146 C   0  0  0  0  0  0  0  0  0  0  0  0
   -2.6214    7.7558    2.4150 O   0  0  0  0  0  0  0  0  0  0  0  0
   -0.5714    6.5960    2.2035 C   0  0  0  0  0  0  0  0  0  0  0  0
    0.1231    5.3910    2.2033 C   0  0  0  0  0  0  0  0  0  0  0  0
    2.9300   -1.0121   -0.3164 C   0  0  0  0  0  0  0  0  0  0  0  0
    4.2846   -1.6296   -0.6017 C   0  0  0  0  0  0  0  0  0  0  0  0
    5.0964   -2.0099    1.2479 H   0  0  0  0  0  0  0  0  0  0  0  0
    6.7837   -0.1753    0.1086 H   0  0  0  0  0  0  0  0  0  0  0  0
    6.5827   -1.4441   -0.8996 H   0  0  0  0  0  0  0  0  0  0  0  0
    4.8461    0.7062    0.3758 H   0  0  0  0  0  0  0  0  0  0  0  0
    4.9292    0.1808    1.9197 H   0  0  0  0  0  0  0  0  0  0  0  0
    2.8316   -0.8454    1.7729 H   0  0  0  0  0  0  0  0  0  0  0  0
    2.8700    1.8660    1.0000 H   0  0  0  0  0  0  0  0  0  0  0  0
   -0.6939    2.1621    0.6775 H   0  0  0  0  0  0  0  0  0  0  0  0
    1.8612    3.5392    0.2879 H   0  0  0  0  0  0  0  0  0  0  0  0
    1.8772    4.9370   -1.5647 H   0  0  0  0  0  0  0  0  0  0  0  0
    0.9682    4.4122   -2.8156 H   0  0  0  0  0  0  0  0  0  0  0  0
    0.4433    5.6488   -1.8871 H   0  0  0  0  0  0  0  0  0  0  0  0
   -0.2566    2.2298    3.0173 H   0  0  0  0  0  0  0  0  0  0  0  0
    1.1361    3.0339    2.7338 H   0  0  0  0  0  0  0  0  0  0  0  0
   -2.4161    3.3297    2.7709 H   0  0  0  0  0  0  0  0  0  0  0  0
   -3.6210    5.4018    2.7732 H   0  0  0  0  0  0  0  0  0  0  0  0
   -2.1327    8.6154    2.2655 H   0  0  0  0  0  0  0  0  0  0  0  0
   -0.0882    7.4586    2.0536 H   0  0  0  0  0  0  0  0  0  0  0  0
    1.1118    5.3837    2.0537 H   0  0  0  0  0  0  0  0  0  0  0  0
    2.6726   -0.3771   -1.0447 H   0  0  0  0  0  0  0  0  0  0  0  0
    2.2310   -1.7221   -0.2307 H   0  0  0  0  0  0  0  0  0  0  0  0
    4.1969   -2.6211   -0.6975 H   0  0  0  0  0  0  0  0  0  0  0  0
    4.6667   -1.2460   -1.4425 H   0  0  0  0  0  0  0  0  0  0  0  0
  1  2  1  0  0  0  0
  2  3  1  0  0  0  0
  2  4  1  0  0  0  0
  2  5  1  0  0  0  0
  5  6  1  0  0  0  0
  6  7  1  0  0  0  0
  7  8  1  0  0  0  0
  8  9  1  0  0  0  0
  9 10  1  0  0  0  0
 10 11  2  0  0  0  0
 10 12  1  0  0  0  0
 12 13  1  0  0  0  0
 13 14  1  0  0  0  0
 14 15  2  0  0  0  0
 14 16  1  0  0  0  0
 12 17  1  0  0  0  0
 17 18  1  0  0  0  0
 18 19  1  0  0  0  0
 19 20  2  0  0  0  0
 20 21  1  0  0  0  0
 21 22  1  0  0  0  0
 21 23  2  0  0  0  0
 23 24  1  0  0  0  0
 24 18  2  0  0  0  0
  8 25  1  0  0  0  0
 25 26  1  0  0  0  0
 26  6  1  0  0  0  0
  6 27  1  0  0  0  0
  5 28  1  0  0  0  0
  5 29  1  0  0  0  0
  7 30  1  0  0  0  0
  7 31  1  0  0  0  0
  8 32  1  0  0  0  0
  9 33  1  0  0  0  0
 12 34  1  0  0  0  0
 13 35  1  0  0  0  0
 16 36  1  0  0  0  0
 16 37  1  0  0  0  0
 16 38  1  0  0  0  0
 17 39  1  0  0  0  0
 17 40  1  0  0  0  0
 19 41  1  0  0  0  0
 20 42  1  0  0  0  0
 22 43  1  0  0  0  0
 23 44  1  0  0  0  0
 24 45  1  0  0  0  0
 25 46  1  0  0  0  0
 25 47  1  0  0  0  0
 26 48  1  0  0  0  0
 26 49  1  0  0  0  0
M  CHG  1   6   1
M  END
>  <result-rank>
16

>  <similarity>
0.950

>  <query-name>
LIG_A_1101_C[NH+](C)[C@H]([R*])C1CCC1_2

>  <query-smiles>
O=C(N[C@@H]([NH+](C)C)C1CCC1)[C@@H](NC(=O)C)Cc2ccc(O)cc2

>  <source>
REALspace_2019-12

>  <similarity-descriptor>
0.933;1.000;1.000;1.000;0.933;0.933;0.0;0.951;1.000;1.000;1.000;1.000;1.000;1.000;0.083

>  <similarity-descriptor-smiles>
[NH+]1CCCC1;c1ccccc1;C=O;N;[NH+]1CCCC1;[NH+]1CCCC1;;C;C;N;C=O;C;C;O;FC(F)F

>  <reaction-name>
s_22

>  <reagent1-name>
2308218

>  <reagent1-smiles>
[R1*]NC1CN(CC(F)(F)F)CC1

>  <reagent2-name>
17513450

>  <reagent2-smiles>
[R1*]C(=O)C(NC(=O)C)Cc1ccc(O)cc1

$$$$
s_22____15757826____17513450
          04022015093D 1   1.00000     0.00000     0
            
 53 54  0  0  0  0            999 V2000
    2.1006    0.3730   -1.2130 F   0  0  0  0  0  0  0  0  0  0  0  0
    2.9767    1.0000   -0.4331 C   0  0  0  0  0  0  0  0  0  0  0  0
    3.1244    2.2539   -0.8510 F   0  0  0  0  0  0  0  0  0  0  0  0
    4.3178    0.2823   -0.4972 C   0  0  0  0  0  0  0  0  0  0  0  0
    4.2827   -0.8263    0.3875 O   0  0  0  0  0  0  0  0  0  0  0  0
    5.4844   -1.5720    0.2597 C   0  0  0  0  0  0  0  0  0  0  0  0
    4.6913   -0.1615   -1.8954 C   0  0  0  0  0  0  0  0  0  0  0  0
    5.1390    1.1234   -2.5562 C   0  0  0  0  0  0  0  0  0  0  0  0
    5.9606    1.8078   -1.4797 C   0  0  0  0  0  0  0  0  0  0  0  0
    5.5075    1.1698   -0.1839 C   0  0  0  0  0  0  0  0  0  0  0  0
    2.4700    1.0000    1.0000 C   0  0  0  0  0  0  0  0  0  0  0  0
    1.0000    1.0000    1.0000 N   0  0  0  0  0  0  0  0  0  0  0  0
    0.3150    1.0000    2.1865 C   0  0  0  0  0  0  0  0  0  0  0  0
    0.9150    1.0000    3.2257 O   0  0  0  0  0  0  0  0  0  0  0  0
   -1.2050    1.0000    2.1865 C   0  0  3  0  0  0  0  0  0  0  0  0
   -1.6950    1.0000    3.5724 N   0  0  0  0  0  0  0  0  0  0  0  0
   -2.4826    2.0275    4.0205 C   0  0  0  0  0  0  0  0  0  0  0  0
   -2.7725    2.9275    3.2816 O   0  0  0  0  0  0  0  0  0  0  0  0
   -2.9893    2.0275    5.4535 C   0  0  0  0  0  0  0  0  0  0  0  0
   -1.7117   -0.2411    1.4699 C   0  0  0  0  0  0  0  0  0  0  0  0
   -3.2317   -0.2411    1.4699 C   0  0  0  0  0  0  0  0  0  0  0  0
   -3.9161    0.3644    0.4212 C   0  0  0  0  0  0  0  0  0  0  0  0
   -5.3069    0.3662    0.4166 C   0  0  0  0  0  0  0  0  0  0  0  0
   -5.9966   -0.2391    1.4624 C   0  0  0  0  0  0  0  0  0  0  0  0
   -7.3464   -0.2393    1.4621 O   0  0  0  0  0  0  0  0  0  0  0  0
   -5.3170   -0.8457    2.5138 C   0  0  0  0  0  0  0  0  0  0  0  0
   -3.9262   -0.8449    2.5131 C   0  0  0  0  0  0  0  0  0  0  0  0
    5.4596   -2.3534    0.8833 H   0  0  0  0  0  0  0  0  0  0  0  0
    5.5754   -1.8990   -0.6809 H   0  0  0  0  0  0  0  0  0  0  0  0
    6.2643   -0.9889    0.4869 H   0  0  0  0  0  0  0  0  0  0  0  0
    3.9032   -0.5534   -2.3700 H   0  0  0  0  0  0  0  0  0  0  0  0
    5.4337   -0.8311   -1.8730 H   0  0  0  0  0  0  0  0  0  0  0  0
    4.3530    1.6841   -2.8166 H   0  0  0  0  0  0  0  0  0  0  0  0
    5.6960    0.9342   -3.3648 H   0  0  0  0  0  0  0  0  0  0  0  0
    6.9369    1.6497   -1.6278 H   0  0  0  0  0  0  0  0  0  0  0  0
    5.7798    2.7912   -1.4704 H   0  0  0  0  0  0  0  0  0  0  0  0
    6.2488    0.6214    0.2030 H   0  0  0  0  0  0  0  0  0  0  0  0
    5.2410    1.8784    0.4695 H   0  0  0  0  0  0  0  0  0  0  0  0
    2.8033    0.1835    1.4714 H   0  0  0  0  0  0  0  0  0  0  0  0
    2.8033    1.8165    1.4714 H   0  0  0  0  0  0  0  0  0  0  0  0
    0.5000    1.0000    0.1340 H   0  0  0  0  0  0  0  0  0  0  0  0
   -1.5383    1.8165    1.7151 H   0  0  0  0  0  0  0  0  0  0  0  0
   -1.4534    0.2500    4.1881 H   0  0  0  0  0  0  0  0  0  0  0  0
   -2.6560    1.2110    5.9249 H   0  0  0  0  0  0  0  0  0  0  0  0
   -2.6560    2.8440    5.9249 H   0  0  0  0  0  0  0  0  0  0  0  0
   -3.9893    2.0275    5.4535 H   0  0  0  0  0  0  0  0  0  0  0  0
   -1.3783   -0.2411    0.5271 H   0  0  0  0  0  0  0  0  0  0  0  0
   -1.3783   -1.0576    1.9413 H   0  0  0  0  0  0  0  0  0  0  0  0
   -3.4106    0.7963   -0.3258 H   0  0  0  0  0  0  0  0  0  0  0  0
   -5.8076    0.7993   -0.3330 H   0  0  0  0  0  0  0  0  0  0  0  0
   -7.8465   -0.6731    2.2116 H   0  0  0  0  0  0  0  0  0  0  0  0
   -5.8224   -1.2771    3.2611 H   0  0  0  0  0  0  0  0  0  0  0  0
   -3.4255   -1.2783    3.2624 H   0  0  0  0  0  0  0  0  0  0  0  0
  1  2  1  0  0  0  0
  2  3  1  0  0  0  0
  2  4  1  0  0  0  0
  4  5  1  0  0  0  0
  5  6  1  0  0  0  0
  4  7  1  0  0  0  0
  7  8  1  0  0  0  0
  8  9  1  0  0  0  0
  9 10  1  0  0  0  0
 10  4  1  0  0  0  0
  2 11  1  0  0  0  0
 11 12  1  0  0  0  0
 12 13  1  0  0  0  0
 13 14  2  0  0  0  0
 13 15  1  0  0  0  0
 15 16  1  0  0  0  0
 16 17  1  0  0  0  0
 17 18  2  0  0  0  0
 17 19  1  0  0  0  0
 15 20  1  0  0  0  0
 20 21  1  0  0  0  0
 21 22  1  0  0  0  0
 22 23  2  0  0  0  0
 23 24  1  0  0  0  0
 24 25  1  0  0  0  0
 24 26  2  0  0  0  0
 26 27  1  0  0  0  0
 27 21  2  0  0  0  0
  6 28  1  0  0  0  0
  6 29  1  0  0  0  0
  6 30  1  0  0  0  0
  7 31  1  0  0  0  0
  7 32  1  0  0  0  0
  8 33  1  0  0  0  0
  8 34  1  0  0  0  0
  9 35  1  0  0  0  0
  9 36  1  0  0  0  0
 10 37  1  0  0  0  0
 10 38  1  0  0  0  0
 11 39  1  0  0  0  0
 11 40  1  0  0  0  0
 12 41  1  0  0  0  0
 15 42  1  0  0  0  0
 16 43  1  0  0  0  0
 19 44  1  0  0  0  0
 19 45  1  0  0  0  0
 19 46  1  0  0  0  0
 20 47  1  0  0  0  0
 20 48  1  0  0  0  0
 22 49  1  0  0  0  0
 23 50  1  0  0  0  0
 25 51  1  0  0  0  0
 26 52  1  0  0  0  0
 27 53  1  0  0  0  0
M  END
>  <result-rank>
17

>  <similarity>
0.950

>  <query-name>
LIG_A_1101_C[NH+](C)[C@H]([R*])C1CCC1_2

>  <query-smiles>
O=C(N[C@@H]([NH+](C)C)C1CCC1)[C@@H](NC(=O)C)Cc2ccc(O)cc2

>  <source>
REALspace_2019-12

>  <similarity-descriptor>
0.936;1.000;1.000;1.000;0.942;0.0;0.0;0.0;1.000;1.000;1.000;1.000;1.000;1.000;0.143

>  <similarity-descriptor-smiles>
FC(F)C1CCCC1;c1ccccc1;C=O;N;C;;;;C;N;C=O;C;C;O;O.C

>  <reaction-name>
s_22

>  <reagent1-name>
15757826

>  <reagent1-smiles>
[R1*]NCC(F)(F)C1(OC)CCCC1

>  <reagent2-name>
17513450

>  <reagent2-smiles>
[R1*]C(=O)C(NC(=O)C)Cc1ccc(O)cc1

$$$$
s_22____15248554____220032
          04022015093D 1   1.00000     0.00000     0
            
 54 55  0  0  0  0            999 V2000
    1.5239    0.5299   -2.6349 S   0  0  0  0  0  0  0  0  0  0  0  0
    2.6781    0.3655   -1.3961 C   0  0  0  0  0  0  0  0  0  0  0  0
    3.2192   -0.8774   -1.5074 C   0  0  0  0  0  0  0  0  0  0  0  0
    2.6651   -1.6331   -2.5775 C   0  0  0  0  0  0  0  0  0  0  0  0
    1.7023   -1.0184   -3.3205 C   0  0  0  0  0  0  0  0  0  0  0  0
    3.0267    1.4309   -0.3667 C   0  0  3  0  0  0  0  0  0  0  0  0
    4.4855    1.6046   -0.3161 N   0  0  0  0  0  0  0  0  0  0  0  0
    5.0404    2.8242   -0.6018 C   0  0  0  0  0  0  0  0  0  0  0  0
    4.3356    3.7506   -0.8934 O   0  0  0  0  0  0  0  0  0  0  0  0
    6.5489    3.0038   -0.5495 C   0  0  0  0  0  0  0  0  0  0  0  0
    2.5200    1.0000    1.0000 C   0  0  0  0  0  0  0  0  0  0  0  0
    1.0000    1.0000    1.0000 C   0  0  0  0  0  0  0  0  0  0  0  0
    0.4000    1.0000   -0.0392 O   0  0  0  0  0  0  0  0  0  0  0  0
    0.3150    1.0000    2.1865 N   0  0  0  0  0  0  0  0  0  0  0  0
   -1.1557    1.0000    2.1865 C   0  0  3  0  0  0  0  0  0  0  0  0
   -1.7133   -0.2261    2.8944 C   0  0  0  0  0  0  0  0  0  0  0  0
   -3.1849   -0.2214    2.9033 N   0  3  3  0  0  0  0  0  0  0  0  0
   -3.7111   -1.4256    3.5653 C   0  0  0  0  0  0  0  0  0  0  0  0
   -3.2317   -2.6623    2.8228 C   0  0  0  0  0  0  0  0  0  0  0  0
   -3.2146   -1.4724    5.0011 C   0  0  0  0  0  0  0  0  0  0  0  0
   -5.2306   -1.3861    3.5556 C   0  0  0  0  0  0  0  0  0  0  0  0
   -3.7107    0.9889    3.5522 C   0  0  0  0  0  0  0  0  0  0  0  0
   -3.1945    2.2365    2.8535 C   0  0  0  0  0  0  0  0  0  0  0  0
   -1.6744    2.2579    2.8654 C   0  0  0  0  0  0  0  0  0  0  0  0
   -3.5006   -0.2263    1.9545 H   0  0  0  0  0  0  0  0  0  0  0  0
    3.9333   -1.2242   -0.8993 H   0  0  0  0  0  0  0  0  0  0  0  0
    2.9662   -2.5662   -2.7742 H   0  0  0  0  0  0  0  0  0  0  0  0
    1.2061   -1.3962   -4.1022 H   0  0  0  0  0  0  0  0  0  0  0  0
    2.5967    2.2963   -0.6240 H   0  0  0  0  0  0  0  0  0  0  0  0
    5.0728    0.8326   -0.0731 H   0  0  0  0  0  0  0  0  0  0  0  0
    6.9789    2.1384   -0.2922 H   0  0  0  0  0  0  0  0  0  0  0  0
    6.8822    3.2873   -1.4486 H   0  0  0  0  0  0  0  0  0  0  0  0
    6.7779    3.7039    0.1269 H   0  0  0  0  0  0  0  0  0  0  0  0
    2.8533    0.0795    1.2041 H   0  0  0  0  0  0  0  0  0  0  0  0
    2.8533    1.6370    1.6951 H   0  0  0  0  0  0  0  0  0  0  0  0
    0.8150    1.0000    3.0525 H   0  0  0  0  0  0  0  0  0  0  0  0
   -1.4749    0.9941    1.2388 H   0  0  0  0  0  0  0  0  0  0  0  0
   -1.3939   -1.0474    2.4217 H   0  0  0  0  0  0  0  0  0  0  0  0
   -1.3827   -0.2348    3.8381 H   0  0  0  0  0  0  0  0  0  0  0  0
   -3.5893   -3.4807    3.2727 H   0  0  0  0  0  0  0  0  0  0  0  0
   -3.5583   -2.6315    1.8782 H   0  0  0  0  0  0  0  0  0  0  0  0
   -2.2321   -2.6883    2.8292 H   0  0  0  0  0  0  0  0  0  0  0  0
   -3.5722   -2.2908    5.4510 H   0  0  0  0  0  0  0  0  0  0  0  0
   -2.2149   -1.4984    5.0075 H   0  0  0  0  0  0  0  0  0  0  0  0
   -3.5300   -0.6588    5.4896 H   0  0  0  0  0  0  0  0  0  0  0  0
   -5.5881   -2.2045    4.0055 H   0  0  0  0  0  0  0  0  0  0  0  0
   -5.5460   -0.5725    4.0441 H   0  0  0  0  0  0  0  0  0  0  0  0
   -5.5572   -1.3553    2.6110 H   0  0  0  0  0  0  0  0  0  0  0  0
   -3.4184    1.0027    4.5085 H   0  0  0  0  0  0  0  0  0  0  0  0
   -4.7097    0.9775    3.5092 H   0  0  0  0  0  0  0  0  0  0  0  0
   -3.5393    3.0466    3.3277 H   0  0  0  0  0  0  0  0  0  0  0  0
   -3.5170    2.2418    1.9070 H   0  0  0  0  0  0  0  0  0  0  0  0
   -1.3466    3.0640    2.3728 H   0  0  0  0  0  0  0  0  0  0  0  0
   -1.3469    2.2883    3.8098 H   0  0  0  0  0  0  0  0  0  0  0  0
  1  2  1  0  0  0  0
  2  3  2  0  0  0  0
  3  4  1  0  0  0  0
  4  5  2  0  0  0  0
  5  1  1  0  0  0  0
  2  6  1  0  0  0  0
  6  7  1  0  0  0  0
  7  8  1  0  0  0  0
  8  9  2  0  0  0  0
  8 10  1  0  0  0  0
  6 11  1  0  0  0  0
 11 12  1  0  0  0  0
 12 13  2  0  0  0  0
 12 14  1  0  0  0  0
 14 15  1  0  0  0  0
 15 16  1  0  0  0  0
 16 17  1  0  0  0  0
 17 18  1  0  0  0  0
 18 19  1  0  0  0  0
 18 20  1  0  0  0  0
 18 21  1  0  0  0  0
 17 22  1  0  0  0  0
 22 23  1  0  0  0  0
 23 24  1  0  0  0  0
 24 15  1  0  0  0  0
 17 25  1  0  0  0  0
  3 26  1  0  0  0  0
  4 27  1  0  0  0  0
  5 28  1  0  0  0  0
  6 29  1  0  0  0  0
  7 30  1  0  0  0  0
 10 31  1  0  0  0  0
 10 32  1  0  0  0  0
 10 33  1  0  0  0  0
 11 34  1  0  0  0  0
 11 35  1  0  0  0  0
 14 36  1  0  0  0  0
 15 37  1  0  0  0  0
 16 38  1  0  0  0  0
 16 39  1  0  0  0  0
 19 40  1  0  0  0  0
 19 41  1  0  0  0  0
 19 42  1  0  0  0  0
 20 43  1  0  0  0  0
 20 44  1  0  0  0  0
 20 45  1  0  0  0  0
 21 46  1  0  0  0  0
 21 47  1  0  0  0  0
 21 48  1  0  0  0  0
 22 49  1  0  0  0  0
 22 50  1  0  0  0  0
 23 51  1  0  0  0  0
 23 52  1  0  0  0  0
 24 53  1  0  0  0  0
 24 54  1  0  0  0  0
M  CHG  1  17   1
M  END
>  <result-rank>
18

>  <similarity>
0.950

>  <query-name>
LIG_A_1101_C[NH+](C)[C@H]([R*])C1CCC1_2

>  <query-smiles>
O=C(N[C@@H]([NH+](C)C)C1CCC1)[C@@H](NC(=O)C)Cc2ccc(O)cc2

>  <source>
REALspace_2019-12

>  <similarity-descriptor>
0.986;0.924;1.000;1.000;0.986;0.986;0.0;0.976;1.000;1.000;1.000;1.000;1.000;0.0;0.154

>  <similarity-descriptor-smiles>
C1CCC[NH+]C1;S1C=CC=C1;C=O;N;C1CCC[NH+]C1;C1CCC[NH+]C1;;CC;CC;N;C=O;C;CC;;C.C

>  <reaction-name>
s_22

>  <reagent1-name>
15248554

>  <reagent1-smiles>
[R1*]NC1CN(C(C)(C)C)CCC1

>  <reagent2-name>
220032

>  <reagent2-smiles>
[R1*]C(=O)CC(NC(=O)C)C=1SC=CC1

$$$$
s_272212____16644262____14247350
          04022015093D 1   1.00000     0.00000     0
            
 49 51  0  0  0  0            999 V2000
   -0.3410   -3.5345    2.5887 F   0  0  0  0  0  0  0  0  0  0  0  0
    0.5682   -2.7858    1.9718 C   0  0  0  0  0  0  0  0  0  0  0  0
    0.4443   -1.4009    1.9759 C   0  0  0  0  0  0  0  0  0  0  0  0
    1.4078   -0.6373    1.3251 C   0  0  0  0  0  0  0  0  0  0  0  0
    2.4833   -1.2367    0.6773 C   0  0  0  0  0  0  0  0  0  0  0  0
    2.5968   -2.6231    0.6811 C   0  0  0  0  0  0  0  0  0  0  0  0
    1.6387   -3.3978    1.3277 C   0  0  0  0  0  0  0  0  0  0  0  0
    1.2739    0.8762    1.3276 C   0  0  0  0  0  0  0  0  0  0  0  0
    1.9945    1.4468    2.5386 C   0  0  3  0  0  0  0  0  0  0  0  0
    3.4189    1.1018    2.5147 N   0  0  0  0  0  0  0  0  0  0  0  0
    4.1555    2.2887    2.4892 C   0  0  0  0  0  0  0  0  0  0  0  0
    5.3743    2.3475    2.4635 O   0  0  0  0  0  0  0  0  0  0  0  0
    3.3018    3.3939    2.5029 N   0  0  0  0  0  0  0  0  0  0  0  0
    1.9798    2.9577    2.5312 C   0  0  0  0  0  0  0  0  0  0  0  0
    0.9852    3.6651    2.5372 O   0  0  0  0  0  0  0  0  0  0  0  0
    3.7349    4.7975    2.4885 C   0  0  3  0  0  0  0  0  0  0  0  0
    3.1462    5.4403    1.2367 C   0  0  0  0  0  0  0  0  0  0  0  0
    3.6274    6.7998    0.9172 N   0  3  3  0  0  0  0  0  0  0  0  0
    3.7351    7.7403    2.0499 C   0  0  0  0  0  0  0  0  0  0  0  0
    4.7886    7.3166    3.0716 C   0  0  0  0  0  0  0  0  0  0  0  0
    4.2707    6.5233    4.1977 N   0  3  3  0  0  0  0  0  0  0  0  0
    3.3195    5.4736    3.7872 C   0  0  0  0  0  0  0  0  0  0  0  0
    3.6091    7.3670    5.2031 C   0  0  0  0  0  0  0  0  0  0  0  0
    2.7033    7.3895   -0.0612 C   0  0  0  0  0  0  0  0  0  0  0  0
    4.5278    6.7207    0.4893 H   0  0  0  0  0  0  0  0  0  0  0  0
    5.0483    6.0753    4.6389 H   0  0  0  0  0  0  0  0  0  0  0  0
   -0.3250   -0.9609    2.4393 H   0  0  0  0  0  0  0  0  0  0  0  0
    3.1687   -0.6758    0.2130 H   0  0  0  0  0  0  0  0  0  0  0  0
    3.3669   -3.0630    0.2192 H   0  0  0  0  0  0  0  0  0  0  0  0
    1.7196   -4.3946    1.3294 H   0  0  0  0  0  0  0  0  0  0  0  0
    0.3062    1.1252    1.3677 H   0  0  0  0  0  0  0  0  0  0  0  0
    1.6794    1.2481    0.4926 H   0  0  0  0  0  0  0  0  0  0  0  0
    1.5740    1.1049    3.3790 H   0  0  0  0  0  0  0  0  0  0  0  0
    3.7980    0.1764    2.5163 H   0  0  0  0  0  0  0  0  0  0  0  0
    4.7322    4.8226    2.4208 H   0  0  0  0  0  0  0  0  0  0  0  0
    3.3618    4.8492    0.4594 H   0  0  0  0  0  0  0  0  0  0  0  0
    2.1543    5.4871    1.3547 H   0  0  0  0  0  0  0  0  0  0  0  0
    2.8478    7.7917    2.5082 H   0  0  0  0  0  0  0  0  0  0  0  0
    3.9794    8.6424    1.6942 H   0  0  0  0  0  0  0  0  0  0  0  0
    5.4797    6.7705    2.5979 H   0  0  0  0  0  0  0  0  0  0  0  0
    5.2131    8.1428    3.4420 H   0  0  0  0  0  0  0  0  0  0  0  0
    2.4180    5.8875    3.6609 H   0  0  0  0  0  0  0  0  0  0  0  0
    3.2710    4.7829    4.5087 H   0  0  0  0  0  0  0  0  0  0  0  0
    4.2361    8.0882    5.4978 H   0  0  0  0  0  0  0  0  0  0  0  0
    2.7898    7.7797    4.8050 H   0  0  0  0  0  0  0  0  0  0  0  0
    3.3513    6.8072    5.9906 H   0  0  0  0  0  0  0  0  0  0  0  0
    3.0088    8.3128   -0.2939 H   0  0  0  0  0  0  0  0  0  0  0  0
    2.6876    6.8256   -0.8868 H   0  0  0  0  0  0  0  0  0  0  0  0
    1.7845    7.4315    0.3313 H   0  0  0  0  0  0  0  0  0  0  0  0
  1  2  1  0  0  0  0
  2  3  1  0  0  0  0
  3  4  2  0  0  0  0
  4  5  1  0  0  0  0
  5  6  2  0  0  0  0
  6  7  1  0  0  0  0
  7  2  2  0  0  0  0
  4  8  1  0  0  0  0
  8  9  1  0  0  0  0
  9 10  1  0  0  0  0
 10 11  1  0  0  0  0
 11 12  2  0  0  0  0
 11 13  1  0  0  0  0
 13 14  1  0  0  0  0
 14  9  1  0  0  0  0
 14 15  2  0  0  0  0
 13 16  1  0  0  0  0
 16 17  1  0  0  0  0
 17 18  1  0  0  0  0
 18 19  1  0  0  0  0
 19 20  1  0  0  0  0
 20 21  1  0  0  0  0
 21 22  1  0  0  0  0
 22 16  1  0  0  0  0
 21 23  1  0  0  0  0
 18 24  1  0  0  0  0
 18 25  1  0  0  0  0
 21 26  1  0  0  0  0
  3 27  1  0  0  0  0
  5 28  1  0  0  0  0
  6 29  1  0  0  0  0
  7 30  1  0  0  0  0
  8 31  1  0  0  0  0
  8 32  1  0  0  0  0
  9 33  1  0  0  0  0
 10 34  1  0  0  0  0
 16 35  1  0  0  0  0
 17 36  1  0  0  0  0
 17 37  1  0  0  0  0
 19 38  1  0  0  0  0
 19 39  1  0  0  0  0
 20 40  1  0  0  0  0
 20 41  1  0  0  0  0
 22 42  1  0  0  0  0
 22 43  1  0  0  0  0
 23 44  1  0  0  0  0
 23 45  1  0  0  0  0
 23 46  1  0  0  0  0
 24 47  1  0  0  0  0
 24 48  1  0  0  0  0
 24 49  1  0  0  0  0
M  CHG  2  18   1  21   1
M  END
>  <result-rank>
19

>  <similarity>
0.950

>  <query-name>
LIG_A_1101_C[NH+](C)[C@H]([R*])C1CCC1_2

>  <query-smiles>
O=C(N[C@@H]([NH+](C)C)C1CCC1)[C@@H](NC(=O)C)Cc2ccc(O)cc2

>  <source>
REALspace_2019-12

>  <similarity-descriptor>
0.989;0.983;0.893;0.989;0.989;0.989;1.000;1.000;0.893;0.893;0.893;0.0;1.000;0.0;0.0

>  <similarity-descriptor-smiles>
C1C[NH+]CC[NH+]C1;Fc1ccccc1;C1C(NC(N1)=O)=O;C1C[NH+]CC[NH+]C1;C1C[NH+]CC[NH+]C1;C1C[NH+]CC[NH+]C1;C;C;C1C(NC(N1)=O)=O;C1C(NC(N1)=O)=O;C1C(NC(N1)=O)=O;;C;;

>  <reaction-name>
s_272212

>  <reagent1-name>
16644262

>  <reagent1-smiles>
[R2*]N(C([R1*])=O)C1CN(CCN(C1)C)C

>  <reagent2-name>
14247350

>  <reagent2-smiles>
[R1*]NC(C([R2*])=O)Cc1cc(F)ccc1

$$$$
s_240690b____11576150____16478382
          04022015093D 1   1.00000     0.00000     0
            
 57 58  0  0  0  0            999 V2000
    4.1399    6.3669    5.6527 F   0  0  0  0  0  0  0  0  0  0  0  0
    3.3989    5.4805    4.9932 C   0  0  0  0  0  0  0  0  0  0  0  0
    3.0177    5.7375    3.6803 C   0  0  0  0  0  0  0  0  0  0  0  0
    2.2420    4.8063    2.9973 C   0  0  0  0  0  0  0  0  0  0  0  0
    1.8576    3.6310    3.6341 C   0  0  0  0  0  0  0  0  0  0  0  0
    2.2420    3.3791    4.9466 C   0  0  0  0  0  0  0  0  0  0  0  0
    3.0178    4.3063    5.6343 C   0  0  0  0  0  0  0  0  0  0  0  0
    1.0100    2.6179    2.8824 C   0  0  0  0  0  0  0  0  0  0  0  0
    1.8776    1.8776    1.8776 C   0  0  3  0  0  0  0  0  0  0  0  0
    2.8824    1.0100    2.6179 C   0  0  0  0  0  0  0  0  0  0  0  0
    2.5270    0.3416    3.5489 O   0  0  0  0  0  0  0  0  0  0  0  0
    4.1939    0.9912    2.2222 N   0  0  0  0  0  0  0  0  0  0  0  0
    5.1178   -0.0030    2.7869 C   0  0  0  0  0  0  0  0  0  0  0  0
    4.6772    1.9652    1.2329 C   0  0  0  0  0  0  0  0  0  0  0  0
    1.0000    1.0000    1.0000 C   0  0  0  0  0  0  0  0  0  0  0  0
    1.8487    0.1513    0.1513 N   0  0  0  0  0  0  0  0  0  0  0  0
    2.0760   -1.1545    0.4979 C   0  0  0  0  0  0  0  0  0  0  0  0
    1.4461   -1.6577    1.3868 O   0  0  0  0  0  0  0  0  0  0  0  0
    3.1261   -1.9661   -0.2436 C   0  0  3  0  0  0  0  0  0  0  0  0
    3.7682   -1.0956   -1.3101 C   0  0  0  0  0  0  0  0  0  0  0  0
    4.3773   -1.9316   -2.3574 N   0  3  0  0  0  0  0  0  0  0  0  0
    4.8070   -3.2321   -1.8063 C   0  0  0  0  0  0  0  0  0  0  0  0
    3.5982   -4.0896   -1.4478 C   0  0  0  0  0  0  0  0  0  0  0  0
    2.5038   -3.1183   -1.0169 C   0  0  0  0  0  0  0  0  0  0  0  0
    3.9885   -5.0576   -0.3401 C   0  0  0  0  0  0  0  0  0  0  0  0
    3.0700   -4.8649   -2.6419 C   0  0  0  0  0  0  0  0  0  0  0  0
    3.7071   -2.0883   -3.0829 H   0  0  0  0  0  0  0  0  0  0  0  0
    5.1722   -1.4567   -2.7349 H   0  0  0  0  0  0  0  0  0  0  0  0
    3.2991    6.5852    3.2307 H   0  0  0  0  0  0  0  0  0  0  0  0
    1.9623    4.9809    2.0533 H   0  0  0  0  0  0  0  0  0  0  0  0
    1.9606    2.5312    5.3960 H   0  0  0  0  0  0  0  0  0  0  0  0
    3.2981    4.1310    6.5781 H   0  0  0  0  0  0  0  0  0  0  0  0
    0.2728    3.0918    2.4009 H   0  0  0  0  0  0  0  0  0  0  0  0
    0.6188    1.9643    3.5304 H   0  0  0  0  0  0  0  0  0  0  0  0
    2.3646    2.5386    1.3068 H   0  0  0  0  0  0  0  0  0  0  0  0
    6.0273    0.1247    2.3914 H   0  0  0  0  0  0  0  0  0  0  0  0
    5.1664    0.1128    3.7789 H   0  0  0  0  0  0  0  0  0  0  0  0
    4.7881   -0.9229    2.5744 H   0  0  0  0  0  0  0  0  0  0  0  0
    5.6499    1.8104    1.0604 H   0  0  0  0  0  0  0  0  0  0  0  0
    4.1660    1.8560    0.3804 H   0  0  0  0  0  0  0  0  0  0  0  0
    4.5443    2.8917    1.5849 H   0  0  0  0  0  0  0  0  0  0  0  0
    0.4226    0.4226    1.5774 H   0  0  0  0  0  0  0  0  0  0  0  0
    0.4226    1.5774    0.4226 H   0  0  0  0  0  0  0  0  0  0  0  0
    2.2602    0.5271   -0.6791 H   0  0  0  0  0  0  0  0  0  0  0  0
    3.8183   -2.3062    0.3930 H   0  0  0  0  0  0  0  0  0  0  0  0
    3.0700   -0.5094   -1.7211 H   0  0  0  0  0  0  0  0  0  0  0  0
    4.4753   -0.5272   -0.8896 H   0  0  0  0  0  0  0  0  0  0  0  0
    5.3544   -3.0758   -0.9841 H   0  0  0  0  0  0  0  0  0  0  0  0
    5.3593   -3.7116   -2.4882 H   0  0  0  0  0  0  0  0  0  0  0  0
    1.8458   -3.5946   -0.4337 H   0  0  0  0  0  0  0  0  0  0  0  0
    2.0358   -2.7628   -1.8260 H   0  0  0  0  0  0  0  0  0  0  0  0
    3.2003   -5.6239   -0.0993 H   0  0  0  0  0  0  0  0  0  0  0  0
    4.7351   -5.6427   -0.6566 H   0  0  0  0  0  0  0  0  0  0  0  0
    4.2865   -4.5421    0.4633 H   0  0  0  0  0  0  0  0  0  0  0  0
    2.2806   -5.4112   -2.3619 H   0  0  0  0  0  0  0  0  0  0  0  0
    2.7950   -4.2251   -3.3596 H   0  0  0  0  0  0  0  0  0  0  0  0
    3.7866   -5.4690   -2.9906 H   0  0  0  0  0  0  0  0  0  0  0  0
  1  2  1  0  0  0  0
  2  3  1  0  0  0  0
  3  4  2  0  0  0  0
  4  5  1  0  0  0  0
  5  6  2  0  0  0  0
  6  7  1  0  0  0  0
  7  2  2  0  0  0  0
  5  8  1  0  0  0  0
  8  9  1  0  0  0  0
  9 10  1  0  0  0  0
 10 11  2  0  0  0  0
 10 12  1  0  0  0  0
 12 13  1  0  0  0  0
 12 14  1  0  0  0  0
  9 15  1  0  0  0  0
 15 16  1  0  0  0  0
 16 17  1  0  0  0  0
 17 18  2  0  0  0  0
 17 19  1  0  0  0  0
 19 20  1  0  0  0  0
 20 21  1  0  0  0  0
 21 22  1  0  0  0  0
 22 23  1  0  0  0  0
 23 24  1  0  0  0  0
 24 19  1  0  0  0  0
 23 25  1  0  0  0  0
 23 26  1  0  0  0  0
 21 27  1  0  0  0  0
 21 28  1  0  0  0  0
  3 29  1  0  0  0  0
  4 30  1  0  0  0  0
  6 31  1  0  0  0  0
  7 32  1  0  0  0  0
  8 33  1  0  0  0  0
  8 34  1  0  0  0  0
  9 35  1  0  0  0  0
 13 36  1  0  0  0  0
 13 37  1  0  0  0  0
 13 38  1  0  0  0  0
 14 39  1  0  0  0  0
 14 40  1  0  0  0  0
 14 41  1  0  0  0  0
 15 42  1  0  0  0  0
 15 43  1  0  0  0  0
 16 44  1  0  0  0  0
 19 45  1  0  0  0  0
 20 46  1  0  0  0  0
 20 47  1  0  0  0  0
 22 48  1  0  0  0  0
 22 49  1  0  0  0  0
 24 50  1  0  0  0  0
 24 51  1  0  0  0  0
 25 52  1  0  0  0  0
 25 53  1  0  0  0  0
 25 54  1  0  0  0  0
 26 55  1  0  0  0  0
 26 56  1  0  0  0  0
 26 57  1  0  0  0  0
M  CHG  1  21   1
M  END
>  <result-rank>
20

>  <similarity>
0.949

>  <query-name>
LIG_A_1101_C[NH+](C)[C@H]([R*])C1CCC1_2

>  <query-smiles>
O=C(N[C@@H]([NH+](C)C)C1CCC1)[C@@H](NC(=O)C)Cc2ccc(O)cc2

>  <source>
REALspace_2019-12

>  <similarity-descriptor>
0.949;0.983;1.000;0.949;0.949;0.949;0.995;0.995;0.824;0.824;1.000;0.977;1.000;0.0;0.077

>  <similarity-descriptor-smiles>
C1CCC[NH2+]C1;Fc1ccccc1;C=O;C1CCC[NH2+]C1;C1CCC[NH2+]C1;C1CCC[NH2+]C1;C;C;CCN;CCN;C=O;NC;C;;C

>  <reaction-name>
s_240690b

>  <reagent1-name>
11576150

>  <reagent1-smiles>
[R1*]NCC(C(=O)N(C)C)Cc1ccc(F)cc1

>  <reagent2-name>
16478382

>  <reagent2-smiles>
[R1*]C(=O)C1CNCC(C1)(C)C

$$$$
s_22____4974264____107338
          04022015093D 1   1.00000     0.00000     0
            
 68 69  0  0  0  0            999 V2000
    6.4582    0.0491    3.6844 O   0  0  0  0  0  0  0  0  0  0  0  0
    6.0054    0.2534    4.7768 C   0  0  0  0  0  0  0  0  0  0  0  0
    4.8853    1.0290    4.9199 N   0  0  0  0  0  0  0  0  0  0  0  0
    4.1742    1.5203    3.7303 C   0  0  3  0  0  0  0  0  0  0  0  0
    4.1485    3.0405    3.7227 C   0  0  3  0  0  0  0  0  0  0  0  0
    3.3883    3.5407    2.5048 C   0  0  0  0  0  0  0  0  0  0  0  0
    2.0190    3.0044    2.4864 N   0  3  3  0  0  0  0  0  0  0  0  0
    2.0079    1.5337    2.5144 C   0  0  0  0  0  0  0  0  0  0  0  0
    2.7425    1.0069    3.7376 C   0  0  0  0  0  0  0  0  0  0  0  0
    1.2741    3.5096    1.3245 C   0  0  0  0  0  0  0  0  0  0  0  0
    1.2041    5.0267    1.3881 C   0  0  0  0  0  0  0  0  0  0  0  0
    0.4337    5.5492    0.1865 C   0  0  0  0  0  0  0  0  0  0  0  0
    0.3683    6.9664    0.2460 O   0  0  0  0  0  0  0  0  0  0  0  0
   -0.3514    7.4545   -0.8766 C   0  0  0  0  0  0  0  0  0  0  0  0
   -0.4214    8.9716   -0.8130 C   0  0  0  0  0  0  0  0  0  0  0  0
    5.5730    3.5722    3.7253 C   0  0  0  0  0  0  0  0  0  0  0  0
    6.6748   -0.3485    6.0016 C   0  0  0  0  0  0  0  0  0  0  0  0
    8.0884   -0.7794    5.6461 C   0  0  3  0  0  0  0  0  0  0  0  0
    8.6725   -1.5212    6.7728 N   0  0  0  0  0  0  0  0  0  0  0  0
    9.0810   -2.8176    6.6012 C   0  0  0  0  0  0  0  0  0  0  0  0
    8.9621   -3.3475    5.5312 O   0  0  0  0  0  0  0  0  0  0  0  0
    9.6850   -3.5846    7.7663 C   0  0  0  0  0  0  0  0  0  0  0  0
    8.9347    0.4493    5.3553 C   0  0  0  0  0  0  0  0  0  0  0  0
    9.0655    1.4358    6.3272 C   0  0  0  0  0  0  0  0  0  0  0  0
    9.8394    2.5615    6.0658 C   0  0  0  0  0  0  0  0  0  0  0  0
   10.4741    2.6861    4.8340 C   0  0  0  0  0  0  0  0  0  0  0  0
   11.2259    3.7771    4.5760 O   0  0  0  0  0  0  0  0  0  0  0  0
   11.6239    4.0663    3.2440 C   0  0  0  0  0  0  0  0  0  0  0  0
   10.3462    1.7025    3.8584 C   0  0  0  0  0  0  0  0  0  0  0  0
    9.5714    0.5788    4.1253 C   0  0  0  0  0  0  0  0  0  0  0  0
    1.5541    3.3282    3.3104 H   0  0  0  0  0  0  0  0  0  0  0  0
    4.5513    1.2611    5.8335 H   0  0  0  0  0  0  0  0  0  0  0  0
    4.6392    1.1928    2.9078 H   0  0  0  0  0  0  0  0  0  0  0  0
    3.6828    3.3600    4.5480 H   0  0  0  0  0  0  0  0  0  0  0  0
    3.3487    4.5396    2.5306 H   0  0  0  0  0  0  0  0  0  0  0  0
    3.8663    3.2474    1.6768 H   0  0  0  0  0  0  0  0  0  0  0  0
    2.4552    1.1874    1.6899 H   0  0  0  0  0  0  0  0  0  0  0  0
    1.0606    1.2142    2.5390 H   0  0  0  0  0  0  0  0  0  0  0  0
    2.2795    1.3226    4.5659 H   0  0  0  0  0  0  0  0  0  0  0  0
    2.7469    0.0071    3.7187 H   0  0  0  0  0  0  0  0  0  0  0  0
    0.3480    3.1326    1.3327 H   0  0  0  0  0  0  0  0  0  0  0  0
    1.7395    3.2323    0.4839 H   0  0  0  0  0  0  0  0  0  0  0  0
    0.7388    5.3039    2.2287 H   0  0  0  0  0  0  0  0  0  0  0  0
    2.1303    5.4037    1.3799 H   0  0  0  0  0  0  0  0  0  0  0  0
    0.8991    5.2719   -0.6541 H   0  0  0  0  0  0  0  0  0  0  0  0
   -0.4924    5.1721    0.1947 H   0  0  0  0  0  0  0  0  0  0  0  0
   -1.2775    7.0775   -0.8684 H   0  0  0  0  0  0  0  0  0  0  0  0
    0.1140    7.1773   -1.7172 H   0  0  0  0  0  0  0  0  0  0  0  0
   -0.9282    9.3153   -1.6035 H   0  0  0  0  0  0  0  0  0  0  0  0
   -0.8867    9.2488    0.0276 H   0  0  0  0  0  0  0  0  0  0  0  0
    0.5048    9.3486   -0.8212 H   0  0  0  0  0  0  0  0  0  0  0  0
    5.5556    4.5721    3.7203 H   0  0  0  0  0  0  0  0  0  0  0  0
    6.0471    3.2512    4.5452 H   0  0  0  0  0  0  0  0  0  0  0  0
    6.0531    3.2431    2.9122 H   0  0  0  0  0  0  0  0  0  0  0  0
    6.1519   -1.1429    6.3106 H   0  0  0  0  0  0  0  0  0  0  0  0
    6.7080    0.3335    6.7322 H   0  0  0  0  0  0  0  0  0  0  0  0
    8.0643   -1.3667    4.8370 H   0  0  0  0  0  0  0  0  0  0  0  0
    8.7716   -1.0796    7.6645 H   0  0  0  0  0  0  0  0  0  0  0  0
    9.7090   -2.9974    8.5753 H   0  0  0  0  0  0  0  0  0  0  0  0
    9.1282   -4.3930    7.9576 H   0  0  0  0  0  0  0  0  0  0  0  0
   10.6150   -3.8681    7.5324 H   0  0  0  0  0  0  0  0  0  0  0  0
    8.6053    1.3362    7.2094 H   0  0  0  0  0  0  0  0  0  0  0  0
    9.9390    3.2761    6.7583 H   0  0  0  0  0  0  0  0  0  0  0  0
   12.1711    4.9032    3.2339 H   0  0  0  0  0  0  0  0  0  0  0  0
   12.1686    3.3076    2.8867 H   0  0  0  0  0  0  0  0  0  0  0  0
   10.8124    4.1917    2.6734 H   0  0  0  0  0  0  0  0  0  0  0  0
   10.8059    1.8023    2.9760 H   0  0  0  0  0  0  0  0  0  0  0  0
    9.4721   -0.1360    3.4331 H   0  0  0  0  0  0  0  0  0  0  0  0
  1  2  2  0  0  0  0
  2  3  1  0  0  0  0
  3  4  1  0  0  0  0
  4  5  1  0  0  0  0
  5  6  1  0  0  0  0
  6  7  1  0  0  0  0
  7  8  1  0  0  0  0
  8  9  1  0  0  0  0
  9  4  1  0  0  0  0
  7 10  1  0  0  0  0
 10 11  1  0  0  0  0
 11 12  1  0  0  0  0
 12 13  1  0  0  0  0
 13 14  1  0  0  0  0
 14 15  1  0  0  0  0
  5 16  1  0  0  0  0
  2 17  1  0  0  0  0
 17 18  1  0  0  0  0
 18 19  1  0  0  0  0
 19 20  1  0  0  0  0
 20 21  2  0  0  0  0
 20 22  1  0  0  0  0
 18 23  1  0  0  0  0
 23 24  1  0  0  0  0
 24 25  2  0  0  0  0
 25 26  1  0  0  0  0
 26 27  1  0  0  0  0
 27 28  1  0  0  0  0
 26 29  2  0  0  0  0
 29 30  1  0  0  0  0
 30 23  2  0  0  0  0
  7 31  1  0  0  0  0
  3 32  1  0  0  0  0
  4 33  1  0  0  0  0
  5 34  1  0  0  0  0
  6 35  1  0  0  0  0
  6 36  1  0  0  0  0
  8 37  1  0  0  0  0
  8 38  1  0  0  0  0
  9 39  1  0  0  0  0
  9 40  1  0  0  0  0
 10 41  1  0  0  0  0
 10 42  1  0  0  0  0
 11 43  1  0  0  0  0
 11 44  1  0  0  0  0
 12 45  1  0  0  0  0
 12 46  1  0  0  0  0
 14 47  1  0  0  0  0
 14 48  1  0  0  0  0
 15 49  1  0  0  0  0
 15 50  1  0  0  0  0
 15 51  1  0  0  0  0
 16 52  1  0  0  0  0
 16 53  1  0  0  0  0
 16 54  1  0  0  0  0
 17 55  1  0  0  0  0
 17 56  1  0  0  0  0
 18 57  1  0  0  0  0
 19 58  1  0  0  0  0
 22 59  1  0  0  0  0
 22 60  1  0  0  0  0
 22 61  1  0  0  0  0
 24 62  1  0  0  0  0
 25 63  1  0  0  0  0
 28 64  1  0  0  0  0
 28 65  1  0  0  0  0
 28 66  1  0  0  0  0
 29 67  1  0  0  0  0
 30 68  1  0  0  0  0
M  CHG  1   7   1
M  END
>  <result-rank>
21

>  <similarity>
0.949

>  <query-name>
LIG_A_1101_C[NH+](C)[C@H]([R*])C1CCC1_2

>  <query-smiles>
O=C(N[C@@H]([NH+](C)C)C1CCC1)[C@@H](NC(=O)C)Cc2ccc(O)cc2

>  <source>
REALspace_2019-12

>  <similarity-descriptor>
0.999;1.000;1.000;1.000;0.999;0.999;0.951;0.995;1.000;1.000;1.000;1.000;1.000;0.704;0.333

>  <similarity-descriptor-smiles>
C1CC[NH+]CC1;c1ccccc1;O=C;N;C1CC[NH+]CC1;C1CC[NH+]CC1;C;C;CC;N;C=O;C;CC;O;C.C.O.C.C.C

>  <reaction-name>
s_22

>  <reagent1-name>
4974264

>  <reagent1-smiles>
[R1*]NC1C(CN(CC1)CCCOCC)C

>  <reagent2-name>
107338

>  <reagent2-smiles>
[R1*]C(=O)CC(NC(=O)C)c1ccc(OC)cc1

$$$$
s_22____9044506____12900018
          04022015093D 1   1.00000     0.00000     0
            
 48 49  0  0  0  0            999 V2000
    3.0383    3.2257   -0.4661 O   0  0  0  0  0  0  0  0  0  0  0  0
    3.2383    2.1865   -1.0318 C   0  0  0  0  0  0  0  0  0  0  0  0
    3.0100    1.0000   -0.3859 N   0  0  0  0  0  0  0  0  0  0  0  0
    3.2434   -0.2126   -1.0460 C   0  0  0  0  0  0  0  0  0  0  0  0
    2.2184   -0.8090   -1.7736 C   0  0  0  0  0  0  0  0  0  0  0  0
    2.4541   -2.0135   -2.4281 C   0  0  0  0  0  0  0  0  0  0  0  0
    3.7069   -2.6126   -2.3521 C   0  0  0  0  0  0  0  0  0  0  0  0
    4.7243   -2.0071   -1.6223 C   0  0  0  0  0  0  0  0  0  0  0  0
    4.5003   -0.8027   -0.9635 C   0  0  0  0  0  0  0  0  0  0  0  0
    2.5200    1.0000    1.0000 C   0  0  0  0  0  0  0  0  0  0  0  0
    1.0000    1.0000    1.0000 C   0  0  0  0  0  0  0  0  0  0  0  0
    0.4000    1.0000   -0.0392 O   0  0  0  0  0  0  0  0  0  0  0  0
    0.3150    1.0000    2.1865 N   0  0  0  0  0  0  0  0  0  0  0  0
   -1.1555    1.0000    2.1865 C   0  0  3  0  0  0  0  0  0  0  0  0
   -1.7202    2.2151    2.8880 C   0  0  3  0  0  0  0  0  0  0  0  0
   -1.6146    3.3688    1.9837 N   0  3  0  0  0  0  0  0  0  0  0  0
   -2.3767    3.1002    0.7557 C   0  0  0  0  0  0  0  0  0  0  0  0
   -2.1586    4.5626    2.6468 C   0  0  0  0  0  0  0  0  0  0  0  0
   -3.1727    1.8364    3.0912 C   0  0  0  0  0  0  0  0  0  0  0  0
   -3.1757    0.3277    3.2450 C   0  0  0  0  0  0  0  0  0  0  0  0
   -1.7301   -0.0958    3.0507 C   0  0  0  0  0  0  0  0  0  0  0  0
    3.7450    2.1865   -2.4648 C   0  0  0  0  0  0  0  0  0  0  0  0
   -0.6541    3.5244    1.7526 H   0  0  0  0  0  0  0  0  0  0  0  0
    1.3190   -0.3750   -1.8256 H   0  0  0  0  0  0  0  0  0  0  0  0
    1.7228   -2.4486   -2.9533 H   0  0  0  0  0  0  0  0  0  0  0  0
    3.8762   -3.4789   -2.8222 H   0  0  0  0  0  0  0  0  0  0  0  0
    5.6238   -2.4410   -1.5707 H   0  0  0  0  0  0  0  0  0  0  0  0
    5.2318   -0.3676   -0.4386 H   0  0  0  0  0  0  0  0  0  0  0  0
    2.8533    1.8165    1.4714 H   0  0  0  0  0  0  0  0  0  0  0  0
    2.8533    0.1835    1.4714 H   0  0  0  0  0  0  0  0  0  0  0  0
    0.8150    1.0000    3.0525 H   0  0  0  0  0  0  0  0  0  0  0  0
   -1.5086    0.9353    1.2531 H   0  0  0  0  0  0  0  0  0  0  0  0
   -1.2585    2.3858    3.7585 H   0  0  0  0  0  0  0  0  0  0  0  0
   -2.3048    3.8852    0.1404 H   0  0  0  0  0  0  0  0  0  0  0  0
   -2.0065    2.2881    0.3046 H   0  0  0  0  0  0  0  0  0  0  0  0
   -3.3371    2.9446    0.9867 H   0  0  0  0  0  0  0  0  0  0  0  0
   -2.0868    5.3476    2.0315 H   0  0  0  0  0  0  0  0  0  0  0  0
   -3.1191    4.4070    2.8778 H   0  0  0  0  0  0  0  0  0  0  0  0
   -1.6402    4.7453    3.4822 H   0  0  0  0  0  0  0  0  0  0  0  0
   -3.7197    2.1088    2.2996 H   0  0  0  0  0  0  0  0  0  0  0  0
   -3.5366    2.2730    3.9140 H   0  0  0  0  0  0  0  0  0  0  0  0
   -3.7608   -0.0942    2.5524 H   0  0  0  0  0  0  0  0  0  0  0  0
   -3.4974    0.0688    4.1558 H   0  0  0  0  0  0  0  0  0  0  0  0
   -1.2518   -0.1476    3.9273 H   0  0  0  0  0  0  0  0  0  0  0  0
   -1.6760   -0.9810    2.5886 H   0  0  0  0  0  0  0  0  0  0  0  0
    3.8561    1.2436   -2.7791 H   0  0  0  0  0  0  0  0  0  0  0  0
    3.0863    2.6579   -3.0513 H   0  0  0  0  0  0  0  0  0  0  0  0
    4.6259    2.6579   -2.5069 H   0  0  0  0  0  0  0  0  0  0  0  0
  1  2  2  0  0  0  0
  2  3  1  0  0  0  0
  3  4  1  0  0  0  0
  4  5  1  0  0  0  0
  5  6  2  0  0  0  0
  6  7  1  0  0  0  0
  7  8  2  0  0  0  0
  8  9  1  0  0  0  0
  9  4  2  0  0  0  0
  3 10  1  0  0  0  0
 10 11  1  0  0  0  0
 11 12  2  0  0  0  0
 11 13  1  0  0  0  0
 13 14  1  0  0  0  0
 14 15  1  0  0  0  0
 15 16  1  0  0  0  0
 16 17  1  0  0  0  0
 16 18  1  0  0  0  0
 15 19  1  0  0  0  0
 19 20  1  0  0  0  0
 20 21  1  0  0  0  0
 21 14  1  0  0  0  0
  2 22  1  0  0  0  0
 16 23  1  0  0  0  0
  5 24  1  0  0  0  0
  6 25  1  0  0  0  0
  7 26  1  0  0  0  0
  8 27  1  0  0  0  0
  9 28  1  0  0  0  0
 10 29  1  0  0  0  0
 10 30  1  0  0  0  0
 13 31  1  0  0  0  0
 14 32  1  0  0  0  0
 15 33  1  0  0  0  0
 17 34  1  0  0  0  0
 17 35  1  0  0  0  0
 17 36  1  0  0  0  0
 18 37  1  0  0  0  0
 18 38  1  0  0  0  0
 18 39  1  0  0  0  0
 19 40  1  0  0  0  0
 19 41  1  0  0  0  0
 20 42  1  0  0  0  0
 20 43  1  0  0  0  0
 21 44  1  0  0  0  0
 21 45  1  0  0  0  0
 22 46  1  0  0  0  0
 22 47  1  0  0  0  0
 22 48  1  0  0  0  0
M  CHG  1  16   1
M  END
>  <result-rank>
22

>  <similarity>
0.949

>  <query-name>
LIG_A_1101_C[NH+](C)[C@H]([R*])C1CCC1_2

>  <query-smiles>
O=C(N[C@@H]([NH+](C)C)C1CCC1)[C@@H](NC(=O)C)Cc2ccc(O)cc2

>  <source>
REALspace_2019-12

>  <similarity-descriptor>
1.000;0.925;1.000;1.000;1.000;1.000;1.000;1.000;0.909;0.852;0.852;1.000;0.925;0.0;0.0

>  <similarity-descriptor-smiles>
C1CCCC1;c1ccccc1;C=O;N;C1CCCC1;[NH+];C;C;NC;O=C;O=C;C;c1ccccc1;;

>  <reaction-name>
s_22

>  <reagent1-name>
9044506

>  <reagent1-smiles>
[R1*]NC1C(N(C)C)CCC1

>  <reagent2-name>
12900018

>  <reagent2-smiles>
[R1*]C(=O)CN(c1ccccc1)C(=O)C

$$$$
s_22____116752____16717358
          04022015093D 1   1.00000     0.00000     0
            
 62 63  0  0  0  0            999 V2000
   -0.3868    1.6571   -0.7943 O   0  0  0  0  0  0  0  0  0  0  0  0
    0.7075    1.7208   -0.3059 C   0  0  0  0  0  0  0  0  0  0  0  0
    1.6931    2.4433   -0.9252 N   0  0  0  0  0  0  0  0  0  0  0  0
    1.4096    3.1417   -2.1906 C   0  0  0  0  0  0  0  0  0  0  0  0
    2.3244    2.6191   -3.2875 C   0  0  0  0  0  0  0  0  0  0  0  0
    2.0414    3.3597   -4.5849 C   0  0  0  0  0  0  0  0  0  0  0  0
    2.2276    4.8092   -4.4198 N   0  3  3  0  0  0  0  0  0  0  0  0
    1.3754    5.3476   -3.3489 C   0  0  0  0  0  0  0  0  0  0  0  0
    1.6489    4.6349   -2.0341 C   0  0  0  0  0  0  0  0  0  0  0  0
    1.9825    5.5209   -5.6850 C   0  0  0  0  0  0  0  0  0  0  0  0
    2.9535    5.0226   -6.7430 C   0  0  0  0  0  0  0  0  0  0  0  0
    4.3793    5.2812   -6.2841 C   0  0  0  0  0  0  0  0  0  0  0  0
    1.0000    1.0000    1.0000 C   0  0  3  0  0  0  0  0  0  0  0  0
    1.8487    1.8487    1.8487 N   0  0  0  0  0  0  0  0  0  0  0  0
    3.0831    1.4052    2.2442 C   0  0  0  0  0  0  0  0  0  0  0  0
    3.4716    0.3240    1.8978 O   0  0  0  0  0  0  0  0  0  0  0  0
    3.9607    2.2828    3.1218 C   0  0  0  0  0  0  0  0  0  0  0  0
    5.2236    1.5857    3.4047 N   0  0  0  0  0  0  0  0  0  0  0  0
    6.2255    1.5772    2.4703 C   0  0  0  0  0  0  0  0  0  0  0  0
    6.0722    2.1388    1.4210 O   0  0  0  0  0  0  0  0  0  0  0  0
    7.5314    0.8564    2.7629 C   0  0  0  0  0  0  0  0  0  0  0  0
   -0.3059    0.7075    1.7208 C   0  0  0  0  0  0  0  0  0  0  0  0
   -0.0133   -0.0134    3.0267 C   0  0  0  0  0  0  0  0  0  0  0  0
    0.1949    0.7274    4.1855 C   0  0  0  0  0  0  0  0  0  0  0  0
    0.4621    0.0721    5.3829 C   0  0  0  0  0  0  0  0  0  0  0  0
    0.5173   -1.3180    5.4060 C   0  0  0  0  0  0  0  0  0  0  0  0
    0.7767   -1.9580    6.5658 O   0  0  0  0  0  0  0  0  0  0  0  0
    0.3102   -2.0634    4.2499 C   0  0  0  0  0  0  0  0  0  0  0  0
    0.0429   -1.4030    3.0554 C   0  0  0  0  0  0  0  0  0  0  0  0
    3.1804    4.9670   -4.1603 H   0  0  0  0  0  0  0  0  0  0  0  0
    2.6049    2.4964   -0.5181 H   0  0  0  0  0  0  0  0  0  0  0  0
    0.4569    2.9840   -2.4502 H   0  0  0  0  0  0  0  0  0  0  0  0
    2.1602    1.6416   -3.4199 H   0  0  0  0  0  0  0  0  0  0  0  0
    3.2777    2.7642   -3.0229 H   0  0  0  0  0  0  0  0  0  0  0  0
    2.6658    3.0289   -5.2925 H   0  0  0  0  0  0  0  0  0  0  0  0
    1.0976    3.1815   -4.8633 H   0  0  0  0  0  0  0  0  0  0  0  0
    0.4153    5.2198   -3.5980 H   0  0  0  0  0  0  0  0  0  0  0  0
    1.5641    6.3234   -3.2387 H   0  0  0  0  0  0  0  0  0  0  0  0
    2.5990    4.7912   -1.7644 H   0  0  0  0  0  0  0  0  0  0  0  0
    1.0385    4.9957   -1.3289 H   0  0  0  0  0  0  0  0  0  0  0  0
    2.1153    6.5024   -5.5465 H   0  0  0  0  0  0  0  0  0  0  0  0
    1.0445    5.3508   -5.9869 H   0  0  0  0  0  0  0  0  0  0  0  0
    2.7871    5.5061   -7.6024 H   0  0  0  0  0  0  0  0  0  0  0  0
    2.8207    4.0412   -6.8815 H   0  0  0  0  0  0  0  0  0  0  0  0
    5.0181    4.9534   -6.9802 H   0  0  0  0  0  0  0  0  0  0  0  0
    4.5121    6.2626   -6.1456 H   0  0  0  0  0  0  0  0  0  0  0  0
    4.5458    4.7978   -5.4247 H   0  0  0  0  0  0  0  0  0  0  0  0
    1.4742    0.1409    0.8075 H   0  0  0  0  0  0  0  0  0  0  0  0
    1.5250    2.7498    2.1374 H   0  0  0  0  0  0  0  0  0  0  0  0
    4.1532    3.1419    2.6475 H   0  0  0  0  0  0  0  0  0  0  0  0
    3.4865    2.4753    3.9809 H   0  0  0  0  0  0  0  0  0  0  0  0
    5.3514    1.1177    4.2791 H   0  0  0  0  0  0  0  0  0  0  0  0
    7.4892    0.4469    3.6742 H   0  0  0  0  0  0  0  0  0  0  0  0
    7.6760    0.1389    2.0815 H   0  0  0  0  0  0  0  0  0  0  0  0
    8.2881    1.5091    2.7253 H   0  0  0  0  0  0  0  0  0  0  0  0
   -0.7801    1.5666    1.9133 H   0  0  0  0  0  0  0  0  0  0  0  0
   -0.8832    0.1301    1.1435 H   0  0  0  0  0  0  0  0  0  0  0  0
    0.1526    1.7261    4.1579 H   0  0  0  0  0  0  0  0  0  0  0  0
    0.6134    0.5962    6.2210 H   0  0  0  0  0  0  0  0  0  0  0  0
    0.8174   -2.9569    6.5874 H   0  0  0  0  0  0  0  0  0  0  0  0
    0.3529   -3.0622    4.2773 H   0  0  0  0  0  0  0  0  0  0  0  0
   -0.1088   -1.9271    2.2174 H   0  0  0  0  0  0  0  0  0  0  0  0
  1  2  2  0  0  0  0
  2  3  1  0  0  0  0
  3  4  1  0  0  0  0
  4  5  1  0  0  0  0
  5  6  1  0  0  0  0
  6  7  1  0  0  0  0
  7  8  1  0  0  0  0
  8  9  1  0  0  0  0
  9  4  1  0  0  0  0
  7 10  1  0  0  0  0
 10 11  1  0  0  0  0
 11 12  1  0  0  0  0
  2 13  1  0  0  0  0
 13 14  1  0  0  0  0
 14 15  1  0  0  0  0
 15 16  2  0  0  0  0
 15 17  1  0  0  0  0
 17 18  1  0  0  0  0
 18 19  1  0  0  0  0
 19 20  2  0  0  0  0
 19 21  1  0  0  0  0
 13 22  1  0  0  0  0
 22 23  1  0  0  0  0
 23 24  1  0  0  0  0
 24 25  2  0  0  0  0
 25 26  1  0  0  0  0
 26 27  1  0  0  0  0
 26 28  2  0  0  0  0
 28 29  1  0  0  0  0
 29 23  2  0  0  0  0
  7 30  1  0  0  0  0
  3 31  1  0  0  0  0
  4 32  1  0  0  0  0
  5 33  1  0  0  0  0
  5 34  1  0  0  0  0
  6 35  1  0  0  0  0
  6 36  1  0  0  0  0
  8 37  1  0  0  0  0
  8 38  1  0  0  0  0
  9 39  1  0  0  0  0
  9 40  1  0  0  0  0
 10 41  1  0  0  0  0
 10 42  1  0  0  0  0
 11 43  1  0  0  0  0
 11 44  1  0  0  0  0
 12 45  1  0  0  0  0
 12 46  1  0  0  0  0
 12 47  1  0  0  0  0
 13 48  1  0  0  0  0
 14 49  1  0  0  0  0
 17 50  1  0  0  0  0
 17 51  1  0  0  0  0
 18 52  1  0  0  0  0
 21 53  1  0  0  0  0
 21 54  1  0  0  0  0
 21 55  1  0  0  0  0
 22 56  1  0  0  0  0
 22 57  1  0  0  0  0
 24 58  1  0  0  0  0
 25 59  1  0  0  0  0
 27 60  1  0  0  0  0
 28 61  1  0  0  0  0
 29 62  1  0  0  0  0
M  CHG  1   7   1
M  END
>  <result-rank>
23

>  <similarity>
0.949

>  <query-name>
LIG_A_1101_C[NH+](C)[C@H]([R*])C1CCC1_2

>  <query-smiles>
O=C(N[C@@H]([NH+](C)C)C1CCC1)[C@@H](NC(=O)C)Cc2ccc(O)cc2

>  <source>
REALspace_2019-12

>  <similarity-descriptor>
0.986;1.000;1.000;1.000;0.986;0.986;0.0;0.951;1.000;1.000;1.000;0.955;1.000;1.000;0.313

>  <similarity-descriptor-smiles>
C1CC[NH+]CC1;c1ccccc1;O=C;N;C1CC[NH+]CC1;C1CC[NH+]CC1;;C;C;N;C=O;C;C;O;C.C.N.C=O.C

>  <reaction-name>
s_22

>  <reagent1-name>
116752

>  <reagent1-smiles>
[R1*]NC1CCN(CC1)CCC

>  <reagent2-name>
16717358

>  <reagent2-smiles>
[R1*]C(=O)C(NC(=O)CNC(=O)C)Cc1ccc(O)cc1

$$$$
s_22____12056416____17513450
          04022015093D 1   1.00000     0.00000     0
            
 49 50  0  0  0  0            999 V2000
    7.2123    4.3980   -0.4616 F   0  0  0  0  0  0  0  0  0  0  0  0
    6.5281    3.2614   -0.5551 C   0  0  0  0  0  0  0  0  0  0  0  0
    5.2066    3.4033    0.1824 C   0  0  0  0  0  0  0  0  0  0  0  0
    4.4246    2.1042    0.0755 C   0  0  3  0  0  0  0  0  0  0  0  0
    3.1093    2.2776    0.8221 C   0  0  0  0  0  0  0  0  0  0  0  0
    2.3991    1.0000    1.0000 N   0  0  0  0  0  0  0  0  0  0  0  0
    1.0000    1.0000    1.0000 C   0  0  0  0  0  0  0  0  0  0  0  0
    0.4000    2.0293    0.8566 O   0  0  0  0  0  0  0  0  0  0  0  0
    0.2400   -0.3038    1.1816 C   0  0  3  0  0  0  0  0  0  0  0  0
   -1.0444   -0.2253    0.4710 N   0  0  0  0  0  0  0  0  0  0  0  0
   -1.1292   -0.6242   -0.8369 C   0  0  0  0  0  0  0  0  0  0  0  0
   -0.1550   -1.0377   -1.4024 O   0  0  0  0  0  0  0  0  0  0  0  0
   -2.4574   -0.5431   -1.5716 C   0  0  0  0  0  0  0  0  0  0  0  0
   -0.0133   -0.5407    2.6615 C   0  0  0  0  0  0  0  0  0  0  0  0
   -0.7734   -1.8445    2.8431 C   0  0  0  0  0  0  0  0  0  0  0  0
   -0.0668   -3.0312    3.0084 C   0  0  0  0  0  0  0  0  0  0  0  0
   -0.7580   -4.2265    3.1756 C   0  0  0  0  0  0  0  0  0  0  0  0
   -2.1493   -4.2195    3.1759 C   0  0  0  0  0  0  0  0  0  0  0  0
   -2.8591   -5.4375    3.3460 O   0  0  0  0  0  0  0  0  0  0  0  0
   -2.8607   -3.0355    3.0107 C   0  0  0  0  0  0  0  0  0  0  0  0
   -2.1644   -1.8431    2.8443 C   0  0  0  0  0  0  0  0  0  0  0  0
    3.0985   -0.2840    1.1753 C   0  0  0  0  0  0  0  0  0  0  0  0
    4.4162   -0.3235    0.4133 C   0  0  0  0  0  0  0  0  0  0  0  0
    5.2440    0.9393    0.6128 C   0  0  0  0  0  0  0  0  0  0  0  0
    7.0590    2.5183   -0.1477 H   0  0  0  0  0  0  0  0  0  0  0  0
    6.3522    3.0564   -1.5179 H   0  0  0  0  0  0  0  0  0  0  0  0
    5.3824    3.6082    1.1452 H   0  0  0  0  0  0  0  0  0  0  0  0
    4.6756    4.1464   -0.2250 H   0  0  0  0  0  0  0  0  0  0  0  0
    4.2228    1.9330   -0.8889 H   0  0  0  0  0  0  0  0  0  0  0  0
    3.2991    2.6688    1.7226 H   0  0  0  0  0  0  0  0  0  0  0  0
    2.5245    2.9018    0.3039 H   0  0  0  0  0  0  0  0  0  0  0  0
    0.7804   -1.0591    0.8108 H   0  0  0  0  0  0  0  0  0  0  0  0
   -1.8563    0.1193    0.9423 H   0  0  0  0  0  0  0  0  0  0  0  0
   -3.1569   -0.1792   -0.9566 H   0  0  0  0  0  0  0  0  0  0  0  0
   -2.3637    0.0599   -2.3639 H   0  0  0  0  0  0  0  0  0  0  0  0
   -2.7253   -1.4565   -1.8778 H   0  0  0  0  0  0  0  0  0  0  0  0
    0.8604   -0.5941    3.1449 H   0  0  0  0  0  0  0  0  0  0  0  0
   -0.5538    0.2146    3.0322 H   0  0  0  0  0  0  0  0  0  0  0  0
    0.9332   -3.0250    3.0070 H   0  0  0  0  0  0  0  0  0  0  0  0
   -0.2586   -5.0847    3.2948 H   0  0  0  0  0  0  0  0  0  0  0  0
   -3.8591   -5.4375    3.3469 H   0  0  0  0  0  0  0  0  0  0  0  0
   -3.8607   -3.0417    3.0115 H   0  0  0  0  0  0  0  0  0  0  0  0
   -2.6638   -0.9848    2.7254 H   0  0  0  0  0  0  0  0  0  0  0  0
    2.5101   -1.0204    0.8415 H   0  0  0  0  0  0  0  0  0  0  0  0
    3.2839   -0.4206    2.1484 H   0  0  0  0  0  0  0  0  0  0  0  0
    4.2197   -0.4274   -0.5617 H   0  0  0  0  0  0  0  0  0  0  0  0
    4.9473   -1.1087    0.7318 H   0  0  0  0  0  0  0  0  0  0  0  0
    5.4344    1.0740    1.5852 H   0  0  0  0  0  0  0  0  0  0  0  0
    6.1061    0.8666    0.1112 H   0  0  0  0  0  0  0  0  0  0  0  0
  1  2  1  0  0  0  0
  2  3  1  0  0  0  0
  3  4  1  0  0  0  0
  4  5  1  0  0  0  0
  5  6  1  0  0  0  0
  6  7  1  0  0  0  0
  7  8  2  0  0  0  0
  7  9  1  0  0  0  0
  9 10  1  0  0  0  0
 10 11  1  0  0  0  0
 11 12  2  0  0  0  0
 11 13  1  0  0  0  0
  9 14  1  0  0  0  0
 14 15  1  0  0  0  0
 15 16  1  0  0  0  0
 16 17  2  0  0  0  0
 17 18  1  0  0  0  0
 18 19  1  0  0  0  0
 18 20  2  0  0  0  0
 20 21  1  0  0  0  0
 21 15  2  0  0  0  0
  6 22  1  0  0  0  0
 22 23  1  0  0  0  0
 23 24  1  0  0  0  0
 24  4  1  0  0  0  0
  2 25  1  0  0  0  0
  2 26  1  0  0  0  0
  3 27  1  0  0  0  0
  3 28  1  0  0  0  0
  4 29  1  0  0  0  0
  5 30  1  0  0  0  0
  5 31  1  0  0  0  0
  9 32  1  0  0  0  0
 10 33  1  0  0  0  0
 13 34  1  0  0  0  0
 13 35  1  0  0  0  0
 13 36  1  0  0  0  0
 14 37  1  0  0  0  0
 14 38  1  0  0  0  0
 16 39  1  0  0  0  0
 17 40  1  0  0  0  0
 19 41  1  0  0  0  0
 20 42  1  0  0  0  0
 21 43  1  0  0  0  0
 22 44  1  0  0  0  0
 22 45  1  0  0  0  0
 23 46  1  0  0  0  0
 23 47  1  0  0  0  0
 24 48  1  0  0  0  0
 24 49  1  0  0  0  0
M  END
>  <result-rank>
24

>  <similarity>
0.949

>  <query-name>
LIG_A_1101_C[NH+](C)[C@H]([R*])C1CCC1_2

>  <query-smiles>
O=C(N[C@@H]([NH+](C)C)C1CCC1)[C@@H](NC(=O)C)Cc2ccc(O)cc2

>  <source>
REALspace_2019-12

>  <similarity-descriptor>
0.981;1.000;0.852;0.852;0.981;0.505;0.505;0.994;1.000;1.000;1.000;1.000;1.000;1.000;0.0

>  <similarity-descriptor-smiles>
C1CCCNC1;c1ccccc1;C=O;C=O;C1CCCNC1;C;C;FC;C;N;C=O;C;C;O;

>  <reaction-name>
s_22

>  <reagent1-name>
12056416

>  <reagent1-smiles>
[R1*]N1CC(CCF)CCC1

>  <reagent2-name>
17513450

>  <reagent2-smiles>
[R1*]C(=O)C(NC(=O)C)Cc1ccc(O)cc1

$$$$
s_22____12206138____15713960
          04022015093D 1   1.00000     0.00000     0
            
 54 55  0  0  0  0            999 V2000
    3.9272    2.8352    0.7118 O   0  0  0  0  0  0  0  0  0  0  0  0
    2.9767    2.2411    0.2835 C   0  0  0  0  0  0  0  0  0  0  0  0
    2.3756    2.6621   -0.8017 O   0  0  0  0  0  0  0  0  0  0  0  0
    2.8490    3.8216   -1.4711 C   0  0  0  0  0  0  0  0  0  0  0  0
    2.4700    1.0000    1.0000 C   0  0  3  0  0  0  0  0  0  0  0  0
    1.0000    1.0000    1.0000 N   0  0  0  0  0  0  0  0  0  0  0  0
    0.3150    1.0000    2.1865 C   0  0  0  0  0  0  0  0  0  0  0  0
    0.9150    1.0000    3.2257 O   0  0  0  0  0  0  0  0  0  0  0  0
   -1.2051    1.0000    2.1865 C   0  0  3  0  0  0  0  0  0  0  0  0
   -1.7222   -0.2381    1.4717 C   0  0  0  0  0  0  0  0  0  0  0  0
   -3.2424   -0.2384    1.4621 C   0  0  0  0  0  0  0  0  0  0  0  0
   -3.7646    1.0120    0.7726 C   0  0  3  0  0  0  0  0  0  0  0  0
   -5.2344    1.0103    0.7803 N   0  3  0  0  0  0  0  0  0  0  0  0
   -5.7293    2.2224    0.1119 C   0  0  0  0  0  0  0  0  0  0  0  0
   -5.7267   -0.1777    0.0682 C   0  0  0  0  0  0  0  0  0  0  0  0
   -3.2474    2.2442    1.4972 C   0  0  0  0  0  0  0  0  0  0  0  0
   -1.7272    2.2528    1.5018 C   0  0  0  0  0  0  0  0  0  0  0  0
    2.9767   -0.2411    0.2835 C   0  0  0  0  0  0  0  0  0  0  0  0
    4.4971   -0.2411    0.2835 C   0  0  0  0  0  0  0  0  0  0  0  0
    5.1926   -0.8436    1.3271 C   0  0  0  0  0  0  0  0  0  0  0  0
    4.5331   -1.4322    2.3479 O   0  0  0  0  0  0  0  0  0  0  0  0
    6.5840   -0.8435    1.3273 C   0  0  0  0  0  0  0  0  0  0  0  0
    7.2796   -0.2412    0.2834 C   0  0  0  0  0  0  0  0  0  0  0  0
    6.5837    0.3606   -0.7603 C   0  0  0  0  0  0  0  0  0  0  0  0
    5.1926    0.3600   -0.7604 C   0  0  0  0  0  0  0  0  0  0  0  0
   -5.5627    0.9927    1.7247 H   0  0  0  0  0  0  0  0  0  0  0  0
    2.2791    3.9992   -2.2734 H   0  0  0  0  0  0  0  0  0  0  0  0
    2.8057    4.6052   -0.8514 H   0  0  0  0  0  0  0  0  0  0  0  0
    3.7954    3.6767   -1.7598 H   0  0  0  0  0  0  0  0  0  0  0  0
    2.8033    1.0000    1.9428 H   0  0  0  0  0  0  0  0  0  0  0  0
    0.5000    1.0000    0.1340 H   0  0  0  0  0  0  0  0  0  0  0  0
   -1.5296    0.9879    3.1323 H   0  0  0  0  0  0  0  0  0  0  0  0
   -1.3942   -1.0551    1.9459 H   0  0  0  0  0  0  0  0  0  0  0  0
   -1.3854   -0.2413    0.5301 H   0  0  0  0  0  0  0  0  0  0  0  0
   -3.5693   -1.0465    0.9720 H   0  0  0  0  0  0  0  0  0  0  0  0
   -3.5785   -0.2610    2.4036 H   0  0  0  0  0  0  0  0  0  0  0  0
   -3.4404    1.0261   -0.1733 H   0  0  0  0  0  0  0  0  0  0  0  0
   -6.7293    2.2212    0.1171 H   0  0  0  0  0  0  0  0  0  0  0  0
   -5.3944    3.0305    0.5963 H   0  0  0  0  0  0  0  0  0  0  0  0
   -5.4010    2.2399   -0.8325 H   0  0  0  0  0  0  0  0  0  0  0  0
   -6.7267   -0.1789    0.0734 H   0  0  0  0  0  0  0  0  0  0  0  0
   -5.3984   -0.1602   -0.8762 H   0  0  0  0  0  0  0  0  0  0  0  0
   -5.3900   -1.0023    0.5229 H   0  0  0  0  0  0  0  0  0  0  0  0
   -3.5803    2.2366    2.4401 H   0  0  0  0  0  0  0  0  0  0  0  0
   -3.5807    3.0645    1.0326 H   0  0  0  0  0  0  0  0  0  0  0  0
   -1.3928    2.2798    0.5598 H   0  0  0  0  0  0  0  0  0  0  0  0
   -1.4017    3.0600    1.9943 H   0  0  0  0  0  0  0  0  0  0  0  0
    2.6433   -1.0576    0.7549 H   0  0  0  0  0  0  0  0  0  0  0  0
    2.6433   -0.2411   -0.6593 H   0  0  0  0  0  0  0  0  0  0  0  0
    5.0446   -1.8619    3.0921 H   0  0  0  0  0  0  0  0  0  0  0  0
    7.0840   -1.2761    2.0775 H   0  0  0  0  0  0  0  0  0  0  0  0
    8.2796   -0.2409    0.2833 H   0  0  0  0  0  0  0  0  0  0  0  0
    7.0835    0.7935   -1.5105 H   0  0  0  0  0  0  0  0  0  0  0  0
    4.6925    0.7919   -1.5110 H   0  0  0  0  0  0  0  0  0  0  0  0
  1  2  2  0  0  0  0
  2  3  1  0  0  0  0
  3  4  1  0  0  0  0
  2  5  1  0  0  0  0
  5  6  1  0  0  0  0
  6  7  1  0  0  0  0
  7  8  2  0  0  0  0
  7  9  1  0  0  0  0
  9 10  1  0  0  0  0
 10 11  1  0  0  0  0
 11 12  1  0  0  0  0
 12 13  1  0  0  0  0
 13 14  1  0  0  0  0
 13 15  1  0  0  0  0
 12 16  1  0  0  0  0
 16 17  1  0  0  0  0
 17  9  1  0  0  0  0
  5 18  1  0  0  0  0
 18 19  1  0  0  0  0
 19 20  1  0  0  0  0
 20 21  1  0  0  0  0
 20 22  2  0  0  0  0
 22 23  1  0  0  0  0
 23 24  2  0  0  0  0
 24 25  1  0  0  0  0
 25 19  2  0  0  0  0
 13 26  1  0  0  0  0
  4 27  1  0  0  0  0
  4 28  1  0  0  0  0
  4 29  1  0  0  0  0
  5 30  1  0  0  0  0
  6 31  1  0  0  0  0
  9 32  1  0  0  0  0
 10 33  1  0  0  0  0
 10 34  1  0  0  0  0
 11 35  1  0  0  0  0
 11 36  1  0  0  0  0
 12 37  1  0  0  0  0
 14 38  1  0  0  0  0
 14 39  1  0  0  0  0
 14 40  1  0  0  0  0
 15 41  1  0  0  0  0
 15 42  1  0  0  0  0
 15 43  1  0  0  0  0
 16 44  1  0  0  0  0
 16 45  1  0  0  0  0
 17 46  1  0  0  0  0
 17 47  1  0  0  0  0
 18 48  1  0  0  0  0
 18 49  1  0  0  0  0
 21 50  1  0  0  0  0
 22 51  1  0  0  0  0
 23 52  1  0  0  0  0
 24 53  1  0  0  0  0
 25 54  1  0  0  0  0
M  CHG  1  13   1
M  END
>  <result-rank>
25

>  <similarity>
0.949

>  <query-name>
LIG_A_1101_C[NH+](C)[C@H]([R*])C1CCC1_2

>  <query-smiles>
O=C(N[C@@H]([NH+](C)C)C1CCC1)[C@@H](NC(=O)C)Cc2ccc(O)cc2

>  <source>
REALspace_2019-12

>  <similarity-descriptor>
0.907;1.000;0.852;0.852;0.907;1.000;1.000;1.000;1.000;1.000;0.855;0.994;1.000;1.000;0.0

>  <similarity-descriptor-smiles>
C1CCCCC1;c1ccccc1;C=O;C=O;C1CCCCC1;[NH+];C;C;CN;CN;O=CO;C;C;O;

>  <reaction-name>
s_22

>  <reagent1-name>
12206138

>  <reagent1-smiles>
[R1*]NC(C(=O)OC)Cc1c(O)cccc1

>  <reagent2-name>
15713960

>  <reagent2-smiles>
[R1*]C(=O)C1CCC(N(C)C)CC1

$$$$
s_22____6286038____17513450
          04022015093D 1   1.00000     0.00000     0
            
 55 56  0  0  0  0            999 V2000
    0.4000    1.4799    0.0782 O   0  0  0  0  0  0  0  0  0  0  0  0
    1.0000    1.0000    1.0000 C   0  0  0  0  0  0  0  0  0  0  0  0
    2.3982    1.0000    1.0000 N   0  0  0  0  0  0  0  0  0  0  0  0
    3.2518   -0.1379    1.3458 C   0  0  0  0  0  0  0  0  0  0  0  0
    4.5485    0.1681    0.6268 C   0  0  3  0  0  0  0  0  0  0  0  0
    5.6827   -0.5661    1.2120 N   0  3  0  0  0  0  0  0  0  0  0  0
    6.6139   -0.9606    0.1452 C   0  0  0  0  0  0  0  0  0  0  0  0
    5.8932   -1.8529   -0.8521 C   0  0  0  0  0  0  0  0  0  0  0  0
    6.3797    0.2968    2.1766 C   0  0  0  0  0  0  0  0  0  0  0  0
    7.5506   -0.4611    2.7807 C   0  0  0  0  0  0  0  0  0  0  0  0
    4.6523    1.6509    0.9071 C   0  0  0  0  0  0  0  0  0  0  0  0
    3.2453    2.1441    0.6540 C   0  0  0  0  0  0  0  0  0  0  0  0
    0.2400    0.3922    2.1676 C   0  0  3  0  0  0  0  0  0  0  0  0
   -1.1768    0.2425    1.8054 N   0  0  0  0  0  0  0  0  0  0  0  0
   -1.7569   -0.9986    1.8071 C   0  0  0  0  0  0  0  0  0  0  0  0
   -1.1084   -1.9636    2.1042 O   0  0  0  0  0  0  0  0  0  0  0  0
   -3.2219   -1.1533    1.4326 C   0  0  0  0  0  0  0  0  0  0  0  0
    0.3599    1.3024    3.3790 C   0  0  0  0  0  0  0  0  0  0  0  0
   -0.2388    0.6113    4.5933 C   0  0  0  0  0  0  0  0  0  0  0  0
    0.5715   -0.1840    5.3969 C   0  0  0  0  0  0  0  0  0  0  0  0
    0.0283   -0.8177    6.5094 C   0  0  0  0  0  0  0  0  0  0  0  0
   -1.3206   -0.6473    6.8047 C   0  0  0  0  0  0  0  0  0  0  0  0
   -1.8520   -1.2607    7.8833 O   0  0  0  0  0  0  0  0  0  0  0  0
   -2.1355    0.1467    6.0042 C   0  0  0  0  0  0  0  0  0  0  0  0
   -1.5869    0.7784    4.8932 C   0  0  0  0  0  0  0  0  0  0  0  0
    5.3454   -1.3835    1.6791 H   0  0  0  0  0  0  0  0  0  0  0  0
    2.8549   -0.9957    1.0191 H   0  0  0  0  0  0  0  0  0  0  0  0
    3.3942   -0.1916    2.3341 H   0  0  0  0  0  0  0  0  0  0  0  0
    4.4693   -0.0102   -0.3540 H   0  0  0  0  0  0  0  0  0  0  0  0
    7.3843   -1.4592    0.5427 H   0  0  0  0  0  0  0  0  0  0  0  0
    6.9513   -0.1432   -0.3218 H   0  0  0  0  0  0  0  0  0  0  0  0
    6.5267   -2.1212   -1.5779 H   0  0  0  0  0  0  0  0  0  0  0  0
    5.5559   -2.6702   -0.3851 H   0  0  0  0  0  0  0  0  0  0  0  0
    5.1229   -1.3542   -1.2496 H   0  0  0  0  0  0  0  0  0  0  0  0
    5.7462    0.5652    2.9023 H   0  0  0  0  0  0  0  0  0  0  0  0
    6.7171    1.1142    1.7095 H   0  0  0  0  0  0  0  0  0  0  0  0
    8.0248    0.1260    3.4369 H   0  0  0  0  0  0  0  0  0  0  0  0
    7.2133   -1.2784    3.2478 H   0  0  0  0  0  0  0  0  0  0  0  0
    8.1841   -0.7294    2.0550 H   0  0  0  0  0  0  0  0  0  0  0  0
    5.3037    2.0891    0.2876 H   0  0  0  0  0  0  0  0  0  0  0  0
    4.9274    1.8194    1.8536 H   0  0  0  0  0  0  0  0  0  0  0  0
    3.0348    2.9303    1.2350 H   0  0  0  0  0  0  0  0  0  0  0  0
    3.1252    2.3973   -0.3059 H   0  0  0  0  0  0  0  0  0  0  0  0
    0.6250   -0.5047    2.3852 H   0  0  0  0  0  0  0  0  0  0  0  0
   -1.7172    1.0467    1.5578 H   0  0  0  0  0  0  0  0  0  0  0  0
   -3.6068   -0.2564    1.2150 H   0  0  0  0  0  0  0  0  0  0  0  0
   -3.3007   -1.7521    0.6356 H   0  0  0  0  0  0  0  0  0  0  0  0
   -3.7219   -1.5532    2.2008 H   0  0  0  0  0  0  0  0  0  0  0  0
    1.3243    1.5027    3.5513 H   0  0  0  0  0  0  0  0  0  0  0  0
   -0.1319    2.1555    3.2049 H   0  0  0  0  0  0  0  0  0  0  0  0
    1.5399   -0.2995    5.1758 H   0  0  0  0  0  0  0  0  0  0  0  0
    0.6030   -1.3917    7.0928 H   0  0  0  0  0  0  0  0  0  0  0  0
   -2.8210   -1.1412    8.0996 H   0  0  0  0  0  0  0  0  0  0  0  0
   -3.1040    0.2619    6.2249 H   0  0  0  0  0  0  0  0  0  0  0  0
   -2.1614    1.3527    4.3100 H   0  0  0  0  0  0  0  0  0  0  0  0
  1  2  2  0  0  0  0
  2  3  1  0  0  0  0
  3  4  1  0  0  0  0
  4  5  1  0  0  0  0
  5  6  1  0  0  0  0
  6  7  1  0  0  0  0
  7  8  1  0  0  0  0
  6  9  1  0  0  0  0
  9 10  1  0  0  0  0
  5 11  1  0  0  0  0
 11 12  1  0  0  0  0
 12  3  1  0  0  0  0
  2 13  1  0  0  0  0
 13 14  1  0  0  0  0
 14 15  1  0  0  0  0
 15 16  2  0  0  0  0
 15 17  1  0  0  0  0
 13 18  1  0  0  0  0
 18 19  1  0  0  0  0
 19 20  1  0  0  0  0
 20 21  2  0  0  0  0
 21 22  1  0  0  0  0
 22 23  1  0  0  0  0
 22 24  2  0  0  0  0
 24 25  1  0  0  0  0
 25 19  2  0  0  0  0
  6 26  1  0  0  0  0
  4 27  1  0  0  0  0
  4 28  1  0  0  0  0
  5 29  1  0  0  0  0
  7 30  1  0  0  0  0
  7 31  1  0  0  0  0
  8 32  1  0  0  0  0
  8 33  1  0  0  0  0
  8 34  1  0  0  0  0
  9 35  1  0  0  0  0
  9 36  1  0  0  0  0
 10 37  1  0  0  0  0
 10 38  1  0  0  0  0
 10 39  1  0  0  0  0
 11 40  1  0  0  0  0
 11 41  1  0  0  0  0
 12 42  1  0  0  0  0
 12 43  1  0  0  0  0
 13 44  1  0  0  0  0
 14 45  1  0  0  0  0
 17 46  1  0  0  0  0
 17 47  1  0  0  0  0
 17 48  1  0  0  0  0
 18 49  1  0  0  0  0
 18 50  1  0  0  0  0
 20 51  1  0  0  0  0
 21 52  1  0  0  0  0
 23 53  1  0  0  0  0
 24 54  1  0  0  0  0
 25 55  1  0  0  0  0
M  CHG  1   6   1
M  END
>  <result-rank>
26

>  <similarity>
0.949

>  <query-name>
LIG_A_1101_C[NH+](C)[C@H]([R*])C1CCC1_2

>  <query-smiles>
O=C(N[C@@H]([NH+](C)C)C1CCC1)[C@@H](NC(=O)C)Cc2ccc(O)cc2

>  <source>
REALspace_2019-12

>  <similarity-descriptor>
0.908;1.000;0.852;0.852;0.908;0.958;0.958;0.995;1.000;1.000;1.000;1.000;1.000;1.000;0.143

>  <similarity-descriptor-smiles>
N1CCCC1;c1ccccc1;O=C;O=C;N1CCCC1;[NH+]C;[NH+]C;C;C;N;C=O;C;C;O;C.C

>  <reaction-name>
s_22

>  <reagent1-name>
6286038

>  <reagent1-smiles>
[R1*]N1CC(N(CC)CC)CC1

>  <reagent2-name>
17513450

>  <reagent2-smiles>
[R1*]C(=O)C(NC(=O)C)Cc1ccc(O)cc1

$$$$
s_2708____4974248____4509338
          04022015093D 1   1.00000     0.00000     0
            
 53 54  0  0  0  0            999 V2000
    0.4000   -0.0392    1.0000 O   0  0  0  0  0  0  0  0  0  0  0  0
    1.0000    1.0000    1.0000 C   0  0  0  0  0  0  0  0  0  0  0  0
    2.3700    1.0000    1.0000 N   0  0  0  0  0  0  0  0  0  0  0  0
    3.1050   -0.2731    1.0000 C   0  0  3  0  0  0  0  0  0  0  0  0
    3.3582   -0.7117   -0.4325 C   0  0  0  0  0  0  0  0  0  0  0  0
    4.5242   -0.2982   -1.0686 C   0  0  0  0  0  0  0  0  0  0  0  0
    4.7545   -0.7014   -2.3793 C   0  0  0  0  0  0  0  0  0  0  0  0
    5.9374   -0.2903   -3.0488 O   0  0  0  0  0  0  0  0  0  0  0  0
    3.8336   -1.5048   -3.0439 C   0  0  0  0  0  0  0  0  0  0  0  0
    2.6703   -1.9110   -2.3973 C   0  0  0  0  0  0  0  0  0  0  0  0
    2.4291   -1.5151   -1.0858 C   0  0  0  0  0  0  0  0  0  0  0  0
    4.4331   -0.0913    1.7165 C   0  0  0  0  0  0  0  0  0  0  0  0
    3.1050    2.2731    1.0000 C   0  0  0  0  0  0  0  0  0  0  0  0
    0.3150    2.1865    1.0000 N   0  0  0  0  0  0  0  0  0  0  0  0
   -1.1575    2.1865    1.0000 C   0  0  3  0  0  0  0  0  0  0  0  0
   -1.6732    2.1865    2.4299 C   0  0  0  0  0  0  0  0  0  0  0  0
   -3.1931    2.2112    2.4211 C   0  0  3  0  0  0  0  0  0  0  0  0
   -3.6882    3.3902    1.6937 N   0  3  3  0  0  0  0  0  0  0  0  0
   -3.1940    3.4283    0.3094 C   0  0  0  0  0  0  0  0  0  0  0  0
   -1.6738    3.4257    0.2864 C   0  0  0  0  0  0  0  0  0  0  0  0
   -5.1574    3.4017    1.6486 C   0  0  0  0  0  0  0  0  0  0  0  0
   -5.6314    4.6313    0.8910 C   0  0  0  0  0  0  0  0  0  0  0  0
   -3.6739    2.2125    3.8631 C   0  0  0  0  0  0  0  0  0  0  0  0
   -3.3759    4.2134    2.1679 H   0  0  0  0  0  0  0  0  0  0  0  0
    2.5646   -0.9700    1.4714 H   0  0  0  0  0  0  0  0  0  0  0  0
    5.1860    0.2796   -0.5910 H   0  0  0  0  0  0  0  0  0  0  0  0
    6.1045   -0.5794   -3.9914 H   0  0  0  0  0  0  0  0  0  0  0  0
    4.0076   -1.7904   -3.9863 H   0  0  0  0  0  0  0  0  0  0  0  0
    2.0077   -2.4875   -2.8755 H   0  0  0  0  0  0  0  0  0  0  0  0
    1.5951   -1.8055   -0.6166 H   0  0  0  0  0  0  0  0  0  0  0  0
    4.9331   -0.9573    1.7165 H   0  0  0  0  0  0  0  0  0  0  0  0
    4.9736    0.6056    1.2451 H   0  0  0  0  0  0  0  0  0  0  0  0
    4.2665    0.1974    2.6593 H   0  0  0  0  0  0  0  0  0  0  0  0
    4.0882    2.0903    1.0000 H   0  0  0  0  0  0  0  0  0  0  0  0
    2.8634    2.7974    0.1835 H   0  0  0  0  0  0  0  0  0  0  0  0
    2.8634    2.7974    1.8165 H   0  0  0  0  0  0  0  0  0  0  0  0
    0.8150    3.0525    1.0000 H   0  0  0  0  0  0  0  0  0  0  0  0
   -1.4892    1.3697    0.5279 H   0  0  0  0  0  0  0  0  0  0  0  0
   -1.3560    1.3619    2.8984 H   0  0  0  0  0  0  0  0  0  0  0  0
   -1.3295    2.9947    2.9080 H   0  0  0  0  0  0  0  0  0  0  0  0
   -3.5287    1.3855    1.9678 H   0  0  0  0  0  0  0  0  0  0  0  0
   -3.5285    4.2584   -0.1367 H   0  0  0  0  0  0  0  0  0  0  0  0
   -3.5319    2.6261   -0.1829 H   0  0  0  0  0  0  0  0  0  0  0  0
   -1.3548    3.4216   -0.6613 H   0  0  0  0  0  0  0  0  0  0  0  0
   -1.3322    4.2435    0.7496 H   0  0  0  0  0  0  0  0  0  0  0  0
   -5.5194    3.4243    2.5806 H   0  0  0  0  0  0  0  0  0  0  0  0
   -5.4832    2.5780    1.1844 H   0  0  0  0  0  0  0  0  0  0  0  0
   -6.6309    4.6391    0.8604 H   0  0  0  0  0  0  0  0  0  0  0  0
   -5.3057    5.4549    1.3553 H   0  0  0  0  0  0  0  0  0  0  0  0
   -5.2695    4.6087   -0.0409 H   0  0  0  0  0  0  0  0  0  0  0  0
   -3.3231    1.4020    4.3322 H   0  0  0  0  0  0  0  0  0  0  0  0
   -3.3411    3.0349    4.3247 H   0  0  0  0  0  0  0  0  0  0  0  0
   -4.6736    2.2016    3.8812 H   0  0  0  0  0  0  0  0  0  0  0  0
  1  2  2  0  0  0  0
  2  3  1  0  0  0  0
  3  4  1  0  0  0  0
  4  5  1  0  0  0  0
  5  6  1  0  0  0  0
  6  7  2  0  0  0  0
  7  8  1  0  0  0  0
  7  9  1  0  0  0  0
  9 10  2  0  0  0  0
 10 11  1  0  0  0  0
 11  5  2  0  0  0  0
  4 12  1  0  0  0  0
  3 13  1  0  0  0  0
  2 14  1  0  0  0  0
 14 15  1  0  0  0  0
 15 16  1  0  0  0  0
 16 17  1  0  0  0  0
 17 18  1  0  0  0  0
 18 19  1  0  0  0  0
 19 20  1  0  0  0  0
 20 15  1  0  0  0  0
 18 21  1  0  0  0  0
 21 22  1  0  0  0  0
 17 23  1  0  0  0  0
 18 24  1  0  0  0  0
  4 25  1  0  0  0  0
  6 26  1  0  0  0  0
  8 27  1  0  0  0  0
  9 28  1  0  0  0  0
 10 29  1  0  0  0  0
 11 30  1  0  0  0  0
 12 31  1  0  0  0  0
 12 32  1  0  0  0  0
 12 33  1  0  0  0  0
 13 34  1  0  0  0  0
 13 35  1  0  0  0  0
 13 36  1  0  0  0  0
 14 37  1  0  0  0  0
 15 38  1  0  0  0  0
 16 39  1  0  0  0  0
 16 40  1  0  0  0  0
 17 41  1  0  0  0  0
 19 42  1  0  0  0  0
 19 43  1  0  0  0  0
 20 44  1  0  0  0  0
 20 45  1  0  0  0  0
 21 46  1  0  0  0  0
 21 47  1  0  0  0  0
 22 48  1  0  0  0  0
 22 49  1  0  0  0  0
 22 50  1  0  0  0  0
 23 51  1  0  0  0  0
 23 52  1  0  0  0  0
 23 53  1  0  0  0  0
M  CHG  1  18   1
M  END
>  <result-rank>
27

>  <similarity>
0.948

>  <query-name>
LIG_A_1101_C[NH+](C)[C@H]([R*])C1CCC1_2

>  <query-smiles>
O=C(N[C@@H]([NH+](C)C)C1CCC1)[C@@H](NC(=O)C)Cc2ccc(O)cc2

>  <source>
REALspace_2019-12

>  <similarity-descriptor>
0.999;1.000;0.969;1.000;0.999;0.999;0.951;0.995;0.967;0.0;0.0;0.0;0.967;1.000;0.167

>  <similarity-descriptor-smiles>
C1CC[NH+]CC1;c1ccccc1;O=CN;N;C1CC[NH+]CC1;C1CC[NH+]CC1;C;C;CC;;;;CC;O;C.C

>  <reaction-name>
s_2708

>  <reagent1-name>
4974248

>  <reagent1-smiles>
[R1*]C(=O)NC1CC(N(CC1)CC)C

>  <reagent2-name>
4509338

>  <reagent2-smiles>
[R1*]N(C(c1cc(O)ccc1)C)C

$$$$
s_270006a____11615602____8408010
          04022015093D 1   1.00000     0.00000     0
            
 51 52  0  0  0  0            999 V2000
    2.7405    0.6173   -0.5487 O   0  0  0  0  0  0  0  0  0  0  0  0
    1.8776    0.1224    0.1224 C   0  0  0  0  0  0  0  0  0  0  0  0
    1.6833   -1.2335    0.0977 N   0  0  0  0  0  0  0  0  0  0  0  0
    2.5321   -2.0823   -0.7511 C   0  0  3  0  0  0  0  0  0  0  0  0
    1.6976   -2.8405   -1.7713 C   0  0  3  0  0  0  0  0  0  0  0  0
    2.5531   -3.7062   -2.5974 N   0  3  0  0  0  0  0  0  0  0  0  0
    3.2948   -4.6789   -1.7816 C   0  0  0  0  0  0  0  0  0  0  0  0
    4.1595   -3.9593   -0.7591 C   0  0  0  0  0  0  0  0  0  0  0  0
    3.2828   -3.0788    0.1172 C   0  0  0  0  0  0  0  0  0  0  0  0
    0.9479   -1.8371   -2.6333 C   0  0  0  0  0  0  0  0  0  0  0  0
    1.0000    1.0000    1.0000 C   0  0  0  0  0  0  0  0  0  0  0  0
    1.8776    1.8776    1.8776 C   0  0  3  0  0  0  0  0  0  0  0  0
    1.0385    2.5935    2.8494 N   0  0  0  0  0  0  0  0  0  0  0  0
    1.0211    3.9634    2.8612 C   0  0  0  0  0  0  0  0  0  0  0  0
    1.6907    4.5788    2.0783 O   0  0  0  0  0  0  0  0  0  0  0  0
    0.1535    4.7037    3.8661 C   0  0  0  0  0  0  0  0  0  0  0  0
    2.8825    1.0100    2.6179 C   0  0  0  0  0  0  0  0  0  0  0  0
    2.4323   -0.0207    3.4367 C   0  0  0  0  0  0  0  0  0  0  0  0
    3.3560   -0.8109    4.1124 C   0  0  0  0  0  0  0  0  0  0  0  0
    4.7166   -0.5626    3.9613 C   0  0  0  0  0  0  0  0  0  0  0  0
    5.1660    0.4670    3.1402 C   0  0  0  0  0  0  0  0  0  0  0  0
    4.2423    1.2583    2.4654 C   0  0  0  0  0  0  0  0  0  0  0  0
    5.7213   -1.4290    4.7038 C   0  0  0  0  0  0  0  0  0  0  0  0
    3.2066   -3.1357   -3.0949 H   0  0  0  0  0  0  0  0  0  0  0  0
    1.9790   -4.2014   -3.2494 H   0  0  0  0  0  0  0  0  0  0  0  0
    0.9642   -1.6459    0.6569 H   0  0  0  0  0  0  0  0  0  0  0  0
    3.1925   -1.5061   -1.2327 H   0  0  0  0  0  0  0  0  0  0  0  0
    1.0337   -3.4099   -1.2867 H   0  0  0  0  0  0  0  0  0  0  0  0
    3.8783   -5.2316   -2.3766 H   0  0  0  0  0  0  0  0  0  0  0  0
    2.6463   -5.2729   -1.3056 H   0  0  0  0  0  0  0  0  0  0  0  0
    4.8335   -3.3923   -1.2327 H   0  0  0  0  0  0  0  0  0  0  0  0
    4.6313   -4.6321   -0.1892 H   0  0  0  0  0  0  0  0  0  0  0  0
    2.6273   -3.6492    0.6121 H   0  0  0  0  0  0  0  0  0  0  0  0
    3.8555   -2.5849    0.7715 H   0  0  0  0  0  0  0  0  0  0  0  0
    0.3741   -1.2608   -2.0513 H   0  0  0  0  0  0  0  0  0  0  0  0
    1.6037   -1.2651   -3.1259 H   0  0  0  0  0  0  0  0  0  0  0  0
    0.3727   -2.3255   -3.2895 H   0  0  0  0  0  0  0  0  0  0  0  0
    0.4226    0.4226    1.5774 H   0  0  0  0  0  0  0  0  0  0  0  0
    0.4226    1.5774    0.4226 H   0  0  0  0  0  0  0  0  0  0  0  0
    2.3646    2.5386    1.3068 H   0  0  0  0  0  0  0  0  0  0  0  0
    0.4806    2.0807    3.5018 H   0  0  0  0  0  0  0  0  0  0  0  0
   -0.3335    4.0426    4.4368 H   0  0  0  0  0  0  0  0  0  0  0  0
    0.7308    5.2810    4.4434 H   0  0  0  0  0  0  0  0  0  0  0  0
   -0.5076    5.2744    3.3790 H   0  0  0  0  0  0  0  0  0  0  0  0
    1.4524   -0.1921    3.5385 H   0  0  0  0  0  0  0  0  0  0  0  0
    3.0436   -1.5541    4.7041 H   0  0  0  0  0  0  0  0  0  0  0  0
    6.1460    0.6369    3.0360 H   0  0  0  0  0  0  0  0  0  0  0  0
    4.5542    2.0018    1.8738 H   0  0  0  0  0  0  0  0  0  0  0  0
    6.6487   -1.1225    4.4891 H   0  0  0  0  0  0  0  0  0  0  0  0
    5.5644   -1.3520    5.6884 H   0  0  0  0  0  0  0  0  0  0  0  0
    5.6118   -2.3822    4.4223 H   0  0  0  0  0  0  0  0  0  0  0  0
  1  2  2  0  0  0  0
  2  3  1  0  0  0  0
  3  4  1  0  0  0  0
  4  5  1  0  0  0  0
  5  6  1  0  0  0  0
  6  7  1  0  0  0  0
  7  8  1  0  0  0  0
  8  9  1  0  0  0  0
  9  4  1  0  0  0  0
  5 10  1  0  0  0  0
  2 11  1  0  0  0  0
 11 12  1  0  0  0  0
 12 13  1  0  0  0  0
 13 14  1  0  0  0  0
 14 15  2  0  0  0  0
 14 16  1  0  0  0  0
 12 17  1  0  0  0  0
 17 18  1  0  0  0  0
 18 19  2  0  0  0  0
 19 20  1  0  0  0  0
 20 21  2  0  0  0  0
 21 22  1  0  0  0  0
 22 17  2  0  0  0  0
 20 23  1  0  0  0  0
  6 24  1  0  0  0  0
  6 25  1  0  0  0  0
  3 26  1  0  0  0  0
  4 27  1  0  0  0  0
  5 28  1  0  0  0  0
  7 29  1  0  0  0  0
  7 30  1  0  0  0  0
  8 31  1  0  0  0  0
  8 32  1  0  0  0  0
  9 33  1  0  0  0  0
  9 34  1  0  0  0  0
 10 35  1  0  0  0  0
 10 36  1  0  0  0  0
 10 37  1  0  0  0  0
 11 38  1  0  0  0  0
 11 39  1  0  0  0  0
 12 40  1  0  0  0  0
 13 41  1  0  0  0  0
 16 42  1  0  0  0  0
 16 43  1  0  0  0  0
 16 44  1  0  0  0  0
 18 45  1  0  0  0  0
 19 46  1  0  0  0  0
 21 47  1  0  0  0  0
 22 48  1  0  0  0  0
 23 49  1  0  0  0  0
 23 50  1  0  0  0  0
 23 51  1  0  0  0  0
M  CHG  1   6   1
M  END
>  <result-rank>
28

>  <similarity>
0.948

>  <query-name>
LIG_A_1101_C[NH+](C)[C@H]([R*])C1CCC1_2

>  <query-smiles>
O=C(N[C@@H]([NH+](C)C)C1CCC1)[C@@H](NC(=O)C)Cc2ccc(O)cc2

>  <source>
REALspace_2019-12

>  <similarity-descriptor>
0.996;0.927;0.852;0.996;0.996;0.996;0.0;0.995;1.000;1.000;1.000;1.000;1.000;0.0;0.0

>  <similarity-descriptor-smiles>
C1CCC[NH2+]C1;c1ccc(cc1)C;O=CN;C1CCC[NH2+]C1;C1CCC[NH2+]C1;C1CCC[NH2+]C1;;C;CC;N;C=O;C;CC;;

>  <reaction-name>
s_270006a

>  <reagent1-name>
11615602

>  <reagent1-smiles>
[R1*]NC1C(NCCC1)C

>  <reagent2-name>
8408010

>  <reagent2-smiles>
[R1*]C(=O)CC(NC(=O)C)c1ccc(cc1)C

$$$$
s_240690b____17037432____16478718
          04022015093D 1   1.00000     0.00000     0
            
 46 47  0  0  0  0            999 V2000
    0.9150    1.0000    3.2257 O   0  0  0  0  0  0  0  0  0  0  0  0
    0.3150    1.0000    2.1865 C   0  0  0  0  0  0  0  0  0  0  0  0
    1.0000    1.0000    1.0000 N   0  0  0  0  0  0  0  0  0  0  0  0
    2.4700    1.0000    1.0000 C   0  0  0  0  0  0  0  0  0  0  0  0
    2.9767   -0.4113    1.2488 C   0  0  3  0  0  0  0  0  0  0  0  0
    4.3967   -0.4113    1.2488 O   0  0  0  0  0  0  0  0  0  0  0  0
    2.4700   -1.3325    0.1510 C   0  0  0  0  0  0  0  0  0  0  0  0
    2.9758   -1.2034   -1.1383 C   0  0  0  0  0  0  0  0  0  0  0  0
    2.5157   -2.0446   -2.1459 C   0  0  0  0  0  0  0  0  0  0  0  0
    1.5544   -3.0060   -1.8504 C   0  0  0  0  0  0  0  0  0  0  0  0
    1.1048   -3.8242   -2.8253 O   0  0  0  0  0  0  0  0  0  0  0  0
    1.0450   -3.1391   -0.5627 C   0  0  0  0  0  0  0  0  0  0  0  0
    1.5090   -2.2956    0.4411 C   0  0  0  0  0  0  0  0  0  0  0  0
   -1.2043    1.0000    2.1865 C   0  0  3  0  0  0  0  0  0  0  0  0
   -1.7623   -0.2252    1.4791 C   0  0  0  0  0  0  0  0  0  0  0  0
   -3.2833   -0.2114    1.4577 C   0  0  0  0  0  0  0  0  0  0  0  0
   -3.7600   -0.1829    2.8507 N   0  3  0  0  0  0  0  0  0  0  0  0
   -3.2581    0.9620    3.6277 C   0  0  0  0  0  0  0  0  0  0  0  0
   -1.7384    1.0339    3.6095 C   0  0  0  0  0  0  0  0  0  0  0  0
   -3.7558   -1.4818    0.7701 C   0  0  0  0  0  0  0  0  0  0  0  0
   -3.8287    0.9552    0.6460 C   0  0  0  0  0  0  0  0  0  0  0  0
   -3.4638   -1.0244    3.3025 H   0  0  0  0  0  0  0  0  0  0  0  0
   -4.7592   -0.1436    2.8412 H   0  0  0  0  0  0  0  0  0  0  0  0
    0.5000    1.0000    0.1340 H   0  0  0  0  0  0  0  0  0  0  0  0
    2.8033    1.6060    1.7222 H   0  0  0  0  0  0  0  0  0  0  0  0
    2.8033    1.3225    0.1140 H   0  0  0  0  0  0  0  0  0  0  0  0
    2.6433   -0.7338    2.1348 H   0  0  0  0  0  0  0  0  0  0  0  0
    4.7300    0.1947    1.9711 H   0  0  0  0  0  0  0  0  0  0  0  0
    3.6668   -0.5092   -1.3398 H   0  0  0  0  0  0  0  0  0  0  0  0
    2.8731   -1.9590   -3.0759 H   0  0  0  0  0  0  0  0  0  0  0  0
    0.4139   -4.5168   -2.6177 H   0  0  0  0  0  0  0  0  0  0  0  0
    0.3536   -3.8329   -0.3612 H   0  0  0  0  0  0  0  0  0  0  0  0
    1.1518   -2.3814    1.3712 H   0  0  0  0  0  0  0  0  0  0  0  0
   -1.5230    1.8176    1.7069 H   0  0  0  0  0  0  0  0  0  0  0  0
   -1.4241   -0.2394    0.5381 H   0  0  0  0  0  0  0  0  0  0  0  0
   -1.4514   -1.0465    1.9575 H   0  0  0  0  0  0  0  0  0  0  0  0
   -3.5667    0.8710    4.5745 H   0  0  0  0  0  0  0  0  0  0  0  0
   -3.6268    1.8053    3.2366 H   0  0  0  0  0  0  0  0  0  0  0  0
   -1.4467    1.8843    4.0474 H   0  0  0  0  0  0  0  0  0  0  0  0
   -1.3688    0.2545    4.1154 H   0  0  0  0  0  0  0  0  0  0  0  0
   -3.4272   -1.4917   -0.1743 H   0  0  0  0  0  0  0  0  0  0  0  0
   -3.3957   -2.2779    1.2566 H   0  0  0  0  0  0  0  0  0  0  0  0
   -4.7553   -1.5119    0.7757 H   0  0  0  0  0  0  0  0  0  0  0  0
   -3.4830    0.8999   -0.2908 H   0  0  0  0  0  0  0  0  0  0  0  0
   -4.8278    0.9157    0.6354 H   0  0  0  0  0  0  0  0  0  0  0  0
   -3.5334    1.8163    1.0600 H   0  0  0  0  0  0  0  0  0  0  0  0
  1  2  2  0  0  0  0
  2  3  1  0  0  0  0
  3  4  1  0  0  0  0
  4  5  1  0  0  0  0
  5  6  1  0  0  0  0
  5  7  1  0  0  0  0
  7  8  1  0  0  0  0
  8  9  2  0  0  0  0
  9 10  1  0  0  0  0
 10 11  1  0  0  0  0
 10 12  2  0  0  0  0
 12 13  1  0  0  0  0
 13  7  2  0  0  0  0
  2 14  1  0  0  0  0
 14 15  1  0  0  0  0
 15 16  1  0  0  0  0
 16 17  1  0  0  0  0
 17 18  1  0  0  0  0
 18 19  1  0  0  0  0
 19 14  1  0  0  0  0
 16 20  1  0  0  0  0
 16 21  1  0  0  0  0
 17 22  1  0  0  0  0
 17 23  1  0  0  0  0
  3 24  1  0  0  0  0
  4 25  1  0  0  0  0
  4 26  1  0  0  0  0
  5 27  1  0  0  0  0
  6 28  1  0  0  0  0
  8 29  1  0  0  0  0
  9 30  1  0  0  0  0
 11 31  1  0  0  0  0
 12 32  1  0  0  0  0
 13 33  1  0  0  0  0
 14 34  1  0  0  0  0
 15 35  1  0  0  0  0
 15 36  1  0  0  0  0
 18 37  1  0  0  0  0
 18 38  1  0  0  0  0
 19 39  1  0  0  0  0
 19 40  1  0  0  0  0
 20 41  1  0  0  0  0
 20 42  1  0  0  0  0
 20 43  1  0  0  0  0
 21 44  1  0  0  0  0
 21 45  1  0  0  0  0
 21 46  1  0  0  0  0
M  CHG  1  17   1
M  END
>  <result-rank>
29

>  <similarity>
0.948

>  <query-name>
LIG_A_1101_C[NH+](C)[C@H]([R*])C1CCC1_2

>  <query-smiles>
O=C(N[C@@H]([NH+](C)C)C1CCC1)[C@@H](NC(=O)C)Cc2ccc(O)cc2

>  <source>
REALspace_2019-12

>  <similarity-descriptor>
0.949;1.000;1.000;0.949;0.949;0.949;0.995;0.995;0.952;0.952;0.0;0.0;0.939;1.000;0.100

>  <similarity-descriptor-smiles>
C1CC[NH2+]CC1;c1ccccc1;O=C;C1CC[NH2+]CC1;C1CC[NH2+]CC1;C1CC[NH2+]CC1;C;C;NC;NC;;;C;O;O

>  <reaction-name>
s_240690b

>  <reagent1-name>
17037432

>  <reagent1-smiles>
[R1*]NCC(O)c1ccc(O)cc1

>  <reagent2-name>
16478718

>  <reagent2-smiles>
[R1*]C(=O)C1CC(NCC1)(C)C

$$$$
s_273652a____12626564____11610416
          04022015093D 1   1.00000     0.00000     0
            
 50 51  0  0  0  0            999 V2000
    2.1530    1.3245   -3.0405 F   0  0  0  0  0  0  0  0  0  0  0  0
    2.7386    0.2282   -2.5672 C   0  0  0  0  0  0  0  0  0  0  0  0
    3.1956    0.2075   -1.2535 C   0  0  0  0  0  0  0  0  0  0  0  0
    3.8108   -0.9280   -0.7370 C   0  0  0  0  0  0  0  0  0  0  0  0
    3.9647   -2.0467   -1.5503 C   0  0  0  0  0  0  0  0  0  0  0  0
    3.5059   -2.0202   -2.8630 C   0  0  0  0  0  0  0  0  0  0  0  0
    3.6538   -3.0897   -3.6385 F   0  0  0  0  0  0  0  0  0  0  0  0
    2.8907   -0.8873   -3.3839 C   0  0  0  0  0  0  0  0  0  0  0  0
    3.0267    1.4309   -0.3667 C   0  0  3  0  0  0  0  0  0  0  0  0
    4.3216    2.1104   -0.2174 N   0  0  0  0  0  0  0  0  0  0  0  0
    4.4656    3.4087   -0.6306 C   0  0  0  0  0  0  0  0  0  0  0  0
    3.5347    3.9911   -1.1145 O   0  0  0  0  0  0  0  0  0  0  0  0
    5.8046    4.1113   -0.4762 C   0  0  0  0  0  0  0  0  0  0  0  0
    2.5200    1.0000    1.0000 C   0  0  0  0  0  0  0  0  0  0  0  0
    1.0000    1.0000    1.0000 C   0  0  0  0  0  0  0  0  0  0  0  0
    0.4000    1.0000   -0.0392 O   0  0  0  0  0  0  0  0  0  0  0  0
    0.3150    1.0000    2.1865 N   0  0  0  0  0  0  0  0  0  0  0  0
   -1.1579    1.0000    2.1865 C   0  0  0  0  0  0  0  0  0  0  0  0
   -1.6764    2.2383    2.9014 C   0  0  0  0  0  0  0  0  0  0  0  0
   -3.1967    2.2204    2.9167 C   0  0  0  0  0  0  0  0  0  0  0  0
   -3.7064    1.0073    3.5736 N   0  3  3  0  0  0  0  0  0  0  0  0
   -5.1780    1.0070    3.6142 C   0  0  0  0  0  0  0  0  0  0  0  0
   -5.6638    2.2210    4.3892 C   0  0  0  0  0  0  0  0  0  0  0  0
   -5.0809    2.5732    5.3893 O   0  5  0  0  0  0  0  0  0  0  0  0
   -6.6654    2.8555    3.9933 O   0  0  0  0  0  0  0  0  0  0  0  0
   -3.2057   -0.2133    2.9235 C   0  0  0  0  0  0  0  0  0  0  0  0
   -1.6855   -0.2297    2.9081 C   0  0  0  0  0  0  0  0  0  0  0  0
   -3.3749    1.0087    4.5171 H   0  0  0  0  0  0  0  0  0  0  0  0
    4.1387   -0.9404    0.2076 H   0  0  0  0  0  0  0  0  0  0  0  0
    4.4050   -2.8695   -1.1909 H   0  0  0  0  0  0  0  0  0  0  0  0
    2.5635   -0.8747   -4.3288 H   0  0  0  0  0  0  0  0  0  0  0  0
    2.3680    2.0569   -0.7843 H   0  0  0  0  0  0  0  0  0  0  0  0
    5.0974    1.6251    0.1858 H   0  0  0  0  0  0  0  0  0  0  0  0
    6.4633    3.4853   -0.0587 H   0  0  0  0  0  0  0  0  0  0  0  0
    6.1380    4.3948   -1.3754 H   0  0  0  0  0  0  0  0  0  0  0  0
    5.6935    4.9160    0.1070 H   0  0  0  0  0  0  0  0  0  0  0  0
    2.8533    0.0795    1.2041 H   0  0  0  0  0  0  0  0  0  0  0  0
    2.8533    1.6370    1.6951 H   0  0  0  0  0  0  0  0  0  0  0  0
    0.8150    1.0000    3.0525 H   0  0  0  0  0  0  0  0  0  0  0  0
   -1.4895    0.9985    1.2430 H   0  0  0  0  0  0  0  0  0  0  0  0
   -1.3582    3.0565    2.4226 H   0  0  0  0  0  0  0  0  0  0  0  0
   -1.3343    2.2476    3.8410 H   0  0  0  0  0  0  0  0  0  0  0  0
   -3.5275    3.0235    3.4123 H   0  0  0  0  0  0  0  0  0  0  0  0
   -3.5330    2.2477    1.9754 H   0  0  0  0  0  0  0  0  0  0  0  0
   -5.4989    0.1738    4.0646 H   0  0  0  0  0  0  0  0  0  0  0  0
   -5.5372    1.0413    2.6816 H   0  0  0  0  0  0  0  0  0  0  0  0
   -3.5438   -0.2465    1.9830 H   0  0  0  0  0  0  0  0  0  0  0  0
   -3.5375   -1.0121    3.4254 H   0  0  0  0  0  0  0  0  0  0  0  0
   -1.3450   -0.2330    3.8484 H   0  0  0  0  0  0  0  0  0  0  0  0
   -1.3682   -1.0520    2.4358 H   0  0  0  0  0  0  0  0  0  0  0  0
  1  2  1  0  0  0  0
  2  3  1  0  0  0  0
  3  4  2  0  0  0  0
  4  5  1  0  0  0  0
  5  6  2  0  0  0  0
  6  7  1  0  0  0  0
  6  8  1  0  0  0  0
  8  2  2  0  0  0  0
  3  9  1  0  0  0  0
  9 10  1  0  0  0  0
 10 11  1  0  0  0  0
 11 12  2  0  0  0  0
 11 13  1  0  0  0  0
  9 14  1  0  0  0  0
 14 15  1  0  0  0  0
 15 16  2  0  0  0  0
 15 17  1  0  0  0  0
 17 18  1  0  0  0  0
 18 19  1  0  0  0  0
 19 20  1  0  0  0  0
 20 21  1  0  0  0  0
 21 22  1  0  0  0  0
 22 23  1  0  0  0  0
 23 24  1  0  0  0  0
 23 25  2  0  0  0  0
 21 26  1  0  0  0  0
 26 27  1  0  0  0  0
 27 18  1  0  0  0  0
 21 28  1  0  0  0  0
  4 29  1  0  0  0  0
  5 30  1  0  0  0  0
  8 31  1  0  0  0  0
  9 32  1  0  0  0  0
 10 33  1  0  0  0  0
 13 34  1  0  0  0  0
 13 35  1  0  0  0  0
 13 36  1  0  0  0  0
 14 37  1  0  0  0  0
 14 38  1  0  0  0  0
 17 39  1  0  0  0  0
 18 40  1  0  0  0  0
 19 41  1  0  0  0  0
 19 42  1  0  0  0  0
 20 43  1  0  0  0  0
 20 44  1  0  0  0  0
 22 45  1  0  0  0  0
 22 46  1  0  0  0  0
 26 47  1  0  0  0  0
 26 48  1  0  0  0  0
 27 49  1  0  0  0  0
 27 50  1  0  0  0  0
M  CHG  2  21   1  24  -1
M  END
>  <result-rank>
30

>  <similarity>
0.948

>  <query-name>
LIG_A_1101_C[NH+](C)[C@H]([R*])C1CCC1_2

>  <query-smiles>
O=C(N[C@@H]([NH+](C)C)C1CCC1)[C@@H](NC(=O)C)Cc2ccc(O)cc2

>  <source>
REALspace_2019-12

>  <similarity-descriptor>
0.986;0.948;1.000;1.000;0.986;0.986;0.0;0.951;1.000;1.000;1.000;1.000;1.000;0.0;0.091

>  <similarity-descriptor-smiles>
C1CC[NH+]CC1;Fc1cc(ccc1)F;C=O;N;C1CC[NH+]CC1;C1CC[NH+]CC1;;C;CC;N;C=O;C;CC;;C([O-])=O

>  <reaction-name>
s_273652a

>  <reagent1-name>
12626564

>  <reagent1-smiles>
[R1*]NC1CCN(CC(=O)O)CC1

>  <reagent2-name>
11610416

>  <reagent2-smiles>
[R1*]C(=O)CC(NC(=O)C)c1c(F)cc(F)cc1

$$$$
s_527a____3706250____5637264
          04022015093D 1   1.00000     0.00000     0
            
 55 56  0  0  0  0            999 V2000
    2.0549   -0.8478   -2.5966 F   0  0  0  0  0  0  0  0  0  0  0  0
    2.5229   -1.5806   -1.5902 C   0  0  0  0  0  0  0  0  0  0  0  0
    3.0192   -0.9488   -0.4546 C   0  0  0  0  0  0  0  0  0  0  0  0
    3.5133   -1.6948    0.6103 C   0  0  0  0  0  0  0  0  0  0  0  0
    3.5058   -3.0840    0.5279 C   0  0  0  0  0  0  0  0  0  0  0  0
    3.0084   -3.7102   -0.6100 C   0  0  0  0  0  0  0  0  0  0  0  0
    3.0022   -5.0372   -0.6871 F   0  0  0  0  0  0  0  0  0  0  0  0
    2.5139   -2.9687   -1.6773 C   0  0  0  0  0  0  0  0  0  0  0  0
    3.0267    0.5691   -0.3667 C   0  0  3  0  0  0  0  0  0  0  0  0
    4.3972    1.0643   -0.5598 N   0  0  0  0  0  0  0  0  0  0  0  0
    4.6793    1.9120   -1.5984 C   0  0  0  0  0  0  0  0  0  0  0  0
    3.8076    2.2502   -2.3506 O   0  0  0  0  0  0  0  0  0  0  0  0
    6.0965    2.4241   -1.7980 C   0  0  0  0  0  0  0  0  0  0  0  0
    2.5200    1.0000    1.0000 C   0  0  0  0  0  0  0  0  0  0  0  0
    1.0000    1.0000    1.0000 C   0  0  0  0  0  0  0  0  0  0  0  0
    0.4000    1.0000   -0.0392 O   0  0  0  0  0  0  0  0  0  0  0  0
    0.3150    1.0000    2.1865 N   0  0  0  0  0  0  0  0  0  0  0  0
    1.0515    1.0000    3.4620 C   0  0  0  0  0  0  0  0  0  0  0  0
    0.6916   -0.2383    4.2685 C   0  0  0  0  0  0  0  0  0  0  0  0
    1.4384   -0.2204    5.5928 C   0  0  0  0  0  0  0  0  0  0  0  0
    1.1244    0.9927    6.3626 N   0  3  3  0  0  0  0  0  0  0  0  0
    1.8250    0.9930    7.6574 C   0  0  0  0  0  0  0  0  0  0  0  0
    1.3968   -0.2210    8.4656 C   0  0  0  0  0  0  0  0  0  0  0  0
    2.2804   -1.0990    8.8375 C   0  0  0  0  0  0  0  0  0  0  0  0
   -0.0647   -0.4084    8.8390 C   0  0  0  0  0  0  0  0  0  0  0  0
    1.4370    2.2133    5.6040 C   0  0  0  0  0  0  0  0  0  0  0  0
    0.6903    2.2297    4.2797 C   0  0  0  0  0  0  0  0  0  0  0  0
    0.1416    0.9913    6.5473 H   0  0  0  0  0  0  0  0  0  0  0  0
    3.8698   -1.2384    1.4255 H   0  0  0  0  0  0  0  0  0  0  0  0
    3.8579   -3.6318    1.2867 H   0  0  0  0  0  0  0  0  0  0  0  0
    2.1581   -3.4252   -2.4927 H   0  0  0  0  0  0  0  0  0  0  0  0
    2.4326    0.9470   -1.0768 H   0  0  0  0  0  0  0  0  0  0  0  0
    5.1236    0.7825    0.0671 H   0  0  0  0  0  0  0  0  0  0  0  0
    6.6906    2.0462   -1.0879 H   0  0  0  0  0  0  0  0  0  0  0  0
    6.4298    2.1406   -2.6972 H   0  0  0  0  0  0  0  0  0  0  0  0
    6.1014    3.4224   -1.7402 H   0  0  0  0  0  0  0  0  0  0  0  0
    2.8533    0.3630    1.6951 H   0  0  0  0  0  0  0  0  0  0  0  0
    2.8533    1.9205    1.2041 H   0  0  0  0  0  0  0  0  0  0  0  0
   -0.6850    1.0000    2.1865 H   0  0  0  0  0  0  0  0  0  0  0  0
    2.0343    1.0015    3.2775 H   0  0  0  0  0  0  0  0  0  0  0  0
    0.9471   -1.0565    3.7536 H   0  0  0  0  0  0  0  0  0  0  0  0
   -0.2932   -0.2476    4.4421 H   0  0  0  0  0  0  0  0  0  0  0  0
    1.1746   -1.0235    6.1271 H   0  0  0  0  0  0  0  0  0  0  0  0
    2.4218   -0.2477    5.4134 H   0  0  0  0  0  0  0  0  0  0  0  0
    1.5955    1.8262    8.1605 H   0  0  0  0  0  0  0  0  0  0  0  0
    2.8123    0.9587    7.5022 H   0  0  0  0  0  0  0  0  0  0  0  0
    1.9986   -1.8977    9.3692 H   0  0  0  0  0  0  0  0  0  0  0  0
    3.2419   -0.9757    8.5918 H   0  0  0  0  0  0  0  0  0  0  0  0
   -0.6018    0.3529    8.4757 H   0  0  0  0  0  0  0  0  0  0  0  0
   -0.4001   -1.2674    8.4522 H   0  0  0  0  0  0  0  0  0  0  0  0
   -0.1537   -0.4340    9.8347 H   0  0  0  0  0  0  0  0  0  0  0  0
    2.4206    2.2465    5.4266 H   0  0  0  0  0  0  0  0  0  0  0  0
    1.1682    3.0121    6.1423 H   0  0  0  0  0  0  0  0  0  0  0  0
   -0.2943    2.2330    4.4551 H   0  0  0  0  0  0  0  0  0  0  0  0
    0.9406    3.0520    3.7688 H   0  0  0  0  0  0  0  0  0  0  0  0
  1  2  1  0  0  0  0
  2  3  1  0  0  0  0
  3  4  2  0  0  0  0
  4  5  1  0  0  0  0
  5  6  2  0  0  0  0
  6  7  1  0  0  0  0
  6  8  1  0  0  0  0
  8  2  2  0  0  0  0
  3  9  1  0  0  0  0
  9 10  1  0  0  0  0
 10 11  1  0  0  0  0
 11 12  2  0  0  0  0
 11 13  1  0  0  0  0
  9 14  1  0  0  0  0
 14 15  1  0  0  0  0
 15 16  2  0  0  0  0
 15 17  1  0  0  0  0
 17 18  1  0  0  0  0
 18 19  1  0  0  0  0
 19 20  1  0  0  0  0
 20 21  1  0  0  0  0
 21 22  1  0  0  0  0
 22 23  1  0  0  0  0
 23 24  2  0  0  0  0
 23 25  1  0  0  0  0
 21 26  1  0  0  0  0
 26 27  1  0  0  0  0
 27 18  1  0  0  0  0
 21 28  1  0  0  0  0
  4 29  1  0  0  0  0
  5 30  1  0  0  0  0
  8 31  1  0  0  0  0
  9 32  1  0  0  0  0
 10 33  1  0  0  0  0
 13 34  1  0  0  0  0
 13 35  1  0  0  0  0
 13 36  1  0  0  0  0
 14 37  1  0  0  0  0
 14 38  1  0  0  0  0
 17 39  1  0  0  0  0
 18 40  1  0  0  0  0
 19 41  1  0  0  0  0
 19 42  1  0  0  0  0
 20 43  1  0  0  0  0
 20 44  1  0  0  0  0
 22 45  1  0  0  0  0
 22 46  1  0  0  0  0
 24 47  1  0  0  0  0
 24 48  1  0  0  0  0
 25 49  1  0  0  0  0
 25 50  1  0  0  0  0
 25 51  1  0  0  0  0
 26 52  1  0  0  0  0
 26 53  1  0  0  0  0
 27 54  1  0  0  0  0
 27 55  1  0  0  0  0
M  CHG  1  21   1
M  END
>  <result-rank>
31

>  <similarity>
0.948

>  <query-name>
LIG_A_1101_C[NH+](C)[C@H]([R*])C1CCC1_2

>  <query-smiles>
O=C(N[C@@H]([NH+](C)C)C1CCC1)[C@@H](NC(=O)C)Cc2ccc(O)cc2

>  <source>
REALspace_2019-12

>  <similarity-descriptor>
0.986;0.948;1.000;1.000;0.986;0.986;0.0;0.951;1.000;1.000;1.000;1.000;1.000;0.0;0.231

>  <similarity-descriptor-smiles>
C1CC[NH+]CC1;Fc1cc(ccc1)F;C=O;N;C1CC[NH+]CC1;C1CC[NH+]CC1;;C;CC;N;C=O;C;CC;;C.C.C

>  <reaction-name>
s_527a

>  <reagent1-name>
3706250

>  <reagent1-smiles>
[R1*]NC1CCN(CC(=C)C)CC1

>  <reagent2-name>
5637264

>  <reagent2-smiles>
[R1*]C(=O)CC(NC(=O)C)c1c(F)cc(F)cc1

$$$$
s_22____130461____518218
          04022015093D 1   1.00000     0.00000     0
            
 47 48  0  0  0  0            999 V2000
    5.9985   -1.6906    4.9244 Br  0  0  0  0  0  0  0  0  0  0  0  0
    4.7032   -0.5722    3.9690 C   0  0  0  0  0  0  0  0  0  0  0  0
    3.3416   -0.8163    4.1158 C   0  0  0  0  0  0  0  0  0  0  0  0
    2.4270   -0.0192    3.4352 C   0  0  0  0  0  0  0  0  0  0  0  0
    2.8824    1.0101    2.6178 C   0  0  0  0  0  0  0  0  0  0  0  0
    4.2457    1.2488    2.4756 C   0  0  0  0  0  0  0  0  0  0  0  0
    5.1661    0.4556    3.1530 C   0  0  0  0  0  0  0  0  0  0  0  0
    1.8776    1.8776    1.8776 C   0  0  3  0  0  0  0  0  0  0  0  0
    1.0385    2.5935    2.8494 N   0  0  0  0  0  0  0  0  0  0  0  0
    1.0211    3.9634    2.8612 C   0  0  0  0  0  0  0  0  0  0  0  0
    1.6907    4.5788    2.0783 O   0  0  0  0  0  0  0  0  0  0  0  0
    0.2391    4.6306    3.7669 N   0  0  0  0  0  0  0  0  0  0  0  0
    1.0000    1.0000    1.0000 C   0  0  0  0  0  0  0  0  0  0  0  0
    1.8776    0.1224    0.1224 C   0  0  0  0  0  0  0  0  0  0  0  0
    2.9191    0.5450   -0.2979 O   0  0  0  0  0  0  0  0  0  0  0  0
    1.4795   -1.1510   -0.1886 N   0  0  0  0  0  0  0  0  0  0  0  0
    2.3299   -2.0014   -1.0390 C   0  0  0  0  0  0  0  0  0  0  0  0
    1.5712   -2.4025   -2.2947 C   0  0  0  0  0  0  0  0  0  0  0  0
    2.4470   -3.2978   -3.1568 C   0  0  0  0  0  0  0  0  0  0  0  0
    2.8701   -4.4967   -2.4176 N   0  3  3  0  0  0  0  0  0  0  0  0
    3.5874   -4.1478   -1.1820 C   0  0  0  0  0  0  0  0  0  0  0  0
    2.7277   -3.2643   -0.2920 C   0  0  0  0  0  0  0  0  0  0  0  0
    3.6927   -5.3766   -3.2641 C   0  0  0  0  0  0  0  0  0  0  0  0
    2.0470   -5.0030   -2.1602 H   0  0  0  0  0  0  0  0  0  0  0  0
    3.0230   -1.5585    4.7054 H   0  0  0  0  0  0  0  0  0  0  0  0
    1.4458   -0.1855    3.5333 H   0  0  0  0  0  0  0  0  0  0  0  0
    4.5641    1.9911    1.8860 H   0  0  0  0  0  0  0  0  0  0  0  0
    6.1473    0.6217    3.0549 H   0  0  0  0  0  0  0  0  0  0  0  0
    2.3646    2.5386    1.3068 H   0  0  0  0  0  0  0  0  0  0  0  0
    0.4806    2.0807    3.5018 H   0  0  0  0  0  0  0  0  0  0  0  0
   -0.3189    4.1178    4.4193 H   0  0  0  0  0  0  0  0  0  0  0  0
    0.2263    5.6305    3.7756 H   0  0  0  0  0  0  0  0  0  0  0  0
    0.4226    0.4226    1.5774 H   0  0  0  0  0  0  0  0  0  0  0  0
    0.4226    1.5774    0.4226 H   0  0  0  0  0  0  0  0  0  0  0  0
    0.6116   -1.5032    0.1617 H   0  0  0  0  0  0  0  0  0  0  0  0
    3.1530   -1.4952   -1.2964 H   0  0  0  0  0  0  0  0  0  0  0  0
    1.3245   -1.5822   -2.8106 H   0  0  0  0  0  0  0  0  0  0  0  0
    0.7409   -2.8971   -2.0379 H   0  0  0  0  0  0  0  0  0  0  0  0
    1.9304   -3.5784   -3.9658 H   0  0  0  0  0  0  0  0  0  0  0  0
    3.2580   -2.7859   -3.4402 H   0  0  0  0  0  0  0  0  0  0  0  0
    4.4272   -3.6585   -1.4171 H   0  0  0  0  0  0  0  0  0  0  0  0
    3.8174   -4.9864   -0.6881 H   0  0  0  0  0  0  0  0  0  0  0  0
    1.9038   -3.7647   -0.0259 H   0  0  0  0  0  0  0  0  0  0  0  0
    3.2455   -3.0155    0.5264 H   0  0  0  0  0  0  0  0  0  0  0  0
    3.9670   -6.1826   -2.7396 H   0  0  0  0  0  0  0  0  0  0  0  0
    3.1622   -5.6628   -4.0620 H   0  0  0  0  0  0  0  0  0  0  0  0
    4.5078   -4.8820   -3.5658 H   0  0  0  0  0  0  0  0  0  0  0  0
  1  2  1  0  0  0  0
  2  3  1  0  0  0  0
  3  4  2  0  0  0  0
  4  5  1  0  0  0  0
  5  6  2  0  0  0  0
  6  7  1  0  0  0  0
  7  2  2  0  0  0  0
  5  8  1  0  0  0  0
  8  9  1  0  0  0  0
  9 10  1  0  0  0  0
 10 11  2  0  0  0  0
 10 12  1  0  0  0  0
  8 13  1  0  0  0  0
 13 14  1  0  0  0  0
 14 15  2  0  0  0  0
 14 16  1  0  0  0  0
 16 17  1  0  0  0  0
 17 18  1  0  0  0  0
 18 19  1  0  0  0  0
 19 20  1  0  0  0  0
 20 21  1  0  0  0  0
 21 22  1  0  0  0  0
 22 17  1  0  0  0  0
 20 23  1  0  0  0  0
 20 24  1  0  0  0  0
  3 25  1  0  0  0  0
  4 26  1  0  0  0  0
  6 27  1  0  0  0  0
  7 28  1  0  0  0  0
  8 29  1  0  0  0  0
  9 30  1  0  0  0  0
 12 31  1  0  0  0  0
 12 32  1  0  0  0  0
 13 33  1  0  0  0  0
 13 34  1  0  0  0  0
 16 35  1  0  0  0  0
 17 36  1  0  0  0  0
 18 37  1  0  0  0  0
 18 38  1  0  0  0  0
 19 39  1  0  0  0  0
 19 40  1  0  0  0  0
 21 41  1  0  0  0  0
 21 42  1  0  0  0  0
 22 43  1  0  0  0  0
 22 44  1  0  0  0  0
 23 45  1  0  0  0  0
 23 46  1  0  0  0  0
 23 47  1  0  0  0  0
M  CHG  1  20   1
M  END
>  <result-rank>
32

>  <similarity>
0.948

>  <query-name>
LIG_A_1101_C[NH+](C)[C@H]([R*])C1CCC1_2

>  <query-smiles>
O=C(N[C@@H]([NH+](C)C)C1CCC1)[C@@H](NC(=O)C)Cc2ccc(O)cc2

>  <source>
REALspace_2019-12

>  <similarity-descriptor>
0.986;0.962;1.000;1.000;0.986;0.986;0.0;1.000;1.000;1.000;0.840;0.840;1.000;0.0;0.100

>  <similarity-descriptor-smiles>
C1CC[NH+]CC1;Brc1ccccc1;C=O;N;C1CC[NH+]CC1;C1CC[NH+]CC1;;C;CC;N;C=O;C=O;CC;;N

>  <reaction-name>
s_22

>  <reagent1-name>
130461

>  <reagent1-smiles>
[R1*]NC1CCN(CC1)C

>  <reagent2-name>
518218

>  <reagent2-smiles>
[R1*]C(=O)CC(NC(=O)N)c1ccc(Br)cc1

$$$$
m_272310____13246668____14588568
          04022015093D 1   1.00000     0.00000     0
            
 52 53  0  0  0  0            999 V2000
    4.0547    2.7087    0.5722 O   0  5  0  0  0  0  0  0  0  0  0  0
    2.9767    2.2411    0.2835 C   0  0  0  0  0  0  0  0  0  0  0  0
    2.2797    2.7786   -0.6041 O   0  0  0  0  0  0  0  0  0  0  0  0
    2.4700    1.0000    1.0000 C   0  0  3  0  0  0  0  0  0  0  0  0
    1.0000    1.0000    1.0000 N   0  0  0  0  0  0  0  0  0  0  0  0
    0.3150    1.0000    2.1865 C   0  0  0  0  0  0  0  0  0  0  0  0
    0.9150    1.0000    3.2257 O   0  0  0  0  0  0  0  0  0  0  0  0
   -1.0550    1.0000    2.1865 N   0  0  0  0  0  0  0  0  0  0  0  0
   -1.7913    1.0000    3.4617 C   0  0  3  0  0  0  0  0  0  0  0  0
   -2.6682    2.2383    3.5508 C   0  0  0  0  0  0  0  0  0  0  0  0
   -3.4430    2.2184    4.8585 C   0  0  3  0  0  0  0  0  0  0  0  0
   -4.2598    0.9989    4.9586 N   0  3  3  0  0  0  0  0  0  0  0  0
   -3.4418   -0.2190    4.8603 C   0  0  0  0  0  0  0  0  0  0  0  0
   -2.6698   -0.2376    3.5506 C   0  0  0  0  0  0  0  0  0  0  0  0
   -4.9837    0.9541    6.2377 C   0  0  0  0  0  0  0  0  0  0  0  0
   -4.3089    3.4667    4.9138 C   0  0  0  0  0  0  0  0  0  0  0  0
    2.9767   -0.2411    0.2835 C   0  0  0  0  0  0  0  0  0  0  0  0
    4.4851   -0.3381    0.4434 C   0  0  0  0  0  0  0  0  0  0  0  0
    5.0161   -0.8889    1.6051 C   0  0  0  0  0  0  0  0  0  0  0  0
    6.3958   -0.9805    1.7555 C   0  0  0  0  0  0  0  0  0  0  0  0
    7.2281   -0.5197    0.7403 C   0  0  0  0  0  0  0  0  0  0  0  0
    8.5676   -0.6063    0.8823 O   0  0  0  0  0  0  0  0  0  0  0  0
    9.4239   -0.0429   -0.1004 C   0  0  0  0  0  0  0  0  0  0  0  0
    6.7022    0.0323   -0.4233 C   0  0  0  0  0  0  0  0  0  0  0  0
    5.3218    0.1210   -0.5687 C   0  0  0  0  0  0  0  0  0  0  0  0
   -4.9264    0.9980    4.2132 H   0  0  0  0  0  0  0  0  0  0  0  0
    2.8033    1.0000    1.9428 H   0  0  0  0  0  0  0  0  0  0  0  0
    0.5000    1.0000    0.1340 H   0  0  0  0  0  0  0  0  0  0  0  0
   -1.5550    1.0000    1.3204 H   0  0  0  0  0  0  0  0  0  0  0  0
   -1.1401    0.9996    4.2206 H   0  0  0  0  0  0  0  0  0  0  0  0
   -2.0942    3.0564    3.5160 H   0  0  0  0  0  0  0  0  0  0  0  0
   -3.3096    2.2483    2.7836 H   0  0  0  0  0  0  0  0  0  0  0  0
   -2.7952    2.2386    5.6200 H   0  0  0  0  0  0  0  0  0  0  0  0
   -4.0385   -1.0204    4.9020 H   0  0  0  0  0  0  0  0  0  0  0  0
   -2.7960   -0.2442    5.6234 H   0  0  0  0  0  0  0  0  0  0  0  0
   -2.0969   -1.0563    3.5131 H   0  0  0  0  0  0  0  0  0  0  0  0
   -3.3129   -0.2454    2.7848 H   0  0  0  0  0  0  0  0  0  0  0  0
   -5.5305    0.1180    6.2821 H   0  0  0  0  0  0  0  0  0  0  0  0
   -4.3278    0.9639    6.9924 H   0  0  0  0  0  0  0  0  0  0  0  0
   -5.5851    1.7499    6.3083 H   0  0  0  0  0  0  0  0  0  0  0  0
   -3.7288    4.2782    4.8438 H   0  0  0  0  0  0  0  0  0  0  0  0
   -4.9592    3.4553    4.1542 H   0  0  0  0  0  0  0  0  0  0  0  0
   -4.8085    3.4878    5.7799 H   0  0  0  0  0  0  0  0  0  0  0  0
    2.5467   -1.0529    0.6784 H   0  0  0  0  0  0  0  0  0  0  0  0
    2.7476   -0.1819   -0.6881 H   0  0  0  0  0  0  0  0  0  0  0  0
    4.4089   -1.2175    2.3285 H   0  0  0  0  0  0  0  0  0  0  0  0
    6.7867   -1.3747    2.5873 H   0  0  0  0  0  0  0  0  0  0  0  0
   10.3770   -0.1965    0.1603 H   0  0  0  0  0  0  0  0  0  0  0  0
    9.2463   -0.4750   -0.9846 H   0  0  0  0  0  0  0  0  0  0  0  0
    9.2513    0.9397   -0.1691 H   0  0  0  0  0  0  0  0  0  0  0  0
    7.3093    0.3614   -1.1466 H   0  0  0  0  0  0  0  0  0  0  0  0
    4.9308    0.5148   -1.4006 H   0  0  0  0  0  0  0  0  0  0  0  0
  1  2  1  0  0  0  0
  2  3  2  0  0  0  0
  2  4  1  0  0  0  0
  4  5  1  0  0  0  0
  5  6  1  0  0  0  0
  6  7  2  0  0  0  0
  6  8  1  0  0  0  0
  8  9  1  0  0  0  0
  9 10  1  0  0  0  0
 10 11  1  0  0  0  0
 11 12  1  0  0  0  0
 12 13  1  0  0  0  0
 13 14  1  0  0  0  0
 14  9  1  0  0  0  0
 12 15  1  0  0  0  0
 11 16  1  0  0  0  0
  4 17  1  0  0  0  0
 17 18  1  0  0  0  0
 18 19  1  0  0  0  0
 19 20  2  0  0  0  0
 20 21  1  0  0  0  0
 21 22  1  0  0  0  0
 22 23  1  0  0  0  0
 21 24  2  0  0  0  0
 24 25  1  0  0  0  0
 25 18  2  0  0  0  0
 12 26  1  0  0  0  0
  4 27  1  0  0  0  0
  5 28  1  0  0  0  0
  8 29  1  0  0  0  0
  9 30  1  0  0  0  0
 10 31  1  0  0  0  0
 10 32  1  0  0  0  0
 11 33  1  0  0  0  0
 13 34  1  0  0  0  0
 13 35  1  0  0  0  0
 14 36  1  0  0  0  0
 14 37  1  0  0  0  0
 15 38  1  0  0  0  0
 15 39  1  0  0  0  0
 15 40  1  0  0  0  0
 16 41  1  0  0  0  0
 16 42  1  0  0  0  0
 16 43  1  0  0  0  0
 17 44  1  0  0  0  0
 17 45  1  0  0  0  0
 19 46  1  0  0  0  0
 20 47  1  0  0  0  0
 23 48  1  0  0  0  0
 23 49  1  0  0  0  0
 23 50  1  0  0  0  0
 24 51  1  0  0  0  0
 25 52  1  0  0  0  0
M  CHG  2   1  -1  12   1
M  END
>  <result-rank>
33

>  <similarity>
0.947

>  <query-name>
LIG_A_1101_C[NH+](C)[C@H]([R*])C1CCC1_2

>  <query-smiles>
O=C(N[C@@H]([NH+](C)C)C1CCC1)[C@@H](NC(=O)C)Cc2ccc(O)cc2

>  <source>
REALspace_2019-12

>  <similarity-descriptor>
0.999;1.000;0.995;1.000;0.999;0.999;1.000;0.995;1.000;1.000;0.733;0.733;1.000;0.704;0.083

>  <similarity-descriptor-smiles>
C1CC[NH+]CC1;c1ccccc1;C=O;N;C1CC[NH+]CC1;C1CC[NH+]CC1;C;C;CN;CN;[O-]C=O;[O-]C=O;C;O;C

>  <reaction-name>
m_272310

>  <reagent1-name>
13246668

>  <reagent1-smiles>
[R1*]C(=O)NC1CC(N(CC1)C)C

>  <reagent2-name>
14588568

>  <reagent2-smiles>
[R1*]NC(C(=O)O)Cc1ccc(OC)cc1

$$$$
s_2708____5730620____10861350
          04022015093D 1   1.00000     0.00000     0
            
 57 58  0  0  0  0            999 V2000
    0.0805    2.8064    2.8064 O   0  0  0  0  0  0  0  0  0  0  0  0
    1.2755    2.7286    2.7286 C   0  0  0  0  0  0  0  0  0  0  0  0
    1.8487    1.8487    1.8487 N   0  0  0  0  0  0  0  0  0  0  0  0
    1.0000    1.0000    1.0000 C   0  0  0  0  0  0  0  0  0  0  0  0
    0.7076    1.7205   -0.3054 C   0  0  0  0  0  0  0  0  0  0  0  0
    1.5710    1.5439   -1.3816 C   0  0  0  0  0  0  0  0  0  0  0  0
    1.3012    2.2034   -2.5756 C   0  0  0  0  0  0  0  0  0  0  0  0
    2.1695    2.0388   -3.6870 O   0  0  0  0  0  0  0  0  0  0  0  0
    1.8960    2.7113   -4.9074 C   0  0  0  0  0  0  0  0  0  0  0  0
    2.5768    4.0703   -4.9006 C   0  0  0  0  0  0  0  0  0  0  0  0
    0.1861    3.0271   -2.6918 C   0  0  0  0  0  0  0  0  0  0  0  0
   -0.6695    3.1968   -1.6077 C   0  0  0  0  0  0  0  0  0  0  0  0
   -0.4109    2.5415   -0.4082 C   0  0  0  0  0  0  0  0  0  0  0  0
    3.3125    1.7533    1.7533 C   0  0  0  0  0  0  0  0  0  0  0  0
    3.8170    2.7338    0.7071 C   0  0  0  0  0  0  0  0  0  0  0  0
    5.2310    2.6417    0.6150 O   0  0  0  0  0  0  0  0  0  0  0  0
    2.0664    3.5195    3.5195 N   0  0  0  0  0  0  0  0  0  0  0  0
    1.4503    4.4652    4.4652 C   0  0  3  0  0  0  0  0  0  0  0  0
    1.2345    3.7853    5.8074 C   0  0  0  0  0  0  0  0  0  0  0  0
    0.6210    4.7750    6.7848 C   0  0  3  0  0  0  0  0  0  0  0  0
    1.4846    5.9561    6.9372 N   0  3  3  0  0  0  0  0  0  0  0  0
    1.7260    6.6289    5.6522 C   0  0  0  0  0  0  0  0  0  0  0  0
    2.3598    5.6680    4.6589 C   0  0  0  0  0  0  0  0  0  0  0  0
    0.8803    6.9350    7.8523 C   0  0  0  0  0  0  0  0  0  0  0  0
    0.4211    4.0645    8.1135 C   0  0  0  0  0  0  0  0  0  0  0  0
    2.3630    5.6638    7.3155 H   0  0  0  0  0  0  0  0  0  0  0  0
    0.1409    0.8075    1.4742 H   0  0  0  0  0  0  0  0  0  0  0  0
    1.4742    0.1409    0.8075 H   0  0  0  0  0  0  0  0  0  0  0  0
    2.3727    0.9521   -1.2980 H   0  0  0  0  0  0  0  0  0  0  0  0
    0.9085    2.8337   -5.0065 H   0  0  0  0  0  0  0  0  0  0  0  0
    2.2430    2.1685   -5.6722 H   0  0  0  0  0  0  0  0  0  0  0  0
    2.3842    4.5440   -5.7600 H   0  0  0  0  0  0  0  0  0  0  0  0
    2.2297    4.6132   -4.1358 H   0  0  0  0  0  0  0  0  0  0  0  0
    3.5643    3.9480   -4.8014 H   0  0  0  0  0  0  0  0  0  0  0  0
   -0.0005    3.4972   -3.5544 H   0  0  0  0  0  0  0  0  0  0  0  0
   -1.4704    3.7899   -1.6909 H   0  0  0  0  0  0  0  0  0  0  0  0
   -1.0236    2.6594    0.3732 H   0  0  0  0  0  0  0  0  0  0  0  0
    3.5695    0.8235    1.4901 H   0  0  0  0  0  0  0  0  0  0  0  0
    3.7193    1.9733    2.6400 H   0  0  0  0  0  0  0  0  0  0  0  0
    3.4102    2.5138   -0.1795 H   0  0  0  0  0  0  0  0  0  0  0  0
    3.5600    3.6637    0.9703 H   0  0  0  0  0  0  0  0  0  0  0  0
    5.5630    3.2867   -0.0733 H   0  0  0  0  0  0  0  0  0  0  0  0
    3.0622    3.4546    3.4546 H   0  0  0  0  0  0  0  0  0  0  0  0
    0.5697    4.7704    4.1027 H   0  0  0  0  0  0  0  0  0  0  0  0
    0.6183    3.0064    5.6912 H   0  0  0  0  0  0  0  0  0  0  0  0
    2.1124    3.4656    6.1640 H   0  0  0  0  0  0  0  0  0  0  0  0
   -0.2694    5.0667    6.4354 H   0  0  0  0  0  0  0  0  0  0  0  0
    2.3400    7.4048    5.7972 H   0  0  0  0  0  0  0  0  0  0  0  0
    0.8560    6.9566    5.2838 H   0  0  0  0  0  0  0  0  0  0  0  0
    2.4896    6.1321    3.7827 H   0  0  0  0  0  0  0  0  0  0  0  0
    3.2455    5.3631    5.0089 H   0  0  0  0  0  0  0  0  0  0  0  0
    1.4845    7.7270    7.9395 H   0  0  0  0  0  0  0  0  0  0  0  0
   -0.0041    7.2287    7.4895 H   0  0  0  0  0  0  0  0  0  0  0  0
    0.7494    6.5151    8.7504 H   0  0  0  0  0  0  0  0  0  0  0  0
   -0.1684    3.2678    7.9801 H   0  0  0  0  0  0  0  0  0  0  0  0
    1.3072    3.7677    8.4695 H   0  0  0  0  0  0  0  0  0  0  0  0
   -0.0072    4.6906    8.7651 H   0  0  0  0  0  0  0  0  0  0  0  0
  1  2  2  0  0  0  0
  2  3  1  0  0  0  0
  3  4  1  0  0  0  0
  4  5  1  0  0  0  0
  5  6  1  0  0  0  0
  6  7  2  0  0  0  0
  7  8  1  0  0  0  0
  8  9  1  0  0  0  0
  9 10  1  0  0  0  0
  7 11  1  0  0  0  0
 11 12  2  0  0  0  0
 12 13  1  0  0  0  0
 13  5  2  0  0  0  0
  3 14  1  0  0  0  0
 14 15  1  0  0  0  0
 15 16  1  0  0  0  0
  2 17  1  0  0  0  0
 17 18  1  0  0  0  0
 18 19  1  0  0  0  0
 19 20  1  0  0  0  0
 20 21  1  0  0  0  0
 21 22  1  0  0  0  0
 22 23  1  0  0  0  0
 23 18  1  0  0  0  0
 21 24  1  0  0  0  0
 20 25  1  0  0  0  0
 21 26  1  0  0  0  0
  4 27  1  0  0  0  0
  4 28  1  0  0  0  0
  6 29  1  0  0  0  0
  9 30  1  0  0  0  0
  9 31  1  0  0  0  0
 10 32  1  0  0  0  0
 10 33  1  0  0  0  0
 10 34  1  0  0  0  0
 11 35  1  0  0  0  0
 12 36  1  0  0  0  0
 13 37  1  0  0  0  0
 14 38  1  0  0  0  0
 14 39  1  0  0  0  0
 15 40  1  0  0  0  0
 15 41  1  0  0  0  0
 16 42  1  0  0  0  0
 17 43  1  0  0  0  0
 18 44  1  0  0  0  0
 19 45  1  0  0  0  0
 19 46  1  0  0  0  0
 20 47  1  0  0  0  0
 22 48  1  0  0  0  0
 22 49  1  0  0  0  0
 23 50  1  0  0  0  0
 23 51  1  0  0  0  0
 24 52  1  0  0  0  0
 24 53  1  0  0  0  0
 24 54  1  0  0  0  0
 25 55  1  0  0  0  0
 25 56  1  0  0  0  0
 25 57  1  0  0  0  0
M  CHG  1  21   1
M  END
>  <result-rank>
34

>  <similarity>
0.947

>  <query-name>
LIG_A_1101_C[NH+](C)[C@H]([R*])C1CCC1_2

>  <query-smiles>
O=C(N[C@@H]([NH+](C)C)C1CCC1)[C@@H](NC(=O)C)Cc2ccc(O)cc2

>  <source>
REALspace_2019-12

>  <similarity-descriptor>
0.999;1.000;0.995;1.000;0.999;0.999;1.000;0.995;0.953;0.828;0.828;0.828;0.953;0.704;0.143

>  <similarity-descriptor-smiles>
C1CC[NH+]CC1;c1ccccc1;O=C;N;C1CC[NH+]CC1;C1CC[NH+]CC1;C;C;N(C)C;CO;CO;CO;N(C)C;O;C.C

>  <reaction-name>
s_2708

>  <reagent1-name>
5730620

>  <reagent1-smiles>
[R1*]C(=O)NC1CC(N(CC1)C)C

>  <reagent2-name>
10861350

>  <reagent2-smiles>
[R1*]N(Cc1cc(OCC)ccc1)CCO

$$$$
s_22____4974230____17318518
          04022015093D 1   1.00000     0.00000     0
            
 61 62  0  0  0  0            999 V2000
   -2.8437   -2.6207    2.1885 Br  0  0  0  0  0  0  0  0  0  0  0  0
   -2.0512   -0.8314    2.2953 C   0  0  0  0  0  0  0  0  0  0  0  0
   -0.8563   -0.5677    1.6347 C   0  0  0  0  0  0  0  0  0  0  0  0
   -0.3061    0.7074    1.7209 C   0  0  0  0  0  0  0  0  0  0  0  0
   -0.9328    1.7098    2.4535 C   0  0  0  0  0  0  0  0  0  0  0  0
   -2.1271    1.4243    3.1070 C   0  0  0  0  0  0  0  0  0  0  0  0
   -2.6941    0.1563    3.0338 C   0  0  0  0  0  0  0  0  0  0  0  0
    1.0000    1.0000    1.0000 C   0  0  3  0  0  0  0  0  0  0  0  0
    1.8487    1.8487    1.8487 N   0  0  0  0  0  0  0  0  0  0  0  0
    3.0831    1.4052    2.2442 C   0  0  0  0  0  0  0  0  0  0  0  0
    3.4716    0.3240    1.8978 O   0  0  0  0  0  0  0  0  0  0  0  0
    3.8395    2.1616    3.0005 O   0  0  0  0  0  0  0  0  0  0  0  0
    5.1190    1.7019    3.4104 C   0  0  0  0  0  0  0  0  0  0  0  0
    4.9639    0.4196    4.2118 C   0  0  0  0  0  0  0  0  0  0  0  0
    5.9772    1.4330    2.1851 C   0  0  0  0  0  0  0  0  0  0  0  0
    5.7854    2.7611    4.2732 C   0  0  0  0  0  0  0  0  0  0  0  0
    0.7075    1.7208   -0.3059 C   0  0  0  0  0  0  0  0  0  0  0  0
    0.7041    1.1116   -1.3397 O   0  0  0  0  0  0  0  0  0  0  0  0
    0.4477    3.0659   -0.3025 N   0  0  0  0  0  0  0  0  0  0  0  0
    0.1643    3.7643   -1.5676 C   0  0  3  0  0  0  0  0  0  0  0  0
   -1.2198    4.3900   -1.5123 C   0  0  0  0  0  0  0  0  0  0  0  0
   -1.4947    5.1292   -2.8119 C   0  0  3  0  0  0  0  0  0  0  0  0
   -0.4715    6.1593   -3.0488 N   0  3  3  0  0  0  0  0  0  0  0  0
    0.8826    5.5878   -3.0924 C   0  0  0  0  0  0  0  0  0  0  0  0
    1.1948    4.8587   -1.7952 C   0  0  0  0  0  0  0  0  0  0  0  0
   -0.7093    6.8538   -4.3227 C   0  0  0  0  0  0  0  0  0  0  0  0
    0.3651    7.9083   -4.5331 C   0  0  0  0  0  0  0  0  0  0  0  0
   -2.8828    5.7428   -2.7219 C   0  0  0  0  0  0  0  0  0  0  0  0
   -0.5129    6.8283   -2.3067 H   0  0  0  0  0  0  0  0  0  0  0  0
   -0.3996   -1.2832    1.1061 H   0  0  0  0  0  0  0  0  0  0  0  0
   -0.5303    2.6235    2.5096 H   0  0  0  0  0  0  0  0  0  0  0  0
   -2.5836    2.1395    3.6362 H   0  0  0  0  0  0  0  0  0  0  0  0
   -3.5530   -0.0425    3.5059 H   0  0  0  0  0  0  0  0  0  0  0  0
    1.4742    0.1409    0.8075 H   0  0  0  0  0  0  0  0  0  0  0  0
    1.5250    2.7498    2.1374 H   0  0  0  0  0  0  0  0  0  0  0  0
    5.8649    0.0959    4.5004 H   0  0  0  0  0  0  0  0  0  0  0  0
    4.3992    0.5966    5.0179 H   0  0  0  0  0  0  0  0  0  0  0  0
    4.5255   -0.2772    3.6441 H   0  0  0  0  0  0  0  0  0  0  0  0
    6.8783    1.1093    2.4738 H   0  0  0  0  0  0  0  0  0  0  0  0
    5.5388    0.7361    1.6175 H   0  0  0  0  0  0  0  0  0  0  0  0
    6.0792    2.2766    1.6579 H   0  0  0  0  0  0  0  0  0  0  0  0
    6.6864    2.4374    4.5619 H   0  0  0  0  0  0  0  0  0  0  0  0
    5.8874    3.6047    3.7460 H   0  0  0  0  0  0  0  0  0  0  0  0
    5.2207    2.9380    5.0794 H   0  0  0  0  0  0  0  0  0  0  0  0
    0.4505    3.5736    0.5591 H   0  0  0  0  0  0  0  0  0  0  0  0
    0.2027    3.1103   -2.3231 H   0  0  0  0  0  0  0  0  0  0  0  0
   -1.9050    3.6727   -1.3857 H   0  0  0  0  0  0  0  0  0  0  0  0
   -1.2647    5.0326   -0.7475 H   0  0  0  0  0  0  0  0  0  0  0  0
   -1.4775    4.4746   -3.5677 H   0  0  0  0  0  0  0  0  0  0  0  0
    1.5464    6.3241   -3.2240 H   0  0  0  0  0  0  0  0  0  0  0  0
    0.9436    4.9437   -3.8549 H   0  0  0  0  0  0  0  0  0  0  0  0
    2.1062    4.4513   -1.8530 H   0  0  0  0  0  0  0  0  0  0  0  0
    1.1668    5.5063   -1.0338 H   0  0  0  0  0  0  0  0  0  0  0  0
   -1.6075    7.2929   -4.3005 H   0  0  0  0  0  0  0  0  0  0  0  0
   -0.6795    6.1934   -5.0731 H   0  0  0  0  0  0  0  0  0  0  0  0
    0.2034    8.3807   -5.3995 H   0  0  0  0  0  0  0  0  0  0  0  0
    0.3354    8.5688   -3.7828 H   0  0  0  0  0  0  0  0  0  0  0  0
    1.2633    7.4693   -4.5553 H   0  0  0  0  0  0  0  0  0  0  0  0
   -3.5564    5.0215   -2.5610 H   0  0  0  0  0  0  0  0  0  0  0  0
   -2.9093    6.3981   -1.9670 H   0  0  0  0  0  0  0  0  0  0  0  0
   -3.0957    6.2126   -3.5787 H   0  0  0  0  0  0  0  0  0  0  0  0
  1  2  1  0  0  0  0
  2  3  1  0  0  0  0
  3  4  2  0  0  0  0
  4  5  1  0  0  0  0
  5  6  2  0  0  0  0
  6  7  1  0  0  0  0
  7  2  2  0  0  0  0
  4  8  1  0  0  0  0
  8  9  1  0  0  0  0
  9 10  1  0  0  0  0
 10 11  2  0  0  0  0
 10 12  1  0  0  0  0
 12 13  1  0  0  0  0
 13 14  1  0  0  0  0
 13 15  1  0  0  0  0
 13 16  1  0  0  0  0
  8 17  1  0  0  0  0
 17 18  2  0  0  0  0
 17 19  1  0  0  0  0
 19 20  1  0  0  0  0
 20 21  1  0  0  0  0
 21 22  1  0  0  0  0
 22 23  1  0  0  0  0
 23 24  1  0  0  0  0
 24 25  1  0  0  0  0
 25 20  1  0  0  0  0
 23 26  1  0  0  0  0
 26 27  1  0  0  0  0
 22 28  1  0  0  0  0
 23 29  1  0  0  0  0
  3 30  1  0  0  0  0
  5 31  1  0  0  0  0
  6 32  1  0  0  0  0
  7 33  1  0  0  0  0
  8 34  1  0  0  0  0
  9 35  1  0  0  0  0
 14 36  1  0  0  0  0
 14 37  1  0  0  0  0
 14 38  1  0  0  0  0
 15 39  1  0  0  0  0
 15 40  1  0  0  0  0
 15 41  1  0  0  0  0
 16 42  1  0  0  0  0
 16 43  1  0  0  0  0
 16 44  1  0  0  0  0
 19 45  1  0  0  0  0
 20 46  1  0  0  0  0
 21 47  1  0  0  0  0
 21 48  1  0  0  0  0
 22 49  1  0  0  0  0
 24 50  1  0  0  0  0
 24 51  1  0  0  0  0
 25 52  1  0  0  0  0
 25 53  1  0  0  0  0
 26 54  1  0  0  0  0
 26 55  1  0  0  0  0
 27 56  1  0  0  0  0
 27 57  1  0  0  0  0
 27 58  1  0  0  0  0
 28 59  1  0  0  0  0
 28 60  1  0  0  0  0
 28 61  1  0  0  0  0
M  CHG  1  23   1
M  END
>  <result-rank>
35

>  <similarity>
0.947

>  <query-name>
LIG_A_1101_C[NH+](C)[C@H]([R*])C1CCC1_2

>  <query-smiles>
O=C(N[C@@H]([NH+](C)C)C1CCC1)[C@@H](NC(=O)C)Cc2ccc(O)cc2

>  <source>
REALspace_2019-12

>  <similarity-descriptor>
0.999;0.969;1.000;1.000;0.999;0.999;0.951;0.995;1.000;1.000;0.851;0.971;0.969;0.0;0.200

>  <similarity-descriptor-smiles>
C1CC[NH+]CC1;Brc1ccccc1;C=O;N;C1CC[NH+]CC1;C1CC[NH+]CC1;C;C;C;N;C(=O)O;CC;Brc1ccccc1;;C.C.C

>  <reaction-name>
s_22

>  <reagent1-name>
4974230

>  <reagent1-smiles>
[R1*]NC1CC(N(CC1)CC)C

>  <reagent2-name>
17318518

>  <reagent2-smiles>
[R1*]C(=O)C(NC(=O)OC(C)(C)C)c1cc(Br)ccc1

$$$$
s_22____15076258____107338
          04022015093D 1   1.00000     0.00000     0
            
 49 50  0  0  0  0            999 V2000
   -4.2889   -3.0344    4.0717 F   0  0  0  0  0  0  0  0  0  0  0  0
   -3.0949   -2.4729    4.2387 C   0  0  0  0  0  0  0  0  0  0  0  0
   -2.2607   -3.3571    4.7783 F   0  0  0  0  0  0  0  0  0  0  0  0
   -3.2085   -1.4212    5.0449 F   0  0  0  0  0  0  0  0  0  0  0  0
   -2.5537   -2.0223    2.8909 C   0  0  3  0  0  0  0  0  0  0  0  0
   -1.1880   -1.3685    2.9989 C   0  0  0  0  0  0  0  0  0  0  0  0
   -1.6609   -0.4092    1.9380 C   0  0  3  0  0  0  0  0  0  0  0  0
   -1.1550    1.0000    2.1865 C   0  0  0  0  0  0  0  0  0  0  0  0
    0.3150    1.0000    2.1865 N   0  0  0  0  0  0  0  0  0  0  0  0
    1.0000    1.0000    1.0000 C   0  0  0  0  0  0  0  0  0  0  0  0
    0.4000    1.0000   -0.0392 O   0  0  0  0  0  0  0  0  0  0  0  0
    2.5200    1.0000    1.0000 C   0  0  0  0  0  0  0  0  0  0  0  0
    3.0267    1.4309   -0.3667 C   0  0  3  0  0  0  0  0  0  0  0  0
    4.4967    1.4309   -0.3667 N   0  0  0  0  0  0  0  0  0  0  0  0
    5.1817    0.6294   -1.2415 C   0  0  0  0  0  0  0  0  0  0  0  0
    4.5817   -0.0727   -2.0077 O   0  0  0  0  0  0  0  0  0  0  0  0
    6.7017    0.6294   -1.2415 C   0  0  0  0  0  0  0  0  0  0  0  0
    2.5200    2.8301   -0.6769 C   0  0  0  0  0  0  0  0  0  0  0  0
    2.8191    3.8745    0.1918 C   0  0  0  0  0  0  0  0  0  0  0  0
    2.3582    5.1565   -0.0884 C   0  0  0  0  0  0  0  0  0  0  0  0
    1.6033    5.3780   -1.2359 C   0  0  0  0  0  0  0  0  0  0  0  0
    1.1538    6.6206   -1.5114 O   0  0  0  0  0  0  0  0  0  0  0  0
    0.0857    6.8019   -2.4295 C   0  0  0  0  0  0  0  0  0  0  0  0
    1.3011    4.3369   -2.1078 C   0  0  0  0  0  0  0  0  0  0  0  0
    1.7649    3.0570   -1.8230 C   0  0  0  0  0  0  0  0  0  0  0  0
   -3.0534   -0.6524    2.4793 C   0  0  0  0  0  0  0  0  0  0  0  0
   -2.6198   -2.7143    2.1720 H   0  0  0  0  0  0  0  0  0  0  0  0
   -0.4212   -1.9503    2.7274 H   0  0  0  0  0  0  0  0  0  0  0  0
   -0.9915   -0.9504    3.8858 H   0  0  0  0  0  0  0  0  0  0  0  0
   -1.5234   -0.7340    1.0022 H   0  0  0  0  0  0  0  0  0  0  0  0
   -1.4883    1.6060    1.4642 H   0  0  0  0  0  0  0  0  0  0  0  0
   -1.4883    1.3225    3.0724 H   0  0  0  0  0  0  0  0  0  0  0  0
    0.8150    1.0000    3.0525 H   0  0  0  0  0  0  0  0  0  0  0  0
    2.8533    0.0795    1.2041 H   0  0  0  0  0  0  0  0  0  0  0  0
    2.8533    1.6370    1.6951 H   0  0  0  0  0  0  0  0  0  0  0  0
    2.6933    0.7940   -1.0619 H   0  0  0  0  0  0  0  0  0  0  0  0
    4.9967    2.0160    0.2718 H   0  0  0  0  0  0  0  0  0  0  0  0
    7.0350    1.2663   -0.5464 H   0  0  0  0  0  0  0  0  0  0  0  0
    7.0350   -0.2911   -1.0374 H   0  0  0  0  0  0  0  0  0  0  0  0
    7.0350    0.9129   -2.1407 H   0  0  0  0  0  0  0  0  0  0  0  0
    3.3627    3.7044    1.0137 H   0  0  0  0  0  0  0  0  0  0  0  0
    2.5679    5.9135    0.5305 H   0  0  0  0  0  0  0  0  0  0  0  0
   -0.1181    7.7771   -2.5153 H   0  0  0  0  0  0  0  0  0  0  0  0
    0.3482    6.4364   -3.3226 H   0  0  0  0  0  0  0  0  0  0  0  0
   -0.7249    6.3199   -2.0972 H   0  0  0  0  0  0  0  0  0  0  0  0
    0.7570    4.5068   -2.9294 H   0  0  0  0  0  0  0  0  0  0  0  0
    1.5555    2.3001   -2.4420 H   0  0  0  0  0  0  0  0  0  0  0  0
   -3.3199   -0.0568    3.2371 H   0  0  0  0  0  0  0  0  0  0  0  0
   -3.7775   -0.6586    1.7897 H   0  0  0  0  0  0  0  0  0  0  0  0
  1  2  1  0  0  0  0
  2  3  1  0  0  0  0
  2  4  1  0  0  0  0
  2  5  1  0  0  0  0
  5  6  1  0  0  0  0
  6  7  1  0  0  0  0
  7  8  1  0  0  0  0
  8  9  1  0  0  0  0
  9 10  1  0  0  0  0
 10 11  2  0  0  0  0
 10 12  1  0  0  0  0
 12 13  1  0  0  0  0
 13 14  1  0  0  0  0
 14 15  1  0  0  0  0
 15 16  2  0  0  0  0
 15 17  1  0  0  0  0
 13 18  1  0  0  0  0
 18 19  1  0  0  0  0
 19 20  2  0  0  0  0
 20 21  1  0  0  0  0
 21 22  1  0  0  0  0
 22 23  1  0  0  0  0
 21 24  2  0  0  0  0
 24 25  1  0  0  0  0
 25 18  2  0  0  0  0
  7 26  1  0  0  0  0
 26  5  1  0  0  0  0
  5 27  1  0  0  0  0
  6 28  1  0  0  0  0
  6 29  1  0  0  0  0
  7 30  1  0  0  0  0
  8 31  1  0  0  0  0
  8 32  1  0  0  0  0
  9 33  1  0  0  0  0
 12 34  1  0  0  0  0
 12 35  1  0  0  0  0
 13 36  1  0  0  0  0
 14 37  1  0  0  0  0
 17 38  1  0  0  0  0
 17 39  1  0  0  0  0
 17 40  1  0  0  0  0
 19 41  1  0  0  0  0
 20 42  1  0  0  0  0
 23 43  1  0  0  0  0
 23 44  1  0  0  0  0
 23 45  1  0  0  0  0
 24 46  1  0  0  0  0
 25 47  1  0  0  0  0
 26 48  1  0  0  0  0
 26 49  1  0  0  0  0
M  END
>  <result-rank>
36

>  <similarity>
0.947

>  <query-name>
LIG_A_1101_C[NH+](C)[C@H]([R*])C1CCC1_2

>  <query-smiles>
O=C(N[C@@H]([NH+](C)C)C1CCC1)[C@@H](NC(=O)C)Cc2ccc(O)cc2

>  <source>
REALspace_2019-12

>  <similarity-descriptor>
0.951;1.000;1.000;1.000;0.942;0.0;0.0;0.0;1.000;1.000;1.000;1.000;1.000;0.704;0.077

>  <similarity-descriptor-smiles>
FC(F)(F)C1CCC1;c1ccccc1;C=O;N;C;;;;CC;N;C=O;C;CC;O;C

>  <reaction-name>
s_22

>  <reagent1-name>
15076258

>  <reagent1-smiles>
[R1*]NCC1CC(C(F)(F)F)C1

>  <reagent2-name>
107338

>  <reagent2-smiles>
[R1*]C(=O)CC(NC(=O)C)c1ccc(OC)cc1

$$$$
s_240690b____15151100____13975068
          04022015093D 1   1.00000     0.00000     0
            
 50 51  0  0  0  0            999 V2000
   -3.6776    0.2333   -1.7931 F   0  0  0  0  0  0  0  0  0  0  0  0
   -2.3536    0.1477   -1.8803 C   0  0  0  0  0  0  0  0  0  0  0  0
   -1.5525    0.9507   -1.0760 C   0  0  0  0  0  0  0  0  0  0  0  0
   -0.1698    0.8436   -1.1831 C   0  0  0  0  0  0  0  0  0  0  0  0
    0.4152   -0.0489   -2.0759 C   0  0  0  0  0  0  0  0  0  0  0  0
   -0.3969   -0.8476   -2.8743 C   0  0  0  0  0  0  0  0  0  0  0  0
   -1.7815   -0.7488   -2.7771 C   0  0  0  0  0  0  0  0  0  0  0  0
    0.7075    1.7208   -0.3059 C   0  0  0  0  0  0  0  0  0  0  0  0
    1.0000    1.0000    1.0000 C   0  0  3  0  0  0  0  0  0  0  0  0
    1.8487    1.8487    1.8487 N   0  0  0  0  0  0  0  0  0  0  0  0
    3.0831    1.4052    2.2442 C   0  0  0  0  0  0  0  0  0  0  0  0
    3.4716    0.3240    1.8978 O   0  0  0  0  0  0  0  0  0  0  0  0
    3.9607    2.2828    3.1218 C   0  0  3  0  0  0  0  0  0  0  0  0
    5.1033    1.6521    3.3777 F   0  0  0  0  0  0  0  0  0  0  0  0
    3.2402    2.5752    4.4271 C   0  0  3  0  0  0  0  0  0  0  0  0
    4.1401    3.4538    5.2843 C   0  0  0  0  0  0  0  0  0  0  0  0
    3.5738    3.7328    6.6749 C   0  0  0  0  0  0  0  0  0  0  0  0
    3.6214    2.5685    7.5771 N   0  3  0  0  0  0  0  0  0  0  0  0
    2.4348    1.6913    7.5710 C   0  0  0  0  0  0  0  0  0  0  0  0
    1.8469    1.4356    6.1853 C   0  0  0  0  0  0  0  0  0  0  0  0
    2.8916    1.2532    5.0929 C   0  0  0  0  0  0  0  0  0  0  0  0
   -0.3059    0.7075    1.7208 C   0  0  0  0  0  0  0  0  0  0  0  0
   -0.7943   -0.3868    1.6571 O   0  0  0  0  0  0  0  0  0  0  0  0
   -0.8981    1.6499    2.4116 O   0  0  0  0  0  0  0  0  0  0  0  0
   -2.1180    1.3766    3.0850 C   0  0  0  0  0  0  0  0  0  0  0  0
    3.7441    2.9094    8.5091 H   0  0  0  0  0  0  0  0  0  0  0  0
    4.4122    2.0139    7.3182 H   0  0  0  0  0  0  0  0  0  0  0  0
   -1.9638    1.5948   -0.4310 H   0  0  0  0  0  0  0  0  0  0  0  0
    1.4107   -0.1155   -2.1430 H   0  0  0  0  0  0  0  0  0  0  0  0
    0.0143   -1.4929   -3.5182 H   0  0  0  0  0  0  0  0  0  0  0  0
   -2.3652   -1.3221   -3.3520 H   0  0  0  0  0  0  0  0  0  0  0  0
    0.2333    2.5799   -0.1134 H   0  0  0  0  0  0  0  0  0  0  0  0
    1.5666    1.9133   -0.7801 H   0  0  0  0  0  0  0  0  0  0  0  0
    1.4742    0.1409    0.8075 H   0  0  0  0  0  0  0  0  0  0  0  0
    1.5250    2.7498    2.1374 H   0  0  0  0  0  0  0  0  0  0  0  0
    4.1532    3.1419    2.6475 H   0  0  0  0  0  0  0  0  0  0  0  0
    2.3953    3.0717    4.2279 H   0  0  0  0  0  0  0  0  0  0  0  0
    4.2703    4.3270    4.8146 H   0  0  0  0  0  0  0  0  0  0  0  0
    5.0232    2.9962    5.3882 H   0  0  0  0  0  0  0  0  0  0  0  0
    4.1021    4.4744    7.0882 H   0  0  0  0  0  0  0  0  0  0  0  0
    2.6203    4.0175    6.5765 H   0  0  0  0  0  0  0  0  0  0  0  0
    1.7285    2.1167    8.1368 H   0  0  0  0  0  0  0  0  0  0  0  0
    2.6945    0.8110    7.9679 H   0  0  0  0  0  0  0  0  0  0  0  0
    1.2687    2.2139    5.9405 H   0  0  0  0  0  0  0  0  0  0  0  0
    1.2892    0.6066    6.2285 H   0  0  0  0  0  0  0  0  0  0  0  0
    3.7197    0.8649    5.4972 H   0  0  0  0  0  0  0  0  0  0  0  0
    2.5326    0.6262    4.4016 H   0  0  0  0  0  0  0  0  0  0  0  0
   -2.4289    2.2004    3.5590 H   0  0  0  0  0  0  0  0  0  0  0  0
   -2.8095    1.0935    2.4204 H   0  0  0  0  0  0  0  0  0  0  0  0
   -1.9748    0.6435    3.7498 H   0  0  0  0  0  0  0  0  0  0  0  0
  1  2  1  0  0  0  0
  2  3  1  0  0  0  0
  3  4  2  0  0  0  0
  4  5  1  0  0  0  0
  5  6  2  0  0  0  0
  6  7  1  0  0  0  0
  7  2  2  0  0  0  0
  4  8  1  0  0  0  0
  8  9  1  0  0  0  0
  9 10  1  0  0  0  0
 10 11  1  0  0  0  0
 11 12  2  0  0  0  0
 11 13  1  0  0  0  0
 13 14  1  0  0  0  0
 13 15  1  0  0  0  0
 15 16  1  0  0  0  0
 16 17  1  0  0  0  0
 17 18  1  0  0  0  0
 18 19  1  0  0  0  0
 19 20  1  0  0  0  0
 20 21  1  0  0  0  0
 21 15  1  0  0  0  0
  9 22  1  0  0  0  0
 22 23  2  0  0  0  0
 22 24  1  0  0  0  0
 24 25  1  0  0  0  0
 18 26  1  0  0  0  0
 18 27  1  0  0  0  0
  3 28  1  0  0  0  0
  5 29  1  0  0  0  0
  6 30  1  0  0  0  0
  7 31  1  0  0  0  0
  8 32  1  0  0  0  0
  8 33  1  0  0  0  0
  9 34  1  0  0  0  0
 10 35  1  0  0  0  0
 13 36  1  0  0  0  0
 15 37  1  0  0  0  0
 16 38  1  0  0  0  0
 16 39  1  0  0  0  0
 17 40  1  0  0  0  0
 17 41  1  0  0  0  0
 19 42  1  0  0  0  0
 19 43  1  0  0  0  0
 20 44  1  0  0  0  0
 20 45  1  0  0  0  0
 21 46  1  0  0  0  0
 21 47  1  0  0  0  0
 25 48  1  0  0  0  0
 25 49  1  0  0  0  0
 25 50  1  0  0  0  0
M  CHG  1  18   1
M  END
>  <result-rank>
37

>  <similarity>
0.947

>  <query-name>
LIG_A_1101_C[NH+](C)[C@H]([R*])C1CCC1_2

>  <query-smiles>
O=C(N[C@@H]([NH+](C)C)C1CCC1)[C@@H](NC(=O)C)Cc2ccc(O)cc2

>  <source>
REALspace_2019-12

>  <similarity-descriptor>
0.994;0.983;0.852;0.994;0.994;0.994;0.994;0.0;1.000;1.000;0.855;0.994;1.000;0.0;0.0

>  <similarity-descriptor-smiles>
C1CCC[NH2+]CC1;Fc1ccccc1;C(=O)CF;C1CCC[NH2+]CC1;C1CCC[NH2+]CC1;C1CCC[NH2+]CC1;C1CCC[NH2+]CC1;;CN;CN;C(=O)O;C;C;;

>  <reaction-name>
s_240690b

>  <reagent1-name>
15151100

>  <reagent1-smiles>
[R1*]NC(C(=O)OC)Cc1cc(F)ccc1

>  <reagent2-name>
13975068

>  <reagent2-smiles>
[R1*]C(=O)C(F)C1CCNCCC1

$$$$
s_22____14468648____3192126
          04022015093D 1   1.00000     0.00000     0
            
 64 65  0  0  0  0            999 V2000
    1.9688    3.0524    1.6507 O   0  0  0  0  0  0  0  0  0  0  0  0
    1.8776    1.8776    1.8776 C   0  0  0  0  0  0  0  0  0  0  0  0
    2.5644    1.3273    2.9275 N   0  0  0  0  0  0  0  0  0  0  0  0
    3.4125    2.1754    3.7757 C   0  0  3  0  0  0  0  0  0  0  0  0
    4.8571    1.7008    3.7366 C   0  0  0  0  0  0  0  0  0  0  0  0
    5.7408    2.5218    4.6609 C   0  0  0  0  0  0  0  0  0  0  0  0
    4.9537    3.5989    5.3952 C   0  0  3  0  0  0  0  0  0  0  0  0
    5.8695    4.3319    6.3594 C   0  0  0  0  0  0  0  0  0  0  0  0
    5.1065    5.3706    7.0662 N   0  3  0  0  0  0  0  0  0  0  0  0
    5.9931    6.0802    7.9997 C   0  0  0  0  0  0  0  0  0  0  0  0
    4.5575    6.3241    6.0913 C   0  0  0  0  0  0  0  0  0  0  0  0
    3.8232    2.9183    6.1495 C   0  0  0  0  0  0  0  0  0  0  0  0
    2.9150    2.1341    5.2119 C   0  0  0  0  0  0  0  0  0  0  0  0
    1.0000    1.0000    1.0000 C   0  0  0  0  0  0  0  0  0  0  0  0
    0.7075    1.7208   -0.3059 C   0  0  3  0  0  0  0  0  0  0  0  0
   -0.4084    1.0554   -0.9935 N   0  0  0  0  0  0  0  0  0  0  0  0
   -1.5559    1.7512   -1.2692 C   0  0  0  0  0  0  0  0  0  0  0  0
   -1.6500    2.9040   -0.9493 O   0  0  0  0  0  0  0  0  0  0  0  0
   -2.7097    1.0632   -1.9803 C   0  0  0  0  0  0  0  0  0  0  0  0
    1.9425    1.6853   -1.1920 C   0  0  0  0  0  0  0  0  0  0  0  0
    2.3567    2.8368   -1.8543 C   0  0  0  0  0  0  0  0  0  0  0  0
    1.6733    3.9938   -1.7215 O   0  0  0  0  0  0  0  0  0  0  0  0
    2.2426    5.2113   -2.1798 C   0  0  0  0  0  0  0  0  0  0  0  0
    1.2766    6.3542   -1.9136 C   0  0  0  0  0  0  0  0  0  0  0  0
    3.4867    2.8042   -2.6654 C   0  0  0  0  0  0  0  0  0  0  0  0
    4.2026    1.6203   -2.8137 C   0  0  0  0  0  0  0  0  0  0  0  0
    3.7884    0.4693   -2.1508 C   0  0  0  0  0  0  0  0  0  0  0  0
    2.6587    0.5022   -1.3397 C   0  0  0  0  0  0  0  0  0  0  0  0
    4.3577    4.9460    7.5752 H   0  0  0  0  0  0  0  0  0  0  0  0
    2.4883    0.3483    3.1166 H   0  0  0  0  0  0  0  0  0  0  0  0
    3.3693    3.1172    3.4423 H   0  0  0  0  0  0  0  0  0  0  0  0
    5.2006    1.7835    2.8011 H   0  0  0  0  0  0  0  0  0  0  0  0
    4.8917    0.7427    4.0209 H   0  0  0  0  0  0  0  0  0  0  0  0
    6.1584    1.9117    5.3342 H   0  0  0  0  0  0  0  0  0  0  0  0
    6.4574    2.9593    4.1178 H   0  0  0  0  0  0  0  0  0  0  0  0
    4.5743    4.2467    4.7345 H   0  0  0  0  0  0  0  0  0  0  0  0
    6.2430    3.6833    7.0226 H   0  0  0  0  0  0  0  0  0  0  0  0
    6.6183    4.7565    5.8504 H   0  0  0  0  0  0  0  0  0  0  0  0
    5.4740    6.7868    8.4805 H   0  0  0  0  0  0  0  0  0  0  0  0
    6.3666    5.4316    8.6629 H   0  0  0  0  0  0  0  0  0  0  0  0
    6.7418    6.5048    7.4907 H   0  0  0  0  0  0  0  0  0  0  0  0
    4.0384    7.0307    6.5722 H   0  0  0  0  0  0  0  0  0  0  0  0
    5.3062    6.7487    5.5823 H   0  0  0  0  0  0  0  0  0  0  0  0
    3.9543    5.8414    5.4563 H   0  0  0  0  0  0  0  0  0  0  0  0
    3.2808    3.6150    6.6190 H   0  0  0  0  0  0  0  0  0  0  0  0
    4.2141    2.2905    6.8227 H   0  0  0  0  0  0  0  0  0  0  0  0
    2.8816    1.1819    5.5153 H   0  0  0  0  0  0  0  0  0  0  0  0
    1.9964    2.5276    5.2473 H   0  0  0  0  0  0  0  0  0  0  0  0
    0.1409    0.8075    1.4742 H   0  0  0  0  0  0  0  0  0  0  0  0
    1.4742    0.1409    0.8075 H   0  0  0  0  0  0  0  0  0  0  0  0
    0.4619    2.6711   -0.1143 H   0  0  0  0  0  0  0  0  0  0  0  0
   -0.3299    0.0948   -1.2602 H   0  0  0  0  0  0  0  0  0  0  0  0
   -2.4641    0.1129   -2.1718 H   0  0  0  0  0  0  0  0  0  0  0  0
   -3.5220    1.0866   -1.3974 H   0  0  0  0  0  0  0  0  0  0  0  0
   -2.9022    1.5374   -2.8394 H   0  0  0  0  0  0  0  0  0  0  0  0
    2.4206    5.1471   -3.1618 H   0  0  0  0  0  0  0  0  0  0  0  0
    3.1011    5.3808   -1.6958 H   0  0  0  0  0  0  0  0  0  0  0  0
    1.6775    7.2116   -2.2364 H   0  0  0  0  0  0  0  0  0  0  0  0
    0.4181    6.1846   -2.3976 H   0  0  0  0  0  0  0  0  0  0  0  0
    1.0985    6.4183   -0.9317 H   0  0  0  0  0  0  0  0  0  0  0  0
    3.7843    3.6316   -3.1417 H   0  0  0  0  0  0  0  0  0  0  0  0
    5.0148    1.5967   -3.3967 H   0  0  0  0  0  0  0  0  0  0  0  0
    4.3028   -0.3816   -2.2574 H   0  0  0  0  0  0  0  0  0  0  0  0
    2.3616   -0.3250   -0.8626 H   0  0  0  0  0  0  0  0  0  0  0  0
  1  2  2  0  0  0  0
  2  3  1  0  0  0  0
  3  4  1  0  0  0  0
  4  5  1  0  0  0  0
  5  6  1  0  0  0  0
  6  7  1  0  0  0  0
  7  8  1  0  0  0  0
  8  9  1  0  0  0  0
  9 10  1  0  0  0  0
  9 11  1  0  0  0  0
  7 12  1  0  0  0  0
 12 13  1  0  0  0  0
 13  4  1  0  0  0  0
  2 14  1  0  0  0  0
 14 15  1  0  0  0  0
 15 16  1  0  0  0  0
 16 17  1  0  0  0  0
 17 18  2  0  0  0  0
 17 19  1  0  0  0  0
 15 20  1  0  0  0  0
 20 21  1  0  0  0  0
 21 22  1  0  0  0  0
 22 23  1  0  0  0  0
 23 24  1  0  0  0  0
 21 25  2  0  0  0  0
 25 26  1  0  0  0  0
 26 27  2  0  0  0  0
 27 28  1  0  0  0  0
 28 20  2  0  0  0  0
  9 29  1  0  0  0  0
  3 30  1  0  0  0  0
  4 31  1  0  0  0  0
  5 32  1  0  0  0  0
  5 33  1  0  0  0  0
  6 34  1  0  0  0  0
  6 35  1  0  0  0  0
  7 36  1  0  0  0  0
  8 37  1  0  0  0  0
  8 38  1  0  0  0  0
 10 39  1  0  0  0  0
 10 40  1  0  0  0  0
 10 41  1  0  0  0  0
 11 42  1  0  0  0  0
 11 43  1  0  0  0  0
 11 44  1  0  0  0  0
 12 45  1  0  0  0  0
 12 46  1  0  0  0  0
 13 47  1  0  0  0  0
 13 48  1  0  0  0  0
 14 49  1  0  0  0  0
 14 50  1  0  0  0  0
 15 51  1  0  0  0  0
 16 52  1  0  0  0  0
 19 53  1  0  0  0  0
 19 54  1  0  0  0  0
 19 55  1  0  0  0  0
 23 56  1  0  0  0  0
 23 57  1  0  0  0  0
 24 58  1  0  0  0  0
 24 59  1  0  0  0  0
 24 60  1  0  0  0  0
 25 61  1  0  0  0  0
 26 62  1  0  0  0  0
 27 63  1  0  0  0  0
 28 64  1  0  0  0  0
M  CHG  1   9   1
M  END
>  <result-rank>
38

>  <similarity>
0.946

>  <query-name>
LIG_A_1101_C[NH+](C)[C@H]([R*])C1CCC1_2

>  <query-smiles>
O=C(N[C@@H]([NH+](C)C)C1CCC1)[C@@H](NC(=O)C)Cc2ccc(O)cc2

>  <source>
REALspace_2019-12

>  <similarity-descriptor>
0.906;1.000;1.000;1.000;0.906;0.958;0.958;1.000;1.000;1.000;1.000;1.000;1.000;0.704;0.188

>  <similarity-descriptor-smiles>
C1CCCCC1;c1ccccc1;O=C;N;C1CCCCC1;C[NH+];C[NH+];C;CC;N;C=O;C;CC;O;C.C.C

>  <reaction-name>
s_22

>  <reagent1-name>
14468648

>  <reagent1-smiles>
[R1*]NC1CCC(CN(C)C)CC1

>  <reagent2-name>
3192126

>  <reagent2-smiles>
[R1*]C(=O)CC(NC(=O)C)c1c(OCC)cccc1

$$$$
s_2708____12635628____13025972
          04022015093D 1   1.00000     0.00000     0
            
 49 50  0  0  0  0            999 V2000
    3.4428    0.2028    6.3810 Br  0  0  0  0  0  0  0  0  0  0  0  0
    4.2171   -0.1640    4.6184 C   0  0  0  0  0  0  0  0  0  0  0  0
    3.4145   -0.0896    3.4854 C   0  0  0  0  0  0  0  0  0  0  0  0
    3.9790   -0.3536    2.2413 C   0  0  0  0  0  0  0  0  0  0  0  0
    5.3237   -0.6876    2.1214 C   0  0  0  0  0  0  0  0  0  0  0  0
    6.1085   -0.7570    3.2678 C   0  0  0  0  0  0  0  0  0  0  0  0
    5.5641   -0.4968    4.5210 C   0  0  0  0  0  0  0  0  0  0  0  0
    3.1050   -0.2731    1.0000 C   0  0  3  0  0  0  0  0  0  0  0  0
    2.3700    1.0000    1.0000 N   0  0  0  0  0  0  0  0  0  0  0  0
    1.0000    1.0000    1.0000 C   0  0  0  0  0  0  0  0  0  0  0  0
    0.4000   -0.0392    1.0000 O   0  0  0  0  0  0  0  0  0  0  0  0
    0.3150    2.1865    1.0000 N   0  0  0  0  0  0  0  0  0  0  0  0
   -1.1557    2.1865    1.0000 C   0  0  3  0  0  0  0  0  0  0  0  0
   -1.7133    2.8944    2.2261 C   0  0  0  0  0  0  0  0  0  0  0  0
   -3.1849    2.9033    2.2214 N   0  3  3  0  0  0  0  0  0  0  0  0
   -3.7111    3.5653    3.4256 C   0  0  0  0  0  0  0  0  0  0  0  0
   -3.2317    2.8228    4.6623 C   0  0  0  0  0  0  0  0  0  0  0  0
   -2.8564    2.2416    5.6305 C   0  0  0  0  0  0  0  0  0  0  0  0
   -3.7107    3.5522    1.0111 C   0  0  0  0  0  0  0  0  0  0  0  0
   -3.1945    2.8535   -0.2365 C   0  0  0  0  0  0  0  0  0  0  0  0
   -1.6744    2.8654   -0.2579 C   0  0  0  0  0  0  0  0  0  0  0  0
    3.9789   -0.3536   -0.2411 C   0  0  0  0  0  0  0  0  0  0  0  0
    3.1625   -0.2784   -1.4005 O   0  0  0  0  0  0  0  0  0  0  0  0
    2.7675   -1.5864   -1.7870 C   0  0  0  0  0  0  0  0  0  0  0  0
   -3.5006    1.9545    2.2263 H   0  0  0  0  0  0  0  0  0  0  0  0
    2.4467    0.1499    3.5634 H   0  0  0  0  0  0  0  0  0  0  0  0
    5.7211   -0.8753    1.2232 H   0  0  0  0  0  0  0  0  0  0  0  0
    7.0762   -0.9969    3.1900 H   0  0  0  0  0  0  0  0  0  0  0  0
    6.1337   -0.5483    5.3413 H   0  0  0  0  0  0  0  0  0  0  0  0
    2.4552   -1.0331    1.0000 H   0  0  0  0  0  0  0  0  0  0  0  0
    2.8700    1.8660    1.0000 H   0  0  0  0  0  0  0  0  0  0  0  0
    0.8150    3.0525    1.0000 H   0  0  0  0  0  0  0  0  0  0  0  0
   -1.4749    1.2388    1.0059 H   0  0  0  0  0  0  0  0  0  0  0  0
   -1.3939    2.4217    3.0474 H   0  0  0  0  0  0  0  0  0  0  0  0
   -1.3827    3.8381    2.2348 H   0  0  0  0  0  0  0  0  0  0  0  0
   -4.7107    3.5589    3.3996 H   0  0  0  0  0  0  0  0  0  0  0  0
   -3.3844    4.5099    3.4564 H   0  0  0  0  0  0  0  0  0  0  0  0
   -2.5410    1.7531    6.4441 H   0  0  0  0  0  0  0  0  0  0  0  0
   -3.4184    4.5085    0.9973 H   0  0  0  0  0  0  0  0  0  0  0  0
   -4.7097    3.5092    1.0225 H   0  0  0  0  0  0  0  0  0  0  0  0
   -3.5393    3.3277   -1.0466 H   0  0  0  0  0  0  0  0  0  0  0  0
   -3.5170    1.9070   -0.2418 H   0  0  0  0  0  0  0  0  0  0  0  0
   -1.3466    2.3728   -1.0640 H   0  0  0  0  0  0  0  0  0  0  0  0
   -1.3469    3.8098   -0.2883 H   0  0  0  0  0  0  0  0  0  0  0  0
    4.6287    0.4065   -0.2411 H   0  0  0  0  0  0  0  0  0  0  0  0
    4.4789   -1.2196   -0.2411 H   0  0  0  0  0  0  0  0  0  0  0  0
    2.1926   -1.5334   -2.6035 H   0  0  0  0  0  0  0  0  0  0  0  0
    3.5798   -2.1347   -1.9862 H   0  0  0  0  0  0  0  0  0  0  0  0
    2.2521   -2.0123   -1.0434 H   0  0  0  0  0  0  0  0  0  0  0  0
  1  2  1  0  0  0  0
  2  3  1  0  0  0  0
  3  4  2  0  0  0  0
  4  5  1  0  0  0  0
  5  6  2  0  0  0  0
  6  7  1  0  0  0  0
  7  2  2  0  0  0  0
  4  8  1  0  0  0  0
  8  9  1  0  0  0  0
  9 10  1  0  0  0  0
 10 11  2  0  0  0  0
 10 12  1  0  0  0  0
 12 13  1  0  0  0  0
 13 14  1  0  0  0  0
 14 15  1  0  0  0  0
 15 16  1  0  0  0  0
 16 17  1  0  0  0  0
 17 18  3  0  0  0  0
 15 19  1  0  0  0  0
 19 20  1  0  0  0  0
 20 21  1  0  0  0  0
 21 13  1  0  0  0  0
  8 22  1  0  0  0  0
 22 23  1  0  0  0  0
 23 24  1  0  0  0  0
 15 25  1  0  0  0  0
  3 26  1  0  0  0  0
  5 27  1  0  0  0  0
  6 28  1  0  0  0  0
  7 29  1  0  0  0  0
  8 30  1  0  0  0  0
  9 31  1  0  0  0  0
 12 32  1  0  0  0  0
 13 33  1  0  0  0  0
 14 34  1  0  0  0  0
 14 35  1  0  0  0  0
 16 36  1  0  0  0  0
 16 37  1  0  0  0  0
 18 38  1  0  0  0  0
 19 39  1  0  0  0  0
 19 40  1  0  0  0  0
 20 41  1  0  0  0  0
 20 42  1  0  0  0  0
 21 43  1  0  0  0  0
 21 44  1  0  0  0  0
 22 45  1  0  0  0  0
 22 46  1  0  0  0  0
 24 47  1  0  0  0  0
 24 48  1  0  0  0  0
 24 49  1  0  0  0  0
M  CHG  1  15   1
M  END
>  <result-rank>
39

>  <similarity>
0.946

>  <query-name>
LIG_A_1101_C[NH+](C)[C@H]([R*])C1CCC1_2

>  <query-smiles>
O=C(N[C@@H]([NH+](C)C)C1CCC1)[C@@H](NC(=O)C)Cc2ccc(O)cc2

>  <source>
REALspace_2019-12

>  <similarity-descriptor>
0.986;0.969;0.995;1.000;0.986;0.986;0.0;0.988;1.000;1.000;0.770;0.994;0.969;0.0;0.083

>  <similarity-descriptor-smiles>
C1CCC[NH+]C1;Brc1ccccc1;C=O;N;C1CCC[NH+]C1;C1CCC[NH+]C1;;CC;CN;CN;CO;C;Brc1ccccc1;;C

>  <reaction-name>
s_2708

>  <reagent1-name>
12635628

>  <reagent1-smiles>
[R1*]C(=O)NC(c1cc(Br)ccc1)COC

>  <reagent2-name>
13025972

>  <reagent2-smiles>
[R1*]NC1CN(CC#C)CCC1

$$$$
m_275030____14113942____14127132____14146952
          04022015093D 1   1.00000     0.00000     0
            
 51 52  0  0  0  0            999 V2000
    0.4000    1.0000   -0.0392 O   0  0  0  0  0  0  0  0  0  0  0  0
    1.0000    1.0000    1.0000 C   0  0  0  0  0  0  0  0  0  0  0  0
    0.3150    1.0000    2.1865 N   0  0  0  0  0  0  0  0  0  0  0  0
   -1.1565    1.0000    2.1865 C   0  0  3  0  0  0  0  0  0  0  0  0
   -1.6656    2.2436    2.9044 C   0  0  0  0  0  0  0  0  0  0  0  0
   -2.9449    2.7550    2.3661 N   0  3  3  0  0  0  0  0  0  0  0  0
   -4.1317    1.9274    2.6549 C   0  0  0  0  0  0  0  0  0  0  0  0
   -3.9849    0.4787    2.2061 C   0  0  0  0  0  0  0  0  0  0  0  0
   -3.0960   -0.3436    3.1324 C   0  0  0  0  0  0  0  0  0  0  0  0
   -1.6183   -0.3439    2.7394 C   0  0  0  0  0  0  0  0  0  0  0  0
   -3.1926    4.1066    2.8836 C   0  0  0  0  0  0  0  0  0  0  0  0
   -3.2652    4.0628    4.4012 C   0  0  0  0  0  0  0  0  0  0  0  0
    2.5200    1.0000    1.0000 C   0  0  3  0  0  0  0  0  0  0  0  0
    3.0100    0.1091    2.0617 N   0  0  0  0  0  0  0  0  0  0  0  0
    3.7976    0.6082    3.0654 C   0  0  0  0  0  0  0  0  0  0  0  0
    4.0875    1.7726    3.0779 O   0  0  0  0  0  0  0  0  0  0  0  0
    4.3043   -0.3129    4.1632 C   0  0  0  0  0  0  0  0  0  0  0  0
    3.0267    0.5099   -0.3466 C   0  0  0  0  0  0  0  0  0  0  0  0
    4.5482    0.5099   -0.3466 C   0  0  0  0  0  0  0  0  0  0  0  0
    5.3561   -0.5205    0.0284 N   0  0  0  0  0  0  0  0  0  0  0  0
    6.6175   -0.1695   -0.1034 C   0  0  0  0  0  0  0  0  0  0  0  0
    6.6386    1.1139   -0.5768 N   0  0  0  0  0  0  0  0  0  0  0  0
    5.3513    1.5485   -0.7256 C   0  0  0  0  0  0  0  0  0  0  0  0
   -2.8532    2.8207    1.3725 H   0  0  0  0  0  0  0  0  0  0  0  0
    0.8150    1.0000    3.0525 H   0  0  0  0  0  0  0  0  0  0  0  0
   -1.4588    1.0553    1.2348 H   0  0  0  0  0  0  0  0  0  0  0  0
   -1.7956    2.0202    3.8705 H   0  0  0  0  0  0  0  0  0  0  0  0
   -0.9762    2.9629    2.8186 H   0  0  0  0  0  0  0  0  0  0  0  0
   -4.9183    2.3267    2.1840 H   0  0  0  0  0  0  0  0  0  0  0  0
   -4.2930    1.9385    3.6417 H   0  0  0  0  0  0  0  0  0  0  0  0
   -3.5862    0.4678    1.2891 H   0  0  0  0  0  0  0  0  0  0  0  0
   -4.8924    0.0594    2.1800 H   0  0  0  0  0  0  0  0  0  0  0  0
   -3.1753    0.0294    4.0568 H   0  0  0  0  0  0  0  0  0  0  0  0
   -3.4234   -1.2885    3.1249 H   0  0  0  0  0  0  0  0  0  0  0  0
   -1.0721   -0.5618    3.5482 H   0  0  0  0  0  0  0  0  0  0  0  0
   -1.4732   -1.0443    2.0405 H   0  0  0  0  0  0  0  0  0  0  0  0
   -4.0579    4.4500    2.5182 H   0  0  0  0  0  0  0  0  0  0  0  0
   -2.4484    4.7126    2.6028 H   0  0  0  0  0  0  0  0  0  0  0  0
   -3.4340    4.9833    4.7536 H   0  0  0  0  0  0  0  0  0  0  0  0
   -4.0095    3.4568    4.6819 H   0  0  0  0  0  0  0  0  0  0  0  0
   -2.4000    3.7194    4.7665 H   0  0  0  0  0  0  0  0  0  0  0  0
    2.8533    1.9285    1.1637 H   0  0  0  0  0  0  0  0  0  0  0  0
    2.7684   -0.8612    2.0513 H   0  0  0  0  0  0  0  0  0  0  0  0
    3.9710   -1.2414    3.9995 H   0  0  0  0  0  0  0  0  0  0  0  0
    5.3043   -0.3129    4.1632 H   0  0  0  0  0  0  0  0  0  0  0  0
    3.9710    0.0095    5.0491 H   0  0  0  0  0  0  0  0  0  0  0  0
    2.6933   -0.4186   -0.5104 H   0  0  0  0  0  0  0  0  0  0  0  0
    2.6933    1.1159   -1.0689 H   0  0  0  0  0  0  0  0  0  0  0  0
    7.4143   -0.7368    0.1044 H   0  0  0  0  0  0  0  0  0  0  0  0
    7.4603    1.6462   -0.7803 H   0  0  0  0  0  0  0  0  0  0  0  0
    5.0558    2.4479   -1.0479 H   0  0  0  0  0  0  0  0  0  0  0  0
  1  2  2  0  0  0  0
  2  3  1  0  0  0  0
  3  4  1  0  0  0  0
  4  5  1  0  0  0  0
  5  6  1  0  0  0  0
  6  7  1  0  0  0  0
  7  8  1  0  0  0  0
  8  9  1  0  0  0  0
  9 10  1  0  0  0  0
 10  4  1  0  0  0  0
  6 11  1  0  0  0  0
 11 12  1  0  0  0  0
  2 13  1  0  0  0  0
 13 14  1  0  0  0  0
 14 15  1  0  0  0  0
 15 16  2  0  0  0  0
 15 17  1  0  0  0  0
 13 18  1  0  0  0  0
 18 19  1  0  0  0  0
 19 20  1  0  0  0  0
 20 21  2  0  0  0  0
 21 22  1  0  0  0  0
 22 23  1  0  0  0  0
 19 23  2  0  0  0  0
  6 24  1  0  0  0  0
  3 25  1  0  0  0  0
  4 26  1  0  0  0  0
  5 27  1  0  0  0  0
  5 28  1  0  0  0  0
  7 29  1  0  0  0  0
  7 30  1  0  0  0  0
  8 31  1  0  0  0  0
  8 32  1  0  0  0  0
  9 33  1  0  0  0  0
  9 34  1  0  0  0  0
 10 35  1  0  0  0  0
 10 36  1  0  0  0  0
 11 37  1  0  0  0  0
 11 38  1  0  0  0  0
 12 39  1  0  0  0  0
 12 40  1  0  0  0  0
 12 41  1  0  0  0  0
 13 42  1  0  0  0  0
 14 43  1  0  0  0  0
 17 44  1  0  0  0  0
 17 45  1  0  0  0  0
 17 46  1  0  0  0  0
 18 47  1  0  0  0  0
 18 48  1  0  0  0  0
 21 49  1  0  0  0  0
 22 50  1  0  0  0  0
 23 51  1  0  0  0  0
M  CHG  1   6   1
M  END
>  <result-rank>
40

>  <similarity>
0.945

>  <query-name>
LIG_A_1101_C[NH+](C)[C@H]([R*])C1CCC1_2

>  <query-smiles>
O=C(N[C@@H]([NH+](C)C)C1CCC1)[C@@H](NC(=O)C)Cc2ccc(O)cc2

>  <source>
REALspace_2019-12

>  <similarity-descriptor>
0.999;0.823;1.000;1.000;0.999;0.999;0.999;0.951;1.000;1.000;1.000;1.000;1.000;0.823;0.091

>  <similarity-descriptor-smiles>
C1CCCC[NH+]C1;C1=CNC=N1;O=C;N;C1CCCC[NH+]C1;C1CCCC[NH+]C1;C1CCCC[NH+]C1;C;C;N;C=O;C;C;C1=CNC=N1;C

>  <reaction-name>
m_275030

>  <reagent1-name>
14113942

>  <reagent1-smiles>
[R2*]N1CC(N[R1*])CCCC1

>  <reagent2-name>
14127132

>  <reagent2-smiles>
[R1*]C(=O)C(NC(=O)C)CC=1N=CNC1

>  <reagent3-name>
14146952

>  <reagent3-smiles>
[R2*]CC

$$$$
s_240690a____7347498____12624318
          04022015093D 1   1.00000     0.00000     0
            
 48 49  0  0  0  0            999 V2000
   -1.5369    0.0511   -3.9404 Br  0  0  0  0  0  0  0  0  0  0  0  0
   -0.6612   -0.9036   -2.4698 C   0  0  0  0  0  0  0  0  0  0  0  0
   -0.5300   -0.2867   -1.2305 C   0  0  0  0  0  0  0  0  0  0  0  0
    0.0948   -0.9775   -0.1968 C   0  0  0  0  0  0  0  0  0  0  0  0
    0.5841   -2.2650   -0.3890 C   0  0  0  0  0  0  0  0  0  0  0  0
    0.4430   -2.8633   -1.6369 C   0  0  0  0  0  0  0  0  0  0  0  0
   -0.1785   -2.1904   -2.6836 C   0  0  0  0  0  0  0  0  0  0  0  0
    0.2400   -0.3066    1.1597 C   0  0  3  0  0  0  0  0  0  0  0  0
   -1.0928   -0.0334    1.7164 N   0  0  0  0  0  0  0  0  0  0  0  0
   -1.4622   -0.5885    2.9131 C   0  0  0  0  0  0  0  0  0  0  0  0
   -0.6978   -1.2978    3.5070 O   0  0  0  0  0  0  0  0  0  0  0  0
   -2.8404   -0.3060    3.4888 C   0  0  0  0  0  0  0  0  0  0  0  0
    1.0000    1.0000    1.0000 C   0  0  0  0  0  0  0  0  0  0  0  0
    0.4000    2.0316    0.8739 O   0  0  0  0  0  0  0  0  0  0  0  0
    2.3974    1.0000    1.0000 N   0  0  0  0  0  0  0  0  0  0  0  0
    3.0942    2.2959    0.9555 C   0  0  0  0  0  0  0  0  0  0  0  0
    4.4162    2.2066    0.2057 C   0  0  0  0  0  0  0  0  0  0  0  0
    5.2334    0.9911    0.6205 C   0  0  0  0  0  0  0  0  0  0  0  0
    6.4832    0.9557   -0.2445 C   0  0  0  0  0  0  0  0  0  0  0  0
    6.1011    0.7540   -1.6495 N   0  3  0  0  0  0  0  0  0  0  0  0
    7.3096    0.7198   -2.4859 C   0  0  0  0  0  0  0  0  0  0  0  0
    4.4202   -0.2521    0.2886 C   0  0  0  0  0  0  0  0  0  0  0  0
    3.0969   -0.2949    1.0400 C   0  0  0  0  0  0  0  0  0  0  0  0
    5.5118    1.5055   -1.9459 H   0  0  0  0  0  0  0  0  0  0  0  0
    5.6085   -0.1115   -1.7400 H   0  0  0  0  0  0  0  0  0  0  0  0
   -0.8792    0.6389   -1.0845 H   0  0  0  0  0  0  0  0  0  0  0  0
    1.0314   -2.7541    0.3597 H   0  0  0  0  0  0  0  0  0  0  0  0
    0.7926   -3.7887   -1.7832 H   0  0  0  0  0  0  0  0  0  0  0  0
   -0.2769   -2.6261   -3.5783 H   0  0  0  0  0  0  0  0  0  0  0  0
    0.7422   -0.9109    1.7783 H   0  0  0  0  0  0  0  0  0  0  0  0
   -1.7298    0.5577    1.2215 H   0  0  0  0  0  0  0  0  0  0  0  0
   -3.3425    0.2983    2.8701 H   0  0  0  0  0  0  0  0  0  0  0  0
   -3.3404   -1.1656    3.5938 H   0  0  0  0  0  0  0  0  0  0  0  0
   -2.7449    0.1353    4.3810 H   0  0  0  0  0  0  0  0  0  0  0  0
    3.2737    2.5984    1.8916 H   0  0  0  0  0  0  0  0  0  0  0  0
    2.5070    2.9627    0.4965 H   0  0  0  0  0  0  0  0  0  0  0  0
    4.2268    2.1477   -0.7745 H   0  0  0  0  0  0  0  0  0  0  0  0
    4.9489    3.0318    0.3933 H   0  0  0  0  0  0  0  0  0  0  0  0
    5.4655    1.0243    1.5926 H   0  0  0  0  0  0  0  0  0  0  0  0
    6.9758    1.8213   -0.1540 H   0  0  0  0  0  0  0  0  0  0  0  0
    7.0725    0.2042    0.0519 H   0  0  0  0  0  0  0  0  0  0  0  0
    7.0496    0.5825   -3.4417 H   0  0  0  0  0  0  0  0  0  0  0  0
    7.8022    1.5853   -2.3954 H   0  0  0  0  0  0  0  0  0  0  0  0
    7.8989   -0.0318   -2.1895 H   0  0  0  0  0  0  0  0  0  0  0  0
    4.9551   -1.0608    0.5330 H   0  0  0  0  0  0  0  0  0  0  0  0
    4.2327   -0.2608   -0.6936 H   0  0  0  0  0  0  0  0  0  0  0  0
    2.5117   -0.9909    0.6238 H   0  0  0  0  0  0  0  0  0  0  0  0
    3.2750   -0.5362    1.9940 H   0  0  0  0  0  0  0  0  0  0  0  0
  1  2  1  0  0  0  0
  2  3  1  0  0  0  0
  3  4  2  0  0  0  0
  4  5  1  0  0  0  0
  5  6  2  0  0  0  0
  6  7  1  0  0  0  0
  7  2  2  0  0  0  0
  4  8  1  0  0  0  0
  8  9  1  0  0  0  0
  9 10  1  0  0  0  0
 10 11  2  0  0  0  0
 10 12  1  0  0  0  0
  8 13  1  0  0  0  0
 13 14  2  0  0  0  0
 13 15  1  0  0  0  0
 15 16  1  0  0  0  0
 16 17  1  0  0  0  0
 17 18  1  0  0  0  0
 18 19  1  0  0  0  0
 19 20  1  0  0  0  0
 20 21  1  0  0  0  0
 18 22  1  0  0  0  0
 22 23  1  0  0  0  0
 23 15  1  0  0  0  0
 20 24  1  0  0  0  0
 20 25  1  0  0  0  0
  3 26  1  0  0  0  0
  5 27  1  0  0  0  0
  6 28  1  0  0  0  0
  7 29  1  0  0  0  0
  8 30  1  0  0  0  0
  9 31  1  0  0  0  0
 12 32  1  0  0  0  0
 12 33  1  0  0  0  0
 12 34  1  0  0  0  0
 16 35  1  0  0  0  0
 16 36  1  0  0  0  0
 17 37  1  0  0  0  0
 17 38  1  0  0  0  0
 18 39  1  0  0  0  0
 19 40  1  0  0  0  0
 19 41  1  0  0  0  0
 21 42  1  0  0  0  0
 21 43  1  0  0  0  0
 21 44  1  0  0  0  0
 22 45  1  0  0  0  0
 22 46  1  0  0  0  0
 23 47  1  0  0  0  0
 23 48  1  0  0  0  0
M  CHG  1  20   1
M  END
>  <result-rank>
41

>  <similarity>
0.945

>  <query-name>
LIG_A_1101_C[NH+](C)[C@H]([R*])C1CCC1_2

>  <query-smiles>
O=C(N[C@@H]([NH+](C)C)C1CCC1)[C@@H](NC(=O)C)Cc2ccc(O)cc2

>  <source>
REALspace_2019-12

>  <similarity-descriptor>
0.981;0.969;0.852;0.852;0.981;0.787;0.787;1.000;1.000;1.000;1.000;1.000;0.969;0.0;0.0

>  <similarity-descriptor-smiles>
N1CCCCC1;Brc1ccccc1;C=O;C=O;N1CCCCC1;C[NH2+];C[NH2+];C;C;N;C=O;C;Brc1ccccc1;;

>  <reaction-name>
s_240690a

>  <reagent1-name>
7347498

>  <reagent1-smiles>
[R1*]N1CCC(CNC)CC1

>  <reagent2-name>
12624318

>  <reagent2-smiles>
[R1*]C(=O)C(NC(=O)C)c1cc(Br)ccc1

$$$$
s_527a____237627____12624300
          04022015093D 1   1.00000     0.00000     0
            
 49 51  0  0  0  0            999 V2000
   -3.7298    2.8980    2.8227 Br  0  0  0  0  0  0  0  0  0  0  0  0
   -2.4193    1.4646    2.5602 C   0  0  0  0  0  0  0  0  0  0  0  0
   -1.2259    1.7360    1.9001 C   0  0  0  0  0  0  0  0  0  0  0  0
   -0.3061    0.7074    1.7209 C   0  0  0  0  0  0  0  0  0  0  0  0
   -0.5660   -0.5755    2.1906 C   0  0  0  0  0  0  0  0  0  0  0  0
   -1.7663   -0.8254    2.8476 C   0  0  0  0  0  0  0  0  0  0  0  0
   -2.6994    0.1886    3.0373 C   0  0  0  0  0  0  0  0  0  0  0  0
    1.0000    1.0000    1.0000 C   0  0  3  0  0  0  0  0  0  0  0  0
    0.7171    1.6971   -0.2629 N   0  0  0  0  0  0  0  0  0  0  0  0
    1.1013    1.1397   -1.4540 C   0  0  0  0  0  0  0  0  0  0  0  0
    1.6688    0.0825   -1.4663 O   0  0  0  0  0  0  0  0  0  0  0  0
    0.8088    1.8605   -2.7598 C   0  0  0  0  0  0  0  0  0  0  0  0
    1.8776    1.8776    1.8776 C   0  0  0  0  0  0  0  0  0  0  0  0
    2.7694    1.3883    2.5142 O   0  0  0  0  0  0  0  0  0  0  0  0
    1.6504    3.2271    1.9417 N   0  0  0  0  0  0  0  0  0  0  0  0
    2.5007    4.0775    2.7921 C   0  0  3  0  0  0  0  0  0  0  0  0
    1.6504    4.7761    3.8419 C   0  0  0  0  0  0  0  0  0  0  0  0
    2.5312    5.6687    4.7016 C   0  0  0  0  0  0  0  0  0  0  0  0
    3.2395    6.6632    3.8817 N   0  3  3  0  0  0  0  0  0  0  0  0
    4.0659    7.5432    4.7176 C   0  0  0  0  0  0  0  0  0  0  0  0
    5.0992    6.7679    5.4829 C   0  0  0  0  0  0  0  0  0  0  0  0
    3.8699    7.2744    6.1819 C   0  0  0  0  0  0  0  0  0  0  0  0
    4.0551    6.0245    2.8377 C   0  0  0  0  0  0  0  0  0  0  0  0
    3.1957    5.1367    1.9517 C   0  0  0  0  0  0  0  0  0  0  0  0
    2.5521    7.2302    3.4279 H   0  0  0  0  0  0  0  0  0  0  0  0
   -1.0318    2.6560    1.5594 H   0  0  0  0  0  0  0  0  0  0  0  0
    0.1011   -1.3086    2.0577 H   0  0  0  0  0  0  0  0  0  0  0  0
   -1.9608   -1.7454    3.1879 H   0  0  0  0  0  0  0  0  0  0  0  0
   -3.5605    0.0024    3.5105 H   0  0  0  0  0  0  0  0  0  0  0  0
    1.4742    0.1409    0.8075 H   0  0  0  0  0  0  0  0  0  0  0  0
    0.2442    2.5782   -0.2526 H   0  0  0  0  0  0  0  0  0  0  0  0
    0.3346    2.7197   -2.5674 H   0  0  0  0  0  0  0  0  0  0  0  0
    1.6679    2.0530   -3.2340 H   0  0  0  0  0  0  0  0  0  0  0  0
    0.2314    1.2832   -3.3372 H   0  0  0  0  0  0  0  0  0  0  0  0
    0.9072    3.6348    1.4112 H   0  0  0  0  0  0  0  0  0  0  0  0
    3.1882    3.5105    3.2459 H   0  0  0  0  0  0  0  0  0  0  0  0
    1.2061    4.0914    4.4197 H   0  0  0  0  0  0  0  0  0  0  0  0
    0.9539    5.3328    3.3892 H   0  0  0  0  0  0  0  0  0  0  0  0
    1.9598    6.1444    5.3704 H   0  0  0  0  0  0  0  0  0  0  0  0
    3.2023    5.1021    5.1796 H   0  0  0  0  0  0  0  0  0  0  0  0
    4.2719    8.4713    4.4074 H   0  0  0  0  0  0  0  0  0  0  0  0
    5.9900    7.1787    5.6773 H   0  0  0  0  0  0  0  0  0  0  0  0
    5.2128    5.7882    5.3179 H   0  0  0  0  0  0  0  0  0  0  0  0
    3.1650    6.6318    6.4823 H   0  0  0  0  0  0  0  0  0  0  0  0
    3.9422    8.0223    6.8417 H   0  0  0  0  0  0  0  0  0  0  0  0
    4.7647    5.4681    3.2701 H   0  0  0  0  0  0  0  0  0  0  0  0
    4.4828    6.7328    2.2762 H   0  0  0  0  0  0  0  0  0  0  0  0
    2.5077    5.6967    1.4900 H   0  0  0  0  0  0  0  0  0  0  0  0
    3.7748    4.6904    1.2694 H   0  0  0  0  0  0  0  0  0  0  0  0
  1  2  1  0  0  0  0
  2  3  1  0  0  0  0
  3  4  2  0  0  0  0
  4  5  1  0  0  0  0
  5  6  2  0  0  0  0
  6  7  1  0  0  0  0
  7  2  2  0  0  0  0
  4  8  1  0  0  0  0
  8  9  1  0  0  0  0
  9 10  1  0  0  0  0
 10 11  2  0  0  0  0
 10 12  1  0  0  0  0
  8 13  1  0  0  0  0
 13 14  2  0  0  0  0
 13 15  1  0  0  0  0
 15 16  1  0  0  0  0
 16 17  1  0  0  0  0
 17 18  1  0  0  0  0
 18 19  1  0  0  0  0
 19 20  1  0  0  0  0
 20 21  1  0  0  0  0
 21 22  1  0  0  0  0
 22 20  1  0  0  0  0
 19 23  1  0  0  0  0
 23 24  1  0  0  0  0
 24 16  1  0  0  0  0
 19 25  1  0  0  0  0
  3 26  1  0  0  0  0
  5 27  1  0  0  0  0
  6 28  1  0  0  0  0
  7 29  1  0  0  0  0
  8 30  1  0  0  0  0
  9 31  1  0  0  0  0
 12 32  1  0  0  0  0
 12 33  1  0  0  0  0
 12 34  1  0  0  0  0
 15 35  1  0  0  0  0
 16 36  1  0  0  0  0
 17 37  1  0  0  0  0
 17 38  1  0  0  0  0
 18 39  1  0  0  0  0
 18 40  1  0  0  0  0
 20 41  1  0  0  0  0
 21 42  1  0  0  0  0
 21 43  1  0  0  0  0
 22 44  1  0  0  0  0
 22 45  1  0  0  0  0
 23 46  1  0  0  0  0
 23 47  1  0  0  0  0
 24 48  1  0  0  0  0
 24 49  1  0  0  0  0
M  CHG  1  19   1
M  END
>  <result-rank>
42

>  <similarity>
0.945

>  <query-name>
LIG_A_1101_C[NH+](C)[C@H]([R*])C1CCC1_2

>  <query-smiles>
O=C(N[C@@H]([NH+](C)C)C1CCC1)[C@@H](NC(=O)C)Cc2ccc(O)cc2

>  <source>
REALspace_2019-12

>  <similarity-descriptor>
0.986;0.969;1.000;1.000;0.986;0.986;0.0;0.0;1.000;1.000;1.000;1.000;0.969;0.0;0.111

>  <similarity-descriptor-smiles>
C1CC[NH+]CC1;Brc1ccccc1;C=O;N;C1CC[NH+]CC1;C1CC[NH+]CC1;;;C;N;C=O;C;Brc1ccccc1;;C1CC1

>  <reaction-name>
s_527a

>  <reagent1-name>
237627

>  <reagent1-smiles>
[R1*]NC1CCN(C2CC2)CC1

>  <reagent2-name>
12624300

>  <reagent2-smiles>
[R1*]C(=O)C(NC(=O)C)c1cc(Br)ccc1

$$$$
s_2708____5730620____5904686
          04022015103D 1   1.00000     0.00000     0
            
 63 65  0  0  0  0            999 V2000
    0.9150    1.0000    3.2257 O   0  0  0  0  0  0  0  0  0  0  0  0
    0.3150    1.0000    2.1865 C   0  0  0  0  0  0  0  0  0  0  0  0
    1.0000    1.0000    1.0000 N   0  0  0  0  0  0  0  0  0  0  0  0
    2.4700    1.0000    1.0000 C   0  0  3  0  0  0  0  0  0  0  0  0
    2.9767   -0.0133   -0.0133 C   0  0  0  0  0  0  0  0  0  0  0  0
    2.2887   -0.3248   -0.9459 O   0  0  0  0  0  0  0  0  0  0  0  0
    4.2188   -0.5711    0.1380 N   0  0  0  0  0  0  0  0  0  0  0  0
    4.8163   -1.2501   -0.9309 C   0  0  0  0  0  0  0  0  0  0  0  0
    4.6016   -2.6159   -1.0854 C   0  0  0  0  0  0  0  0  0  0  0  0
    5.1967   -3.2870   -2.1486 C   0  0  0  0  0  0  0  0  0  0  0  0
    5.9995   -2.5926   -3.0472 C   0  0  0  0  0  0  0  0  0  0  0  0
    6.2067   -1.2270   -2.8833 C   0  0  0  0  0  0  0  0  0  0  0  0
    5.6170   -0.5455   -1.8238 C   0  0  0  0  0  0  0  0  0  0  0  0
    4.9243   -0.4568    1.4226 C   0  0  0  0  0  0  0  0  0  0  0  0
    2.9767    2.3842    0.6291 C   0  0  0  0  0  0  0  0  0  0  0  0
    3.1456    3.2167    1.8900 C   0  0  0  0  0  0  0  0  0  0  0  0
    2.0829    3.9831    2.3572 C   0  0  0  0  0  0  0  0  0  0  0  0
    2.2420    4.7440    3.5108 C   0  0  0  0  0  0  0  0  0  0  0  0
    3.4564    4.7338    4.1888 C   0  0  0  0  0  0  0  0  0  0  0  0
    4.5109    3.9641    3.7131 C   0  0  0  0  0  0  0  0  0  0  0  0
    4.3646    3.1994    2.5603 C   0  0  0  0  0  0  0  0  0  0  0  0
   -1.0550    1.0000    2.1865 N   0  0  0  0  0  0  0  0  0  0  0  0
   -1.7913    1.0000    3.4617 C   0  0  3  0  0  0  0  0  0  0  0  0
   -2.6682    2.2383    3.5508 C   0  0  0  0  0  0  0  0  0  0  0  0
   -3.4430    2.2184    4.8585 C   0  0  3  0  0  0  0  0  0  0  0  0
   -4.2598    0.9989    4.9586 N   0  3  3  0  0  0  0  0  0  0  0  0
   -3.4418   -0.2190    4.8603 C   0  0  0  0  0  0  0  0  0  0  0  0
   -2.6698   -0.2376    3.5506 C   0  0  0  0  0  0  0  0  0  0  0  0
   -4.9837    0.9541    6.2377 C   0  0  0  0  0  0  0  0  0  0  0  0
   -4.3089    3.4667    4.9138 C   0  0  0  0  0  0  0  0  0  0  0  0
   -4.9264    0.9980    4.2132 H   0  0  0  0  0  0  0  0  0  0  0  0
    0.5000    1.0000    0.1340 H   0  0  0  0  0  0  0  0  0  0  0  0
    2.8033    0.7560    1.9107 H   0  0  0  0  0  0  0  0  0  0  0  0
    4.0237   -3.1115   -0.4370 H   0  0  0  0  0  0  0  0  0  0  0  0
    5.0472   -4.2686   -2.2669 H   0  0  0  0  0  0  0  0  0  0  0  0
    6.4277   -3.0751   -3.8113 H   0  0  0  0  0  0  0  0  0  0  0  0
    6.7842   -0.7314   -3.5320 H   0  0  0  0  0  0  0  0  0  0  0  0
    5.7663    0.4362   -1.7059 H   0  0  0  0  0  0  0  0  0  0  0  0
    4.3585    0.0547    2.0693 H   0  0  0  0  0  0  0  0  0  0  0  0
    5.1036   -1.3706    1.7869 H   0  0  0  0  0  0  0  0  0  0  0  0
    5.7907    0.0234    1.2854 H   0  0  0  0  0  0  0  0  0  0  0  0
    3.8576    2.3029    0.1629 H   0  0  0  0  0  0  0  0  0  0  0  0
    2.3180    2.8287    0.0220 H   0  0  0  0  0  0  0  0  0  0  0  0
    1.2110    3.9870    1.8674 H   0  0  0  0  0  0  0  0  0  0  0  0
    1.4832    5.2984    3.8526 H   0  0  0  0  0  0  0  0  0  0  0  0
    3.5707    5.2803    5.0184 H   0  0  0  0  0  0  0  0  0  0  0  0
    5.3823    3.9598    4.2036 H   0  0  0  0  0  0  0  0  0  0  0  0
    5.1240    2.6457    2.2187 H   0  0  0  0  0  0  0  0  0  0  0  0
   -1.5550    1.0000    1.3204 H   0  0  0  0  0  0  0  0  0  0  0  0
   -1.1401    0.9996    4.2206 H   0  0  0  0  0  0  0  0  0  0  0  0
   -2.0942    3.0564    3.5160 H   0  0  0  0  0  0  0  0  0  0  0  0
   -3.3096    2.2483    2.7836 H   0  0  0  0  0  0  0  0  0  0  0  0
   -2.7952    2.2386    5.6200 H   0  0  0  0  0  0  0  0  0  0  0  0
   -4.0385   -1.0204    4.9020 H   0  0  0  0  0  0  0  0  0  0  0  0
   -2.7960   -0.2442    5.6234 H   0  0  0  0  0  0  0  0  0  0  0  0
   -2.0969   -1.0563    3.5131 H   0  0  0  0  0  0  0  0  0  0  0  0
   -3.3129   -0.2454    2.7848 H   0  0  0  0  0  0  0  0  0  0  0  0
   -5.5305    0.1180    6.2821 H   0  0  0  0  0  0  0  0  0  0  0  0
   -4.3278    0.9639    6.9924 H   0  0  0  0  0  0  0  0  0  0  0  0
   -5.5851    1.7499    6.3083 H   0  0  0  0  0  0  0  0  0  0  0  0
   -3.7288    4.2782    4.8438 H   0  0  0  0  0  0  0  0  0  0  0  0
   -4.9592    3.4553    4.1542 H   0  0  0  0  0  0  0  0  0  0  0  0
   -4.8085    3.4878    5.7799 H   0  0  0  0  0  0  0  0  0  0  0  0
  1  2  2  0  0  0  0
  2  3  1  0  0  0  0
  3  4  1  0  0  0  0
  4  5  1  0  0  0  0
  5  6  2  0  0  0  0
  5  7  1  0  0  0  0
  7  8  1  0  0  0  0
  8  9  1  0  0  0  0
  9 10  2  0  0  0  0
 10 11  1  0  0  0  0
 11 12  2  0  0  0  0
 12 13  1  0  0  0  0
 13  8  2  0  0  0  0
  7 14  1  0  0  0  0
  4 15  1  0  0  0  0
 15 16  1  0  0  0  0
 16 17  1  0  0  0  0
 17 18  2  0  0  0  0
 18 19  1  0  0  0  0
 19 20  2  0  0  0  0
 20 21  1  0  0  0  0
 21 16  2  0  0  0  0
  2 22  1  0  0  0  0
 22 23  1  0  0  0  0
 23 24  1  0  0  0  0
 24 25  1  0  0  0  0
 25 26  1  0  0  0  0
 26 27  1  0  0  0  0
 27 28  1  0  0  0  0
 28 23  1  0  0  0  0
 26 29  1  0  0  0  0
 25 30  1  0  0  0  0
 26 31  1  0  0  0  0
  3 32  1  0  0  0  0
  4 33  1  0  0  0  0
  9 34  1  0  0  0  0
 10 35  1  0  0  0  0
 11 36  1  0  0  0  0
 12 37  1  0  0  0  0
 13 38  1  0  0  0  0
 14 39  1  0  0  0  0
 14 40  1  0  0  0  0
 14 41  1  0  0  0  0
 15 42  1  0  0  0  0
 15 43  1  0  0  0  0
 17 44  1  0  0  0  0
 18 45  1  0  0  0  0
 19 46  1  0  0  0  0
 20 47  1  0  0  0  0
 21 48  1  0  0  0  0
 22 49  1  0  0  0  0
 23 50  1  0  0  0  0
 24 51  1  0  0  0  0
 24 52  1  0  0  0  0
 25 53  1  0  0  0  0
 27 54  1  0  0  0  0
 27 55  1  0  0  0  0
 28 56  1  0  0  0  0
 28 57  1  0  0  0  0
 29 58  1  0  0  0  0
 29 59  1  0  0  0  0
 29 60  1  0  0  0  0
 30 61  1  0  0  0  0
 30 62  1  0  0  0  0
 30 63  1  0  0  0  0
M  CHG  1  26   1
M  END
>  <result-rank>
43

>  <similarity>
0.945

>  <query-name>
LIG_A_1101_C[NH+](C)[C@H]([R*])C1CCC1_2

>  <query-smiles>
O=C(N[C@@H]([NH+](C)C)C1CCC1)[C@@H](NC(=O)C)Cc2ccc(O)cc2

>  <source>
REALspace_2019-12

>  <similarity-descriptor>
0.999;0.960;0.995;1.000;0.999;0.999;1.000;0.995;1.000;1.000;1.000;0.977;1.000;0.0;0.077

>  <similarity-descriptor-smiles>
C1CC[NH+]CC1;c1ccccc1;O=C;N;C1CC[NH+]CC1;C1CC[NH+]CC1;C;C;NC;NC;C=O;NC;C;;c1ccccc1

>  <reaction-name>
s_2708

>  <reagent1-name>
5730620

>  <reagent1-smiles>
[R1*]C(=O)NC1CC(N(CC1)C)C

>  <reagent2-name>
5904686

>  <reagent2-smiles>
[R1*]NC(C(=O)N(c1ccccc1)C)Cc2ccccc2

$$$$
s_2708____4974248____7557148
          04022015103D 1   1.00000     0.00000     0
            
 59 60  0  0  0  0            999 V2000
    2.9700    2.0392    1.0000 O   0  0  0  0  0  0  0  0  0  0  0  0
    2.3700    1.0000    1.0000 C   0  0  0  0  0  0  0  0  0  0  0  0
    1.0000    1.0000    1.0000 N   0  0  0  0  0  0  0  0  0  0  0  0
    0.2650   -0.2731    1.0000 C   0  0  0  0  0  0  0  0  0  0  0  0
    0.0116   -0.7119    2.4334 C   0  0  0  0  0  0  0  0  0  0  0  0
   -1.1497   -0.3067    3.0830 C   0  0  0  0  0  0  0  0  0  0  0  0
   -1.3772   -0.7098    4.3948 C   0  0  0  0  0  0  0  0  0  0  0  0
   -0.4476   -1.5133    5.0467 C   0  0  0  0  0  0  0  0  0  0  0  0
    0.7086   -1.9124    4.3877 C   0  0  0  0  0  0  0  0  0  0  0  0
    0.9480   -1.5154    3.0762 C   0  0  0  0  0  0  0  0  0  0  0  0
    0.2650    2.2731    1.0000 C   0  0  0  0  0  0  0  0  0  0  0  0
    0.0117    2.7118   -0.4331 C   0  0  3  0  0  0  0  0  0  0  0  0
    1.2524    2.8816   -1.1025 O   0  0  0  0  0  0  0  0  0  0  0  0
   -0.7483    4.0282   -0.4331 C   0  0  0  0  0  0  0  0  0  0  0  0
   -1.0017    4.4670   -1.8661 C   0  0  0  0  0  0  0  0  0  0  0  0
    3.0550   -0.1865    1.0000 N   0  0  0  0  0  0  0  0  0  0  0  0
    4.5275   -0.1865    1.0000 C   0  0  3  0  0  0  0  0  0  0  0  0
    5.0432   -0.1865    2.4299 C   0  0  0  0  0  0  0  0  0  0  0  0
    6.5631   -0.2112    2.4211 C   0  0  3  0  0  0  0  0  0  0  0  0
    7.0582   -1.3902    1.6937 N   0  3  3  0  0  0  0  0  0  0  0  0
    6.5640   -1.4283    0.3094 C   0  0  0  0  0  0  0  0  0  0  0  0
    5.0438   -1.4257    0.2864 C   0  0  0  0  0  0  0  0  0  0  0  0
    8.5274   -1.4017    1.6486 C   0  0  0  0  0  0  0  0  0  0  0  0
    9.0014   -2.6313    0.8910 C   0  0  0  0  0  0  0  0  0  0  0  0
    7.0439   -0.2125    3.8631 C   0  0  0  0  0  0  0  0  0  0  0  0
    6.7459   -2.2134    2.1679 H   0  0  0  0  0  0  0  0  0  0  0  0
    0.8054   -0.9700    0.5286 H   0  0  0  0  0  0  0  0  0  0  0  0
   -0.6088   -0.1535    0.5286 H   0  0  0  0  0  0  0  0  0  0  0  0
   -1.8160    0.2702    2.6105 H   0  0  0  0  0  0  0  0  0  0  0  0
   -2.2092   -0.4219    4.8692 H   0  0  0  0  0  0  0  0  0  0  0  0
   -0.6115   -1.8036    5.9895 H   0  0  0  0  0  0  0  0  0  0  0  0
    1.3743   -2.4899    4.8602 H   0  0  0  0  0  0  0  0  0  0  0  0
    1.7805   -1.8032    2.6026 H   0  0  0  0  0  0  0  0  0  0  0  0
    0.8054    2.9700    1.4714 H   0  0  0  0  0  0  0  0  0  0  0  0
   -0.6088    2.1535    1.4714 H   0  0  0  0  0  0  0  0  0  0  0  0
   -0.5288    2.0149   -0.9045 H   0  0  0  0  0  0  0  0  0  0  0  0
    1.0858    3.1703   -2.0453 H   0  0  0  0  0  0  0  0  0  0  0  0
   -0.2079    4.7251    0.0383 H   0  0  0  0  0  0  0  0  0  0  0  0
   -1.6221    3.9086    0.0383 H   0  0  0  0  0  0  0  0  0  0  0  0
   -1.5017    5.3330   -1.8661 H   0  0  0  0  0  0  0  0  0  0  0  0
   -0.1279    4.5866   -2.3375 H   0  0  0  0  0  0  0  0  0  0  0  0
   -1.5421    3.7701   -2.3375 H   0  0  0  0  0  0  0  0  0  0  0  0
    2.5550   -1.0525    1.0000 H   0  0  0  0  0  0  0  0  0  0  0  0
    4.8592    0.6303    0.5279 H   0  0  0  0  0  0  0  0  0  0  0  0
    4.7260    0.6381    2.8984 H   0  0  0  0  0  0  0  0  0  0  0  0
    4.6995   -0.9947    2.9080 H   0  0  0  0  0  0  0  0  0  0  0  0
    6.8987    0.6145    1.9678 H   0  0  0  0  0  0  0  0  0  0  0  0
    6.8985   -2.2584   -0.1367 H   0  0  0  0  0  0  0  0  0  0  0  0
    6.9019   -0.6261   -0.1829 H   0  0  0  0  0  0  0  0  0  0  0  0
    4.7248   -1.4216   -0.6613 H   0  0  0  0  0  0  0  0  0  0  0  0
    4.7022   -2.2435    0.7496 H   0  0  0  0  0  0  0  0  0  0  0  0
    8.8894   -1.4243    2.5806 H   0  0  0  0  0  0  0  0  0  0  0  0
    8.8532   -0.5780    1.1844 H   0  0  0  0  0  0  0  0  0  0  0  0
   10.0009   -2.6391    0.8604 H   0  0  0  0  0  0  0  0  0  0  0  0
    8.6757   -3.4549    1.3553 H   0  0  0  0  0  0  0  0  0  0  0  0
    8.6395   -2.6087   -0.0409 H   0  0  0  0  0  0  0  0  0  0  0  0
    6.6931    0.5980    4.3322 H   0  0  0  0  0  0  0  0  0  0  0  0
    6.7111   -1.0349    4.3247 H   0  0  0  0  0  0  0  0  0  0  0  0
    8.0436   -0.2016    3.8812 H   0  0  0  0  0  0  0  0  0  0  0  0
  1  2  2  0  0  0  0
  2  3  1  0  0  0  0
  3  4  1  0  0  0  0
  4  5  1  0  0  0  0
  5  6  1  0  0  0  0
  6  7  2  0  0  0  0
  7  8  1  0  0  0  0
  8  9  2  0  0  0  0
  9 10  1  0  0  0  0
 10  5  2  0  0  0  0
  3 11  1  0  0  0  0
 11 12  1  0  0  0  0
 12 13  1  0  0  0  0
 12 14  1  0  0  0  0
 14 15  1  0  0  0  0
  2 16  1  0  0  0  0
 16 17  1  0  0  0  0
 17 18  1  0  0  0  0
 18 19  1  0  0  0  0
 19 20  1  0  0  0  0
 20 21  1  0  0  0  0
 21 22  1  0  0  0  0
 22 17  1  0  0  0  0
 20 23  1  0  0  0  0
 23 24  1  0  0  0  0
 19 25  1  0  0  0  0
 20 26  1  0  0  0  0
  4 27  1  0  0  0  0
  4 28  1  0  0  0  0
  6 29  1  0  0  0  0
  7 30  1  0  0  0  0
  8 31  1  0  0  0  0
  9 32  1  0  0  0  0
 10 33  1  0  0  0  0
 11 34  1  0  0  0  0
 11 35  1  0  0  0  0
 12 36  1  0  0  0  0
 13 37  1  0  0  0  0
 14 38  1  0  0  0  0
 14 39  1  0  0  0  0
 15 40  1  0  0  0  0
 15 41  1  0  0  0  0
 15 42  1  0  0  0  0
 16 43  1  0  0  0  0
 17 44  1  0  0  0  0
 18 45  1  0  0  0  0
 18 46  1  0  0  0  0
 19 47  1  0  0  0  0
 21 48  1  0  0  0  0
 21 49  1  0  0  0  0
 22 50  1  0  0  0  0
 22 51  1  0  0  0  0
 23 52  1  0  0  0  0
 23 53  1  0  0  0  0
 24 54  1  0  0  0  0
 24 55  1  0  0  0  0
 24 56  1  0  0  0  0
 25 57  1  0  0  0  0
 25 58  1  0  0  0  0
 25 59  1  0  0  0  0
M  CHG  1  20   1
M  END
>  <result-rank>
44

>  <similarity>
0.945

>  <query-name>
LIG_A_1101_C[NH+](C)[C@H]([R*])C1CCC1_2

>  <query-smiles>
O=C(N[C@@H]([NH+](C)C)C1CCC1)[C@@H](NC(=O)C)Cc2ccc(O)cc2

>  <source>
REALspace_2019-12

>  <similarity-descriptor>
0.999;0.960;0.995;1.000;0.999;0.999;0.951;0.995;0.953;0.856;0.856;0.950;0.953;0.0;0.143

>  <similarity-descriptor-smiles>
C1CC[NH+]CC1;c1ccccc1;O=C;N;C1CC[NH+]CC1;C1CC[NH+]CC1;C;C;N(C)C;CO;CO;C;N(C)C;;C.C

>  <reaction-name>
s_2708

>  <reagent1-name>
4974248

>  <reagent1-smiles>
[R1*]C(=O)NC1CC(N(CC1)CC)C

>  <reagent2-name>
7557148

>  <reagent2-smiles>
[R1*]N(Cc1ccccc1)CC(O)CC

$$$$
s_527a____7687400____17513452
          04022015103D 1   1.00000     0.00000     0
            
 56 58  0  0  0  0            999 V2000
   -5.2817    0.7592    1.2138 O   0  0  0  0  0  0  0  0  0  0  0  0
   -5.7413    0.7256    2.3427 C   0  0  0  0  0  0  0  0  0  0  0  0
   -6.8179    0.0166    2.7242 O   0  0  0  0  0  0  0  0  0  0  0  0
   -7.0671    0.1803    4.1040 C   0  0  0  0  0  0  0  0  0  0  0  0
   -5.7059    0.5633    4.6491 C   0  0  0  0  0  0  0  0  0  0  0  0
   -5.1764    1.4443    3.5433 C   0  0  3  0  0  0  0  0  0  0  0  0
   -3.7064    1.4322    3.5046 N   0  3  3  0  0  0  0  0  0  0  0  0
   -3.1967    2.3855    2.5075 C   0  0  0  0  0  0  0  0  0  0  0  0
   -1.6764    2.3978    2.4874 C   0  0  0  0  0  0  0  0  0  0  0  0
   -1.1579    1.0000    2.1865 C   0  0  3  0  0  0  0  0  0  0  0  0
    0.3150    1.0000    2.1865 N   0  0  0  0  0  0  0  0  0  0  0  0
    1.0000    1.0000    1.0000 C   0  0  0  0  0  0  0  0  0  0  0  0
    0.4000    1.0000   -0.0392 O   0  0  0  0  0  0  0  0  0  0  0  0
    2.5200    1.0000    1.0000 C   0  0  3  0  0  0  0  0  0  0  0  0
    3.0100    1.0000   -0.3859 N   0  0  0  0  0  0  0  0  0  0  0  0
    3.7976    2.0275   -0.8340 C   0  0  0  0  0  0  0  0  0  0  0  0
    4.0875    2.9275   -0.0951 O   0  0  0  0  0  0  0  0  0  0  0  0
    4.3043    2.0275   -2.2671 C   0  0  0  0  0  0  0  0  0  0  0  0
    3.0267   -0.2411    1.7165 C   0  0  0  0  0  0  0  0  0  0  0  0
    4.5467   -0.2411    1.7165 C   0  0  0  0  0  0  0  0  0  0  0  0
    5.2311    0.3644    2.7653 C   0  0  0  0  0  0  0  0  0  0  0  0
    6.6219    0.3662    2.7699 C   0  0  0  0  0  0  0  0  0  0  0  0
    7.3116   -0.2391    1.7241 C   0  0  0  0  0  0  0  0  0  0  0  0
    8.6614   -0.2393    1.7244 O   0  0  0  0  0  0  0  0  0  0  0  0
    6.6320   -0.8457    0.6727 C   0  0  0  0  0  0  0  0  0  0  0  0
    5.2412   -0.8449    0.6734 C   0  0  0  0  0  0  0  0  0  0  0  0
   -1.6855    0.0508    3.2503 C   0  0  0  0  0  0  0  0  0  0  0  0
   -3.2057    0.0711    3.2600 C   0  0  0  0  0  0  0  0  0  0  0  0
   -3.3749    1.7227    4.4022 H   0  0  0  0  0  0  0  0  0  0  0  0
   -7.3926   -0.6714    4.5145 H   0  0  0  0  0  0  0  0  0  0  0  0
   -7.7365    0.9054    4.2654 H   0  0  0  0  0  0  0  0  0  0  0  0
   -5.7853    1.0656    5.5101 H   0  0  0  0  0  0  0  0  0  0  0  0
   -5.1271   -0.2408    4.7845 H   0  0  0  0  0  0  0  0  0  0  0  0
   -5.5333    2.3757    3.6142 H   0  0  0  0  0  0  0  0  0  0  0  0
   -3.5275    3.3019    2.7330 H   0  0  0  0  0  0  0  0  0  0  0  0
   -3.5330    2.1230    1.6031 H   0  0  0  0  0  0  0  0  0  0  0  0
   -1.3582    3.0299    1.7809 H   0  0  0  0  0  0  0  0  0  0  0  0
   -1.3343    2.6947    3.3789 H   0  0  0  0  0  0  0  0  0  0  0  0
   -1.4895    0.7094    1.2889 H   0  0  0  0  0  0  0  0  0  0  0  0
    0.8150    1.0000    3.0525 H   0  0  0  0  0  0  0  0  0  0  0  0
    2.8533    1.8165    1.4714 H   0  0  0  0  0  0  0  0  0  0  0  0
    2.7684    0.2500   -1.0017 H   0  0  0  0  0  0  0  0  0  0  0  0
    3.9710    1.2110   -2.7385 H   0  0  0  0  0  0  0  0  0  0  0  0
    3.9710    2.8440   -2.7385 H   0  0  0  0  0  0  0  0  0  0  0  0
    5.3043    2.0275   -2.2671 H   0  0  0  0  0  0  0  0  0  0  0  0
    2.6933   -0.2411    2.6593 H   0  0  0  0  0  0  0  0  0  0  0  0
    2.6933   -1.0576    1.2451 H   0  0  0  0  0  0  0  0  0  0  0  0
    4.7256    0.7963    3.5122 H   0  0  0  0  0  0  0  0  0  0  0  0
    7.1226    0.7993    3.5194 H   0  0  0  0  0  0  0  0  0  0  0  0
    9.1615   -0.6731    0.9749 H   0  0  0  0  0  0  0  0  0  0  0  0
    7.1374   -1.2771   -0.0746 H   0  0  0  0  0  0  0  0  0  0  0  0
    4.7405   -1.2783   -0.0759 H   0  0  0  0  0  0  0  0  0  0  0  0
   -1.3450    0.3358    4.1463 H   0  0  0  0  0  0  0  0  0  0  0  0
   -1.3682   -0.8768    3.0529 H   0  0  0  0  0  0  0  0  0  0  0  0
   -3.5438   -0.2488    2.3749 H   0  0  0  0  0  0  0  0  0  0  0  0
   -3.5375   -0.5354    3.9825 H   0  0  0  0  0  0  0  0  0  0  0  0
  1  2  2  0  0  0  0
  2  3  1  0  0  0  0
  3  4  1  0  0  0  0
  4  5  1  0  0  0  0
  5  6  1  0  0  0  0
  6  2  1  0  0  0  0
  6  7  1  0  0  0  0
  7  8  1  0  0  0  0
  8  9  1  0  0  0  0
  9 10  1  0  0  0  0
 10 11  1  0  0  0  0
 11 12  1  0  0  0  0
 12 13  2  0  0  0  0
 12 14  1  0  0  0  0
 14 15  1  0  0  0  0
 15 16  1  0  0  0  0
 16 17  2  0  0  0  0
 16 18  1  0  0  0  0
 14 19  1  0  0  0  0
 19 20  1  0  0  0  0
 20 21  1  0  0  0  0
 21 22  2  0  0  0  0
 22 23  1  0  0  0  0
 23 24  1  0  0  0  0
 23 25  2  0  0  0  0
 25 26  1  0  0  0  0
 26 20  2  0  0  0  0
 10 27  1  0  0  0  0
 27 28  1  0  0  0  0
 28  7  1  0  0  0  0
  7 29  1  0  0  0  0
  4 30  1  0  0  0  0
  4 31  1  0  0  0  0
  5 32  1  0  0  0  0
  5 33  1  0  0  0  0
  6 34  1  0  0  0  0
  8 35  1  0  0  0  0
  8 36  1  0  0  0  0
  9 37  1  0  0  0  0
  9 38  1  0  0  0  0
 10 39  1  0  0  0  0
 11 40  1  0  0  0  0
 14 41  1  0  0  0  0
 15 42  1  0  0  0  0
 18 43  1  0  0  0  0
 18 44  1  0  0  0  0
 18 45  1  0  0  0  0
 19 46  1  0  0  0  0
 19 47  1  0  0  0  0
 21 48  1  0  0  0  0
 22 49  1  0  0  0  0
 24 50  1  0  0  0  0
 25 51  1  0  0  0  0
 26 52  1  0  0  0  0
 27 53  1  0  0  0  0
 27 54  1  0  0  0  0
 28 55  1  0  0  0  0
 28 56  1  0  0  0  0
M  CHG  1   7   1
M  END
>  <result-rank>
45

>  <similarity>
0.945

>  <query-name>
LIG_A_1101_C[NH+](C)[C@H]([R*])C1CCC1_2

>  <query-smiles>
O=C(N[C@@H]([NH+](C)C)C1CCC1)[C@@H](NC(=O)C)Cc2ccc(O)cc2

>  <source>
REALspace_2019-12

>  <similarity-descriptor>
0.986;1.000;1.000;1.000;0.986;0.986;0.0;0.0;1.000;1.000;1.000;1.000;1.000;1.000;0.091

>  <similarity-descriptor-smiles>
[NH+]1CCCCC1;c1ccccc1;C=O;N;[NH+]1CCCCC1;[NH+]1CCCCC1;;;C;N;C=O;C;C;O;O=C1CCCO1

>  <reaction-name>
s_527a

>  <reagent1-name>
7687400

>  <reagent1-smiles>
[R1*]NC1CCN(C2C(=O)OCC2)CC1

>  <reagent2-name>
17513452

>  <reagent2-smiles>
[R1*]C(=O)C(NC(=O)C)Cc1ccc(O)cc1

$$$$
s_270006a____16467530____8412850
          04022015103D 1   1.00000     0.00000     0
            
 55 56  0  0  0  0            999 V2000
    2.8740   -0.3713    0.5734 O   0  0  0  0  0  0  0  0  0  0  0  0
    1.8776    0.1224    0.1224 C   0  0  0  0  0  0  0  0  0  0  0  0
    1.5236   -0.1097   -1.2110 N   0  0  0  0  0  0  0  0  0  0  0  0
    2.3954   -0.9639   -2.0322 C   0  0  0  0  0  0  0  0  0  0  0  0
    2.3932   -0.5144   -3.4853 C   0  0  3  0  0  0  0  0  0  0  0  0
    1.0243   -0.2829   -3.9730 N   0  3  0  0  0  0  0  0  0  0  0  0
    0.4350    0.8368   -3.2211 C   0  0  0  0  0  0  0  0  0  0  0  0
    0.2979    0.5083   -1.7421 C   0  0  0  0  0  0  0  0  0  0  0  0
    3.0854   -1.5839   -4.3146 C   0  0  0  0  0  0  0  0  0  0  0  0
    2.3036   -2.8839   -4.2193 C   0  0  0  0  0  0  0  0  0  0  0  0
    1.0000    1.0000    1.0000 C   0  0  0  0  0  0  0  0  0  0  0  0
    1.8776    1.8776    1.8776 C   0  0  3  0  0  0  0  0  0  0  0  0
    1.0385    2.5935    2.8494 N   0  0  0  0  0  0  0  0  0  0  0  0
    1.2401    2.4132    4.1924 C   0  0  0  0  0  0  0  0  0  0  0  0
    2.1015    1.6708    4.5755 O   0  0  0  0  0  0  0  0  0  0  0  0
    0.3725    3.1535    5.1972 C   0  0  0  0  0  0  0  0  0  0  0  0
    2.6181    2.8827    1.0098 C   0  0  0  0  0  0  0  0  0  0  0  0
    3.9722    2.7066    0.7427 C   0  0  0  0  0  0  0  0  0  0  0  0
    4.6440    1.6491    1.2466 O   0  0  0  0  0  0  0  0  0  0  0  0
    6.0504    1.5542    1.0751 C   0  0  0  0  0  0  0  0  0  0  0  0
    6.5559    0.2798    1.7314 C   0  0  0  0  0  0  0  0  0  0  0  0
    4.6500    3.6264   -0.0513 C   0  0  0  0  0  0  0  0  0  0  0  0
    3.9732    4.7221   -0.5785 C   0  0  0  0  0  0  0  0  0  0  0  0
    2.6190    4.8974   -0.3117 C   0  0  0  0  0  0  0  0  0  0  0  0
    1.9416    3.9774    0.4819 C   0  0  0  0  0  0  0  0  0  0  0  0
    0.4746   -1.1067   -3.8348 H   0  0  0  0  0  0  0  0  0  0  0  0
    1.0484   -0.0578   -4.9471 H   0  0  0  0  0  0  0  0  0  0  0  0
    2.0687   -1.9077   -1.9820 H   0  0  0  0  0  0  0  0  0  0  0  0
    3.3289   -0.9149   -1.6769 H   0  0  0  0  0  0  0  0  0  0  0  0
    2.9110    0.3378   -3.5604 H   0  0  0  0  0  0  0  0  0  0  0  0
   -0.4708    1.0371   -3.5943 H   0  0  0  0  0  0  0  0  0  0  0  0
    1.0222    1.6400   -3.3220 H   0  0  0  0  0  0  0  0  0  0  0  0
    0.1144    1.3519   -1.2375 H   0  0  0  0  0  0  0  0  0  0  0  0
   -0.4653   -0.1262   -1.6195 H   0  0  0  0  0  0  0  0  0  0  0  0
    4.0125   -1.7263   -3.9680 H   0  0  0  0  0  0  0  0  0  0  0  0
    3.1280   -1.2897   -5.2694 H   0  0  0  0  0  0  0  0  0  0  0  0
    2.7590   -3.5875   -4.7649 H   0  0  0  0  0  0  0  0  0  0  0  0
    2.2610   -3.1781   -3.2645 H   0  0  0  0  0  0  0  0  0  0  0  0
    1.3765   -2.7415   -4.5659 H   0  0  0  0  0  0  0  0  0  0  0  0
    0.4226    0.4226    1.5774 H   0  0  0  0  0  0  0  0  0  0  0  0
    0.4226    1.5774    0.4226 H   0  0  0  0  0  0  0  0  0  0  0  0
    2.5386    1.3068    2.3646 H   0  0  0  0  0  0  0  0  0  0  0  0
    0.3207    3.2122    2.5301 H   0  0  0  0  0  0  0  0  0  0  0  0
   -0.2886    3.7242    4.7102 H   0  0  0  0  0  0  0  0  0  0  0  0
   -0.1145    2.4924    5.7680 H   0  0  0  0  0  0  0  0  0  0  0  0
    0.9499    3.7308    5.7746 H   0  0  0  0  0  0  0  0  0  0  0  0
    6.4920    2.3451    1.4987 H   0  0  0  0  0  0  0  0  0  0  0  0
    6.2666    1.5348    0.0989 H   0  0  0  0  0  0  0  0  0  0  0  0
    7.5464    0.2129    1.6106 H   0  0  0  0  0  0  0  0  0  0  0  0
    6.3397    0.2991    2.7076 H   0  0  0  0  0  0  0  0  0  0  0  0
    6.1143   -0.5111    1.3078 H   0  0  0  0  0  0  0  0  0  0  0  0
    5.6233    3.5002   -0.2430 H   0  0  0  0  0  0  0  0  0  0  0  0
    4.4602    5.3833   -1.1491 H   0  0  0  0  0  0  0  0  0  0  0  0
    2.1327    5.6848   -0.6905 H   0  0  0  0  0  0  0  0  0  0  0  0
    0.9681    4.1031    0.6729 H   0  0  0  0  0  0  0  0  0  0  0  0
  1  2  2  0  0  0  0
  2  3  1  0  0  0  0
  3  4  1  0  0  0  0
  4  5  1  0  0  0  0
  5  6  1  0  0  0  0
  6  7  1  0  0  0  0
  7  8  1  0  0  0  0
  8  3  1  0  0  0  0
  5  9  1  0  0  0  0
  9 10  1  0  0  0  0
  2 11  1  0  0  0  0
 11 12  1  0  0  0  0
 12 13  1  0  0  0  0
 13 14  1  0  0  0  0
 14 15  2  0  0  0  0
 14 16  1  0  0  0  0
 12 17  1  0  0  0  0
 17 18  1  0  0  0  0
 18 19  1  0  0  0  0
 19 20  1  0  0  0  0
 20 21  1  0  0  0  0
 18 22  2  0  0  0  0
 22 23  1  0  0  0  0
 23 24  2  0  0  0  0
 24 25  1  0  0  0  0
 25 17  2  0  0  0  0
  6 26  1  0  0  0  0
  6 27  1  0  0  0  0
  4 28  1  0  0  0  0
  4 29  1  0  0  0  0
  5 30  1  0  0  0  0
  7 31  1  0  0  0  0
  7 32  1  0  0  0  0
  8 33  1  0  0  0  0
  8 34  1  0  0  0  0
  9 35  1  0  0  0  0
  9 36  1  0  0  0  0
 10 37  1  0  0  0  0
 10 38  1  0  0  0  0
 10 39  1  0  0  0  0
 11 40  1  0  0  0  0
 11 41  1  0  0  0  0
 12 42  1  0  0  0  0
 13 43  1  0  0  0  0
 16 44  1  0  0  0  0
 16 45  1  0  0  0  0
 16 46  1  0  0  0  0
 20 47  1  0  0  0  0
 20 48  1  0  0  0  0
 21 49  1  0  0  0  0
 21 50  1  0  0  0  0
 21 51  1  0  0  0  0
 22 52  1  0  0  0  0
 23 53  1  0  0  0  0
 24 54  1  0  0  0  0
 25 55  1  0  0  0  0
M  CHG  1   6   1
M  END
>  <result-rank>
46

>  <similarity>
0.945

>  <query-name>
LIG_A_1101_C[NH+](C)[C@H]([R*])C1CCC1_2

>  <query-smiles>
O=C(N[C@@H]([NH+](C)C)C1CCC1)[C@@H](NC(=O)C)Cc2ccc(O)cc2

>  <source>
REALspace_2019-12

>  <similarity-descriptor>
0.950;1.000;1.000;0.950;0.950;0.950;0.0;0.945;1.000;1.000;1.000;1.000;1.000;0.704;0.231

>  <similarity-descriptor-smiles>
N1CC[NH2+]CC1;c1ccccc1;O=C;N1CC[NH2+]CC1;N1CC[NH2+]CC1;N1CC[NH2+]CC1;;C;CC;N;C=O;C;CC;O;C.C.C

>  <reaction-name>
s_270006a

>  <reagent1-name>
16467530

>  <reagent1-smiles>
[R1*]N1CC(NCC1)CC

>  <reagent2-name>
8412850

>  <reagent2-smiles>
[R1*]C(=O)CC(NC(=O)C)c1c(OCC)cccc1

$$$$
s_527a____17312416____17513452
          04022015103D 1   1.00000     0.00000     0
            
 44 45  0  0  0  0            999 V2000
    0.4000    1.0000   -0.0392 O   0  0  0  0  0  0  0  0  0  0  0  0
    1.0000    1.0000    1.0000 C   0  0  0  0  0  0  0  0  0  0  0  0
    0.3150    1.0000    2.1865 N   0  0  0  0  0  0  0  0  0  0  0  0
   -1.1537    1.0000    2.1865 C   0  0  0  0  0  0  0  0  0  0  0  0
   -1.7063   -0.4044    2.1865 C   0  0  0  0  0  0  0  0  0  0  0  0
   -2.7627    0.1026    3.1403 C   0  0  3  0  0  0  0  0  0  0  0  0
   -3.0931   -0.9126    4.2224 C   0  0  0  0  0  0  0  0  0  0  0  0
   -2.4315   -0.9084    5.3414 C   0  0  0  0  0  0  0  0  0  0  0  0
   -1.7106    1.0899    3.5884 C   0  0  0  0  0  0  0  0  0  0  0  0
    2.5200    1.0000    1.0000 C   0  0  3  0  0  0  0  0  0  0  0  0
    3.0100    1.6930   -0.2002 N   0  0  0  0  0  0  0  0  0  0  0  0
    3.2383    3.0434   -0.1663 C   0  0  0  0  0  0  0  0  0  0  0  0
    3.0383    3.6605    0.8432 O   0  0  0  0  0  0  0  0  0  0  0  0
    3.7450    3.7599   -1.4074 C   0  0  0  0  0  0  0  0  0  0  0  0
    3.0267   -0.4331    1.0000 C   0  0  0  0  0  0  0  0  0  0  0  0
    4.5467   -0.4331    1.0000 C   0  0  0  0  0  0  0  0  0  0  0  0
    5.2311   -0.4331    2.2110 C   0  0  0  0  0  0  0  0  0  0  0  0
    6.6219   -0.4338    2.2159 C   0  0  0  0  0  0  0  0  0  0  0  0
    7.3116   -0.4351    1.0075 C   0  0  0  0  0  0  0  0  0  0  0  0
    8.7316   -0.4355    1.0077 O   0  0  0  0  0  0  0  0  0  0  0  0
    6.6320   -0.4347   -0.2063 C   0  0  0  0  0  0  0  0  0  0  0  0
    5.2412   -0.4344   -0.2053 C   0  0  0  0  0  0  0  0  0  0  0  0
    0.8150    1.0000    3.0525 H   0  0  0  0  0  0  0  0  0  0  0  0
   -1.5756    1.6194    1.5244 H   0  0  0  0  0  0  0  0  0  0  0  0
   -2.0544   -0.7183    1.3031 H   0  0  0  0  0  0  0  0  0  0  0  0
   -1.0936   -1.0964    2.5682 H   0  0  0  0  0  0  0  0  0  0  0  0
   -3.5596    0.5148    2.6986 H   0  0  0  0  0  0  0  0  0  0  0  0
   -3.8194   -1.5836    4.0734 H   0  0  0  0  0  0  0  0  0  0  0  0
   -2.6489   -1.5763    6.0532 H   0  0  0  0  0  0  0  0  0  0  0  0
   -1.7052   -0.2374    5.4903 H   0  0  0  0  0  0  0  0  0  0  0  0
   -1.0990    0.7553    4.3053 H   0  0  0  0  0  0  0  0  0  0  0  0
   -2.0618    1.9908    3.8436 H   0  0  0  0  0  0  0  0  0  0  0  0
    2.8533    1.4714    1.8165 H   0  0  0  0  0  0  0  0  0  0  0  0
    3.1767    1.1787   -1.0415 H   0  0  0  0  0  0  0  0  0  0  0  0
    3.8561    3.1005   -2.1510 H   0  0  0  0  0  0  0  0  0  0  0  0
    3.0863    4.4614   -1.6796 H   0  0  0  0  0  0  0  0  0  0  0  0
    4.6259    4.1892   -1.2082 H   0  0  0  0  0  0  0  0  0  0  0  0
    2.6933   -0.9045    1.8165 H   0  0  0  0  0  0  0  0  0  0  0  0
    2.6933   -0.9045    0.1835 H   0  0  0  0  0  0  0  0  0  0  0  0
    4.7256   -0.4325    3.0738 H   0  0  0  0  0  0  0  0  0  0  0  0
    7.1226   -0.4335    3.0815 H   0  0  0  0  0  0  0  0  0  0  0  0
    9.2317   -0.4364    0.1417 H   0  0  0  0  0  0  0  0  0  0  0  0
    7.1374   -0.4347   -1.0692 H   0  0  0  0  0  0  0  0  0  0  0  0
    4.7405   -0.4351   -1.0710 H   0  0  0  0  0  0  0  0  0  0  0  0
  1  2  2  0  0  0  0
  2  3  1  0  0  0  0
  3  4  1  0  0  0  0
  4  5  1  0  0  0  0
  5  6  1  0  0  0  0
  6  7  1  0  0  0  0
  7  8  2  0  0  0  0
  6  9  1  0  0  0  0
  9  4  1  0  0  0  0
  2 10  1  0  0  0  0
 10 11  1  0  0  0  0
 11 12  1  0  0  0  0
 12 13  2  0  0  0  0
 12 14  1  0  0  0  0
 10 15  1  0  0  0  0
 15 16  1  0  0  0  0
 16 17  1  0  0  0  0
 17 18  2  0  0  0  0
 18 19  1  0  0  0  0
 19 20  1  0  0  0  0
 19 21  2  0  0  0  0
 21 22  1  0  0  0  0
 22 16  2  0  0  0  0
  3 23  1  0  0  0  0
  4 24  1  0  0  0  0
  5 25  1  0  0  0  0
  5 26  1  0  0  0  0
  6 27  1  0  0  0  0
  7 28  1  0  0  0  0
  8 29  1  0  0  0  0
  8 30  1  0  0  0  0
  9 31  1  0  0  0  0
  9 32  1  0  0  0  0
 10 33  1  0  0  0  0
 11 34  1  0  0  0  0
 14 35  1  0  0  0  0
 14 36  1  0  0  0  0
 14 37  1  0  0  0  0
 15 38  1  0  0  0  0
 15 39  1  0  0  0  0
 17 40  1  0  0  0  0
 18 41  1  0  0  0  0
 20 42  1  0  0  0  0
 21 43  1  0  0  0  0
 22 44  1  0  0  0  0
M  END
>  <result-rank>
47

>  <similarity>
0.944

>  <query-name>
LIG_A_1101_C[NH+](C)[C@H]([R*])C1CCC1_2

>  <query-smiles>
O=C(N[C@@H]([NH+](C)C)C1CCC1)[C@@H](NC(=O)C)Cc2ccc(O)cc2

>  <source>
REALspace_2019-12

>  <similarity-descriptor>
0.985;1.000;1.000;0.753;0.753;0.0;0.0;0.0;1.000;1.000;1.000;1.000;1.000;1.000;0.167

>  <similarity-descriptor-smiles>
C1CCC1;c1ccccc1;O=C;N;N;;;;C;N;C=O;C;C;O;C.C

>  <reaction-name>
s_527a

>  <reagent1-name>
17312416

>  <reagent1-smiles>
[R1*]NC1CC(C=C)C1

>  <reagent2-name>
17513452

>  <reagent2-smiles>
[R1*]C(=O)C(NC(=O)C)Cc1ccc(O)cc1

$$$$
s_527a____9044452____15715224
          04022015103D 1   1.00000     0.00000     0
            
 61 62  0  0  0  0            999 V2000
    3.4716    0.3240    1.8978 O   0  0  0  0  0  0  0  0  0  0  0  0
    3.0831    1.4052    2.2442 C   0  0  0  0  0  0  0  0  0  0  0  0
    3.8395    2.1616    3.0005 O   0  0  0  0  0  0  0  0  0  0  0  0
    5.1190    1.7019    3.4104 C   0  0  0  0  0  0  0  0  0  0  0  0
    5.7854    2.7611    4.2732 C   0  0  0  0  0  0  0  0  0  0  0  0
    4.9639    0.4196    4.2118 C   0  0  0  0  0  0  0  0  0  0  0  0
    5.9772    1.4330    2.1851 C   0  0  0  0  0  0  0  0  0  0  0  0
    1.8487    1.8487    1.8487 N   0  0  0  0  0  0  0  0  0  0  0  0
    1.0000    1.0000    1.0000 C   0  0  3  0  0  0  0  0  0  0  0  0
    0.7075    1.7208   -0.3059 C   0  0  0  0  0  0  0  0  0  0  0  0
   -0.3868    1.6571   -0.7943 O   0  0  0  0  0  0  0  0  0  0  0  0
    1.6931    2.4433   -0.9252 N   0  0  0  0  0  0  0  0  0  0  0  0
    1.4100    3.1407   -2.1886 C   0  0  3  0  0  0  0  0  0  0  0  0
    1.6362    4.6291   -2.0388 C   0  0  3  0  0  0  0  0  0  0  0  0
    0.5250    5.2877   -1.3399 N   0  3  0  0  0  0  0  0  0  0  0  0
    0.8022    6.7267   -1.2256 C   0  0  0  0  0  0  0  0  0  0  0  0
   -0.7184    5.0869   -2.0979 C   0  0  0  0  0  0  0  0  0  0  0  0
    1.7220    5.0326   -3.4922 C   0  0  0  0  0  0  0  0  0  0  0  0
    2.6239    3.9802   -4.1024 C   0  0  0  0  0  0  0  0  0  0  0  0
    2.3906    2.7281   -3.2711 C   0  0  0  0  0  0  0  0  0  0  0  0
   -0.3059    0.7075    1.7208 C   0  0  0  0  0  0  0  0  0  0  0  0
   -0.0134   -0.0131    3.0262 C   0  0  0  0  0  0  0  0  0  0  0  0
    0.0421   -1.3821    3.0484 C   0  0  0  0  0  0  0  0  0  0  0  0
    0.3164   -2.0268    4.2837 C   0  0  0  0  0  0  0  0  0  0  0  0
    0.3668   -3.2454    4.3066 O   0  0  0  0  0  0  0  0  0  0  0  0
    0.5181   -1.2784    5.4141 N   0  0  0  0  0  0  0  0  0  0  0  0
    0.4598    0.0907    5.3775 C   0  0  0  0  0  0  0  0  0  0  0  0
    0.1972    0.7503    4.2049 C   0  0  0  0  0  0  0  0  0  0  0  0
    0.4256    4.8937   -0.4262 H   0  0  0  0  0  0  0  0  0  0  0  0
    6.6864    2.4374    4.5619 H   0  0  0  0  0  0  0  0  0  0  0  0
    5.8874    3.6047    3.7460 H   0  0  0  0  0  0  0  0  0  0  0  0
    5.2207    2.9380    5.0794 H   0  0  0  0  0  0  0  0  0  0  0  0
    5.8649    0.0959    4.5004 H   0  0  0  0  0  0  0  0  0  0  0  0
    4.3992    0.5966    5.0179 H   0  0  0  0  0  0  0  0  0  0  0  0
    4.5255   -0.2772    3.6441 H   0  0  0  0  0  0  0  0  0  0  0  0
    6.8783    1.1093    2.4738 H   0  0  0  0  0  0  0  0  0  0  0  0
    5.5388    0.7361    1.6175 H   0  0  0  0  0  0  0  0  0  0  0  0
    6.0792    2.2766    1.6579 H   0  0  0  0  0  0  0  0  0  0  0  0
    1.5250    2.7498    2.1374 H   0  0  0  0  0  0  0  0  0  0  0  0
    1.4742    0.1409    0.8075 H   0  0  0  0  0  0  0  0  0  0  0  0
    2.6049    2.4964   -0.5181 H   0  0  0  0  0  0  0  0  0  0  0  0
    0.4715    2.9597   -2.4827 H   0  0  0  0  0  0  0  0  0  0  0  0
    2.5019    4.8086   -1.5716 H   0  0  0  0  0  0  0  0  0  0  0  0
    0.0456    7.1752   -0.7498 H   0  0  0  0  0  0  0  0  0  0  0  0
    1.6481    6.8633   -0.7100 H   0  0  0  0  0  0  0  0  0  0  0  0
    0.9016    7.1207   -2.1394 H   0  0  0  0  0  0  0  0  0  0  0  0
   -1.4750    5.5353   -1.6221 H   0  0  0  0  0  0  0  0  0  0  0  0
   -0.6190    5.4808   -3.0117 H   0  0  0  0  0  0  0  0  0  0  0  0
   -0.9070    4.1079   -2.1757 H   0  0  0  0  0  0  0  0  0  0  0  0
    2.1225    5.9440   -3.5865 H   0  0  0  0  0  0  0  0  0  0  0  0
    0.8183    5.0197   -3.9201 H   0  0  0  0  0  0  0  0  0  0  0  0
    3.5812    4.2641   -4.0483 H   0  0  0  0  0  0  0  0  0  0  0  0
    2.3778    3.8181   -5.0579 H   0  0  0  0  0  0  0  0  0  0  0  0
    2.0021    2.0002   -3.8363 H   0  0  0  0  0  0  0  0  0  0  0  0
    3.2482    2.4129   -2.8648 H   0  0  0  0  0  0  0  0  0  0  0  0
   -0.7801    1.5666    1.9133 H   0  0  0  0  0  0  0  0  0  0  0  0
   -0.8832    0.1301    1.1435 H   0  0  0  0  0  0  0  0  0  0  0  0
   -0.1070   -1.9142    2.2150 H   0  0  0  0  0  0  0  0  0  0  0  0
    0.7111   -1.7390    6.2804 H   0  0  0  0  0  0  0  0  0  0  0  0
    0.6106    0.6143    6.2159 H   0  0  0  0  0  0  0  0  0  0  0  0
    0.1547    1.7491    4.1800 H   0  0  0  0  0  0  0  0  0  0  0  0
  1  2  2  0  0  0  0
  2  3  1  0  0  0  0
  3  4  1  0  0  0  0
  4  5  1  0  0  0  0
  4  6  1  0  0  0  0
  4  7  1  0  0  0  0
  2  8  1  0  0  0  0
  8  9  1  0  0  0  0
  9 10  1  0  0  0  0
 10 11  2  0  0  0  0
 10 12  1  0  0  0  0
 12 13  1  0  0  0  0
 13 14  1  0  0  0  0
 14 15  1  0  0  0  0
 15 16  1  0  0  0  0
 15 17  1  0  0  0  0
 14 18  1  0  0  0  0
 18 19  1  0  0  0  0
 19 20  1  0  0  0  0
 20 13  1  0  0  0  0
  9 21  1  0  0  0  0
 21 22  1  0  0  0  0
 22 23  2  0  0  0  0
 23 24  1  0  0  0  0
 24 25  2  0  0  0  0
 24 26  1  0  0  0  0
 26 27  1  0  0  0  0
 27 28  2  0  0  0  0
 28 22  1  0  0  0  0
 15 29  1  0  0  0  0
  5 30  1  0  0  0  0
  5 31  1  0  0  0  0
  5 32  1  0  0  0  0
  6 33  1  0  0  0  0
  6 34  1  0  0  0  0
  6 35  1  0  0  0  0
  7 36  1  0  0  0  0
  7 37  1  0  0  0  0
  7 38  1  0  0  0  0
  8 39  1  0  0  0  0
  9 40  1  0  0  0  0
 12 41  1  0  0  0  0
 13 42  1  0  0  0  0
 14 43  1  0  0  0  0
 16 44  1  0  0  0  0
 16 45  1  0  0  0  0
 16 46  1  0  0  0  0
 17 47  1  0  0  0  0
 17 48  1  0  0  0  0
 17 49  1  0  0  0  0
 18 50  1  0  0  0  0
 18 51  1  0  0  0  0
 19 52  1  0  0  0  0
 19 53  1  0  0  0  0
 20 54  1  0  0  0  0
 20 55  1  0  0  0  0
 21 56  1  0  0  0  0
 21 57  1  0  0  0  0
 23 58  1  0  0  0  0
 26 59  1  0  0  0  0
 27 60  1  0  0  0  0
 28 61  1  0  0  0  0
M  CHG  1  15   1
M  END
>  <result-rank>
48

>  <similarity>
0.944

>  <query-name>
LIG_A_1101_C[NH+](C)[C@H]([R*])C1CCC1_2

>  <query-smiles>
O=C(N[C@@H]([NH+](C)C)C1CCC1)[C@@H](NC(=O)C)Cc2ccc(O)cc2

>  <source>
REALspace_2019-12

>  <similarity-descriptor>
1.000;0.900;1.000;1.000;1.000;1.000;1.000;1.000;1.000;1.000;0.851;0.971;1.000;0.900;0.125

>  <similarity-descriptor-smiles>
C1CCCC1;C=1C=CNC(C1)=O;C=O;N;C1CCCC1;[NH+];C;C;C;N;O=CO;CC;C;C=1C=CNC(C1)=O;C.C

>  <reaction-name>
s_527a

>  <reagent1-name>
9044452

>  <reagent1-smiles>
[R1*]NC1C(N(C)C)CCC1

>  <reagent2-name>
15715224

>  <reagent2-smiles>
[R1*]C(=O)C(NC(=O)OC(C)(C)C)Cc1cc(O)ncc1

$$$$
s_2708____16644250____14595632
          04022015103D 1   1.00000     0.00000     0
            
 59 60  0  0  0  0            999 V2000
    1.0985   -4.8264    2.9240 F   0  0  0  0  0  0  0  0  0  0  0  0
    1.5402   -3.7397    2.2968 C   0  0  0  0  0  0  0  0  0  0  0  0
    0.7843   -3.1755    1.2743 C   0  0  0  0  0  0  0  0  0  0  0  0
    1.2531   -2.0396    0.6223 C   0  0  0  0  0  0  0  0  0  0  0  0
    2.4701   -1.4820    0.9999 C   0  0  0  0  0  0  0  0  0  0  0  0
    3.2214   -2.0499    2.0232 C   0  0  0  0  0  0  0  0  0  0  0  0
    2.7575   -3.1854    2.6789 C   0  0  0  0  0  0  0  0  0  0  0  0
    2.9767   -0.2411    0.2835 C   0  0  0  0  0  0  0  0  0  0  0  0
    2.4700    1.0000    1.0000 C   0  0  3  0  0  0  0  0  0  0  0  0
    1.0000    1.0000    1.0000 N   0  0  0  0  0  0  0  0  0  0  0  0
    0.3150    1.0000    2.1865 C   0  0  0  0  0  0  0  0  0  0  0  0
    0.9150    1.0000    3.2257 O   0  0  0  0  0  0  0  0  0  0  0  0
   -1.0550    1.0000    2.1865 N   0  0  0  0  0  0  0  0  0  0  0  0
   -1.7894    1.0000    3.4585 C   0  0  3  0  0  0  0  0  0  0  0  0
   -2.6466    2.2614    3.4867 C   0  0  0  0  0  0  0  0  0  0  0  0
   -3.3126    2.5655    4.7697 N   0  3  3  0  0  0  0  0  0  0  0  0
   -3.9419    1.4272    5.4678 C   0  0  0  0  0  0  0  0  0  0  0  0
   -2.9267    0.3853    5.9335 C   0  0  0  0  0  0  0  0  0  0  0  0
   -2.7101   -0.7268    4.9941 N   0  3  3  0  0  0  0  0  0  0  0  0
   -2.5825   -0.2923    3.5905 C   0  0  0  0  0  0  0  0  0  0  0  0
   -3.7901   -1.7212    5.0648 C   0  0  0  0  0  0  0  0  0  0  0  0
   -4.3621    3.5608    4.5109 C   0  0  0  0  0  0  0  0  0  0  0  0
    2.9767    2.2411    0.2835 C   0  0  0  0  0  0  0  0  0  0  0  0
    2.5033    3.4005    0.9529 O   0  0  0  0  0  0  0  0  0  0  0  0
    4.4967    2.2411    0.2835 C   0  0  0  0  0  0  0  0  0  0  0  0
    2.4700    2.2411   -1.1496 C   0  0  0  0  0  0  0  0  0  0  0  0
   -2.6376    2.9747    5.3835 H   0  0  0  0  0  0  0  0  0  0  0  0
   -1.8580   -1.1824    5.2515 H   0  0  0  0  0  0  0  0  0  0  0  0
   -0.0896   -3.5835    1.0099 H   0  0  0  0  0  0  0  0  0  0  0  0
    0.7178   -1.6260   -0.1142 H   0  0  0  0  0  0  0  0  0  0  0  0
    4.0952   -1.6417    2.2876 H   0  0  0  0  0  0  0  0  0  0  0  0
    3.2926   -3.5983    3.4159 H   0  0  0  0  0  0  0  0  0  0  0  0
    2.6433   -0.2411   -0.6593 H   0  0  0  0  0  0  0  0  0  0  0  0
    3.9767   -0.2411    0.2835 H   0  0  0  0  0  0  0  0  0  0  0  0
    2.8033    1.0000    1.9428 H   0  0  0  0  0  0  0  0  0  0  0  0
    0.5000    1.0000    0.1340 H   0  0  0  0  0  0  0  0  0  0  0  0
   -1.5550    1.0000    1.3204 H   0  0  0  0  0  0  0  0  0  0  0  0
   -1.1290    1.0466    4.2079 H   0  0  0  0  0  0  0  0  0  0  0  0
   -2.0578    3.0363    3.2569 H   0  0  0  0  0  0  0  0  0  0  0  0
   -3.3567    2.1640    2.7893 H   0  0  0  0  0  0  0  0  0  0  0  0
   -4.5882    0.9874    4.8441 H   0  0  0  0  0  0  0  0  0  0  0  0
   -4.4332    1.7742    6.2667 H   0  0  0  0  0  0  0  0  0  0  0  0
   -2.0510    0.8464    6.0772 H   0  0  0  0  0  0  0  0  0  0  0  0
   -3.2482    0.0029    6.7997 H   0  0  0  0  0  0  0  0  0  0  0  0
   -3.4975   -0.1487    3.2134 H   0  0  0  0  0  0  0  0  0  0  0  0
   -2.1173   -1.0100    3.0723 H   0  0  0  0  0  0  0  0  0  0  0  0
   -3.8960   -2.0318    6.0095 H   0  0  0  0  0  0  0  0  0  0  0  0
   -4.6451   -1.3076    4.7521 H   0  0  0  0  0  0  0  0  0  0  0  0
   -3.5639   -2.5010    4.4810 H   0  0  0  0  0  0  0  0  0  0  0  0
   -4.8286    3.7835    5.3669 H   0  0  0  0  0  0  0  0  0  0  0  0
   -3.9498    4.3888    4.1308 H   0  0  0  0  0  0  0  0  0  0  0  0
   -5.0220    3.1875    3.8589 H   0  0  0  0  0  0  0  0  0  0  0  0
    2.8367    4.2170    0.4815 H   0  0  0  0  0  0  0  0  0  0  0  0
    4.8300    1.4246   -0.1879 H   0  0  0  0  0  0  0  0  0  0  0  0
    4.8300    3.0576   -0.1879 H   0  0  0  0  0  0  0  0  0  0  0  0
    4.8300    2.2411    1.2263 H   0  0  0  0  0  0  0  0  0  0  0  0
    2.8033    1.4246   -1.6210 H   0  0  0  0  0  0  0  0  0  0  0  0
    1.4700    2.2411   -1.1496 H   0  0  0  0  0  0  0  0  0  0  0  0
    2.8033    3.0576   -1.6210 H   0  0  0  0  0  0  0  0  0  0  0  0
  1  2  1  0  0  0  0
  2  3  1  0  0  0  0
  3  4  2  0  0  0  0
  4  5  1  0  0  0  0
  5  6  2  0  0  0  0
  6  7  1  0  0  0  0
  7  2  2  0  0  0  0
  5  8  1  0  0  0  0
  8  9  1  0  0  0  0
  9 10  1  0  0  0  0
 10 11  1  0  0  0  0
 11 12  2  0  0  0  0
 11 13  1  0  0  0  0
 13 14  1  0  0  0  0
 14 15  1  0  0  0  0
 15 16  1  0  0  0  0
 16 17  1  0  0  0  0
 17 18  1  0  0  0  0
 18 19  1  0  0  0  0
 19 20  1  0  0  0  0
 20 14  1  0  0  0  0
 19 21  1  0  0  0  0
 16 22  1  0  0  0  0
  9 23  1  0  0  0  0
 23 24  1  0  0  0  0
 23 25  1  0  0  0  0
 23 26  1  0  0  0  0
 16 27  1  0  0  0  0
 19 28  1  0  0  0  0
  3 29  1  0  0  0  0
  4 30  1  0  0  0  0
  6 31  1  0  0  0  0
  7 32  1  0  0  0  0
  8 33  1  0  0  0  0
  8 34  1  0  0  0  0
  9 35  1  0  0  0  0
 10 36  1  0  0  0  0
 13 37  1  0  0  0  0
 14 38  1  0  0  0  0
 15 39  1  0  0  0  0
 15 40  1  0  0  0  0
 17 41  1  0  0  0  0
 17 42  1  0  0  0  0
 18 43  1  0  0  0  0
 18 44  1  0  0  0  0
 20 45  1  0  0  0  0
 20 46  1  0  0  0  0
 21 47  1  0  0  0  0
 21 48  1  0  0  0  0
 21 49  1  0  0  0  0
 22 50  1  0  0  0  0
 22 51  1  0  0  0  0
 22 52  1  0  0  0  0
 24 53  1  0  0  0  0
 25 54  1  0  0  0  0
 25 55  1  0  0  0  0
 25 56  1  0  0  0  0
 26 57  1  0  0  0  0
 26 58  1  0  0  0  0
 26 59  1  0  0  0  0
M  CHG  2  16   1  19   1
M  END
>  <result-rank>
49

>  <similarity>
0.943

>  <query-name>
LIG_A_1101_C[NH+](C)[C@H]([R*])C1CCC1_2

>  <query-smiles>
O=C(N[C@@H]([NH+](C)C)C1CCC1)[C@@H](NC(=O)C)Cc2ccc(O)cc2

>  <source>
REALspace_2019-12

>  <similarity-descriptor>
0.989;0.983;0.848;0.989;0.989;0.989;1.000;1.000;0.999;0.999;0.744;1.000;1.000;0.0;0.077

>  <similarity-descriptor-smiles>
C1C[NH+]CC[NH+]C1;Fc1ccccc1;C(=O)N;C1C[NH+]CC[NH+]C1;C1C[NH+]CC[NH+]C1;C1C[NH+]CC[NH+]C1;C;C;CN;CN;CO;C;C;;C

>  <reaction-name>
s_2708

>  <reagent1-name>
16644250

>  <reagent1-smiles>
[R1*]C(=O)NC1CN(CCN(C1)C)C

>  <reagent2-name>
14595632

>  <reagent2-smiles>
[R1*]NC(C(O)(C)C)Cc1ccc(F)cc1

$$$$
s_22____11732914____12624298
          04022015103D 1   1.00000     0.00000     0
            
 42 43  0  0  0  0            999 V2000
   -3.2033    2.2810    7.0508 Br  0  0  0  0  0  0  0  0  0  0  0  0
   -2.5991    0.9881    5.7075 C   0  0  0  0  0  0  0  0  0  0  0  0
   -2.1365    1.4403    4.4766 C   0  0  0  0  0  0  0  0  0  0  0  0
   -1.7118    0.5098    3.5333 C   0  0  0  0  0  0  0  0  0  0  0  0
   -1.7451   -0.8534    3.8067 C   0  0  0  0  0  0  0  0  0  0  0  0
   -2.2122   -1.2841    5.0442 C   0  0  0  0  0  0  0  0  0  0  0  0
   -2.6414   -0.3707    6.0013 C   0  0  0  0  0  0  0  0  0  0  0  0
   -1.2050    1.0000    2.1865 C   0  0  3  0  0  0  0  0  0  0  0  0
   -1.6950    0.1091    1.1248 N   0  0  0  0  0  0  0  0  0  0  0  0
   -2.4826    0.6082    0.1211 C   0  0  0  0  0  0  0  0  0  0  0  0
   -2.7725    1.7726    0.1086 O   0  0  0  0  0  0  0  0  0  0  0  0
   -2.9893   -0.3129   -0.9767 C   0  0  0  0  0  0  0  0  0  0  0  0
    0.3150    1.0000    2.1865 C   0  0  0  0  0  0  0  0  0  0  0  0
    0.9150    1.0000    3.2257 O   0  0  0  0  0  0  0  0  0  0  0  0
    1.0000    1.0000    1.0000 N   0  0  0  0  0  0  0  0  0  0  0  0
    2.4700    1.0000    1.0000 C   0  0  0  0  0  0  0  0  0  0  0  0
    2.9767   -0.4113    1.2488 C   0  0  0  0  0  0  0  0  0  0  0  0
    4.4967   -0.4113    1.2488 C   0  0  0  0  0  0  0  0  0  0  0  0
    5.0035    0.0790   -0.0982 C   0  0  3  0  0  0  0  0  0  0  0  0
    6.5012    0.1177   -0.2046 C   0  0  0  0  0  0  0  0  0  0  0  0
    7.4366   -0.2993    1.2522 Cl  0  0  0  0  0  0  0  0  0  0  0  0
    7.1763    1.3048   -1.3470 Cl  0  0  0  0  0  0  0  0  0  0  0  0
    5.7340   -1.0120   -0.8286 C   0  0  0  0  0  0  0  0  0  0  0  0
   -2.1095    2.4189    4.2726 H   0  0  0  0  0  0  0  0  0  0  0  0
   -1.4375   -1.5151    3.1229 H   0  0  0  0  0  0  0  0  0  0  0  0
   -2.2397   -2.2627    5.2482 H   0  0  0  0  0  0  0  0  0  0  0  0
   -2.9760   -0.6868    6.8890 H   0  0  0  0  0  0  0  0  0  0  0  0
   -1.5383    1.9285    2.0227 H   0  0  0  0  0  0  0  0  0  0  0  0
   -1.4534   -0.8612    1.1352 H   0  0  0  0  0  0  0  0  0  0  0  0
   -2.6560   -1.2414   -0.8130 H   0  0  0  0  0  0  0  0  0  0  0  0
   -3.9893   -0.3129   -0.9767 H   0  0  0  0  0  0  0  0  0  0  0  0
   -2.6560    0.0095   -1.8627 H   0  0  0  0  0  0  0  0  0  0  0  0
    0.5000    1.0000    0.1340 H   0  0  0  0  0  0  0  0  0  0  0  0
    2.8033    1.6060    1.7222 H   0  0  0  0  0  0  0  0  0  0  0  0
    2.8033    1.3225    0.1140 H   0  0  0  0  0  0  0  0  0  0  0  0
    2.6433   -1.0173    0.5266 H   0  0  0  0  0  0  0  0  0  0  0  0
    2.6433   -0.7338    2.1348 H   0  0  0  0  0  0  0  0  0  0  0  0
    4.8300    0.1947    1.9711 H   0  0  0  0  0  0  0  0  0  0  0  0
    4.8300   -1.3398    1.4126 H   0  0  0  0  0  0  0  0  0  0  0  0
    4.4579    0.7367   -0.6176 H   0  0  0  0  0  0  0  0  0  0  0  0
    5.7860   -1.9295   -0.4345 H   0  0  0  0  0  0  0  0  0  0  0  0
    5.6654   -1.0801   -1.8240 H   0  0  0  0  0  0  0  0  0  0  0  0
  1  2  1  0  0  0  0
  2  3  1  0  0  0  0
  3  4  2  0  0  0  0
  4  5  1  0  0  0  0
  5  6  2  0  0  0  0
  6  7  1  0  0  0  0
  7  2  2  0  0  0  0
  4  8  1  0  0  0  0
  8  9  1  0  0  0  0
  9 10  1  0  0  0  0
 10 11  2  0  0  0  0
 10 12  1  0  0  0  0
  8 13  1  0  0  0  0
 13 14  2  0  0  0  0
 13 15  1  0  0  0  0
 15 16  1  0  0  0  0
 16 17  1  0  0  0  0
 17 18  1  0  0  0  0
 18 19  1  0  0  0  0
 19 20  1  0  0  0  0
 20 21  1  0  0  0  0
 20 22  1  0  0  0  0
 20 23  1  0  0  0  0
 23 19  1  0  0  0  0
  3 24  1  0  0  0  0
  5 25  1  0  0  0  0
  6 26  1  0  0  0  0
  7 27  1  0  0  0  0
  8 28  1  0  0  0  0
  9 29  1  0  0  0  0
 12 30  1  0  0  0  0
 12 31  1  0  0  0  0
 12 32  1  0  0  0  0
 15 33  1  0  0  0  0
 16 34  1  0  0  0  0
 16 35  1  0  0  0  0
 17 36  1  0  0  0  0
 17 37  1  0  0  0  0
 18 38  1  0  0  0  0
 18 39  1  0  0  0  0
 19 40  1  0  0  0  0
 23 41  1  0  0  0  0
 23 42  1  0  0  0  0
M  END
>  <result-rank>
50

>  <similarity>
0.943

>  <query-name>
LIG_A_1101_C[NH+](C)[C@H]([R*])C1CCC1_2

>  <query-smiles>
O=C(N[C@@H]([NH+](C)C)C1CCC1)[C@@H](NC(=O)C)Cc2ccc(O)cc2

>  <source>
REALspace_2019-12

>  <similarity-descriptor>
0.931;0.969;1.000;1.000;0.942;0.0;0.0;0.0;1.000;1.000;1.000;1.000;0.969;0.0;0.0

>  <similarity-descriptor-smiles>
CCC1CC1(Cl)Cl;Brc1ccccc1;C=O;N;C;;;;C;N;C=O;C;Brc1ccccc1;;

>  <reaction-name>
s_22

>  <reagent1-name>
11732914

>  <reagent1-smiles>
[R1*]NCCCC1C(Cl)(Cl)C1

>  <reagent2-name>
12624298

>  <reagent2-smiles>
[R1*]C(=O)C(NC(=O)C)c1cc(Br)ccc1

$$$$
s_2708____6465958____3417236
          04022015103D 1   1.00000     0.00000     0
            
 53 54  0  0  0  0            999 V2000
    0.9150    1.0000    3.2257 O   0  0  0  0  0  0  0  0  0  0  0  0
    0.3150    1.0000    2.1865 C   0  0  0  0  0  0  0  0  0  0  0  0
   -1.0840    1.0000    2.1865 N   0  0  0  0  0  0  0  0  0  0  0  0
   -1.7939    1.0000    3.4763 C   0  0  0  0  0  0  0  0  0  0  0  0
   -3.1098    0.2384    3.4047 C   0  0  3  0  0  0  0  0  0  0  0  0
   -3.8639    0.5057    4.6383 N   0  3  0  0  0  0  0  0  0  0  0  0
   -3.0819    0.0542    5.7982 C   0  0  0  0  0  0  0  0  0  0  0  0
   -4.1213    1.9485    4.7524 C   0  0  0  0  0  0  0  0  0  0  0  0
   -3.9267    0.6242    2.1802 C   0  0  0  0  0  0  0  0  0  0  0  0
   -3.1025    0.2384    0.9602 C   0  0  0  0  0  0  0  0  0  0  0  0
   -1.7850    0.9971    0.8920 C   0  0  0  0  0  0  0  0  0  0  0  0
    1.0000    1.0000    1.0000 N   0  0  0  0  0  0  0  0  0  0  0  0
    2.4700    1.0000    1.0000 C   0  0  3  0  0  0  0  0  0  0  0  0
    2.9767   -0.3842    0.6291 C   0  0  0  0  0  0  0  0  0  0  0  0
    4.3955   -0.3998    0.6854 O   0  0  0  0  0  0  0  0  0  0  0  0
    4.8688   -1.6929    0.3389 C   0  0  0  0  0  0  0  0  0  0  0  0
    2.9767    2.0133   -0.0133 C   0  0  0  0  0  0  0  0  0  0  0  0
    1.9753    2.1370   -1.1505 C   0  0  0  0  0  0  0  0  0  0  0  0
    1.1546    3.2575   -1.2272 C   0  0  0  0  0  0  0  0  0  0  0  0
    0.2391    3.3663   -2.2689 C   0  0  0  0  0  0  0  0  0  0  0  0
    0.1502    2.3597   -3.2247 C   0  0  0  0  0  0  0  0  0  0  0  0
    0.9754    1.2452   -3.1383 C   0  0  0  0  0  0  0  0  0  0  0  0
    1.8945    1.1243   -2.1012 C   0  0  0  0  0  0  0  0  0  0  0  0
   -4.7338    0.0131    4.6106 H   0  0  0  0  0  0  0  0  0  0  0  0
   -1.9826    1.9458    3.7407 H   0  0  0  0  0  0  0  0  0  0  0  0
   -1.2102    0.5712    4.1658 H   0  0  0  0  0  0  0  0  0  0  0  0
   -2.9097   -0.7403    3.3591 H   0  0  0  0  0  0  0  0  0  0  0  0
   -3.5947    0.2360    6.6372 H   0  0  0  0  0  0  0  0  0  0  0  0
   -2.9068   -0.9273    5.7206 H   0  0  0  0  0  0  0  0  0  0  0  0
   -2.2120    0.5468    5.8259 H   0  0  0  0  0  0  0  0  0  0  0  0
   -4.6341    2.1303    5.5914 H   0  0  0  0  0  0  0  0  0  0  0  0
   -3.2514    2.4411    4.7801 H   0  0  0  0  0  0  0  0  0  0  0  0
   -4.6533    2.2556    3.9633 H   0  0  0  0  0  0  0  0  0  0  0  0
   -4.1017    1.6088    2.1797 H   0  0  0  0  0  0  0  0  0  0  0  0
   -4.7966    0.1310    2.1776 H   0  0  0  0  0  0  0  0  0  0  0  0
   -2.9078   -0.7417    1.0001 H   0  0  0  0  0  0  0  0  0  0  0  0
   -3.6328    0.4397    0.1367 H   0  0  0  0  0  0  0  0  0  0  0  0
   -1.1980    0.5643    0.2078 H   0  0  0  0  0  0  0  0  0  0  0  0
   -1.9700    1.9422    0.6226 H   0  0  0  0  0  0  0  0  0  0  0  0
    0.5000    1.0000    0.1340 H   0  0  0  0  0  0  0  0  0  0  0  0
    2.8033    1.2440    1.9107 H   0  0  0  0  0  0  0  0  0  0  0  0
    2.6102   -1.0567    1.2721 H   0  0  0  0  0  0  0  0  0  0  0  0
    2.6773   -0.6115   -0.2976 H   0  0  0  0  0  0  0  0  0  0  0  0
    5.8680   -1.7039    0.3785 H   0  0  0  0  0  0  0  0  0  0  0  0
    4.5023   -2.3654    0.9819 H   0  0  0  0  0  0  0  0  0  0  0  0
    4.5695   -1.9202   -0.5878 H   0  0  0  0  0  0  0  0  0  0  0  0
    3.0878    2.9022    0.4311 H   0  0  0  0  0  0  0  0  0  0  0  0
    3.8576    1.7098   -0.3764 H   0  0  0  0  0  0  0  0  0  0  0  0
    1.2222    3.9795   -0.5386 H   0  0  0  0  0  0  0  0  0  0  0  0
   -0.3552    4.1682   -2.3305 H   0  0  0  0  0  0  0  0  0  0  0  0
   -0.5075    2.4381   -3.9739 H   0  0  0  0  0  0  0  0  0  0  0  0
    0.9080    0.5238   -3.8276 H   0  0  0  0  0  0  0  0  0  0  0  0
    2.4880    0.3219   -2.0398 H   0  0  0  0  0  0  0  0  0  0  0  0
  1  2  2  0  0  0  0
  2  3  1  0  0  0  0
  3  4  1  0  0  0  0
  4  5  1  0  0  0  0
  5  6  1  0  0  0  0
  6  7  1  0  0  0  0
  6  8  1  0  0  0  0
  5  9  1  0  0  0  0
  9 10  1  0  0  0  0
 10 11  1  0  0  0  0
 11  3  1  0  0  0  0
  2 12  1  0  0  0  0
 12 13  1  0  0  0  0
 13 14  1  0  0  0  0
 14 15  1  0  0  0  0
 15 16  1  0  0  0  0
 13 17  1  0  0  0  0
 17 18  1  0  0  0  0
 18 19  1  0  0  0  0
 19 20  2  0  0  0  0
 20 21  1  0  0  0  0
 21 22  2  0  0  0  0
 22 23  1  0  0  0  0
 23 18  2  0  0  0  0
  6 24  1  0  0  0  0
  4 25  1  0  0  0  0
  4 26  1  0  0  0  0
  5 27  1  0  0  0  0
  7 28  1  0  0  0  0
  7 29  1  0  0  0  0
  7 30  1  0  0  0  0
  8 31  1  0  0  0  0
  8 32  1  0  0  0  0
  8 33  1  0  0  0  0
  9 34  1  0  0  0  0
  9 35  1  0  0  0  0
 10 36  1  0  0  0  0
 10 37  1  0  0  0  0
 11 38  1  0  0  0  0
 11 39  1  0  0  0  0
 12 40  1  0  0  0  0
 13 41  1  0  0  0  0
 14 42  1  0  0  0  0
 14 43  1  0  0  0  0
 16 44  1  0  0  0  0
 16 45  1  0  0  0  0
 16 46  1  0  0  0  0
 17 47  1  0  0  0  0
 17 48  1  0  0  0  0
 19 49  1  0  0  0  0
 20 50  1  0  0  0  0
 21 51  1  0  0  0  0
 22 52  1  0  0  0  0
 23 53  1  0  0  0  0
M  CHG  1   6   1
M  END
>  <result-rank>
51

>  <similarity>
0.943

>  <query-name>
LIG_A_1101_C[NH+](C)[C@H]([R*])C1CCC1_2

>  <query-smiles>
O=C(N[C@@H]([NH+](C)C)C1CCC1)[C@@H](NC(=O)C)Cc2ccc(O)cc2

>  <source>
REALspace_2019-12

>  <similarity-descriptor>
0.980;0.960;0.857;0.857;0.980;1.000;1.000;1.000;0.999;0.999;0.770;0.994;1.000;0.0;0.0

>  <similarity-descriptor-smiles>
N1CCCCC1;c1ccccc1;O=C;O=C;N1CCCCC1;[NH+];C;C;NC;NC;CO;C;C;;

>  <reaction-name>
s_2708

>  <reagent1-name>
6465958

>  <reagent1-smiles>
[R1*]C(=O)NC(COC)Cc1ccccc1

>  <reagent2-name>
3417236

>  <reagent2-smiles>
[R1*]N1CC(N(C)C)CCC1

$$$$
s_22____15426814____17513450
          04022015103D 1   1.00000     0.00000     0
            
 55 57  0  0  0  0            999 V2000
    0.4000   -0.0392    1.0000 O   0  0  0  0  0  0  0  0  0  0  0  0
    1.0000    1.0000    1.0000 C   0  0  0  0  0  0  0  0  0  0  0  0
    2.3700    1.0000    1.0000 N   0  0  0  0  0  0  0  0  0  0  0  0
    3.1050   -0.2731    1.0000 C   0  0  0  0  0  0  0  0  0  0  0  0
    3.1428   -0.8360   -0.4106 C   0  0  3  0  0  0  0  0  0  0  0  0
    1.8238   -1.0722   -0.9119 O   0  0  0  0  0  0  0  0  0  0  0  0
    1.7890   -0.8316   -2.3014 C   0  0  0  0  0  0  0  0  0  0  0  0
    3.2304   -0.5409   -2.6921 C   0  0  3  0  0  0  0  0  0  0  0  0
    3.3036    0.3765   -3.9040 C   0  0  0  0  0  0  0  0  0  0  0  0
    2.6544   -0.2414   -5.0054 O   0  0  0  0  0  0  0  0  0  0  0  0
    3.5919    0.1923   -1.4248 C   0  0  0  0  0  0  0  0  0  0  0  0
    4.0273   -1.8147   -2.9418 C   0  0  0  0  0  0  0  0  0  0  0  0
    3.8649   -2.8260   -1.8155 C   0  0  0  0  0  0  0  0  0  0  0  0
    3.9279   -2.1407   -0.4585 C   0  0  0  0  0  0  0  0  0  0  0  0
    0.2400    2.3164    1.0000 C   0  0  3  0  0  0  0  0  0  0  0  0
   -1.2052    2.0477    1.0000 N   0  0  0  0  0  0  0  0  0  0  0  0
   -1.9871    2.5058    2.0275 C   0  0  0  0  0  0  0  0  0  0  0  0
   -1.4922    3.1263    2.9275 O   0  0  0  0  0  0  0  0  0  0  0  0
   -3.4815    2.2281    2.0275 C   0  0  0  0  0  0  0  0  0  0  0  0
    0.6072    3.1134   -0.2411 C   0  0  0  0  0  0  0  0  0  0  0  0
   -0.1528    4.4298   -0.2411 C   0  0  0  0  0  0  0  0  0  0  0  0
    0.4132    5.5469    0.3644 C   0  0  0  0  0  0  0  0  0  0  0  0
   -0.2782    6.7537    0.3662 C   0  0  0  0  0  0  0  0  0  0  0  0
   -1.5287    6.8280   -0.2391 C   0  0  0  0  0  0  0  0  0  0  0  0
   -2.2034    7.9972   -0.2393 O   0  0  0  0  0  0  0  0  0  0  0  0
   -2.0995    5.7138   -0.8457 C   0  0  0  0  0  0  0  0  0  0  0  0
   -1.4035    4.5097   -0.8449 C   0  0  0  0  0  0  0  0  0  0  0  0
    2.8700    1.8660    1.0000 H   0  0  0  0  0  0  0  0  0  0  0  0
    2.6462   -0.9228    1.6060 H   0  0  0  0  0  0  0  0  0  0  0  0
    4.0389   -0.1188    1.3225 H   0  0  0  0  0  0  0  0  0  0  0  0
    1.2048   -0.0463   -2.5067 H   0  0  0  0  0  0  0  0  0  0  0  0
    1.4491   -1.6362   -2.7882 H   0  0  0  0  0  0  0  0  0  0  0  0
    2.8511    1.2432   -3.6938 H   0  0  0  0  0  0  0  0  0  0  0  0
    4.2613    0.5480   -4.1350 H   0  0  0  0  0  0  0  0  0  0  0  0
    2.7024    0.3615   -5.8018 H   0  0  0  0  0  0  0  0  0  0  0  0
    4.5736    0.3728   -1.3645 H   0  0  0  0  0  0  0  0  0  0  0  0
    3.0888    1.0517   -1.3337 H   0  0  0  0  0  0  0  0  0  0  0  0
    4.9953   -1.5778   -3.0244 H   0  0  0  0  0  0  0  0  0  0  0  0
    3.7117   -2.2298   -3.7950 H   0  0  0  0  0  0  0  0  0  0  0  0
    2.9807   -3.2832   -1.9109 H   0  0  0  0  0  0  0  0  0  0  0  0
    4.5984   -3.5031   -1.8749 H   0  0  0  0  0  0  0  0  0  0  0  0
    3.5540   -2.7626    0.2296 H   0  0  0  0  0  0  0  0  0  0  0  0
    4.8849   -1.9443   -0.2453 H   0  0  0  0  0  0  0  0  0  0  0  0
    0.4816    2.8407    1.8165 H   0  0  0  0  0  0  0  0  0  0  0  0
   -1.6177    1.5307    0.2500 H   0  0  0  0  0  0  0  0  0  0  0  0
   -3.7231    1.7037    1.2110 H   0  0  0  0  0  0  0  0  0  0  0  0
   -3.7231    1.7037    2.8440 H   0  0  0  0  0  0  0  0  0  0  0  0
   -3.9815    3.0941    2.0275 H   0  0  0  0  0  0  0  0  0  0  0  0
    1.5904    3.2961   -0.2411 H   0  0  0  0  0  0  0  0  0  0  0  0
    0.3656    2.5890   -1.0576 H   0  0  0  0  0  0  0  0  0  0  0  0
    1.3129    5.4826    0.7963 H   0  0  0  0  0  0  0  0  0  0  0  0
    0.1206    7.5620    0.7993 H   0  0  0  0  0  0  0  0  0  0  0  0
   -3.1025    8.0555   -0.6731 H   0  0  0  0  0  0  0  0  0  0  0  0
   -2.9994    5.7778   -1.2771 H   0  0  0  0  0  0  0  0  0  0  0  0
   -1.8020    3.7014   -1.2783 H   0  0  0  0  0  0  0  0  0  0  0  0
  1  2  2  0  0  0  0
  2  3  1  0  0  0  0
  3  4  1  0  0  0  0
  4  5  1  0  0  0  0
  5  6  1  0  0  0  0
  6  7  1  0  0  0  0
  7  8  1  0  0  0  0
  8  9  1  0  0  0  0
  9 10  1  0  0  0  0
  8 11  1  0  0  0  0
 11  5  1  0  0  0  0
  8 12  1  0  0  0  0
 12 13  1  0  0  0  0
 13 14  1  0  0  0  0
 14  5  1  0  0  0  0
  2 15  1  0  0  0  0
 15 16  1  0  0  0  0
 16 17  1  0  0  0  0
 17 18  2  0  0  0  0
 17 19  1  0  0  0  0
 15 20  1  0  0  0  0
 20 21  1  0  0  0  0
 21 22  1  0  0  0  0
 22 23  2  0  0  0  0
 23 24  1  0  0  0  0
 24 25  1  0  0  0  0
 24 26  2  0  0  0  0
 26 27  1  0  0  0  0
 27 21  2  0  0  0  0
  3 28  1  0  0  0  0
  4 29  1  0  0  0  0
  4 30  1  0  0  0  0
  7 31  1  0  0  0  0
  7 32  1  0  0  0  0
  9 33  1  0  0  0  0
  9 34  1  0  0  0  0
 10 35  1  0  0  0  0
 11 36  1  0  0  0  0
 11 37  1  0  0  0  0
 12 38  1  0  0  0  0
 12 39  1  0  0  0  0
 13 40  1  0  0  0  0
 13 41  1  0  0  0  0
 14 42  1  0  0  0  0
 14 43  1  0  0  0  0
 15 44  1  0  0  0  0
 16 45  1  0  0  0  0
 19 46  1  0  0  0  0
 19 47  1  0  0  0  0
 19 48  1  0  0  0  0
 20 49  1  0  0  0  0
 20 50  1  0  0  0  0
 22 51  1  0  0  0  0
 23 52  1  0  0  0  0
 25 53  1  0  0  0  0
 26 54  1  0  0  0  0
 27 55  1  0  0  0  0
M  END
>  <result-rank>
52

>  <similarity>
0.942

>  <query-name>
LIG_A_1101_C[NH+](C)[C@H]([R*])C1CCC1_2

>  <query-smiles>
O=C(N[C@@H]([NH+](C)C)C1CCC1)[C@@H](NC(=O)C)Cc2ccc(O)cc2

>  <source>
REALspace_2019-12

>  <similarity-descriptor>
0.993;1.000;1.000;1.000;0.942;0.691;0.691;0.0;1.000;1.000;1.000;1.000;1.000;1.000;0.071

>  <similarity-descriptor-smiles>
C1CCCCC1;c1ccccc1;O=C;N;C;CO;CO;;C;N;C=O;C;C;O;C1CCCO1

>  <reaction-name>
s_22

>  <reagent1-name>
15426814

>  <reagent1-smiles>
[R1*]NCC12OCC(CO)(C1)CCC2

>  <reagent2-name>
17513450

>  <reagent2-smiles>
[R1*]C(=O)C(NC(=O)C)Cc1ccc(O)cc1

$$$$
s_2230a____12360302____666216
          04022015103D 1   1.00000     0.00000     0
            
 58 59  0  0  0  0            999 V2000
    0.4000    1.0000   -0.0392 O   0  0  0  0  0  0  0  0  0  0  0  0
    1.0000    1.0000    1.0000 C   0  0  0  0  0  0  0  0  0  0  0  0
    0.3150    1.0000    2.1865 N   0  0  0  0  0  0  0  0  0  0  0  0
   -1.1550    1.0000    2.1865 C   0  0  3  0  0  0  0  0  0  0  0  0
   -1.6617    1.7165    3.4275 C   0  0  0  0  0  0  0  0  0  0  0  0
   -1.8617    1.0994    4.4370 O   0  0  0  0  0  0  0  0  0  0  0  0
   -1.9150    3.2148    3.3899 C   0  0  0  0  0  0  0  0  0  0  0  0
   -1.6617   -0.4331    2.1865 C   0  0  0  0  0  0  0  0  0  0  0  0
   -3.1359   -0.4493    1.8155 C   0  0  0  0  0  0  0  0  0  0  0  0
   -3.5267   -0.0924    0.5291 C   0  0  0  0  0  0  0  0  0  0  0  0
   -4.8768   -0.1078    0.1941 C   0  0  0  0  0  0  0  0  0  0  0  0
   -5.8244   -0.4796    1.1419 C   0  0  0  0  0  0  0  0  0  0  0  0
   -5.4224   -0.8347    2.4237 C   0  0  0  0  0  0  0  0  0  0  0  0
   -4.0755   -0.8227    2.7712 C   0  0  0  0  0  0  0  0  0  0  0  0
    2.5200    1.0000    1.0000 C   0  0  0  0  0  0  0  0  0  0  0  0
    3.0099   -0.3858    1.0000 N   0  3  3  0  0  0  0  0  0  0  0  0
    2.5342   -1.1069   -0.1933 C   0  0  0  0  0  0  0  0  0  0  0  0
    3.1139   -2.5126   -0.2598 C   0  0  0  0  0  0  0  0  0  0  0  0
    4.6333   -2.5217   -0.1794 C   0  0  3  0  0  0  0  0  0  0  0  0
    5.1137   -3.9107   -0.1511 N   0  3  0  0  0  0  0  0  0  0  0  0
    6.5816   -3.9200   -0.0734 C   0  0  0  0  0  0  0  0  0  0  0  0
    4.5566   -4.5980    1.0228 C   0  0  0  0  0  0  0  0  0  0  0  0
    5.0241   -1.8154    1.1106 C   0  0  0  0  0  0  0  0  0  0  0  0
    4.4732   -0.3987    1.1629 C   0  0  0  0  0  0  0  0  0  0  0  0
    5.2650   -1.8612   -1.3939 C   0  0  0  0  0  0  0  0  0  0  0  0
    2.6172   -0.8406    1.7993 H   0  0  0  0  0  0  0  0  0  0  0  0
    4.8209   -4.3816   -0.9832 H   0  0  0  0  0  0  0  0  0  0  0  0
    0.8150    1.0000    3.0525 H   0  0  0  0  0  0  0  0  0  0  0  0
   -1.4883    1.4714    1.3700 H   0  0  0  0  0  0  0  0  0  0  0  0
   -1.6984    3.5667    2.4793 H   0  0  0  0  0  0  0  0  0  0  0  0
   -2.8764    3.3956    3.5971 H   0  0  0  0  0  0  0  0  0  0  0  0
   -1.3368    3.6678    4.0685 H   0  0  0  0  0  0  0  0  0  0  0  0
   -1.1442   -0.9696    1.5198 H   0  0  0  0  0  0  0  0  0  0  0  0
   -1.5427   -0.8287    3.0971 H   0  0  0  0  0  0  0  0  0  0  0  0
   -2.8423    0.1734   -0.1498 H   0  0  0  0  0  0  0  0  0  0  0  0
   -5.1660    0.1484   -0.7283 H   0  0  0  0  0  0  0  0  0  0  0  0
   -6.7949   -0.4913    0.9010 H   0  0  0  0  0  0  0  0  0  0  0  0
   -6.1071   -1.1012    3.1020 H   0  0  0  0  0  0  0  0  0  0  0  0
   -3.7871   -1.0784    3.6939 H   0  0  0  0  0  0  0  0  0  0  0  0
    2.8533    1.4714    0.1835 H   0  0  0  0  0  0  0  0  0  0  0  0
    2.8533    1.4714    1.8165 H   0  0  0  0  0  0  0  0  0  0  0  0
    2.8109   -0.6018   -1.0108 H   0  0  0  0  0  0  0  0  0  0  0  0
    1.5365   -1.1675   -0.1607 H   0  0  0  0  0  0  0  0  0  0  0  0
    2.7494   -3.0461    0.5035 H   0  0  0  0  0  0  0  0  0  0  0  0
    2.8361   -2.9334   -1.1233 H   0  0  0  0  0  0  0  0  0  0  0  0
    6.9084   -4.8649   -0.0542 H   0  0  0  0  0  0  0  0  0  0  0  0
    6.9606   -3.4524   -0.8720 H   0  0  0  0  0  0  0  0  0  0  0  0
    6.8744   -3.4490    0.7587 H   0  0  0  0  0  0  0  0  0  0  0  0
    4.8834   -5.5429    1.0420 H   0  0  0  0  0  0  0  0  0  0  0  0
    4.8493   -4.1271    1.8549 H   0  0  0  0  0  0  0  0  0  0  0  0
    3.5580   -4.5917    0.9700 H   0  0  0  0  0  0  0  0  0  0  0  0
    6.0216   -1.7780    1.1706 H   0  0  0  0  0  0  0  0  0  0  0  0
    4.6626   -2.3329    1.8861 H   0  0  0  0  0  0  0  0  0  0  0  0
    4.7060    0.0086    2.0460 H   0  0  0  0  0  0  0  0  0  0  0  0
    4.8873    0.1388    0.4283 H   0  0  0  0  0  0  0  0  0  0  0  0
    4.9628   -0.9096   -1.4508 H   0  0  0  0  0  0  0  0  0  0  0  0
    6.2610   -1.8901   -1.3088 H   0  0  0  0  0  0  0  0  0  0  0  0
    4.9869   -2.3493   -2.2212 H   0  0  0  0  0  0  0  0  0  0  0  0
  1  2  2  0  0  0  0
  2  3  1  0  0  0  0
  3  4  1  0  0  0  0
  4  5  1  0  0  0  0
  5  6  2  0  0  0  0
  5  7  1  0  0  0  0
  4  8  1  0  0  0  0
  8  9  1  0  0  0  0
  9 10  1  0  0  0  0
 10 11  2  0  0  0  0
 11 12  1  0  0  0  0
 12 13  2  0  0  0  0
 13 14  1  0  0  0  0
 14  9  2  0  0  0  0
  2 15  1  0  0  0  0
 15 16  1  0  0  0  0
 16 17  1  0  0  0  0
 17 18  1  0  0  0  0
 18 19  1  0  0  0  0
 19 20  1  0  0  0  0
 20 21  1  0  0  0  0
 20 22  1  0  0  0  0
 19 23  1  0  0  0  0
 23 24  1  0  0  0  0
 24 16  1  0  0  0  0
 19 25  1  0  0  0  0
 16 26  1  0  0  0  0
 20 27  1  0  0  0  0
  3 28  1  0  0  0  0
  4 29  1  0  0  0  0
  7 30  1  0  0  0  0
  7 31  1  0  0  0  0
  7 32  1  0  0  0  0
  8 33  1  0  0  0  0
  8 34  1  0  0  0  0
 10 35  1  0  0  0  0
 11 36  1  0  0  0  0
 12 37  1  0  0  0  0
 13 38  1  0  0  0  0
 14 39  1  0  0  0  0
 15 40  1  0  0  0  0
 15 41  1  0  0  0  0
 17 42  1  0  0  0  0
 17 43  1  0  0  0  0
 18 44  1  0  0  0  0
 18 45  1  0  0  0  0
 21 46  1  0  0  0  0
 21 47  1  0  0  0  0
 21 48  1  0  0  0  0
 22 49  1  0  0  0  0
 22 50  1  0  0  0  0
 22 51  1  0  0  0  0
 23 52  1  0  0  0  0
 23 53  1  0  0  0  0
 24 54  1  0  0  0  0
 24 55  1  0  0  0  0
 25 56  1  0  0  0  0
 25 57  1  0  0  0  0
 25 58  1  0  0  0  0
M  CHG  2  16   1  20   1
M  END
>  <result-rank>
53

>  <similarity>
0.942

>  <query-name>
LIG_A_1101_C[NH+](C)[C@H]([R*])C1CCC1_2

>  <query-smiles>
O=C(N[C@@H]([NH+](C)C)C1CCC1)[C@@H](NC(=O)C)Cc2ccc(O)cc2

>  <source>
REALspace_2019-12

>  <similarity-descriptor>
0.951;0.960;0.857;0.951;0.951;1.000;1.000;1.000;1.000;1.000;0.907;1.000;1.000;0.0;0.077

>  <similarity-descriptor-smiles>
[NH+]1CCCCC1;c1ccccc1;O=CC;[NH+]1CCCCC1;[NH+]1CCCCC1;[NH+];C;C;NC;NC;C=O;C;C;;C

>  <reaction-name>
s_2230a

>  <reagent1-name>
12360302

>  <reagent1-smiles>
[R1*]N1CCC(N(C)C)(CC1)C

>  <reagent2-name>
666216

>  <reagent2-smiles>
[R1*]CC(=O)NC(C(=O)C)Cc1ccccc1

$$$$
s_527a____10809004____217437
          04022015103D 1   1.00000     0.00000     0
            
 56 58  0  0  0  0            999 V2000
    2.2240    0.5109   -0.9588 O   0  0  0  0  0  0  0  0  0  0  0  0
    1.8776    0.1224    0.1224 C   0  0  0  0  0  0  0  0  0  0  0  0
    2.2731   -1.1120    0.5659 N   0  0  0  0  0  0  0  0  0  0  0  0
    3.1212   -1.9602   -0.2823 C   0  0  3  0  0  0  0  0  0  0  0  0
    4.6095   -1.7409   -0.0630 C   0  0  0  0  0  0  0  0  0  0  0  0
    5.3509   -2.6542   -1.0253 C   0  0  3  0  0  0  0  0  0  0  0  0
    5.0938   -4.0693   -0.7593 N   0  3  3  0  0  0  0  0  0  0  0  0
    3.6921   -4.1537   -1.1671 C   0  0  3  0  0  0  0  0  0  0  0  0
    2.7648   -3.4360   -0.1965 C   0  0  0  0  0  0  0  0  0  0  0  0
    3.7496   -3.5420   -2.5529 C   0  0  0  0  0  0  0  0  0  0  0  0
    4.8037   -2.4554   -2.4284 C   0  0  0  0  0  0  0  0  0  0  0  0
    5.9716   -4.9605   -1.5315 C   0  0  0  0  0  0  0  0  0  0  0  0
    1.0000    1.0000    1.0000 C   0  0  0  0  0  0  0  0  0  0  0  0
    1.8776    1.8776    1.8776 C   0  0  3  0  0  0  0  0  0  0  0  0
    2.7263    1.0289    2.7263 N   0  0  0  0  0  0  0  0  0  0  0  0
    3.9607    0.6334    2.2828 C   0  0  0  0  0  0  0  0  0  0  0  0
    4.3491    0.9798    1.2016 O   0  0  0  0  0  0  0  0  0  0  0  0
    4.8383   -0.2442    3.1604 C   0  0  0  0  0  0  0  0  0  0  0  0
    1.0000    2.7552    2.7552 C   0  0  0  0  0  0  0  0  0  0  0  0
    0.6049    2.2940    4.0066 C   0  0  0  0  0  0  0  0  0  0  0  0
   -0.1975    3.0939    4.8134 C   0  0  0  0  0  0  0  0  0  0  0  0
   -0.5947    4.3470    4.3576 C   0  0  0  0  0  0  0  0  0  0  0  0
   -1.4142    5.1669    5.1777 O   0  0  0  0  0  0  0  0  0  0  0  0
   -1.8231    6.4469    4.7187 C   0  0  0  0  0  0  0  0  0  0  0  0
   -0.2026    4.8128    3.1068 C   0  0  0  0  0  0  0  0  0  0  0  0
    0.6001    4.0090    2.3044 C   0  0  0  0  0  0  0  0  0  0  0  0
    5.1818   -4.2592    0.2185 H   0  0  0  0  0  0  0  0  0  0  0  0
    1.9844   -1.4357    1.4669 H   0  0  0  0  0  0  0  0  0  0  0  0
    2.9357   -1.6839   -1.2253 H   0  0  0  0  0  0  0  0  0  0  0  0
    4.8451   -0.7867   -0.2474 H   0  0  0  0  0  0  0  0  0  0  0  0
    4.8530   -1.9681    0.8799 H   0  0  0  0  0  0  0  0  0  0  0  0
    6.3327   -2.4656   -1.0018 H   0  0  0  0  0  0  0  0  0  0  0  0
    3.4225   -5.1141   -1.2375 H   0  0  0  0  0  0  0  0  0  0  0  0
    2.9080   -3.7738    0.7338 H   0  0  0  0  0  0  0  0  0  0  0  0
    1.8105   -3.5780   -0.4595 H   0  0  0  0  0  0  0  0  0  0  0  0
    2.8645   -3.1519   -2.8067 H   0  0  0  0  0  0  0  0  0  0  0  0
    4.0202   -4.2242   -3.2321 H   0  0  0  0  0  0  0  0  0  0  0  0
    5.5228   -2.5744   -3.1131 H   0  0  0  0  0  0  0  0  0  0  0  0
    4.3955   -1.5479   -2.5280 H   0  0  0  0  0  0  0  0  0  0  0  0
    5.7554   -5.9122   -1.3135 H   0  0  0  0  0  0  0  0  0  0  0  0
    5.8308   -4.8022   -2.5088 H   0  0  0  0  0  0  0  0  0  0  0  0
    6.9257   -4.7734   -1.2975 H   0  0  0  0  0  0  0  0  0  0  0  0
    0.4226    0.4226    1.5774 H   0  0  0  0  0  0  0  0  0  0  0  0
    0.4226    1.5774    0.4226 H   0  0  0  0  0  0  0  0  0  0  0  0
    2.4549    2.4549    1.3002 H   0  0  0  0  0  0  0  0  0  0  0  0
    2.4026    0.7402    3.6273 H   0  0  0  0  0  0  0  0  0  0  0  0
    4.3641   -0.4366    4.0195 H   0  0  0  0  0  0  0  0  0  0  0  0
    5.0307   -1.1033    2.6862 H   0  0  0  0  0  0  0  0  0  0  0  0
    5.6974    0.2300    3.3528 H   0  0  0  0  0  0  0  0  0  0  0  0
    0.8963    1.3918    4.3246 H   0  0  0  0  0  0  0  0  0  0  0  0
   -0.4868    2.7706    5.7144 H   0  0  0  0  0  0  0  0  0  0  0  0
   -2.3907    6.8853    5.4157 H   0  0  0  0  0  0  0  0  0  0  0  0
   -1.0166    7.0111    4.5423 H   0  0  0  0  0  0  0  0  0  0  0  0
   -2.3502    6.3457    3.8749 H   0  0  0  0  0  0  0  0  0  0  0  0
   -0.4944    5.7147    2.7884 H   0  0  0  0  0  0  0  0  0  0  0  0
    0.8898    4.3323    1.4035 H   0  0  0  0  0  0  0  0  0  0  0  0
  1  2  2  0  0  0  0
  2  3  1  0  0  0  0
  3  4  1  0  0  0  0
  4  5  1  0  0  0  0
  5  6  1  0  0  0  0
  6  7  1  0  0  0  0
  7  8  1  0  0  0  0
  8  9  1  0  0  0  0
  9  4  1  0  0  0  0
  8 10  1  0  0  0  0
 10 11  1  0  0  0  0
 11  6  1  0  0  0  0
  7 12  1  0  0  0  0
  2 13  1  0  0  0  0
 13 14  1  0  0  0  0
 14 15  1  0  0  0  0
 15 16  1  0  0  0  0
 16 17  2  0  0  0  0
 16 18  1  0  0  0  0
 14 19  1  0  0  0  0
 19 20  1  0  0  0  0
 20 21  2  0  0  0  0
 21 22  1  0  0  0  0
 22 23  1  0  0  0  0
 23 24  1  0  0  0  0
 22 25  2  0  0  0  0
 25 26  1  0  0  0  0
 26 19  2  0  0  0  0
  7 27  1  0  0  0  0
  3 28  1  0  0  0  0
  4 29  1  0  0  0  0
  5 30  1  0  0  0  0
  5 31  1  0  0  0  0
  6 32  1  0  0  0  0
  8 33  1  0  0  0  0
  9 34  1  0  0  0  0
  9 35  1  0  0  0  0
 10 36  1  0  0  0  0
 10 37  1  0  0  0  0
 11 38  1  0  0  0  0
 11 39  1  0  0  0  0
 12 40  1  0  0  0  0
 12 41  1  0  0  0  0
 12 42  1  0  0  0  0
 13 43  1  0  0  0  0
 13 44  1  0  0  0  0
 14 45  1  0  0  0  0
 15 46  1  0  0  0  0
 18 47  1  0  0  0  0
 18 48  1  0  0  0  0
 18 49  1  0  0  0  0
 20 50  1  0  0  0  0
 21 51  1  0  0  0  0
 24 52  1  0  0  0  0
 24 53  1  0  0  0  0
 24 54  1  0  0  0  0
 25 55  1  0  0  0  0
 26 56  1  0  0  0  0
M  CHG  1   7   1
M  END
>  <result-rank>
54

>  <similarity>
0.942

>  <query-name>
LIG_A_1101_C[NH+](C)[C@H]([R*])C1CCC1_2

>  <query-smiles>
O=C(N[C@@H]([NH+](C)C)C1CCC1)[C@@H](NC(=O)C)Cc2ccc(O)cc2

>  <source>
REALspace_2019-12

>  <similarity-descriptor>
0.958;1.000;1.000;1.000;0.958;0.958;0.0;1.000;1.000;1.000;1.000;1.000;1.000;0.704;0.154

>  <similarity-descriptor-smiles>
C1CC[NH+]CC1;c1ccccc1;O=C;N;C1CC[NH+]CC1;C1CC[NH+]CC1;;C;CC;N;C=O;C;CC;O;C1CCC[NH+]1.C

>  <reaction-name>
s_527a

>  <reagent1-name>
10809004

>  <reagent1-smiles>
[R1*]NC1CC2N(C(C1)CC2)C

>  <reagent2-name>
217437

>  <reagent2-smiles>
[R1*]C(=O)CC(NC(=O)C)c1ccc(OC)cc1

$$$$
s_11a____13221506____16717356
          04022015103D 1   1.00000     0.00000     0
            
 66 68  0  0  0  0            999 V2000
    3.9272   -0.8352    0.7118 O   0  0  0  0  0  0  0  0  0  0  0  0
    2.9767   -0.2411    0.2835 C   0  0  0  0  0  0  0  0  0  0  0  0
    2.3481   -0.6814   -0.8514 N   0  0  0  0  0  0  0  0  0  0  0  0
    2.8380   -1.8814   -1.5442 C   0  0  3  0  0  0  0  0  0  0  0  0
    3.2409   -1.5135   -2.9644 C   0  0  0  0  0  0  0  0  0  0  0  0
    3.6571   -2.7545   -3.7435 C   0  0  0  0  0  0  0  0  0  0  0  0
    2.5703   -3.8182   -3.7542 C   0  0  3  0  0  0  0  0  0  0  0  0
    3.0664   -5.0102   -4.4568 N   0  3  0  0  0  0  0  0  0  0  0  0
    4.2478   -5.5609   -3.8064 C   0  0  0  0  0  0  0  0  0  0  0  0
    4.7710   -5.8470   -5.1981 C   0  0  0  0  0  0  0  0  0  0  0  0
    3.9464   -4.6381   -5.5609 C   0  0  0  0  0  0  0  0  0  0  0  0
    2.2459   -4.1810   -2.3111 C   0  0  0  0  0  0  0  0  0  0  0  0
    1.7944   -2.9848   -1.4891 C   0  0  0  0  0  0  0  0  0  0  0  0
    1.3341   -3.3473   -4.5055 C   0  0  0  0  0  0  0  0  0  0  0  0
    2.4700    1.0000    1.0000 C   0  0  3  0  0  0  0  0  0  0  0  0
    1.0000    1.0000    1.0000 N   0  0  0  0  0  0  0  0  0  0  0  0
    0.3150    1.0000    2.1865 C   0  0  0  0  0  0  0  0  0  0  0  0
    0.9150    1.0000    3.2257 O   0  0  0  0  0  0  0  0  0  0  0  0
   -1.2050    1.0000    2.1865 C   0  0  0  0  0  0  0  0  0  0  0  0
   -1.6950    1.0000    3.5724 N   0  0  0  0  0  0  0  0  0  0  0  0
   -3.0419    1.0000    3.8227 C   0  0  0  0  0  0  0  0  0  0  0  0
   -3.8217    1.0000    2.9106 O   0  0  0  0  0  0  0  0  0  0  0  0
   -3.5486    1.0000    5.2558 C   0  0  0  0  0  0  0  0  0  0  0  0
    2.9767    2.2411    0.2835 C   0  0  0  0  0  0  0  0  0  0  0  0
    4.4967    2.2411    0.2835 C   0  0  0  0  0  0  0  0  0  0  0  0
    5.1811    1.6356   -0.7653 C   0  0  0  0  0  0  0  0  0  0  0  0
    6.5719    1.6338   -0.7699 C   0  0  0  0  0  0  0  0  0  0  0  0
    7.2616    2.2391    0.2759 C   0  0  0  0  0  0  0  0  0  0  0  0
    8.6114    2.2393    0.2756 O   0  0  0  0  0  0  0  0  0  0  0  0
    6.5820    2.8457    1.3273 C   0  0  0  0  0  0  0  0  0  0  0  0
    5.1912    2.8449    1.3266 C   0  0  0  0  0  0  0  0  0  0  0  0
    2.3638   -5.6828   -4.6890 H   0  0  0  0  0  0  0  0  0  0  0  0
    1.5560   -0.1864   -1.2083 H   0  0  0  0  0  0  0  0  0  0  0  0
    3.6543   -2.2037   -1.0649 H   0  0  0  0  0  0  0  0  0  0  0  0
    4.0081   -0.8730   -2.9327 H   0  0  0  0  0  0  0  0  0  0  0  0
    2.4650   -1.0818   -3.4245 H   0  0  0  0  0  0  0  0  0  0  0  0
    3.8581   -2.4901   -4.6867 H   0  0  0  0  0  0  0  0  0  0  0  0
    4.4790   -3.1383   -3.3225 H   0  0  0  0  0  0  0  0  0  0  0  0
    4.0792   -6.3718   -3.2460 H   0  0  0  0  0  0  0  0  0  0  0  0
    4.7857   -4.9000   -3.2830 H   0  0  0  0  0  0  0  0  0  0  0  0
    4.4719   -6.7112   -5.6028 H   0  0  0  0  0  0  0  0  0  0  0  0
    5.7589   -5.7475   -5.3170 H   0  0  0  0  0  0  0  0  0  0  0  0
    4.4142   -3.7616   -5.4475 H   0  0  0  0  0  0  0  0  0  0  0  0
    3.5228   -4.6752   -6.4659 H   0  0  0  0  0  0  0  0  0  0  0  0
    3.0645   -4.5689   -1.8876 H   0  0  0  0  0  0  0  0  0  0  0  0
    1.5149   -4.8634   -2.3101 H   0  0  0  0  0  0  0  0  0  0  0  0
    0.9303   -2.6400   -1.8559 H   0  0  0  0  0  0  0  0  0  0  0  0
    1.6638   -3.2680   -0.5390 H   0  0  0  0  0  0  0  0  0  0  0  0
    0.9624   -2.5336   -4.0586 H   0  0  0  0  0  0  0  0  0  0  0  0
    1.5815   -3.1259   -5.4488 H   0  0  0  0  0  0  0  0  0  0  0  0
    0.6459   -4.0728   -4.5028 H   0  0  0  0  0  0  0  0  0  0  0  0
    2.8033    1.0000    1.9428 H   0  0  0  0  0  0  0  0  0  0  0  0
    0.5000    1.0000    0.1340 H   0  0  0  0  0  0  0  0  0  0  0  0
   -1.5383    1.8165    1.7151 H   0  0  0  0  0  0  0  0  0  0  0  0
   -1.5383    0.1835    1.7151 H   0  0  0  0  0  0  0  0  0  0  0  0
   -1.0452    1.0000    4.3325 H   0  0  0  0  0  0  0  0  0  0  0  0
   -2.7708    1.0000    5.8843 H   0  0  0  0  0  0  0  0  0  0  0  0
   -4.1042    1.8165    5.4129 H   0  0  0  0  0  0  0  0  0  0  0  0
   -4.1042    0.1835    5.4129 H   0  0  0  0  0  0  0  0  0  0  0  0
    2.6433    2.2411   -0.6593 H   0  0  0  0  0  0  0  0  0  0  0  0
    2.6433    3.0576    0.7549 H   0  0  0  0  0  0  0  0  0  0  0  0
    4.6756    1.2037   -1.5122 H   0  0  0  0  0  0  0  0  0  0  0  0
    7.0726    1.2007   -1.5194 H   0  0  0  0  0  0  0  0  0  0  0  0
    9.1115    2.6731    1.0251 H   0  0  0  0  0  0  0  0  0  0  0  0
    7.0874    3.2771    2.0746 H   0  0  0  0  0  0  0  0  0  0  0  0
    4.6905    3.2783    2.0759 H   0  0  0  0  0  0  0  0  0  0  0  0
  1  2  2  0  0  0  0
  2  3  1  0  0  0  0
  3  4  1  0  0  0  0
  4  5  1  0  0  0  0
  5  6  1  0  0  0  0
  6  7  1  0  0  0  0
  7  8  1  0  0  0  0
  8  9  1  0  0  0  0
  9 10  1  0  0  0  0
 10 11  1  0  0  0  0
 11  8  1  0  0  0  0
  7 12  1  0  0  0  0
 12 13  1  0  0  0  0
 13  4  1  0  0  0  0
  7 14  1  0  0  0  0
  2 15  1  0  0  0  0
 15 16  1  0  0  0  0
 16 17  1  0  0  0  0
 17 18  2  0  0  0  0
 17 19  1  0  0  0  0
 19 20  1  0  0  0  0
 20 21  1  0  0  0  0
 21 22  2  0  0  0  0
 21 23  1  0  0  0  0
 15 24  1  0  0  0  0
 24 25  1  0  0  0  0
 25 26  1  0  0  0  0
 26 27  2  0  0  0  0
 27 28  1  0  0  0  0
 28 29  1  0  0  0  0
 28 30  2  0  0  0  0
 30 31  1  0  0  0  0
 31 25  2  0  0  0  0
  8 32  1  0  0  0  0
  3 33  1  0  0  0  0
  4 34  1  0  0  0  0
  5 35  1  0  0  0  0
  5 36  1  0  0  0  0
  6 37  1  0  0  0  0
  6 38  1  0  0  0  0
  9 39  1  0  0  0  0
  9 40  1  0  0  0  0
 10 41  1  0  0  0  0
 10 42  1  0  0  0  0
 11 43  1  0  0  0  0
 11 44  1  0  0  0  0
 12 45  1  0  0  0  0
 12 46  1  0  0  0  0
 13 47  1  0  0  0  0
 13 48  1  0  0  0  0
 14 49  1  0  0  0  0
 14 50  1  0  0  0  0
 14 51  1  0  0  0  0
 15 52  1  0  0  0  0
 16 53  1  0  0  0  0
 19 54  1  0  0  0  0
 19 55  1  0  0  0  0
 20 56  1  0  0  0  0
 23 57  1  0  0  0  0
 23 58  1  0  0  0  0
 23 59  1  0  0  0  0
 24 60  1  0  0  0  0
 24 61  1  0  0  0  0
 26 62  1  0  0  0  0
 27 63  1  0  0  0  0
 29 64  1  0  0  0  0
 30 65  1  0  0  0  0
 31 66  1  0  0  0  0
M  CHG  1   8   1
M  END
>  <result-rank>
55

>  <similarity>
0.942

>  <query-name>
LIG_A_1101_C[NH+](C)[C@H]([R*])C1CCC1_2

>  <query-smiles>
O=C(N[C@@H]([NH+](C)C)C1CCC1)[C@@H](NC(=O)C)Cc2ccc(O)cc2

>  <source>
REALspace_2019-12

>  <similarity-descriptor>
0.979;1.000;1.000;1.000;0.979;0.831;0.831;0.831;1.000;1.000;1.000;0.955;1.000;1.000;0.267

>  <similarity-descriptor-smiles>
C1CCCCC1;c1ccccc1;O=C;N;C1CCCCC1;[NH+]1CCC1;[NH+]1CCC1;[NH+]1CCC1;C;N;C=O;C;C;O;C.N.C=O.C

>  <reaction-name>
s_11a

>  <reagent1-name>
13221506

>  <reagent1-smiles>
[R1*]NC1CCC(N2CCC2)(CC1)C

>  <reagent2-name>
16717356

>  <reagent2-smiles>
[R1*]C(=O)C(NC(=O)CNC(=O)C)Cc1ccc(O)cc1

$$$$
s_22____4351286____17064022
          04022015103D 1   1.00000     0.00000     0
            
 67 68  0  0  0  0            999 V2000
    0.5242    2.9067   -0.3086 O   0  0  0  0  0  0  0  0  0  0  0  0
    0.7075    1.7208   -0.3059 C   0  0  0  0  0  0  0  0  0  0  0  0
    0.6519    1.0018   -1.5044 N   0  0  0  0  0  0  0  0  0  0  0  0
    0.1501    1.6814   -2.7108 C   0  0  0  0  0  0  0  0  0  0  0  0
    0.8301    1.1883   -3.9813 C   0  0  0  0  0  0  0  0  0  0  0  0
    0.9703   -0.3270   -4.0319 C   0  0  3  0  0  0  0  0  0  0  0  0
    1.7416   -0.6701   -5.2363 N   0  3  3  0  0  0  0  0  0  0  0  0
    1.8022   -2.1318   -5.3796 C   0  0  0  0  0  0  0  0  0  0  0  0
    0.3929   -2.6874   -5.5052 C   0  0  0  0  0  0  0  0  0  0  0  0
    2.5993   -2.4863   -6.6243 C   0  0  0  0  0  0  0  0  0  0  0  0
    1.0891   -0.0885   -6.4182 C   0  0  0  0  0  0  0  0  0  0  0  0
    1.7637   -0.7902   -2.8176 C   0  0  0  0  0  0  0  0  0  0  0  0
    1.1081   -0.3982   -1.5000 C   0  0  0  0  0  0  0  0  0  0  0  0
    1.0000    1.0000    1.0000 C   0  0  3  0  0  0  0  0  0  0  0  0
    1.8487    1.8487    1.8487 N   0  0  0  0  0  0  0  0  0  0  0  0
    3.0831    1.4052    2.2442 C   0  0  0  0  0  0  0  0  0  0  0  0
    3.4716    0.3240    1.8978 O   0  0  0  0  0  0  0  0  0  0  0  0
    3.9607    2.2828    3.1218 C   0  0  3  0  0  0  0  0  0  0  0  0
    5.2666    1.5620    3.4143 C   0  0  0  0  0  0  0  0  0  0  0  0
    6.1441    2.4396    4.2919 C   0  0  0  0  0  0  0  0  0  0  0  0
    4.2532    3.5887    2.4010 C   0  0  0  0  0  0  0  0  0  0  0  0
   -0.3059    0.7075    1.7208 C   0  0  0  0  0  0  0  0  0  0  0  0
   -0.1034   -0.4483    2.6871 C   0  0  0  0  0  0  0  0  0  0  0  0
   -0.3182   -1.7513    2.2501 C   0  0  0  0  0  0  0  0  0  0  0  0
   -0.1334   -2.8121    3.1305 C   0  0  0  0  0  0  0  0  0  0  0  0
    0.2650   -2.5557    4.4386 C   0  0  0  0  0  0  0  0  0  0  0  0
    0.4451   -3.5822    5.2965 O   0  0  0  0  0  0  0  0  0  0  0  0
    0.4809   -1.2545    4.8808 C   0  0  0  0  0  0  0  0  0  0  0  0
    0.2950   -0.1975    3.9961 C   0  0  0  0  0  0  0  0  0  0  0  0
    2.6688   -0.3045   -5.1538 H   0  0  0  0  0  0  0  0  0  0  0  0
    0.3158    2.6633   -2.6184 H   0  0  0  0  0  0  0  0  0  0  0  0
   -0.8330    1.5150   -2.7875 H   0  0  0  0  0  0  0  0  0  0  0  0
    0.2886    1.4846   -4.7681 H   0  0  0  0  0  0  0  0  0  0  0  0
    1.7425    1.5945   -4.0326 H   0  0  0  0  0  0  0  0  0  0  0  0
    0.0709   -0.7638   -4.0530 H   0  0  0  0  0  0  0  0  0  0  0  0
    2.2461   -2.5275   -4.5756 H   0  0  0  0  0  0  0  0  0  0  0  0
    0.4341   -3.6818   -5.6027 H   0  0  0  0  0  0  0  0  0  0  0  0
   -0.1315   -2.4542   -4.6863 H   0  0  0  0  0  0  0  0  0  0  0  0
   -0.0509   -2.2918   -6.3092 H   0  0  0  0  0  0  0  0  0  0  0  0
    2.6405   -3.4807   -6.7218 H   0  0  0  0  0  0  0  0  0  0  0  0
    2.1554   -2.0907   -7.4284 H   0  0  0  0  0  0  0  0  0  0  0  0
    3.5264   -2.1208   -6.5418 H   0  0  0  0  0  0  0  0  0  0  0  0
    1.6135   -0.3217   -7.2371 H   0  0  0  0  0  0  0  0  0  0  0  0
    0.1620   -0.4540   -6.5008 H   0  0  0  0  0  0  0  0  0  0  0  0
    1.0479    0.9059   -6.3208 H   0  0  0  0  0  0  0  0  0  0  0  0
    2.6748   -0.3798   -2.8556 H   0  0  0  0  0  0  0  0  0  0  0  0
    1.8451   -1.7863   -2.8500 H   0  0  0  0  0  0  0  0  0  0  0  0
    0.3204   -0.9937   -1.3418 H   0  0  0  0  0  0  0  0  0  0  0  0
    1.7711   -0.5191   -0.7612 H   0  0  0  0  0  0  0  0  0  0  0  0
    1.4742    0.1409    0.8075 H   0  0  0  0  0  0  0  0  0  0  0  0
    1.5250    2.7498    2.1374 H   0  0  0  0  0  0  0  0  0  0  0  0
    3.4865    2.4753    3.9809 H   0  0  0  0  0  0  0  0  0  0  0  0
    5.7408    1.3696    2.5552 H   0  0  0  0  0  0  0  0  0  0  0  0
    5.0741    0.7029    3.8885 H   0  0  0  0  0  0  0  0  0  0  0  0
    7.0033    1.9654    4.4843 H   0  0  0  0  0  0  0  0  0  0  0  0
    6.3366    3.2987    3.8176 H   0  0  0  0  0  0  0  0  0  0  0  0
    5.6699    2.6320    5.1510 H   0  0  0  0  0  0  0  0  0  0  0  0
    4.8306    4.1660    2.9783 H   0  0  0  0  0  0  0  0  0  0  0  0
    4.7275    3.3962    1.5418 H   0  0  0  0  0  0  0  0  0  0  0  0
    3.3941    4.0629    2.2085 H   0  0  0  0  0  0  0  0  0  0  0  0
   -0.5957    1.5191    2.2280 H   0  0  0  0  0  0  0  0  0  0  0  0
   -1.0084    0.4638    1.0521 H   0  0  0  0  0  0  0  0  0  0  0  0
   -0.6041   -1.9245    1.3076 H   0  0  0  0  0  0  0  0  0  0  0  0
   -0.2858   -3.7522    2.8255 H   0  0  0  0  0  0  0  0  0  0  0  0
    0.7315   -3.4029    6.2377 H   0  0  0  0  0  0  0  0  0  0  0  0
    0.7663   -1.0811    5.8234 H   0  0  0  0  0  0  0  0  0  0  0  0
    0.4478    0.7425    4.3009 H   0  0  0  0  0  0  0  0  0  0  0  0
  1  2  2  0  0  0  0
  2  3  1  0  0  0  0
  3  4  1  0  0  0  0
  4  5  1  0  0  0  0
  5  6  1  0  0  0  0
  6  7  1  0  0  0  0
  7  8  1  0  0  0  0
  8  9  1  0  0  0  0
  8 10  1  0  0  0  0
  7 11  1  0  0  0  0
  6 12  1  0  0  0  0
 12 13  1  0  0  0  0
 13  3  1  0  0  0  0
  2 14  1  0  0  0  0
 14 15  1  0  0  0  0
 15 16  1  0  0  0  0
 16 17  2  0  0  0  0
 16 18  1  0  0  0  0
 18 19  1  0  0  0  0
 19 20  1  0  0  0  0
 18 21  1  0  0  0  0
 14 22  1  0  0  0  0
 22 23  1  0  0  0  0
 23 24  1  0  0  0  0
 24 25  2  0  0  0  0
 25 26  1  0  0  0  0
 26 27  1  0  0  0  0
 26 28  2  0  0  0  0
 28 29  1  0  0  0  0
 29 23  2  0  0  0  0
  7 30  1  0  0  0  0
  4 31  1  0  0  0  0
  4 32  1  0  0  0  0
  5 33  1  0  0  0  0
  5 34  1  0  0  0  0
  6 35  1  0  0  0  0
  8 36  1  0  0  0  0
  9 37  1  0  0  0  0
  9 38  1  0  0  0  0
  9 39  1  0  0  0  0
 10 40  1  0  0  0  0
 10 41  1  0  0  0  0
 10 42  1  0  0  0  0
 11 43  1  0  0  0  0
 11 44  1  0  0  0  0
 11 45  1  0  0  0  0
 12 46  1  0  0  0  0
 12 47  1  0  0  0  0
 13 48  1  0  0  0  0
 13 49  1  0  0  0  0
 14 50  1  0  0  0  0
 15 51  1  0  0  0  0
 18 52  1  0  0  0  0
 19 53  1  0  0  0  0
 19 54  1  0  0  0  0
 20 55  1  0  0  0  0
 20 56  1  0  0  0  0
 20 57  1  0  0  0  0
 21 58  1  0  0  0  0
 21 59  1  0  0  0  0
 21 60  1  0  0  0  0
 22 61  1  0  0  0  0
 22 62  1  0  0  0  0
 24 63  1  0  0  0  0
 25 64  1  0  0  0  0
 27 65  1  0  0  0  0
 28 66  1  0  0  0  0
 29 67  1  0  0  0  0
M  CHG  1   7   1
M  END
>  <result-rank>
56

>  <similarity>
0.942

>  <query-name>
LIG_A_1101_C[NH+](C)[C@H]([R*])C1CCC1_2

>  <query-smiles>
O=C(N[C@@H]([NH+](C)C)C1CCC1)[C@@H](NC(=O)C)Cc2ccc(O)cc2

>  <source>
REALspace_2019-12

>  <similarity-descriptor>
0.980;1.000;0.852;0.852;0.980;1.000;0.888;1.000;1.000;1.000;0.890;1.000;1.000;1.000;0.235

>  <similarity-descriptor-smiles>
N1CCCCC1;c1ccccc1;O=C;O=C;N1CCCCC1;[NH+];C;C;C;N;C(=O)C;C;C;O;C.C.C.C

>  <reaction-name>
s_22

>  <reagent1-name>
4351286

>  <reagent1-smiles>
[R1*]N1CCC(N(C(C)C)C)CC1

>  <reagent2-name>
17064022

>  <reagent2-smiles>
[R1*]C(=O)C(NC(=O)C(CC)C)Cc1ccc(O)cc1

$$$$
s_22____2164516____17513450
          04022015103D 1   1.00000     0.00000     0
            
 53 54  0  0  0  0            999 V2000
    4.8765    5.1047    2.0166 O   0  0  0  0  0  0  0  0  0  0  0  0
    3.8026    4.6094    1.8128 C   0  0  0  0  0  0  0  0  0  0  0  0
    3.4087    3.5093    2.5281 N   0  0  0  0  0  0  0  0  0  0  0  0
    4.3233    2.9558    3.5406 C   0  0  0  0  0  0  0  0  0  0  0  0
    4.1958    1.4438    3.6644 C   0  0  3  0  0  0  0  0  0  0  0  0
    4.9583    1.0024    4.9030 C   0  0  0  0  0  0  0  0  0  0  0  0
    4.8530   -0.4565    5.0492 N   0  0  0  0  0  0  0  0  0  0  0  0
    5.7853   -1.2726    4.4645 C   0  0  0  0  0  0  0  0  0  0  0  0
    6.6878   -0.7965    3.8332 O   0  0  0  0  0  0  0  0  0  0  0  0
    5.6764   -2.7812    4.6157 C   0  0  0  0  0  0  0  0  0  0  0  0
    2.7443    0.9913    3.7385 C   0  0  0  0  0  0  0  0  0  0  0  0
    2.0724    1.4186    2.4401 C   0  0  0  0  0  0  0  0  0  0  0  0
    2.0852    2.9288    2.2459 C   0  0  0  0  0  0  0  0  0  0  0  0
    2.8794    5.2025    0.7610 C   0  0  3  0  0  0  0  0  0  0  0  0
    3.6827    5.8233   -0.3021 N   0  0  0  0  0  0  0  0  0  0  0  0
    4.0696    5.0839   -1.3887 C   0  0  0  0  0  0  0  0  0  0  0  0
    3.7527    3.9295   -1.4725 O   0  0  0  0  0  0  0  0  0  0  0  0
    4.9002    5.7257   -2.4880 C   0  0  0  0  0  0  0  0  0  0  0  0
    1.9894    6.2542    1.4031 C   0  0  0  0  0  0  0  0  0  0  0  0
    1.0661    6.8474    0.3513 C   0  0  0  0  0  0  0  0  0  0  0  0
   -0.1762    6.2644    0.1240 C   0  0  0  0  0  0  0  0  0  0  0  0
   -1.0246    6.8042   -0.8369 C   0  0  0  0  0  0  0  0  0  0  0  0
   -0.6191    7.9222   -1.5590 C   0  0  0  0  0  0  0  0  0  0  0  0
   -1.4819    8.4765   -2.5412 O   0  0  0  0  0  0  0  0  0  0  0  0
    0.6224    8.5088   -1.3358 C   0  0  0  0  0  0  0  0  0  0  0  0
    1.4666    7.9652   -0.3735 C   0  0  0  0  0  0  0  0  0  0  0  0
    4.1128    3.3705    4.4259 H   0  0  0  0  0  0  0  0  0  0  0  0
    5.2632    3.1798    3.2827 H   0  0  0  0  0  0  0  0  0  0  0  0
    4.6198    1.0223    2.8629 H   0  0  0  0  0  0  0  0  0  0  0  0
    5.9203    1.2596    4.8115 H   0  0  0  0  0  0  0  0  0  0  0  0
    4.5696    1.4471    5.7099 H   0  0  0  0  0  0  0  0  0  0  0  0
    4.1008   -0.8533    5.5753 H   0  0  0  0  0  0  0  0  0  0  0  0
    4.8726   -3.0037    5.1675 H   0  0  0  0  0  0  0  0  0  0  0  0
    5.5873   -3.2011    3.7125 H   0  0  0  0  0  0  0  0  0  0  0  0
    6.4975   -3.1311    5.0665 H   0  0  0  0  0  0  0  0  0  0  0  0
    2.2900    1.4234    4.5176 H   0  0  0  0  0  0  0  0  0  0  0  0
    2.6999   -0.0029    3.8361 H   0  0  0  0  0  0  0  0  0  0  0  0
    2.5545    0.9928    1.6745 H   0  0  0  0  0  0  0  0  0  0  0  0
    1.1230    1.1049    2.4521 H   0  0  0  0  0  0  0  0  0  0  0  0
    1.8372    3.1348    1.2993 H   0  0  0  0  0  0  0  0  0  0  0  0
    1.4141    3.3395    2.8632 H   0  0  0  0  0  0  0  0  0  0  0  0
    2.3111    4.4786    0.3698 H   0  0  0  0  0  0  0  0  0  0  0  0
    3.9468    6.7852   -0.2323 H   0  0  0  0  0  0  0  0  0  0  0  0
    5.0724    6.6839   -2.2593 H   0  0  0  0  0  0  0  0  0  0  0  0
    5.7711    5.2417   -2.5735 H   0  0  0  0  0  0  0  0  0  0  0  0
    4.4036    5.6739   -3.3544 H   0  0  0  0  0  0  0  0  0  0  0  0
    1.4429    5.8319    2.1263 H   0  0  0  0  0  0  0  0  0  0  0  0
    2.5577    6.9781    1.7943 H   0  0  0  0  0  0  0  0  0  0  0  0
   -0.4579    5.4612    0.6489 H   0  0  0  0  0  0  0  0  0  0  0  0
   -1.9195    6.3918   -1.0075 H   0  0  0  0  0  0  0  0  0  0  0  0
   -1.1948    9.2800   -3.0628 H   0  0  0  0  0  0  0  0  0  0  0  0
    0.9045    9.3117   -1.8610 H   0  0  0  0  0  0  0  0  0  0  0  0
    2.3613    8.3778   -0.2025 H   0  0  0  0  0  0  0  0  0  0  0  0
  1  2  2  0  0  0  0
  2  3  1  0  0  0  0
  3  4  1  0  0  0  0
  4  5  1  0  0  0  0
  5  6  1  0  0  0  0
  6  7  1  0  0  0  0
  7  8  1  0  0  0  0
  8  9  2  0  0  0  0
  8 10  1  0  0  0  0
  5 11  1  0  0  0  0
 11 12  1  0  0  0  0
 12 13  1  0  0  0  0
 13  3  1  0  0  0  0
  2 14  1  0  0  0  0
 14 15  1  0  0  0  0
 15 16  1  0  0  0  0
 16 17  2  0  0  0  0
 16 18  1  0  0  0  0
 14 19  1  0  0  0  0
 19 20  1  0  0  0  0
 20 21  1  0  0  0  0
 21 22  2  0  0  0  0
 22 23  1  0  0  0  0
 23 24  1  0  0  0  0
 23 25  2  0  0  0  0
 25 26  1  0  0  0  0
 26 20  2  0  0  0  0
  4 27  1  0  0  0  0
  4 28  1  0  0  0  0
  5 29  1  0  0  0  0
  6 30  1  0  0  0  0
  6 31  1  0  0  0  0
  7 32  1  0  0  0  0
 10 33  1  0  0  0  0
 10 34  1  0  0  0  0
 10 35  1  0  0  0  0
 11 36  1  0  0  0  0
 11 37  1  0  0  0  0
 12 38  1  0  0  0  0
 12 39  1  0  0  0  0
 13 40  1  0  0  0  0
 13 41  1  0  0  0  0
 14 42  1  0  0  0  0
 15 43  1  0  0  0  0
 18 44  1  0  0  0  0
 18 45  1  0  0  0  0
 18 46  1  0  0  0  0
 19 47  1  0  0  0  0
 19 48  1  0  0  0  0
 21 49  1  0  0  0  0
 22 50  1  0  0  0  0
 24 51  1  0  0  0  0
 25 52  1  0  0  0  0
 26 53  1  0  0  0  0
M  END
>  <result-rank>
57

>  <similarity>
0.942

>  <query-name>
LIG_A_1101_C[NH+](C)[C@H]([R*])C1CCC1_2

>  <query-smiles>
O=C(N[C@@H]([NH+](C)C)C1CCC1)[C@@H](NC(=O)C)Cc2ccc(O)cc2

>  <source>
REALspace_2019-12

>  <similarity-descriptor>
0.981;1.000;0.852;0.852;0.981;0.809;0.809;0.809;1.000;1.000;1.000;1.000;1.000;1.000;0.154

>  <similarity-descriptor-smiles>
N1CCCCC1;c1ccccc1;O=C;O=C;N1CCCCC1;CN;CN;CN;C;N;C=O;C;C;O;C=O.C

>  <reaction-name>
s_22

>  <reagent1-name>
2164516

>  <reagent1-smiles>
[R1*]N1CC(CNC(=O)C)CCC1

>  <reagent2-name>
17513450

>  <reagent2-smiles>
[R1*]C(=O)C(NC(=O)C)Cc1ccc(O)cc1

$$$$
s_527a____4969738____217438
          04022015103D 1   1.00000     0.00000     0
            
 55 57  0  0  0  0            999 V2000
   -2.7942    6.5503    0.7877 Cl  0  0  0  0  0  0  0  0  0  0  0  0
   -1.7679    5.1320    0.4668 C   0  0  0  0  0  0  0  0  0  0  0  0
   -2.2011    3.8654    0.8430 C   0  0  0  0  0  0  0  0  0  0  0  0
   -1.4017    2.7542    0.5947 C   0  0  0  0  0  0  0  0  0  0  0  0
   -0.1722    2.9289   -0.0315 C   0  0  0  0  0  0  0  0  0  0  0  0
    0.2615    4.1952   -0.4077 C   0  0  0  0  0  0  0  0  0  0  0  0
   -0.5380    5.3067   -0.1593 C   0  0  0  0  0  0  0  0  0  0  0  0
    0.7075    1.7208   -0.3059 C   0  0  3  0  0  0  0  0  0  0  0  0
    0.0129    0.8075   -1.2248 N   0  0  0  0  0  0  0  0  0  0  0  0
    0.5721    0.4993   -2.4369 C   0  0  0  0  0  0  0  0  0  0  0  0
    1.6288    0.9750   -2.7485 O   0  0  0  0  0  0  0  0  0  0  0  0
   -0.1461   -0.4450   -3.3871 C   0  0  0  0  0  0  0  0  0  0  0  0
    1.0000    1.0000    1.0000 C   0  0  0  0  0  0  0  0  0  0  0  0
    1.8776    1.8776    1.8776 C   0  0  0  0  0  0  0  0  0  0  0  0
    2.7107    2.5826    1.3787 O   0  0  0  0  0  0  0  0  0  0  0  0
    1.7174    1.8637    3.2381 N   0  0  0  0  0  0  0  0  0  0  0  0
    0.6948    0.9983    3.8505 C   0  0  0  0  0  0  0  0  0  0  0  0
   -0.5723    1.7979    4.1116 C   0  0  0  0  0  0  0  0  0  0  0  0
   -1.6153    0.9041    4.7636 C   0  0  0  0  0  0  0  0  0  0  0  0
   -1.1115    0.3310    6.0208 N   0  3  3  0  0  0  0  0  0  0  0  0
   -2.1339   -0.5096    6.6654 C   0  0  0  0  0  0  0  0  0  0  0  0
   -3.3119    0.3560    7.0834 C   0  0  0  0  0  0  0  0  0  0  0  0
   -3.1657    1.2415    8.1094 C   0  0  0  0  0  0  0  0  0  0  0  0
   -4.6800    2.0030    8.2679 S   0  0  0  0  0  0  0  0  0  0  0  0
   -5.5201    1.1941    7.0230 C   0  0  0  0  0  0  0  0  0  0  0  0
   -4.6056    0.3326    6.4969 C   0  0  0  0  0  0  0  0  0  0  0  0
    0.1290   -0.4308    5.8116 C   0  0  0  0  0  0  0  0  0  0  0  0
    1.1966    0.4442    5.1742 C   0  0  0  0  0  0  0  0  0  0  0  0
   -0.9041    1.0882    6.6401 H   0  0  0  0  0  0  0  0  0  0  0  0
   -3.0875    3.7532    1.2922 H   0  0  0  0  0  0  0  0  0  0  0  0
   -1.7075    1.8408    0.8633 H   0  0  0  0  0  0  0  0  0  0  0  0
    1.1480    4.3073   -0.8567 H   0  0  0  0  0  0  0  0  0  0  0  0
   -0.2321    6.2202   -0.4276 H   0  0  0  0  0  0  0  0  0  0  0  0
    1.5665    2.0212   -0.7205 H   0  0  0  0  0  0  0  0  0  0  0  0
   -0.8677    0.4111   -0.9651 H   0  0  0  0  0  0  0  0  0  0  0  0
   -1.0051   -0.7454   -2.9725 H   0  0  0  0  0  0  0  0  0  0  0  0
   -0.3386    0.0292   -4.2462 H   0  0  0  0  0  0  0  0  0  0  0  0
    0.4329   -1.2401   -3.5676 H   0  0  0  0  0  0  0  0  0  0  0  0
    0.1409    0.8075    1.4742 H   0  0  0  0  0  0  0  0  0  0  0  0
    1.4742    0.1409    0.8075 H   0  0  0  0  0  0  0  0  0  0  0  0
    2.2948    2.4410    3.8155 H   0  0  0  0  0  0  0  0  0  0  0  0
    0.4873    0.2410    3.2313 H   0  0  0  0  0  0  0  0  0  0  0  0
   -0.9290    2.1482    3.2456 H   0  0  0  0  0  0  0  0  0  0  0  0
   -0.3631    2.5635    4.7200 H   0  0  0  0  0  0  0  0  0  0  0  0
   -2.4340    1.4449    4.9564 H   0  0  0  0  0  0  0  0  0  0  0  0
   -1.8468    0.1610    4.1358 H   0  0  0  0  0  0  0  0  0  0  0  0
   -1.7420   -0.9514    7.4724 H   0  0  0  0  0  0  0  0  0  0  0  0
   -2.4456   -1.2082    6.0214 H   0  0  0  0  0  0  0  0  0  0  0  0
   -2.3434    1.4084    8.6535 H   0  0  0  0  0  0  0  0  0  0  0  0
   -6.4711    1.3235    6.7422 H   0  0  0  0  0  0  0  0  0  0  0  0
   -4.8320   -0.2815    5.7408 H   0  0  0  0  0  0  0  0  0  0  0  0
   -0.0603   -1.2077    5.2111 H   0  0  0  0  0  0  0  0  0  0  0  0
    0.4618   -0.7646    6.6936 H   0  0  0  0  0  0  0  0  0  0  0  0
    1.4137    1.2022    5.7892 H   0  0  0  0  0  0  0  0  0  0  0  0
    2.0193   -0.1013    5.0141 H   0  0  0  0  0  0  0  0  0  0  0  0
  1  2  1  0  0  0  0
  2  3  1  0  0  0  0
  3  4  2  0  0  0  0
  4  5  1  0  0  0  0
  5  6  2  0  0  0  0
  6  7  1  0  0  0  0
  7  2  2  0  0  0  0
  5  8  1  0  0  0  0
  8  9  1  0  0  0  0
  9 10  1  0  0  0  0
 10 11  2  0  0  0  0
 10 12  1  0  0  0  0
  8 13  1  0  0  0  0
 13 14  1  0  0  0  0
 14 15  2  0  0  0  0
 14 16  1  0  0  0  0
 16 17  1  0  0  0  0
 17 18  1  0  0  0  0
 18 19  1  0  0  0  0
 19 20  1  0  0  0  0
 20 21  1  0  0  0  0
 21 22  1  0  0  0  0
 22 23  2  0  0  0  0
 23 24  1  0  0  0  0
 24 25  1  0  0  0  0
 25 26  2  0  0  0  0
 26 22  1  0  0  0  0
 20 27  1  0  0  0  0
 27 28  1  0  0  0  0
 28 17  1  0  0  0  0
 20 29  1  0  0  0  0
  3 30  1  0  0  0  0
  4 31  1  0  0  0  0
  6 32  1  0  0  0  0
  7 33  1  0  0  0  0
  8 34  1  0  0  0  0
  9 35  1  0  0  0  0
 12 36  1  0  0  0  0
 12 37  1  0  0  0  0
 12 38  1  0  0  0  0
 13 39  1  0  0  0  0
 13 40  1  0  0  0  0
 16 41  1  0  0  0  0
 17 42  1  0  0  0  0
 18 43  1  0  0  0  0
 18 44  1  0  0  0  0
 19 45  1  0  0  0  0
 19 46  1  0  0  0  0
 21 47  1  0  0  0  0
 21 48  1  0  0  0  0
 23 49  1  0  0  0  0
 25 50  1  0  0  0  0
 26 51  1  0  0  0  0
 27 52  1  0  0  0  0
 27 53  1  0  0  0  0
 28 54  1  0  0  0  0
 28 55  1  0  0  0  0
M  CHG  1  20   1
M  END
>  <result-rank>
58

>  <similarity>
0.941

>  <query-name>
LIG_A_1101_C[NH+](C)[C@H]([R*])C1CCC1_2

>  <query-smiles>
O=C(N[C@@H]([NH+](C)C)C1CCC1)[C@@H](NC(=O)C)Cc2ccc(O)cc2

>  <source>
REALspace_2019-12

>  <similarity-descriptor>
0.986;0.968;1.000;1.000;0.986;0.986;0.0;0.951;1.000;1.000;1.000;1.000;1.000;0.0;0.091

>  <similarity-descriptor-smiles>
C1CC[NH+]CC1;Clc1ccccc1;C=O;N;C1CC[NH+]CC1;C1CC[NH+]CC1;;C;CC;N;C=O;C;CC;;C=1C=CSC1

>  <reaction-name>
s_527a

>  <reagent1-name>
4969738

>  <reagent1-smiles>
[R1*]NC1CCN(CC2=CSC=C2)CC1

>  <reagent2-name>
217438

>  <reagent2-smiles>
[R1*]C(=O)CC(NC(=O)C)c1ccc(Cl)cc1

$$$$
s_512____6885310____2245928
          04022015103D 1   1.00000     0.00000     0
            
 59 60  0  0  0  0            999 V2000
    1.7202    6.5457    1.1640 F   0  0  0  0  0  0  0  0  0  0  0  0
    2.8164    6.0023    0.6424 C   0  0  0  0  0  0  0  0  0  0  0  0
    3.8340    6.8493    0.7684 F   0  0  0  0  0  0  0  0  0  0  0  0
    2.6125    5.7427   -0.6460 F   0  0  0  0  0  0  0  0  0  0  0  0
    3.1391    4.7099    1.3748 C   0  0  0  0  0  0  0  0  0  0  0  0
    2.6743    3.5001    0.8697 C   0  0  0  0  0  0  0  0  0  0  0  0
    2.9768    2.3242    1.5485 C   0  0  0  0  0  0  0  0  0  0  0  0
    3.7319    2.3452    2.7166 C   0  0  0  0  0  0  0  0  0  0  0  0
    4.1869    3.5657    3.2047 C   0  0  0  0  0  0  0  0  0  0  0  0
    3.8959    4.7533    2.5410 C   0  0  0  0  0  0  0  0  0  0  0  0
    2.4700    1.0000    1.0000 C   0  0  3  0  0  0  0  0  0  0  0  0
    1.0000    1.0000    1.0000 N   0  0  0  0  0  0  0  0  0  0  0  0
    0.3150    1.0000   -0.1865 C   0  0  0  0  0  0  0  0  0  0  0  0
    0.9150    1.0000   -1.2257 O   0  0  0  0  0  0  0  0  0  0  0  0
   -1.0550    1.0000   -0.1865 N   0  0  0  0  0  0  0  0  0  0  0  0
   -1.7913    1.0000   -1.4617 C   0  0  3  0  0  0  0  0  0  0  0  0
   -2.6682   -0.2383   -1.5508 C   0  0  0  0  0  0  0  0  0  0  0  0
   -3.4430   -0.2184   -2.8585 C   0  0  3  0  0  0  0  0  0  0  0  0
   -4.2598    1.0011   -2.9586 N   0  3  3  0  0  0  0  0  0  0  0  0
   -3.4418    2.2190   -2.8603 C   0  0  0  0  0  0  0  0  0  0  0  0
   -2.6698    2.2376   -1.5506 C   0  0  0  0  0  0  0  0  0  0  0  0
   -4.9837    1.0459   -4.2377 C   0  0  0  0  0  0  0  0  0  0  0  0
   -4.3089   -1.4667   -2.9138 C   0  0  0  0  0  0  0  0  0  0  0  0
    0.2650    1.0000    2.2731 C   0  0  0  0  0  0  0  0  0  0  0  0
   -0.1234    2.4246    2.6338 C   0  0  0  0  0  0  0  0  0  0  0  0
   -0.7308    2.4389    3.9173 O   0  0  0  0  0  0  0  0  0  0  0  0
   -2.1327    2.2599    3.7797 C   0  0  0  0  0  0  0  0  0  0  0  0
    2.9767   -0.1369    1.8724 C   0  0  0  0  0  0  0  0  0  0  0  0
   -4.9264    1.0020   -2.2132 H   0  0  0  0  0  0  0  0  0  0  0  0
    2.1306    3.4760    0.0308 H   0  0  0  0  0  0  0  0  0  0  0  0
    3.9445    1.4952    3.1984 H   0  0  0  0  0  0  0  0  0  0  0  0
    4.7304    3.5898    4.0437 H   0  0  0  0  0  0  0  0  0  0  0  0
    4.2266    5.6269    2.8979 H   0  0  0  0  0  0  0  0  0  0  0  0
    2.8033    0.8769    0.0653 H   0  0  0  0  0  0  0  0  0  0  0  0
   -1.5550    1.0000    0.6796 H   0  0  0  0  0  0  0  0  0  0  0  0
   -1.1401    1.0004   -2.2206 H   0  0  0  0  0  0  0  0  0  0  0  0
   -2.0942   -1.0564   -1.5160 H   0  0  0  0  0  0  0  0  0  0  0  0
   -3.3096   -0.2483   -0.7836 H   0  0  0  0  0  0  0  0  0  0  0  0
   -2.7952   -0.2386   -3.6200 H   0  0  0  0  0  0  0  0  0  0  0  0
   -4.0385    3.0204   -2.9020 H   0  0  0  0  0  0  0  0  0  0  0  0
   -2.7960    2.2442   -3.6234 H   0  0  0  0  0  0  0  0  0  0  0  0
   -2.0969    3.0563   -1.5131 H   0  0  0  0  0  0  0  0  0  0  0  0
   -3.3129    2.2454   -0.7848 H   0  0  0  0  0  0  0  0  0  0  0  0
   -5.5305    1.8820   -4.2821 H   0  0  0  0  0  0  0  0  0  0  0  0
   -4.3278    1.0361   -4.9924 H   0  0  0  0  0  0  0  0  0  0  0  0
   -5.5851    0.2501   -4.3083 H   0  0  0  0  0  0  0  0  0  0  0  0
   -3.7288   -2.2782   -2.8438 H   0  0  0  0  0  0  0  0  0  0  0  0
   -4.9592   -1.4553   -2.1542 H   0  0  0  0  0  0  0  0  0  0  0  0
   -4.8085   -1.4878   -3.7799 H   0  0  0  0  0  0  0  0  0  0  0  0
    0.8457    0.6203    2.9932 H   0  0  0  0  0  0  0  0  0  0  0  0
   -0.5601    0.4425    2.1816 H   0  0  0  0  0  0  0  0  0  0  0  0
    0.6942    3.0002    2.6455 H   0  0  0  0  0  0  0  0  0  0  0  0
   -0.7689    2.7760    1.9557 H   0  0  0  0  0  0  0  0  0  0  0  0
   -2.5604    2.2700    4.6835 H   0  0  0  0  0  0  0  0  0  0  0  0
   -2.5103    3.0005    3.2239 H   0  0  0  0  0  0  0  0  0  0  0  0
   -2.3146    1.3830    3.3346 H   0  0  0  0  0  0  0  0  0  0  0  0
    3.9767   -0.1369    1.8724 H   0  0  0  0  0  0  0  0  0  0  0  0
    2.6433   -0.0139    2.8071 H   0  0  0  0  0  0  0  0  0  0  0  0
    2.6433   -1.0080    1.5116 H   0  0  0  0  0  0  0  0  0  0  0  0
  1  2  1  0  0  0  0
  2  3  1  0  0  0  0
  2  4  1  0  0  0  0
  2  5  1  0  0  0  0
  5  6  1  0  0  0  0
  6  7  2  0  0  0  0
  7  8  1  0  0  0  0
  8  9  2  0  0  0  0
  9 10  1  0  0  0  0
 10  5  2  0  0  0  0
  7 11  1  0  0  0  0
 11 12  1  0  0  0  0
 12 13  1  0  0  0  0
 13 14  2  0  0  0  0
 13 15  1  0  0  0  0
 15 16  1  0  0  0  0
 16 17  1  0  0  0  0
 17 18  1  0  0  0  0
 18 19  1  0  0  0  0
 19 20  1  0  0  0  0
 20 21  1  0  0  0  0
 21 16  1  0  0  0  0
 19 22  1  0  0  0  0
 18 23  1  0  0  0  0
 12 24  1  0  0  0  0
 24 25  1  0  0  0  0
 25 26  1  0  0  0  0
 26 27  1  0  0  0  0
 11 28  1  0  0  0  0
 19 29  1  0  0  0  0
  6 30  1  0  0  0  0
  8 31  1  0  0  0  0
  9 32  1  0  0  0  0
 10 33  1  0  0  0  0
 11 34  1  0  0  0  0
 15 35  1  0  0  0  0
 16 36  1  0  0  0  0
 17 37  1  0  0  0  0
 17 38  1  0  0  0  0
 18 39  1  0  0  0  0
 20 40  1  0  0  0  0
 20 41  1  0  0  0  0
 21 42  1  0  0  0  0
 21 43  1  0  0  0  0
 22 44  1  0  0  0  0
 22 45  1  0  0  0  0
 22 46  1  0  0  0  0
 23 47  1  0  0  0  0
 23 48  1  0  0  0  0
 23 49  1  0  0  0  0
 24 50  1  0  0  0  0
 24 51  1  0  0  0  0
 25 52  1  0  0  0  0
 25 53  1  0  0  0  0
 27 54  1  0  0  0  0
 27 55  1  0  0  0  0
 27 56  1  0  0  0  0
 28 57  1  0  0  0  0
 28 58  1  0  0  0  0
 28 59  1  0  0  0  0
M  CHG  1  19   1
M  END
>  <result-rank>
59

>  <similarity>
0.941

>  <query-name>
LIG_A_1101_C[NH+](C)[C@H]([R*])C1CCC1_2

>  <query-smiles>
O=C(N[C@@H]([NH+](C)C)C1CCC1)[C@@H](NC(=O)C)Cc2ccc(O)cc2

>  <source>
REALspace_2019-12

>  <similarity-descriptor>
0.999;0.944;0.995;1.000;0.999;0.999;1.000;0.995;0.980;0.735;0.735;0.994;0.980;0.0;0.071

>  <similarity-descriptor-smiles>
C1CC[NH+]CC1;FC(F)(F)c1ccccc1;C=O;N;C1CC[NH+]CC1;C1CC[NH+]CC1;C;C;CNC;CO;CO;C;CNC;;C

>  <reaction-name>
s_512

>  <reagent1-name>
6885310

>  <reagent1-smiles>
[R1*]C(=O)NC1CC(N(CC1)C)C

>  <reagent2-name>
2245928

>  <reagent2-smiles>
[R1*]N(C(c1cc(ccc1)C(F)(F)F)C)CCOC

$$$$
s_22____10210200____16887748
          04022015103D 1   1.00000     0.00000     0
            
 56 57  0  0  0  0            999 V2000
    1.4864    5.4673   -3.9077 F   0  0  0  0  0  0  0  0  0  0  0  0
    0.3964    5.1680   -3.2032 C   0  0  0  0  0  0  0  0  0  0  0  0
    0.6894    4.4462   -1.8956 C   0  0  0  0  0  0  0  0  0  0  0  0
    1.4102    3.1404   -2.1881 C   0  0  0  0  0  0  0  0  0  0  0  0
    1.6931    2.4433   -0.9252 N   0  0  0  0  0  0  0  0  0  0  0  0
    0.7075    1.7208   -0.3059 C   0  0  0  0  0  0  0  0  0  0  0  0
   -0.3868    1.6571   -0.7943 O   0  0  0  0  0  0  0  0  0  0  0  0
    1.0000    1.0000    1.0000 C   0  0  3  0  0  0  0  0  0  0  0  0
    1.8487    1.8487    1.8487 N   0  0  0  0  0  0  0  0  0  0  0  0
    3.0831    1.4052    2.2442 C   0  0  0  0  0  0  0  0  0  0  0  0
    3.4716    0.3240    1.8978 O   0  0  0  0  0  0  0  0  0  0  0  0
    3.9607    2.2828    3.1218 C   0  0  0  0  0  0  0  0  0  0  0  0
    5.1807    1.6094    3.3950 O   0  0  0  0  0  0  0  0  0  0  0  0
    6.0005    2.4293    4.2149 C   0  0  0  0  0  0  0  0  0  0  0  0
    5.2797    2.7218    5.5207 C   0  0  0  0  0  0  0  0  0  0  0  0
    7.3064    1.7085    4.5074 C   0  0  0  0  0  0  0  0  0  0  0  0
   -0.3059    0.7075    1.7208 C   0  0  0  0  0  0  0  0  0  0  0  0
   -0.0133   -0.0134    3.0267 C   0  0  0  0  0  0  0  0  0  0  0  0
    0.1949    0.7274    4.1855 C   0  0  0  0  0  0  0  0  0  0  0  0
    0.4621    0.0721    5.3829 C   0  0  0  0  0  0  0  0  0  0  0  0
    0.5173   -1.3180    5.4060 C   0  0  0  0  0  0  0  0  0  0  0  0
    0.7767   -1.9580    6.5658 O   0  0  0  0  0  0  0  0  0  0  0  0
    0.3102   -2.0634    4.2499 C   0  0  0  0  0  0  0  0  0  0  0  0
    0.0429   -1.4030    3.0554 C   0  0  0  0  0  0  0  0  0  0  0  0
   -0.5514    6.3186   -2.9478 C   0  0  0  0  0  0  0  0  0  0  0  0
   -1.2397    5.9425   -4.2430 C   0  0  0  0  0  0  0  0  0  0  0  0
   -0.7525    4.5372   -3.9600 C   0  0  0  0  0  0  0  0  0  0  0  0
   -0.1698    4.2538   -1.4214 H   0  0  0  0  0  0  0  0  0  0  0  0
    1.2667    5.0236   -1.3182 H   0  0  0  0  0  0  0  0  0  0  0  0
    0.8328    2.5630   -2.7654 H   0  0  0  0  0  0  0  0  0  0  0  0
    2.2693    3.3328   -2.6623 H   0  0  0  0  0  0  0  0  0  0  0  0
    2.6049    2.4964   -0.5181 H   0  0  0  0  0  0  0  0  0  0  0  0
    1.4742    0.1409    0.8075 H   0  0  0  0  0  0  0  0  0  0  0  0
    1.5250    2.7498    2.1374 H   0  0  0  0  0  0  0  0  0  0  0  0
    4.1532    3.1419    2.6475 H   0  0  0  0  0  0  0  0  0  0  0  0
    3.4865    2.4753    3.9809 H   0  0  0  0  0  0  0  0  0  0  0  0
    6.1929    3.2884    3.7407 H   0  0  0  0  0  0  0  0  0  0  0  0
    5.8570    3.2991    6.0981 H   0  0  0  0  0  0  0  0  0  0  0  0
    4.4206    3.1960    5.3283 H   0  0  0  0  0  0  0  0  0  0  0  0
    5.0872    1.8627    5.9950 H   0  0  0  0  0  0  0  0  0  0  0  0
    7.8837    2.2858    5.0848 H   0  0  0  0  0  0  0  0  0  0  0  0
    7.1139    0.8493    4.9816 H   0  0  0  0  0  0  0  0  0  0  0  0
    7.7806    1.5160    3.6483 H   0  0  0  0  0  0  0  0  0  0  0  0
   -0.7801    1.5666    1.9133 H   0  0  0  0  0  0  0  0  0  0  0  0
   -0.8832    0.1301    1.1435 H   0  0  0  0  0  0  0  0  0  0  0  0
    0.1526    1.7261    4.1579 H   0  0  0  0  0  0  0  0  0  0  0  0
    0.6134    0.5962    6.2210 H   0  0  0  0  0  0  0  0  0  0  0  0
    0.8174   -2.9569    6.5874 H   0  0  0  0  0  0  0  0  0  0  0  0
    0.3529   -3.0622    4.2773 H   0  0  0  0  0  0  0  0  0  0  0  0
   -0.1088   -1.9271    2.2174 H   0  0  0  0  0  0  0  0  0  0  0  0
   -0.1224    7.2219   -2.9494 H   0  0  0  0  0  0  0  0  0  0  0  0
   -1.1177    6.2200   -2.1295 H   0  0  0  0  0  0  0  0  0  0  0  0
   -0.8571    6.3658   -5.0642 H   0  0  0  0  0  0  0  0  0  0  0  0
   -2.2334    6.0542   -4.2423 H   0  0  0  0  0  0  0  0  0  0  0  0
   -1.3700    3.9856   -3.3992 H   0  0  0  0  0  0  0  0  0  0  0  0
   -0.4838    4.0167   -4.7704 H   0  0  0  0  0  0  0  0  0  0  0  0
  1  2  1  0  0  0  0
  2  3  1  0  0  0  0
  3  4  1  0  0  0  0
  4  5  1  0  0  0  0
  5  6  1  0  0  0  0
  6  7  2  0  0  0  0
  6  8  1  0  0  0  0
  8  9  1  0  0  0  0
  9 10  1  0  0  0  0
 10 11  2  0  0  0  0
 10 12  1  0  0  0  0
 12 13  1  0  0  0  0
 13 14  1  0  0  0  0
 14 15  1  0  0  0  0
 14 16  1  0  0  0  0
  8 17  1  0  0  0  0
 17 18  1  0  0  0  0
 18 19  1  0  0  0  0
 19 20  2  0  0  0  0
 20 21  1  0  0  0  0
 21 22  1  0  0  0  0
 21 23  2  0  0  0  0
 23 24  1  0  0  0  0
 24 18  2  0  0  0  0
  2 25  1  0  0  0  0
 25 26  1  0  0  0  0
 26 27  1  0  0  0  0
 27  2  1  0  0  0  0
  3 28  1  0  0  0  0
  3 29  1  0  0  0  0
  4 30  1  0  0  0  0
  4 31  1  0  0  0  0
  5 32  1  0  0  0  0
  8 33  1  0  0  0  0
  9 34  1  0  0  0  0
 12 35  1  0  0  0  0
 12 36  1  0  0  0  0
 14 37  1  0  0  0  0
 15 38  1  0  0  0  0
 15 39  1  0  0  0  0
 15 40  1  0  0  0  0
 16 41  1  0  0  0  0
 16 42  1  0  0  0  0
 16 43  1  0  0  0  0
 17 44  1  0  0  0  0
 17 45  1  0  0  0  0
 19 46  1  0  0  0  0
 20 47  1  0  0  0  0
 22 48  1  0  0  0  0
 23 49  1  0  0  0  0
 24 50  1  0  0  0  0
 25 51  1  0  0  0  0
 25 52  1  0  0  0  0
 26 53  1  0  0  0  0
 26 54  1  0  0  0  0
 27 55  1  0  0  0  0
 27 56  1  0  0  0  0
M  END
>  <result-rank>
60

>  <similarity>
0.941

>  <query-name>
LIG_A_1101_C[NH+](C)[C@H]([R*])C1CCC1_2

>  <query-smiles>
O=C(N[C@@H]([NH+](C)C)C1CCC1)[C@@H](NC(=O)C)Cc2ccc(O)cc2

>  <source>
REALspace_2019-12

>  <similarity-descriptor>
0.959;1.000;1.000;1.000;0.942;0.0;0.0;0.0;1.000;1.000;1.000;0.956;1.000;1.000;0.250

>  <similarity-descriptor-smiles>
FC1(CCC1)C;c1ccccc1;C=O;N;C;;;;C;N;C=O;C;C;O;O.C.C.C

>  <reaction-name>
s_22

>  <reagent1-name>
10210200

>  <reagent1-smiles>
[R1*]NCCC1(F)CCC1

>  <reagent2-name>
16887748

>  <reagent2-smiles>
[R1*]C(=O)C(NC(=O)COC(C)C)Cc1ccc(O)cc1

$$$$
s_22____14059738____107338
          04022015103D 1   1.00000     0.00000     0
            
 61 62  0  0  0  0            999 V2000
    1.2159   -2.2809    5.7367 O   0  0  0  0  0  0  0  0  0  0  0  0
    2.1335   -1.7773    5.1498 C   0  0  0  0  0  0  0  0  0  0  0  0
    3.1316   -2.5179    4.7357 O   0  0  0  0  0  0  0  0  0  0  0  0
    3.1277   -3.9165    4.9813 C   0  0  0  0  0  0  0  0  0  0  0  0
    2.1378   -0.2798    4.8869 C   0  0  3  0  0  0  0  0  0  0  0  0
    2.1847   -0.0550    3.3823 C   0  0  0  0  0  0  0  0  0  0  0  0
    2.4534    1.3517    3.0397 N   0  0  0  0  0  0  0  0  0  0  0  0
    1.8776    1.8776    1.8776 C   0  0  0  0  0  0  0  0  0  0  0  0
    2.0766    3.0213    1.5740 O   0  0  0  0  0  0  0  0  0  0  0  0
    1.0000    1.0000    1.0000 C   0  0  0  0  0  0  0  0  0  0  0  0
    0.7075    1.7208   -0.3059 C   0  0  3  0  0  0  0  0  0  0  0  0
   -0.1412    0.8721   -1.1546 N   0  0  0  0  0  0  0  0  0  0  0  0
   -1.3757    1.3156   -1.5500 C   0  0  0  0  0  0  0  0  0  0  0  0
   -1.7641    2.3968   -1.2036 O   0  0  0  0  0  0  0  0  0  0  0  0
   -2.2532    0.4380   -2.4276 C   0  0  0  0  0  0  0  0  0  0  0  0
    2.0134    2.0133   -1.0267 C   0  0  0  0  0  0  0  0  0  0  0  0
    2.8673    0.9636   -1.3489 C   0  0  0  0  0  0  0  0  0  0  0  0
    4.0629    1.2264   -2.0091 C   0  0  0  0  0  0  0  0  0  0  0  0
    4.3894    2.5379   -2.3396 C   0  0  0  0  0  0  0  0  0  0  0  0
    5.5490    2.7975   -2.9801 O   0  0  0  0  0  0  0  0  0  0  0  0
    6.0178    4.1337   -3.0859 C   0  0  0  0  0  0  0  0  0  0  0  0
    3.5392    3.5914   -2.0194 C   0  0  0  0  0  0  0  0  0  0  0  0
    2.3447    3.3228   -1.3595 C   0  0  0  0  0  0  0  0  0  0  0  0
    3.2992    2.2247    3.8709 C   0  0  0  0  0  0  0  0  0  0  0  0
    3.1964    1.8845    5.3511 C   0  0  3  0  0  0  0  0  0  0  0  0
    4.2634    2.6071    6.0591 N   0  3  0  0  0  0  0  0  0  0  0  0
    5.5708    2.1899    5.5323 C   0  0  0  0  0  0  0  0  0  0  0  0
    4.0928    4.0532    5.8579 C   0  0  0  0  0  0  0  0  0  0  0  0
    3.2998    0.3877    5.6094 C   0  0  0  0  0  0  0  0  0  0  0  0
    4.2157    2.3986    7.0360 H   0  0  0  0  0  0  0  0  0  0  0  0
    3.9577   -4.3241    4.6006 H   0  0  0  0  0  0  0  0  0  0  0  0
    3.0970   -4.0818    5.9670 H   0  0  0  0  0  0  0  0  0  0  0  0
    2.3255   -4.3285    4.5491 H   0  0  0  0  0  0  0  0  0  0  0  0
    1.2842    0.1052    5.2377 H   0  0  0  0  0  0  0  0  0  0  0  0
    2.9083   -0.6253    2.9936 H   0  0  0  0  0  0  0  0  0  0  0  0
    1.3041   -0.3199    2.9893 H   0  0  0  0  0  0  0  0  0  0  0  0
    0.1409    0.8075    1.4742 H   0  0  0  0  0  0  0  0  0  0  0  0
    1.4742    0.1409    0.8075 H   0  0  0  0  0  0  0  0  0  0  0  0
    0.2333    2.5799   -0.1134 H   0  0  0  0  0  0  0  0  0  0  0  0
    0.1825   -0.0289   -1.4432 H   0  0  0  0  0  0  0  0  0  0  0  0
   -1.7790   -0.4211   -2.6201 H   0  0  0  0  0  0  0  0  0  0  0  0
   -3.1124    0.2455   -1.9534 H   0  0  0  0  0  0  0  0  0  0  0  0
   -2.4457    0.9122   -3.2867 H   0  0  0  0  0  0  0  0  0  0  0  0
    2.6227    0.0246   -1.1070 H   0  0  0  0  0  0  0  0  0  0  0  0
    4.6833    0.4783   -2.2445 H   0  0  0  0  0  0  0  0  0  0  0  0
    6.8833    4.1445   -3.5867 H   0  0  0  0  0  0  0  0  0  0  0  0
    5.3427    4.6860   -3.5750 H   0  0  0  0  0  0  0  0  0  0  0  0
    6.1575    4.5114   -2.1706 H   0  0  0  0  0  0  0  0  0  0  0  0
    3.7839    4.5304   -2.2607 H   0  0  0  0  0  0  0  0  0  0  0  0
    1.7241    4.0708   -1.1244 H   0  0  0  0  0  0  0  0  0  0  0  0
    3.0117    3.1732    3.7377 H   0  0  0  0  0  0  0  0  0  0  0  0
    4.2509    2.1211    3.5819 H   0  0  0  0  0  0  0  0  0  0  0  0
    2.3130    2.2065    5.6917 H   0  0  0  0  0  0  0  0  0  0  0  0
    6.2965    2.6814    6.0138 H   0  0  0  0  0  0  0  0  0  0  0  0
    5.6868    1.2062    5.6692 H   0  0  0  0  0  0  0  0  0  0  0  0
    5.6184    2.3985    4.5554 H   0  0  0  0  0  0  0  0  0  0  0  0
    4.8185    4.5447    6.3394 H   0  0  0  0  0  0  0  0  0  0  0  0
    4.1404    4.2618    4.8810 H   0  0  0  0  0  0  0  0  0  0  0  0
    3.2034    4.3370    6.2163 H   0  0  0  0  0  0  0  0  0  0  0  0
    3.2422    0.2053    6.5909 H   0  0  0  0  0  0  0  0  0  0  0  0
    4.1678    0.0389    5.2559 H   0  0  0  0  0  0  0  0  0  0  0  0
  1  2  2  0  0  0  0
  2  3  1  0  0  0  0
  3  4  1  0  0  0  0
  2  5  1  0  0  0  0
  5  6  1  0  0  0  0
  6  7  1  0  0  0  0
  7  8  1  0  0  0  0
  8  9  2  0  0  0  0
  8 10  1  0  0  0  0
 10 11  1  0  0  0  0
 11 12  1  0  0  0  0
 12 13  1  0  0  0  0
 13 14  2  0  0  0  0
 13 15  1  0  0  0  0
 11 16  1  0  0  0  0
 16 17  1  0  0  0  0
 17 18  2  0  0  0  0
 18 19  1  0  0  0  0
 19 20  1  0  0  0  0
 20 21  1  0  0  0  0
 19 22  2  0  0  0  0
 22 23  1  0  0  0  0
 23 16  2  0  0  0  0
  7 24  1  0  0  0  0
 24 25  1  0  0  0  0
 25 26  1  0  0  0  0
 26 27  1  0  0  0  0
 26 28  1  0  0  0  0
 25 29  1  0  0  0  0
 29  5  1  0  0  0  0
 26 30  1  0  0  0  0
  4 31  1  0  0  0  0
  4 32  1  0  0  0  0
  4 33  1  0  0  0  0
  5 34  1  0  0  0  0
  6 35  1  0  0  0  0
  6 36  1  0  0  0  0
 10 37  1  0  0  0  0
 10 38  1  0  0  0  0
 11 39  1  0  0  0  0
 12 40  1  0  0  0  0
 15 41  1  0  0  0  0
 15 42  1  0  0  0  0
 15 43  1  0  0  0  0
 17 44  1  0  0  0  0
 18 45  1  0  0  0  0
 21 46  1  0  0  0  0
 21 47  1  0  0  0  0
 21 48  1  0  0  0  0
 22 49  1  0  0  0  0
 23 50  1  0  0  0  0
 24 51  1  0  0  0  0
 24 52  1  0  0  0  0
 25 53  1  0  0  0  0
 27 54  1  0  0  0  0
 27 55  1  0  0  0  0
 27 56  1  0  0  0  0
 28 57  1  0  0  0  0
 28 58  1  0  0  0  0
 28 59  1  0  0  0  0
 29 60  1  0  0  0  0
 29 61  1  0  0  0  0
M  CHG  1  26   1
M  END
>  <result-rank>
61

>  <similarity>
0.941

>  <query-name>
LIG_A_1101_C[NH+](C)[C@H]([R*])C1CCC1_2

>  <query-smiles>
O=C(N[C@@H]([NH+](C)C)C1CCC1)[C@@H](NC(=O)C)Cc2ccc(O)cc2

>  <source>
REALspace_2019-12

>  <similarity-descriptor>
0.992;1.000;0.852;0.852;0.992;1.000;1.000;1.000;1.000;1.000;1.000;1.000;1.000;0.704;0.250

>  <similarity-descriptor-smiles>
C1CCCNC1;c1ccccc1;C=O;C=O;C1CCCNC1;[NH+];C;C;CC;N;C=O;C;CC;O;O=C.O.C.C

>  <reaction-name>
s_22

>  <reagent1-name>
14059738

>  <reagent1-smiles>
[R1*]N1CC(N(C)C)CC(C(=O)OC)C1

>  <reagent2-name>
107338

>  <reagent2-smiles>
[R1*]C(=O)CC(NC(=O)C)c1ccc(OC)cc1

$$$$
s_2708____905938____8283954
          04022015103D 1   1.00000     0.00000     0
            
 53 54  0  0  0  0            999 V2000
    2.9700    2.0392    1.0000 O   0  0  0  0  0  0  0  0  0  0  0  0
    2.3700    1.0000    1.0000 C   0  0  0  0  0  0  0  0  0  0  0  0
    1.0000    1.0000    1.0000 N   0  0  0  0  0  0  0  0  0  0  0  0
    0.2650   -0.2731    1.0000 C   0  0  0  0  0  0  0  0  0  0  0  0
   -0.0425   -0.6807    2.4320 C   0  0  0  0  0  0  0  0  0  0  0  0
   -1.2274   -0.2618    3.0283 C   0  0  0  0  0  0  0  0  0  0  0  0
   -1.5045   -0.6363    4.3391 C   0  0  0  0  0  0  0  0  0  0  0  0
   -0.6005   -1.4250    5.0430 C   0  0  0  0  0  0  0  0  0  0  0  0
    0.5797   -1.8379    4.4370 C   0  0  0  0  0  0  0  0  0  0  0  0
    0.8686   -1.4696    3.1271 C   0  0  0  0  0  0  0  0  0  0  0  0
    0.2650    2.2731    1.0000 C   0  0  0  0  0  0  0  0  0  0  0  0
   -0.2570    2.5568   -0.3991 C   0  0  0  0  0  0  0  0  0  0  0  0
    0.7275    2.1908   -1.3548 O   0  0  0  0  0  0  0  0  0  0  0  0
   -1.5224    1.7502   -0.6410 C   0  0  0  0  0  0  0  0  0  0  0  0
   -0.5672    4.0387   -0.5333 C   0  0  0  0  0  0  0  0  0  0  0  0
    3.0550   -0.1865    1.0000 N   0  0  0  0  0  0  0  0  0  0  0  0
    4.5279   -0.1865    1.0000 C   0  0  0  0  0  0  0  0  0  0  0  0
    5.0464   -0.9014   -0.2383 C   0  0  0  0  0  0  0  0  0  0  0  0
    6.5667   -0.9167   -0.2204 C   0  0  0  0  0  0  0  0  0  0  0  0
    7.0764   -1.5736    0.9927 N   0  3  0  0  0  0  0  0  0  0  0  0
    6.5757   -0.9235    2.2133 C   0  0  0  0  0  0  0  0  0  0  0  0
    5.0555   -0.9081    2.2297 C   0  0  0  0  0  0  0  0  0  0  0  0
    8.5480   -1.6142    0.9930 C   0  0  0  0  0  0  0  0  0  0  0  0
    6.7449   -2.5171    0.9913 H   0  0  0  0  0  0  0  0  0  0  0  0
    0.8226   -0.9799    0.5647 H   0  0  0  0  0  0  0  0  0  0  0  0
   -0.5903   -0.1642    0.4934 H   0  0  0  0  0  0  0  0  0  0  0  0
   -1.8752    0.3043    2.5185 H   0  0  0  0  0  0  0  0  0  0  0  0
   -2.3536   -0.3385    4.7753 H   0  0  0  0  0  0  0  0  0  0  0  0
   -0.7999   -1.6948    5.9850 H   0  0  0  0  0  0  0  0  0  0  0  0
    1.2268   -2.4047    4.9468 H   0  0  0  0  0  0  0  0  0  0  0  0
    1.7182   -1.7672    2.6917 H   0  0  0  0  0  0  0  0  0  0  0  0
    0.8770    3.0113    1.2835 H   0  0  0  0  0  0  0  0  0  0  0  0
   -0.5037    2.2142    1.6370 H   0  0  0  0  0  0  0  0  0  0  0  0
    0.3841    2.3775   -2.2753 H   0  0  0  0  0  0  0  0  0  0  0  0
   -2.2157    2.0079    0.0320 H   0  0  0  0  0  0  0  0  0  0  0  0
   -1.8658    1.9369   -1.5615 H   0  0  0  0  0  0  0  0  0  0  0  0
   -1.3183    0.7753   -0.5527 H   0  0  0  0  0  0  0  0  0  0  0  0
   -1.2605    4.2964    0.1397 H   0  0  0  0  0  0  0  0  0  0  0  0
    0.2653    4.5693   -0.3742 H   0  0  0  0  0  0  0  0  0  0  0  0
   -0.9106    4.2253   -1.4538 H   0  0  0  0  0  0  0  0  0  0  0  0
    2.5550   -1.0525    1.0000 H   0  0  0  0  0  0  0  0  0  0  0  0
    4.8595    0.7570    1.0015 H   0  0  0  0  0  0  0  0  0  0  0  0
    4.7282   -0.4226   -1.0565 H   0  0  0  0  0  0  0  0  0  0  0  0
    4.7043   -1.8410   -0.2476 H   0  0  0  0  0  0  0  0  0  0  0  0
    6.8975   -1.4123   -1.0235 H   0  0  0  0  0  0  0  0  0  0  0  0
    6.9030    0.0246   -0.2477 H   0  0  0  0  0  0  0  0  0  0  0  0
    6.9138    0.0170    2.2465 H   0  0  0  0  0  0  0  0  0  0  0  0
    6.9075   -1.4254    3.0121 H   0  0  0  0  0  0  0  0  0  0  0  0
    4.7150   -1.8484    2.2330 H   0  0  0  0  0  0  0  0  0  0  0  0
    4.7382   -0.4358    3.0520 H   0  0  0  0  0  0  0  0  0  0  0  0
    8.8689   -2.0646    1.8262 H   0  0  0  0  0  0  0  0  0  0  0  0
    8.8676   -2.1241    0.1943 H   0  0  0  0  0  0  0  0  0  0  0  0
    8.9072   -0.6816    0.9587 H   0  0  0  0  0  0  0  0  0  0  0  0
  1  2  2  0  0  0  0
  2  3  1  0  0  0  0
  3  4  1  0  0  0  0
  4  5  1  0  0  0  0
  5  6  1  0  0  0  0
  6  7  2  0  0  0  0
  7  8  1  0  0  0  0
  8  9  2  0  0  0  0
  9 10  1  0  0  0  0
 10  5  2  0  0  0  0
  3 11  1  0  0  0  0
 11 12  1  0  0  0  0
 12 13  1  0  0  0  0
 12 14  1  0  0  0  0
 12 15  1  0  0  0  0
  2 16  1  0  0  0  0
 16 17  1  0  0  0  0
 17 18  1  0  0  0  0
 18 19  1  0  0  0  0
 19 20  1  0  0  0  0
 20 21  1  0  0  0  0
 21 22  1  0  0  0  0
 22 17  1  0  0  0  0
 20 23  1  0  0  0  0
 20 24  1  0  0  0  0
  4 25  1  0  0  0  0
  4 26  1  0  0  0  0
  6 27  1  0  0  0  0
  7 28  1  0  0  0  0
  8 29  1  0  0  0  0
  9 30  1  0  0  0  0
 10 31  1  0  0  0  0
 11 32  1  0  0  0  0
 11 33  1  0  0  0  0
 13 34  1  0  0  0  0
 14 35  1  0  0  0  0
 14 36  1  0  0  0  0
 14 37  1  0  0  0  0
 15 38  1  0  0  0  0
 15 39  1  0  0  0  0
 15 40  1  0  0  0  0
 16 41  1  0  0  0  0
 17 42  1  0  0  0  0
 18 43  1  0  0  0  0
 18 44  1  0  0  0  0
 19 45  1  0  0  0  0
 19 46  1  0  0  0  0
 21 47  1  0  0  0  0
 21 48  1  0  0  0  0
 22 49  1  0  0  0  0
 22 50  1  0  0  0  0
 23 51  1  0  0  0  0
 23 52  1  0  0  0  0
 23 53  1  0  0  0  0
M  CHG  1  20   1
M  END
>  <result-rank>
62

>  <similarity>
0.941

>  <query-name>
LIG_A_1101_C[NH+](C)[C@H]([R*])C1CCC1_2

>  <query-smiles>
O=C(N[C@@H]([NH+](C)C)C1CCC1)[C@@H](NC(=O)C)Cc2ccc(O)cc2

>  <source>
REALspace_2019-12

>  <similarity-descriptor>
0.986;0.960;0.995;1.000;0.986;0.986;0.0;1.000;0.953;0.830;0.830;1.000;0.953;0.0;0.083

>  <similarity-descriptor-smiles>
C1CC[NH+]CC1;c1ccccc1;O=C;N;C1CC[NH+]CC1;C1CC[NH+]CC1;;C;N(C)C;CO;CO;C;N(C)C;;C

>  <reaction-name>
s_2708

>  <reagent1-name>
905938

>  <reagent1-smiles>
[R1*]C(=O)NC1CCN(CC1)C

>  <reagent2-name>
8283954

>  <reagent2-smiles>
[R1*]N(Cc1ccccc1)CC(O)(C)C

$$$$
s_2708____5730620____11566486
          04022015103D 1   1.00000     0.00000     0
            
 60 61  0  0  0  0            999 V2000
    3.4536    6.8800    3.5410 F   0  0  0  0  0  0  0  0  0  0  0  0
    3.0678    5.6809    3.9670 C   0  0  0  0  0  0  0  0  0  0  0  0
    3.4718    5.2365    5.2223 C   0  0  0  0  0  0  0  0  0  0  0  0
    4.2509    6.0208    5.9982 O   0  0  0  0  0  0  0  0  0  0  0  0
    4.6629    5.5670    7.2791 C   0  0  0  0  0  0  0  0  0  0  0  0
    3.0801    3.9863    5.6899 C   0  0  0  0  0  0  0  0  0  0  0  0
    2.2778    3.1827    4.8864 C   0  0  0  0  0  0  0  0  0  0  0  0
    1.8774    3.6325    3.6325 C   0  0  0  0  0  0  0  0  0  0  0  0
    2.2656    4.8814    3.1602 C   0  0  0  0  0  0  0  0  0  0  0  0
    1.0000    2.7551    2.7551 C   0  0  0  0  0  0  0  0  0  0  0  0
    1.8776    1.8776    1.8776 C   0  0  3  0  0  0  0  0  0  0  0  0
    2.7551    1.0000    2.7551 C   0  0  0  0  0  0  0  0  0  0  0  0
    3.9501    1.0779    2.6773 O   0  0  0  0  0  0  0  0  0  0  0  0
    2.1819    0.1201    3.6350 N   0  0  0  0  0  0  0  0  0  0  0  0
    3.0306   -0.7286    4.4837 C   0  0  0  0  0  0  0  0  0  0  0  0
    1.0000    1.0000    1.0000 C   0  0  0  0  0  0  0  0  0  0  0  0
    1.8487    0.1513    0.1513 N   0  0  0  0  0  0  0  0  0  0  0  0
    2.4124    0.6661   -0.9863 C   0  0  0  0  0  0  0  0  0  0  0  0
    2.2133    1.8099   -1.2899 O   0  0  0  0  0  0  0  0  0  0  0  0
    3.2034   -0.1248   -1.7773 N   0  0  0  0  0  0  0  0  0  0  0  0
    3.8093    0.4285   -3.0000 C   0  0  3  0  0  0  0  0  0  0  0  0
    5.3239    0.3364   -2.9121 C   0  0  0  0  0  0  0  0  0  0  0  0
    5.9406    0.8868   -4.1879 C   0  0  3  0  0  0  0  0  0  0  0  0
    5.4458    0.1516   -5.3620 N   0  3  3  0  0  0  0  0  0  0  0  0
    3.9803    0.2082   -5.4675 C   0  0  0  0  0  0  0  0  0  0  0  0
    3.3340   -0.3562   -4.2123 C   0  0  0  0  0  0  0  0  0  0  0  0
    6.0091    0.7024   -6.6035 C   0  0  0  0  0  0  0  0  0  0  0  0
    7.4522    0.7780   -4.0672 C   0  0  0  0  0  0  0  0  0  0  0  0
    5.7242   -0.8055   -5.2812 H   0  0  0  0  0  0  0  0  0  0  0  0
    5.2297    6.2666    7.7142 H   0  0  0  0  0  0  0  0  0  0  0  0
    3.8576    5.3908    7.8452 H   0  0  0  0  0  0  0  0  0  0  0  0
    5.1916    4.7239    7.1799 H   0  0  0  0  0  0  0  0  0  0  0  0
    3.3717    3.6692    6.5924 H   0  0  0  0  0  0  0  0  0  0  0  0
    1.9889    2.2818    5.2103 H   0  0  0  0  0  0  0  0  0  0  0  0
    1.9736    5.1984    2.2578 H   0  0  0  0  0  0  0  0  0  0  0  0
    0.4226    3.3325    2.1778 H   0  0  0  0  0  0  0  0  0  0  0  0
    0.4226    2.1778    3.3325 H   0  0  0  0  0  0  0  0  0  0  0  0
    2.4549    2.4549    1.3002 H   0  0  0  0  0  0  0  0  0  0  0  0
    1.1861    0.0553    3.6999 H   0  0  0  0  0  0  0  0  0  0  0  0
    2.4532   -1.3059    5.0611 H   0  0  0  0  0  0  0  0  0  0  0  0
    3.6079   -1.3059    3.9064 H   0  0  0  0  0  0  0  0  0  0  0  0
    3.6079   -0.1512    5.0611 H   0  0  0  0  0  0  0  0  0  0  0  0
    0.4226    0.4226    1.5774 H   0  0  0  0  0  0  0  0  0  0  0  0
    0.4226    1.5774    0.4226 H   0  0  0  0  0  0  0  0  0  0  0  0
    2.0146   -0.8018    0.4043 H   0  0  0  0  0  0  0  0  0  0  0  0
    3.3693   -1.0780   -1.5243 H   0  0  0  0  0  0  0  0  0  0  0  0
    3.5405    1.3866   -3.0989 H   0  0  0  0  0  0  0  0  0  0  0  0
    5.6454    0.8696   -2.1296 H   0  0  0  0  0  0  0  0  0  0  0  0
    5.5935   -0.6198   -2.7973 H   0  0  0  0  0  0  0  0  0  0  0  0
    5.6909    1.8508   -4.2795 H   0  0  0  0  0  0  0  0  0  0  0  0
    3.6863   -0.3280   -6.2587 H   0  0  0  0  0  0  0  0  0  0  0  0
    3.6954    1.1595   -5.5851 H   0  0  0  0  0  0  0  0  0  0  0  0
    2.3395   -0.2828   -4.2878 H   0  0  0  0  0  0  0  0  0  0  0  0
    3.5904   -1.3171   -4.1088 H   0  0  0  0  0  0  0  0  0  0  0  0
    5.6588    0.1873   -7.3858 H   0  0  0  0  0  0  0  0  0  0  0  0
    5.7453    1.6630   -6.6918 H   0  0  0  0  0  0  0  0  0  0  0  0
    7.0062    0.6316   -6.5773 H   0  0  0  0  0  0  0  0  0  0  0  0
    7.7598    1.2858   -3.2625 H   0  0  0  0  0  0  0  0  0  0  0  0
    7.7108   -0.1835   -3.9735 H   0  0  0  0  0  0  0  0  0  0  0  0
    7.8804    1.1599   -4.8862 H   0  0  0  0  0  0  0  0  0  0  0  0
  1  2  1  0  0  0  0
  2  3  1  0  0  0  0
  3  4  1  0  0  0  0
  4  5  1  0  0  0  0
  3  6  2  0  0  0  0
  6  7  1  0  0  0  0
  7  8  2  0  0  0  0
  8  9  1  0  0  0  0
  9  2  2  0  0  0  0
  8 10  1  0  0  0  0
 10 11  1  0  0  0  0
 11 12  1  0  0  0  0
 12 13  2  0  0  0  0
 12 14  1  0  0  0  0
 14 15  1  0  0  0  0
 11 16  1  0  0  0  0
 16 17  1  0  0  0  0
 17 18  1  0  0  0  0
 18 19  2  0  0  0  0
 18 20  1  0  0  0  0
 20 21  1  0  0  0  0
 21 22  1  0  0  0  0
 22 23  1  0  0  0  0
 23 24  1  0  0  0  0
 24 25  1  0  0  0  0
 25 26  1  0  0  0  0
 26 21  1  0  0  0  0
 24 27  1  0  0  0  0
 23 28  1  0  0  0  0
 24 29  1  0  0  0  0
  5 30  1  0  0  0  0
  5 31  1  0  0  0  0
  5 32  1  0  0  0  0
  6 33  1  0  0  0  0
  7 34  1  0  0  0  0
  9 35  1  0  0  0  0
 10 36  1  0  0  0  0
 10 37  1  0  0  0  0
 11 38  1  0  0  0  0
 14 39  1  0  0  0  0
 15 40  1  0  0  0  0
 15 41  1  0  0  0  0
 15 42  1  0  0  0  0
 16 43  1  0  0  0  0
 16 44  1  0  0  0  0
 17 45  1  0  0  0  0
 20 46  1  0  0  0  0
 21 47  1  0  0  0  0
 22 48  1  0  0  0  0
 22 49  1  0  0  0  0
 23 50  1  0  0  0  0
 25 51  1  0  0  0  0
 25 52  1  0  0  0  0
 26 53  1  0  0  0  0
 26 54  1  0  0  0  0
 27 55  1  0  0  0  0
 27 56  1  0  0  0  0
 27 57  1  0  0  0  0
 28 58  1  0  0  0  0
 28 59  1  0  0  0  0
 28 60  1  0  0  0  0
M  CHG  1  24   1
M  END
>  <result-rank>
63

>  <similarity>
0.941

>  <query-name>
LIG_A_1101_C[NH+](C)[C@H]([R*])C1CCC1_2

>  <query-smiles>
O=C(N[C@@H]([NH+](C)C)C1CCC1)[C@@H](NC(=O)C)Cc2ccc(O)cc2

>  <source>
REALspace_2019-12

>  <similarity-descriptor>
0.999;0.965;0.995;1.000;0.999;0.999;1.000;0.995;0.824;0.824;0.852;0.995;1.000;0.704;0.067

>  <similarity-descriptor-smiles>
C1CC[NH+]CC1;Fc1ccccc1;C=O;N;C1CC[NH+]CC1;C1CC[NH+]CC1;C;C;CCN;CCN;C(=O)N;C;C;O;C

>  <reaction-name>
s_2708

>  <reagent1-name>
5730620

>  <reagent1-smiles>
[R1*]C(=O)NC1CC(N(CC1)C)C

>  <reagent2-name>
11566486

>  <reagent2-smiles>
[R1*]NCC(C(=O)NC)Cc1cc(F)c(OC)cc1

$$$$
s_2708____13152144____12549494
          04022015103D 1   1.00000     0.00000     0
            
 61 62  0  0  0  0            999 V2000
    0.9150    1.0000    3.2257 O   0  0  0  0  0  0  0  0  0  0  0  0
    0.3150    1.0000    2.1865 C   0  0  0  0  0  0  0  0  0  0  0  0
   -1.0550    1.0000    2.1865 N   0  0  0  0  0  0  0  0  0  0  0  0
   -1.7899    1.0000    3.4593 C   0  0  3  0  0  0  0  0  0  0  0  0
   -2.6632   -0.2434    3.5363 C   0  0  0  0  0  0  0  0  0  0  0  0
   -3.5165   -0.2234    4.7980 C   0  0  0  0  0  0  0  0  0  0  0  0
   -4.3659    1.0341    4.8979 C   0  0  3  0  0  0  0  0  0  0  0  0
   -5.1028    1.0204    6.1683 N   0  3  0  0  0  0  0  0  0  0  0  0
   -5.9699   -0.1655    6.2190 C   0  0  0  0  0  0  0  0  0  0  0  0
   -4.1500    0.9789    7.2870 C   0  0  0  0  0  0  0  0  0  0  0  0
   -3.4360    2.2397    4.8665 C   0  0  0  0  0  0  0  0  0  0  0  0
   -2.5777    2.2905    3.6130 C   0  0  0  0  0  0  0  0  0  0  0  0
   -5.4040    1.0976    3.7877 C   0  0  0  0  0  0  0  0  0  0  0  0
    1.0000    1.0000    1.0000 N   0  0  0  0  0  0  0  0  0  0  0  0
    2.4700    1.0000    1.0000 C   0  0  0  0  0  0  0  0  0  0  0  0
    2.9767   -0.4113    1.2488 C   0  0  3  0  0  0  0  0  0  0  0  0
    2.4700   -1.3325    0.1511 C   0  0  0  0  0  0  0  0  0  0  0  0
    1.7801   -2.2742    0.4289 O   0  0  0  0  0  0  0  0  0  0  0  0
    2.7865   -1.0983   -1.0984 O   0  0  0  0  0  0  0  0  0  0  0  0
    2.3131   -1.9589   -2.1240 C   0  0  0  0  0  0  0  0  0  0  0  0
    4.4967   -0.4113    1.2488 C   0  0  0  0  0  0  0  0  0  0  0  0
    5.0034   -1.8229    1.4977 C   0  0  0  0  0  0  0  0  0  0  0  0
    5.2331   -2.6725    0.4206 C   0  0  0  0  0  0  0  0  0  0  0  0
    5.6960   -3.9636    0.6528 C   0  0  0  0  0  0  0  0  0  0  0  0
    5.9270   -4.3960    1.9544 C   0  0  0  0  0  0  0  0  0  0  0  0
    5.6946   -3.5385    3.0227 C   0  0  0  0  0  0  0  0  0  0  0  0
    5.2311   -2.2453    2.8037 C   0  0  0  0  0  0  0  0  0  0  0  0
   -5.6627    1.8460    6.2378 H   0  0  0  0  0  0  0  0  0  0  0  0
   -1.5550    1.0000    1.3204 H   0  0  0  0  0  0  0  0  0  0  0  0
   -1.1218    0.9552    4.2021 H   0  0  0  0  0  0  0  0  0  0  0  0
   -2.0790   -1.0549    3.5477 H   0  0  0  0  0  0  0  0  0  0  0  0
   -3.2615   -0.2746    2.7356 H   0  0  0  0  0  0  0  0  0  0  0  0
   -4.1206   -1.0202    4.7907 H   0  0  0  0  0  0  0  0  0  0  0  0
   -2.9140   -0.2691    5.5948 H   0  0  0  0  0  0  0  0  0  0  0  0
   -6.4717   -0.1748    7.0840 H   0  0  0  0  0  0  0  0  0  0  0  0
   -6.6181   -0.1373    5.4580 H   0  0  0  0  0  0  0  0  0  0  0  0
   -5.4100   -0.9911    6.1495 H   0  0  0  0  0  0  0  0  0  0  0  0
   -4.6517    0.9696    8.1520 H   0  0  0  0  0  0  0  0  0  0  0  0
   -3.5901    0.1533    7.2175 H   0  0  0  0  0  0  0  0  0  0  0  0
   -3.5601    1.7856    7.2525 H   0  0  0  0  0  0  0  0  0  0  0  0
   -2.8342    2.1997    5.6641 H   0  0  0  0  0  0  0  0  0  0  0  0
   -3.9898    3.0713    4.9082 H   0  0  0  0  0  0  0  0  0  0  0  0
   -3.1671    2.4140    2.8146 H   0  0  0  0  0  0  0  0  0  0  0  0
   -1.9416    3.0591    3.6798 H   0  0  0  0  0  0  0  0  0  0  0  0
   -4.9429    1.1088    2.9004 H   0  0  0  0  0  0  0  0  0  0  0  0
   -6.0007    0.2971    3.8431 H   0  0  0  0  0  0  0  0  0  0  0  0
   -5.9507    1.9286    3.8897 H   0  0  0  0  0  0  0  0  0  0  0  0
    0.5000    1.0000    0.1340 H   0  0  0  0  0  0  0  0  0  0  0  0
    2.8033    1.6060    1.7222 H   0  0  0  0  0  0  0  0  0  0  0  0
    2.8033    1.3225    0.1140 H   0  0  0  0  0  0  0  0  0  0  0  0
    2.6433   -0.7338    2.1348 H   0  0  0  0  0  0  0  0  0  0  0  0
    2.6465   -1.6364   -3.0099 H   0  0  0  0  0  0  0  0  0  0  0  0
    2.6465   -2.8873   -1.9602 H   0  0  0  0  0  0  0  0  0  0  0  0
    1.3131   -1.9589   -2.1240 H   0  0  0  0  0  0  0  0  0  0  0  0
    4.8300   -0.0888    0.3629 H   0  0  0  0  0  0  0  0  0  0  0  0
    4.8300    0.1947    1.9711 H   0  0  0  0  0  0  0  0  0  0  0  0
    5.0667   -2.3575   -0.5138 H   0  0  0  0  0  0  0  0  0  0  0  0
    5.8627   -4.5808   -0.1161 H   0  0  0  0  0  0  0  0  0  0  0  0
    6.2604   -5.3239    2.1214 H   0  0  0  0  0  0  0  0  0  0  0  0
    5.8619   -3.8536    3.9569 H   0  0  0  0  0  0  0  0  0  0  0  0
    5.0641   -1.6288    3.5731 H   0  0  0  0  0  0  0  0  0  0  0  0
  1  2  2  0  0  0  0
  2  3  1  0  0  0  0
  3  4  1  0  0  0  0
  4  5  1  0  0  0  0
  5  6  1  0  0  0  0
  6  7  1  0  0  0  0
  7  8  1  0  0  0  0
  8  9  1  0  0  0  0
  8 10  1  0  0  0  0
  7 11  1  0  0  0  0
 11 12  1  0  0  0  0
 12  4  1  0  0  0  0
  7 13  1  0  0  0  0
  2 14  1  0  0  0  0
 14 15  1  0  0  0  0
 15 16  1  0  0  0  0
 16 17  1  0  0  0  0
 17 18  2  0  0  0  0
 17 19  1  0  0  0  0
 19 20  1  0  0  0  0
 16 21  1  0  0  0  0
 21 22  1  0  0  0  0
 22 23  1  0  0  0  0
 23 24  2  0  0  0  0
 24 25  1  0  0  0  0
 25 26  2  0  0  0  0
 26 27  1  0  0  0  0
 27 22  2  0  0  0  0
  8 28  1  0  0  0  0
  3 29  1  0  0  0  0
  4 30  1  0  0  0  0
  5 31  1  0  0  0  0
  5 32  1  0  0  0  0
  6 33  1  0  0  0  0
  6 34  1  0  0  0  0
  9 35  1  0  0  0  0
  9 36  1  0  0  0  0
  9 37  1  0  0  0  0
 10 38  1  0  0  0  0
 10 39  1  0  0  0  0
 10 40  1  0  0  0  0
 11 41  1  0  0  0  0
 11 42  1  0  0  0  0
 12 43  1  0  0  0  0
 12 44  1  0  0  0  0
 13 45  1  0  0  0  0
 13 46  1  0  0  0  0
 13 47  1  0  0  0  0
 14 48  1  0  0  0  0
 15 49  1  0  0  0  0
 15 50  1  0  0  0  0
 16 51  1  0  0  0  0
 20 52  1  0  0  0  0
 20 53  1  0  0  0  0
 20 54  1  0  0  0  0
 21 55  1  0  0  0  0
 21 56  1  0  0  0  0
 23 57  1  0  0  0  0
 24 58  1  0  0  0  0
 25 59  1  0  0  0  0
 26 60  1  0  0  0  0
 27 61  1  0  0  0  0
M  CHG  1   8   1
M  END
>  <result-rank>
64

>  <similarity>
0.941

>  <query-name>
LIG_A_1101_C[NH+](C)[C@H]([R*])C1CCC1_2

>  <query-smiles>
O=C(N[C@@H]([NH+](C)C)C1CCC1)[C@@H](NC(=O)C)Cc2ccc(O)cc2

>  <source>
REALspace_2019-12

>  <similarity-descriptor>
0.979;0.960;0.995;1.000;0.979;1.000;1.000;1.000;0.824;0.824;0.855;0.994;1.000;0.0;0.067

>  <similarity-descriptor-smiles>
C1CCCCC1;c1ccccc1;O=C;N;C1CCCCC1;[NH+];C;C;NCC;NCC;C(=O)O;C;C;;C

>  <reaction-name>
s_2708

>  <reagent1-name>
13152144

>  <reagent1-smiles>
[R1*]C(=O)NCC(C(=O)OC)Cc1ccccc1

>  <reagent2-name>
12549494

>  <reagent2-smiles>
[R1*]NC1CCC(N(C)C)(CC1)C

$$$$
s_2708____5730620____8964600
          04022015103D 1   1.00000     0.00000     0
            
 53 54  0  0  0  0            999 V2000
    0.9150    1.0000    3.2257 O   0  0  0  0  0  0  0  0  0  0  0  0
    0.3150    1.0000    2.1865 C   0  0  0  0  0  0  0  0  0  0  0  0
   -1.0550    1.0000    2.1865 N   0  0  0  0  0  0  0  0  0  0  0  0
   -1.7913    1.0000    3.4617 C   0  0  3  0  0  0  0  0  0  0  0  0
   -2.6682    2.2383    3.5508 C   0  0  0  0  0  0  0  0  0  0  0  0
   -3.4430    2.2184    4.8585 C   0  0  3  0  0  0  0  0  0  0  0  0
   -4.2598    0.9989    4.9586 N   0  3  3  0  0  0  0  0  0  0  0  0
   -3.4418   -0.2190    4.8603 C   0  0  0  0  0  0  0  0  0  0  0  0
   -2.6698   -0.2376    3.5506 C   0  0  0  0  0  0  0  0  0  0  0  0
   -4.9837    0.9541    6.2377 C   0  0  0  0  0  0  0  0  0  0  0  0
   -4.3089    3.4667    4.9138 C   0  0  0  0  0  0  0  0  0  0  0  0
    1.0000    1.0000    1.0000 N   0  0  0  0  0  0  0  0  0  0  0  0
    2.4700    1.0000    1.0000 C   0  0  0  0  0  0  0  0  0  0  0  0
    2.9768   -0.4334    1.0000 C   0  0  0  0  0  0  0  0  0  0  0  0
    3.2047   -1.0782   -0.2117 C   0  0  0  0  0  0  0  0  0  0  0  0
    3.6696   -2.3889   -0.2177 C   0  0  0  0  0  0  0  0  0  0  0  0
    3.9018   -3.0384    0.9904 C   0  0  0  0  0  0  0  0  0  0  0  0
    3.6733   -2.3951    2.2020 C   0  0  0  0  0  0  0  0  0  0  0  0
    3.2070   -1.0846    2.2080 C   0  0  0  0  0  0  0  0  0  0  0  0
    4.4108   -4.4707    0.9901 C   0  0  0  0  0  0  0  0  0  0  0  0
    4.5679   -4.9169   -0.3488 O   0  0  0  0  0  0  0  0  0  0  0  0
    5.7507   -4.5324    1.7052 C   0  0  0  0  0  0  0  0  0  0  0  0
    3.4118   -5.3636    1.7078 C   0  0  0  0  0  0  0  0  0  0  0  0
   -4.9264    0.9980    4.2132 H   0  0  0  0  0  0  0  0  0  0  0  0
   -1.5550    1.0000    1.3204 H   0  0  0  0  0  0  0  0  0  0  0  0
   -1.1401    0.9996    4.2206 H   0  0  0  0  0  0  0  0  0  0  0  0
   -2.0942    3.0564    3.5160 H   0  0  0  0  0  0  0  0  0  0  0  0
   -3.3096    2.2483    2.7836 H   0  0  0  0  0  0  0  0  0  0  0  0
   -2.7952    2.2386    5.6200 H   0  0  0  0  0  0  0  0  0  0  0  0
   -4.0385   -1.0204    4.9020 H   0  0  0  0  0  0  0  0  0  0  0  0
   -2.7960   -0.2442    5.6234 H   0  0  0  0  0  0  0  0  0  0  0  0
   -2.0969   -1.0563    3.5131 H   0  0  0  0  0  0  0  0  0  0  0  0
   -3.3129   -0.2454    2.7848 H   0  0  0  0  0  0  0  0  0  0  0  0
   -5.5305    0.1180    6.2821 H   0  0  0  0  0  0  0  0  0  0  0  0
   -4.3278    0.9639    6.9924 H   0  0  0  0  0  0  0  0  0  0  0  0
   -5.5851    1.7499    6.3083 H   0  0  0  0  0  0  0  0  0  0  0  0
   -3.7288    4.2782    4.8438 H   0  0  0  0  0  0  0  0  0  0  0  0
   -4.9592    3.4553    4.1542 H   0  0  0  0  0  0  0  0  0  0  0  0
   -4.8085    3.4878    5.7799 H   0  0  0  0  0  0  0  0  0  0  0  0
    0.5000    1.0000    0.1340 H   0  0  0  0  0  0  0  0  0  0  0  0
    2.8033    1.4714    1.8165 H   0  0  0  0  0  0  0  0  0  0  0  0
    2.8033    1.4714    0.1835 H   0  0  0  0  0  0  0  0  0  0  0  0
    3.0351   -0.6014   -1.0741 H   0  0  0  0  0  0  0  0  0  0  0  0
    3.8357   -2.8607   -1.0836 H   0  0  0  0  0  0  0  0  0  0  0  0
    3.8433   -2.8721    3.0643 H   0  0  0  0  0  0  0  0  0  0  0  0
    3.0384   -0.6140    3.0740 H   0  0  0  0  0  0  0  0  0  0  0  0
    4.9028   -5.8591   -0.3490 H   0  0  0  0  0  0  0  0  0  0  0  0
    5.6400   -4.2182    2.6481 H   0  0  0  0  0  0  0  0  0  0  0  0
    6.0855   -5.4746    1.7050 H   0  0  0  0  0  0  0  0  0  0  0  0
    6.4079   -3.9449    1.2330 H   0  0  0  0  0  0  0  0  0  0  0  0
    3.3012   -5.0494    2.6507 H   0  0  0  0  0  0  0  0  0  0  0  0
    2.5303   -5.3230    1.2373 H   0  0  0  0  0  0  0  0  0  0  0  0
    3.7467   -6.3059    1.7076 H   0  0  0  0  0  0  0  0  0  0  0  0
  1  2  2  0  0  0  0
  2  3  1  0  0  0  0
  3  4  1  0  0  0  0
  4  5  1  0  0  0  0
  5  6  1  0  0  0  0
  6  7  1  0  0  0  0
  7  8  1  0  0  0  0
  8  9  1  0  0  0  0
  9  4  1  0  0  0  0
  7 10  1  0  0  0  0
  6 11  1  0  0  0  0
  2 12  1  0  0  0  0
 12 13  1  0  0  0  0
 13 14  1  0  0  0  0
 14 15  1  0  0  0  0
 15 16  2  0  0  0  0
 16 17  1  0  0  0  0
 17 18  2  0  0  0  0
 18 19  1  0  0  0  0
 19 14  2  0  0  0  0
 17 20  1  0  0  0  0
 20 21  1  0  0  0  0
 20 22  1  0  0  0  0
 20 23  1  0  0  0  0
  7 24  1  0  0  0  0
  3 25  1  0  0  0  0
  4 26  1  0  0  0  0
  5 27  1  0  0  0  0
  5 28  1  0  0  0  0
  6 29  1  0  0  0  0
  8 30  1  0  0  0  0
  8 31  1  0  0  0  0
  9 32  1  0  0  0  0
  9 33  1  0  0  0  0
 10 34  1  0  0  0  0
 10 35  1  0  0  0  0
 10 36  1  0  0  0  0
 11 37  1  0  0  0  0
 11 38  1  0  0  0  0
 11 39  1  0  0  0  0
 12 40  1  0  0  0  0
 13 41  1  0  0  0  0
 13 42  1  0  0  0  0
 15 43  1  0  0  0  0
 16 44  1  0  0  0  0
 18 45  1  0  0  0  0
 19 46  1  0  0  0  0
 21 47  1  0  0  0  0
 22 48  1  0  0  0  0
 22 49  1  0  0  0  0
 22 50  1  0  0  0  0
 23 51  1  0  0  0  0
 23 52  1  0  0  0  0
 23 53  1  0  0  0  0
M  CHG  1   7   1
M  END
>  <result-rank>
65

>  <similarity>
0.940

>  <query-name>
LIG_A_1101_C[NH+](C)[C@H]([R*])C1CCC1_2

>  <query-smiles>
O=C(N[C@@H]([NH+](C)C)C1CCC1)[C@@H](NC(=O)C)Cc2ccc(O)cc2

>  <source>
REALspace_2019-12

>  <similarity-descriptor>
0.999;0.990;0.995;1.000;0.999;0.999;1.000;0.995;0.869;0.869;0.0;0.0;0.869;0.859;0.167

>  <similarity-descriptor-smiles>
C1CC[NH+]CC1;c1ccc(cc1)C;O=C;N;C1CC[NH+]CC1;C1CC[NH+]CC1;C;C;NC;NC;;;NC;O;C.C

>  <reaction-name>
s_2708

>  <reagent1-name>
5730620

>  <reagent1-smiles>
[R1*]C(=O)NC1CC(N(CC1)C)C

>  <reagent2-name>
8964600

>  <reagent2-smiles>
[R1*]NCc1ccc(cc1)C(O)(C)C

$$$$
s_240690b____13141992____14577254
          04022015103D 1   1.00000     0.00000     0
            
 54 55  0  0  0  0            999 V2000
    7.2785    0.9382    3.7620 F   0  0  0  0  0  0  0  0  0  0  0  0
    6.6093    0.3642    2.7665 C   0  0  0  0  0  0  0  0  0  0  0  0
    7.3108   -0.2378    1.7262 C   0  0  0  0  0  0  0  0  0  0  0  0
    8.6613   -0.2355    1.7318 O   0  0  0  0  0  0  0  0  0  0  0  0
    6.6328   -0.8454    0.6745 C   0  0  0  0  0  0  0  0  0  0  0  0
    5.2418   -0.8446    0.6739 C   0  0  0  0  0  0  0  0  0  0  0  0
    4.5463   -0.2411    1.7165 C   0  0  0  0  0  0  0  0  0  0  0  0
    5.2188    0.3675    2.7705 C   0  0  0  0  0  0  0  0  0  0  0  0
    3.0267   -0.2411    1.7165 C   0  0  0  0  0  0  0  0  0  0  0  0
    2.5200    1.0000    1.0000 C   0  0  3  0  0  0  0  0  0  0  0  0
    3.0100    1.0000   -0.3859 N   0  3  0  0  0  0  0  0  0  0  0  0
    1.0000    1.0000    1.0000 C   0  0  0  0  0  0  0  0  0  0  0  0
    0.4000    1.0000   -0.0392 O   0  0  0  0  0  0  0  0  0  0  0  0
    0.3150    1.0000    2.1865 N   0  0  0  0  0  0  0  0  0  0  0  0
   -1.1547    1.0000    2.1865 C   0  0  3  0  0  0  0  0  0  0  0  0
   -1.6581    2.2434    2.9043 C   0  0  0  0  0  0  0  0  0  0  0  0
   -3.1774    2.2234    3.0124 C   0  0  0  0  0  0  0  0  0  0  0  0
   -3.6887    0.9659    3.6980 C   0  0  3  0  0  0  0  0  0  0  0  0
   -5.1573    0.9796    3.7010 N   0  3  0  0  0  0  0  0  0  0  0  0
   -5.6572   -0.2340    4.3628 C   0  0  0  0  0  0  0  0  0  0  0  0
   -5.6348    2.1655    4.4266 C   0  0  0  0  0  0  0  0  0  0  0  0
   -3.1965   -0.2397    2.9084 C   0  0  0  0  0  0  0  0  0  0  0  0
   -1.6818   -0.2905    2.7919 C   0  0  0  0  0  0  0  0  0  0  0  0
   -3.2462    0.9024    5.1522 C   0  0  0  0  0  0  0  0  0  0  0  0
    4.0100    1.0000   -0.3859 H   0  0  0  0  0  0  0  0  0  0  0  0
    2.6767    0.1835   -0.8573 H   0  0  0  0  0  0  0  0  0  0  0  0
    2.6767    1.8165   -0.8573 H   0  0  0  0  0  0  0  0  0  0  0  0
   -5.4922    1.0078    2.7592 H   0  0  0  0  0  0  0  0  0  0  0  0
    9.1651   -0.6682    0.9841 H   0  0  0  0  0  0  0  0  0  0  0  0
    7.1392   -1.2773   -0.0719 H   0  0  0  0  0  0  0  0  0  0  0  0
    4.7418   -1.2779   -0.0759 H   0  0  0  0  0  0  0  0  0  0  0  0
    4.7123    0.7990    3.5170 H   0  0  0  0  0  0  0  0  0  0  0  0
    2.6933   -0.2411    2.6593 H   0  0  0  0  0  0  0  0  0  0  0  0
    2.6933   -1.0576    1.2451 H   0  0  0  0  0  0  0  0  0  0  0  0
    2.8533    1.8165    1.4714 H   0  0  0  0  0  0  0  0  0  0  0  0
    0.8150    1.0000    3.0525 H   0  0  0  0  0  0  0  0  0  0  0  0
   -1.4640    1.0448    1.2365 H   0  0  0  0  0  0  0  0  0  0  0  0
   -1.3759    3.0549    2.3927 H   0  0  0  0  0  0  0  0  0  0  0  0
   -1.2639    2.2746    3.8228 H   0  0  0  0  0  0  0  0  0  0  0  0
   -3.4731    3.0202    3.5393 H   0  0  0  0  0  0  0  0  0  0  0  0
   -3.5662    2.2691    2.0922 H   0  0  0  0  0  0  0  0  0  0  0  0
   -6.6572   -0.2247    4.3648 H   0  0  0  0  0  0  0  0  0  0  0  0
   -5.3324   -1.0408    3.8691 H   0  0  0  0  0  0  0  0  0  0  0  0
   -5.3223   -0.2622    5.3046 H   0  0  0  0  0  0  0  0  0  0  0  0
   -6.6347    2.1748    4.4287 H   0  0  0  0  0  0  0  0  0  0  0  0
   -5.2998    2.1373    5.3684 H   0  0  0  0  0  0  0  0  0  0  0  0
   -5.2946    2.9911    3.9764 H   0  0  0  0  0  0  0  0  0  0  0  0
   -3.5864   -0.1997    1.9884 H   0  0  0  0  0  0  0  0  0  0  0  0
   -3.5095   -1.0713    3.3672 H   0  0  0  0  0  0  0  0  0  0  0  0
   -1.2851   -0.4140    3.7015 H   0  0  0  0  0  0  0  0  0  0  0  0
   -1.4216   -1.0591    2.2076 H   0  0  0  0  0  0  0  0  0  0  0  0
   -2.2473    0.8912    5.1965 H   0  0  0  0  0  0  0  0  0  0  0  0
   -3.5926    1.7029    5.6412 H   0  0  0  0  0  0  0  0  0  0  0  0
   -3.6079    0.0714    5.5747 H   0  0  0  0  0  0  0  0  0  0  0  0
  1  2  1  0  0  0  0
  2  3  1  0  0  0  0
  3  4  1  0  0  0  0
  3  5  2  0  0  0  0
  5  6  1  0  0  0  0
  6  7  2  0  0  0  0
  7  8  1  0  0  0  0
  8  2  2  0  0  0  0
  7  9  1  0  0  0  0
  9 10  1  0  0  0  0
 10 11  1  0  0  0  0
 10 12  1  0  0  0  0
 12 13  2  0  0  0  0
 12 14  1  0  0  0  0
 14 15  1  0  0  0  0
 15 16  1  0  0  0  0
 16 17  1  0  0  0  0
 17 18  1  0  0  0  0
 18 19  1  0  0  0  0
 19 20  1  0  0  0  0
 19 21  1  0  0  0  0
 18 22  1  0  0  0  0
 22 23  1  0  0  0  0
 23 15  1  0  0  0  0
 18 24  1  0  0  0  0
 11 25  1  0  0  0  0
 11 26  1  0  0  0  0
 11 27  1  0  0  0  0
 19 28  1  0  0  0  0
  4 29  1  0  0  0  0
  5 30  1  0  0  0  0
  6 31  1  0  0  0  0
  8 32  1  0  0  0  0
  9 33  1  0  0  0  0
  9 34  1  0  0  0  0
 10 35  1  0  0  0  0
 14 36  1  0  0  0  0
 15 37  1  0  0  0  0
 16 38  1  0  0  0  0
 16 39  1  0  0  0  0
 17 40  1  0  0  0  0
 17 41  1  0  0  0  0
 20 42  1  0  0  0  0
 20 43  1  0  0  0  0
 20 44  1  0  0  0  0
 21 45  1  0  0  0  0
 21 46  1  0  0  0  0
 21 47  1  0  0  0  0
 22 48  1  0  0  0  0
 22 49  1  0  0  0  0
 23 50  1  0  0  0  0
 23 51  1  0  0  0  0
 24 52  1  0  0  0  0
 24 53  1  0  0  0  0
 24 54  1  0  0  0  0
M  CHG  2  11   1  19   1
M  END
>  <result-rank>
66

>  <similarity>
0.940

>  <query-name>
LIG_A_1101_C[NH+](C)[C@H]([R*])C1CCC1_2

>  <query-smiles>
O=C(N[C@@H]([NH+](C)C)C1CCC1)[C@@H](NC(=O)C)Cc2ccc(O)cc2

>  <source>
REALspace_2019-12

>  <similarity-descriptor>
0.979;0.965;1.000;1.000;0.979;1.000;1.000;1.000;1.000;0.585;0.0;0.0;1.000;1.000;0.083

>  <similarity-descriptor-smiles>
C1CCCCC1;Fc1ccccc1;C=O;N;C1CCCCC1;[NH+];C;C;CC;[NH3+];;;CC;O;C

>  <reaction-name>
s_240690b

>  <reagent1-name>
13141992

>  <reagent1-smiles>
[R1*]NC1CCC(N(C)C)(CC1)C

>  <reagent2-name>
14577254

>  <reagent2-smiles>
[R1*]C(=O)C(N)Cc1cc(F)c(O)cc1

$$$$
s_22____11971250____107333
          04022015103D 1   1.00000     0.00000     0
            
 49 50  0  0  0  0            999 V2000
    0.0027   -2.7339    7.9404 Br  0  0  0  0  0  0  0  0  0  0  0  0
   -0.5455   -1.4586    6.5568 C   0  0  0  0  0  0  0  0  0  0  0  0
   -1.2787   -1.9031    5.4614 C   0  0  0  0  0  0  0  0  0  0  0  0
   -1.6650   -0.9933    4.4827 C   0  0  0  0  0  0  0  0  0  0  0  0
   -1.3149    0.3470    4.6093 C   0  0  0  0  0  0  0  0  0  0  0  0
   -0.5814    0.7848    5.7075 C   0  0  0  0  0  0  0  0  0  0  0  0
   -0.1916   -0.1194    6.6901 C   0  0  0  0  0  0  0  0  0  0  0  0
   -1.7407    1.3359    3.5365 C   0  0  3  0  0  0  0  0  0  0  0  0
   -3.2083    1.3966    3.4807 N   0  0  0  0  0  0  0  0  0  0  0  0
   -3.8542    2.5821    3.7139 C   0  0  0  0  0  0  0  0  0  0  0  0
   -3.2218    3.5709    3.9637 O   0  0  0  0  0  0  0  0  0  0  0  0
   -5.3718    2.6449    3.6563 C   0  0  0  0  0  0  0  0  0  0  0  0
   -1.2007    0.8853    2.1890 C   0  0  0  0  0  0  0  0  0  0  0  0
    0.3150    1.0000    2.1865 C   0  0  0  0  0  0  0  0  0  0  0  0
    0.9116    1.0906    3.2237 O   0  0  0  0  0  0  0  0  0  0  0  0
    1.0000    1.0000    1.0000 N   0  0  0  0  0  0  0  0  0  0  0  0
    2.4700    1.0000    1.0000 C   0  0  0  0  0  0  0  0  0  0  0  0
    2.9767    1.0000   -0.4331 C   0  0  0  0  0  0  0  0  0  0  0  0
    4.4974    1.0000   -0.4331 C   0  0  0  0  0  0  0  0  0  0  0  0
    5.2350    2.1506    0.2312 C   0  0  0  0  0  0  0  0  0  0  0  0
    4.7818    3.7050   -0.5778 S   0  0  0  0  0  0  0  0  0  0  0  0
    5.7896    4.8411    0.4071 C   0  0  0  0  0  0  0  0  0  0  0  0
    5.1541   -0.3466   -0.3219 C   0  0  0  0  0  0  0  0  0  0  0  0
    5.1607    0.3859   -1.6330 C   0  0  0  0  0  0  0  0  0  0  0  0
   -1.5260   -2.8685    5.3783 H   0  0  0  0  0  0  0  0  0  0  0  0
   -2.1924   -1.3016    3.6909 H   0  0  0  0  0  0  0  0  0  0  0  0
   -0.3343    1.7503    5.7905 H   0  0  0  0  0  0  0  0  0  0  0  0
    0.3360    0.1888    7.4817 H   0  0  0  0  0  0  0  0  0  0  0  0
   -1.3776    2.2417    3.7551 H   0  0  0  0  0  0  0  0  0  0  0  0
   -3.7353    0.5726    3.2726 H   0  0  0  0  0  0  0  0  0  0  0  0
   -5.7349    1.7391    3.4377 H   0  0  0  0  0  0  0  0  0  0  0  0
   -5.7271    2.9414    4.5428 H   0  0  0  0  0  0  0  0  0  0  0  0
   -5.6520    3.2955    2.9504 H   0  0  0  0  0  0  0  0  0  0  0  0
   -1.4632   -0.0657    2.0258 H   0  0  0  0  0  0  0  0  0  0  0  0
   -1.5800    1.4643    1.4673 H   0  0  0  0  0  0  0  0  0  0  0  0
    0.5000    1.0000    0.1340 H   0  0  0  0  0  0  0  0  0  0  0  0
    2.8033    0.1835    1.4714 H   0  0  0  0  0  0  0  0  0  0  0  0
    2.8033    1.8165    1.4714 H   0  0  0  0  0  0  0  0  0  0  0  0
    2.6433    0.1835   -0.9045 H   0  0  0  0  0  0  0  0  0  0  0  0
    2.6433    1.8165   -0.9045 H   0  0  0  0  0  0  0  0  0  0  0  0
    4.9846    2.1929    1.1985 H   0  0  0  0  0  0  0  0  0  0  0  0
    6.2211    2.0067    0.1481 H   0  0  0  0  0  0  0  0  0  0  0  0
    5.6530    5.7764    0.0805 H   0  0  0  0  0  0  0  0  0  0  0  0
    5.5180    4.7804    1.3676 H   0  0  0  0  0  0  0  0  0  0  0  0
    6.7544    4.5942    0.3172 H   0  0  0  0  0  0  0  0  0  0  0  0
    4.5947   -1.1680   -0.2109 H   0  0  0  0  0  0  0  0  0  0  0  0
    6.0020   -0.4479    0.1985 H   0  0  0  0  0  0  0  0  0  0  0  0
    6.0130    0.7723   -1.9855 H   0  0  0  0  0  0  0  0  0  0  0  0
    4.6057    0.0521   -2.3949 H   0  0  0  0  0  0  0  0  0  0  0  0
  1  2  1  0  0  0  0
  2  3  1  0  0  0  0
  3  4  2  0  0  0  0
  4  5  1  0  0  0  0
  5  6  2  0  0  0  0
  6  7  1  0  0  0  0
  7  2  2  0  0  0  0
  5  8  1  0  0  0  0
  8  9  1  0  0  0  0
  9 10  1  0  0  0  0
 10 11  2  0  0  0  0
 10 12  1  0  0  0  0
  8 13  1  0  0  0  0
 13 14  1  0  0  0  0
 14 15  2  0  0  0  0
 14 16  1  0  0  0  0
 16 17  1  0  0  0  0
 17 18  1  0  0  0  0
 18 19  1  0  0  0  0
 19 20  1  0  0  0  0
 20 21  1  0  0  0  0
 21 22  1  0  0  0  0
 19 23  1  0  0  0  0
 23 24  1  0  0  0  0
 24 19  1  0  0  0  0
  3 25  1  0  0  0  0
  4 26  1  0  0  0  0
  6 27  1  0  0  0  0
  7 28  1  0  0  0  0
  8 29  1  0  0  0  0
  9 30  1  0  0  0  0
 12 31  1  0  0  0  0
 12 32  1  0  0  0  0
 12 33  1  0  0  0  0
 13 34  1  0  0  0  0
 13 35  1  0  0  0  0
 16 36  1  0  0  0  0
 17 37  1  0  0  0  0
 17 38  1  0  0  0  0
 18 39  1  0  0  0  0
 18 40  1  0  0  0  0
 20 41  1  0  0  0  0
 20 42  1  0  0  0  0
 22 43  1  0  0  0  0
 22 44  1  0  0  0  0
 22 45  1  0  0  0  0
 23 46  1  0  0  0  0
 23 47  1  0  0  0  0
 24 48  1  0  0  0  0
 24 49  1  0  0  0  0
M  END
>  <result-rank>
67

>  <similarity>
0.940

>  <query-name>
LIG_A_1101_C[NH+](C)[C@H]([R*])C1CCC1_2

>  <query-smiles>
O=C(N[C@@H]([NH+](C)C)C1CCC1)[C@@H](NC(=O)C)Cc2ccc(O)cc2

>  <source>
REALspace_2019-12

>  <similarity-descriptor>
0.975;0.962;1.000;1.000;0.942;0.0;0.0;0.0;1.000;1.000;1.000;1.000;1.000;0.0;0.143

>  <similarity-descriptor-smiles>
CC1(CC1)C;Brc1ccccc1;C=O;N;C;;;;CC;N;C=O;C;CC;;S.C

>  <reaction-name>
s_22

>  <reagent1-name>
11971250

>  <reagent1-smiles>
[R1*]NCCC1(CSC)CC1

>  <reagent2-name>
107333

>  <reagent2-smiles>
[R1*]C(=O)CC(NC(=O)C)c1ccc(Br)cc1

$$$$
s_22____8283152____107332
          04022015103D 1   1.00000     0.00000     0
            
 52 53  0  0  0  0            999 V2000
    7.9675    1.5121   -3.4183 Cl  0  0  0  0  0  0  0  0  0  0  0  0
    6.9696    1.0358   -2.0235 C   0  0  0  0  0  0  0  0  0  0  0  0
    6.2623   -0.1608   -2.0556 C   0  0  0  0  0  0  0  0  0  0  0  0
    5.4806   -0.5365   -0.9678 C   0  0  0  0  0  0  0  0  0  0  0  0
    5.4188    0.2970    0.1438 C   0  0  0  0  0  0  0  0  0  0  0  0
    6.1258    1.4939    0.1762 C   0  0  0  0  0  0  0  0  0  0  0  0
    6.9076    1.8697   -0.9118 C   0  0  0  0  0  0  0  0  0  0  0  0
    4.5670   -0.1053    1.3359 C   0  0  3  0  0  0  0  0  0  0  0  0
    5.0851   -1.3561    1.9086 N   0  0  0  0  0  0  0  0  0  0  0  0
    5.5150   -1.3876    3.2090 C   0  0  0  0  0  0  0  0  0  0  0  0
    5.4686   -0.3942    3.8805 O   0  0  0  0  0  0  0  0  0  0  0  0
    6.0507   -2.6810    3.8011 C   0  0  0  0  0  0  0  0  0  0  0  0
    3.1300   -0.3113    0.8853 C   0  0  0  0  0  0  0  0  0  0  0  0
    2.3700    1.0000    1.0000 C   0  0  0  0  0  0  0  0  0  0  0  0
    2.9700    2.0353    1.0906 O   0  0  0  0  0  0  0  0  0  0  0  0
    1.0000    1.0000    1.0000 N   0  0  0  0  0  0  0  0  0  0  0  0
    0.2650    2.2731    1.0000 C   0  0  0  0  0  0  0  0  0  0  0  0
   -1.2301    1.9952    1.0000 C   0  0  0  0  0  0  0  0  0  0  0  0
   -2.1960    3.1555    0.8266 C   0  0  3  0  0  0  0  0  0  0  0  0
   -2.0720    3.6824   -0.4862 O   0  0  0  0  0  0  0  0  0  0  0  0
   -1.8720    4.2404    1.8407 C   0  0  0  0  0  0  0  0  0  0  0  0
   -2.2451    5.5977    1.2673 C   0  0  0  0  0  0  0  0  0  0  0  0
   -2.6621    3.9944    3.1157 C   0  0  0  0  0  0  0  0  0  0  0  0
   -1.6562    0.6939    0.3820 C   0  0  0  0  0  0  0  0  0  0  0  0
   -1.6947    0.8647    1.8735 C   0  0  0  0  0  0  0  0  0  0  0  0
    6.3155   -0.7516   -2.8607 H   0  0  0  0  0  0  0  0  0  0  0  0
    4.9692   -1.3957   -0.9850 H   0  0  0  0  0  0  0  0  0  0  0  0
    6.0724    2.0846    0.9813 H   0  0  0  0  0  0  0  0  0  0  0  0
    7.4188    2.7290   -0.8947 H   0  0  0  0  0  0  0  0  0  0  0  0
    4.5992    0.6164    2.0273 H   0  0  0  0  0  0  0  0  0  0  0  0
    5.1238   -2.1839    1.3489 H   0  0  0  0  0  0  0  0  0  0  0  0
    6.0185   -3.4027    3.1097 H   0  0  0  0  0  0  0  0  0  0  0  0
    6.9961   -2.5454    4.0976 H   0  0  0  0  0  0  0  0  0  0  0  0
    5.4901   -2.9458    4.5857 H   0  0  0  0  0  0  0  0  0  0  0  0
    3.1199   -0.6203   -0.0657 H   0  0  0  0  0  0  0  0  0  0  0  0
    2.6947   -1.0007    1.4643 H   0  0  0  0  0  0  0  0  0  0  0  0
    0.5000    0.1340    1.0000 H   0  0  0  0  0  0  0  0  0  0  0  0
    0.5066    2.7974    0.1835 H   0  0  0  0  0  0  0  0  0  0  0  0
    0.5066    2.7974    1.8165 H   0  0  0  0  0  0  0  0  0  0  0  0
   -3.1321    2.8342    0.9698 H   0  0  0  0  0  0  0  0  0  0  0  0
   -2.7076    4.4459   -0.6003 H   0  0  0  0  0  0  0  0  0  0  0  0
   -0.8935    4.2230    2.0463 H   0  0  0  0  0  0  0  0  0  0  0  0
   -2.0320    6.3114    1.9345 H   0  0  0  0  0  0  0  0  0  0  0  0
   -1.7253    5.7595    0.4285 H   0  0  0  0  0  0  0  0  0  0  0  0
   -3.2236    5.6151    1.0617 H   0  0  0  0  0  0  0  0  0  0  0  0
   -2.4489    4.7081    3.7829 H   0  0  0  0  0  0  0  0  0  0  0  0
   -3.6406    4.0118    2.9101 H   0  0  0  0  0  0  0  0  0  0  0  0
   -2.4166    3.1014    3.4929 H   0  0  0  0  0  0  0  0  0  0  0  0
   -0.9753    0.0917   -0.0349 H   0  0  0  0  0  0  0  0  0  0  0  0
   -2.5091    0.6427   -0.1376 H   0  0  0  0  0  0  0  0  0  0  0  0
   -2.5732    0.9273    2.3471 H   0  0  0  0  0  0  0  0  0  0  0  0
   -1.0394    0.3763    2.4498 H   0  0  0  0  0  0  0  0  0  0  0  0
  1  2  1  0  0  0  0
  2  3  1  0  0  0  0
  3  4  2  0  0  0  0
  4  5  1  0  0  0  0
  5  6  2  0  0  0  0
  6  7  1  0  0  0  0
  7  2  2  0  0  0  0
  5  8  1  0  0  0  0
  8  9  1  0  0  0  0
  9 10  1  0  0  0  0
 10 11  2  0  0  0  0
 10 12  1  0  0  0  0
  8 13  1  0  0  0  0
 13 14  1  0  0  0  0
 14 15  2  0  0  0  0
 14 16  1  0  0  0  0
 16 17  1  0  0  0  0
 17 18  1  0  0  0  0
 18 19  1  0  0  0  0
 19 20  1  0  0  0  0
 19 21  1  0  0  0  0
 21 22  1  0  0  0  0
 21 23  1  0  0  0  0
 18 24  1  0  0  0  0
 24 25  1  0  0  0  0
 25 18  1  0  0  0  0
  3 26  1  0  0  0  0
  4 27  1  0  0  0  0
  6 28  1  0  0  0  0
  7 29  1  0  0  0  0
  8 30  1  0  0  0  0
  9 31  1  0  0  0  0
 12 32  1  0  0  0  0
 12 33  1  0  0  0  0
 12 34  1  0  0  0  0
 13 35  1  0  0  0  0
 13 36  1  0  0  0  0
 16 37  1  0  0  0  0
 17 38  1  0  0  0  0
 17 39  1  0  0  0  0
 19 40  1  0  0  0  0
 20 41  1  0  0  0  0
 21 42  1  0  0  0  0
 22 43  1  0  0  0  0
 22 44  1  0  0  0  0
 22 45  1  0  0  0  0
 23 46  1  0  0  0  0
 23 47  1  0  0  0  0
 23 48  1  0  0  0  0
 24 49  1  0  0  0  0
 24 50  1  0  0  0  0
 25 51  1  0  0  0  0
 25 52  1  0  0  0  0
M  END
>  <result-rank>
68

>  <similarity>
0.940

>  <query-name>
LIG_A_1101_C[NH+](C)[C@H]([R*])C1CCC1_2

>  <query-smiles>
O=C(N[C@@H]([NH+](C)C)C1CCC1)[C@@H](NC(=O)C)Cc2ccc(O)cc2

>  <source>
REALspace_2019-12

>  <similarity-descriptor>
0.997;0.968;1.000;1.000;0.942;0.0;0.0;0.0;1.000;1.000;1.000;1.000;1.000;0.0;0.200

>  <similarity-descriptor-smiles>
C1(CC1)CC;Clc1ccccc1;C=O;N;C;;;;CC;N;C=O;C;CC;;O.C.C

>  <reaction-name>
s_22

>  <reagent1-name>
8283152

>  <reagent1-smiles>
[R1*]NCC1(C(O)C(C)C)CC1

>  <reagent2-name>
107332

>  <reagent2-smiles>
[R1*]C(=O)CC(NC(=O)C)c1ccc(Cl)cc1

$$$$
s_272212____16644262____13258946
          04022015103D 1   1.00000     0.00000     0
            
 50 52  0  0  0  0            999 V2000
    5.3748    2.3675    2.5042 O   0  0  0  0  0  0  0  0  0  0  0  0
    4.1563    2.3054    2.5113 C   0  0  0  0  0  0  0  0  0  0  0  0
    3.2951    3.4001    2.4929 N   0  0  0  0  0  0  0  0  0  0  0  0
    1.9778    2.9536    2.5145 C   0  0  0  0  0  0  0  0  0  0  0  0
    0.9867    3.6634    2.5238 O   0  0  0  0  0  0  0  0  0  0  0  0
    1.9806    1.4372    2.5384 C   0  0  3  0  0  0  0  0  0  0  0  0
    3.4120    1.1287    2.5469 N   0  0  0  0  0  0  0  0  0  0  0  0
    3.9801   -0.2268    2.6012 C   0  0  0  0  0  0  0  0  0  0  0  0
    1.3849    0.9456    1.2299 C   0  0  0  0  0  0  0  0  0  0  0  0
    0.1310    0.3435    1.2434 C   0  0  0  0  0  0  0  0  0  0  0  0
   -0.4127   -0.1050    0.0448 C   0  0  0  0  0  0  0  0  0  0  0  0
   -1.6274   -0.6930    0.0355 O   0  0  0  0  0  0  0  0  0  0  0  0
    0.2862    0.0455   -1.1485 C   0  0  0  0  0  0  0  0  0  0  0  0
    1.5403    0.6484   -1.1491 C   0  0  0  0  0  0  0  0  0  0  0  0
    2.0944    1.1021    0.0434 C   0  0  0  0  0  0  0  0  0  0  0  0
    3.7148    4.8075    2.4635 C   0  0  3  0  0  0  0  0  0  0  0  0
    3.1417    5.4246    1.1917 C   0  0  0  0  0  0  0  0  0  0  0  0
    3.6152    6.7837    0.8589 N   0  3  3  0  0  0  0  0  0  0  0  0
    3.6943    7.7429    1.9782 C   0  0  0  0  0  0  0  0  0  0  0  0
    4.7341    7.3457    3.0243 C   0  0  0  0  0  0  0  0  0  0  0  0
    4.2045    6.5652    4.1540 N   0  3  3  0  0  0  0  0  0  0  0  0
    3.2707    5.4999    3.7440 C   0  0  0  0  0  0  0  0  0  0  0  0
    3.5176    7.4181    5.1344 C   0  0  0  0  0  0  0  0  0  0  0  0
    2.7025    7.3487   -0.1444 C   0  0  0  0  0  0  0  0  0  0  0  0
    4.5235    6.7068    0.4478 H   0  0  0  0  0  0  0  0  0  0  0  0
    4.9786    6.1319    4.6154 H   0  0  0  0  0  0  0  0  0  0  0  0
    1.5056    1.0672    3.3368 H   0  0  0  0  0  0  0  0  0  0  0  0
    3.2393   -0.8983    2.6185 H   0  0  0  0  0  0  0  0  0  0  0  0
    4.5513   -0.3814    1.7950 H   0  0  0  0  0  0  0  0  0  0  0  0
    4.5361   -0.3224    3.4269 H   0  0  0  0  0  0  0  0  0  0  0  0
   -0.3712    0.2350    2.1013 H   0  0  0  0  0  0  0  0  0  0  0  0
   -2.0199   -1.0161   -0.8256 H   0  0  0  0  0  0  0  0  0  0  0  0
   -0.1127   -0.2796   -2.0060 H   0  0  0  0  0  0  0  0  0  0  0  0
    2.0432    0.7554   -2.0068 H   0  0  0  0  0  0  0  0  0  0  0  0
    2.9949    1.5371    0.0478 H   0  0  0  0  0  0  0  0  0  0  0  0
    4.7129    4.8414    2.4124 H   0  0  0  0  0  0  0  0  0  0  0  0
    3.3764    4.8236    0.4278 H   0  0  0  0  0  0  0  0  0  0  0  0
    2.1475    5.4634    1.2921 H   0  0  0  0  0  0  0  0  0  0  0  0
    2.7988    7.7928    2.4204 H   0  0  0  0  0  0  0  0  0  0  0  0
    3.9360    8.6417    1.6124 H   0  0  0  0  0  0  0  0  0  0  0  0
    5.4384    6.7992    2.5713 H   0  0  0  0  0  0  0  0  0  0  0  0
    5.1441    8.1819    3.3887 H   0  0  0  0  0  0  0  0  0  0  0  0
    2.3675    5.9028    3.5957 H   0  0  0  0  0  0  0  0  0  0  0  0
    3.2164    4.8201    4.4755 H   0  0  0  0  0  0  0  0  0  0  0  0
    4.1324    8.1500    5.4282 H   0  0  0  0  0  0  0  0  0  0  0  0
    2.7014    7.8163    4.7158 H   0  0  0  0  0  0  0  0  0  0  0  0
    3.2516    6.8682    5.9261 H   0  0  0  0  0  0  0  0  0  0  0  0
    3.0031    8.2712   -0.3865 H   0  0  0  0  0  0  0  0  0  0  0  0
    2.7064    6.7717   -0.9611 H   0  0  0  0  0  0  0  0  0  0  0  0
    1.7767    7.3878    0.2317 H   0  0  0  0  0  0  0  0  0  0  0  0
  1  2  2  0  0  0  0
  2  3  1  0  0  0  0
  3  4  1  0  0  0  0
  4  5  2  0  0  0  0
  4  6  1  0  0  0  0
  6  7  1  0  0  0  0
  7  2  1  0  0  0  0
  7  8  1  0  0  0  0
  6  9  1  0  0  0  0
  9 10  1  0  0  0  0
 10 11  2  0  0  0  0
 11 12  1  0  0  0  0
 11 13  1  0  0  0  0
 13 14  2  0  0  0  0
 14 15  1  0  0  0  0
 15  9  2  0  0  0  0
  3 16  1  0  0  0  0
 16 17  1  0  0  0  0
 17 18  1  0  0  0  0
 18 19  1  0  0  0  0
 19 20  1  0  0  0  0
 20 21  1  0  0  0  0
 21 22  1  0  0  0  0
 22 16  1  0  0  0  0
 21 23  1  0  0  0  0
 18 24  1  0  0  0  0
 18 25  1  0  0  0  0
 21 26  1  0  0  0  0
  6 27  1  0  0  0  0
  8 28  1  0  0  0  0
  8 29  1  0  0  0  0
  8 30  1  0  0  0  0
 10 31  1  0  0  0  0
 12 32  1  0  0  0  0
 13 33  1  0  0  0  0
 14 34  1  0  0  0  0
 15 35  1  0  0  0  0
 16 36  1  0  0  0  0
 17 37  1  0  0  0  0
 17 38  1  0  0  0  0
 19 39  1  0  0  0  0
 19 40  1  0  0  0  0
 20 41  1  0  0  0  0
 20 42  1  0  0  0  0
 22 43  1  0  0  0  0
 22 44  1  0  0  0  0
 23 45  1  0  0  0  0
 23 46  1  0  0  0  0
 23 47  1  0  0  0  0
 24 48  1  0  0  0  0
 24 49  1  0  0  0  0
 24 50  1  0  0  0  0
M  CHG  2  18   1  21   1
M  END
>  <result-rank>
69

>  <similarity>
0.940

>  <query-name>
LIG_A_1101_C[NH+](C)[C@H]([R*])C1CCC1_2

>  <query-smiles>
O=C(N[C@@H]([NH+](C)C)C1CCC1)[C@@H](NC(=O)C)Cc2ccc(O)cc2

>  <source>
REALspace_2019-12

>  <similarity-descriptor>
0.989;1.000;0.805;0.989;0.989;0.989;1.000;1.000;0.805;0.805;0.805;0.995;0.805;1.000;0.0

>  <similarity-descriptor-smiles>
C1C[NH+]CC[NH+]C1;c1ccccc1;O=C1NCC(N1)=O;C1C[NH+]CC[NH+]C1;C1C[NH+]CC[NH+]C1;C1C[NH+]CC[NH+]C1;C;C;O=C1NCC(N1)=O;O=C1NCC(N1)=O;O=C1NCC(N1)=O;C;O=C1NCC(N1)=O;O;

>  <reaction-name>
s_272212

>  <reagent1-name>
16644262

>  <reagent1-smiles>
[R2*]N(C([R1*])=O)C1CN(CCN(C1)C)C

>  <reagent2-name>
13258946

>  <reagent2-smiles>
[R1*]N(C(c1cc(O)ccc1)C([R2*])=O)C

$$$$
s_22____7349344____12624298
          04022015103D 1   1.00000     0.00000     0
            
 46 47  0  0  0  0            999 V2000
   -3.2980    2.2225    6.9961 Br  0  0  0  0  0  0  0  0  0  0  0  0
   -2.5957    0.9216    5.7095 C   0  0  0  0  0  0  0  0  0  0  0  0
   -2.1665    1.3534    4.4593 C   0  0  0  0  0  0  0  0  0  0  0  0
   -1.6712    0.4174    3.5567 C   0  0  0  0  0  0  0  0  0  0  0  0
   -1.6020   -0.9312    3.8893 C   0  0  0  0  0  0  0  0  0  0  0  0
   -2.0373   -1.3417    5.1451 C   0  0  0  0  0  0  0  0  0  0  0  0
   -2.5358   -0.4224    6.0622 C   0  0  0  0  0  0  0  0  0  0  0  0
   -1.2007    0.8853    2.1890 C   0  0  3  0  0  0  0  0  0  0  0  0
   -1.6203   -0.0854    1.1679 N   0  0  0  0  0  0  0  0  0  0  0  0
   -2.4417    0.3086    0.1447 C   0  0  0  0  0  0  0  0  0  0  0  0
   -2.8186    1.4461    0.0820 O   0  0  0  0  0  0  0  0  0  0  0  0
   -2.8756   -0.6952   -0.9111 C   0  0  0  0  0  0  0  0  0  0  0  0
    0.3150    1.0000    2.1865 C   0  0  0  0  0  0  0  0  0  0  0  0
    0.9116    1.0906    3.2237 O   0  0  0  0  0  0  0  0  0  0  0  0
    1.0000    1.0000    1.0000 N   0  0  0  0  0  0  0  0  0  0  0  0
    2.4700    1.0000    1.0000 C   0  0  0  0  0  0  0  0  0  0  0  0
    2.9765   -0.4273    1.1249 C   0  0  0  0  0  0  0  0  0  0  0  0
    2.4595   -1.4812    0.1583 C   0  0  0  0  0  0  0  0  0  0  0  0
    2.9161   -1.1432   -1.2516 C   0  0  0  0  0  0  0  0  0  0  0  0
    2.4333   -2.1274   -2.1542 O   0  0  0  0  0  0  0  0  0  0  0  0
    2.8598   -1.8116   -3.4713 C   0  0  0  0  0  0  0  0  0  0  0  0
    3.2573   -0.8998    2.5231 C   0  0  0  0  0  0  0  0  0  0  0  0
    4.3948   -0.5939    1.5914 C   0  0  0  0  0  0  0  0  0  0  0  0
   -2.2131    2.3214    4.2127 H   0  0  0  0  0  0  0  0  0  0  0  0
   -1.2442   -1.5969    3.2345 H   0  0  0  0  0  0  0  0  0  0  0  0
   -1.9912   -2.3097    5.3917 H   0  0  0  0  0  0  0  0  0  0  0  0
   -2.8470   -0.7239    6.9635 H   0  0  0  0  0  0  0  0  0  0  0  0
   -1.6029    1.7779    1.9855 H   0  0  0  0  0  0  0  0  0  0  0  0
   -1.3062   -1.0334    1.2202 H   0  0  0  0  0  0  0  0  0  0  0  0
   -2.4734   -1.5878   -0.7076 H   0  0  0  0  0  0  0  0  0  0  0  0
   -3.8727   -0.7707   -0.9094 H   0  0  0  0  0  0  0  0  0  0  0  0
   -2.5661   -0.3874   -1.8108 H   0  0  0  0  0  0  0  0  0  0  0  0
    0.5000    1.0000    0.1340 H   0  0  0  0  0  0  0  0  0  0  0  0
    2.8033    1.5408    1.7723 H   0  0  0  0  0  0  0  0  0  0  0  0
    2.8033    1.3984    0.1455 H   0  0  0  0  0  0  0  0  0  0  0  0
    1.4602   -1.5005    0.1894 H   0  0  0  0  0  0  0  0  0  0  0  0
    2.8185   -2.3774    0.4190 H   0  0  0  0  0  0  0  0  0  0  0  0
    2.5571   -0.2470   -1.5124 H   0  0  0  0  0  0  0  0  0  0  0  0
    3.9154   -1.1240   -1.2827 H   0  0  0  0  0  0  0  0  0  0  0  0
    2.5198   -2.5047   -4.1070 H   0  0  0  0  0  0  0  0  0  0  0  0
    2.5008   -0.9154   -3.7321 H   0  0  0  0  0  0  0  0  0  0  0  0
    3.8591   -1.7924   -3.5025 H   0  0  0  0  0  0  0  0  0  0  0  0
    3.0619   -1.8463    2.7796 H   0  0  0  0  0  0  0  0  0  0  0  0
    3.0723   -0.2987    3.3005 H   0  0  0  0  0  0  0  0  0  0  0  0
    4.9672    0.2109    1.7486 H   0  0  0  0  0  0  0  0  0  0  0  0
    4.9568   -1.3368    1.2277 H   0  0  0  0  0  0  0  0  0  0  0  0
  1  2  1  0  0  0  0
  2  3  1  0  0  0  0
  3  4  2  0  0  0  0
  4  5  1  0  0  0  0
  5  6  2  0  0  0  0
  6  7  1  0  0  0  0
  7  2  2  0  0  0  0
  4  8  1  0  0  0  0
  8  9  1  0  0  0  0
  9 10  1  0  0  0  0
 10 11  2  0  0  0  0
 10 12  1  0  0  0  0
  8 13  1  0  0  0  0
 13 14  2  0  0  0  0
 13 15  1  0  0  0  0
 15 16  1  0  0  0  0
 16 17  1  0  0  0  0
 17 18  1  0  0  0  0
 18 19  1  0  0  0  0
 19 20  1  0  0  0  0
 20 21  1  0  0  0  0
 17 22  1  0  0  0  0
 22 23  1  0  0  0  0
 23 17  1  0  0  0  0
  3 24  1  0  0  0  0
  5 25  1  0  0  0  0
  6 26  1  0  0  0  0
  7 27  1  0  0  0  0
  8 28  1  0  0  0  0
  9 29  1  0  0  0  0
 12 30  1  0  0  0  0
 12 31  1  0  0  0  0
 12 32  1  0  0  0  0
 15 33  1  0  0  0  0
 16 34  1  0  0  0  0
 16 35  1  0  0  0  0
 18 36  1  0  0  0  0
 18 37  1  0  0  0  0
 19 38  1  0  0  0  0
 19 39  1  0  0  0  0
 21 40  1  0  0  0  0
 21 41  1  0  0  0  0
 21 42  1  0  0  0  0
 22 43  1  0  0  0  0
 22 44  1  0  0  0  0
 23 45  1  0  0  0  0
 23 46  1  0  0  0  0
M  END
>  <result-rank>
70

>  <similarity>
0.939

>  <query-name>
LIG_A_1101_C[NH+](C)[C@H]([R*])C1CCC1_2

>  <query-smiles>
O=C(N[C@@H]([NH+](C)C)C1CCC1)[C@@H](NC(=O)C)Cc2ccc(O)cc2

>  <source>
REALspace_2019-12

>  <similarity-descriptor>
0.974;0.969;1.000;1.000;0.942;0.0;0.0;0.0;1.000;1.000;1.000;1.000;0.969;0.0;0.154

>  <similarity-descriptor-smiles>
C1(CC1)CC;Brc1ccccc1;C=O;N;C;;;;C;N;C=O;C;Brc1ccccc1;;O.C

>  <reaction-name>
s_22

>  <reagent1-name>
7349344

>  <reagent1-smiles>
[R1*]NCC1(CCOC)CC1

>  <reagent2-name>
12624298

>  <reagent2-smiles>
[R1*]C(=O)C(NC(=O)C)c1cc(Br)ccc1

$$$$
s_272164____9388606____9374976
          04022015103D 1   1.00000     0.00000     0
            
 54 56  0  0  0  0            999 V2000
    0.9150    0.9686    3.2255 O   0  0  0  0  0  0  0  0  0  0  0  0
    0.3150    0.9833    2.1863 C   0  0  0  0  0  0  0  0  0  0  0  0
   -1.0863    0.9833    2.1863 N   0  0  0  0  0  0  0  0  0  0  0  0
   -1.8118    0.9664    3.3836 C   0  0  0  0  0  0  0  0  0  0  0  0
   -2.3376    2.1867    3.7873 C   0  0  0  0  0  0  0  0  0  0  0  0
   -2.1315    3.3238    2.9999 N   0  0  0  0  0  0  0  0  0  0  0  0
   -2.4194    3.2527    1.6318 C   0  0  0  0  0  0  0  0  0  0  0  0
   -2.2042    4.2087    0.9042 O   0  0  0  0  0  0  0  0  0  0  0  0
   -2.9792    1.9471    1.0959 C   0  0  3  0  0  0  0  0  0  0  0  0
   -1.7891    1.0219    0.8987 C   0  0  0  0  0  0  0  0  0  0  0  0
   -3.7398    2.1696   -0.1999 C   0  0  0  0  0  0  0  0  0  0  0  0
   -3.0657    2.2412    4.9726 C   0  0  0  0  0  0  0  0  0  0  0  0
   -3.2703    1.1035    5.7469 C   0  0  0  0  0  0  0  0  0  0  0  0
   -2.7468   -0.1187    5.3395 C   0  0  0  0  0  0  0  0  0  0  0  0
   -2.0206   -0.1727    4.1553 C   0  0  0  0  0  0  0  0  0  0  0  0
    1.0000    1.0000    1.0000 N   0  0  0  0  0  0  0  0  0  0  0  0
    2.4725    1.0000    1.0000 C   0  0  3  0  0  0  0  0  0  0  0  0
    2.9882   -0.2281    0.2677 C   0  0  0  0  0  0  0  0  0  0  0  0
    4.5081   -0.2079    0.2509 C   0  0  3  0  0  0  0  0  0  0  0  0
    5.0032    1.0207   -0.3892 N   0  3  3  0  0  0  0  0  0  0  0  0
    4.5090    2.2292    0.2871 C   0  0  0  0  0  0  0  0  0  0  0  0
    2.9888    2.2476    0.3011 C   0  0  0  0  0  0  0  0  0  0  0  0
    6.4728    1.0653   -0.3760 C   0  0  0  0  0  0  0  0  0  0  0  0
    6.9468    2.3457   -1.0440 C   0  0  0  0  0  0  0  0  0  0  0  0
    4.9890   -1.4460   -0.4889 C   0  0  0  0  0  0  0  0  0  0  0  0
    4.6909    1.0350   -1.3390 H   0  0  0  0  0  0  0  0  0  0  0  0
   -1.7857    4.1698    3.4055 H   0  0  0  0  0  0  0  0  0  0  0  0
   -3.5960    1.5498    1.7755 H   0  0  0  0  0  0  0  0  0  0  0  0
   -2.0998    0.1058    0.6453 H   0  0  0  0  0  0  0  0  0  0  0  0
   -1.1865    1.3789    0.1850 H   0  0  0  0  0  0  0  0  0  0  0  0
   -4.0973    1.2963   -0.5308 H   0  0  0  0  0  0  0  0  0  0  0  0
   -4.4987    2.8002   -0.0370 H   0  0  0  0  0  0  0  0  0  0  0  0
   -3.1242    2.5589   -0.8851 H   0  0  0  0  0  0  0  0  0  0  0  0
   -3.4490    3.1146    5.2732 H   0  0  0  0  0  0  0  0  0  0  0  0
   -3.7939    1.1647    6.5966 H   0  0  0  0  0  0  0  0  0  0  0  0
   -2.8899   -0.9427    5.8876 H   0  0  0  0  0  0  0  0  0  0  0  0
   -1.6410   -1.0468    3.8523 H   0  0  0  0  0  0  0  0  0  0  0  0
    0.5000    1.0122    0.1341 H   0  0  0  0  0  0  0  0  0  0  0  0
    2.8042    0.9872    1.9433 H   0  0  0  0  0  0  0  0  0  0  0  0
    2.6710   -1.0528    0.7359 H   0  0  0  0  0  0  0  0  0  0  0  0
    2.6445   -0.2249   -0.6714 H   0  0  0  0  0  0  0  0  0  0  0  0
    4.8437   -0.2414    1.1923 H   0  0  0  0  0  0  0  0  0  0  0  0
    4.8435    3.0375   -0.1974 H   0  0  0  0  0  0  0  0  0  0  0  0
    4.8469    2.2411    1.2282 H   0  0  0  0  0  0  0  0  0  0  0  0
    2.6698    3.0595    0.7900 H   0  0  0  0  0  0  0  0  0  0  0  0
    2.6472    2.2686   -0.6385 H   0  0  0  0  0  0  0  0  0  0  0  0
    6.8347    0.2764   -0.8727 H   0  0  0  0  0  0  0  0  0  0  0  0
    6.7985    1.0422    0.5692 H   0  0  0  0  0  0  0  0  0  0  0  0
    7.9463    2.3761   -1.0350 H   0  0  0  0  0  0  0  0  0  0  0  0
    6.6211    2.3688   -1.9892 H   0  0  0  0  0  0  0  0  0  0  0  0
    6.5849    3.1346   -0.5473 H   0  0  0  0  0  0  0  0  0  0  0  0
    4.6382   -2.2640   -0.0330 H   0  0  0  0  0  0  0  0  0  0  0  0
    4.6562   -1.4213   -1.4316 H   0  0  0  0  0  0  0  0  0  0  0  0
    5.9887   -1.4671   -0.4888 H   0  0  0  0  0  0  0  0  0  0  0  0
  1  2  2  0  0  0  0
  2  3  1  0  0  0  0
  3  4  1  0  0  0  0
  4  5  1  0  0  0  0
  5  6  1  0  0  0  0
  6  7  1  0  0  0  0
  7  8  2  0  0  0  0
  7  9  1  0  0  0  0
  9 10  1  0  0  0  0
 10  3  1  0  0  0  0
  9 11  1  0  0  0  0
  5 12  2  0  0  0  0
 12 13  1  0  0  0  0
 13 14  2  0  0  0  0
 14 15  1  0  0  0  0
 15  4  2  0  0  0  0
  2 16  1  0  0  0  0
 16 17  1  0  0  0  0
 17 18  1  0  0  0  0
 18 19  1  0  0  0  0
 19 20  1  0  0  0  0
 20 21  1  0  0  0  0
 21 22  1  0  0  0  0
 22 17  1  0  0  0  0
 20 23  1  0  0  0  0
 23 24  1  0  0  0  0
 19 25  1  0  0  0  0
 20 26  1  0  0  0  0
  6 27  1  0  0  0  0
  9 28  1  0  0  0  0
 10 29  1  0  0  0  0
 10 30  1  0  0  0  0
 11 31  1  0  0  0  0
 11 32  1  0  0  0  0
 11 33  1  0  0  0  0
 12 34  1  0  0  0  0
 13 35  1  0  0  0  0
 14 36  1  0  0  0  0
 15 37  1  0  0  0  0
 16 38  1  0  0  0  0
 17 39  1  0  0  0  0
 18 40  1  0  0  0  0
 18 41  1  0  0  0  0
 19 42  1  0  0  0  0
 21 43  1  0  0  0  0
 21 44  1  0  0  0  0
 22 45  1  0  0  0  0
 22 46  1  0  0  0  0
 23 47  1  0  0  0  0
 23 48  1  0  0  0  0
 24 49  1  0  0  0  0
 24 50  1  0  0  0  0
 24 51  1  0  0  0  0
 25 52  1  0  0  0  0
 25 53  1  0  0  0  0
 25 54  1  0  0  0  0
M  CHG  1  20   1
M  END
>  <result-rank>
71

>  <similarity>
0.939

>  <query-name>
LIG_A_1101_C[NH+](C)[C@H]([R*])C1CCC1_2

>  <query-smiles>
O=C(N[C@@H]([NH+](C)C)C1CCC1)[C@@H](NC(=O)C)Cc2ccc(O)cc2

>  <source>
REALspace_2019-12

>  <similarity-descriptor>
0.999;0.984;0.995;1.000;0.999;0.999;0.951;0.995;0.834;0.834;0.834;1.000;0.834;0.0;0.111

>  <similarity-descriptor-smiles>
C1CC[NH+]CC1;c1ccccc1;O=C;N;C1CC[NH+]CC1;C1CC[NH+]CC1;C;C;N1CCC(Ncc1)=O;N1CCC(Ncc1)=O;N1CCC(Ncc1)=O;C;N1CCC(Ncc1)=O;;C

>  <reaction-name>
s_272164

>  <reagent1-name>
9388606

>  <reagent1-smiles>
[R1*]C(=O)N1c2c(NC(=O)C(C1)C)cccc2

>  <reagent2-name>
9374976

>  <reagent2-smiles>
[R1*]NC1CC(N(CC1)CC)C

$$$$
s_22____10544104____107338
          04022015103D 1   1.00000     0.00000     0
            
 53 54  0  0  0  0            999 V2000
    0.4000   -0.0392    1.0000 O   0  0  0  0  0  0  0  0  0  0  0  0
    1.0000    1.0000    1.0000 C   0  0  0  0  0  0  0  0  0  0  0  0
    2.3700    1.0000    1.0000 N   0  0  0  0  0  0  0  0  0  0  0  0
    3.1050   -0.2682    0.8890 C   0  0  0  0  0  0  0  0  0  0  0  0
    3.4665   -0.5187   -0.5659 C   0  0  0  0  0  0  0  0  0  0  0  0
    4.1155   -1.8847   -0.6982 C   0  0  0  0  0  0  0  0  0  0  0  0
    4.7420   -2.1010   -1.9540 O   0  0  0  0  0  0  0  0  0  0  0  0
    5.5779   -0.9954   -2.2626 C   0  0  0  0  0  0  0  0  0  0  0  0
    3.1922   -2.9875   -0.2414 C   0  0  0  0  0  0  0  0  0  0  0  0
    4.4010   -3.6353    0.3963 C   0  0  0  0  0  0  0  0  0  0  0  0
    4.9455   -2.2288    0.5191 C   0  0  0  0  0  0  0  0  0  0  0  0
    0.2400    2.3164    1.0000 C   0  0  0  0  0  0  0  0  0  0  0  0
   -0.0133    2.7551   -0.4331 C   0  0  3  0  0  0  0  0  0  0  0  0
    1.1052    3.5896   -0.8950 N   0  0  0  0  0  0  0  0  0  0  0  0
    2.1858    3.0097   -1.5058 C   0  0  0  0  0  0  0  0  0  0  0  0
    2.0872    1.9144   -1.9862 O   0  0  0  0  0  0  0  0  0  0  0  0
    3.5095    3.7535   -1.5749 C   0  0  0  0  0  0  0  0  0  0  0  0
   -1.3034    3.5565   -0.4971 C   0  0  0  0  0  0  0  0  0  0  0  0
   -1.2614    4.9360   -0.3241 C   0  0  0  0  0  0  0  0  0  0  0  0
   -2.4392    5.6735   -0.3826 C   0  0  0  0  0  0  0  0  0  0  0  0
   -3.6458    5.0207   -0.6142 C   0  0  0  0  0  0  0  0  0  0  0  0
   -4.8509    5.7695   -0.6744 O   0  0  0  0  0  0  0  0  0  0  0  0
   -6.0858    5.1095   -0.9105 C   0  0  0  0  0  0  0  0  0  0  0  0
   -3.6934    3.6412   -0.7876 C   0  0  0  0  0  0  0  0  0  0  0  0
   -2.5126    2.9088   -0.7285 C   0  0  0  0  0  0  0  0  0  0  0  0
    2.8700    1.8627    1.0755 H   0  0  0  0  0  0  0  0  0  0  0  0
    2.5317   -1.0161    1.2236 H   0  0  0  0  0  0  0  0  0  0  0  0
    3.9405   -0.2182    1.4363 H   0  0  0  0  0  0  0  0  0  0  0  0
    2.6382   -0.4876   -1.1253 H   0  0  0  0  0  0  0  0  0  0  0  0
    4.1052    0.1853   -0.8767 H   0  0  0  0  0  0  0  0  0  0  0  0
    6.0191   -1.1477   -3.1470 H   0  0  0  0  0  0  0  0  0  0  0  0
    5.0267   -0.1621   -2.3042 H   0  0  0  0  0  0  0  0  0  0  0  0
    6.2767   -0.8977   -1.5540 H   0  0  0  0  0  0  0  0  0  0  0  0
    2.7756   -3.5168   -0.9806 H   0  0  0  0  0  0  0  0  0  0  0  0
    2.4837   -2.6996    0.4028 H   0  0  0  0  0  0  0  0  0  0  0  0
    4.9233   -4.2407   -0.2042 H   0  0  0  0  0  0  0  0  0  0  0  0
    4.2245   -4.0984    1.2648 H   0  0  0  0  0  0  0  0  0  0  0  0
    4.6807   -1.7490    1.3555 H   0  0  0  0  0  0  0  0  0  0  0  0
    5.9337   -2.1496    0.3879 H   0  0  0  0  0  0  0  0  0  0  0  0
    0.7804    3.0133    1.4714 H   0  0  0  0  0  0  0  0  0  0  0  0
   -0.6338    2.1968    1.4714 H   0  0  0  0  0  0  0  0  0  0  0  0
   -0.0922    1.9490   -1.0195 H   0  0  0  0  0  0  0  0  0  0  0  0
    1.0775    4.5805   -0.7635 H   0  0  0  0  0  0  0  0  0  0  0  0
    3.4152    4.6439   -1.1295 H   0  0  0  0  0  0  0  0  0  0  0  0
    4.2160    3.2208   -1.1089 H   0  0  0  0  0  0  0  0  0  0  0  0
    3.7683    3.8853   -2.5318 H   0  0  0  0  0  0  0  0  0  0  0  0
   -0.3887    5.3953   -0.1584 H   0  0  0  0  0  0  0  0  0  0  0  0
   -2.4189    6.6656   -0.2590 H   0  0  0  0  0  0  0  0  0  0  0  0
   -6.8262    5.7816   -0.9215 H   0  0  0  0  0  0  0  0  0  0  0  0
   -6.0493    4.6393   -1.7923 H   0  0  0  0  0  0  0  0  0  0  0  0
   -6.2517    4.4428   -0.1839 H   0  0  0  0  0  0  0  0  0  0  0  0
   -4.5661    3.1817   -0.9527 H   0  0  0  0  0  0  0  0  0  0  0  0
   -2.5327    1.9167   -0.8524 H   0  0  0  0  0  0  0  0  0  0  0  0
  1  2  2  0  0  0  0
  2  3  1  0  0  0  0
  3  4  1  0  0  0  0
  4  5  1  0  0  0  0
  5  6  1  0  0  0  0
  6  7  1  0  0  0  0
  7  8  1  0  0  0  0
  6  9  1  0  0  0  0
  9 10  1  0  0  0  0
 10 11  1  0  0  0  0
 11  6  1  0  0  0  0
  2 12  1  0  0  0  0
 12 13  1  0  0  0  0
 13 14  1  0  0  0  0
 14 15  1  0  0  0  0
 15 16  2  0  0  0  0
 15 17  1  0  0  0  0
 13 18  1  0  0  0  0
 18 19  1  0  0  0  0
 19 20  2  0  0  0  0
 20 21  1  0  0  0  0
 21 22  1  0  0  0  0
 22 23  1  0  0  0  0
 21 24  2  0  0  0  0
 24 25  1  0  0  0  0
 25 18  2  0  0  0  0
  3 26  1  0  0  0  0
  4 27  1  0  0  0  0
  4 28  1  0  0  0  0
  5 29  1  0  0  0  0
  5 30  1  0  0  0  0
  8 31  1  0  0  0  0
  8 32  1  0  0  0  0
  8 33  1  0  0  0  0
  9 34  1  0  0  0  0
  9 35  1  0  0  0  0
 10 36  1  0  0  0  0
 10 37  1  0  0  0  0
 11 38  1  0  0  0  0
 11 39  1  0  0  0  0
 12 40  1  0  0  0  0
 12 41  1  0  0  0  0
 13 42  1  0  0  0  0
 14 43  1  0  0  0  0
 17 44  1  0  0  0  0
 17 45  1  0  0  0  0
 17 46  1  0  0  0  0
 19 47  1  0  0  0  0
 20 48  1  0  0  0  0
 23 49  1  0  0  0  0
 23 50  1  0  0  0  0
 23 51  1  0  0  0  0
 24 52  1  0  0  0  0
 25 53  1  0  0  0  0
M  END
>  <result-rank>
72

>  <similarity>
0.939

>  <query-name>
LIG_A_1101_C[NH+](C)[C@H]([R*])C1CCC1_2

>  <query-smiles>
O=C(N[C@@H]([NH+](C)C)C1CCC1)[C@@H](NC(=O)C)Cc2ccc(O)cc2

>  <source>
REALspace_2019-12

>  <similarity-descriptor>
0.974;1.000;1.000;1.000;0.942;0.0;0.0;0.0;1.000;1.000;1.000;1.000;1.000;0.704;0.200

>  <similarity-descriptor-smiles>
CC1CCC1;c1ccccc1;O=C;N;C;;;;CC;N;C=O;C;CC;O;O.C.C

>  <reaction-name>
s_22

>  <reagent1-name>
10544104

>  <reagent1-smiles>
[R1*]NCCC1(OC)CCC1

>  <reagent2-name>
107338

>  <reagent2-smiles>
[R1*]C(=O)CC(NC(=O)C)c1ccc(OC)cc1

$$$$
s_2708____5730620____11765628
          04022015103D 1   1.00000     0.00000     0
            
 52 54  0  0  0  0            999 V2000
    0.4000   -0.0392    1.0000 O   0  0  0  0  0  0  0  0  0  0  0  0
    1.0000    1.0000    1.0000 C   0  0  0  0  0  0  0  0  0  0  0  0
    2.3700    1.0000    1.0000 N   0  0  0  0  0  0  0  0  0  0  0  0
    3.1050   -0.2731    1.0000 C   0  0  3  0  0  0  0  0  0  0  0  0
    3.9796   -0.3536    2.2421 C   0  0  0  0  0  0  0  0  0  0  0  0
    4.1820   -1.4258    2.9866 O   0  0  0  0  0  0  0  0  0  0  0  0
    4.9940   -1.1182    3.9731 C   0  0  0  0  0  0  0  0  0  0  0  0
    5.3180    0.2007    3.8363 C   0  0  0  0  0  0  0  0  0  0  0  0
    4.6597    0.6627    2.7316 N   0  0  0  0  0  0  0  0  0  0  0  0
    3.9789   -0.3536   -0.2411 C   0  0  0  0  0  0  0  0  0  0  0  0
    4.7390   -1.6702   -0.2411 C   0  0  0  0  0  0  0  0  0  0  0  0
    4.1773   -2.7902   -0.8453 C   0  0  0  0  0  0  0  0  0  0  0  0
    4.8758   -3.9931   -0.8423 C   0  0  0  0  0  0  0  0  0  0  0  0
    6.1270   -4.0694   -0.2393 C   0  0  0  0  0  0  0  0  0  0  0  0
    6.6785   -2.9441    0.3607 C   0  0  0  0  0  0  0  0  0  0  0  0
    5.9897   -1.7356    0.3650 C   0  0  0  0  0  0  0  0  0  0  0  0
    0.3150    2.1865    1.0000 N   0  0  0  0  0  0  0  0  0  0  0  0
   -1.1575    2.1865    1.0000 C   0  0  3  0  0  0  0  0  0  0  0  0
   -1.6732    2.9014    2.2383 C   0  0  0  0  0  0  0  0  0  0  0  0
   -3.1931    2.9185    2.2184 C   0  0  3  0  0  0  0  0  0  0  0  0
   -3.6882    3.5758    0.9989 N   0  3  3  0  0  0  0  0  0  0  0  0
   -3.1940    2.9166   -0.2190 C   0  0  0  0  0  0  0  0  0  0  0  0
   -1.6738    2.9029   -0.2376 C   0  0  0  0  0  0  0  0  0  0  0  0
   -5.1578    3.5632    0.9541 C   0  0  0  0  0  0  0  0  0  0  0  0
   -3.6740    3.6408    3.4667 C   0  0  0  0  0  0  0  0  0  0  0  0
   -3.3759    4.5258    0.9980 H   0  0  0  0  0  0  0  0  0  0  0  0
    2.8700    1.8660    1.0000 H   0  0  0  0  0  0  0  0  0  0  0  0
    2.4552   -1.0331    1.0000 H   0  0  0  0  0  0  0  0  0  0  0  0
    5.3151   -1.7359    4.6909 H   0  0  0  0  0  0  0  0  0  0  0  0
    5.9228    0.7291    4.4320 H   0  0  0  0  0  0  0  0  0  0  0  0
    3.4040   -0.3006   -1.0576 H   0  0  0  0  0  0  0  0  0  0  0  0
    4.6287    0.4065   -0.2411 H   0  0  0  0  0  0  0  0  0  0  0  0
    3.2780   -2.7310   -1.2785 H   0  0  0  0  0  0  0  0  0  0  0  0
    4.4785   -4.8031   -1.2736 H   0  0  0  0  0  0  0  0  0  0  0  0
    6.6294   -4.9340   -0.2377 H   0  0  0  0  0  0  0  0  0  0  0  0
    7.5782   -3.0035    0.7932 H   0  0  0  0  0  0  0  0  0  0  0  0
    6.3874   -0.9261    0.7970 H   0  0  0  0  0  0  0  0  0  0  0  0
    0.8150    3.0525    1.0000 H   0  0  0  0  0  0  0  0  0  0  0  0
   -1.4892    1.2430    0.9996 H   0  0  0  0  0  0  0  0  0  0  0  0
   -1.3560    2.4216    3.0564 H   0  0  0  0  0  0  0  0  0  0  0  0
   -1.3295    3.8404    2.2483 H   0  0  0  0  0  0  0  0  0  0  0  0
   -3.5287    1.9767    2.2386 H   0  0  0  0  0  0  0  0  0  0  0  0
   -3.5285    3.4124   -1.0204 H   0  0  0  0  0  0  0  0  0  0  0  0
   -3.5319    1.9757   -0.2442 H   0  0  0  0  0  0  0  0  0  0  0  0
   -1.3548    2.4255   -1.0563 H   0  0  0  0  0  0  0  0  0  0  0  0
   -1.3322    3.8427   -0.2454 H   0  0  0  0  0  0  0  0  0  0  0  0
   -5.4696    4.0145    0.1180 H   0  0  0  0  0  0  0  0  0  0  0  0
   -5.4835    2.6178    0.9639 H   0  0  0  0  0  0  0  0  0  0  0  0
   -5.5197    4.0487    1.7499 H   0  0  0  0  0  0  0  0  0  0  0  0
   -3.3232    3.1733    4.2782 H   0  0  0  0  0  0  0  0  0  0  0  0
   -3.3412    4.5837    3.4553 H   0  0  0  0  0  0  0  0  0  0  0  0
   -4.6737    3.6403    3.4878 H   0  0  0  0  0  0  0  0  0  0  0  0
  1  2  2  0  0  0  0
  2  3  1  0  0  0  0
  3  4  1  0  0  0  0
  4  5  1  0  0  0  0
  5  6  1  0  0  0  0
  6  7  1  0  0  0  0
  7  8  2  0  0  0  0
  8  9  1  0  0  0  0
  5  9  2  0  0  0  0
  4 10  1  0  0  0  0
 10 11  1  0  0  0  0
 11 12  1  0  0  0  0
 12 13  2  0  0  0  0
 13 14  1  0  0  0  0
 14 15  2  0  0  0  0
 15 16  1  0  0  0  0
 16 11  2  0  0  0  0
  2 17  1  0  0  0  0
 17 18  1  0  0  0  0
 18 19  1  0  0  0  0
 19 20  1  0  0  0  0
 20 21  1  0  0  0  0
 21 22  1  0  0  0  0
 22 23  1  0  0  0  0
 23 18  1  0  0  0  0
 21 24  1  0  0  0  0
 20 25  1  0  0  0  0
 21 26  1  0  0  0  0
  3 27  1  0  0  0  0
  4 28  1  0  0  0  0
  7 29  1  0  0  0  0
  8 30  1  0  0  0  0
 10 31  1  0  0  0  0
 10 32  1  0  0  0  0
 12 33  1  0  0  0  0
 13 34  1  0  0  0  0
 14 35  1  0  0  0  0
 15 36  1  0  0  0  0
 16 37  1  0  0  0  0
 17 38  1  0  0  0  0
 18 39  1  0  0  0  0
 19 40  1  0  0  0  0
 19 41  1  0  0  0  0
 20 42  1  0  0  0  0
 22 43  1  0  0  0  0
 22 44  1  0  0  0  0
 23 45  1  0  0  0  0
 23 46  1  0  0  0  0
 24 47  1  0  0  0  0
 24 48  1  0  0  0  0
 24 49  1  0  0  0  0
 25 50  1  0  0  0  0
 25 51  1  0  0  0  0
 25 52  1  0  0  0  0
M  CHG  1  21   1
M  END
>  <result-rank>
73

>  <similarity>
0.939

>  <query-name>
LIG_A_1101_C[NH+](C)[C@H]([R*])C1CCC1_2

>  <query-smiles>
O=C(N[C@@H]([NH+](C)C)C1CCC1)[C@@H](NC(=O)C)Cc2ccc(O)cc2

>  <source>
REALspace_2019-12

>  <similarity-descriptor>
0.999;0.960;0.995;1.000;0.999;0.999;1.000;0.995;1.000;1.000;0.734;0.734;1.000;0.0;0.0

>  <similarity-descriptor-smiles>
C1CC[NH+]CC1;c1ccccc1;O=C;N;C1CC[NH+]CC1;C1CC[NH+]CC1;C;C;NC;NC;C1=NC=CO1;C1=NC=CO1;C;;

>  <reaction-name>
s_2708

>  <reagent1-name>
5730620

>  <reagent1-smiles>
[R1*]C(=O)NC1CC(N(CC1)C)C

>  <reagent2-name>
11765628

>  <reagent2-smiles>
[R1*]NC(C=1OC=CN1)Cc2ccccc2

$$$$
s_270006a____11615738____8408044
          04022015103D 1   1.00000     0.00000     0
            
 45 46  0  0  0  0            999 V2000
    0.3166    4.5557   -0.1470 S   0  0  0  0  0  0  0  0  0  0  0  0
   -0.1737    2.9309   -0.0310 C   0  0  0  0  0  0  0  0  0  0  0  0
   -1.4812    2.9268    0.3433 C   0  0  0  0  0  0  0  0  0  0  0  0
   -2.0126    4.2333    0.5279 C   0  0  0  0  0  0  0  0  0  0  0  0
   -1.1604    5.2729    0.3038 C   0  0  0  0  0  0  0  0  0  0  0  0
    0.7075    1.7208   -0.3059 C   0  0  3  0  0  0  0  0  0  0  0  0
    0.0129    0.8075   -1.2248 N   0  0  0  0  0  0  0  0  0  0  0  0
    0.5721    0.4993   -2.4369 C   0  0  0  0  0  0  0  0  0  0  0  0
    1.6288    0.9750   -2.7485 O   0  0  0  0  0  0  0  0  0  0  0  0
   -0.1461   -0.4450   -3.3871 C   0  0  0  0  0  0  0  0  0  0  0  0
    1.0000    1.0000    1.0000 C   0  0  0  0  0  0  0  0  0  0  0  0
    1.8776    1.8776    1.8776 C   0  0  0  0  0  0  0  0  0  0  0  0
    1.9688    3.0524    1.6507 O   0  0  0  0  0  0  0  0  0  0  0  0
    2.5644    1.3273    2.9275 N   0  0  0  0  0  0  0  0  0  0  0  0
    3.4129    2.1758    3.7761 C   0  0  3  0  0  0  0  0  0  0  0  0
    4.8531    1.7023    3.7369 C   0  0  0  0  0  0  0  0  0  0  0  0
    5.4493    2.3109    4.9843 C   0  0  3  0  0  0  0  0  0  0  0  0
    6.7324    1.6022    5.3831 C   0  0  0  0  0  0  0  0  0  0  0  0
    6.4480    0.1838    5.6438 N   0  3  0  0  0  0  0  0  0  0  0  0
    4.3619    2.0655    6.0160 C   0  0  0  0  0  0  0  0  0  0  0  0
    3.0544    2.0023    5.2440 C   0  0  0  0  0  0  0  0  0  0  0  0
    7.2927   -0.2827    5.9063 H   0  0  0  0  0  0  0  0  0  0  0  0
    5.7812    0.1082    6.3852 H   0  0  0  0  0  0  0  0  0  0  0  0
    6.0768   -0.2392    4.8172 H   0  0  0  0  0  0  0  0  0  0  0  0
   -2.0143    2.0911    0.4753 H   0  0  0  0  0  0  0  0  0  0  0  0
   -2.9613    4.3812    0.8072 H   0  0  0  0  0  0  0  0  0  0  0  0
   -1.3601    6.2492    0.3866 H   0  0  0  0  0  0  0  0  0  0  0  0
    1.5665    2.0212   -0.7205 H   0  0  0  0  0  0  0  0  0  0  0  0
   -0.8677    0.4111   -0.9651 H   0  0  0  0  0  0  0  0  0  0  0  0
   -1.0051   -0.7454   -2.9725 H   0  0  0  0  0  0  0  0  0  0  0  0
   -0.3386    0.0292   -4.2462 H   0  0  0  0  0  0  0  0  0  0  0  0
    0.4329   -1.2401   -3.5676 H   0  0  0  0  0  0  0  0  0  0  0  0
    0.1409    0.8075    1.4742 H   0  0  0  0  0  0  0  0  0  0  0  0
    1.4742    0.1409    0.8075 H   0  0  0  0  0  0  0  0  0  0  0  0
    2.4883    0.3483    3.1166 H   0  0  0  0  0  0  0  0  0  0  0  0
    3.3449    3.1354    3.5029 H   0  0  0  0  0  0  0  0  0  0  0  0
    5.3184    2.0363    2.9171 H   0  0  0  0  0  0  0  0  0  0  0  0
    4.9035    0.7040    3.7654 H   0  0  0  0  0  0  0  0  0  0  0  0
    5.6078    3.2905    4.8610 H   0  0  0  0  0  0  0  0  0  0  0  0
    7.3992    1.6778    4.6417 H   0  0  0  0  0  0  0  0  0  0  0  0
    7.1036    2.0252    6.2097 H   0  0  0  0  0  0  0  0  0  0  0  0
    4.3375    2.8136    6.6791 H   0  0  0  0  0  0  0  0  0  0  0  0
    4.5250    1.2021    6.4935 H   0  0  0  0  0  0  0  0  0  0  0  0
    2.6095    1.1185    5.3891 H   0  0  0  0  0  0  0  0  0  0  0  0
    2.4426    2.7360    5.5395 H   0  0  0  0  0  0  0  0  0  0  0  0
  1  2  1  0  0  0  0
  2  3  2  0  0  0  0
  3  4  1  0  0  0  0
  4  5  2  0  0  0  0
  5  1  1  0  0  0  0
  2  6  1  0  0  0  0
  6  7  1  0  0  0  0
  7  8  1  0  0  0  0
  8  9  2  0  0  0  0
  8 10  1  0  0  0  0
  6 11  1  0  0  0  0
 11 12  1  0  0  0  0
 12 13  2  0  0  0  0
 12 14  1  0  0  0  0
 14 15  1  0  0  0  0
 15 16  1  0  0  0  0
 16 17  1  0  0  0  0
 17 18  1  0  0  0  0
 18 19  1  0  0  0  0
 17 20  1  0  0  0  0
 20 21  1  0  0  0  0
 21 15  1  0  0  0  0
 19 22  1  0  0  0  0
 19 23  1  0  0  0  0
 19 24  1  0  0  0  0
  3 25  1  0  0  0  0
  4 26  1  0  0  0  0
  5 27  1  0  0  0  0
  6 28  1  0  0  0  0
  7 29  1  0  0  0  0
 10 30  1  0  0  0  0
 10 31  1  0  0  0  0
 10 32  1  0  0  0  0
 11 33  1  0  0  0  0
 11 34  1  0  0  0  0
 14 35  1  0  0  0  0
 15 36  1  0  0  0  0
 16 37  1  0  0  0  0
 16 38  1  0  0  0  0
 17 39  1  0  0  0  0
 18 40  1  0  0  0  0
 18 41  1  0  0  0  0
 20 42  1  0  0  0  0
 20 43  1  0  0  0  0
 21 44  1  0  0  0  0
 21 45  1  0  0  0  0
M  CHG  1  19   1
M  END
>  <result-rank>
74

>  <similarity>
0.939

>  <query-name>
LIG_A_1101_C[NH+](C)[C@H]([R*])C1CCC1_2

>  <query-smiles>
O=C(N[C@@H]([NH+](C)C)C1CCC1)[C@@H](NC(=O)C)Cc2ccc(O)cc2

>  <source>
REALspace_2019-12

>  <similarity-descriptor>
0.998;0.924;1.000;1.000;0.998;0.695;0.695;0.0;1.000;1.000;1.000;1.000;1.000;0.0;0.0

>  <similarity-descriptor-smiles>
C1CCCC1;S1C=CC=C1;C=O;N;C1CCCC1;C[NH3+];C[NH3+];;CC;N;C=O;C;CC;;

>  <reaction-name>
s_270006a

>  <reagent1-name>
11615738

>  <reagent1-smiles>
[R1*]NC1CC(CN)CC1

>  <reagent2-name>
8408044

>  <reagent2-smiles>
[R1*]C(=O)CC(NC(=O)C)C=1SC=CC1

$$$$
s_22____10744164____17513450
          04022015103D 1   1.00000     0.00000     0
            
 58 58  0  0  0  0            999 V2000
    2.9700    2.0392    1.0000 O   0  0  0  0  0  0  0  0  0  0  0  0
    2.3700    1.0000    1.0000 C   0  0  0  0  0  0  0  0  0  0  0  0
    1.0000    1.0000    1.0000 N   0  0  0  0  0  0  0  0  0  0  0  0
    0.2650    2.2731    1.0000 C   0  0  3  0  0  0  0  0  0  0  0  0
   -0.3095    2.5264   -0.3842 C   0  0  3  0  0  0  0  0  0  0  0  0
    0.6436    3.4077   -1.1749 C   0  0  0  0  0  0  0  0  0  0  0  0
   -0.1468    4.2499   -2.1630 C   0  0  0  0  0  0  0  0  0  0  0  0
    1.3987    4.3199   -0.2220 C   0  0  0  0  0  0  0  0  0  0  0  0
   -0.4925    1.2018   -1.1071 C   0  0  0  0  0  0  0  0  0  0  0  0
    0.5879    1.0002   -2.0063 O   0  0  0  0  0  0  0  0  0  0  0  0
   -0.8659    2.2052    2.0133 C   0  0  0  0  0  0  0  0  0  0  0  0
   -0.2914    1.9518    3.3976 C   0  0  0  0  0  0  0  0  0  0  0  0
   -1.6259    3.5215    2.0133 C   0  0  0  0  0  0  0  0  0  0  0  0
    3.1300   -0.3164    1.0000 C   0  0  3  0  0  0  0  0  0  0  0  0
    4.5752   -0.0477    1.0000 N   0  0  0  0  0  0  0  0  0  0  0  0
    5.3571   -0.5058    2.0275 C   0  0  0  0  0  0  0  0  0  0  0  0
    4.8622   -1.1263    2.9275 O   0  0  0  0  0  0  0  0  0  0  0  0
    6.8515   -0.2281    2.0275 C   0  0  0  0  0  0  0  0  0  0  0  0
    2.7628   -1.1134   -0.2411 C   0  0  0  0  0  0  0  0  0  0  0  0
    3.5228   -2.4298   -0.2411 C   0  0  0  0  0  0  0  0  0  0  0  0
    2.9568   -3.5469    0.3644 C   0  0  0  0  0  0  0  0  0  0  0  0
    3.6482   -4.7537    0.3662 C   0  0  0  0  0  0  0  0  0  0  0  0
    4.8987   -4.8280   -0.2391 C   0  0  0  0  0  0  0  0  0  0  0  0
    5.5734   -5.9972   -0.2393 O   0  0  0  0  0  0  0  0  0  0  0  0
    5.4695   -3.7138   -0.8457 C   0  0  0  0  0  0  0  0  0  0  0  0
    4.7735   -2.5097   -0.8449 C   0  0  0  0  0  0  0  0  0  0  0  0
    0.5000    0.1340    1.0000 H   0  0  0  0  0  0  0  0  0  0  0  0
    0.8870    3.0171    1.2440 H   0  0  0  0  0  0  0  0  0  0  0  0
   -1.1943    2.9847   -0.2992 H   0  0  0  0  0  0  0  0  0  0  0  0
    1.2940    2.8333   -1.6720 H   0  0  0  0  0  0  0  0  0  0  0  0
    0.4803    4.8297   -2.6832 H   0  0  0  0  0  0  0  0  0  0  0  0
   -0.6435    3.6497   -2.7900 H   0  0  0  0  0  0  0  0  0  0  0  0
   -0.7971    4.8243   -1.6660 H   0  0  0  0  0  0  0  0  0  0  0  0
    2.0257    4.8997   -0.7422 H   0  0  0  0  0  0  0  0  0  0  0  0
    0.7483    4.8944    0.2751 H   0  0  0  0  0  0  0  0  0  0  0  0
    1.9187    3.7658    0.4281 H   0  0  0  0  0  0  0  0  0  0  0  0
   -0.5136    0.4578   -0.4393 H   0  0  0  0  0  0  0  0  0  0  0  0
   -1.3525    1.2165   -1.6172 H   0  0  0  0  0  0  0  0  0  0  0  0
    0.4675    0.1288   -2.4819 H   0  0  0  0  0  0  0  0  0  0  0  0
   -1.4879    1.4612    1.7693 H   0  0  0  0  0  0  0  0  0  0  0  0
   -1.0354    1.9072    4.0642 H   0  0  0  0  0  0  0  0  0  0  0  0
    0.2086    1.0858    3.3976 H   0  0  0  0  0  0  0  0  0  0  0  0
    0.3306    2.6959    3.6416 H   0  0  0  0  0  0  0  0  0  0  0  0
   -2.3699    3.4769    2.6800 H   0  0  0  0  0  0  0  0  0  0  0  0
   -1.0039    4.2656    2.2574 H   0  0  0  0  0  0  0  0  0  0  0  0
   -2.0039    3.6882    1.1026 H   0  0  0  0  0  0  0  0  0  0  0  0
    2.8884   -0.8407    1.8165 H   0  0  0  0  0  0  0  0  0  0  0  0
    4.9877    0.4693    0.2500 H   0  0  0  0  0  0  0  0  0  0  0  0
    7.0931    0.2963    1.2110 H   0  0  0  0  0  0  0  0  0  0  0  0
    7.0931    0.2963    2.8440 H   0  0  0  0  0  0  0  0  0  0  0  0
    7.3515   -1.0941    2.0275 H   0  0  0  0  0  0  0  0  0  0  0  0
    1.7796   -1.2961   -0.2411 H   0  0  0  0  0  0  0  0  0  0  0  0
    3.0044   -0.5890   -1.0576 H   0  0  0  0  0  0  0  0  0  0  0  0
    2.0571   -3.4826    0.7963 H   0  0  0  0  0  0  0  0  0  0  0  0
    3.2494   -5.5620    0.7993 H   0  0  0  0  0  0  0  0  0  0  0  0
    6.4725   -6.0555   -0.6731 H   0  0  0  0  0  0  0  0  0  0  0  0
    6.3694   -3.7778   -1.2771 H   0  0  0  0  0  0  0  0  0  0  0  0
    5.1720   -1.7014   -1.2783 H   0  0  0  0  0  0  0  0  0  0  0  0
  1  2  2  0  0  0  0
  2  3  1  0  0  0  0
  3  4  1  0  0  0  0
  4  5  1  0  0  0  0
  5  6  1  0  0  0  0
  6  7  1  0  0  0  0
  6  8  1  0  0  0  0
  5  9  1  0  0  0  0
  9 10  1  0  0  0  0
  4 11  1  0  0  0  0
 11 12  1  0  0  0  0
 11 13  1  0  0  0  0
  2 14  1  0  0  0  0
 14 15  1  0  0  0  0
 15 16  1  0  0  0  0
 16 17  2  0  0  0  0
 16 18  1  0  0  0  0
 14 19  1  0  0  0  0
 19 20  1  0  0  0  0
 20 21  1  0  0  0  0
 21 22  2  0  0  0  0
 22 23  1  0  0  0  0
 23 24  1  0  0  0  0
 23 25  2  0  0  0  0
 25 26  1  0  0  0  0
 26 20  2  0  0  0  0
  3 27  1  0  0  0  0
  4 28  1  0  0  0  0
  5 29  1  0  0  0  0
  6 30  1  0  0  0  0
  7 31  1  0  0  0  0
  7 32  1  0  0  0  0
  7 33  1  0  0  0  0
  8 34  1  0  0  0  0
  8 35  1  0  0  0  0
  8 36  1  0  0  0  0
  9 37  1  0  0  0  0
  9 38  1  0  0  0  0
 10 39  1  0  0  0  0
 11 40  1  0  0  0  0
 12 41  1  0  0  0  0
 12 42  1  0  0  0  0
 12 43  1  0  0  0  0
 13 44  1  0  0  0  0
 13 45  1  0  0  0  0
 13 46  1  0  0  0  0
 14 47  1  0  0  0  0
 15 48  1  0  0  0  0
 18 49  1  0  0  0  0
 18 50  1  0  0  0  0
 18 51  1  0  0  0  0
 19 52  1  0  0  0  0
 19 53  1  0  0  0  0
 21 54  1  0  0  0  0
 22 55  1  0  0  0  0
 24 56  1  0  0  0  0
 25 57  1  0  0  0  0
 26 58  1  0  0  0  0
M  END
>  <result-rank>
75

>  <similarity>
0.939

>  <query-name>
LIG_A_1101_C[NH+](C)[C@H]([R*])C1CCC1_2

>  <query-smiles>
O=C(N[C@@H]([NH+](C)C)C1CCC1)[C@@H](NC(=O)C)Cc2ccc(O)cc2

>  <source>
REALspace_2019-12

>  <similarity-descriptor>
0.898;1.000;0.852;0.852;0.838;0.838;0.995;0.995;1.000;1.000;1.000;1.000;1.000;1.000;0.105

>  <similarity-descriptor-smiles>
C(CC)C;c1ccccc1;O=C;O=C;NCC;NCC;C;C;C;N;C=O;C;C;O;C.O

>  <reaction-name>
s_22

>  <reagent1-name>
10744164

>  <reagent1-smiles>
[R1*]NC(C(C(C)C)CO)C(C)C

>  <reagent2-name>
17513450

>  <reagent2-smiles>
[R1*]C(=O)C(NC(=O)C)Cc1ccc(O)cc1

$$$$
s_22____9228604____17513450
          04022015103D 1   1.00000     0.00000     0
            
 43 43  0  0  0  0            999 V2000
    0.4000   -0.0392    1.0000 O   0  0  0  0  0  0  0  0  0  0  0  0
    1.0000    1.0000    1.0000 C   0  0  0  0  0  0  0  0  0  0  0  0
    2.3700    1.0000    1.0000 N   0  0  0  0  0  0  0  0  0  0  0  0
    3.1050   -0.2731    1.0000 C   0  0  0  0  0  0  0  0  0  0  0  0
    3.9789   -0.3536   -0.2411 C   0  0  0  0  0  0  0  0  0  0  0  0
    4.7389   -1.6699   -0.2411 C   0  0  0  0  0  0  0  0  0  0  0  0
    5.3339   -2.7005   -0.2411 C   0  0  0  0  0  0  0  0  0  0  0  0
    3.9789   -0.3536    2.2411 C   0  0  0  0  0  0  0  0  0  0  0  0
    3.1050   -0.2731    3.4821 C   0  0  0  0  0  0  0  0  0  0  0  0
    2.4209   -0.2100    4.4538 C   0  0  0  0  0  0  0  0  0  0  0  0
    0.2400    2.3164    1.0000 C   0  0  3  0  0  0  0  0  0  0  0  0
   -1.2052    2.0477    1.0000 N   0  0  0  0  0  0  0  0  0  0  0  0
   -1.9871    2.5058    2.0275 C   0  0  0  0  0  0  0  0  0  0  0  0
   -1.4922    3.1263    2.9275 O   0  0  0  0  0  0  0  0  0  0  0  0
   -3.4815    2.2281    2.0275 C   0  0  0  0  0  0  0  0  0  0  0  0
    0.6072    3.1134   -0.2411 C   0  0  0  0  0  0  0  0  0  0  0  0
   -0.1528    4.4298   -0.2411 C   0  0  0  0  0  0  0  0  0  0  0  0
    0.4132    5.5469    0.3644 C   0  0  0  0  0  0  0  0  0  0  0  0
   -0.2782    6.7537    0.3662 C   0  0  0  0  0  0  0  0  0  0  0  0
   -1.5287    6.8280   -0.2391 C   0  0  0  0  0  0  0  0  0  0  0  0
   -2.2034    7.9972   -0.2393 O   0  0  0  0  0  0  0  0  0  0  0  0
   -2.0995    5.7138   -0.8457 C   0  0  0  0  0  0  0  0  0  0  0  0
   -1.4035    4.5097   -0.8449 C   0  0  0  0  0  0  0  0  0  0  0  0
    2.8700    1.8660    1.0000 H   0  0  0  0  0  0  0  0  0  0  0  0
    2.4552   -1.0331    1.0000 H   0  0  0  0  0  0  0  0  0  0  0  0
    3.4040   -0.3006   -1.0576 H   0  0  0  0  0  0  0  0  0  0  0  0
    4.6287    0.4065   -0.2411 H   0  0  0  0  0  0  0  0  0  0  0  0
    5.8339   -3.5665   -0.2411 H   0  0  0  0  0  0  0  0  0  0  0  0
    4.4789   -1.2196    2.2411 H   0  0  0  0  0  0  0  0  0  0  0  0
    4.6287    0.4065    2.2411 H   0  0  0  0  0  0  0  0  0  0  0  0
    1.8459   -0.1570    5.2703 H   0  0  0  0  0  0  0  0  0  0  0  0
    0.4816    2.8407    1.8165 H   0  0  0  0  0  0  0  0  0  0  0  0
   -1.6177    1.5307    0.2500 H   0  0  0  0  0  0  0  0  0  0  0  0
   -3.7231    1.7037    1.2110 H   0  0  0  0  0  0  0  0  0  0  0  0
   -3.7231    1.7037    2.8440 H   0  0  0  0  0  0  0  0  0  0  0  0
   -3.9815    3.0941    2.0275 H   0  0  0  0  0  0  0  0  0  0  0  0
    1.5904    3.2961   -0.2411 H   0  0  0  0  0  0  0  0  0  0  0  0
    0.3656    2.5890   -1.0576 H   0  0  0  0  0  0  0  0  0  0  0  0
    1.3129    5.4826    0.7963 H   0  0  0  0  0  0  0  0  0  0  0  0
    0.1206    7.5620    0.7993 H   0  0  0  0  0  0  0  0  0  0  0  0
   -3.1025    8.0555   -0.6731 H   0  0  0  0  0  0  0  0  0  0  0  0
   -2.9994    5.7778   -1.2771 H   0  0  0  0  0  0  0  0  0  0  0  0
   -1.8020    3.7014   -1.2783 H   0  0  0  0  0  0  0  0  0  0  0  0
  1  2  2  0  0  0  0
  2  3  1  0  0  0  0
  3  4  1  0  0  0  0
  4  5  1  0  0  0  0
  5  6  1  0  0  0  0
  6  7  3  0  0  0  0
  4  8  1  0  0  0  0
  8  9  1  0  0  0  0
  9 10  3  0  0  0  0
  2 11  1  0  0  0  0
 11 12  1  0  0  0  0
 12 13  1  0  0  0  0
 13 14  2  0  0  0  0
 13 15  1  0  0  0  0
 11 16  1  0  0  0  0
 16 17  1  0  0  0  0
 17 18  1  0  0  0  0
 18 19  2  0  0  0  0
 19 20  1  0  0  0  0
 20 21  1  0  0  0  0
 20 22  2  0  0  0  0
 22 23  1  0  0  0  0
 23 17  2  0  0  0  0
  3 24  1  0  0  0  0
  4 25  1  0  0  0  0
  5 26  1  0  0  0  0
  5 27  1  0  0  0  0
  7 28  1  0  0  0  0
  8 29  1  0  0  0  0
  8 30  1  0  0  0  0
 10 31  1  0  0  0  0
 11 32  1  0  0  0  0
 12 33  1  0  0  0  0
 15 34  1  0  0  0  0
 15 35  1  0  0  0  0
 15 36  1  0  0  0  0
 16 37  1  0  0  0  0
 16 38  1  0  0  0  0
 18 39  1  0  0  0  0
 19 40  1  0  0  0  0
 21 41  1  0  0  0  0
 22 42  1  0  0  0  0
 23 43  1  0  0  0  0
M  END
>  <result-rank>
76

>  <similarity>
0.938

>  <query-name>
LIG_A_1101_C[NH+](C)[C@H]([R*])C1CCC1_2

>  <query-smiles>
O=C(N[C@@H]([NH+](C)C)C1CCC1)[C@@H](NC(=O)C)Cc2ccc(O)cc2

>  <source>
REALspace_2019-12

>  <similarity-descriptor>
0.0;1.000;0.852;0.852;0.984;0.984;0.992;0.992;1.000;1.000;1.000;1.000;1.000;1.000;0.125

>  <similarity-descriptor-smiles>
;c1ccccc1;O=C;O=C;NC;NC;CC;CC;C;N;C=O;C;C;O;C.C

>  <reaction-name>
s_22

>  <reagent1-name>
9228604

>  <reagent1-smiles>
[R1*]NC(CC#C)CC#C

>  <reagent2-name>
17513450

>  <reagent2-smiles>
[R1*]C(=O)C(NC(=O)C)Cc1ccc(O)cc1

$$$$
s_512____11569264____13970736
          04022015103D 1   1.00000     0.00000     0
            
 50 51  0  0  0  0            999 V2000
    6.1492   -5.8235    0.5425 F   0  0  0  0  0  0  0  0  0  0  0  0
    5.7442   -4.5573    0.5908 C   0  0  0  0  0  0  0  0  0  0  0  0
    4.8372   -4.0845   -0.3521 C   0  0  0  0  0  0  0  0  0  0  0  0
    4.4190   -2.7589   -0.2958 C   0  0  0  0  0  0  0  0  0  0  0  0
    4.9115   -1.9233    0.7010 C   0  0  0  0  0  0  0  0  0  0  0  0
    5.8176   -2.4016    1.6414 C   0  0  0  0  0  0  0  0  0  0  0  0
    6.2391   -3.7261    1.5903 C   0  0  0  0  0  0  0  0  0  0  0  0
    4.4506   -0.4762    0.7568 C   0  0  0  0  0  0  0  0  0  0  0  0
    2.9767   -0.4276    1.1249 C   0  0  3  0  0  0  0  0  0  0  0  0
    2.7959   -0.9060    2.5563 C   0  0  0  0  0  0  0  0  0  0  0  0
    3.3385   -0.3261    3.4558 O   0  0  0  0  0  0  0  0  0  0  0  0
    2.0133   -1.9993    2.8194 N   0  0  0  0  0  0  0  0  0  0  0  0
    2.0112   -2.5953    4.1632 C   0  0  0  0  0  0  0  0  0  0  0  0
    1.1759   -2.5764    1.7581 C   0  0  0  0  0  0  0  0  0  0  0  0
    2.4700    1.0000    1.0000 C   0  0  0  0  0  0  0  0  0  0  0  0
    1.0000    1.0000    1.0000 N   0  0  0  0  0  0  0  0  0  0  0  0
    0.3150    1.0000    2.1865 C   0  0  0  0  0  0  0  0  0  0  0  0
    0.8607    1.3554    3.1943 O   0  0  0  0  0  0  0  0  0  0  0  0
   -0.9930    0.5942    2.2222 N   0  0  0  0  0  0  0  0  0  0  0  0
   -1.7280    0.5942    3.4953 C   0  0  0  0  0  0  0  0  0  0  0  0
   -2.4048    1.9387    3.6887 C   0  0  0  0  0  0  0  0  0  0  0  0
   -3.3826    2.2394    2.5757 C   0  0  0  0  0  0  0  0  0  0  0  0
   -4.2580    2.8441    3.6482 C   0  0  3  0  0  0  0  0  0  0  0  0
   -5.5457    2.5790    3.4467 F   0  0  0  0  0  0  0  0  0  0  0  0
   -3.6129    1.8502    4.5915 C   0  0  0  0  0  0  0  0  0  0  0  0
    4.4885   -4.6929   -1.0650 H   0  0  0  0  0  0  0  0  0  0  0  0
    3.7674   -2.4086   -0.9687 H   0  0  0  0  0  0  0  0  0  0  0  0
    6.1661   -1.7932    2.3544 H   0  0  0  0  0  0  0  0  0  0  0  0
    6.8899   -4.0764    2.2638 H   0  0  0  0  0  0  0  0  0  0  0  0
    4.5852   -0.0488   -0.1372 H   0  0  0  0  0  0  0  0  0  0  0  0
    4.9826    0.0167    1.4454 H   0  0  0  0  0  0  0  0  0  0  0  0
    2.4592   -1.0202    0.5075 H   0  0  0  0  0  0  0  0  0  0  0  0
    1.3896   -3.3785    4.1794 H   0  0  0  0  0  0  0  0  0  0  0  0
    2.9355   -2.8984    4.3949 H   0  0  0  0  0  0  0  0  0  0  0  0
    1.7068   -1.9144    4.8294 H   0  0  0  0  0  0  0  0  0  0  0  0
    0.6743   -3.3624    2.1195 H   0  0  0  0  0  0  0  0  0  0  0  0
    0.5275   -1.8877    1.4335 H   0  0  0  0  0  0  0  0  0  0  0  0
    1.7562   -2.8717    0.9991 H   0  0  0  0  0  0  0  0  0  0  0  0
    2.8033    1.5408    1.7723 H   0  0  0  0  0  0  0  0  0  0  0  0
    2.8033    1.3984    0.1455 H   0  0  0  0  0  0  0  0  0  0  0  0
    0.5000    1.0000    0.1340 H   0  0  0  0  0  0  0  0  0  0  0  0
   -1.4478    0.2980    1.3823 H   0  0  0  0  0  0  0  0  0  0  0  0
   -1.0906    0.4305    4.2482 H   0  0  0  0  0  0  0  0  0  0  0  0
   -2.4195   -0.1280    3.4810 H   0  0  0  0  0  0  0  0  0  0  0  0
   -1.7803    2.6892    3.9051 H   0  0  0  0  0  0  0  0  0  0  0  0
   -3.0524    2.8848    1.8869 H   0  0  0  0  0  0  0  0  0  0  0  0
   -3.7659    1.4349    2.1221 H   0  0  0  0  0  0  0  0  0  0  0  0
   -4.0590    3.8021    3.8551 H   0  0  0  0  0  0  0  0  0  0  0  0
   -4.0515    0.9521    4.6232 H   0  0  0  0  0  0  0  0  0  0  0  0
   -3.4693    2.1841    5.5231 H   0  0  0  0  0  0  0  0  0  0  0  0
  1  2  1  0  0  0  0
  2  3  1  0  0  0  0
  3  4  2  0  0  0  0
  4  5  1  0  0  0  0
  5  6  2  0  0  0  0
  6  7  1  0  0  0  0
  7  2  2  0  0  0  0
  5  8  1  0  0  0  0
  8  9  1  0  0  0  0
  9 10  1  0  0  0  0
 10 11  2  0  0  0  0
 10 12  1  0  0  0  0
 12 13  1  0  0  0  0
 12 14  1  0  0  0  0
  9 15  1  0  0  0  0
 15 16  1  0  0  0  0
 16 17  1  0  0  0  0
 17 18  2  0  0  0  0
 17 19  1  0  0  0  0
 19 20  1  0  0  0  0
 20 21  1  0  0  0  0
 21 22  1  0  0  0  0
 22 23  1  0  0  0  0
 23 24  1  0  0  0  0
 23 25  1  0  0  0  0
 25 21  1  0  0  0  0
  3 26  1  0  0  0  0
  4 27  1  0  0  0  0
  6 28  1  0  0  0  0
  7 29  1  0  0  0  0
  8 30  1  0  0  0  0
  8 31  1  0  0  0  0
  9 32  1  0  0  0  0
 13 33  1  0  0  0  0
 13 34  1  0  0  0  0
 13 35  1  0  0  0  0
 14 36  1  0  0  0  0
 14 37  1  0  0  0  0
 14 38  1  0  0  0  0
 15 39  1  0  0  0  0
 15 40  1  0  0  0  0
 16 41  1  0  0  0  0
 19 42  1  0  0  0  0
 20 43  1  0  0  0  0
 20 44  1  0  0  0  0
 21 45  1  0  0  0  0
 22 46  1  0  0  0  0
 22 47  1  0  0  0  0
 23 48  1  0  0  0  0
 25 49  1  0  0  0  0
 25 50  1  0  0  0  0
M  END
>  <result-rank>
77

>  <similarity>
0.937

>  <query-name>
LIG_A_1101_C[NH+](C)[C@H]([R*])C1CCC1_2

>  <query-smiles>
O=C(N[C@@H]([NH+](C)C)C1CCC1)[C@@H](NC(=O)C)Cc2ccc(O)cc2

>  <source>
REALspace_2019-12

>  <similarity-descriptor>
0.995;0.983;0.995;1.000;0.942;0.0;0.0;0.0;0.824;0.824;1.000;0.977;1.000;0.0;0.077

>  <similarity-descriptor-smiles>
C1CC(C1)F;Fc1ccccc1;C=O;N;C;;;;CCN;CCN;C=O;NC;C;;C

>  <reaction-name>
s_512

>  <reagent1-name>
11569264

>  <reagent1-smiles>
[R1*]C(=O)NCC(C(=O)N(C)C)Cc1ccc(F)cc1

>  <reagent2-name>
13970736

>  <reagent2-smiles>
[R1*]NCC1CC(F)C1

$$$$
s_2708____5730620____4509046
          04022015103D 1   1.00000     0.00000     0
            
 63 65  0  0  0  0            999 V2000
    0.4000   -0.0392    1.0000 O   0  0  0  0  0  0  0  0  0  0  0  0
    1.0000    1.0000    1.0000 C   0  0  0  0  0  0  0  0  0  0  0  0
    2.3700    1.0000    1.0000 N   0  0  0  0  0  0  0  0  0  0  0  0
    3.1050   -0.2731    1.0000 C   0  0  3  0  0  0  0  0  0  0  0  0
    4.4331   -0.0913    1.7165 C   0  0  0  0  0  0  0  0  0  0  0  0
    5.4074    0.2402    1.0994 O   0  0  0  0  0  0  0  0  0  0  0  0
    4.5197   -0.3104    3.0947 N   0  0  0  0  0  0  0  0  0  0  0  0
    5.8202   -0.1260    3.7593 C   0  0  0  0  0  0  0  0  0  0  0  0
    5.9920   -1.0664    4.9440 C   0  0  0  0  0  0  0  0  0  0  0  0
    4.7618   -1.0926    5.8387 C   0  0  0  0  0  0  0  0  0  0  0  0
    3.6163   -1.6287    4.9921 C   0  0  0  0  0  0  0  0  0  0  0  0
    3.3014   -0.7191    3.8128 C   0  0  0  0  0  0  0  0  0  0  0  0
    3.3583   -0.7118   -0.4331 C   0  0  0  0  0  0  0  0  0  0  0  0
    3.9507   -2.1120   -0.4372 C   0  0  0  0  0  0  0  0  0  0  0  0
    3.1330   -3.2069   -0.1773 C   0  0  0  0  0  0  0  0  0  0  0  0
    3.6792   -4.4862   -0.1812 C   0  0  0  0  0  0  0  0  0  0  0  0
    5.0333   -4.6636   -0.4449 C   0  0  0  0  0  0  0  0  0  0  0  0
    5.8405   -3.5626   -0.7036 C   0  0  0  0  0  0  0  0  0  0  0  0
    5.3064   -2.2781   -0.7019 C   0  0  0  0  0  0  0  0  0  0  0  0
    0.3150    2.1865    1.0000 N   0  0  0  0  0  0  0  0  0  0  0  0
   -1.1575    2.1865    1.0000 C   0  0  3  0  0  0  0  0  0  0  0  0
   -1.6732    2.1865    2.4299 C   0  0  0  0  0  0  0  0  0  0  0  0
   -3.1931    2.2112    2.4211 C   0  0  3  0  0  0  0  0  0  0  0  0
   -3.6882    3.3902    1.6937 N   0  3  3  0  0  0  0  0  0  0  0  0
   -3.1940    3.4283    0.3094 C   0  0  0  0  0  0  0  0  0  0  0  0
   -1.6738    3.4257    0.2864 C   0  0  0  0  0  0  0  0  0  0  0  0
   -5.1574    3.4017    1.6486 C   0  0  0  0  0  0  0  0  0  0  0  0
   -3.6739    2.2125    3.8631 C   0  0  0  0  0  0  0  0  0  0  0  0
   -3.3759    4.2134    2.1679 H   0  0  0  0  0  0  0  0  0  0  0  0
    2.8700    1.8660    1.0000 H   0  0  0  0  0  0  0  0  0  0  0  0
    2.5646   -0.9700    1.4714 H   0  0  0  0  0  0  0  0  0  0  0  0
    5.8864    0.8176    4.0836 H   0  0  0  0  0  0  0  0  0  0  0  0
    6.5490   -0.3031    3.0979 H   0  0  0  0  0  0  0  0  0  0  0  0
    6.7771   -0.7637    5.4844 H   0  0  0  0  0  0  0  0  0  0  0  0
    6.1602   -1.9903    4.6003 H   0  0  0  0  0  0  0  0  0  0  0  0
    4.5500   -0.1698    6.1605 H   0  0  0  0  0  0  0  0  0  0  0  0
    4.9196   -1.6914    6.6239 H   0  0  0  0  0  0  0  0  0  0  0  0
    3.8676   -2.5320    4.6444 H   0  0  0  0  0  0  0  0  0  0  0  0
    2.8008   -1.7072    5.5655 H   0  0  0  0  0  0  0  0  0  0  0  0
    2.7009   -1.2071    3.1793 H   0  0  0  0  0  0  0  0  0  0  0  0
    2.8355    0.0988    4.1506 H   0  0  0  0  0  0  0  0  0  0  0  0
    2.4956   -0.7134   -0.9387 H   0  0  0  0  0  0  0  0  0  0  0  0
    3.9982   -0.0780   -0.8676 H   0  0  0  0  0  0  0  0  0  0  0  0
    2.1597   -3.0753    0.0108 H   0  0  0  0  0  0  0  0  0  0  0  0
    3.0983   -5.2785    0.0056 H   0  0  0  0  0  0  0  0  0  0  0  0
    5.4259   -5.5833   -0.4483 H   0  0  0  0  0  0  0  0  0  0  0  0
    6.8135   -3.6946   -0.8925 H   0  0  0  0  0  0  0  0  0  0  0  0
    5.8880   -1.4863   -0.8883 H   0  0  0  0  0  0  0  0  0  0  0  0
    0.8150    3.0525    1.0000 H   0  0  0  0  0  0  0  0  0  0  0  0
   -1.4892    1.3697    0.5279 H   0  0  0  0  0  0  0  0  0  0  0  0
   -1.3560    1.3619    2.8984 H   0  0  0  0  0  0  0  0  0  0  0  0
   -1.3295    2.9947    2.9080 H   0  0  0  0  0  0  0  0  0  0  0  0
   -3.5287    1.3855    1.9678 H   0  0  0  0  0  0  0  0  0  0  0  0
   -3.5285    4.2584   -0.1367 H   0  0  0  0  0  0  0  0  0  0  0  0
   -3.5319    2.6261   -0.1829 H   0  0  0  0  0  0  0  0  0  0  0  0
   -1.3548    3.4216   -0.6613 H   0  0  0  0  0  0  0  0  0  0  0  0
   -1.3322    4.2435    0.7496 H   0  0  0  0  0  0  0  0  0  0  0  0
   -5.4693    4.2106    1.1502 H   0  0  0  0  0  0  0  0  0  0  0  0
   -5.4832    2.5780    1.1844 H   0  0  0  0  0  0  0  0  0  0  0  0
   -5.5194    3.4243    2.5806 H   0  0  0  0  0  0  0  0  0  0  0  0
   -3.3231    1.4020    4.3322 H   0  0  0  0  0  0  0  0  0  0  0  0
   -3.3411    3.0349    4.3247 H   0  0  0  0  0  0  0  0  0  0  0  0
   -4.6736    2.2016    3.8812 H   0  0  0  0  0  0  0  0  0  0  0  0
  1  2  2  0  0  0  0
  2  3  1  0  0  0  0
  3  4  1  0  0  0  0
  4  5  1  0  0  0  0
  5  6  2  0  0  0  0
  5  7  1  0  0  0  0
  7  8  1  0  0  0  0
  8  9  1  0  0  0  0
  9 10  1  0  0  0  0
 10 11  1  0  0  0  0
 11 12  1  0  0  0  0
 12  7  1  0  0  0  0
  4 13  1  0  0  0  0
 13 14  1  0  0  0  0
 14 15  1  0  0  0  0
 15 16  2  0  0  0  0
 16 17  1  0  0  0  0
 17 18  2  0  0  0  0
 18 19  1  0  0  0  0
 19 14  2  0  0  0  0
  2 20  1  0  0  0  0
 20 21  1  0  0  0  0
 21 22  1  0  0  0  0
 22 23  1  0  0  0  0
 23 24  1  0  0  0  0
 24 25  1  0  0  0  0
 25 26  1  0  0  0  0
 26 21  1  0  0  0  0
 24 27  1  0  0  0  0
 23 28  1  0  0  0  0
 24 29  1  0  0  0  0
  3 30  1  0  0  0  0
  4 31  1  0  0  0  0
  8 32  1  0  0  0  0
  8 33  1  0  0  0  0
  9 34  1  0  0  0  0
  9 35  1  0  0  0  0
 10 36  1  0  0  0  0
 10 37  1  0  0  0  0
 11 38  1  0  0  0  0
 11 39  1  0  0  0  0
 12 40  1  0  0  0  0
 12 41  1  0  0  0  0
 13 42  1  0  0  0  0
 13 43  1  0  0  0  0
 15 44  1  0  0  0  0
 16 45  1  0  0  0  0
 17 46  1  0  0  0  0
 18 47  1  0  0  0  0
 19 48  1  0  0  0  0
 20 49  1  0  0  0  0
 21 50  1  0  0  0  0
 22 51  1  0  0  0  0
 22 52  1  0  0  0  0
 23 53  1  0  0  0  0
 25 54  1  0  0  0  0
 25 55  1  0  0  0  0
 26 56  1  0  0  0  0
 26 57  1  0  0  0  0
 27 58  1  0  0  0  0
 27 59  1  0  0  0  0
 27 60  1  0  0  0  0
 28 61  1  0  0  0  0
 28 62  1  0  0  0  0
 28 63  1  0  0  0  0
M  CHG  1  24   1
M  END
>  <result-rank>
78

>  <similarity>
0.937

>  <query-name>
LIG_A_1101_C[NH+](C)[C@H]([R*])C1CCC1_2

>  <query-smiles>
O=C(N[C@@H]([NH+](C)C)C1CCC1)[C@@H](NC(=O)C)Cc2ccc(O)cc2

>  <source>
REALspace_2019-12

>  <similarity-descriptor>
0.999;0.960;0.995;1.000;0.999;0.999;1.000;0.995;1.000;1.000;1.000;0.0;1.000;0.0;0.091

>  <similarity-descriptor-smiles>
C1CC[NH+]CC1;c1ccccc1;O=C;N;C1CC[NH+]CC1;C1CC[NH+]CC1;C;C;NC;NC;C=O;;C;;N1CCCCC1

>  <reaction-name>
s_2708

>  <reagent1-name>
5730620

>  <reagent1-smiles>
[R1*]C(=O)NC1CC(N(CC1)C)C

>  <reagent2-name>
4509046

>  <reagent2-smiles>
[R1*]NC(C(=O)N1CCCCC1)Cc2ccccc2

$$$$
s_2708____5730620____8804876
          04022015103D 1   1.00000     0.00000     0
            
 61 63  0  0  0  0            999 V2000
    0.4000   -0.0392    1.0000 O   0  0  0  0  0  0  0  0  0  0  0  0
    1.0000    1.0000    1.0000 C   0  0  0  0  0  0  0  0  0  0  0  0
    2.3700    1.0000    1.0000 N   0  0  0  0  0  0  0  0  0  0  0  0
    3.1050   -0.2731    1.0000 C   0  0  3  0  0  0  0  0  0  0  0  0
    4.4331   -0.0913    1.7165 C   0  0  0  0  0  0  0  0  0  0  0  0
    5.4074    0.2402    1.0994 O   0  0  0  0  0  0  0  0  0  0  0  0
    4.5198   -0.3107    3.0964 N   0  0  0  0  0  0  0  0  0  0  0  0
    5.8139   -0.1298    3.7727 C   0  0  0  0  0  0  0  0  0  0  0  0
    5.6202    0.3786    5.1929 C   0  0  0  0  0  0  0  0  0  0  0  0
    4.6038   -0.3480    5.8716 O   0  0  0  0  0  0  0  0  0  0  0  0
    3.3397   -0.1394    5.2557 C   0  0  0  0  0  0  0  0  0  0  0  0
    3.3096   -0.6935    3.8395 C   0  0  0  0  0  0  0  0  0  0  0  0
    3.3583   -0.7118   -0.4331 C   0  0  0  0  0  0  0  0  0  0  0  0
    3.9507   -2.1120   -0.4372 C   0  0  0  0  0  0  0  0  0  0  0  0
    3.1330   -3.2069   -0.1773 C   0  0  0  0  0  0  0  0  0  0  0  0
    3.6792   -4.4862   -0.1812 C   0  0  0  0  0  0  0  0  0  0  0  0
    5.0333   -4.6636   -0.4449 C   0  0  0  0  0  0  0  0  0  0  0  0
    5.8405   -3.5626   -0.7036 C   0  0  0  0  0  0  0  0  0  0  0  0
    5.3064   -2.2781   -0.7019 C   0  0  0  0  0  0  0  0  0  0  0  0
    0.3150    2.1865    1.0000 N   0  0  0  0  0  0  0  0  0  0  0  0
   -1.1575    2.1865    1.0000 C   0  0  3  0  0  0  0  0  0  0  0  0
   -1.6732    2.1865    2.4299 C   0  0  0  0  0  0  0  0  0  0  0  0
   -3.1931    2.2112    2.4211 C   0  0  3  0  0  0  0  0  0  0  0  0
   -3.6882    3.3902    1.6937 N   0  3  3  0  0  0  0  0  0  0  0  0
   -3.1940    3.4283    0.3094 C   0  0  0  0  0  0  0  0  0  0  0  0
   -1.6738    3.4257    0.2864 C   0  0  0  0  0  0  0  0  0  0  0  0
   -5.1574    3.4017    1.6486 C   0  0  0  0  0  0  0  0  0  0  0  0
   -3.6739    2.2125    3.8631 C   0  0  0  0  0  0  0  0  0  0  0  0
   -3.3759    4.2134    2.1679 H   0  0  0  0  0  0  0  0  0  0  0  0
    2.8700    1.8660    1.0000 H   0  0  0  0  0  0  0  0  0  0  0  0
    2.5646   -0.9700    1.4714 H   0  0  0  0  0  0  0  0  0  0  0  0
    6.3610    0.5320    3.2602 H   0  0  0  0  0  0  0  0  0  0  0  0
    6.2931   -1.0070    3.8018 H   0  0  0  0  0  0  0  0  0  0  0  0
    6.4801    0.2796    5.6937 H   0  0  0  0  0  0  0  0  0  0  0  0
    5.3628    1.3443    5.1603 H   0  0  0  0  0  0  0  0  0  0  0  0
    3.1518    0.8423    5.2244 H   0  0  0  0  0  0  0  0  0  0  0  0
    2.6348   -0.5965    5.7982 H   0  0  0  0  0  0  0  0  0  0  0  0
    3.2528   -1.6911    3.8800 H   0  0  0  0  0  0  0  0  0  0  0  0
    2.5068   -0.3330    3.3645 H   0  0  0  0  0  0  0  0  0  0  0  0
    2.4956   -0.7134   -0.9387 H   0  0  0  0  0  0  0  0  0  0  0  0
    3.9982   -0.0780   -0.8676 H   0  0  0  0  0  0  0  0  0  0  0  0
    2.1597   -3.0753    0.0108 H   0  0  0  0  0  0  0  0  0  0  0  0
    3.0983   -5.2785    0.0056 H   0  0  0  0  0  0  0  0  0  0  0  0
    5.4259   -5.5833   -0.4483 H   0  0  0  0  0  0  0  0  0  0  0  0
    6.8135   -3.6946   -0.8925 H   0  0  0  0  0  0  0  0  0  0  0  0
    5.8880   -1.4863   -0.8883 H   0  0  0  0  0  0  0  0  0  0  0  0
    0.8150    3.0525    1.0000 H   0  0  0  0  0  0  0  0  0  0  0  0
   -1.4892    1.3697    0.5279 H   0  0  0  0  0  0  0  0  0  0  0  0
   -1.3560    1.3619    2.8984 H   0  0  0  0  0  0  0  0  0  0  0  0
   -1.3295    2.9947    2.9080 H   0  0  0  0  0  0  0  0  0  0  0  0
   -3.5287    1.3855    1.9678 H   0  0  0  0  0  0  0  0  0  0  0  0
   -3.5285    4.2584   -0.1367 H   0  0  0  0  0  0  0  0  0  0  0  0
   -3.5319    2.6261   -0.1829 H   0  0  0  0  0  0  0  0  0  0  0  0
   -1.3548    3.4216   -0.6613 H   0  0  0  0  0  0  0  0  0  0  0  0
   -1.3322    4.2435    0.7496 H   0  0  0  0  0  0  0  0  0  0  0  0
   -5.4693    4.2106    1.1502 H   0  0  0  0  0  0  0  0  0  0  0  0
   -5.4832    2.5780    1.1844 H   0  0  0  0  0  0  0  0  0  0  0  0
   -5.5194    3.4243    2.5806 H   0  0  0  0  0  0  0  0  0  0  0  0
   -3.3231    1.4020    4.3322 H   0  0  0  0  0  0  0  0  0  0  0  0
   -3.3411    3.0349    4.3247 H   0  0  0  0  0  0  0  0  0  0  0  0
   -4.6736    2.2016    3.8812 H   0  0  0  0  0  0  0  0  0  0  0  0
  1  2  2  0  0  0  0
  2  3  1  0  0  0  0
  3  4  1  0  0  0  0
  4  5  1  0  0  0  0
  5  6  2  0  0  0  0
  5  7  1  0  0  0  0
  7  8  1  0  0  0  0
  8  9  1  0  0  0  0
  9 10  1  0  0  0  0
 10 11  1  0  0  0  0
 11 12  1  0  0  0  0
 12  7  1  0  0  0  0
  4 13  1  0  0  0  0
 13 14  1  0  0  0  0
 14 15  1  0  0  0  0
 15 16  2  0  0  0  0
 16 17  1  0  0  0  0
 17 18  2  0  0  0  0
 18 19  1  0  0  0  0
 19 14  2  0  0  0  0
  2 20  1  0  0  0  0
 20 21  1  0  0  0  0
 21 22  1  0  0  0  0
 22 23  1  0  0  0  0
 23 24  1  0  0  0  0
 24 25  1  0  0  0  0
 25 26  1  0  0  0  0
 26 21  1  0  0  0  0
 24 27  1  0  0  0  0
 23 28  1  0  0  0  0
 24 29  1  0  0  0  0
  3 30  1  0  0  0  0
  4 31  1  0  0  0  0
  8 32  1  0  0  0  0
  8 33  1  0  0  0  0
  9 34  1  0  0  0  0
  9 35  1  0  0  0  0
 11 36  1  0  0  0  0
 11 37  1  0  0  0  0
 12 38  1  0  0  0  0
 12 39  1  0  0  0  0
 13 40  1  0  0  0  0
 13 41  1  0  0  0  0
 15 42  1  0  0  0  0
 16 43  1  0  0  0  0
 17 44  1  0  0  0  0
 18 45  1  0  0  0  0
 19 46  1  0  0  0  0
 20 47  1  0  0  0  0
 21 48  1  0  0  0  0
 22 49  1  0  0  0  0
 22 50  1  0  0  0  0
 23 51  1  0  0  0  0
 25 52  1  0  0  0  0
 25 53  1  0  0  0  0
 26 54  1  0  0  0  0
 26 55  1  0  0  0  0
 27 56  1  0  0  0  0
 27 57  1  0  0  0  0
 27 58  1  0  0  0  0
 28 59  1  0  0  0  0
 28 60  1  0  0  0  0
 28 61  1  0  0  0  0
M  CHG  1  24   1
M  END
>  <result-rank>
79

>  <similarity>
0.937

>  <query-name>
LIG_A_1101_C[NH+](C)[C@H]([R*])C1CCC1_2

>  <query-smiles>
O=C(N[C@@H]([NH+](C)C)C1CCC1)[C@@H](NC(=O)C)Cc2ccc(O)cc2

>  <source>
REALspace_2019-12

>  <similarity-descriptor>
0.999;0.960;0.995;1.000;0.999;0.999;1.000;0.995;1.000;1.000;1.000;0.0;1.000;0.0;0.091

>  <similarity-descriptor-smiles>
C1CC[NH+]CC1;c1ccccc1;O=C;N;C1CC[NH+]CC1;C1CC[NH+]CC1;C;C;NC;NC;C=O;;C;;N1CCOCC1

>  <reaction-name>
s_2708

>  <reagent1-name>
5730620

>  <reagent1-smiles>
[R1*]C(=O)NC1CC(N(CC1)C)C

>  <reagent2-name>
8804876

>  <reagent2-smiles>
[R1*]NC(C(=O)N1CCOCC1)Cc2ccccc2

$$$$
s_2708____9434212____4066176
          04022015103D 1   1.00000     0.00000     0
            
 48 49  0  0  0  0            999 V2000
    6.6000   -0.6007    5.9456 Cl  0  0  0  0  0  0  0  0  0  0  0  0
    5.5733   -0.5035    4.4950 C   0  0  0  0  0  0  0  0  0  0  0  0
    4.2298   -0.1678    4.6198 C   0  0  0  0  0  0  0  0  0  0  0  0
    3.4235   -0.0914    3.4886 C   0  0  0  0  0  0  0  0  0  0  0  0
    3.9785   -0.3535    2.2406 C   0  0  0  0  0  0  0  0  0  0  0  0
    5.3219   -0.6895    2.1153 C   0  0  0  0  0  0  0  0  0  0  0  0
    6.1283   -0.7660    3.2467 C   0  0  0  0  0  0  0  0  0  0  0  0
    3.1050   -0.2731    1.0000 C   0  0  3  0  0  0  0  0  0  0  0  0
    2.3700    1.0000    1.0000 N   0  0  0  0  0  0  0  0  0  0  0  0
    1.0000    1.0000    1.0000 C   0  0  0  0  0  0  0  0  0  0  0  0
    0.4000   -0.0392    1.0000 O   0  0  0  0  0  0  0  0  0  0  0  0
    0.3150    2.1865    1.0000 N   0  0  0  0  0  0  0  0  0  0  0  0
   -1.1579    2.1865    1.0000 C   0  0  0  0  0  0  0  0  0  0  0  0
   -1.6764    2.9014   -0.2383 C   0  0  0  0  0  0  0  0  0  0  0  0
   -3.1967    2.9167   -0.2204 C   0  0  0  0  0  0  0  0  0  0  0  0
   -3.7064    3.5736    0.9927 N   0  3  3  0  0  0  0  0  0  0  0  0
   -5.1780    3.6142    0.9930 C   0  0  0  0  0  0  0  0  0  0  0  0
   -5.6657    4.2987    2.2595 C   0  0  0  0  0  0  0  0  0  0  0  0
   -6.0315    4.8121    3.2094 N   0  0  0  0  0  0  0  0  0  0  0  0
   -3.2057    2.9235    2.2133 C   0  0  0  0  0  0  0  0  0  0  0  0
   -1.6855    2.9081    2.2297 C   0  0  0  0  0  0  0  0  0  0  0  0
    3.9789   -0.3536   -0.2411 C   0  0  0  0  0  0  0  0  0  0  0  0
    3.1625   -0.2784   -1.4005 O   0  0  0  0  0  0  0  0  0  0  0  0
    2.7675   -1.5864   -1.7870 C   0  0  0  0  0  0  0  0  0  0  0  0
   -3.3749    4.5171    0.9913 H   0  0  0  0  0  0  0  0  0  0  0  0
    3.8429    0.0188    5.5229 H   0  0  0  0  0  0  0  0  0  0  0  0
    2.4564    0.1491    3.5719 H   0  0  0  0  0  0  0  0  0  0  0  0
    5.7085   -0.8762    1.2122 H   0  0  0  0  0  0  0  0  0  0  0  0
    7.0954   -1.0067    3.1635 H   0  0  0  0  0  0  0  0  0  0  0  0
    2.4552   -1.0331    1.0000 H   0  0  0  0  0  0  0  0  0  0  0  0
    2.8700    1.8660    1.0000 H   0  0  0  0  0  0  0  0  0  0  0  0
    0.8150    3.0525    1.0000 H   0  0  0  0  0  0  0  0  0  0  0  0
   -1.4895    1.2430    1.0015 H   0  0  0  0  0  0  0  0  0  0  0  0
   -1.3582    2.4226   -1.0565 H   0  0  0  0  0  0  0  0  0  0  0  0
   -1.3343    3.8410   -0.2476 H   0  0  0  0  0  0  0  0  0  0  0  0
   -3.5275    3.4123   -1.0235 H   0  0  0  0  0  0  0  0  0  0  0  0
   -3.5330    1.9754   -0.2477 H   0  0  0  0  0  0  0  0  0  0  0  0
   -5.5372    2.6816    0.9587 H   0  0  0  0  0  0  0  0  0  0  0  0
   -5.4976    4.1241    0.1943 H   0  0  0  0  0  0  0  0  0  0  0  0
   -3.5438    1.9830    2.2465 H   0  0  0  0  0  0  0  0  0  0  0  0
   -3.5375    3.4254    3.0121 H   0  0  0  0  0  0  0  0  0  0  0  0
   -1.3450    3.8484    2.2330 H   0  0  0  0  0  0  0  0  0  0  0  0
   -1.3682    2.4358    3.0520 H   0  0  0  0  0  0  0  0  0  0  0  0
    4.6287    0.4065   -0.2411 H   0  0  0  0  0  0  0  0  0  0  0  0
    4.4789   -1.2196   -0.2411 H   0  0  0  0  0  0  0  0  0  0  0  0
    2.1926   -1.5334   -2.6035 H   0  0  0  0  0  0  0  0  0  0  0  0
    3.5798   -2.1347   -1.9862 H   0  0  0  0  0  0  0  0  0  0  0  0
    2.2521   -2.0123   -1.0434 H   0  0  0  0  0  0  0  0  0  0  0  0
  1  2  1  0  0  0  0
  2  3  1  0  0  0  0
  3  4  2  0  0  0  0
  4  5  1  0  0  0  0
  5  6  2  0  0  0  0
  6  7  1  0  0  0  0
  7  2  2  0  0  0  0
  5  8  1  0  0  0  0
  8  9  1  0  0  0  0
  9 10  1  0  0  0  0
 10 11  2  0  0  0  0
 10 12  1  0  0  0  0
 12 13  1  0  0  0  0
 13 14  1  0  0  0  0
 14 15  1  0  0  0  0
 15 16  1  0  0  0  0
 16 17  1  0  0  0  0
 17 18  1  0  0  0  0
 18 19  3  0  0  0  0
 16 20  1  0  0  0  0
 20 21  1  0  0  0  0
 21 13  1  0  0  0  0
  8 22  1  0  0  0  0
 22 23  1  0  0  0  0
 23 24  1  0  0  0  0
 16 25  1  0  0  0  0
  3 26  1  0  0  0  0
  4 27  1  0  0  0  0
  6 28  1  0  0  0  0
  7 29  1  0  0  0  0
  8 30  1  0  0  0  0
  9 31  1  0  0  0  0
 12 32  1  0  0  0  0
 13 33  1  0  0  0  0
 14 34  1  0  0  0  0
 14 35  1  0  0  0  0
 15 36  1  0  0  0  0
 15 37  1  0  0  0  0
 17 38  1  0  0  0  0
 17 39  1  0  0  0  0
 20 40  1  0  0  0  0
 20 41  1  0  0  0  0
 21 42  1  0  0  0  0
 21 43  1  0  0  0  0
 22 44  1  0  0  0  0
 22 45  1  0  0  0  0
 24 46  1  0  0  0  0
 24 47  1  0  0  0  0
 24 48  1  0  0  0  0
M  CHG  1  16   1
M  END
>  <result-rank>
80

>  <similarity>
0.937

>  <query-name>
LIG_A_1101_C[NH+](C)[C@H]([R*])C1CCC1_2

>  <query-smiles>
O=C(N[C@@H]([NH+](C)C)C1CCC1)[C@@H](NC(=O)C)Cc2ccc(O)cc2

>  <source>
REALspace_2019-12

>  <similarity-descriptor>
0.986;0.969;0.995;1.000;0.986;0.986;0.0;0.950;1.000;1.000;0.770;0.994;0.969;0.0;0.091

>  <similarity-descriptor-smiles>
C1CC[NH+]CC1;Clc1ccccc1;C=O;N;C1CC[NH+]CC1;C1CC[NH+]CC1;;C;CN;CN;CO;C;Clc1ccccc1;;C#N

>  <reaction-name>
s_2708

>  <reagent1-name>
9434212

>  <reagent1-smiles>
[R1*]C(=O)NC(c1ccc(Cl)cc1)COC

>  <reagent2-name>
4066176

>  <reagent2-smiles>
[R1*]NC1CCN(CC#N)CC1

$$$$
s_22____12110726____17513450
          04022015103D 1   1.00000     0.00000     0
            
 57 59  0  0  0  0            999 V2000
    1.4147    2.4076    2.8496 O   0  0  0  0  0  0  0  0  0  0  0  0
    1.8776    1.8776    1.8776 C   0  0  0  0  0  0  0  0  0  0  0  0
    3.2247    2.0673    1.5521 N   0  0  0  0  0  0  0  0  0  0  0  0
    3.9589    3.1648    2.2044 C   0  0  0  0  0  0  0  0  0  0  0  0
    5.4269    2.8279    2.4317 C   0  0  0  0  0  0  0  0  0  0  0  0
    6.0780    2.1609    1.2277 C   0  0  0  0  0  0  0  0  0  0  0  0
    7.4465    1.7785    1.6076 N   0  3  3  0  0  0  0  0  0  0  0  0
    8.2392    2.9934    1.8346 C   0  0  0  0  0  0  0  0  0  0  0  0
    9.6644    2.4963    1.7122 C   0  0  3  0  0  0  0  0  0  0  0  0
   10.5513    3.5788    1.4683 O   0  0  0  0  0  0  0  0  0  0  0  0
    9.5560    1.5943    0.4952 C   0  0  0  0  0  0  0  0  0  0  0  0
    8.1114    1.1443    0.4630 C   0  0  0  0  0  0  0  0  0  0  0  0
    5.3102    0.8894    0.8926 C   0  0  0  0  0  0  0  0  0  0  0  0
    3.8431    1.1516    0.5790 C   0  0  0  0  0  0  0  0  0  0  0  0
    1.0000    1.0000    1.0000 C   0  0  3  0  0  0  0  0  0  0  0  0
   -0.2629    0.7171    1.6971 N   0  0  0  0  0  0  0  0  0  0  0  0
   -0.6150   -0.5766    1.9787 C   0  0  0  0  0  0  0  0  0  0  0  0
    0.1075   -1.4788    1.6563 O   0  0  0  0  0  0  0  0  0  0  0  0
   -1.9209   -0.8691    2.6995 C   0  0  0  0  0  0  0  0  0  0  0  0
    0.7075    1.7208   -0.3059 C   0  0  0  0  0  0  0  0  0  0  0  0
    0.3370    0.7044   -1.3737 C   0  0  0  0  0  0  0  0  0  0  0  0
    1.3360    0.1515   -2.1682 C   0  0  0  0  0  0  0  0  0  0  0  0
    1.0019   -0.7794   -3.1460 C   0  0  0  0  0  0  0  0  0  0  0  0
   -0.3293   -1.1464   -3.3166 C   0  0  0  0  0  0  0  0  0  0  0  0
   -0.6580   -2.0493   -4.2646 O   0  0  0  0  0  0  0  0  0  0  0  0
   -1.3322   -0.5963   -2.5250 C   0  0  0  0  0  0  0  0  0  0  0  0
   -0.9924    0.3339   -1.5484 C   0  0  0  0  0  0  0  0  0  0  0  0
    7.4510    1.1824    2.4105 H   0  0  0  0  0  0  0  0  0  0  0  0
    3.5326    3.3552    3.0887 H   0  0  0  0  0  0  0  0  0  0  0  0
    3.9022    3.9779    1.6250 H   0  0  0  0  0  0  0  0  0  0  0  0
    5.9205    3.6740    2.6328 H   0  0  0  0  0  0  0  0  0  0  0  0
    5.4942    2.2087    3.2141 H   0  0  0  0  0  0  0  0  0  0  0  0
    6.0902    2.7822    0.4442 H   0  0  0  0  0  0  0  0  0  0  0  0
    8.0667    3.3705    2.7445 H   0  0  0  0  0  0  0  0  0  0  0  0
    8.0398    3.6874    1.1428 H   0  0  0  0  0  0  0  0  0  0  0  0
    9.9385    1.9792    2.5231 H   0  0  0  0  0  0  0  0  0  0  0  0
   11.4863    3.2326    1.3904 H   0  0  0  0  0  0  0  0  0  0  0  0
   10.1666    0.8076    0.5863 H   0  0  0  0  0  0  0  0  0  0  0  0
    9.7848    2.0992   -0.3371 H   0  0  0  0  0  0  0  0  0  0  0  0
    7.6791    1.4344   -0.3908 H   0  0  0  0  0  0  0  0  0  0  0  0
    8.0587    0.1489    0.5419 H   0  0  0  0  0  0  0  0  0  0  0  0
    5.3638    0.2683    1.6745 H   0  0  0  0  0  0  0  0  0  0  0  0
    5.7354    0.4599    0.0959 H   0  0  0  0  0  0  0  0  0  0  0  0
    3.7754    1.5563   -0.3330 H   0  0  0  0  0  0  0  0  0  0  0  0
    3.3493    0.2821    0.5953 H   0  0  0  0  0  0  0  0  0  0  0  0
    1.4742    0.1409    0.8075 H   0  0  0  0  0  0  0  0  0  0  0  0
   -0.8650    1.4689    1.9658 H   0  0  0  0  0  0  0  0  0  0  0  0
   -2.3951   -0.0100    2.8919 H   0  0  0  0  0  0  0  0  0  0  0  0
   -2.4982   -1.4465    2.1221 H   0  0  0  0  0  0  0  0  0  0  0  0
   -1.7284   -1.3433    3.5586 H   0  0  0  0  0  0  0  0  0  0  0  0
   -0.0529    2.3565   -0.1726 H   0  0  0  0  0  0  0  0  0  0  0  0
    1.5191    2.2280   -0.5957 H   0  0  0  0  0  0  0  0  0  0  0  0
    2.2898    0.4221   -2.0370 H   0  0  0  0  0  0  0  0  0  0  0  0
    1.7132   -1.1820   -3.7222 H   0  0  0  0  0  0  0  0  0  0  0  0
   -1.6134   -2.3163   -4.3910 H   0  0  0  0  0  0  0  0  0  0  0  0
   -2.2860   -0.8663   -2.6565 H   0  0  0  0  0  0  0  0  0  0  0  0
   -1.7035    0.7362   -0.9719 H   0  0  0  0  0  0  0  0  0  0  0  0
  1  2  2  0  0  0  0
  2  3  1  0  0  0  0
  3  4  1  0  0  0  0
  4  5  1  0  0  0  0
  5  6  1  0  0  0  0
  6  7  1  0  0  0  0
  7  8  1  0  0  0  0
  8  9  1  0  0  0  0
  9 10  1  0  0  0  0
  9 11  1  0  0  0  0
 11 12  1  0  0  0  0
 12  7  1  0  0  0  0
  6 13  1  0  0  0  0
 13 14  1  0  0  0  0
 14  3  1  0  0  0  0
  2 15  1  0  0  0  0
 15 16  1  0  0  0  0
 16 17  1  0  0  0  0
 17 18  2  0  0  0  0
 17 19  1  0  0  0  0
 15 20  1  0  0  0  0
 20 21  1  0  0  0  0
 21 22  1  0  0  0  0
 22 23  2  0  0  0  0
 23 24  1  0  0  0  0
 24 25  1  0  0  0  0
 24 26  2  0  0  0  0
 26 27  1  0  0  0  0
 27 21  2  0  0  0  0
  7 28  1  0  0  0  0
  4 29  1  0  0  0  0
  4 30  1  0  0  0  0
  5 31  1  0  0  0  0
  5 32  1  0  0  0  0
  6 33  1  0  0  0  0
  8 34  1  0  0  0  0
  8 35  1  0  0  0  0
  9 36  1  0  0  0  0
 10 37  1  0  0  0  0
 11 38  1  0  0  0  0
 11 39  1  0  0  0  0
 12 40  1  0  0  0  0
 12 41  1  0  0  0  0
 13 42  1  0  0  0  0
 13 43  1  0  0  0  0
 14 44  1  0  0  0  0
 14 45  1  0  0  0  0
 15 46  1  0  0  0  0
 16 47  1  0  0  0  0
 19 48  1  0  0  0  0
 19 49  1  0  0  0  0
 19 50  1  0  0  0  0
 20 51  1  0  0  0  0
 20 52  1  0  0  0  0
 22 53  1  0  0  0  0
 23 54  1  0  0  0  0
 25 55  1  0  0  0  0
 26 56  1  0  0  0  0
 27 57  1  0  0  0  0
M  CHG  1   7   1
M  END
>  <result-rank>
81

>  <similarity>
0.937

>  <query-name>
LIG_A_1101_C[NH+](C)[C@H]([R*])C1CCC1_2

>  <query-smiles>
O=C(N[C@@H]([NH+](C)C)C1CCC1)[C@@H](NC(=O)C)Cc2ccc(O)cc2

>  <source>
REALspace_2019-12

>  <similarity-descriptor>
0.980;1.000;0.852;0.852;0.980;0.759;0.759;0.759;1.000;1.000;1.000;1.000;1.000;1.000;0.091

>  <similarity-descriptor-smiles>
N1CCCCC1;c1ccccc1;O=C;O=C;N1CCCCC1;[NH+]1CCCC1;[NH+]1CCCC1;[NH+]1CCCC1;C;N;C=O;C;C;O;O

>  <reaction-name>
s_22

>  <reagent1-name>
12110726

>  <reagent1-smiles>
[R1*]N1CCC(N2CC(O)CC2)CC1

>  <reagent2-name>
17513450

>  <reagent2-smiles>
[R1*]C(=O)C(NC(=O)C)Cc1ccc(O)cc1

$$$$
s_22____13656652____107338
          04022015103D 1   1.00000     0.00000     0
            
 58 59  0  0  0  0            999 V2000
    8.3284    1.5072    1.4323 F   0  0  0  0  0  0  0  0  0  0  0  0
    8.0031    0.2180    1.4670 C   0  0  0  0  0  0  0  0  0  0  0  0
    7.1924   -0.0070    2.4971 F   0  0  0  0  0  0  0  0  0  0  0  0
    9.1054   -0.5139    1.6022 F   0  0  0  0  0  0  0  0  0  0  0  0
    7.2981   -0.1616    0.1750 C   0  0  0  0  0  0  0  0  0  0  0  0
    6.4327    0.9463   -0.2547 N   0  3  3  0  0  0  0  0  0  0  0  0
    5.2323    0.9881    0.5937 C   0  0  0  0  0  0  0  0  0  0  0  0
    4.4124    2.2046    0.1877 C   0  0  0  0  0  0  0  0  0  0  0  0
    3.0967    2.2953    0.9475 C   0  0  0  0  0  0  0  0  0  0  0  0
    2.3981    1.0000    1.0000 N   0  0  0  0  0  0  0  0  0  0  0  0
    1.0000    1.0000    1.0000 C   0  0  0  0  0  0  0  0  0  0  0  0
    0.4000    2.0308    0.8676 O   0  0  0  0  0  0  0  0  0  0  0  0
    0.2400   -0.3056    1.1677 C   0  0  0  0  0  0  0  0  0  0  0  0
   -0.9641   -0.3138    0.2401 C   0  0  3  0  0  0  0  0  0  0  0  0
   -1.6991   -1.5765    0.4023 N   0  0  0  0  0  0  0  0  0  0  0  0
   -3.0071   -1.5602    0.8093 C   0  0  0  0  0  0  0  0  0  0  0  0
   -3.5528   -0.5153    1.0334 O   0  0  0  0  0  0  0  0  0  0  0  0
   -3.7671   -2.8659    0.9771 C   0  0  0  0  0  0  0  0  0  0  0  0
   -0.4952   -0.1818   -1.1998 C   0  0  0  0  0  0  0  0  0  0  0  0
    0.3965   -1.1155   -1.7175 C   0  0  0  0  0  0  0  0  0  0  0  0
    0.8276   -0.9992   -3.0347 C   0  0  0  0  0  0  0  0  0  0  0  0
    0.3603    0.0509   -3.8187 C   0  0  0  0  0  0  0  0  0  0  0  0
    0.7764    0.1677   -5.0975 O   0  0  0  0  0  0  0  0  0  0  0  0
    1.1971   -0.9831   -5.8152 C   0  0  0  0  0  0  0  0  0  0  0  0
   -0.5312    0.9876   -3.3057 C   0  0  0  0  0  0  0  0  0  0  0  0
   -0.9594    0.8662   -1.9881 C   0  0  0  0  0  0  0  0  0  0  0  0
    3.0978   -0.2951    1.0453 C   0  0  0  0  0  0  0  0  0  0  0  0
    4.4180   -0.2617    0.2874 C   0  0  0  0  0  0  0  0  0  0  0  0
    6.0358    0.7431   -1.6555 C   0  0  0  0  0  0  0  0  0  0  0  0
    6.9303    1.8097   -0.1712 H   0  0  0  0  0  0  0  0  0  0  0  0
    7.9786   -0.3473   -0.5339 H   0  0  0  0  0  0  0  0  0  0  0  0
    6.7426   -0.9792    0.3262 H   0  0  0  0  0  0  0  0  0  0  0  0
    5.4784    1.0279    1.5622 H   0  0  0  0  0  0  0  0  0  0  0  0
    4.2151    2.1471   -0.7909 H   0  0  0  0  0  0  0  0  0  0  0  0
    4.9475    3.0290    0.3721 H   0  0  0  0  0  0  0  0  0  0  0  0
    3.2839    2.5989    1.8817 H   0  0  0  0  0  0  0  0  0  0  0  0
    2.5066    2.9619    0.4922 H   0  0  0  0  0  0  0  0  0  0  0  0
   -0.0684   -0.3924    2.1150 H   0  0  0  0  0  0  0  0  0  0  0  0
    0.8406   -1.0724    0.9411 H   0  0  0  0  0  0  0  0  0  0  0  0
   -1.5646    0.4530    0.4667 H   0  0  0  0  0  0  0  0  0  0  0  0
   -1.2443   -2.4473    0.2155 H   0  0  0  0  0  0  0  0  0  0  0  0
   -3.1665   -3.6327    0.7505 H   0  0  0  0  0  0  0  0  0  0  0  0
   -4.0755   -2.9527    1.9243 H   0  0  0  0  0  0  0  0  0  0  0  0
   -4.5592   -2.8713    0.3668 H   0  0  0  0  0  0  0  0  0  0  0  0
    0.7258   -1.8667   -1.1455 H   0  0  0  0  0  0  0  0  0  0  0  0
    1.4688   -1.6655   -3.4155 H   0  0  0  0  0  0  0  0  0  0  0  0
    1.4703   -0.7178   -6.7399 H   0  0  0  0  0  0  0  0  0  0  0  0
    1.9738   -1.4032   -5.3458 H   0  0  0  0  0  0  0  0  0  0  0  0
    0.4436   -1.6386   -5.8653 H   0  0  0  0  0  0  0  0  0  0  0  0
   -0.8602    1.7391   -3.8775 H   0  0  0  0  0  0  0  0  0  0  0  0
   -1.6008    1.5322   -1.6074 H   0  0  0  0  0  0  0  0  0  0  0  0
    2.5097   -0.9934    0.6373 H   0  0  0  0  0  0  0  0  0  0  0  0
    3.2803   -0.5294    2.0002 H   0  0  0  0  0  0  0  0  0  0  0  0
    4.9552   -1.0655    0.5429 H   0  0  0  0  0  0  0  0  0  0  0  0
    4.2257   -0.2872   -0.6936 H   0  0  0  0  0  0  0  0  0  0  0  0
    6.8521    0.7146   -2.2325 H   0  0  0  0  0  0  0  0  0  0  0  0
    5.5383   -0.1204   -1.7391 H   0  0  0  0  0  0  0  0  0  0  0  0
    5.4471    1.4967   -1.9478 H   0  0  0  0  0  0  0  0  0  0  0  0
  1  2  1  0  0  0  0
  2  3  1  0  0  0  0
  2  4  1  0  0  0  0
  2  5  1  0  0  0  0
  5  6  1  0  0  0  0
  6  7  1  0  0  0  0
  7  8  1  0  0  0  0
  8  9  1  0  0  0  0
  9 10  1  0  0  0  0
 10 11  1  0  0  0  0
 11 12  2  0  0  0  0
 11 13  1  0  0  0  0
 13 14  1  0  0  0  0
 14 15  1  0  0  0  0
 15 16  1  0  0  0  0
 16 17  2  0  0  0  0
 16 18  1  0  0  0  0
 14 19  1  0  0  0  0
 19 20  1  0  0  0  0
 20 21  2  0  0  0  0
 21 22  1  0  0  0  0
 22 23  1  0  0  0  0
 23 24  1  0  0  0  0
 22 25  2  0  0  0  0
 25 26  1  0  0  0  0
 26 19  2  0  0  0  0
 10 27  1  0  0  0  0
 27 28  1  0  0  0  0
 28  7  1  0  0  0  0
  6 29  1  0  0  0  0
  6 30  1  0  0  0  0
  5 31  1  0  0  0  0
  5 32  1  0  0  0  0
  7 33  1  0  0  0  0
  8 34  1  0  0  0  0
  8 35  1  0  0  0  0
  9 36  1  0  0  0  0
  9 37  1  0  0  0  0
 13 38  1  0  0  0  0
 13 39  1  0  0  0  0
 14 40  1  0  0  0  0
 15 41  1  0  0  0  0
 18 42  1  0  0  0  0
 18 43  1  0  0  0  0
 18 44  1  0  0  0  0
 20 45  1  0  0  0  0
 21 46  1  0  0  0  0
 24 47  1  0  0  0  0
 24 48  1  0  0  0  0
 24 49  1  0  0  0  0
 25 50  1  0  0  0  0
 26 51  1  0  0  0  0
 27 52  1  0  0  0  0
 27 53  1  0  0  0  0
 28 54  1  0  0  0  0
 28 55  1  0  0  0  0
 29 56  1  0  0  0  0
 29 57  1  0  0  0  0
 29 58  1  0  0  0  0
M  CHG  1   6   1
M  END
>  <result-rank>
82

>  <similarity>
0.936

>  <query-name>
LIG_A_1101_C[NH+](C)[C@H]([R*])C1CCC1_2

>  <query-smiles>
O=C(N[C@@H]([NH+](C)C)C1CCC1)[C@@H](NC(=O)C)Cc2ccc(O)cc2

>  <source>
REALspace_2019-12

>  <similarity-descriptor>
0.980;1.000;0.852;0.852;0.980;1.000;0.951;1.000;1.000;1.000;1.000;1.000;1.000;0.704;0.143

>  <similarity-descriptor-smiles>
C1CCNCC1;c1ccccc1;C=O;C=O;C1CCNCC1;[NH+];C;C;CC;N;C=O;C;CC;O;FC(F)F.C

>  <reaction-name>
s_22

>  <reagent1-name>
13656652

>  <reagent1-smiles>
[R1*]N1CCC(N(CC(F)(F)F)C)CC1

>  <reagent2-name>
107338

>  <reagent2-smiles>
[R1*]C(=O)CC(NC(=O)C)c1ccc(OC)cc1

$$$$
s_22____6166698____3192126
          04022015103D 1   1.00000     0.00000     0
            
 61 62  0  0  0  0            999 V2000
    6.4951   -1.7248    7.8336 F   0  0  0  0  0  0  0  0  0  0  0  0
    5.9097   -2.4962    6.9220 C   0  0  0  0  0  0  0  0  0  0  0  0
    5.5250   -3.6369    7.4875 F   0  0  0  0  0  0  0  0  0  0  0  0
    4.6964   -1.7780    6.3540 C   0  0  0  0  0  0  0  0  0  0  0  0
    5.1216   -0.5172    5.7290 N   0  3  3  0  0  0  0  0  0  0  0  0
    3.9478    0.1777    5.1795 C   0  0  0  0  0  0  0  0  0  0  0  0
    4.4256    1.4748    4.5422 C   0  0  0  0  0  0  0  0  0  0  0  0
    3.2966    2.2351    3.8613 C   0  0  0  0  0  0  0  0  0  0  0  0
    2.4528    1.3522    3.0385 N   0  0  0  0  0  0  0  0  0  0  0  0
    1.8776    1.8776    1.8776 C   0  0  0  0  0  0  0  0  0  0  0  0
    2.0766    3.0213    1.5740 O   0  0  0  0  0  0  0  0  0  0  0  0
    1.0000    1.0000    1.0000 C   0  0  0  0  0  0  0  0  0  0  0  0
    0.7075    1.7208   -0.3059 C   0  0  3  0  0  0  0  0  0  0  0  0
   -0.2825    0.9552   -1.0771 N   0  0  0  0  0  0  0  0  0  0  0  0
   -1.4824    1.5266   -1.4097 C   0  0  0  0  0  0  0  0  0  0  0  0
   -1.7253    2.6520   -1.0715 O   0  0  0  0  0  0  0  0  0  0  0  0
   -2.5060    0.7349   -2.2071 C   0  0  0  0  0  0  0  0  0  0  0  0
    1.9899    1.8484   -1.1126 C   0  0  0  0  0  0  0  0  0  0  0  0
    2.3107    3.0573   -1.7222 C   0  0  0  0  0  0  0  0  0  0  0  0
    1.4943    4.1268   -1.6080 O   0  0  0  0  0  0  0  0  0  0  0  0
    1.9297    5.4031   -2.0527 C   0  0  0  0  0  0  0  0  0  0  0  0
    0.8309    6.4254   -1.8122 C   0  0  0  0  0  0  0  0  0  0  0  0
    3.4842    3.1740   -2.4607 C   0  0  0  0  0  0  0  0  0  0  0  0
    4.3369    2.0819   -2.5890 C   0  0  0  0  0  0  0  0  0  0  0  0
    4.0159    0.8734   -1.9787 C   0  0  0  0  0  0  0  0  0  0  0  0
    2.8428    0.7571   -1.2402 C   0  0  0  0  0  0  0  0  0  0  0  0
    2.1905   -0.0578    3.3730 C   0  0  0  0  0  0  0  0  0  0  0  0
    3.3690   -0.7084    4.0845 C   0  0  0  0  0  0  0  0  0  0  0  0
    6.0730   -0.8038    4.6456 C   0  0  0  0  0  0  0  0  0  0  0  0
    5.5617    0.0628    6.4144 H   0  0  0  0  0  0  0  0  0  0  0  0
    6.5569   -2.6912    6.1850 H   0  0  0  0  0  0  0  0  0  0  0  0
    4.2563   -2.3580    5.6686 H   0  0  0  0  0  0  0  0  0  0  0  0
    4.0492   -1.5830    7.0910 H   0  0  0  0  0  0  0  0  0  0  0  0
    3.2699    0.3563    5.8926 H   0  0  0  0  0  0  0  0  0  0  0  0
    5.1250    1.2595    3.8607 H   0  0  0  0  0  0  0  0  0  0  0  0
    4.8211    2.0558    5.2536 H   0  0  0  0  0  0  0  0  0  0  0  0
    2.7271    2.6636    4.5629 H   0  0  0  0  0  0  0  0  0  0  0  0
    3.6915    2.9423    3.2749 H   0  0  0  0  0  0  0  0  0  0  0  0
    0.1409    0.8075    1.4742 H   0  0  0  0  0  0  0  0  0  0  0  0
    1.4742    0.1409    0.8075 H   0  0  0  0  0  0  0  0  0  0  0  0
    0.3450    2.6319   -0.1097 H   0  0  0  0  0  0  0  0  0  0  0  0
   -0.0801    0.0173   -1.3589 H   0  0  0  0  0  0  0  0  0  0  0  0
   -2.1436   -0.1762   -2.4032 H   0  0  0  0  0  0  0  0  0  0  0  0
   -3.3495    0.6510   -1.6765 H   0  0  0  0  0  0  0  0  0  0  0  0
   -2.6985    1.2091   -3.0662 H   0  0  0  0  0  0  0  0  0  0  0  0
    2.1390    5.3622   -3.0297 H   0  0  0  0  0  0  0  0  0  0  0  0
    2.7500    5.6703   -1.5470 H   0  0  0  0  0  0  0  0  0  0  0  0
    1.1375    7.3243   -2.1254 H   0  0  0  0  0  0  0  0  0  0  0  0
    0.0106    6.1582   -2.3179 H   0  0  0  0  0  0  0  0  0  0  0  0
    0.6216    6.4664   -0.8352 H   0  0  0  0  0  0  0  0  0  0  0  0
    3.7147    4.0427   -2.8992 H   0  0  0  0  0  0  0  0  0  0  0  0
    5.1802    2.1656   -3.1197 H   0  0  0  0  0  0  0  0  0  0  0  0
    4.6286    0.0885   -2.0709 H   0  0  0  0  0  0  0  0  0  0  0  0
    2.6126   -0.1113   -0.8009 H   0  0  0  0  0  0  0  0  0  0  0  0
    2.0067   -0.5605    2.5283 H   0  0  0  0  0  0  0  0  0  0  0  0
    1.3890   -0.1036    3.9692 H   0  0  0  0  0  0  0  0  0  0  0  0
    3.0619   -1.5669    4.4951 H   0  0  0  0  0  0  0  0  0  0  0  0
    4.0850   -0.8976    3.4126 H   0  0  0  0  0  0  0  0  0  0  0  0
    6.8711   -1.2763    5.0193 H   0  0  0  0  0  0  0  0  0  0  0  0
    5.6328   -1.3839    3.9602 H   0  0  0  0  0  0  0  0  0  0  0  0
    6.3622    0.0538    4.2204 H   0  0  0  0  0  0  0  0  0  0  0  0
  1  2  1  0  0  0  0
  2  3  1  0  0  0  0
  2  4  1  0  0  0  0
  4  5  1  0  0  0  0
  5  6  1  0  0  0  0
  6  7  1  0  0  0  0
  7  8  1  0  0  0  0
  8  9  1  0  0  0  0
  9 10  1  0  0  0  0
 10 11  2  0  0  0  0
 10 12  1  0  0  0  0
 12 13  1  0  0  0  0
 13 14  1  0  0  0  0
 14 15  1  0  0  0  0
 15 16  2  0  0  0  0
 15 17  1  0  0  0  0
 13 18  1  0  0  0  0
 18 19  1  0  0  0  0
 19 20  1  0  0  0  0
 20 21  1  0  0  0  0
 21 22  1  0  0  0  0
 19 23  2  0  0  0  0
 23 24  1  0  0  0  0
 24 25  2  0  0  0  0
 25 26  1  0  0  0  0
 26 18  2  0  0  0  0
  9 27  1  0  0  0  0
 27 28  1  0  0  0  0
 28  6  1  0  0  0  0
  5 29  1  0  0  0  0
  5 30  1  0  0  0  0
  2 31  1  0  0  0  0
  4 32  1  0  0  0  0
  4 33  1  0  0  0  0
  6 34  1  0  0  0  0
  7 35  1  0  0  0  0
  7 36  1  0  0  0  0
  8 37  1  0  0  0  0
  8 38  1  0  0  0  0
 12 39  1  0  0  0  0
 12 40  1  0  0  0  0
 13 41  1  0  0  0  0
 14 42  1  0  0  0  0
 17 43  1  0  0  0  0
 17 44  1  0  0  0  0
 17 45  1  0  0  0  0
 21 46  1  0  0  0  0
 21 47  1  0  0  0  0
 22 48  1  0  0  0  0
 22 49  1  0  0  0  0
 22 50  1  0  0  0  0
 23 51  1  0  0  0  0
 24 52  1  0  0  0  0
 25 53  1  0  0  0  0
 26 54  1  0  0  0  0
 27 55  1  0  0  0  0
 27 56  1  0  0  0  0
 28 57  1  0  0  0  0
 28 58  1  0  0  0  0
 29 59  1  0  0  0  0
 29 60  1  0  0  0  0
 29 61  1  0  0  0  0
M  CHG  1   5   1
M  END
>  <result-rank>
83

>  <similarity>
0.936

>  <query-name>
LIG_A_1101_C[NH+](C)[C@H]([R*])C1CCC1_2

>  <query-smiles>
O=C(N[C@@H]([NH+](C)C)C1CCC1)[C@@H](NC(=O)C)Cc2ccc(O)cc2

>  <source>
REALspace_2019-12

>  <similarity-descriptor>
0.980;1.000;0.852;0.852;0.980;1.000;0.951;1.000;1.000;1.000;1.000;1.000;1.000;0.704;0.200

>  <similarity-descriptor-smiles>
C1CCNCC1;c1ccccc1;C=O;C=O;C1CCNCC1;[NH+];C;C;CC;N;C=O;C;CC;O;FCF.C.C

>  <reaction-name>
s_22

>  <reagent1-name>
6166698

>  <reagent1-smiles>
[R1*]N1CCC(N(CC(F)F)C)CC1

>  <reagent2-name>
3192126

>  <reagent2-smiles>
[R1*]C(=O)CC(NC(=O)C)c1c(OCC)cccc1

$$$$
s_22____8926094____17513450
          04022015103D 1   1.00000     0.00000     0
            
 52 53  0  0  0  0            999 V2000
    0.4000   -0.0392    1.0000 O   0  0  0  0  0  0  0  0  0  0  0  0
    1.0000    1.0000    1.0000 C   0  0  0  0  0  0  0  0  0  0  0  0
    2.3700    1.0000    1.0000 N   0  0  0  0  0  0  0  0  0  0  0  0
    3.1050   -0.2731    1.0000 C   0  0  0  0  0  0  0  0  0  0  0  0
    3.3583   -0.7118   -0.4331 C   0  0  0  0  0  0  0  0  0  0  0  0
    4.0933   -1.9849   -0.4331 N   0  3  3  0  0  0  0  0  0  0  0  0
    4.3381   -2.4088   -1.8175 C   0  0  0  0  0  0  0  0  0  0  0  0
    5.1482   -1.3938   -2.5711 C   0  0  0  0  0  0  0  0  0  0  0  0
    3.6690   -1.5017   -2.8097 C   0  0  0  0  0  0  0  0  0  0  0  0
    5.3778   -1.8091    0.2599 C   0  0  0  0  0  0  0  0  0  0  0  0
    3.1050    2.2731    1.0000 C   0  0  0  0  0  0  0  0  0  0  0  0
    0.2400    2.3164    1.0000 C   0  0  3  0  0  0  0  0  0  0  0  0
   -1.0444    2.1406    1.6930 N   0  0  0  0  0  0  0  0  0  0  0  0
   -1.1292    2.3553    3.0434 C   0  0  0  0  0  0  0  0  0  0  0  0
   -0.1550    2.6868    3.6605 O   0  0  0  0  0  0  0  0  0  0  0  0
   -2.4574    2.1735    3.7599 C   0  0  0  0  0  0  0  0  0  0  0  0
   -0.0133    2.7551   -0.4331 C   0  0  0  0  0  0  0  0  0  0  0  0
   -0.7734    4.0715   -0.4331 C   0  0  0  0  0  0  0  0  0  0  0  0
   -0.0668    5.2697   -0.4331 C   0  0  0  0  0  0  0  0  0  0  0  0
   -0.7580    6.4767   -0.4338 C   0  0  0  0  0  0  0  0  0  0  0  0
   -2.1493    6.4698   -0.4351 C   0  0  0  0  0  0  0  0  0  0  0  0
   -2.8591    7.6996   -0.4355 O   0  0  0  0  0  0  0  0  0  0  0  0
   -2.8607    5.2743   -0.4347 C   0  0  0  0  0  0  0  0  0  0  0  0
   -2.1644    4.0703   -0.4344 C   0  0  0  0  0  0  0  0  0  0  0  0
    3.5529   -2.6818    0.0383 H   0  0  0  0  0  0  0  0  0  0  0  0
    2.5646   -0.9700    1.4714 H   0  0  0  0  0  0  0  0  0  0  0  0
    3.9788   -0.1535    1.4714 H   0  0  0  0  0  0  0  0  0  0  0  0
    2.4846   -0.8314   -0.9045 H   0  0  0  0  0  0  0  0  0  0  0  0
    3.8988   -0.0149   -0.9045 H   0  0  0  0  0  0  0  0  0  0  0  0
    4.4428   -3.3810   -2.0269 H   0  0  0  0  0  0  0  0  0  0  0  0
    5.7915   -1.6913   -3.2765 H   0  0  0  0  0  0  0  0  0  0  0  0
    5.5210   -0.5977   -2.0943 H   0  0  0  0  0  0  0  0  0  0  0  0
    3.0571   -0.7775   -2.4918 H   0  0  0  0  0  0  0  0  0  0  0  0
    3.3276   -1.8711   -3.6740 H   0  0  0  0  0  0  0  0  0  0  0  0
    5.2111   -1.5205    1.2027 H   0  0  0  0  0  0  0  0  0  0  0  0
    5.8778   -2.6752    0.2599 H   0  0  0  0  0  0  0  0  0  0  0  0
    5.9182   -1.1122   -0.2115 H   0  0  0  0  0  0  0  0  0  0  0  0
    4.0882    2.0903    1.0000 H   0  0  0  0  0  0  0  0  0  0  0  0
    2.8634    2.7974    0.1835 H   0  0  0  0  0  0  0  0  0  0  0  0
    2.8634    2.7974    1.8165 H   0  0  0  0  0  0  0  0  0  0  0  0
    0.7804    3.0133    1.4714 H   0  0  0  0  0  0  0  0  0  0  0  0
   -1.8563    1.8643    1.1787 H   0  0  0  0  0  0  0  0  0  0  0  0
   -3.1569    1.8980    3.1005 H   0  0  0  0  0  0  0  0  0  0  0  0
   -2.3637    1.4670    4.4614 H   0  0  0  0  0  0  0  0  0  0  0  0
   -2.7253    3.0361    4.1892 H   0  0  0  0  0  0  0  0  0  0  0  0
    0.8604    2.8747   -0.9045 H   0  0  0  0  0  0  0  0  0  0  0  0
   -0.5538    2.0582   -0.9045 H   0  0  0  0  0  0  0  0  0  0  0  0
    0.9332    5.2634   -0.4325 H   0  0  0  0  0  0  0  0  0  0  0  0
   -0.2586    7.3431   -0.4335 H   0  0  0  0  0  0  0  0  0  0  0  0
   -3.8591    7.6997   -0.4364 H   0  0  0  0  0  0  0  0  0  0  0  0
   -3.8607    5.2805   -0.4347 H   0  0  0  0  0  0  0  0  0  0  0  0
   -2.6638    3.2039   -0.4351 H   0  0  0  0  0  0  0  0  0  0  0  0
  1  2  2  0  0  0  0
  2  3  1  0  0  0  0
  3  4  1  0  0  0  0
  4  5  1  0  0  0  0
  5  6  1  0  0  0  0
  6  7  1  0  0  0  0
  7  8  1  0  0  0  0
  8  9  1  0  0  0  0
  9  7  1  0  0  0  0
  6 10  1  0  0  0  0
  3 11  1  0  0  0  0
  2 12  1  0  0  0  0
 12 13  1  0  0  0  0
 13 14  1  0  0  0  0
 14 15  2  0  0  0  0
 14 16  1  0  0  0  0
 12 17  1  0  0  0  0
 17 18  1  0  0  0  0
 18 19  1  0  0  0  0
 19 20  2  0  0  0  0
 20 21  1  0  0  0  0
 21 22  1  0  0  0  0
 21 23  2  0  0  0  0
 23 24  1  0  0  0  0
 24 18  2  0  0  0  0
  6 25  1  0  0  0  0
  4 26  1  0  0  0  0
  4 27  1  0  0  0  0
  5 28  1  0  0  0  0
  5 29  1  0  0  0  0
  7 30  1  0  0  0  0
  8 31  1  0  0  0  0
  8 32  1  0  0  0  0
  9 33  1  0  0  0  0
  9 34  1  0  0  0  0
 10 35  1  0  0  0  0
 10 36  1  0  0  0  0
 10 37  1  0  0  0  0
 11 38  1  0  0  0  0
 11 39  1  0  0  0  0
 11 40  1  0  0  0  0
 12 41  1  0  0  0  0
 13 42  1  0  0  0  0
 16 43  1  0  0  0  0
 16 44  1  0  0  0  0
 16 45  1  0  0  0  0
 17 46  1  0  0  0  0
 17 47  1  0  0  0  0
 19 48  1  0  0  0  0
 20 49  1  0  0  0  0
 22 50  1  0  0  0  0
 23 51  1  0  0  0  0
 24 52  1  0  0  0  0
M  CHG  1   6   1
M  END
>  <result-rank>
84

>  <similarity>
0.936

>  <query-name>
LIG_A_1101_C[NH+](C)[C@H]([R*])C1CCC1_2

>  <query-smiles>
O=C(N[C@@H]([NH+](C)C)C1CCC1)[C@@H](NC(=O)C)Cc2ccc(O)cc2

>  <source>
REALspace_2019-12

>  <similarity-descriptor>
0.854;1.000;0.852;0.852;0.784;0.784;1.000;1.000;1.000;1.000;1.000;1.000;1.000;1.000;0.0

>  <similarity-descriptor-smiles>
C1CC1;c1ccccc1;O=C;O=C;NCC[NH+];NCC[NH+];C;C;C;N;C=O;C;C;O;

>  <reaction-name>
s_22

>  <reagent1-name>
8926094

>  <reagent1-smiles>
[R1*]N(CCN(C1CC1)C)C

>  <reagent2-name>
17513450

>  <reagent2-smiles>
[R1*]C(=O)C(NC(=O)C)Cc1ccc(O)cc1

$$$$
s_269946a____8602342____17513468
          04022015103D 1   1.00000     0.00000     0
            
 47 47  0  0  0  0            999 V2000
    2.2269    6.4781    4.9962 O   0  5  0  0  0  0  0  0  0  0  0  0
    1.8776    5.3879    5.3879 C   0  0  0  0  0  0  0  0  0  0  0  0
    2.2384    4.9832    6.5142 O   0  0  0  0  0  0  0  0  0  0  0  0
    1.0000    4.5103    4.5103 C   0  0  0  0  0  0  0  0  0  0  0  0
    1.8776    3.6327    3.6327 C   0  0  0  0  0  0  0  0  0  0  0  0
    1.0000    2.7551    2.7551 C   0  0  0  0  0  0  0  0  0  0  0  0
    1.8776    1.8776    1.8776 C   0  0  0  0  0  0  0  0  0  0  0  0
    1.0000    1.0000    1.0000 C   0  0  0  0  0  0  0  0  0  0  0  0
    1.8487    0.1513    0.1513 N   0  0  0  0  0  0  0  0  0  0  0  0
    2.2442   -1.0831    0.5948 C   0  0  0  0  0  0  0  0  0  0  0  0
    1.8978   -1.4716    1.6760 O   0  0  0  0  0  0  0  0  0  0  0  0
    3.1218   -1.9607   -0.2828 C   0  0  3  0  0  0  0  0  0  0  0  0
    2.8389   -3.3752    0.0001 N   0  0  0  0  0  0  0  0  0  0  0  0
    1.8681   -4.0344   -0.7070 C   0  0  0  0  0  0  0  0  0  0  0  0
    1.2487   -3.4570   -1.5573 O   0  0  0  0  0  0  0  0  0  0  0  0
    1.5756   -5.4970   -0.4145 C   0  0  0  0  0  0  0  0  0  0  0  0
    4.5844   -1.6682    0.0097 C   0  0  0  0  0  0  0  0  0  0  0  0
    5.4620   -2.5458   -0.8679 C   0  0  0  0  0  0  0  0  0  0  0  0
    5.8571   -2.0846   -2.1193 C   0  0  0  0  0  0  0  0  0  0  0  0
    6.6607   -2.8838   -2.9255 C   0  0  0  0  0  0  0  0  0  0  0  0
    7.0599   -4.1359   -2.4687 C   0  0  0  0  0  0  0  0  0  0  0  0
    7.8801   -4.9555   -3.2885 O   0  0  0  0  0  0  0  0  0  0  0  0
    6.6673   -4.6021   -1.2181 C   0  0  0  0  0  0  0  0  0  0  0  0
    5.8640   -3.7985   -0.4160 C   0  0  0  0  0  0  0  0  0  0  0  0
    0.4226    5.0876    3.9329 H   0  0  0  0  0  0  0  0  0  0  0  0
    0.4226    3.9329    5.0876 H   0  0  0  0  0  0  0  0  0  0  0  0
    2.4549    3.0554    4.2101 H   0  0  0  0  0  0  0  0  0  0  0  0
    2.4549    4.2101    3.0554 H   0  0  0  0  0  0  0  0  0  0  0  0
    0.4226    2.1778    3.3325 H   0  0  0  0  0  0  0  0  0  0  0  0
    0.4226    3.3325    2.1778 H   0  0  0  0  0  0  0  0  0  0  0  0
    2.4549    2.4549    1.3002 H   0  0  0  0  0  0  0  0  0  0  0  0
    2.4549    1.3002    2.4549 H   0  0  0  0  0  0  0  0  0  0  0  0
    0.4226    0.4226    1.5774 H   0  0  0  0  0  0  0  0  0  0  0  0
    0.4226    1.5774    0.4226 H   0  0  0  0  0  0  0  0  0  0  0  0
    2.1374    0.4750   -0.7498 H   0  0  0  0  0  0  0  0  0  0  0  0
    2.9293   -1.7683   -1.2451 H   0  0  0  0  0  0  0  0  0  0  0  0
    3.3550   -3.8563    0.7087 H   0  0  0  0  0  0  0  0  0  0  0  0
    2.1781   -5.8177    0.3163 H   0  0  0  0  0  0  0  0  0  0  0  0
    0.6225   -5.5955   -0.1281 H   0  0  0  0  0  0  0  0  0  0  0  0
    1.7336   -6.0400   -1.2392 H   0  0  0  0  0  0  0  0  0  0  0  0
    4.7768   -0.7059   -0.1827 H   0  0  0  0  0  0  0  0  0  0  0  0
    4.7768   -1.8606    0.9720 H   0  0  0  0  0  0  0  0  0  0  0  0
    5.5648   -1.1829   -2.4378 H   0  0  0  0  0  0  0  0  0  0  0  0
    6.9495   -2.5609   -3.8267 H   0  0  0  0  0  0  0  0  0  0  0  0
    8.1696   -5.8562   -2.9645 H   0  0  0  0  0  0  0  0  0  0  0  0
    6.9591   -5.5040   -0.8998 H   0  0  0  0  0  0  0  0  0  0  0  0
    5.5756   -4.1212    0.4855 H   0  0  0  0  0  0  0  0  0  0  0  0
  1  2  1  0  0  0  0
  2  3  2  0  0  0  0
  2  4  1  0  0  0  0
  4  5  1  0  0  0  0
  5  6  1  0  0  0  0
  6  7  1  0  0  0  0
  7  8  1  0  0  0  0
  8  9  1  0  0  0  0
  9 10  1  0  0  0  0
 10 11  2  0  0  0  0
 10 12  1  0  0  0  0
 12 13  1  0  0  0  0
 13 14  1  0  0  0  0
 14 15  2  0  0  0  0
 14 16  1  0  0  0  0
 12 17  1  0  0  0  0
 17 18  1  0  0  0  0
 18 19  1  0  0  0  0
 19 20  2  0  0  0  0
 20 21  1  0  0  0  0
 21 22  1  0  0  0  0
 21 23  2  0  0  0  0
 23 24  1  0  0  0  0
 24 18  2  0  0  0  0
  4 25  1  0  0  0  0
  4 26  1  0  0  0  0
  5 27  1  0  0  0  0
  5 28  1  0  0  0  0
  6 29  1  0  0  0  0
  6 30  1  0  0  0  0
  7 31  1  0  0  0  0
  7 32  1  0  0  0  0
  8 33  1  0  0  0  0
  8 34  1  0  0  0  0
  9 35  1  0  0  0  0
 12 36  1  0  0  0  0
 13 37  1  0  0  0  0
 16 38  1  0  0  0  0
 16 39  1  0  0  0  0
 16 40  1  0  0  0  0
 17 41  1  0  0  0  0
 17 42  1  0  0  0  0
 19 43  1  0  0  0  0
 20 44  1  0  0  0  0
 22 45  1  0  0  0  0
 23 46  1  0  0  0  0
 24 47  1  0  0  0  0
M  CHG  1   1  -1
M  END
>  <result-rank>
85

>  <similarity>
0.936

>  <query-name>
LIG_A_1101_C[NH+](C)[C@H]([R*])C1CCC1_2

>  <query-smiles>
O=C(N[C@@H]([NH+](C)C)C1CCC1)[C@@H](NC(=O)C)Cc2ccc(O)cc2

>  <source>
REALspace_2019-12

>  <similarity-descriptor>
0.890;1.000;1.000;1.000;0.942;0.0;0.0;0.0;1.000;1.000;1.000;1.000;1.000;1.000;0.067

>  <similarity-descriptor-smiles>
CCCC;c1ccccc1;C=O;N;C;;;;C;N;C=O;C;C;O;[O-]C=O

>  <reaction-name>
s_269946a

>  <reagent1-name>
8602342

>  <reagent1-smiles>
[R1*]NCCCCCC(=O)O

>  <reagent2-name>
17513468

>  <reagent2-smiles>
[R1*]C(=O)C(NC(=O)C)Cc1ccc(O)cc1

$$$$
s_22____14051328____107332
          04022015103D 1   1.00000     0.00000     0
            
 46 48  0  0  0  0            999 V2000
   -3.3768    6.0971    0.6680 Cl  0  0  0  0  0  0  0  0  0  0  0  0
   -2.1794    4.8116    0.3821 C   0  0  0  0  0  0  0  0  0  0  0  0
   -2.4888    3.4945    0.7027 C   0  0  0  0  0  0  0  0  0  0  0  0
   -1.5555    2.4868    0.4815 C   0  0  0  0  0  0  0  0  0  0  0  0
   -0.3179    2.8150   -0.0617 C   0  0  0  0  0  0  0  0  0  0  0  0
   -0.0080    4.1321   -0.3821 C   0  0  0  0  0  0  0  0  0  0  0  0
   -0.9415    5.1400   -0.1609 C   0  0  0  0  0  0  0  0  0  0  0  0
    0.7075    1.7208   -0.3059 C   0  0  3  0  0  0  0  0  0  0  0  0
    0.1774    0.7625   -1.2864 N   0  0  0  0  0  0  0  0  0  0  0  0
    0.8400    0.5533   -2.4671 C   0  0  0  0  0  0  0  0  0  0  0  0
    1.8532    1.1524   -2.7009 O   0  0  0  0  0  0  0  0  0  0  0  0
    0.2918   -0.4376   -3.4811 C   0  0  0  0  0  0  0  0  0  0  0  0
    1.0000    1.0000    1.0000 C   0  0  0  0  0  0  0  0  0  0  0  0
    1.8776    1.8776    1.8776 C   0  0  0  0  0  0  0  0  0  0  0  0
    1.9688    3.0524    1.6507 O   0  0  0  0  0  0  0  0  0  0  0  0
    2.5644    1.3273    2.9275 N   0  0  0  0  0  0  0  0  0  0  0  0
    3.4131    2.1760    3.7762 C   0  0  0  0  0  0  0  0  0  0  0  0
    2.5450    2.9167    4.7816 C   0  0  3  0  0  0  0  0  0  0  0  0
    3.3558    3.8023    5.6795 C   0  0  0  0  0  0  0  0  0  0  0  0
    4.6552    3.8747    5.3901 F   0  0  0  0  0  0  0  0  0  0  0  0
    2.7151    4.9094    6.0381 F   0  0  0  0  0  0  0  0  0  0  0  0
    2.8060    2.5091    6.2058 C   0  0  0  0  0  0  0  0  0  0  0  0
    3.5498    1.3443    6.8214 C   0  0  0  0  0  0  0  0  0  0  0  0
    2.2047    0.7673    7.1850 C   0  0  0  0  0  0  0  0  0  0  0  0
    1.8199    2.2196    7.3177 C   0  0  0  0  0  0  0  0  0  0  0  0
   -3.3824    3.2715    1.0923 H   0  0  0  0  0  0  0  0  0  0  0  0
   -1.7719    1.5376    0.7104 H   0  0  0  0  0  0  0  0  0  0  0  0
    0.8856    4.3549   -0.7716 H   0  0  0  0  0  0  0  0  0  0  0  0
   -0.7250    6.0892   -0.3895 H   0  0  0  0  0  0  0  0  0  0  0  0
    1.5505    2.1267   -0.6586 H   0  0  0  0  0  0  0  0  0  0  0  0
   -0.6669    0.2633   -1.0917 H   0  0  0  0  0  0  0  0  0  0  0  0
   -0.5512   -0.8435   -3.1283 H   0  0  0  0  0  0  0  0  0  0  0  0
    0.0994    0.0366   -4.3402 H   0  0  0  0  0  0  0  0  0  0  0  0
    0.9667   -1.1578   -3.6418 H   0  0  0  0  0  0  0  0  0  0  0  0
    0.1409    0.8075    1.4742 H   0  0  0  0  0  0  0  0  0  0  0  0
    1.4742    0.1409    0.8075 H   0  0  0  0  0  0  0  0  0  0  0  0
    2.4883    0.3483    3.1166 H   0  0  0  0  0  0  0  0  0  0  0  0
    3.9001    2.8371    3.2055 H   0  0  0  0  0  0  0  0  0  0  0  0
    4.0741    1.6052    4.2633 H   0  0  0  0  0  0  0  0  0  0  0  0
    1.6242    3.2019    4.5158 H   0  0  0  0  0  0  0  0  0  0  0  0
    4.1265    1.5832    7.6027 H   0  0  0  0  0  0  0  0  0  0  0  0
    4.0776    0.7962    6.1727 H   0  0  0  0  0  0  0  0  0  0  0  0
    2.1776    0.2342    8.0306 H   0  0  0  0  0  0  0  0  0  0  0  0
    1.7405    0.2622    6.4574 H   0  0  0  0  0  0  0  0  0  0  0  0
    0.8665    2.4212    7.0934 H   0  0  0  0  0  0  0  0  0  0  0  0
    2.0499    2.6338    8.1984 H   0  0  0  0  0  0  0  0  0  0  0  0
  1  2  1  0  0  0  0
  2  3  1  0  0  0  0
  3  4  2  0  0  0  0
  4  5  1  0  0  0  0
  5  6  2  0  0  0  0
  6  7  1  0  0  0  0
  7  2  2  0  0  0  0
  5  8  1  0  0  0  0
  8  9  1  0  0  0  0
  9 10  1  0  0  0  0
 10 11  2  0  0  0  0
 10 12  1  0  0  0  0
  8 13  1  0  0  0  0
 13 14  1  0  0  0  0
 14 15  2  0  0  0  0
 14 16  1  0  0  0  0
 16 17  1  0  0  0  0
 17 18  1  0  0  0  0
 18 19  1  0  0  0  0
 19 20  1  0  0  0  0
 19 21  1  0  0  0  0
 19 22  1  0  0  0  0
 22 18  1  0  0  0  0
 22 23  1  0  0  0  0
 23 24  1  0  0  0  0
 24 25  1  0  0  0  0
 25 22  1  0  0  0  0
  3 26  1  0  0  0  0
  4 27  1  0  0  0  0
  6 28  1  0  0  0  0
  7 29  1  0  0  0  0
  8 30  1  0  0  0  0
  9 31  1  0  0  0  0
 12 32  1  0  0  0  0
 12 33  1  0  0  0  0
 12 34  1  0  0  0  0
 13 35  1  0  0  0  0
 13 36  1  0  0  0  0
 16 37  1  0  0  0  0
 17 38  1  0  0  0  0
 17 39  1  0  0  0  0
 18 40  1  0  0  0  0
 23 41  1  0  0  0  0
 23 42  1  0  0  0  0
 24 43  1  0  0  0  0
 24 44  1  0  0  0  0
 25 45  1  0  0  0  0
 25 46  1  0  0  0  0
M  END
>  <result-rank>
86

>  <similarity>
0.936

>  <query-name>
LIG_A_1101_C[NH+](C)[C@H]([R*])C1CCC1_2

>  <query-smiles>
O=C(N[C@@H]([NH+](C)C)C1CCC1)[C@@H](NC(=O)C)Cc2ccc(O)cc2

>  <source>
REALspace_2019-12

>  <similarity-descriptor>
0.898;0.968;1.000;1.000;0.942;0.0;0.0;0.0;1.000;1.000;1.000;1.000;1.000;0.0;0.0

>  <similarity-descriptor-smiles>
C1C2(C1(F)F)CCC2;Clc1ccccc1;C=O;N;C;;;;CC;N;C=O;C;CC;;

>  <reaction-name>
s_22

>  <reagent1-name>
14051328

>  <reagent1-smiles>
[R1*]NCC1C(F)(F)C12CCC2

>  <reagent2-name>
107332

>  <reagent2-smiles>
[R1*]C(=O)CC(NC(=O)C)c1ccc(Cl)cc1

$$$$
s_22____662376____17513450
          04022015103D 1   1.00000     0.00000     0
            
 55 57  0  0  0  0            999 V2000
    0.4000    1.0000   -0.0392 O   0  0  0  0  0  0  0  0  0  0  0  0
    1.0000    1.0000    1.0000 C   0  0  0  0  0  0  0  0  0  0  0  0
    0.3150    1.0000    2.1865 N   0  0  0  0  0  0  0  0  0  0  0  0
   -1.1550    1.0000    2.1865 C   0  0  0  0  0  0  0  0  0  0  0  0
   -1.6617   -0.4331    2.1865 C   0  0  3  0  0  0  0  0  0  0  0  0
   -1.1858   -1.1925    3.4020 C   0  0  0  0  0  0  0  0  0  0  0  0
   -2.2199   -2.2194    3.5518 N   0  0  0  0  0  0  0  0  0  0  0  0
   -1.9970   -3.5303    3.9904 C   0  0  0  0  0  0  0  0  0  0  0  0
   -3.0666   -4.4143    4.0906 C   0  0  0  0  0  0  0  0  0  0  0  0
   -2.8412   -5.7159    4.5265 C   0  0  0  0  0  0  0  0  0  0  0  0
   -1.5541   -6.1249    4.8583 C   0  0  0  0  0  0  0  0  0  0  0  0
   -0.4921   -5.2328    4.7537 C   0  0  0  0  0  0  0  0  0  0  0  0
   -0.7055   -3.9288    4.3192 C   0  0  0  0  0  0  0  0  0  0  0  0
   -3.5162   -1.6567    3.1587 C   0  0  0  0  0  0  0  0  0  0  0  0
   -3.1725   -0.4624    2.2822 C   0  0  0  0  0  0  0  0  0  0  0  0
    2.5200    1.0000    1.0000 C   0  0  3  0  0  0  0  0  0  0  0  0
    3.0100    1.6930   -0.2002 N   0  0  0  0  0  0  0  0  0  0  0  0
    3.2383    3.0434   -0.1663 C   0  0  0  0  0  0  0  0  0  0  0  0
    3.0383    3.6605    0.8432 O   0  0  0  0  0  0  0  0  0  0  0  0
    3.7450    3.7599   -1.4074 C   0  0  0  0  0  0  0  0  0  0  0  0
    3.0267   -0.4331    1.0000 C   0  0  0  0  0  0  0  0  0  0  0  0
    4.5467   -0.4331    1.0000 C   0  0  0  0  0  0  0  0  0  0  0  0
    5.2311   -0.4331    2.2110 C   0  0  0  0  0  0  0  0  0  0  0  0
    6.6219   -0.4338    2.2159 C   0  0  0  0  0  0  0  0  0  0  0  0
    7.3116   -0.4351    1.0075 C   0  0  0  0  0  0  0  0  0  0  0  0
    8.7316   -0.4355    1.0077 O   0  0  0  0  0  0  0  0  0  0  0  0
    6.6320   -0.4347   -0.2063 C   0  0  0  0  0  0  0  0  0  0  0  0
    5.2412   -0.4344   -0.2053 C   0  0  0  0  0  0  0  0  0  0  0  0
    0.8150    1.0000    3.0525 H   0  0  0  0  0  0  0  0  0  0  0  0
   -1.4883    1.4714    1.3700 H   0  0  0  0  0  0  0  0  0  0  0  0
   -1.4883    1.4714    3.0030 H   0  0  0  0  0  0  0  0  0  0  0  0
   -1.3635   -0.9003    1.3541 H   0  0  0  0  0  0  0  0  0  0  0  0
   -0.2878   -1.6030    3.2440 H   0  0  0  0  0  0  0  0  0  0  0  0
   -1.1446   -0.5997    4.2063 H   0  0  0  0  0  0  0  0  0  0  0  0
   -3.9906   -4.1161    3.8511 H   0  0  0  0  0  0  0  0  0  0  0  0
   -3.6046   -6.3574    4.6011 H   0  0  0  0  0  0  0  0  0  0  0  0
   -1.3921   -7.0604    5.1722 H   0  0  0  0  0  0  0  0  0  0  0  0
    0.4319   -5.5312    4.9928 H   0  0  0  0  0  0  0  0  0  0  0  0
    0.0581   -3.2874    4.2444 H   0  0  0  0  0  0  0  0  0  0  0  0
   -4.0325   -1.3654    3.9640 H   0  0  0  0  0  0  0  0  0  0  0  0
   -4.0504   -2.3282    2.6451 H   0  0  0  0  0  0  0  0  0  0  0  0
   -3.5758   -0.5712    1.3736 H   0  0  0  0  0  0  0  0  0  0  0  0
   -3.5104    0.3820    2.6980 H   0  0  0  0  0  0  0  0  0  0  0  0
    2.8533    1.4714    1.8165 H   0  0  0  0  0  0  0  0  0  0  0  0
    3.1767    1.1787   -1.0415 H   0  0  0  0  0  0  0  0  0  0  0  0
    3.8561    3.1005   -2.1510 H   0  0  0  0  0  0  0  0  0  0  0  0
    3.0863    4.4614   -1.6796 H   0  0  0  0  0  0  0  0  0  0  0  0
    4.6259    4.1892   -1.2082 H   0  0  0  0  0  0  0  0  0  0  0  0
    2.6933   -0.9045    1.8165 H   0  0  0  0  0  0  0  0  0  0  0  0
    2.6933   -0.9045    0.1835 H   0  0  0  0  0  0  0  0  0  0  0  0
    4.7256   -0.4325    3.0738 H   0  0  0  0  0  0  0  0  0  0  0  0
    7.1226   -0.4335    3.0815 H   0  0  0  0  0  0  0  0  0  0  0  0
    9.2317   -0.4364    0.1417 H   0  0  0  0  0  0  0  0  0  0  0  0
    7.1374   -0.4347   -1.0692 H   0  0  0  0  0  0  0  0  0  0  0  0
    4.7405   -0.4351   -1.0710 H   0  0  0  0  0  0  0  0  0  0  0  0
  1  2  2  0  0  0  0
  2  3  1  0  0  0  0
  3  4  1  0  0  0  0
  4  5  1  0  0  0  0
  5  6  1  0  0  0  0
  6  7  1  0  0  0  0
  7  8  1  0  0  0  0
  8  9  1  0  0  0  0
  9 10  2  0  0  0  0
 10 11  1  0  0  0  0
 11 12  2  0  0  0  0
 12 13  1  0  0  0  0
 13  8  2  0  0  0  0
  7 14  1  0  0  0  0
 14 15  1  0  0  0  0
 15  5  1  0  0  0  0
  2 16  1  0  0  0  0
 16 17  1  0  0  0  0
 17 18  1  0  0  0  0
 18 19  2  0  0  0  0
 18 20  1  0  0  0  0
 16 21  1  0  0  0  0
 21 22  1  0  0  0  0
 22 23  1  0  0  0  0
 23 24  2  0  0  0  0
 24 25  1  0  0  0  0
 25 26  1  0  0  0  0
 25 27  2  0  0  0  0
 27 28  1  0  0  0  0
 28 22  2  0  0  0  0
  3 29  1  0  0  0  0
  4 30  1  0  0  0  0
  4 31  1  0  0  0  0
  5 32  1  0  0  0  0
  6 33  1  0  0  0  0
  6 34  1  0  0  0  0
  9 35  1  0  0  0  0
 10 36  1  0  0  0  0
 11 37  1  0  0  0  0
 12 38  1  0  0  0  0
 13 39  1  0  0  0  0
 14 40  1  0  0  0  0
 14 41  1  0  0  0  0
 15 42  1  0  0  0  0
 15 43  1  0  0  0  0
 16 44  1  0  0  0  0
 17 45  1  0  0  0  0
 20 46  1  0  0  0  0
 20 47  1  0  0  0  0
 20 48  1  0  0  0  0
 21 49  1  0  0  0  0
 21 50  1  0  0  0  0
 23 51  1  0  0  0  0
 24 52  1  0  0  0  0
 26 53  1  0  0  0  0
 27 54  1  0  0  0  0
 28 55  1  0  0  0  0
M  END
>  <result-rank>
87

>  <similarity>
0.936

>  <query-name>
LIG_A_1101_C[NH+](C)[C@H]([R*])C1CCC1_2

>  <query-smiles>
O=C(N[C@@H]([NH+](C)C)C1CCC1)[C@@H](NC(=O)C)Cc2ccc(O)cc2

>  <source>
REALspace_2019-12

>  <similarity-descriptor>
0.988;1.000;1.000;1.000;0.942;0.0;0.0;0.0;1.000;1.000;1.000;1.000;1.000;1.000;0.083

>  <similarity-descriptor-smiles>
C1CCNC1;c1ccccc1;O=C;N;C;;;;C;N;C=O;C;C;O;c1ccccc1

>  <reaction-name>
s_22

>  <reagent1-name>
662376

>  <reagent1-smiles>
[R1*]NCC1CN(c2ccccc2)CC1

>  <reagent2-name>
17513450

>  <reagent2-smiles>
[R1*]C(=O)C(NC(=O)C)Cc1ccc(O)cc1

$$$$
s_2708____5730620____6007258
          04022015103D 1   1.00000     0.00000     0
            
 48 49  0  0  0  0            999 V2000
    0.9150    1.0000    3.2257 O   0  0  0  0  0  0  0  0  0  0  0  0
    0.3150    1.0000    2.1865 C   0  0  0  0  0  0  0  0  0  0  0  0
   -1.0550    1.0000    2.1865 N   0  0  0  0  0  0  0  0  0  0  0  0
   -1.7913    1.0000    3.4617 C   0  0  3  0  0  0  0  0  0  0  0  0
   -2.6682    2.2383    3.5508 C   0  0  0  0  0  0  0  0  0  0  0  0
   -3.4430    2.2184    4.8585 C   0  0  3  0  0  0  0  0  0  0  0  0
   -4.2598    0.9989    4.9586 N   0  3  3  0  0  0  0  0  0  0  0  0
   -3.4418   -0.2190    4.8603 C   0  0  0  0  0  0  0  0  0  0  0  0
   -2.6698   -0.2376    3.5506 C   0  0  0  0  0  0  0  0  0  0  0  0
   -4.9837    0.9541    6.2377 C   0  0  0  0  0  0  0  0  0  0  0  0
   -4.3089    3.4667    4.9138 C   0  0  0  0  0  0  0  0  0  0  0  0
    1.0000    1.0000    1.0000 N   0  0  0  0  0  0  0  0  0  0  0  0
    2.4700    1.0000    1.0000 C   0  0  0  0  0  0  0  0  0  0  0  0
    2.9767   -0.4332    1.0000 C   0  0  0  0  0  0  0  0  0  0  0  0
    3.2086   -1.0891   -0.2051 C   0  0  0  0  0  0  0  0  0  0  0  0
    2.9832   -0.4527   -1.3744 O   0  0  0  0  0  0  0  0  0  0  0  0
    3.6729   -2.4002   -0.1923 C   0  0  0  0  0  0  0  0  0  0  0  0
    3.8988   -3.0362   -1.3606 O   0  0  0  0  0  0  0  0  0  0  0  0
    4.3728   -4.3748   -1.3602 C   0  0  0  0  0  0  0  0  0  0  0  0
    3.9081   -3.0649    1.0067 C   0  0  0  0  0  0  0  0  0  0  0  0
    3.6726   -2.4003    2.2054 C   0  0  0  0  0  0  0  0  0  0  0  0
    3.2087   -1.0890    2.2053 C   0  0  0  0  0  0  0  0  0  0  0  0
   -4.9264    0.9980    4.2132 H   0  0  0  0  0  0  0  0  0  0  0  0
   -1.5550    1.0000    1.3204 H   0  0  0  0  0  0  0  0  0  0  0  0
   -1.1401    0.9996    4.2206 H   0  0  0  0  0  0  0  0  0  0  0  0
   -2.0942    3.0564    3.5160 H   0  0  0  0  0  0  0  0  0  0  0  0
   -3.3096    2.2483    2.7836 H   0  0  0  0  0  0  0  0  0  0  0  0
   -2.7952    2.2386    5.6200 H   0  0  0  0  0  0  0  0  0  0  0  0
   -4.0385   -1.0204    4.9020 H   0  0  0  0  0  0  0  0  0  0  0  0
   -2.7960   -0.2442    5.6234 H   0  0  0  0  0  0  0  0  0  0  0  0
   -2.0969   -1.0563    3.5131 H   0  0  0  0  0  0  0  0  0  0  0  0
   -3.3129   -0.2454    2.7848 H   0  0  0  0  0  0  0  0  0  0  0  0
   -5.5305    0.1180    6.2821 H   0  0  0  0  0  0  0  0  0  0  0  0
   -4.3278    0.9639    6.9924 H   0  0  0  0  0  0  0  0  0  0  0  0
   -5.5851    1.7499    6.3083 H   0  0  0  0  0  0  0  0  0  0  0  0
   -3.7288    4.2782    4.8438 H   0  0  0  0  0  0  0  0  0  0  0  0
   -4.9592    3.4553    4.1542 H   0  0  0  0  0  0  0  0  0  0  0  0
   -4.8085    3.4878    5.7799 H   0  0  0  0  0  0  0  0  0  0  0  0
    0.5000    1.0000    0.1340 H   0  0  0  0  0  0  0  0  0  0  0  0
    2.8033    1.4714    1.8165 H   0  0  0  0  0  0  0  0  0  0  0  0
    2.8033    1.4714    0.1835 H   0  0  0  0  0  0  0  0  0  0  0  0
    2.6494    0.4899   -1.3744 H   0  0  0  0  0  0  0  0  0  0  0  0
    4.4847   -4.6890   -2.3029 H   0  0  0  0  0  0  0  0  0  0  0  0
    5.2534   -4.4164   -0.8882 H   0  0  0  0  0  0  0  0  0  0  0  0
    3.7141   -4.9615   -0.8892 H   0  0  0  0  0  0  0  0  0  0  0  0
    4.2418   -4.0076    1.0067 H   0  0  0  0  0  0  0  0  0  0  0  0
    3.8380   -2.8683    3.0735 H   0  0  0  0  0  0  0  0  0  0  0  0
    3.0419   -0.6175    3.0712 H   0  0  0  0  0  0  0  0  0  0  0  0
  1  2  2  0  0  0  0
  2  3  1  0  0  0  0
  3  4  1  0  0  0  0
  4  5  1  0  0  0  0
  5  6  1  0  0  0  0
  6  7  1  0  0  0  0
  7  8  1  0  0  0  0
  8  9  1  0  0  0  0
  9  4  1  0  0  0  0
  7 10  1  0  0  0  0
  6 11  1  0  0  0  0
  2 12  1  0  0  0  0
 12 13  1  0  0  0  0
 13 14  1  0  0  0  0
 14 15  1  0  0  0  0
 15 16  1  0  0  0  0
 15 17  2  0  0  0  0
 17 18  1  0  0  0  0
 18 19  1  0  0  0  0
 17 20  1  0  0  0  0
 20 21  2  0  0  0  0
 21 22  1  0  0  0  0
 22 14  2  0  0  0  0
  7 23  1  0  0  0  0
  3 24  1  0  0  0  0
  4 25  1  0  0  0  0
  5 26  1  0  0  0  0
  5 27  1  0  0  0  0
  6 28  1  0  0  0  0
  8 29  1  0  0  0  0
  8 30  1  0  0  0  0
  9 31  1  0  0  0  0
  9 32  1  0  0  0  0
 10 33  1  0  0  0  0
 10 34  1  0  0  0  0
 10 35  1  0  0  0  0
 11 36  1  0  0  0  0
 11 37  1  0  0  0  0
 11 38  1  0  0  0  0
 12 39  1  0  0  0  0
 13 40  1  0  0  0  0
 13 41  1  0  0  0  0
 16 42  1  0  0  0  0
 19 43  1  0  0  0  0
 19 44  1  0  0  0  0
 19 45  1  0  0  0  0
 20 46  1  0  0  0  0
 21 47  1  0  0  0  0
 22 48  1  0  0  0  0
M  CHG  1   7   1
M  END
>  <result-rank>
88

>  <similarity>
0.936

>  <query-name>
LIG_A_1101_C[NH+](C)[C@H]([R*])C1CCC1_2

>  <query-smiles>
O=C(N[C@@H]([NH+](C)C)C1CCC1)[C@@H](NC(=O)C)Cc2ccc(O)cc2

>  <source>
REALspace_2019-12

>  <similarity-descriptor>
0.999;0.957;0.995;1.000;0.999;0.999;1.000;0.995;0.869;0.869;0.0;0.0;0.869;1.000;0.182

>  <similarity-descriptor-smiles>
C1CC[NH+]CC1;c1ccccc1;O=C;N;C1CC[NH+]CC1;C1CC[NH+]CC1;C;C;NC;NC;;;NC;O;O.C

>  <reaction-name>
s_2708

>  <reagent1-name>
5730620

>  <reagent1-smiles>
[R1*]C(=O)NC1CC(N(CC1)C)C

>  <reagent2-name>
6007258

>  <reagent2-smiles>
[R1*]NCc1c(O)c(OC)ccc1

$$$$
s_2708____6583376____10691088
          04022015103D 1   1.00000     0.00000     0
            
 53 54  0  0  0  0            999 V2000
    4.1074   -2.0326   -4.7169 Cl  0  0  0  0  0  0  0  0  0  0  0  0
    3.8142   -1.5149   -3.0392 C   0  0  0  0  0  0  0  0  0  0  0  0
    4.7452   -0.7111   -2.3907 C   0  0  0  0  0  0  0  0  0  0  0  0
    4.5203   -0.3048   -1.0793 C   0  0  0  0  0  0  0  0  0  0  0  0
    3.3582   -0.7117   -0.4325 C   0  0  0  0  0  0  0  0  0  0  0  0
    2.4271   -1.5156   -1.0805 C   0  0  0  0  0  0  0  0  0  0  0  0
    2.6520   -1.9221   -2.3922 C   0  0  0  0  0  0  0  0  0  0  0  0
    3.1050   -0.2731    1.0000 C   0  0  3  0  0  0  0  0  0  0  0  0
    2.3700    1.0000    1.0000 N   0  0  0  0  0  0  0  0  0  0  0  0
    1.0000    1.0000    1.0000 C   0  0  0  0  0  0  0  0  0  0  0  0
    0.4000   -0.0392    1.0000 O   0  0  0  0  0  0  0  0  0  0  0  0
    0.3150    2.1865    1.0000 N   0  0  0  0  0  0  0  0  0  0  0  0
   -1.1547    2.1865    1.0000 C   0  0  3  0  0  0  0  0  0  0  0  0
   -1.6773    2.1865    2.4275 C   0  0  0  0  0  0  0  0  0  0  0  0
   -3.1974    2.1893    2.4316 C   0  0  3  0  0  0  0  0  0  0  0  0
   -3.6945    2.1983    3.8150 N   0  3  0  0  0  0  0  0  0  0  0  0
   -5.1645    2.2010    3.8074 C   0  0  0  0  0  0  0  0  0  0  0  0
   -3.2103    1.0013    4.5175 C   0  0  0  0  0  0  0  0  0  0  0  0
   -3.7049    3.4158    1.6906 C   0  0  0  0  0  0  0  0  0  0  0  0
   -3.1937    3.4170    0.2588 C   0  0  0  0  0  0  0  0  0  0  0  0
   -1.6731    3.4109    0.2629 C   0  0  0  0  0  0  0  0  0  0  0  0
    3.1050    2.2731    1.0000 C   0  0  0  0  0  0  0  0  0  0  0  0
    4.4331   -0.0913    1.7165 C   0  0  0  0  0  0  0  0  0  0  0  0
    5.1431   -1.3211    1.7165 O   0  0  0  0  0  0  0  0  0  0  0  0
   -3.3621    3.0170    4.2833 H   0  0  0  0  0  0  0  0  0  0  0  0
    5.5766   -0.4250   -2.8671 H   0  0  0  0  0  0  0  0  0  0  0  0
    5.1863    0.2729   -0.6074 H   0  0  0  0  0  0  0  0  0  0  0  0
    1.5958   -1.8017   -0.6040 H   0  0  0  0  0  0  0  0  0  0  0  0
    1.9862   -2.5000   -2.8640 H   0  0  0  0  0  0  0  0  0  0  0  0
    2.5646   -0.9700    1.4714 H   0  0  0  0  0  0  0  0  0  0  0  0
    0.8150    3.0525    1.0000 H   0  0  0  0  0  0  0  0  0  0  0  0
   -1.4804    1.3638    0.5340 H   0  0  0  0  0  0  0  0  0  0  0  0
   -1.3474    1.3690    2.8997 H   0  0  0  0  0  0  0  0  0  0  0  0
   -1.3444    3.0020    2.9008 H   0  0  0  0  0  0  0  0  0  0  0  0
   -3.5283    1.3665    1.9695 H   0  0  0  0  0  0  0  0  0  0  0  0
   -5.5027    2.2072    4.7484 H   0  0  0  0  0  0  0  0  0  0  0  0
   -5.4939    3.0153    3.3295 H   0  0  0  0  0  0  0  0  0  0  0  0
   -5.4969    1.3823    3.3391 H   0  0  0  0  0  0  0  0  0  0  0  0
   -3.5485    1.0075    5.4586 H   0  0  0  0  0  0  0  0  0  0  0  0
   -3.5427    0.1827    4.0492 H   0  0  0  0  0  0  0  0  0  0  0  0
   -2.2103    0.9995    4.5227 H   0  0  0  0  0  0  0  0  0  0  0  0
   -3.3822    4.2396    2.1566 H   0  0  0  0  0  0  0  0  0  0  0  0
   -4.7048    3.4066    1.6837 H   0  0  0  0  0  0  0  0  0  0  0  0
   -3.5224    4.2359   -0.2117 H   0  0  0  0  0  0  0  0  0  0  0  0
   -3.5289    2.6029   -0.2154 H   0  0  0  0  0  0  0  0  0  0  0  0
   -1.3403    3.3943   -0.6799 H   0  0  0  0  0  0  0  0  0  0  0  0
   -1.3407    4.2363    0.7192 H   0  0  0  0  0  0  0  0  0  0  0  0
    4.0882    2.0903    1.0000 H   0  0  0  0  0  0  0  0  0  0  0  0
    2.8634    2.7974    0.1835 H   0  0  0  0  0  0  0  0  0  0  0  0
    2.8634    2.7974    1.8165 H   0  0  0  0  0  0  0  0  0  0  0  0
    4.9736    0.6056    1.2451 H   0  0  0  0  0  0  0  0  0  0  0  0
    4.2665    0.1974    2.6593 H   0  0  0  0  0  0  0  0  0  0  0  0
    6.0169   -1.2015    2.1879 H   0  0  0  0  0  0  0  0  0  0  0  0
  1  2  1  0  0  0  0
  2  3  1  0  0  0  0
  3  4  2  0  0  0  0
  4  5  1  0  0  0  0
  5  6  2  0  0  0  0
  6  7  1  0  0  0  0
  7  2  2  0  0  0  0
  5  8  1  0  0  0  0
  8  9  1  0  0  0  0
  9 10  1  0  0  0  0
 10 11  2  0  0  0  0
 10 12  1  0  0  0  0
 12 13  1  0  0  0  0
 13 14  1  0  0  0  0
 14 15  1  0  0  0  0
 15 16  1  0  0  0  0
 16 17  1  0  0  0  0
 16 18  1  0  0  0  0
 15 19  1  0  0  0  0
 19 20  1  0  0  0  0
 20 21  1  0  0  0  0
 21 13  1  0  0  0  0
  9 22  1  0  0  0  0
  8 23  1  0  0  0  0
 23 24  1  0  0  0  0
 16 25  1  0  0  0  0
  3 26  1  0  0  0  0
  4 27  1  0  0  0  0
  6 28  1  0  0  0  0
  7 29  1  0  0  0  0
  8 30  1  0  0  0  0
 12 31  1  0  0  0  0
 13 32  1  0  0  0  0
 14 33  1  0  0  0  0
 14 34  1  0  0  0  0
 15 35  1  0  0  0  0
 17 36  1  0  0  0  0
 17 37  1  0  0  0  0
 17 38  1  0  0  0  0
 18 39  1  0  0  0  0
 18 40  1  0  0  0  0
 18 41  1  0  0  0  0
 19 42  1  0  0  0  0
 19 43  1  0  0  0  0
 20 44  1  0  0  0  0
 20 45  1  0  0  0  0
 21 46  1  0  0  0  0
 21 47  1  0  0  0  0
 22 48  1  0  0  0  0
 22 49  1  0  0  0  0
 22 50  1  0  0  0  0
 23 51  1  0  0  0  0
 23 52  1  0  0  0  0
 24 53  1  0  0  0  0
M  CHG  1  16   1
M  END
>  <result-rank>
89

>  <similarity>
0.936

>  <query-name>
LIG_A_1101_C[NH+](C)[C@H]([R*])C1CCC1_2

>  <query-smiles>
O=C(N[C@@H]([NH+](C)C)C1CCC1)[C@@H](NC(=O)C)Cc2ccc(O)cc2

>  <source>
REALspace_2019-12

>  <similarity-descriptor>
0.905;0.968;0.995;1.000;0.905;1.000;1.000;1.000;0.951;0.828;0.828;0.828;0.951;0.0;0.0

>  <similarity-descriptor-smiles>
C1CCCCC1;Clc1ccccc1;C=O;N;C1CCCCC1;[NH+];C;C;CNC;CO;CO;CO;CNC;;

>  <reaction-name>
s_2708

>  <reagent1-name>
6583376

>  <reagent1-smiles>
[R1*]C(=O)NC1CC(N(C)C)CCC1

>  <reagent2-name>
10691088

>  <reagent2-smiles>
[R1*]N(C(c1ccc(Cl)cc1)CO)C

$$$$
s_512____6885310____8363400
          04022015103D 1   1.00000     0.00000     0
            
 53 54  0  0  0  0            999 V2000
    9.2720   -0.0619   -0.7515 O   0  5  0  0  0  0  0  0  0  0  0  0
    8.6614   -0.2442    0.2889 N   0  3  0  0  0  0  0  0  0  0  0  0
    9.2659   -0.4259    1.3212 O   0  0  0  0  0  0  0  0  0  0  0  0
    7.2611   -0.2432    0.2884 C   0  0  0  0  0  0  0  0  0  0  0  0
    6.5681   -0.4516    1.4762 C   0  0  0  0  0  0  0  0  0  0  0  0
    5.1768   -0.4518    1.4787 C   0  0  0  0  0  0  0  0  0  0  0  0
    4.4966   -0.2411    0.2835 C   0  0  0  0  0  0  0  0  0  0  0  0
    5.1872   -0.0326   -0.9058 C   0  0  0  0  0  0  0  0  0  0  0  0
    6.5783   -0.0332   -0.9050 C   0  0  0  0  0  0  0  0  0  0  0  0
    2.9767   -0.2411    0.2835 C   0  0  3  0  0  0  0  0  0  0  0  0
    2.5033   -1.4005    0.9529 O   0  0  0  0  0  0  0  0  0  0  0  0
    2.4700    1.0000    1.0000 C   0  0  3  0  0  0  0  0  0  0  0  0
    1.0000    1.0000    1.0000 N   0  0  0  0  0  0  0  0  0  0  0  0
    0.3150    1.0000    2.1865 C   0  0  0  0  0  0  0  0  0  0  0  0
    0.9150    1.0000    3.2257 O   0  0  0  0  0  0  0  0  0  0  0  0
   -1.0550    1.0000    2.1865 N   0  0  0  0  0  0  0  0  0  0  0  0
   -1.7908    1.0000    3.4609 C   0  0  3  0  0  0  0  0  0  0  0  0
   -2.6695   -0.2375    3.5539 C   0  0  0  0  0  0  0  0  0  0  0  0
   -3.4432   -0.2134    4.8627 C   0  0  3  0  0  0  0  0  0  0  0  0
   -4.2610    1.0050    4.9718 N   0  3  3  0  0  0  0  0  0  0  0  0
   -3.4386    2.2199    4.8742 C   0  0  0  0  0  0  0  0  0  0  0  0
   -2.6701    2.2361    3.5626 C   0  0  0  0  0  0  0  0  0  0  0  0
   -4.9838    1.0455    6.2516 C   0  0  0  0  0  0  0  0  0  0  0  0
   -4.3079   -1.4624    4.9222 C   0  0  0  0  0  0  0  0  0  0  0  0
    2.9767    2.2411    0.2835 C   0  0  0  0  0  0  0  0  0  0  0  0
    2.5033    3.4005    0.9529 O   0  0  0  0  0  0  0  0  0  0  0  0
   -4.9285    1.0100    4.2272 H   0  0  0  0  0  0  0  0  0  0  0  0
    7.0697   -0.6011    2.3283 H   0  0  0  0  0  0  0  0  0  0  0  0
    4.6721   -0.6016    2.3288 H   0  0  0  0  0  0  0  0  0  0  0  0
    4.6857    0.1171   -1.7579 H   0  0  0  0  0  0  0  0  0  0  0  0
    7.0830    0.1162   -1.7553 H   0  0  0  0  0  0  0  0  0  0  0  0
    2.6433   -0.2411   -0.6593 H   0  0  0  0  0  0  0  0  0  0  0  0
    1.5033   -1.4005    0.9529 H   0  0  0  0  0  0  0  0  0  0  0  0
    2.8033    1.0000    1.9428 H   0  0  0  0  0  0  0  0  0  0  0  0
    0.5000    1.0000    0.1340 H   0  0  0  0  0  0  0  0  0  0  0  0
   -1.5550    1.0000    1.3204 H   0  0  0  0  0  0  0  0  0  0  0  0
   -1.1376    0.9975    4.2180 H   0  0  0  0  0  0  0  0  0  0  0  0
   -2.0965   -1.0564    3.5207 H   0  0  0  0  0  0  0  0  0  0  0  0
   -3.3117   -0.2486    2.7874 H   0  0  0  0  0  0  0  0  0  0  0  0
   -2.7930   -0.2346    5.6222 H   0  0  0  0  0  0  0  0  0  0  0  0
   -2.7908    2.2412    5.6358 H   0  0  0  0  0  0  0  0  0  0  0  0
   -4.0317    3.0237    4.9185 H   0  0  0  0  0  0  0  0  0  0  0  0
   -3.3167    2.2463    2.7999 H   0  0  0  0  0  0  0  0  0  0  0  0
   -2.0968    3.0545    3.5246 H   0  0  0  0  0  0  0  0  0  0  0  0
   -5.5303    1.8816    6.2995 H   0  0  0  0  0  0  0  0  0  0  0  0
   -5.5854    0.2497    6.3200 H   0  0  0  0  0  0  0  0  0  0  0  0
   -4.3272    1.0328    7.0058 H   0  0  0  0  0  0  0  0  0  0  0  0
   -3.7278   -2.2734    4.8460 H   0  0  0  0  0  0  0  0  0  0  0  0
   -4.8006   -1.4856    5.7921 H   0  0  0  0  0  0  0  0  0  0  0  0
   -4.9640   -1.4499    4.1677 H   0  0  0  0  0  0  0  0  0  0  0  0
    3.9767    2.2411    0.2835 H   0  0  0  0  0  0  0  0  0  0  0  0
    2.6433    2.2411   -0.6593 H   0  0  0  0  0  0  0  0  0  0  0  0
    2.8367    4.2170    0.4815 H   0  0  0  0  0  0  0  0  0  0  0  0
  1  2  1  0  0  0  0
  2  3  2  0  0  0  0
  2  4  1  0  0  0  0
  4  5  1  0  0  0  0
  5  6  2  0  0  0  0
  6  7  1  0  0  0  0
  7  8  2  0  0  0  0
  8  9  1  0  0  0  0
  9  4  2  0  0  0  0
  7 10  1  0  0  0  0
 10 11  1  0  0  0  0
 10 12  1  0  0  0  0
 12 13  1  0  0  0  0
 13 14  1  0  0  0  0
 14 15  2  0  0  0  0
 14 16  1  0  0  0  0
 16 17  1  0  0  0  0
 17 18  1  0  0  0  0
 18 19  1  0  0  0  0
 19 20  1  0  0  0  0
 20 21  1  0  0  0  0
 21 22  1  0  0  0  0
 22 17  1  0  0  0  0
 20 23  1  0  0  0  0
 19 24  1  0  0  0  0
 12 25  1  0  0  0  0
 25 26  1  0  0  0  0
 20 27  1  0  0  0  0
  5 28  1  0  0  0  0
  6 29  1  0  0  0  0
  8 30  1  0  0  0  0
  9 31  1  0  0  0  0
 10 32  1  0  0  0  0
 11 33  1  0  0  0  0
 12 34  1  0  0  0  0
 13 35  1  0  0  0  0
 16 36  1  0  0  0  0
 17 37  1  0  0  0  0
 18 38  1  0  0  0  0
 18 39  1  0  0  0  0
 19 40  1  0  0  0  0
 21 41  1  0  0  0  0
 21 42  1  0  0  0  0
 22 43  1  0  0  0  0
 22 44  1  0  0  0  0
 23 45  1  0  0  0  0
 23 46  1  0  0  0  0
 23 47  1  0  0  0  0
 24 48  1  0  0  0  0
 24 49  1  0  0  0  0
 24 50  1  0  0  0  0
 25 51  1  0  0  0  0
 25 52  1  0  0  0  0
 26 53  1  0  0  0  0
M  CHG  3   1  -1   2   1  20   1
M  END
>  <result-rank>
90

>  <similarity>
0.935

>  <query-name>
LIG_A_1101_C[NH+](C)[C@H]([R*])C1CCC1_2

>  <query-smiles>
O=C(N[C@@H]([NH+](C)C)C1CCC1)[C@@H](NC(=O)C)Cc2ccc(O)cc2

>  <source>
REALspace_2019-12

>  <similarity-descriptor>
0.999;1.000;0.995;1.000;0.999;0.999;1.000;0.995;0.999;0.999;0.730;0.730;0.939;0.0;0.154

>  <similarity-descriptor-smiles>
C1CC[NH+]CC1;c1ccccc1;C=O;N;C1CC[NH+]CC1;C1CC[NH+]CC1;C;C;CN;CN;CO;CO;C;;[O-][N+]=O.O

>  <reaction-name>
s_512

>  <reagent1-name>
6885310

>  <reagent1-smiles>
[R1*]C(=O)NC1CC(N(CC1)C)C

>  <reagent2-name>
8363400

>  <reagent2-smiles>
[R1*]NC(C(O)c1ccc([N+]([O-])=O)cc1)CO

$$$$
s_512____6885310____5343646
          04022015103D 1   1.00000     0.00000     0
            
 54 55  0  0  0  0            999 V2000
   -3.2698    4.6408    4.0589 O   0  0  0  0  0  0  0  0  0  0  0  0
   -2.7111    5.3837    4.8178 C   0  0  0  0  0  0  0  0  0  0  0  0
   -3.3498    6.4134    5.3157 O   0  0  0  0  0  0  0  0  0  0  0  0
   -4.7032    6.6505    4.9573 C   0  0  0  0  0  0  0  0  0  0  0  0
   -1.4054    5.1549    5.1636 N   0  0  0  0  0  0  0  0  0  0  0  0
   -0.5973    4.3469    4.3543 C   0  0  0  0  0  0  0  0  0  0  0  0
   -0.6903    2.9622    4.4457 C   0  0  0  0  0  0  0  0  0  0  0  0
    0.1119    2.1569    3.6433 C   0  0  0  0  0  0  0  0  0  0  0  0
    1.0000    2.7551    2.7551 C   0  0  0  0  0  0  0  0  0  0  0  0
    1.0951    4.1397    2.6618 C   0  0  0  0  0  0  0  0  0  0  0  0
    0.2919    4.9421    3.4655 C   0  0  0  0  0  0  0  0  0  0  0  0
    1.8776    1.8776    1.8776 C   0  0  0  0  0  0  0  0  0  0  0  0
    1.0000    1.0000    1.0000 C   0  0  0  0  0  0  0  0  0  0  0  0
    1.8487    0.1513    0.1513 N   0  0  0  0  0  0  0  0  0  0  0  0
    2.2442   -1.0831    0.5948 C   0  0  0  0  0  0  0  0  0  0  0  0
    1.8978   -1.4716    1.6760 O   0  0  0  0  0  0  0  0  0  0  0  0
    3.0352   -1.8741   -0.1962 N   0  0  0  0  0  0  0  0  0  0  0  0
    3.4602   -3.2009    0.2805 C   0  0  3  0  0  0  0  0  0  0  0  0
    2.4416   -4.2493   -0.1364 C   0  0  0  0  0  0  0  0  0  0  0  0
    2.8999   -5.6189    0.3380 C   0  0  3  0  0  0  0  0  0  0  0  0
    4.2262   -5.9406   -0.2110 N   0  3  3  0  0  0  0  0  0  0  0  0
    5.2329   -4.9358    0.1617 C   0  0  0  0  0  0  0  0  0  0  0  0
    4.8115   -3.5563   -0.3189 C   0  0  0  0  0  0  0  0  0  0  0  0
    4.6929   -7.2478    0.2731 C   0  0  0  0  0  0  0  0  0  0  0  0
    1.8620   -6.6409   -0.0962 C   0  0  0  0  0  0  0  0  0  0  0  0
    4.1605   -5.9734   -1.2083 H   0  0  0  0  0  0  0  0  0  0  0  0
   -5.0329    7.4710    5.4243 H   0  0  0  0  0  0  0  0  0  0  0  0
   -4.7681    6.7813    3.9680 H   0  0  0  0  0  0  0  0  0  0  0  0
   -5.2618    5.8662    5.2272 H   0  0  0  0  0  0  0  0  0  0  0  0
   -1.0292    5.5651    5.9944 H   0  0  0  0  0  0  0  0  0  0  0  0
   -1.3335    2.5454    5.0880 H   0  0  0  0  0  0  0  0  0  0  0  0
    0.0508    1.1606    3.7042 H   0  0  0  0  0  0  0  0  0  0  0  0
    1.7382    4.5565    2.0194 H   0  0  0  0  0  0  0  0  0  0  0  0
    0.3533    5.9384    3.4049 H   0  0  0  0  0  0  0  0  0  0  0  0
    2.4549    1.3002    2.4549 H   0  0  0  0  0  0  0  0  0  0  0  0
    2.4549    2.4549    1.3002 H   0  0  0  0  0  0  0  0  0  0  0  0
    0.4226    0.4226    1.5774 H   0  0  0  0  0  0  0  0  0  0  0  0
    0.4226    1.5774    0.4226 H   0  0  0  0  0  0  0  0  0  0  0  0
    2.1374    0.4750   -0.7498 H   0  0  0  0  0  0  0  0  0  0  0  0
    3.3238   -1.5504   -1.0973 H   0  0  0  0  0  0  0  0  0  0  0  0
    3.5330   -3.1874    1.2777 H   0  0  0  0  0  0  0  0  0  0  0  0
    1.5552   -4.0341    0.2735 H   0  0  0  0  0  0  0  0  0  0  0  0
    2.3561   -4.2532   -1.1327 H   0  0  0  0  0  0  0  0  0  0  0  0
    2.9540   -5.6152    1.3365 H   0  0  0  0  0  0  0  0  0  0  0  0
    6.1088   -5.1767   -0.2565 H   0  0  0  0  0  0  0  0  0  0  0  0
    5.3313   -4.9219    1.1567 H   0  0  0  0  0  0  0  0  0  0  0  0
    5.4913   -2.8814   -0.0317 H   0  0  0  0  0  0  0  0  0  0  0  0
    4.7436   -3.5573   -1.3166 H   0  0  0  0  0  0  0  0  0  0  0  0
    5.5944   -7.4438   -0.1129 H   0  0  0  0  0  0  0  0  0  0  0  0
    4.7542   -7.2312    1.2711 H   0  0  0  0  0  0  0  0  0  0  0  0
    4.0478   -7.9577   -0.0095 H   0  0  0  0  0  0  0  0  0  0  0  0
    0.9725   -6.3977    0.2907 H   0  0  0  0  0  0  0  0  0  0  0  0
    1.8002   -6.6500   -1.0942 H   0  0  0  0  0  0  0  0  0  0  0  0
    2.1304   -7.5476    0.2294 H   0  0  0  0  0  0  0  0  0  0  0  0
  1  2  2  0  0  0  0
  2  3  1  0  0  0  0
  3  4  1  0  0  0  0
  2  5  1  0  0  0  0
  5  6  1  0  0  0  0
  6  7  1  0  0  0  0
  7  8  2  0  0  0  0
  8  9  1  0  0  0  0
  9 10  2  0  0  0  0
 10 11  1  0  0  0  0
 11  6  2  0  0  0  0
  9 12  1  0  0  0  0
 12 13  1  0  0  0  0
 13 14  1  0  0  0  0
 14 15  1  0  0  0  0
 15 16  2  0  0  0  0
 15 17  1  0  0  0  0
 17 18  1  0  0  0  0
 18 19  1  0  0  0  0
 19 20  1  0  0  0  0
 20 21  1  0  0  0  0
 21 22  1  0  0  0  0
 22 23  1  0  0  0  0
 23 18  1  0  0  0  0
 21 24  1  0  0  0  0
 20 25  1  0  0  0  0
 21 26  1  0  0  0  0
  4 27  1  0  0  0  0
  4 28  1  0  0  0  0
  4 29  1  0  0  0  0
  5 30  1  0  0  0  0
  7 31  1  0  0  0  0
  8 32  1  0  0  0  0
 10 33  1  0  0  0  0
 11 34  1  0  0  0  0
 12 35  1  0  0  0  0
 12 36  1  0  0  0  0
 13 37  1  0  0  0  0
 13 38  1  0  0  0  0
 14 39  1  0  0  0  0
 17 40  1  0  0  0  0
 18 41  1  0  0  0  0
 19 42  1  0  0  0  0
 19 43  1  0  0  0  0
 20 44  1  0  0  0  0
 22 45  1  0  0  0  0
 22 46  1  0  0  0  0
 23 47  1  0  0  0  0
 23 48  1  0  0  0  0
 24 49  1  0  0  0  0
 24 50  1  0  0  0  0
 24 51  1  0  0  0  0
 25 52  1  0  0  0  0
 25 53  1  0  0  0  0
 25 54  1  0  0  0  0
M  CHG  1  21   1
M  END
>  <result-rank>
91

>  <similarity>
0.934

>  <query-name>
LIG_A_1101_C[NH+](C)[C@H]([R*])C1CCC1_2

>  <query-smiles>
O=C(N[C@@H]([NH+](C)C)C1CCC1)[C@@H](NC(=O)C)Cc2ccc(O)cc2

>  <source>
REALspace_2019-12

>  <similarity-descriptor>
0.999;1.000;0.995;1.000;0.999;0.999;1.000;0.995;0.952;0.952;0.0;0.0;1.000;0.715;0.231

>  <similarity-descriptor-smiles>
C1CC[NH+]CC1;c1ccccc1;C=O;N;C1CC[NH+]CC1;C1CC[NH+]CC1;C;C;CN;CN;;;C;N;O=C.O.C

>  <reaction-name>
s_512

>  <reagent1-name>
6885310

>  <reagent1-smiles>
[R1*]C(=O)NC1CC(N(CC1)C)C

>  <reagent2-name>
5343646

>  <reagent2-smiles>
[R1*]NCCc1ccc(NC(=O)OC)cc1

$$$$
s_22____16772622____16887748
          04022015103D 1   1.00000     0.00000     0
            
 65 66  0  0  0  0            999 V2000
    2.2887   -0.3248   -0.9459 O   0  0  0  0  0  0  0  0  0  0  0  0
    2.9767   -0.0133   -0.0133 C   0  0  0  0  0  0  0  0  0  0  0  0
    4.2447   -0.5827    0.1412 N   0  0  0  0  0  0  0  0  0  0  0  0
    4.8850   -1.1902   -1.0384 C   0  0  0  0  0  0  0  0  0  0  0  0
    5.7055   -2.4265   -0.6964 C   0  0  3  0  0  0  0  0  0  0  0  0
    6.5953   -2.7509   -1.8199 N   0  3  0  0  0  0  0  0  0  0  0  0
    7.9222   -3.1174   -1.3041 C   0  0  0  0  0  0  0  0  0  0  0  0
    6.0356   -3.8790   -2.5783 C   0  0  0  0  0  0  0  0  0  0  0  0
    6.5635   -2.1778    0.5378 C   0  0  0  0  0  0  0  0  0  0  0  0
    5.7413   -1.7629    1.7510 C   0  0  0  0  0  0  0  0  0  0  0  0
    4.8646   -0.5478    1.4775 C   0  0  0  0  0  0  0  0  0  0  0  0
    4.7847   -3.6200   -0.4920 C   0  0  0  0  0  0  0  0  0  0  0  0
    2.4700    1.0000    1.0000 C   0  0  3  0  0  0  0  0  0  0  0  0
    1.0000    1.0000    1.0000 N   0  0  0  0  0  0  0  0  0  0  0  0
    0.3150    1.0000    2.1865 C   0  0  0  0  0  0  0  0  0  0  0  0
    0.9150    1.0000    3.2257 O   0  0  0  0  0  0  0  0  0  0  0  0
   -1.2050    1.0000    2.1865 C   0  0  0  0  0  0  0  0  0  0  0  0
   -1.6783    1.0000    3.5252 O   0  0  0  0  0  0  0  0  0  0  0  0
   -3.0983    1.0000    3.5252 C   0  0  0  0  0  0  0  0  0  0  0  0
   -3.6050    1.0000    4.9583 C   0  0  0  0  0  0  0  0  0  0  0  0
   -3.6050    2.2411    2.8087 C   0  0  0  0  0  0  0  0  0  0  0  0
    2.9767    2.3842    0.6291 C   0  0  0  0  0  0  0  0  0  0  0  0
    3.1456    3.2166    1.8897 C   0  0  0  0  0  0  0  0  0  0  0  0
    4.3633    3.2014    2.5618 C   0  0  0  0  0  0  0  0  0  0  0  0
    4.5227    3.9620    3.7153 C   0  0  0  0  0  0  0  0  0  0  0  0
    3.4605    4.7297    4.1823 C   0  0  0  0  0  0  0  0  0  0  0  0
    3.6107    5.4691    5.3016 O   0  0  0  0  0  0  0  0  0  0  0  0
    2.2404    4.7481    3.5142 C   0  0  0  0  0  0  0  0  0  0  0  0
    2.0867    3.9860    2.3610 C   0  0  0  0  0  0  0  0  0  0  0  0
    6.6790   -1.9550   -2.4195 H   0  0  0  0  0  0  0  0  0  0  0  0
    5.4889   -0.5125   -1.4580 H   0  0  0  0  0  0  0  0  0  0  0  0
    4.1723   -1.4503   -1.6898 H   0  0  0  0  0  0  0  0  0  0  0  0
    8.5277   -3.3382   -2.0687 H   0  0  0  0  0  0  0  0  0  0  0  0
    8.3029   -2.3500   -0.7882 H   0  0  0  0  0  0  0  0  0  0  0  0
    7.8385   -3.9134   -0.7045 H   0  0  0  0  0  0  0  0  0  0  0  0
    6.6412   -4.0998   -3.3428 H   0  0  0  0  0  0  0  0  0  0  0  0
    5.9520   -4.6749   -1.9787 H   0  0  0  0  0  0  0  0  0  0  0  0
    5.1330   -3.6297   -2.9292 H   0  0  0  0  0  0  0  0  0  0  0  0
    7.2183   -1.4508    0.3311 H   0  0  0  0  0  0  0  0  0  0  0  0
    7.0578   -3.0186    0.7586 H   0  0  0  0  0  0  0  0  0  0  0  0
    5.1545   -2.5277    2.0169 H   0  0  0  0  0  0  0  0  0  0  0  0
    6.3654   -1.5450    2.5014 H   0  0  0  0  0  0  0  0  0  0  0  0
    4.1398   -0.5150    2.1656 H   0  0  0  0  0  0  0  0  0  0  0  0
    5.4281    0.2754    1.5473 H   0  0  0  0  0  0  0  0  0  0  0  0
    4.1621   -3.4343    0.2682 H   0  0  0  0  0  0  0  0  0  0  0  0
    4.2552   -3.7790   -1.3253 H   0  0  0  0  0  0  0  0  0  0  0  0
    5.3314   -4.4312   -0.2846 H   0  0  0  0  0  0  0  0  0  0  0  0
    2.8033    0.7560    1.9107 H   0  0  0  0  0  0  0  0  0  0  0  0
    0.5000    1.0000    0.1340 H   0  0  0  0  0  0  0  0  0  0  0  0
   -1.5383    1.8165    1.7151 H   0  0  0  0  0  0  0  0  0  0  0  0
   -1.5383    0.1835    1.7151 H   0  0  0  0  0  0  0  0  0  0  0  0
   -3.4317    0.1835    3.0538 H   0  0  0  0  0  0  0  0  0  0  0  0
   -4.6050    1.0000    4.9583 H   0  0  0  0  0  0  0  0  0  0  0  0
   -3.2717    0.1835    5.4297 H   0  0  0  0  0  0  0  0  0  0  0  0
   -3.2717    1.8165    5.4297 H   0  0  0  0  0  0  0  0  0  0  0  0
   -4.6050    2.2411    2.8087 H   0  0  0  0  0  0  0  0  0  0  0  0
   -3.2717    3.0576    3.2801 H   0  0  0  0  0  0  0  0  0  0  0  0
   -3.2717    2.2411    1.8659 H   0  0  0  0  0  0  0  0  0  0  0  0
    3.8576    2.3029    0.1629 H   0  0  0  0  0  0  0  0  0  0  0  0
    2.3180    2.8287    0.0220 H   0  0  0  0  0  0  0  0  0  0  0  0
    5.1205    2.6464    2.2173 H   0  0  0  0  0  0  0  0  0  0  0  0
    5.3944    3.9572    4.2053 H   0  0  0  0  0  0  0  0  0  0  0  0
    2.8501    6.0224    5.6411 H   0  0  0  0  0  0  0  0  0  0  0  0
    1.4831    5.3027    3.8589 H   0  0  0  0  0  0  0  0  0  0  0  0
    1.2152    3.9911    1.8707 H   0  0  0  0  0  0  0  0  0  0  0  0
  1  2  2  0  0  0  0
  2  3  1  0  0  0  0
  3  4  1  0  0  0  0
  4  5  1  0  0  0  0
  5  6  1  0  0  0  0
  6  7  1  0  0  0  0
  6  8  1  0  0  0  0
  5  9  1  0  0  0  0
  9 10  1  0  0  0  0
 10 11  1  0  0  0  0
 11  3  1  0  0  0  0
  5 12  1  0  0  0  0
  2 13  1  0  0  0  0
 13 14  1  0  0  0  0
 14 15  1  0  0  0  0
 15 16  2  0  0  0  0
 15 17  1  0  0  0  0
 17 18  1  0  0  0  0
 18 19  1  0  0  0  0
 19 20  1  0  0  0  0
 19 21  1  0  0  0  0
 13 22  1  0  0  0  0
 22 23  1  0  0  0  0
 23 24  1  0  0  0  0
 24 25  2  0  0  0  0
 25 26  1  0  0  0  0
 26 27  1  0  0  0  0
 26 28  2  0  0  0  0
 28 29  1  0  0  0  0
 29 23  2  0  0  0  0
  6 30  1  0  0  0  0
  4 31  1  0  0  0  0
  4 32  1  0  0  0  0
  7 33  1  0  0  0  0
  7 34  1  0  0  0  0
  7 35  1  0  0  0  0
  8 36  1  0  0  0  0
  8 37  1  0  0  0  0
  8 38  1  0  0  0  0
  9 39  1  0  0  0  0
  9 40  1  0  0  0  0
 10 41  1  0  0  0  0
 10 42  1  0  0  0  0
 11 43  1  0  0  0  0
 11 44  1  0  0  0  0
 12 45  1  0  0  0  0
 12 46  1  0  0  0  0
 12 47  1  0  0  0  0
 13 48  1  0  0  0  0
 14 49  1  0  0  0  0
 17 50  1  0  0  0  0
 17 51  1  0  0  0  0
 19 52  1  0  0  0  0
 20 53  1  0  0  0  0
 20 54  1  0  0  0  0
 20 55  1  0  0  0  0
 21 56  1  0  0  0  0
 21 57  1  0  0  0  0
 21 58  1  0  0  0  0
 22 59  1  0  0  0  0
 22 60  1  0  0  0  0
 24 61  1  0  0  0  0
 25 62  1  0  0  0  0
 27 63  1  0  0  0  0
 28 64  1  0  0  0  0
 29 65  1  0  0  0  0
M  CHG  1   6   1
M  END
>  <result-rank>
92

>  <similarity>
0.934

>  <query-name>
LIG_A_1101_C[NH+](C)[C@H]([R*])C1CCC1_2

>  <query-smiles>
O=C(N[C@@H]([NH+](C)C)C1CCC1)[C@@H](NC(=O)C)Cc2ccc(O)cc2

>  <source>
REALspace_2019-12

>  <similarity-descriptor>
0.914;1.000;0.852;0.852;0.914;1.000;1.000;1.000;1.000;1.000;1.000;0.956;1.000;1.000;0.294

>  <similarity-descriptor-smiles>
N1CCCCC1;c1ccccc1;O=C;O=C;N1CCCCC1;[NH+];C;C;C;N;C=O;C;C;O;C.O.C.C.C

>  <reaction-name>
s_22

>  <reagent1-name>
16772622

>  <reagent1-smiles>
[R1*]N1CC(N(C)C)(CCC1)C

>  <reagent2-name>
16887748

>  <reagent2-smiles>
[R1*]C(=O)C(NC(=O)COC(C)C)Cc1ccc(O)cc1

$$$$
s_22____6388670____17513450
          04022015103D 1   1.00000     0.00000     0
            
 52 54  0  0  0  0            999 V2000
   -5.3670    1.4852    0.0749 O   0  0  0  0  0  0  0  0  0  0  0  0
   -4.7082    0.8971    0.9170 C   0  0  0  0  0  0  0  0  0  0  0  0
   -4.8065    1.1046    2.2924 N   0  0  0  0  0  0  0  0  0  0  0  0
   -3.9238    0.2677    2.9712 C   0  0  0  0  0  0  0  0  0  0  0  0
   -3.7985    0.1994    4.1827 O   0  0  0  0  0  0  0  0  0  0  0  0
   -3.1781   -0.5388    1.9151 C   0  0  3  0  0  0  0  0  0  0  0  0
   -3.7485   -0.0760    0.6426 N   0  0  0  0  0  0  0  0  0  0  0  0
   -1.6633   -0.4157    1.9368 C   0  0  3  0  0  0  0  0  0  0  0  0
   -1.1550    1.0000    2.1865 C   0  0  0  0  0  0  0  0  0  0  0  0
    0.3150    1.0000    2.1865 N   0  0  0  0  0  0  0  0  0  0  0  0
    1.0000    1.0000    1.0000 C   0  0  0  0  0  0  0  0  0  0  0  0
    0.4000    1.0000   -0.0392 O   0  0  0  0  0  0  0  0  0  0  0  0
    2.5200    1.0000    1.0000 C   0  0  3  0  0  0  0  0  0  0  0  0
    3.0100    1.0000   -0.3859 N   0  0  0  0  0  0  0  0  0  0  0  0
    3.7976    2.0275   -0.8340 C   0  0  0  0  0  0  0  0  0  0  0  0
    4.0875    2.9275   -0.0951 O   0  0  0  0  0  0  0  0  0  0  0  0
    4.3043    2.0275   -2.2671 C   0  0  0  0  0  0  0  0  0  0  0  0
    3.0267   -0.2411    1.7165 C   0  0  0  0  0  0  0  0  0  0  0  0
    4.5467   -0.2411    1.7165 C   0  0  0  0  0  0  0  0  0  0  0  0
    5.2311    0.3644    2.7653 C   0  0  0  0  0  0  0  0  0  0  0  0
    6.6219    0.3662    2.7699 C   0  0  0  0  0  0  0  0  0  0  0  0
    7.3116   -0.2391    1.7241 C   0  0  0  0  0  0  0  0  0  0  0  0
    8.6614   -0.2393    1.7244 O   0  0  0  0  0  0  0  0  0  0  0  0
    6.6320   -0.8457    0.6727 C   0  0  0  0  0  0  0  0  0  0  0  0
    5.2412   -0.8449    0.6734 C   0  0  0  0  0  0  0  0  0  0  0  0
   -1.2034   -1.3556    3.0330 C   0  0  0  0  0  0  0  0  0  0  0  0
   -2.2785   -2.4215    3.1108 C   0  0  0  0  0  0  0  0  0  0  0  0
   -3.2315   -2.0518    1.9909 C   0  0  0  0  0  0  0  0  0  0  0  0
   -5.4226    1.7602    2.7289 H   0  0  0  0  0  0  0  0  0  0  0  0
   -3.4917   -0.4037   -0.2666 H   0  0  0  0  0  0  0  0  0  0  0  0
   -1.3011   -0.7387    1.0624 H   0  0  0  0  0  0  0  0  0  0  0  0
   -1.4883    1.6060    1.4642 H   0  0  0  0  0  0  0  0  0  0  0  0
   -1.4883    1.3225    3.0724 H   0  0  0  0  0  0  0  0  0  0  0  0
    0.8150    1.0000    3.0525 H   0  0  0  0  0  0  0  0  0  0  0  0
    2.8533    1.8165    1.4714 H   0  0  0  0  0  0  0  0  0  0  0  0
    2.7684    0.2500   -1.0017 H   0  0  0  0  0  0  0  0  0  0  0  0
    3.9710    1.2110   -2.7385 H   0  0  0  0  0  0  0  0  0  0  0  0
    3.9710    2.8440   -2.7385 H   0  0  0  0  0  0  0  0  0  0  0  0
    5.3043    2.0275   -2.2671 H   0  0  0  0  0  0  0  0  0  0  0  0
    2.6933   -0.2411    2.6593 H   0  0  0  0  0  0  0  0  0  0  0  0
    2.6933   -1.0576    1.2451 H   0  0  0  0  0  0  0  0  0  0  0  0
    4.7256    0.7963    3.5122 H   0  0  0  0  0  0  0  0  0  0  0  0
    7.1226    0.7993    3.5194 H   0  0  0  0  0  0  0  0  0  0  0  0
    9.1615   -0.6731    0.9749 H   0  0  0  0  0  0  0  0  0  0  0  0
    7.1374   -1.2771   -0.0746 H   0  0  0  0  0  0  0  0  0  0  0  0
    4.7405   -1.2783   -0.0759 H   0  0  0  0  0  0  0  0  0  0  0  0
   -1.1264   -0.8696    3.9036 H   0  0  0  0  0  0  0  0  0  0  0  0
   -0.3205   -1.7630    2.7995 H   0  0  0  0  0  0  0  0  0  0  0  0
   -1.8903   -3.3312    2.9632 H   0  0  0  0  0  0  0  0  0  0  0  0
   -2.7420   -2.3966    3.9965 H   0  0  0  0  0  0  0  0  0  0  0  0
   -2.9334   -2.4578    1.1270 H   0  0  0  0  0  0  0  0  0  0  0  0
   -4.1589   -2.3607    2.2019 H   0  0  0  0  0  0  0  0  0  0  0  0
  1  2  2  0  0  0  0
  2  3  1  0  0  0  0
  3  4  1  0  0  0  0
  4  5  2  0  0  0  0
  4  6  1  0  0  0  0
  6  7  1  0  0  0  0
  7  2  1  0  0  0  0
  6  8  1  0  0  0  0
  8  9  1  0  0  0  0
  9 10  1  0  0  0  0
 10 11  1  0  0  0  0
 11 12  2  0  0  0  0
 11 13  1  0  0  0  0
 13 14  1  0  0  0  0
 14 15  1  0  0  0  0
 15 16  2  0  0  0  0
 15 17  1  0  0  0  0
 13 18  1  0  0  0  0
 18 19  1  0  0  0  0
 19 20  1  0  0  0  0
 20 21  2  0  0  0  0
 21 22  1  0  0  0  0
 22 23  1  0  0  0  0
 22 24  2  0  0  0  0
 24 25  1  0  0  0  0
 25 19  2  0  0  0  0
  8 26  1  0  0  0  0
 26 27  1  0  0  0  0
 27 28  1  0  0  0  0
 28  6  1  0  0  0  0
  3 29  1  0  0  0  0
  7 30  1  0  0  0  0
  8 31  1  0  0  0  0
  9 32  1  0  0  0  0
  9 33  1  0  0  0  0
 10 34  1  0  0  0  0
 13 35  1  0  0  0  0
 14 36  1  0  0  0  0
 17 37  1  0  0  0  0
 17 38  1  0  0  0  0
 17 39  1  0  0  0  0
 18 40  1  0  0  0  0
 18 41  1  0  0  0  0
 20 42  1  0  0  0  0
 21 43  1  0  0  0  0
 23 44  1  0  0  0  0
 24 45  1  0  0  0  0
 25 46  1  0  0  0  0
 26 47  1  0  0  0  0
 26 48  1  0  0  0  0
 27 49  1  0  0  0  0
 27 50  1  0  0  0  0
 28 51  1  0  0  0  0
 28 52  1  0  0  0  0
M  END
>  <result-rank>
93

>  <similarity>
0.933

>  <query-name>
LIG_A_1101_C[NH+](C)[C@H]([R*])C1CCC1_2

>  <query-smiles>
O=C(N[C@@H]([NH+](C)C)C1CCC1)[C@@H](NC(=O)C)Cc2ccc(O)cc2

>  <source>
REALspace_2019-12

>  <similarity-descriptor>
0.994;1.000;1.000;1.000;0.942;0.0;0.0;0.0;1.000;1.000;1.000;1.000;1.000;1.000;0.083

>  <similarity-descriptor-smiles>
C1CCCC1;c1ccccc1;C=O;N;C;;;;C;N;C=O;C;C;O;O=C1NCC(N1)=O

>  <reaction-name>
s_22

>  <reagent1-name>
6388670

>  <reagent1-smiles>
[R1*]NCC1C2(NC(=O)NC2=O)CCC1

>  <reagent2-name>
17513450

>  <reagent2-smiles>
[R1*]C(=O)C(NC(=O)C)Cc1ccc(O)cc1

$$$$
s_188690b____14422158____17513482
          04022015103D 1   1.00000     0.00000     0
            
 50 50  0  0  0  0            999 V2000
   -2.5741    3.7981   -0.4114 O   0  5  0  0  0  0  0  0  0  0  0  0
   -1.3857    3.6070   -0.2871 C   0  0  0  0  0  0  0  0  0  0  0  0
   -0.5856    4.5625   -0.3838 O   0  0  0  0  0  0  0  0  0  0  0  0
   -0.8659    2.2052   -0.0133 C   0  0  0  0  0  0  0  0  0  0  0  0
    0.2650    2.2731    1.0000 C   0  0  3  0  0  0  0  0  0  0  0  0
    1.0000    1.0000    1.0000 N   0  0  0  0  0  0  0  0  0  0  0  0
    2.3700    1.0000    1.0000 C   0  0  0  0  0  0  0  0  0  0  0  0
    2.9700    2.0392    1.0000 O   0  0  0  0  0  0  0  0  0  0  0  0
    3.1300   -0.3164    1.0000 C   0  0  3  0  0  0  0  0  0  0  0  0
    4.5752   -0.0477    1.0000 N   0  0  0  0  0  0  0  0  0  0  0  0
    5.3571   -0.5058    2.0275 C   0  0  0  0  0  0  0  0  0  0  0  0
    4.8622   -1.1263    2.9275 O   0  0  0  0  0  0  0  0  0  0  0  0
    6.8515   -0.2281    2.0275 C   0  0  0  0  0  0  0  0  0  0  0  0
    2.7628   -1.1134   -0.2411 C   0  0  0  0  0  0  0  0  0  0  0  0
    3.5228   -2.4298   -0.2411 C   0  0  0  0  0  0  0  0  0  0  0  0
    2.9568   -3.5469    0.3644 C   0  0  0  0  0  0  0  0  0  0  0  0
    3.6482   -4.7537    0.3662 C   0  0  0  0  0  0  0  0  0  0  0  0
    4.8987   -4.8280   -0.2391 C   0  0  0  0  0  0  0  0  0  0  0  0
    5.5734   -5.9972   -0.2393 O   0  0  0  0  0  0  0  0  0  0  0  0
    5.4695   -3.7138   -0.8457 C   0  0  0  0  0  0  0  0  0  0  0  0
    4.7735   -2.5097   -0.8449 C   0  0  0  0  0  0  0  0  0  0  0  0
   -0.3095    2.5264    2.3842 C   0  0  0  0  0  0  0  0  0  0  0  0
    0.7617    3.1362    3.2736 C   0  0  0  0  0  0  0  0  0  0  0  0
    1.2320    4.4505    2.6719 C   0  0  0  0  0  0  0  0  0  0  0  0
    0.1871    3.3896    4.6579 C   0  0  0  0  0  0  0  0  0  0  0  0
   -0.5275    1.8031   -0.8641 H   0  0  0  0  0  0  0  0  0  0  0  0
   -1.6064    1.6403    0.3509 H   0  0  0  0  0  0  0  0  0  0  0  0
    0.8870    3.0171    0.7560 H   0  0  0  0  0  0  0  0  0  0  0  0
    0.5000    0.1340    1.0000 H   0  0  0  0  0  0  0  0  0  0  0  0
    2.8884   -0.8407    1.8165 H   0  0  0  0  0  0  0  0  0  0  0  0
    4.9877    0.4693    0.2500 H   0  0  0  0  0  0  0  0  0  0  0  0
    7.0931    0.2963    1.2110 H   0  0  0  0  0  0  0  0  0  0  0  0
    7.0931    0.2963    2.8440 H   0  0  0  0  0  0  0  0  0  0  0  0
    7.3515   -1.0941    2.0275 H   0  0  0  0  0  0  0  0  0  0  0  0
    1.7796   -1.2961   -0.2411 H   0  0  0  0  0  0  0  0  0  0  0  0
    3.0044   -0.5890   -1.0576 H   0  0  0  0  0  0  0  0  0  0  0  0
    2.0571   -3.4826    0.7963 H   0  0  0  0  0  0  0  0  0  0  0  0
    3.2494   -5.5620    0.7993 H   0  0  0  0  0  0  0  0  0  0  0  0
    6.4725   -6.0555   -0.6731 H   0  0  0  0  0  0  0  0  0  0  0  0
    6.3694   -3.7778   -1.2771 H   0  0  0  0  0  0  0  0  0  0  0  0
    5.1720   -1.7014   -1.2783 H   0  0  0  0  0  0  0  0  0  0  0  0
   -0.6189    1.6618    2.7801 H   0  0  0  0  0  0  0  0  0  0  0  0
   -1.0829    3.1565    2.3140 H   0  0  0  0  0  0  0  0  0  0  0  0
    1.5350    2.5062    3.3439 H   0  0  0  0  0  0  0  0  0  0  0  0
    1.9367    4.8517    3.2570 H   0  0  0  0  0  0  0  0  0  0  0  0
    1.6099    4.2838    1.7612 H   0  0  0  0  0  0  0  0  0  0  0  0
    0.4586    5.0806    2.6017 H   0  0  0  0  0  0  0  0  0  0  0  0
    0.8919    3.7908    5.2430 H   0  0  0  0  0  0  0  0  0  0  0  0
   -0.5862    4.0197    4.5876 H   0  0  0  0  0  0  0  0  0  0  0  0
   -0.1223    2.5249    5.0537 H   0  0  0  0  0  0  0  0  0  0  0  0
  1  2  1  0  0  0  0
  2  3  2  0  0  0  0
  2  4  1  0  0  0  0
  4  5  1  0  0  0  0
  5  6  1  0  0  0  0
  6  7  1  0  0  0  0
  7  8  2  0  0  0  0
  7  9  1  0  0  0  0
  9 10  1  0  0  0  0
 10 11  1  0  0  0  0
 11 12  2  0  0  0  0
 11 13  1  0  0  0  0
  9 14  1  0  0  0  0
 14 15  1  0  0  0  0
 15 16  1  0  0  0  0
 16 17  2  0  0  0  0
 17 18  1  0  0  0  0
 18 19  1  0  0  0  0
 18 20  2  0  0  0  0
 20 21  1  0  0  0  0
 21 15  2  0  0  0  0
  5 22  1  0  0  0  0
 22 23  1  0  0  0  0
 23 24  1  0  0  0  0
 23 25  1  0  0  0  0
  4 26  1  0  0  0  0
  4 27  1  0  0  0  0
  5 28  1  0  0  0  0
  6 29  1  0  0  0  0
  9 30  1  0  0  0  0
 10 31  1  0  0  0  0
 13 32  1  0  0  0  0
 13 33  1  0  0  0  0
 13 34  1  0  0  0  0
 14 35  1  0  0  0  0
 14 36  1  0  0  0  0
 16 37  1  0  0  0  0
 17 38  1  0  0  0  0
 19 39  1  0  0  0  0
 20 40  1  0  0  0  0
 21 41  1  0  0  0  0
 22 42  1  0  0  0  0
 22 43  1  0  0  0  0
 23 44  1  0  0  0  0
 24 45  1  0  0  0  0
 24 46  1  0  0  0  0
 24 47  1  0  0  0  0
 25 48  1  0  0  0  0
 25 49  1  0  0  0  0
 25 50  1  0  0  0  0
M  CHG  1   1  -1
M  END
>  <result-rank>
94

>  <similarity>
0.933

>  <query-name>
LIG_A_1101_C[NH+](C)[C@H]([R*])C1CCC1_2

>  <query-smiles>
O=C(N[C@@H]([NH+](C)C)C1CCC1)[C@@H](NC(=O)C)Cc2ccc(O)cc2

>  <source>
REALspace_2019-12

>  <similarity-descriptor>
0.880;1.000;0.852;0.852;0.984;0.984;0.0;0.944;1.000;1.000;1.000;1.000;1.000;1.000;0.063

>  <similarity-descriptor-smiles>
CC(C)C;c1ccccc1;C=O;C=O;CN;CN;;C;C;N;C=O;C;C;O;[O-]C=O

>  <reaction-name>
s_188690b

>  <reagent1-name>
14422158

>  <reagent1-smiles>
[R1*]NC(CC(=O)O)CC(C)C

>  <reagent2-name>
17513482

>  <reagent2-smiles>
[R1*]C(=O)C(NC(=O)C)Cc1ccc(O)cc1

$$$$
s_22____16911156____13259654
          04022015103D 1   1.00000     0.00000     0
            
 55 57  0  0  0  0            999 V2000
    0.1004   -4.7992    4.5837 Br  0  0  0  0  0  0  0  0  0  0  0  0
    0.1499   -2.9796    3.8571 C   0  0  0  0  0  0  0  0  0  0  0  0
   -0.8631   -2.5496    3.0062 C   0  0  0  0  0  0  0  0  0  0  0  0
   -0.8226   -1.2571    2.4937 C   0  0  0  0  0  0  0  0  0  0  0  0
    0.2272   -0.4112    2.8362 C   0  0  0  0  0  0  0  0  0  0  0  0
    1.2371   -0.8477    3.6879 C   0  0  0  0  0  0  0  0  0  0  0  0
    1.2032   -2.1391    4.2041 C   0  0  0  0  0  0  0  0  0  0  0  0
    0.2650    1.0000    2.2731 C   0  0  0  0  0  0  0  0  0  0  0  0
    1.0000    1.0000    1.0000 N   0  0  0  0  0  0  0  0  0  0  0  0
    0.3150    1.0000   -0.1865 C   0  0  0  0  0  0  0  0  0  0  0  0
   -0.8307    1.3554   -0.2178 O   0  0  0  0  0  0  0  0  0  0  0  0
    1.0035    0.5516   -1.4580 C   0  0  3  0  0  0  0  0  0  0  0  0
    1.2818   -0.8894   -1.4964 N   0  3  3  0  0  0  0  0  0  0  0  0
    2.2400   -1.1955   -2.5717 C   0  0  0  0  0  0  0  0  0  0  0  0
    1.7579   -0.4524   -3.8008 C   0  0  3  0  0  0  0  0  0  0  0  0
    0.3225   -0.1488   -3.6646 N   0  3  3  0  0  0  0  0  0  0  0  0
    0.1598    0.9176   -2.6707 C   0  0  0  0  0  0  0  0  0  0  0  0
   -0.3890   -1.3568   -3.2168 C   0  0  0  0  0  0  0  0  0  0  0  0
    0.1277   -1.7394   -1.8412 C   0  0  0  0  0  0  0  0  0  0  0  0
    2.0552   -1.2582   -5.0554 C   0  0  0  0  0  0  0  0  0  0  0  0
    2.4700    1.0000    1.0000 C   0  0  0  0  0  0  0  0  0  0  0  0
    2.9767    2.4246    0.8440 C   0  0  0  0  0  0  0  0  0  0  0  0
    2.1969    3.3312    0.7447 O   0  0  0  0  0  0  0  0  0  0  0  0
    4.3236    2.6734    0.8167 N   0  0  0  0  0  0  0  0  0  0  0  0
    4.8136    4.0511    0.6659 C   0  0  0  0  0  0  0  0  0  0  0  0
    5.2789    1.5627    0.9384 C   0  0  0  0  0  0  0  0  0  0  0  0
    1.6609   -1.1803   -0.6179 H   0  0  0  0  0  0  0  0  0  0  0  0
   -0.0440    0.1518   -4.5452 H   0  0  0  0  0  0  0  0  0  0  0  0
   -1.6141   -3.1644    2.7651 H   0  0  0  0  0  0  0  0  0  0  0  0
   -1.5454   -0.9372    1.8812 H   0  0  0  0  0  0  0  0  0  0  0  0
    1.9879   -0.2328    3.9290 H   0  0  0  0  0  0  0  0  0  0  0  0
    1.9261   -2.4590    4.8165 H   0  0  0  0  0  0  0  0  0  0  0  0
   -0.6689    1.3225    2.1188 H   0  0  0  0  0  0  0  0  0  0  0  0
    0.7238    1.6060    2.9228 H   0  0  0  0  0  0  0  0  0  0  0  0
    1.8745    1.0380   -1.5276 H   0  0  0  0  0  0  0  0  0  0  0  0
    2.2587   -2.1797   -2.7481 H   0  0  0  0  0  0  0  0  0  0  0  0
    3.1558   -0.8850   -2.3172 H   0  0  0  0  0  0  0  0  0  0  0  0
    2.2565    0.4125   -3.8590 H   0  0  0  0  0  0  0  0  0  0  0  0
   -0.8017    0.9933   -2.4064 H   0  0  0  0  0  0  0  0  0  0  0  0
    0.4704    1.7885   -3.0515 H   0  0  0  0  0  0  0  0  0  0  0  0
   -0.2219   -2.1043   -3.8596 H   0  0  0  0  0  0  0  0  0  0  0  0
   -1.3705   -1.1717   -3.1687 H   0  0  0  0  0  0  0  0  0  0  0  0
   -0.5968   -1.6084   -1.1645 H   0  0  0  0  0  0  0  0  0  0  0  0
    0.4099   -2.6988   -1.8460 H   0  0  0  0  0  0  0  0  0  0  0  0
    3.0368   -1.4418   -5.1088 H   0  0  0  0  0  0  0  0  0  0  0  0
    1.5556   -2.1238   -5.0218 H   0  0  0  0  0  0  0  0  0  0  0  0
    1.7689   -0.7391   -5.8606 H   0  0  0  0  0  0  0  0  0  0  0  0
    2.8033    0.4425    0.2397 H   0  0  0  0  0  0  0  0  0  0  0  0
    2.8033    0.6203    1.8630 H   0  0  0  0  0  0  0  0  0  0  0  0
    5.8136    4.0511    0.6659 H   0  0  0  0  0  0  0  0  0  0  0  0
    4.4803    4.4308   -0.1971 H   0  0  0  0  0  0  0  0  0  0  0  0
    4.4803    4.6086    1.4262 H   0  0  0  0  0  0  0  0  0  0  0  0
    6.2121    1.9199    0.8993 H   0  0  0  0  0  0  0  0  0  0  0  0
    5.1372    1.0953    1.8109 H   0  0  0  0  0  0  0  0  0  0  0  0
    5.1372    0.9175    0.1877 H   0  0  0  0  0  0  0  0  0  0  0  0
  1  2  1  0  0  0  0
  2  3  1  0  0  0  0
  3  4  2  0  0  0  0
  4  5  1  0  0  0  0
  5  6  2  0  0  0  0
  6  7  1  0  0  0  0
  7  2  2  0  0  0  0
  5  8  1  0  0  0  0
  8  9  1  0  0  0  0
  9 10  1  0  0  0  0
 10 11  2  0  0  0  0
 10 12  1  0  0  0  0
 12 13  1  0  0  0  0
 13 14  1  0  0  0  0
 14 15  1  0  0  0  0
 15 16  1  0  0  0  0
 16 17  1  0  0  0  0
 17 12  1  0  0  0  0
 16 18  1  0  0  0  0
 18 19  1  0  0  0  0
 19 13  1  0  0  0  0
 15 20  1  0  0  0  0
  9 21  1  0  0  0  0
 21 22  1  0  0  0  0
 22 23  2  0  0  0  0
 22 24  1  0  0  0  0
 24 25  1  0  0  0  0
 24 26  1  0  0  0  0
 13 27  1  0  0  0  0
 16 28  1  0  0  0  0
  3 29  1  0  0  0  0
  4 30  1  0  0  0  0
  6 31  1  0  0  0  0
  7 32  1  0  0  0  0
  8 33  1  0  0  0  0
  8 34  1  0  0  0  0
 12 35  1  0  0  0  0
 14 36  1  0  0  0  0
 14 37  1  0  0  0  0
 15 38  1  0  0  0  0
 17 39  1  0  0  0  0
 17 40  1  0  0  0  0
 18 41  1  0  0  0  0
 18 42  1  0  0  0  0
 19 43  1  0  0  0  0
 19 44  1  0  0  0  0
 20 45  1  0  0  0  0
 20 46  1  0  0  0  0
 20 47  1  0  0  0  0
 21 48  1  0  0  0  0
 21 49  1  0  0  0  0
 25 50  1  0  0  0  0
 25 51  1  0  0  0  0
 25 52  1  0  0  0  0
 26 53  1  0  0  0  0
 26 54  1  0  0  0  0
 26 55  1  0  0  0  0
M  CHG  2  13   1  16   1
M  END
>  <result-rank>
95

>  <similarity>
0.933

>  <query-name>
LIG_A_1101_C[NH+](C)[C@H]([R*])C1CCC1_2

>  <query-smiles>
O=C(N[C@@H]([NH+](C)C)C1CCC1)[C@@H](NC(=O)C)Cc2ccc(O)cc2

>  <source>
REALspace_2019-12

>  <similarity-descriptor>
0.932;0.962;1.000;0.932;0.932;0.932;0.932;0.995;0.953;0.852;0.852;0.977;0.953;0.0;0.091

>  <similarity-descriptor-smiles>
C1C[NH+]2CC[NH+]1CC2;Brc1ccccc1;C=O;C1C[NH+]2CC[NH+]1CC2;C1C[NH+]2CC[NH+]1CC2;C1C[NH+]2CC[NH+]1CC2;C1C[NH+]2CC[NH+]1CC2;C;CNC;C=O;C=O;NC;CNC;;C

>  <reaction-name>
s_22

>  <reagent1-name>
16911156

>  <reagent1-smiles>
[R1*]N(Cc1ccc(Br)cc1)CC(=O)N(C)C

>  <reagent2-name>
13259654

>  <reagent2-smiles>
[R1*]C(=O)C1N2CC(N(C1)CC2)C

$$$$
s_2708____5730620____9286230
          04022015103D 1   1.00000     0.00000     0
            
 47 48  0  0  0  0            999 V2000
    5.2353   -1.2684   -4.4628 Br  0  0  0  0  0  0  0  0  0  0  0  0
    4.2275   -1.1704   -2.7856 C   0  0  0  0  0  0  0  0  0  0  0  0
    4.7090   -0.3243   -1.3939 S   0  0  0  0  0  0  0  0  0  0  0  0
    3.3584   -0.7120   -0.4334 C   0  0  0  0  0  0  0  0  0  0  0  0
    2.5488   -1.4894   -1.2016 C   0  0  0  0  0  0  0  0  0  0  0  0
    3.0281   -1.7509   -2.5123 C   0  0  0  0  0  0  0  0  0  0  0  0
    3.1050   -0.2731    1.0000 C   0  0  0  0  0  0  0  0  0  0  0  0
    2.3700    1.0000    1.0000 N   0  0  0  0  0  0  0  0  0  0  0  0
    1.0000    1.0000    1.0000 C   0  0  0  0  0  0  0  0  0  0  0  0
    0.4000   -0.0392    1.0000 O   0  0  0  0  0  0  0  0  0  0  0  0
    0.3150    2.1865    1.0000 N   0  0  0  0  0  0  0  0  0  0  0  0
   -1.1575    2.1865    1.0000 C   0  0  3  0  0  0  0  0  0  0  0  0
   -1.6732    2.9014    2.2383 C   0  0  0  0  0  0  0  0  0  0  0  0
   -3.1931    2.9185    2.2184 C   0  0  3  0  0  0  0  0  0  0  0  0
   -3.6882    3.5758    0.9989 N   0  3  3  0  0  0  0  0  0  0  0  0
   -3.1940    2.9166   -0.2190 C   0  0  0  0  0  0  0  0  0  0  0  0
   -1.6738    2.9029   -0.2376 C   0  0  0  0  0  0  0  0  0  0  0  0
   -5.1578    3.5632    0.9541 C   0  0  0  0  0  0  0  0  0  0  0  0
   -3.6740    3.6408    3.4667 C   0  0  0  0  0  0  0  0  0  0  0  0
    3.1050    2.2731    1.0000 C   0  0  0  0  0  0  0  0  0  0  0  0
    3.3583    2.7118    2.4331 C   0  0  0  0  0  0  0  0  0  0  0  0
    4.0683    3.9416    2.4331 O   0  0  0  0  0  0  0  0  0  0  0  0
   -3.3759    4.5258    0.9980 H   0  0  0  0  0  0  0  0  0  0  0  0
    1.6784   -1.8509   -0.8673 H   0  0  0  0  0  0  0  0  0  0  0  0
    2.5294   -2.3108   -3.1741 H   0  0  0  0  0  0  0  0  0  0  0  0
    2.5646   -0.9700    1.4714 H   0  0  0  0  0  0  0  0  0  0  0  0
    3.9788   -0.1535    1.4714 H   0  0  0  0  0  0  0  0  0  0  0  0
    0.8150    3.0525    1.0000 H   0  0  0  0  0  0  0  0  0  0  0  0
   -1.4892    1.2430    0.9996 H   0  0  0  0  0  0  0  0  0  0  0  0
   -1.3560    2.4216    3.0564 H   0  0  0  0  0  0  0  0  0  0  0  0
   -1.3295    3.8404    2.2483 H   0  0  0  0  0  0  0  0  0  0  0  0
   -3.5287    1.9767    2.2386 H   0  0  0  0  0  0  0  0  0  0  0  0
   -3.5285    3.4124   -1.0204 H   0  0  0  0  0  0  0  0  0  0  0  0
   -3.5319    1.9757   -0.2442 H   0  0  0  0  0  0  0  0  0  0  0  0
   -1.3548    2.4255   -1.0563 H   0  0  0  0  0  0  0  0  0  0  0  0
   -1.3322    3.8427   -0.2454 H   0  0  0  0  0  0  0  0  0  0  0  0
   -5.4696    4.0145    0.1180 H   0  0  0  0  0  0  0  0  0  0  0  0
   -5.4835    2.6178    0.9639 H   0  0  0  0  0  0  0  0  0  0  0  0
   -5.5197    4.0487    1.7499 H   0  0  0  0  0  0  0  0  0  0  0  0
   -3.3232    3.1733    4.2782 H   0  0  0  0  0  0  0  0  0  0  0  0
   -3.3412    4.5837    3.4553 H   0  0  0  0  0  0  0  0  0  0  0  0
   -4.6737    3.6403    3.4878 H   0  0  0  0  0  0  0  0  0  0  0  0
    2.5646    2.9700    0.5286 H   0  0  0  0  0  0  0  0  0  0  0  0
    3.9788    2.1535    0.5286 H   0  0  0  0  0  0  0  0  0  0  0  0
    2.4846    2.8314    2.9045 H   0  0  0  0  0  0  0  0  0  0  0  0
    3.8988    2.0149    2.9045 H   0  0  0  0  0  0  0  0  0  0  0  0
    4.2350    4.2303    3.3759 H   0  0  0  0  0  0  0  0  0  0  0  0
  1  2  1  0  0  0  0
  2  3  1  0  0  0  0
  3  4  1  0  0  0  0
  4  5  2  0  0  0  0
  5  6  1  0  0  0  0
  2  6  2  0  0  0  0
  4  7  1  0  0  0  0
  7  8  1  0  0  0  0
  8  9  1  0  0  0  0
  9 10  2  0  0  0  0
  9 11  1  0  0  0  0
 11 12  1  0  0  0  0
 12 13  1  0  0  0  0
 13 14  1  0  0  0  0
 14 15  1  0  0  0  0
 15 16  1  0  0  0  0
 16 17  1  0  0  0  0
 17 12  1  0  0  0  0
 15 18  1  0  0  0  0
 14 19  1  0  0  0  0
  8 20  1  0  0  0  0
 20 21  1  0  0  0  0
 21 22  1  0  0  0  0
 15 23  1  0  0  0  0
  5 24  1  0  0  0  0
  6 25  1  0  0  0  0
  7 26  1  0  0  0  0
  7 27  1  0  0  0  0
 11 28  1  0  0  0  0
 12 29  1  0  0  0  0
 13 30  1  0  0  0  0
 13 31  1  0  0  0  0
 14 32  1  0  0  0  0
 16 33  1  0  0  0  0
 16 34  1  0  0  0  0
 17 35  1  0  0  0  0
 17 36  1  0  0  0  0
 18 37  1  0  0  0  0
 18 38  1  0  0  0  0
 18 39  1  0  0  0  0
 19 40  1  0  0  0  0
 19 41  1  0  0  0  0
 19 42  1  0  0  0  0
 20 43  1  0  0  0  0
 20 44  1  0  0  0  0
 21 45  1  0  0  0  0
 21 46  1  0  0  0  0
 22 47  1  0  0  0  0
M  CHG  1  15   1
M  END
>  <result-rank>
96

>  <similarity>
0.933

>  <query-name>
LIG_A_1101_C[NH+](C)[C@H]([R*])C1CCC1_2

>  <query-smiles>
O=C(N[C@@H]([NH+](C)C)C1CCC1)[C@@H](NC(=O)C)Cc2ccc(O)cc2

>  <source>
REALspace_2019-12

>  <similarity-descriptor>
0.999;0.883;0.995;1.000;0.999;0.999;1.000;0.995;0.953;0.828;0.828;0.828;0.953;0.0;0.0

>  <similarity-descriptor-smiles>
C1CC[NH+]CC1;BrC1=CC=CS1;C=O;N;C1CC[NH+]CC1;C1CC[NH+]CC1;C;C;CNC;CO;CO;CO;CNC;;

>  <reaction-name>
s_2708

>  <reagent1-name>
5730620

>  <reagent1-smiles>
[R1*]C(=O)NC1CC(N(CC1)C)C

>  <reagent2-name>
9286230

>  <reagent2-smiles>
[R1*]N(CC=1SC(Br)=CC1)CCO

$$$$
s_22____392562____17513450
          04022015103D 1   1.00000     0.00000     0
            
 53 55  0  0  0  0            999 V2000
    0.4000    1.0000   -0.0392 O   0  0  0  0  0  0  0  0  0  0  0  0
    1.0000    1.0000    1.0000 C   0  0  0  0  0  0  0  0  0  0  0  0
    0.3150    1.0000    2.1865 N   0  0  0  0  0  0  0  0  0  0  0  0
   -1.1550    1.0000    2.1865 C   0  0  3  0  0  0  0  0  0  0  0  0
   -1.6610   -0.2395    2.9021 C   0  0  3  0  0  0  0  0  0  0  0  0
   -3.1767   -0.3473    2.9643 C   0  0  3  0  0  0  0  0  0  0  0  0
   -3.4180   -1.8175    3.1639 C   0  0  0  0  0  0  0  0  0  0  0  0
   -2.6421   -2.1871    1.9337 C   0  0  3  0  0  0  0  0  0  0  0  0
   -1.2957   -1.5463    2.2243 C   0  0  0  0  0  0  0  0  0  0  0  0
   -3.4261   -1.4286    0.8859 C   0  0  0  0  0  0  0  0  0  0  0  0
   -3.7497   -0.1247    1.5794 C   0  0  0  0  0  0  0  0  0  0  0  0
   -1.6617    2.2411    2.9030 C   0  0  0  0  0  0  0  0  0  0  0  0
    2.5200    1.0000    1.0000 C   0  0  3  0  0  0  0  0  0  0  0  0
    3.0100    1.0000   -0.3859 N   0  0  0  0  0  0  0  0  0  0  0  0
    3.7976    2.0275   -0.8340 C   0  0  0  0  0  0  0  0  0  0  0  0
    4.0875    2.9275   -0.0951 O   0  0  0  0  0  0  0  0  0  0  0  0
    4.3043    2.0275   -2.2671 C   0  0  0  0  0  0  0  0  0  0  0  0
    3.0267   -0.2411    1.7165 C   0  0  0  0  0  0  0  0  0  0  0  0
    4.5467   -0.2411    1.7165 C   0  0  0  0  0  0  0  0  0  0  0  0
    5.2311    0.3644    2.7653 C   0  0  0  0  0  0  0  0  0  0  0  0
    6.6219    0.3662    2.7699 C   0  0  0  0  0  0  0  0  0  0  0  0
    7.3116   -0.2391    1.7241 C   0  0  0  0  0  0  0  0  0  0  0  0
    8.6614   -0.2393    1.7244 O   0  0  0  0  0  0  0  0  0  0  0  0
    6.6320   -0.8457    0.6727 C   0  0  0  0  0  0  0  0  0  0  0  0
    5.2412   -0.8449    0.6734 C   0  0  0  0  0  0  0  0  0  0  0  0
    0.8150    1.0000    3.0525 H   0  0  0  0  0  0  0  0  0  0  0  0
   -1.4883    1.0000    1.2436 H   0  0  0  0  0  0  0  0  0  0  0  0
   -1.2978   -0.2458    3.8338 H   0  0  0  0  0  0  0  0  0  0  0  0
   -3.5924    0.2279    3.6689 H   0  0  0  0  0  0  0  0  0  0  0  0
   -4.3838   -2.0724    3.1170 H   0  0  0  0  0  0  0  0  0  0  0  0
   -3.0194   -2.1753    4.0084 H   0  0  0  0  0  0  0  0  0  0  0  0
   -2.5934   -3.1720    1.7675 H   0  0  0  0  0  0  0  0  0  0  0  0
   -0.7495   -2.1231    2.8318 H   0  0  0  0  0  0  0  0  0  0  0  0
   -0.7893   -1.3802    1.3781 H   0  0  0  0  0  0  0  0  0  0  0  0
   -4.2607   -1.9196    0.6364 H   0  0  0  0  0  0  0  0  0  0  0  0
   -2.8737   -1.2725    0.0670 H   0  0  0  0  0  0  0  0  0  0  0  0
   -3.3072    0.6477    1.1238 H   0  0  0  0  0  0  0  0  0  0  0  0
   -4.7369    0.0309    1.6162 H   0  0  0  0  0  0  0  0  0  0  0  0
   -2.6617    2.2411    2.9030 H   0  0  0  0  0  0  0  0  0  0  0  0
   -1.3283    2.2411    3.8458 H   0  0  0  0  0  0  0  0  0  0  0  0
   -1.3283    3.0576    2.4316 H   0  0  0  0  0  0  0  0  0  0  0  0
    2.8533    1.8165    1.4714 H   0  0  0  0  0  0  0  0  0  0  0  0
    2.7684    0.2500   -1.0017 H   0  0  0  0  0  0  0  0  0  0  0  0
    3.9710    1.2110   -2.7385 H   0  0  0  0  0  0  0  0  0  0  0  0
    3.9710    2.8440   -2.7385 H   0  0  0  0  0  0  0  0  0  0  0  0
    5.3043    2.0275   -2.2671 H   0  0  0  0  0  0  0  0  0  0  0  0
    2.6933   -0.2411    2.6593 H   0  0  0  0  0  0  0  0  0  0  0  0
    2.6933   -1.0576    1.2451 H   0  0  0  0  0  0  0  0  0  0  0  0
    4.7256    0.7963    3.5122 H   0  0  0  0  0  0  0  0  0  0  0  0
    7.1226    0.7993    3.5194 H   0  0  0  0  0  0  0  0  0  0  0  0
    9.1615   -0.6731    0.9749 H   0  0  0  0  0  0  0  0  0  0  0  0
    7.1374   -1.2771   -0.0746 H   0  0  0  0  0  0  0  0  0  0  0  0
    4.7405   -1.2783   -0.0759 H   0  0  0  0  0  0  0  0  0  0  0  0
  1  2  2  0  0  0  0
  2  3  1  0  0  0  0
  3  4  1  0  0  0  0
  4  5  1  0  0  0  0
  5  6  1  0  0  0  0
  6  7  1  0  0  0  0
  7  8  1  0  0  0  0
  8  9  1  0  0  0  0
  9  5  1  0  0  0  0
  8 10  1  0  0  0  0
 10 11  1  0  0  0  0
 11  6  1  0  0  0  0
  4 12  1  0  0  0  0
  2 13  1  0  0  0  0
 13 14  1  0  0  0  0
 14 15  1  0  0  0  0
 15 16  2  0  0  0  0
 15 17  1  0  0  0  0
 13 18  1  0  0  0  0
 18 19  1  0  0  0  0
 19 20  1  0  0  0  0
 20 21  2  0  0  0  0
 21 22  1  0  0  0  0
 22 23  1  0  0  0  0
 22 24  2  0  0  0  0
 24 25  1  0  0  0  0
 25 19  2  0  0  0  0
  3 26  1  0  0  0  0
  4 27  1  0  0  0  0
  5 28  1  0  0  0  0
  6 29  1  0  0  0  0
  7 30  1  0  0  0  0
  7 31  1  0  0  0  0
  8 32  1  0  0  0  0
  9 33  1  0  0  0  0
  9 34  1  0  0  0  0
 10 35  1  0  0  0  0
 10 36  1  0  0  0  0
 11 37  1  0  0  0  0
 11 38  1  0  0  0  0
 12 39  1  0  0  0  0
 12 40  1  0  0  0  0
 12 41  1  0  0  0  0
 13 42  1  0  0  0  0
 14 43  1  0  0  0  0
 17 44  1  0  0  0  0
 17 45  1  0  0  0  0
 17 46  1  0  0  0  0
 18 47  1  0  0  0  0
 18 48  1  0  0  0  0
 20 49  1  0  0  0  0
 21 50  1  0  0  0  0
 23 51  1  0  0  0  0
 24 52  1  0  0  0  0
 25 53  1  0  0  0  0
M  END
>  <result-rank>
97

>  <similarity>
0.933

>  <query-name>
LIG_A_1101_C[NH+](C)[C@H]([R*])C1CCC1_2

>  <query-smiles>
O=C(N[C@@H]([NH+](C)C)C1CCC1)[C@@H](NC(=O)C)Cc2ccc(O)cc2

>  <source>
REALspace_2019-12

>  <similarity-descriptor>
0.880;1.000;0.852;0.852;0.984;0.984;0.0;0.995;1.000;1.000;1.000;1.000;1.000;1.000;0.077

>  <similarity-descriptor-smiles>
C1CCCC1;c1ccccc1;O=C;O=C;NC;NC;;C;C;N;C=O;C;C;O;C1CCCC1

>  <reaction-name>
s_22

>  <reagent1-name>
392562

>  <reagent1-smiles>
[R1*]NC(C1C2CC(C1)CC2)C

>  <reagent2-name>
17513450

>  <reagent2-smiles>
[R1*]C(=O)C(NC(=O)C)Cc1ccc(O)cc1

$$$$
s_272212____13253664____11403114
          04022015103D 1   1.00000     0.00000     0
            
 47 49  0  0  0  0            999 V2000
    5.3728    2.3693    2.4797 O   0  0  0  0  0  0  0  0  0  0  0  0
    4.1549    2.2974    2.4918 C   0  0  0  0  0  0  0  0  0  0  0  0
    3.2885    3.3892    2.5106 N   0  0  0  0  0  0  0  0  0  0  0  0
    1.9694    2.9418    2.5261 C   0  0  0  0  0  0  0  0  0  0  0  0
    0.9721    3.6450    2.5428 O   0  0  0  0  0  0  0  0  0  0  0  0
    1.9913    1.4286    2.5093 C   0  0  0  0  0  0  0  0  0  0  0  0
    3.4184    1.1115    2.4910 N   0  0  0  0  0  0  0  0  0  0  0  0
    3.9846   -0.2481    2.4807 C   0  0  0  0  0  0  0  0  0  0  0  0
    4.1889   -0.7228    3.9106 C   0  0  0  0  0  0  0  0  0  0  0  0
    3.1699   -1.4033    4.5698 C   0  0  0  0  0  0  0  0  0  0  0  0
    1.9933   -1.6499    3.9548 O   0  0  0  0  0  0  0  0  0  0  0  0
    3.3568   -1.8376    5.8784 C   0  0  0  0  0  0  0  0  0  0  0  0
    4.5630   -1.5918    6.5273 C   0  0  0  0  0  0  0  0  0  0  0  0
    5.5818   -0.9119    5.8674 C   0  0  0  0  0  0  0  0  0  0  0  0
    5.3948   -0.4780    4.5590 C   0  0  0  0  0  0  0  0  0  0  0  0
    3.6990    4.8034    2.5210 C   0  0  3  0  0  0  0  0  0  0  0  0
    3.1449    5.5101    1.2947 C   0  0  0  0  0  0  0  0  0  0  0  0
    3.5523    6.9744    1.3256 C   0  0  3  0  0  0  0  0  0  0  0  0
    3.0702    7.6207    2.5560 N   0  3  3  0  0  0  0  0  0  0  0  0
    3.5767    6.9504    3.7627 C   0  0  0  0  0  0  0  0  0  0  0  0
    3.1662    5.4864    3.7704 C   0  0  0  0  0  0  0  0  0  0  0  0
    3.4924    9.0281    2.6111 C   0  0  0  0  0  0  0  0  0  0  0  0
    2.9813    7.6499    0.0891 C   0  0  0  0  0  0  0  0  0  0  0  0
    2.0709    7.5856    2.5658 H   0  0  0  0  0  0  0  0  0  0  0  0
    1.5521    1.0551    3.3263 H   0  0  0  0  0  0  0  0  0  0  0  0
    1.5352    1.0730    1.6935 H   0  0  0  0  0  0  0  0  0  0  0  0
    4.8633   -0.2396    2.0035 H   0  0  0  0  0  0  0  0  0  0  0  0
    3.3559   -0.8674    2.0104 H   0  0  0  0  0  0  0  0  0  0  0  0
    1.2689   -2.1400    4.4396 H   0  0  0  0  0  0  0  0  0  0  0  0
    2.6244   -2.3263    6.3525 H   0  0  0  0  0  0  0  0  0  0  0  0
    4.6974   -1.9038    7.4678 H   0  0  0  0  0  0  0  0  0  0  0  0
    6.4486   -0.7351    6.3338 H   0  0  0  0  0  0  0  0  0  0  0  0
    6.1275    0.0099    4.0846 H   0  0  0  0  0  0  0  0  0  0  0  0
    4.6974    4.8589    2.5129 H   0  0  0  0  0  0  0  0  0  0  0  0
    3.5097    5.0801    0.4690 H   0  0  0  0  0  0  0  0  0  0  0  0
    2.1472    5.4418    1.2932 H   0  0  0  0  0  0  0  0  0  0  0  0
    4.5501    7.0344    1.2968 H   0  0  0  0  0  0  0  0  0  0  0  0
    3.2010    7.4017    4.5721 H   0  0  0  0  0  0  0  0  0  0  0  0
    4.5746    7.0124    3.7794 H   0  0  0  0  0  0  0  0  0  0  0  0
    3.5432    5.0389    4.5813 H   0  0  0  0  0  0  0  0  0  0  0  0
    2.1685    5.4201    3.7867 H   0  0  0  0  0  0  0  0  0  0  0  0
    3.1535    9.4450    3.4545 H   0  0  0  0  0  0  0  0  0  0  0  0
    4.4910    9.0776    2.5926 H   0  0  0  0  0  0  0  0  0  0  0  0
    3.1197    9.5190    1.8235 H   0  0  0  0  0  0  0  0  0  0  0  0
    3.3250    7.1909   -0.7302 H   0  0  0  0  0  0  0  0  0  0  0  0
    1.9831    7.5930    0.1090 H   0  0  0  0  0  0  0  0  0  0  0  0
    3.2602    8.6101    0.0750 H   0  0  0  0  0  0  0  0  0  0  0  0
  1  2  2  0  0  0  0
  2  3  1  0  0  0  0
  3  4  1  0  0  0  0
  4  5  2  0  0  0  0
  4  6  1  0  0  0  0
  6  7  1  0  0  0  0
  7  2  1  0  0  0  0
  7  8  1  0  0  0  0
  8  9  1  0  0  0  0
  9 10  1  0  0  0  0
 10 11  1  0  0  0  0
 10 12  2  0  0  0  0
 12 13  1  0  0  0  0
 13 14  2  0  0  0  0
 14 15  1  0  0  0  0
 15  9  2  0  0  0  0
  3 16  1  0  0  0  0
 16 17  1  0  0  0  0
 17 18  1  0  0  0  0
 18 19  1  0  0  0  0
 19 20  1  0  0  0  0
 20 21  1  0  0  0  0
 21 16  1  0  0  0  0
 19 22  1  0  0  0  0
 18 23  1  0  0  0  0
 19 24  1  0  0  0  0
  6 25  1  0  0  0  0
  6 26  1  0  0  0  0
  8 27  1  0  0  0  0
  8 28  1  0  0  0  0
 11 29  1  0  0  0  0
 12 30  1  0  0  0  0
 13 31  1  0  0  0  0
 14 32  1  0  0  0  0
 15 33  1  0  0  0  0
 16 34  1  0  0  0  0
 17 35  1  0  0  0  0
 17 36  1  0  0  0  0
 18 37  1  0  0  0  0
 20 38  1  0  0  0  0
 20 39  1  0  0  0  0
 21 40  1  0  0  0  0
 21 41  1  0  0  0  0
 22 42  1  0  0  0  0
 22 43  1  0  0  0  0
 22 44  1  0  0  0  0
 23 45  1  0  0  0  0
 23 46  1  0  0  0  0
 23 47  1  0  0  0  0
M  CHG  1  19   1
M  END
>  <result-rank>
98

>  <similarity>
0.933

>  <query-name>
LIG_A_1101_C[NH+](C)[C@H]([R*])C1CCC1_2

>  <query-smiles>
O=C(N[C@@H]([NH+](C)C)C1CCC1)[C@@H](NC(=O)C)Cc2ccc(O)cc2

>  <source>
REALspace_2019-12

>  <similarity-descriptor>
0.999;1.000;0.803;0.803;0.999;0.999;1.000;0.995;0.803;0.803;0.803;0.0;0.993;1.000;0.0

>  <similarity-descriptor-smiles>
C1CC[NH+]CC1;c1ccccc1;O=C1NCC(N1)=O;O=C1NCC(N1)=O;C1CC[NH+]CC1;C1CC[NH+]CC1;C;C;O=C1NCC(N1)=O;O=C1NCC(N1)=O;O=C1NCC(N1)=O;;C;O;

>  <reaction-name>
s_272212

>  <reagent1-name>
13253664

>  <reagent1-smiles>
[R2*]N(C([R1*])=O)C1CC(N(CC1)C)C

>  <reagent2-name>
11403114

>  <reagent2-smiles>
[R1*]N(Cc1c(O)cccc1)CC([R2*])=O

$$$$
s_272212____13250008____12526102
          04022015103D 1   1.00000     0.00000     0
            
 58 60  0  0  0  0            999 V2000
    7.2244    6.5022    4.8588 Cl  0  0  0  0  0  0  0  0  0  0  0  0
    7.3760    4.8036    5.3684 C   0  0  0  0  0  0  0  0  0  0  0  0
    7.0508    4.4405    6.6705 C   0  0  0  0  0  0  0  0  0  0  0  0
    7.1685    3.1140    7.0732 C   0  0  0  0  0  0  0  0  0  0  0  0
    7.6127    2.1642    6.1594 C   0  0  0  0  0  0  0  0  0  0  0  0
    7.9383    2.5269    4.8572 C   0  0  0  0  0  0  0  0  0  0  0  0
    7.8206    3.8537    4.4545 C   0  0  0  0  0  0  0  0  0  0  0  0
    7.7449    0.7134    6.5909 C   0  0  0  0  0  0  0  0  0  0  0  0
    6.4338   -0.0152    6.3299 C   0  0  3  0  0  0  0  0  0  0  0  0
    5.4042    0.6664    7.1141 N   0  0  0  0  0  0  0  0  0  0  0  0
    4.5138    1.2870    6.2378 C   0  0  0  0  0  0  0  0  0  0  0  0
    3.5507    1.9533    6.5762 O   0  0  0  0  0  0  0  0  0  0  0  0
    4.8866    1.0330    4.9186 N   0  0  0  0  0  0  0  0  0  0  0  0
    6.0293    0.2371    4.8959 C   0  0  0  0  0  0  0  0  0  0  0  0
    6.5915   -0.1888    3.9010 O   0  0  0  0  0  0  0  0  0  0  0  0
    4.1731    1.5210    3.7307 C   0  0  3  0  0  0  0  0  0  0  0  0
    4.1423    3.0416    3.7326 C   0  0  0  0  0  0  0  0  0  0  0  0
    3.3836    3.5389    2.5124 C   0  0  0  0  0  0  0  0  0  0  0  0
    2.0132    3.0059    2.4862 N   0  3  3  0  0  0  0  0  0  0  0  0
    1.2711    3.5130    1.3202 C   0  0  0  0  0  0  0  0  0  0  0  0
   -0.1372    2.9412    1.3280 C   0  0  0  0  0  0  0  0  0  0  0  0
   -0.8781    3.4475    0.1637 N   0  3  0  0  0  0  0  0  0  0  0  0
   -2.2401    2.8945    0.1714 C   0  0  0  0  0  0  0  0  0  0  0  0
   -0.9446    4.9147    0.2254 C   0  0  0  0  0  0  0  0  0  0  0  0
    2.0020    1.5354    2.5080 C   0  0  0  0  0  0  0  0  0  0  0  0
    2.7414    1.0098    3.7282 C   0  0  0  0  0  0  0  0  0  0  0  0
    6.5697   -1.4909    6.6593 C   0  0  0  0  0  0  0  0  0  0  0  0
    1.5449    3.3270    3.3094 H   0  0  0  0  0  0  0  0  0  0  0  0
   -0.4104    3.1700   -0.6754 H   0  0  0  0  0  0  0  0  0  0  0  0
    6.7321    5.1329    7.3178 H   0  0  0  0  0  0  0  0  0  0  0  0
    6.9366    2.8467    8.0084 H   0  0  0  0  0  0  0  0  0  0  0  0
    8.2570    1.8344    4.2101 H   0  0  0  0  0  0  0  0  0  0  0  0
    8.0528    4.1211    3.5193 H   0  0  0  0  0  0  0  0  0  0  0  0
    7.9595    0.6741    7.5668 H   0  0  0  0  0  0  0  0  0  0  0  0
    8.4784    0.2764    6.0705 H   0  0  0  0  0  0  0  0  0  0  0  0
    5.3481    0.6844    8.1123 H   0  0  0  0  0  0  0  0  0  0  0  0
    4.6413    1.1999    2.9075 H   0  0  0  0  0  0  0  0  0  0  0  0
    5.0780    3.3934    3.7086 H   0  0  0  0  0  0  0  0  0  0  0  0
    3.6861    3.3640    4.5621 H   0  0  0  0  0  0  0  0  0  0  0  0
    3.3449    4.5378    2.5368 H   0  0  0  0  0  0  0  0  0  0  0  0
    3.8644    3.2440    1.6866 H   0  0  0  0  0  0  0  0  0  0  0  0
    1.7389    3.2354    0.4810 H   0  0  0  0  0  0  0  0  0  0  0  0
    1.2259    4.5110    1.3621 H   0  0  0  0  0  0  0  0  0  0  0  0
   -0.0920    1.9431    1.2861 H   0  0  0  0  0  0  0  0  0  0  0  0
   -0.6049    3.2187    2.1672 H   0  0  0  0  0  0  0  0  0  0  0  0
   -2.7442    3.2390   -0.6207 H   0  0  0  0  0  0  0  0  0  0  0  0
   -2.1949    1.8964    0.1294 H   0  0  0  0  0  0  0  0  0  0  0  0
   -2.7079    3.1720    1.0105 H   0  0  0  0  0  0  0  0  0  0  0  0
   -1.4486    5.2591   -0.5666 H   0  0  0  0  0  0  0  0  0  0  0  0
   -1.4123    5.1922    1.0646 H   0  0  0  0  0  0  0  0  0  0  0  0
   -0.0181    5.2909    0.2202 H   0  0  0  0  0  0  0  0  0  0  0  0
    2.4472    1.1915    1.6812 H   0  0  0  0  0  0  0  0  0  0  0  0
    1.0552    1.2147    2.5347 H   0  0  0  0  0  0  0  0  0  0  0  0
    2.2769    1.3226    4.5567 H   0  0  0  0  0  0  0  0  0  0  0  0
    2.7470    0.0101    3.7065 H   0  0  0  0  0  0  0  0  0  0  0  0
    7.2867   -1.8947    6.0911 H   0  0  0  0  0  0  0  0  0  0  0  0
    6.8102   -1.5963    7.6243 H   0  0  0  0  0  0  0  0  0  0  0  0
    5.7017   -1.9539    6.4797 H   0  0  0  0  0  0  0  0  0  0  0  0
  1  2  1  0  0  0  0
  2  3  1  0  0  0  0
  3  4  2  0  0  0  0
  4  5  1  0  0  0  0
  5  6  2  0  0  0  0
  6  7  1  0  0  0  0
  7  2  2  0  0  0  0
  5  8  1  0  0  0  0
  8  9  1  0  0  0  0
  9 10  1  0  0  0  0
 10 11  1  0  0  0  0
 11 12  2  0  0  0  0
 11 13  1  0  0  0  0
 13 14  1  0  0  0  0
 14  9  1  0  0  0  0
 14 15  2  0  0  0  0
 13 16  1  0  0  0  0
 16 17  1  0  0  0  0
 17 18  1  0  0  0  0
 18 19  1  0  0  0  0
 19 20  1  0  0  0  0
 20 21  1  0  0  0  0
 21 22  1  0  0  0  0
 22 23  1  0  0  0  0
 22 24  1  0  0  0  0
 19 25  1  0  0  0  0
 25 26  1  0  0  0  0
 26 16  1  0  0  0  0
  9 27  1  0  0  0  0
 19 28  1  0  0  0  0
 22 29  1  0  0  0  0
  3 30  1  0  0  0  0
  4 31  1  0  0  0  0
  6 32  1  0  0  0  0
  7 33  1  0  0  0  0
  8 34  1  0  0  0  0
  8 35  1  0  0  0  0
 10 36  1  0  0  0  0
 16 37  1  0  0  0  0
 17 38  1  0  0  0  0
 17 39  1  0  0  0  0
 18 40  1  0  0  0  0
 18 41  1  0  0  0  0
 20 42  1  0  0  0  0
 20 43  1  0  0  0  0
 21 44  1  0  0  0  0
 21 45  1  0  0  0  0
 23 46  1  0  0  0  0
 23 47  1  0  0  0  0
 23 48  1  0  0  0  0
 24 49  1  0  0  0  0
 24 50  1  0  0  0  0
 24 51  1  0  0  0  0
 25 52  1  0  0  0  0
 25 53  1  0  0  0  0
 26 54  1  0  0  0  0
 26 55  1  0  0  0  0
 27 56  1  0  0  0  0
 27 57  1  0  0  0  0
 27 58  1  0  0  0  0
M  CHG  2  19   1  22   1
M  END
>  <result-rank>
99

>  <similarity>
0.933

>  <query-name>
LIG_A_1101_C[NH+](C)[C@H]([R*])C1CCC1_2

>  <query-smiles>
O=C(N[C@@H]([NH+](C)C)C1CCC1)[C@@H](NC(=O)C)Cc2ccc(O)cc2

>  <source>
REALspace_2019-12

>  <similarity-descriptor>
0.991;0.968;0.878;0.991;0.991;0.874;0.874;1.000;0.878;0.878;0.878;1.000;1.000;0.0;0.100

>  <similarity-descriptor-smiles>
C1CC[NH+]CC1;Clc1ccccc1;C1C(NC(N1)=O)=O;C1CC[NH+]CC1;C1CC[NH+]CC1;CC[NH+];CC[NH+];C;C1C(NC(N1)=O)=O;C1C(NC(N1)=O)=O;C1C(NC(N1)=O)=O;C;C;;C

>  <reaction-name>
s_272212

>  <reagent1-name>
13250008

>  <reagent1-smiles>
[R2*]N(C([R1*])=O)C1CCN(CCN(C)C)CC1

>  <reagent2-name>
12526102

>  <reagent2-smiles>
[R1*]NC(C([R2*])=O)(Cc1ccc(Cl)cc1)C

$$$$
s_527a____10150806____5637264
          04022015103D 1   1.00000     0.00000     0
            
 48 49  0  0  0  0            999 V2000
    1.9854    1.7822   -2.9583 F   0  0  0  0  0  0  0  0  0  0  0  0
    2.3246    0.5410   -2.6221 C   0  0  0  0  0  0  0  0  0  0  0  0
    2.8458    0.2913   -1.3568 C   0  0  0  0  0  0  0  0  0  0  0  0
    3.2071   -0.9989   -0.9832 C   0  0  0  0  0  0  0  0  0  0  0  0
    3.0410   -2.0406   -1.8908 C   0  0  0  0  0  0  0  0  0  0  0  0
    2.5194   -1.7850   -3.1545 C   0  0  0  0  0  0  0  0  0  0  0  0
    2.3616   -2.7813   -4.0203 F   0  0  0  0  0  0  0  0  0  0  0  0
    2.1573   -0.4969   -3.5327 C   0  0  0  0  0  0  0  0  0  0  0  0
    3.0267    1.4309   -0.3667 C   0  0  3  0  0  0  0  0  0  0  0  0
    4.4521    1.7778   -0.2739 N   0  0  0  0  0  0  0  0  0  0  0  0
    4.8720    3.0415   -0.5957 C   0  0  0  0  0  0  0  0  0  0  0  0
    4.0761    3.8653   -0.9534 O   0  0  0  0  0  0  0  0  0  0  0  0
    6.3460    3.4001   -0.4997 C   0  0  0  0  0  0  0  0  0  0  0  0
    2.5200    1.0000    1.0000 C   0  0  0  0  0  0  0  0  0  0  0  0
    1.0000    1.0000    1.0000 C   0  0  0  0  0  0  0  0  0  0  0  0
    0.4000    1.0000   -0.0392 O   0  0  0  0  0  0  0  0  0  0  0  0
    0.3150    1.0000    2.1865 N   0  0  0  0  0  0  0  0  0  0  0  0
   -1.1550    1.0000    2.1865 C   0  0  0  0  0  0  0  0  0  0  0  0
   -1.6617   -0.4113    1.9376 C   0  0  3  0  0  0  0  0  0  0  0  0
   -1.1858   -1.3703    3.0028 C   0  0  0  0  0  0  0  0  0  0  0  0
   -2.2199   -2.4076    2.9720 N   0  0  0  0  0  0  0  0  0  0  0  0
   -1.9967   -3.7765    3.1765 C   0  0  0  0  0  0  0  0  0  0  0  0
   -0.8873   -4.1770    3.3975 O   0  0  0  0  0  0  0  0  0  0  0  0
   -3.0451   -4.6568    3.1241 N   0  0  0  0  0  0  0  0  0  0  0  0
   -3.5162   -1.7851    2.6826 C   0  0  0  0  0  0  0  0  0  0  0  0
   -3.1725   -0.4568    2.0268 C   0  0  0  0  0  0  0  0  0  0  0  0
    3.5818   -1.1758   -0.0731 H   0  0  0  0  0  0  0  0  0  0  0  0
    3.2965   -2.9728   -1.6344 H   0  0  0  0  0  0  0  0  0  0  0  0
    1.7832   -0.3199   -4.4431 H   0  0  0  0  0  0  0  0  0  0  0  0
    2.5092    2.2281   -0.6779 H   0  0  0  0  0  0  0  0  0  0  0  0
    5.1154    1.0913    0.0242 H   0  0  0  0  0  0  0  0  0  0  0  0
    6.8634    2.6030   -0.1885 H   0  0  0  0  0  0  0  0  0  0  0  0
    6.6793    3.6836   -1.3989 H   0  0  0  0  0  0  0  0  0  0  0  0
    6.4649    4.1497    0.1514 H   0  0  0  0  0  0  0  0  0  0  0  0
    2.8533    0.0795    1.2041 H   0  0  0  0  0  0  0  0  0  0  0  0
    2.8533    1.6370    1.6951 H   0  0  0  0  0  0  0  0  0  0  0  0
    0.8150    1.0000    3.0525 H   0  0  0  0  0  0  0  0  0  0  0  0
   -1.4883    1.6060    1.4642 H   0  0  0  0  0  0  0  0  0  0  0  0
   -1.4883    1.3225    3.0724 H   0  0  0  0  0  0  0  0  0  0  0  0
   -1.3635   -0.7269    1.0367 H   0  0  0  0  0  0  0  0  0  0  0  0
   -0.2878   -1.7471    2.7760 H   0  0  0  0  0  0  0  0  0  0  0  0
   -1.1446   -0.9262    3.8978 H   0  0  0  0  0  0  0  0  0  0  0  0
   -3.9696   -4.3230    2.9400 H   0  0  0  0  0  0  0  0  0  0  0  0
   -2.8859   -5.6332    3.2700 H   0  0  0  0  0  0  0  0  0  0  0  0
   -4.0325   -1.6381    3.5263 H   0  0  0  0  0  0  0  0  0  0  0  0
   -4.0504   -2.3573    2.0602 H   0  0  0  0  0  0  0  0  0  0  0  0
   -3.5758   -0.4061    1.1131 H   0  0  0  0  0  0  0  0  0  0  0  0
   -3.5104    0.3025    2.5829 H   0  0  0  0  0  0  0  0  0  0  0  0
  1  2  1  0  0  0  0
  2  3  1  0  0  0  0
  3  4  2  0  0  0  0
  4  5  1  0  0  0  0
  5  6  2  0  0  0  0
  6  7  1  0  0  0  0
  6  8  1  0  0  0  0
  8  2  2  0  0  0  0
  3  9  1  0  0  0  0
  9 10  1  0  0  0  0
 10 11  1  0  0  0  0
 11 12  2  0  0  0  0
 11 13  1  0  0  0  0
  9 14  1  0  0  0  0
 14 15  1  0  0  0  0
 15 16  2  0  0  0  0
 15 17  1  0  0  0  0
 17 18  1  0  0  0  0
 18 19  1  0  0  0  0
 19 20  1  0  0  0  0
 20 21  1  0  0  0  0
 21 22  1  0  0  0  0
 22 23  2  0  0  0  0
 22 24  1  0  0  0  0
 21 25  1  0  0  0  0
 25 26  1  0  0  0  0
 26 19  1  0  0  0  0
  4 27  1  0  0  0  0
  5 28  1  0  0  0  0
  8 29  1  0  0  0  0
  9 30  1  0  0  0  0
 10 31  1  0  0  0  0
 13 32  1  0  0  0  0
 13 33  1  0  0  0  0
 13 34  1  0  0  0  0
 14 35  1  0  0  0  0
 14 36  1  0  0  0  0
 17 37  1  0  0  0  0
 18 38  1  0  0  0  0
 18 39  1  0  0  0  0
 19 40  1  0  0  0  0
 20 41  1  0  0  0  0
 20 42  1  0  0  0  0
 24 43  1  0  0  0  0
 24 44  1  0  0  0  0
 25 45  1  0  0  0  0
 25 46  1  0  0  0  0
 26 47  1  0  0  0  0
 26 48  1  0  0  0  0
M  END
>  <result-rank>
100

>  <similarity>
0.933

>  <query-name>
LIG_A_1101_C[NH+](C)[C@H]([R*])C1CCC1_2

>  <query-smiles>
O=C(N[C@@H]([NH+](C)C)C1CCC1)[C@@H](NC(=O)C)Cc2ccc(O)cc2

>  <source>
REALspace_2019-12

>  <similarity-descriptor>
0.989;0.948;1.000;1.000;0.942;0.0;0.0;0.0;1.000;1.000;1.000;1.000;1.000;0.0;0.167

>  <similarity-descriptor-smiles>
C1CCNC1;Fc1cc(ccc1)F;C=O;N;C;;;;CC;N;C=O;C;CC;;C=O.N

>  <reaction-name>
s_527a

>  <reagent1-name>
10150806

>  <reagent1-smiles>
[R1*]NCC1CN(C(=O)N)CC1

>  <reagent2-name>
5637264

>  <reagent2-smiles>
[R1*]C(=O)CC(NC(=O)C)c1c(F)cc(F)cc1

$$$$
