s_22____13611716____17513450
          04022015093D 1   1.00000     0.00000     0
            
 46 46  0  0  0  0            999 V2000
    0.4000    1.0000   -0.0392 O   0  0  0  0  0  0  0  0  0  0  0  0
    1.0000    1.0000    1.0000 C   0  0  0  0  0  0  0  0  0  0  0  0
    0.3150    1.0000    2.1865 N   0  0  0  0  0  0  0  0  0  0  0  0
   -1.1550    1.0000    2.1865 C   0  0  0  0  0  0  0  0  0  0  0  0
   -1.6617   -0.4331    2.1865 C   0  0  0  0  0  0  0  0  0  0  0  0
   -1.8783   -1.0459    3.3123 C   0  0  0  0  0  0  0  0  0  0  0  0
    1.0500    1.0000    3.4595 C   0  0  0  0  0  0  0  0  0  0  0  0
    1.3033    2.4331    3.8983 C   0  0  0  0  0  0  0  0  0  0  0  0
    2.0633    2.4331    5.2147 C   0  0  0  0  0  0  0  0  0  0  0  0
    2.5200    1.0000    1.0000 C   0  0  3  0  0  0  0  0  0  0  0  0
    3.0100    1.6930   -0.2002 N   0  0  0  0  0  0  0  0  0  0  0  0
    3.2383    3.0434   -0.1663 C   0  0  0  0  0  0  0  0  0  0  0  0
    3.0383    3.6605    0.8432 O   0  0  0  0  0  0  0  0  0  0  0  0
    3.7450    3.7599   -1.4074 C   0  0  0  0  0  0  0  0  0  0  0  0
    3.0267   -0.4331    1.0000 C   0  0  0  0  0  0  0  0  0  0  0  0
    4.5467   -0.4331    1.0000 C   0  0  0  0  0  0  0  0  0  0  0  0
    5.2311   -0.4331    2.2110 C   0  0  0  0  0  0  0  0  0  0  0  0
    6.6219   -0.4338    2.2159 C   0  0  0  0  0  0  0  0  0  0  0  0
    7.3116   -0.4351    1.0075 C   0  0  0  0  0  0  0  0  0  0  0  0
    8.7316   -0.4355    1.0077 O   0  0  0  0  0  0  0  0  0  0  0  0
    6.6320   -0.4347   -0.2063 C   0  0  0  0  0  0  0  0  0  0  0  0
    5.2412   -0.4344   -0.2053 C   0  0  0  0  0  0  0  0  0  0  0  0
   -1.4883    1.4714    1.3700 H   0  0  0  0  0  0  0  0  0  0  0  0
   -1.4883    1.4714    3.0030 H   0  0  0  0  0  0  0  0  0  0  0  0
   -1.8283   -0.9045    1.3204 H   0  0  0  0  0  0  0  0  0  0  0  0
   -2.2117   -1.9887    3.3123 H   0  0  0  0  0  0  0  0  0  0  0  0
   -1.7117   -0.5745    4.1783 H   0  0  0  0  0  0  0  0  0  0  0  0
    1.9238    0.5286    3.3399 H   0  0  0  0  0  0  0  0  0  0  0  0
    0.5096    0.5286    4.1564 H   0  0  0  0  0  0  0  0  0  0  0  0
    0.4296    2.9045    4.0179 H   0  0  0  0  0  0  0  0  0  0  0  0
    1.8438    2.9045    3.2014 H   0  0  0  0  0  0  0  0  0  0  0  0
    2.2300    3.3759    5.5033 H   0  0  0  0  0  0  0  0  0  0  0  0
    1.5229    1.9617    5.9116 H   0  0  0  0  0  0  0  0  0  0  0  0
    2.9371    1.9617    5.0951 H   0  0  0  0  0  0  0  0  0  0  0  0
    2.8533    1.4714    1.8165 H   0  0  0  0  0  0  0  0  0  0  0  0
    3.1767    1.1787   -1.0415 H   0  0  0  0  0  0  0  0  0  0  0  0
    3.8561    3.1005   -2.1510 H   0  0  0  0  0  0  0  0  0  0  0  0
    3.0863    4.4614   -1.6796 H   0  0  0  0  0  0  0  0  0  0  0  0
    4.6259    4.1892   -1.2082 H   0  0  0  0  0  0  0  0  0  0  0  0
    2.6933   -0.9045    1.8165 H   0  0  0  0  0  0  0  0  0  0  0  0
    2.6933   -0.9045    0.1835 H   0  0  0  0  0  0  0  0  0  0  0  0
    4.7256   -0.4325    3.0738 H   0  0  0  0  0  0  0  0  0  0  0  0
    7.1226   -0.4335    3.0815 H   0  0  0  0  0  0  0  0  0  0  0  0
    9.2317   -0.4364    0.1417 H   0  0  0  0  0  0  0  0  0  0  0  0
    7.1374   -0.4347   -1.0692 H   0  0  0  0  0  0  0  0  0  0  0  0
    4.7405   -0.4351   -1.0710 H   0  0  0  0  0  0  0  0  0  0  0  0
  1  2  2  0  0  0  0
  2  3  1  0  0  0  0
  3  4  1  0  0  0  0
  4  5  1  0  0  0  0
  5  6  2  0  0  0  0
  3  7  1  0  0  0  0
  7  8  1  0  0  0  0
  8  9  1  0  0  0  0
  2 10  1  0  0  0  0
 10 11  1  0  0  0  0
 11 12  1  0  0  0  0
 12 13  2  0  0  0  0
 12 14  1  0  0  0  0
 10 15  1  0  0  0  0
 15 16  1  0  0  0  0
 16 17  1  0  0  0  0
 17 18  2  0  0  0  0
 18 19  1  0  0  0  0
 19 20  1  0  0  0  0
 19 21  2  0  0  0  0
 21 22  1  0  0  0  0
 22 16  2  0  0  0  0
  4 23  1  0  0  0  0
  4 24  1  0  0  0  0
  5 25  1  0  0  0  0
  6 26  1  0  0  0  0
  6 27  1  0  0  0  0
  7 28  1  0  0  0  0
  7 29  1  0  0  0  0
  8 30  1  0  0  0  0
  8 31  1  0  0  0  0
  9 32  1  0  0  0  0
  9 33  1  0  0  0  0
  9 34  1  0  0  0  0
 10 35  1  0  0  0  0
 11 36  1  0  0  0  0
 14 37  1  0  0  0  0
 14 38  1  0  0  0  0
 14 39  1  0  0  0  0
 15 40  1  0  0  0  0
 15 41  1  0  0  0  0
 17 42  1  0  0  0  0
 18 43  1  0  0  0  0
 20 44  1  0  0  0  0
 21 45  1  0  0  0  0
 22 46  1  0  0  0  0
M  END
>  <result-rank>
1

>  <similarity>
0.983

>  <query-name>
LIG_A_1101_CC(C)SC[R*]_1

>  <query-smiles>
S(C(C)C)CC(=O)[C@@H](NC(=O)C)Cc1ccc(O)cc1

>  <source>
REALspace_2019-12

>  <similarity-descriptor>
1.000;0.992;1.000;1.000;1.000;0.992;0.907;1.000;1.000;1.000;1.000;1.000;1.000;0.067

>  <similarity-descriptor-smiles>
c1ccccc1;NCC;CC;CC;C;NCC;O=C;C;N;C=O;C;C;O;C

>  <reaction-name>
s_22

>  <reagent1-name>
13611716

>  <reagent1-smiles>
[R1*]N(CC=C)CCC

>  <reagent2-name>
17513450

>  <reagent2-smiles>
[R1*]C(=O)C(NC(=O)C)Cc1ccc(O)cc1

$$$$
s_22____13465914____17513450
          04022015093D 1   1.00000     0.00000     0
            
 41 42  0  0  0  0            999 V2000
   -4.0939    0.9843    1.1316 S   0  0  0  0  0  0  0  0  0  0  0  0
   -2.5220    0.0909    1.0662 C   0  0  0  0  0  0  0  0  0  0  0  0
   -1.8130    1.3429    1.5462 C   0  0  0  0  0  0  0  0  0  0  0  0
   -1.1681    2.1466    0.4955 N   0  0  0  0  0  0  0  0  0  0  0  0
    0.1224    1.8776    0.1224 C   0  0  0  0  0  0  0  0  0  0  0  0
    0.5600    2.3347   -0.8972 O   0  0  0  0  0  0  0  0  0  0  0  0
    1.0000    1.0000    1.0000 C   0  0  3  0  0  0  0  0  0  0  0  0
    1.8487    0.1513    0.1513 N   0  0  0  0  0  0  0  0  0  0  0  0
    1.7598   -1.2129    0.2402 C   0  0  0  0  0  0  0  0  0  0  0  0
    0.9891   -1.7150    1.0109 O   0  0  0  0  0  0  0  0  0  0  0  0
    2.6374   -2.0905   -0.6374 C   0  0  0  0  0  0  0  0  0  0  0  0
    1.8776    1.8776    1.8776 C   0  0  0  0  0  0  0  0  0  0  0  0
    2.3228    1.0890    3.0984 C   0  0  0  0  0  0  0  0  0  0  0  0
    1.5430    1.1124    4.2500 C   0  0  0  0  0  0  0  0  0  0  0  0
    1.9461    0.3918    5.3693 C   0  0  0  0  0  0  0  0  0  0  0  0
    3.1256   -0.3445    5.3222 C   0  0  0  0  0  0  0  0  0  0  0  0
    3.5207   -1.0450    6.4063 O   0  0  0  0  0  0  0  0  0  0  0  0
    3.9094   -0.3710    4.1731 C   0  0  0  0  0  0  0  0  0  0  0  0
    3.5013    0.3511    3.0567 C   0  0  0  0  0  0  0  0  0  0  0  0
   -1.9085    3.2380   -0.1537 C   0  0  0  0  0  0  0  0  0  0  0  0
   -3.0246    1.9696    2.2008 C   0  0  0  0  0  0  0  0  0  0  0  0
   -2.2560   -0.2059    0.1490 H   0  0  0  0  0  0  0  0  0  0  0  0
   -2.4625   -0.6826    1.6972 H   0  0  0  0  0  0  0  0  0  0  0  0
   -1.1402    1.1013    2.2454 H   0  0  0  0  0  0  0  0  0  0  0  0
    0.4226    0.4226    1.5774 H   0  0  0  0  0  0  0  0  0  0  0  0
    2.4909    0.5697   -0.4909 H   0  0  0  0  0  0  0  0  0  0  0  0
    3.2147   -1.5131   -1.2147 H   0  0  0  0  0  0  0  0  0  0  0  0
    3.2147   -2.6678   -0.0600 H   0  0  0  0  0  0  0  0  0  0  0  0
    2.0600   -2.6678   -1.2147 H   0  0  0  0  0  0  0  0  0  0  0  0
    2.6807    2.1705    1.3588 H   0  0  0  0  0  0  0  0  0  0  0  0
    1.3588    2.6807    2.1705 H   0  0  0  0  0  0  0  0  0  0  0  0
    0.6967    1.6447    4.2731 H   0  0  0  0  0  0  0  0  0  0  0  0
    1.3921    0.4029    6.2018 H   0  0  0  0  0  0  0  0  0  0  0  0
    4.3678   -1.5757    6.3772 H   0  0  0  0  0  0  0  0  0  0  0  0
    4.7559   -0.9028    4.1501 H   0  0  0  0  0  0  0  0  0  0  0  0
    4.0550    0.3398    2.2240 H   0  0  0  0  0  0  0  0  0  0  0  0
   -2.8277    3.2952    0.2359 H   0  0  0  0  0  0  0  0  0  0  0  0
   -1.4283    4.1022   -0.0032 H   0  0  0  0  0  0  0  0  0  0  0  0
   -1.9731    3.0592   -1.1355 H   0  0  0  0  0  0  0  0  0  0  0  0
   -3.1168    1.7633    3.1749 H   0  0  0  0  0  0  0  0  0  0  0  0
   -3.1018    2.9566    2.0603 H   0  0  0  0  0  0  0  0  0  0  0  0
  1  2  1  0  0  0  0
  2  3  1  0  0  0  0
  3  4  1  0  0  0  0
  4  5  1  0  0  0  0
  5  6  2  0  0  0  0
  5  7  1  0  0  0  0
  7  8  1  0  0  0  0
  8  9  1  0  0  0  0
  9 10  2  0  0  0  0
  9 11  1  0  0  0  0
  7 12  1  0  0  0  0
 12 13  1  0  0  0  0
 13 14  1  0  0  0  0
 14 15  2  0  0  0  0
 15 16  1  0  0  0  0
 16 17  1  0  0  0  0
 16 18  2  0  0  0  0
 18 19  1  0  0  0  0
 19 13  2  0  0  0  0
  4 20  1  0  0  0  0
  3 21  1  0  0  0  0
 21  1  1  0  0  0  0
  2 22  1  0  0  0  0
  2 23  1  0  0  0  0
  3 24  1  0  0  0  0
  7 25  1  0  0  0  0
  8 26  1  0  0  0  0
 11 27  1  0  0  0  0
 11 28  1  0  0  0  0
 11 29  1  0  0  0  0
 12 30  1  0  0  0  0
 12 31  1  0  0  0  0
 14 32  1  0  0  0  0
 15 33  1  0  0  0  0
 17 34  1  0  0  0  0
 18 35  1  0  0  0  0
 19 36  1  0  0  0  0
 20 37  1  0  0  0  0
 20 38  1  0  0  0  0
 20 39  1  0  0  0  0
 21 40  1  0  0  0  0
 21 41  1  0  0  0  0
M  END
>  <result-rank>
2

>  <similarity>
0.962

>  <query-name>
LIG_A_1101_CC(C)SC[R*]_1

>  <query-smiles>
S(C(C)C)CC(=O)[C@@H](NC(=O)C)Cc1ccc(O)cc1

>  <source>
REALspace_2019-12

>  <similarity-descriptor>
1.000;0.881;0.881;0.881;0.881;0.929;0.907;1.000;1.000;1.000;1.000;1.000;1.000;0.0

>  <similarity-descriptor-smiles>
c1ccccc1;S1CCC1;S1CCC1;S1CCC1;S1CCC1;NC;C=O;C;N;C=O;C;C;O;

>  <reaction-name>
s_22

>  <reagent1-name>
13465914

>  <reagent1-smiles>
[R1*]N(C1CSC1)C

>  <reagent2-name>
17513450

>  <reagent2-smiles>
[R1*]C(=O)C(NC(=O)C)Cc1ccc(O)cc1

$$$$
s_22____5360682____17513450
          04022015093D 1   1.00000     0.00000     0
            
 47 47  0  0  0  0            999 V2000
    5.1000    1.0000   -2.1396 S   0  0  0  0  0  0  0  0  0  0  0  0
    4.4967    1.0000   -0.4331 C   0  0  0  0  0  0  0  0  0  0  0  0
    2.9767    1.0000   -0.4331 C   0  0  3  0  0  0  0  0  0  0  0  0
    2.5033    2.1594   -1.1025 O   0  0  0  0  0  0  0  0  0  0  0  0
    2.4700    1.0000    1.0000 C   0  0  0  0  0  0  0  0  0  0  0  0
    1.0000    1.0000    1.0000 N   0  0  0  0  0  0  0  0  0  0  0  0
    0.3150    1.0000    2.1865 C   0  0  0  0  0  0  0  0  0  0  0  0
    0.9150    1.0000    3.2257 O   0  0  0  0  0  0  0  0  0  0  0  0
   -1.2050    1.0000    2.1865 C   0  0  3  0  0  0  0  0  0  0  0  0
   -1.6950    1.0000    3.5724 N   0  0  0  0  0  0  0  0  0  0  0  0
   -2.4826    2.0275    4.0205 C   0  0  0  0  0  0  0  0  0  0  0  0
   -2.7725    2.9275    3.2816 O   0  0  0  0  0  0  0  0  0  0  0  0
   -2.9893    2.0275    5.4535 C   0  0  0  0  0  0  0  0  0  0  0  0
   -1.7117   -0.2411    1.4699 C   0  0  0  0  0  0  0  0  0  0  0  0
   -3.2317   -0.2411    1.4699 C   0  0  0  0  0  0  0  0  0  0  0  0
   -3.9161    0.3644    0.4212 C   0  0  0  0  0  0  0  0  0  0  0  0
   -5.3069    0.3662    0.4166 C   0  0  0  0  0  0  0  0  0  0  0  0
   -5.9966   -0.2391    1.4624 C   0  0  0  0  0  0  0  0  0  0  0  0
   -7.3464   -0.2393    1.4621 O   0  0  0  0  0  0  0  0  0  0  0  0
   -5.3170   -0.8457    2.5138 C   0  0  0  0  0  0  0  0  0  0  0  0
   -3.9262   -0.8449    2.5131 C   0  0  0  0  0  0  0  0  0  0  0  0
    2.4700   -0.2411   -1.1496 C   0  0  0  0  0  0  0  0  0  0  0  0
    6.8799    1.0000   -1.8106 C   0  0  0  0  0  0  0  0  0  0  0  0
    4.8300    1.8165    0.0383 H   0  0  0  0  0  0  0  0  0  0  0  0
    4.8300    0.1835    0.0383 H   0  0  0  0  0  0  0  0  0  0  0  0
    1.5033    2.1594   -1.1025 H   0  0  0  0  0  0  0  0  0  0  0  0
    2.8033    0.1835    1.4714 H   0  0  0  0  0  0  0  0  0  0  0  0
    2.8033    1.8165    1.4714 H   0  0  0  0  0  0  0  0  0  0  0  0
    0.5000    1.0000    0.1340 H   0  0  0  0  0  0  0  0  0  0  0  0
   -1.5383    1.8165    1.7151 H   0  0  0  0  0  0  0  0  0  0  0  0
   -1.4534    0.2500    4.1881 H   0  0  0  0  0  0  0  0  0  0  0  0
   -2.6560    1.2110    5.9249 H   0  0  0  0  0  0  0  0  0  0  0  0
   -2.6560    2.8440    5.9249 H   0  0  0  0  0  0  0  0  0  0  0  0
   -3.9893    2.0275    5.4535 H   0  0  0  0  0  0  0  0  0  0  0  0
   -1.3783   -0.2411    0.5271 H   0  0  0  0  0  0  0  0  0  0  0  0
   -1.3783   -1.0576    1.9413 H   0  0  0  0  0  0  0  0  0  0  0  0
   -3.4106    0.7963   -0.3258 H   0  0  0  0  0  0  0  0  0  0  0  0
   -5.8076    0.7993   -0.3330 H   0  0  0  0  0  0  0  0  0  0  0  0
   -7.8465   -0.6731    2.2116 H   0  0  0  0  0  0  0  0  0  0  0  0
   -5.8224   -1.2771    3.2611 H   0  0  0  0  0  0  0  0  0  0  0  0
   -3.4255   -1.2783    3.2624 H   0  0  0  0  0  0  0  0  0  0  0  0
    2.8033   -1.0576   -0.6782 H   0  0  0  0  0  0  0  0  0  0  0  0
    1.4700   -0.2411   -1.1496 H   0  0  0  0  0  0  0  0  0  0  0  0
    2.8033   -0.2411   -2.0924 H   0  0  0  0  0  0  0  0  0  0  0  0
    7.3790    1.0000   -2.6771 H   0  0  0  0  0  0  0  0  0  0  0  0
    7.1220    1.8165   -1.2865 H   0  0  0  0  0  0  0  0  0  0  0  0
    7.1220    0.1835   -1.2865 H   0  0  0  0  0  0  0  0  0  0  0  0
  1  2  1  0  0  0  0
  2  3  1  0  0  0  0
  3  4  1  0  0  0  0
  3  5  1  0  0  0  0
  5  6  1  0  0  0  0
  6  7  1  0  0  0  0
  7  8  2  0  0  0  0
  7  9  1  0  0  0  0
  9 10  1  0  0  0  0
 10 11  1  0  0  0  0
 11 12  2  0  0  0  0
 11 13  1  0  0  0  0
  9 14  1  0  0  0  0
 14 15  1  0  0  0  0
 15 16  1  0  0  0  0
 16 17  2  0  0  0  0
 17 18  1  0  0  0  0
 18 19  1  0  0  0  0
 18 20  2  0  0  0  0
 20 21  1  0  0  0  0
 21 15  2  0  0  0  0
  3 22  1  0  0  0  0
  1 23  1  0  0  0  0
  2 24  1  0  0  0  0
  2 25  1  0  0  0  0
  4 26  1  0  0  0  0
  5 27  1  0  0  0  0
  5 28  1  0  0  0  0
  6 29  1  0  0  0  0
  9 30  1  0  0  0  0
 10 31  1  0  0  0  0
 13 32  1  0  0  0  0
 13 33  1  0  0  0  0
 13 34  1  0  0  0  0
 14 35  1  0  0  0  0
 14 36  1  0  0  0  0
 16 37  1  0  0  0  0
 17 38  1  0  0  0  0
 19 39  1  0  0  0  0
 20 40  1  0  0  0  0
 21 41  1  0  0  0  0
 22 42  1  0  0  0  0
 22 43  1  0  0  0  0
 22 44  1  0  0  0  0
 23 45  1  0  0  0  0
 23 46  1  0  0  0  0
 23 47  1  0  0  0  0
M  END
>  <result-rank>
3

>  <similarity>
0.958

>  <query-name>
LIG_A_1101_CC(C)SC[R*]_1

>  <query-smiles>
S(C(C)C)CC(=O)[C@@H](NC(=O)C)Cc1ccc(O)cc1

>  <source>
REALspace_2019-12

>  <similarity-descriptor>
1.000;0.944;0.944;0.998;1.000;0.995;0.763;1.000;1.000;1.000;1.000;1.000;1.000;0.063

>  <similarity-descriptor-smiles>
c1ccccc1;SCC;SCC;C;C;C;NC=O;C;N;C=O;C;C;O;O

>  <reaction-name>
s_22

>  <reagent1-name>
5360682

>  <reagent1-smiles>
[R1*]NCC(O)(CSC)C

>  <reagent2-name>
17513450

>  <reagent2-smiles>
[R1*]C(=O)C(NC(=O)C)Cc1ccc(O)cc1

$$$$
s_22____7966704____7841202
          04022015093D 1   1.00000     0.00000     0
            
 40 40  0  0  0  0            999 V2000
   -1.2287    1.5747    3.1711 S   0  0  0  0  0  0  0  0  0  0  0  0
   -1.1970    2.0718    1.4309 C   0  0  3  0  0  0  0  0  0  0  0  0
    0.2400    2.3164    1.0000 C   0  0  0  0  0  0  0  0  0  0  0  0
    1.0000    1.0000    1.0000 C   0  0  0  0  0  0  0  0  0  0  0  0
    0.4000   -0.0392    1.0000 O   0  0  0  0  0  0  0  0  0  0  0  0
    2.3700    1.0000    1.0000 N   0  0  0  0  0  0  0  0  0  0  0  0
    3.1050   -0.2731    1.0000 C   0  0  3  0  0  0  0  0  0  0  0  0
    3.9789   -0.3536    2.2411 C   0  0  0  0  0  0  0  0  0  0  0  0
    4.9016    0.7257    2.2411 O   0  0  0  0  0  0  0  0  0  0  0  0
    3.9789   -0.3536   -0.2411 C   0  0  0  0  0  0  0  0  0  0  0  0
    3.1050   -0.2731   -1.4822 C   0  0  0  0  0  0  0  0  0  0  0  0
    2.8226    0.9691   -2.0410 C   0  0  0  0  0  0  0  0  0  0  0  0
    2.0241    1.0476   -3.1770 C   0  0  0  0  0  0  0  0  0  0  0  0
    1.5177   -0.1192   -3.7409 C   0  0  0  0  0  0  0  0  0  0  0  0
    0.7420   -0.0476   -4.8432 O   0  0  0  0  0  0  0  0  0  0  0  0
    1.7968   -1.3640   -3.1858 C   0  0  0  0  0  0  0  0  0  0  0  0
    2.5962   -1.4366   -2.0500 C   0  0  0  0  0  0  0  0  0  0  0  0
   -2.0033    3.3480    1.2538 C   0  0  0  0  0  0  0  0  0  0  0  0
   -2.9628    1.0698    3.2897 C   0  0  0  0  0  0  0  0  0  0  0  0
   -1.5943    1.3458    0.8696 H   0  0  0  0  0  0  0  0  0  0  0  0
    0.2501    2.7071    0.0795 H   0  0  0  0  0  0  0  0  0  0  0  0
    0.6753    2.9526    1.6370 H   0  0  0  0  0  0  0  0  0  0  0  0
    2.8700    1.8660    1.0000 H   0  0  0  0  0  0  0  0  0  0  0  0
    2.4552   -1.0331    1.0000 H   0  0  0  0  0  0  0  0  0  0  0  0
    3.4040   -0.3006    3.0576 H   0  0  0  0  0  0  0  0  0  0  0  0
    4.4789   -1.2196    2.2411 H   0  0  0  0  0  0  0  0  0  0  0  0
    5.4765    0.6728    3.0576 H   0  0  0  0  0  0  0  0  0  0  0  0
    4.6287    0.4065   -0.2411 H   0  0  0  0  0  0  0  0  0  0  0  0
    4.4789   -1.2196   -0.2411 H   0  0  0  0  0  0  0  0  0  0  0  0
    3.1920    1.8015   -1.6279 H   0  0  0  0  0  0  0  0  0  0  0  0
    1.8154    1.9361   -3.5856 H   0  0  0  0  0  0  0  0  0  0  0  0
    0.3758   -0.8835   -5.2521 H   0  0  0  0  0  0  0  0  0  0  0  0
    1.4271   -2.1964   -3.5984 H   0  0  0  0  0  0  0  0  0  0  0  0
    2.8052   -2.3252   -1.6416 H   0  0  0  0  0  0  0  0  0  0  0  0
   -1.9857    3.6227    0.2924 H   0  0  0  0  0  0  0  0  0  0  0  0
   -2.9486    3.1871    1.5373 H   0  0  0  0  0  0  0  0  0  0  0  0
   -1.6059    4.0740    1.8151 H   0  0  0  0  0  0  0  0  0  0  0  0
   -3.1558    0.7563    4.2195 H   0  0  0  0  0  0  0  0  0  0  0  0
   -3.5521    1.8475    3.0711 H   0  0  0  0  0  0  0  0  0  0  0  0
   -3.1385    0.3266    2.6442 H   0  0  0  0  0  0  0  0  0  0  0  0
  1  2  1  0  0  0  0
  2  3  1  0  0  0  0
  3  4  1  0  0  0  0
  4  5  2  0  0  0  0
  4  6  1  0  0  0  0
  6  7  1  0  0  0  0
  7  8  1  0  0  0  0
  8  9  1  0  0  0  0
  7 10  1  0  0  0  0
 10 11  1  0  0  0  0
 11 12  1  0  0  0  0
 12 13  2  0  0  0  0
 13 14  1  0  0  0  0
 14 15  1  0  0  0  0
 14 16  2  0  0  0  0
 16 17  1  0  0  0  0
 17 11  2  0  0  0  0
  2 18  1  0  0  0  0
  1 19  1  0  0  0  0
  2 20  1  0  0  0  0
  3 21  1  0  0  0  0
  3 22  1  0  0  0  0
  6 23  1  0  0  0  0
  7 24  1  0  0  0  0
  8 25  1  0  0  0  0
  8 26  1  0  0  0  0
  9 27  1  0  0  0  0
 10 28  1  0  0  0  0
 10 29  1  0  0  0  0
 12 30  1  0  0  0  0
 13 31  1  0  0  0  0
 15 32  1  0  0  0  0
 16 33  1  0  0  0  0
 17 34  1  0  0  0  0
 18 35  1  0  0  0  0
 18 36  1  0  0  0  0
 18 37  1  0  0  0  0
 19 38  1  0  0  0  0
 19 39  1  0  0  0  0
 19 40  1  0  0  0  0
M  END
>  <result-rank>
4

>  <similarity>
0.956

>  <query-name>
LIG_A_1101_CC(C)SC[R*]_1

>  <query-smiles>
S(C(C)C)CC(=O)[C@@H](NC(=O)C)Cc1ccc(O)cc1

>  <source>
REALspace_2019-12

>  <similarity-descriptor>
1.000;1.000;1.000;0.998;1.000;0.998;0.907;0.999;0.999;0.730;0.730;1.000;1.000;0.0

>  <similarity-descriptor-smiles>
c1ccccc1;SC;SC;C;C;C;C=O;NC;NC;CO;CO;C;O;

>  <reaction-name>
s_22

>  <reagent1-name>
7966704

>  <reagent1-smiles>
[R1*]NC(CO)Cc1ccc(O)cc1

>  <reagent2-name>
7841202

>  <reagent2-smiles>
[R1*]C(=O)CC(SC)C

$$$$
s_22____14174274____7692614
          04022015093D 1   1.00000     0.00000     0
            
 45 45  0  0  0  0            999 V2000
   -2.1643    1.5030    0.0107 S   0  0  0  0  0  0  0  0  0  0  0  0
   -1.1970    2.0718    1.4309 C   0  0  3  0  0  0  0  0  0  0  0  0
    0.2400    2.3164    1.0000 C   0  0  0  0  0  0  0  0  0  0  0  0
    1.0000    1.0000    1.0000 C   0  0  0  0  0  0  0  0  0  0  0  0
    0.4000   -0.0392    1.0000 O   0  0  0  0  0  0  0  0  0  0  0  0
    2.3700    1.0000    1.0000 N   0  0  0  0  0  0  0  0  0  0  0  0
    3.1050   -0.2731    1.0000 C   0  0  3  0  0  0  0  0  0  0  0  0
    3.9789   -0.3536    2.2411 C   0  0  0  0  0  0  0  0  0  0  0  0
    5.0852   -0.8125    2.1672 O   0  0  0  0  0  0  0  0  0  0  0  0
    3.5243    0.0780    3.3914 O   0  0  0  0  0  0  0  0  0  0  0  0
    4.3406    0.0028    4.5508 C   0  0  0  0  0  0  0  0  0  0  0  0
    3.9789   -0.3536   -0.2411 C   0  0  0  0  0  0  0  0  0  0  0  0
    3.1052   -0.2731   -1.4818 C   0  0  0  0  0  0  0  0  0  0  0  0
    2.8303    0.9745   -2.0309 C   0  0  0  0  0  0  0  0  0  0  0  0
    2.0310    1.0430   -3.1668 C   0  0  0  0  0  0  0  0  0  0  0  0
    1.7523    2.2226   -3.7135 F   0  0  0  0  0  0  0  0  0  0  0  0
    1.5184   -0.1168   -3.7402 C   0  0  0  0  0  0  0  0  0  0  0  0
    0.7432   -0.0394   -4.8434 O   0  0  0  0  0  0  0  0  0  0  0  0
    1.7970   -1.3622   -3.1868 C   0  0  0  0  0  0  0  0  0  0  0  0
    2.5959   -1.4360   -2.0505 C   0  0  0  0  0  0  0  0  0  0  0  0
   -1.7928    3.3642    1.9649 C   0  0  0  0  0  0  0  0  0  0  0  0
   -0.9804    3.8418    3.1576 C   0  0  0  0  0  0  0  0  0  0  0  0
   -3.8192    1.6033    0.7369 C   0  0  0  0  0  0  0  0  0  0  0  0
   -1.2160    1.3748    2.1478 H   0  0  0  0  0  0  0  0  0  0  0  0
    0.2501    2.7071    0.0795 H   0  0  0  0  0  0  0  0  0  0  0  0
    0.6753    2.9526    1.6370 H   0  0  0  0  0  0  0  0  0  0  0  0
    2.8700    1.8660    1.0000 H   0  0  0  0  0  0  0  0  0  0  0  0
    2.4552   -1.0331    1.0000 H   0  0  0  0  0  0  0  0  0  0  0  0
    3.8415    0.3726    5.3345 H   0  0  0  0  0  0  0  0  0  0  0  0
    4.5802   -0.9517    4.7284 H   0  0  0  0  0  0  0  0  0  0  0  0
    5.1751    0.5345    4.4060 H   0  0  0  0  0  0  0  0  0  0  0  0
    4.6287    0.4065   -0.2411 H   0  0  0  0  0  0  0  0  0  0  0  0
    4.4789   -1.2196   -0.2411 H   0  0  0  0  0  0  0  0  0  0  0  0
    3.2001    1.8063   -1.6170 H   0  0  0  0  0  0  0  0  0  0  0  0
    0.3750   -0.8729   -5.2552 H   0  0  0  0  0  0  0  0  0  0  0  0
    1.4275   -2.1942   -3.6008 H   0  0  0  0  0  0  0  0  0  0  0  0
    2.8042   -2.3249   -1.6424 H   0  0  0  0  0  0  0  0  0  0  0  0
   -2.7381    3.2033    2.2484 H   0  0  0  0  0  0  0  0  0  0  0  0
   -1.7738    4.0611    1.2480 H   0  0  0  0  0  0  0  0  0  0  0  0
   -1.3724    4.6921    3.5088 H   0  0  0  0  0  0  0  0  0  0  0  0
   -0.9994    3.1448    3.8744 H   0  0  0  0  0  0  0  0  0  0  0  0
   -0.0351    4.0027    2.8740 H   0  0  0  0  0  0  0  0  0  0  0  0
   -4.4976    1.3136    0.0617 H   0  0  0  0  0  0  0  0  0  0  0  0
   -3.8689    1.0056    1.5370 H   0  0  0  0  0  0  0  0  0  0  0  0
   -4.0054    2.5462    1.0131 H   0  0  0  0  0  0  0  0  0  0  0  0
  1  2  1  0  0  0  0
  2  3  1  0  0  0  0
  3  4  1  0  0  0  0
  4  5  2  0  0  0  0
  4  6  1  0  0  0  0
  6  7  1  0  0  0  0
  7  8  1  0  0  0  0
  8  9  2  0  0  0  0
  8 10  1  0  0  0  0
 10 11  1  0  0  0  0
  7 12  1  0  0  0  0
 12 13  1  0  0  0  0
 13 14  1  0  0  0  0
 14 15  2  0  0  0  0
 15 16  1  0  0  0  0
 15 17  1  0  0  0  0
 17 18  1  0  0  0  0
 17 19  2  0  0  0  0
 19 20  1  0  0  0  0
 20 13  2  0  0  0  0
  2 21  1  0  0  0  0
 21 22  1  0  0  0  0
  1 23  1  0  0  0  0
  2 24  1  0  0  0  0
  3 25  1  0  0  0  0
  3 26  1  0  0  0  0
  6 27  1  0  0  0  0
  7 28  1  0  0  0  0
 11 29  1  0  0  0  0
 11 30  1  0  0  0  0
 11 31  1  0  0  0  0
 12 32  1  0  0  0  0
 12 33  1  0  0  0  0
 14 34  1  0  0  0  0
 18 35  1  0  0  0  0
 19 36  1  0  0  0  0
 20 37  1  0  0  0  0
 21 38  1  0  0  0  0
 21 39  1  0  0  0  0
 22 40  1  0  0  0  0
 22 41  1  0  0  0  0
 22 42  1  0  0  0  0
 23 43  1  0  0  0  0
 23 44  1  0  0  0  0
 23 45  1  0  0  0  0
M  END
>  <result-rank>
5

>  <similarity>
0.953

>  <query-name>
LIG_A_1101_CC(C)SC[R*]_1

>  <query-smiles>
S(C(C)C)CC(=O)[C@@H](NC(=O)C)Cc1ccc(O)cc1

>  <source>
REALspace_2019-12

>  <similarity-descriptor>
0.965;1.000;1.000;0.998;0.949;0.998;0.907;1.000;1.000;0.855;0.994;1.000;1.000;0.067

>  <similarity-descriptor-smiles>
c1cccc(c1)F;SC;SC;C;C;C;C=O;NC;NC;C(=O)O;C;C;O;C

>  <reaction-name>
s_22

>  <reagent1-name>
14174274

>  <reagent1-smiles>
[R1*]NC(C(=O)OC)Cc1cc(F)c(O)cc1

>  <reagent2-name>
7692614

>  <reagent2-smiles>
[R1*]C(=O)CC(SC)CC

$$$$
s_11a____14594094____7692612
          04022015093D 1   1.00000     0.00000     0
            
 48 48  0  0  0  0            999 V2000
   -2.2117    1.7181   -0.0255 S   0  0  0  0  0  0  0  0  0  0  0  0
   -1.1970    2.0718    1.4309 C   0  0  3  0  0  0  0  0  0  0  0  0
    0.2400    2.3164    1.0000 C   0  0  0  0  0  0  0  0  0  0  0  0
    1.0000    1.0000    1.0000 C   0  0  0  0  0  0  0  0  0  0  0  0
    0.4000   -0.0392    1.0000 O   0  0  0  0  0  0  0  0  0  0  0  0
    2.3700    1.0000    1.0000 N   0  0  0  0  0  0  0  0  0  0  0  0
    3.1050    2.2731    1.0000 C   0  0  3  0  0  0  0  0  0  0  0  0
    4.2359    2.2052    2.0133 C   0  0  0  0  0  0  0  0  0  0  0  0
    4.9913    1.2728    2.0079 O   0  0  0  0  0  0  0  0  0  0  0  0
    4.3928    3.2085    2.9329 N   0  0  0  0  0  0  0  0  0  0  0  0
    3.3505    4.2335    3.0874 C   0  0  0  0  0  0  0  0  0  0  0  0
    5.6035    3.2600    3.7651 C   0  0  0  0  0  0  0  0  0  0  0  0
    3.6795    2.5264   -0.3842 C   0  0  0  0  0  0  0  0  0  0  0  0
    2.6721    3.3031   -1.2167 C   0  0  0  0  0  0  0  0  0  0  0  0
    1.7361    2.6164   -1.9831 C   0  0  0  0  0  0  0  0  0  0  0  0
    0.8166    3.3310   -2.7440 C   0  0  0  0  0  0  0  0  0  0  0  0
    0.8367    4.7217   -2.7338 C   0  0  0  0  0  0  0  0  0  0  0  0
    1.7758    5.3970   -1.9641 C   0  0  0  0  0  0  0  0  0  0  0  0
    2.7010    4.6940   -1.1994 C   0  0  0  0  0  0  0  0  0  0  0  0
   -1.7327    3.3086    2.1335 C   0  0  0  0  0  0  0  0  0  0  0  0
   -0.8805    3.6056    3.3566 C   0  0  0  0  0  0  0  0  0  0  0  0
   -3.8477    1.7867    0.7458 C   0  0  0  0  0  0  0  0  0  0  0  0
   -1.2292    1.2926    2.0569 H   0  0  0  0  0  0  0  0  0  0  0  0
    0.2501    2.7071    0.0795 H   0  0  0  0  0  0  0  0  0  0  0  0
    0.6753    2.9526    1.6370 H   0  0  0  0  0  0  0  0  0  0  0  0
    2.8700    0.1340    1.0000 H   0  0  0  0  0  0  0  0  0  0  0  0
    2.4830    3.0171    1.2440 H   0  0  0  0  0  0  0  0  0  0  0  0
    3.6248    4.8837    3.7960 H   0  0  0  0  0  0  0  0  0  0  0  0
    3.2276    4.7172    2.2208 H   0  0  0  0  0  0  0  0  0  0  0  0
    2.4902    3.7971    3.3505 H   0  0  0  0  0  0  0  0  0  0  0  0
    5.5544    4.0499    4.3764 H   0  0  0  0  0  0  0  0  0  0  0  0
    5.6711    2.4225    4.3074 H   0  0  0  0  0  0  0  0  0  0  0  0
    6.4085    3.3426    3.1777 H   0  0  0  0  0  0  0  0  0  0  0  0
    4.5238    3.0562   -0.3029 H   0  0  0  0  0  0  0  0  0  0  0  0
    3.8760    1.6524   -0.8287 H   0  0  0  0  0  0  0  0  0  0  0  0
    1.7243    1.6165   -1.9870 H   0  0  0  0  0  0  0  0  0  0  0  0
    0.1411    2.8448   -3.2984 H   0  0  0  0  0  0  0  0  0  0  0  0
    0.1753    5.2354   -3.2803 H   0  0  0  0  0  0  0  0  0  0  0  0
    1.7868    6.3970   -1.9598 H   0  0  0  0  0  0  0  0  0  0  0  0
    3.3766    5.1808   -0.6457 H   0  0  0  0  0  0  0  0  0  0  0  0
   -2.6781    3.1477    2.4171 H   0  0  0  0  0  0  0  0  0  0  0  0
   -1.7005    4.0878    1.5076 H   0  0  0  0  0  0  0  0  0  0  0  0
   -1.2330    4.4193    3.8189 H   0  0  0  0  0  0  0  0  0  0  0  0
   -0.9128    2.8264    3.9826 H   0  0  0  0  0  0  0  0  0  0  0  0
    0.0648    3.7665    3.0731 H   0  0  0  0  0  0  0  0  0  0  0  0
   -4.5492    1.6072    0.0561 H   0  0  0  0  0  0  0  0  0  0  0  0
   -3.9053    1.0967    1.4673 H   0  0  0  0  0  0  0  0  0  0  0  0
   -3.9925    2.6942    1.1401 H   0  0  0  0  0  0  0  0  0  0  0  0
  1  2  1  0  0  0  0
  2  3  1  0  0  0  0
  3  4  1  0  0  0  0
  4  5  2  0  0  0  0
  4  6  1  0  0  0  0
  6  7  1  0  0  0  0
  7  8  1  0  0  0  0
  8  9  2  0  0  0  0
  8 10  1  0  0  0  0
 10 11  1  0  0  0  0
 10 12  1  0  0  0  0
  7 13  1  0  0  0  0
 13 14  1  0  0  0  0
 14 15  1  0  0  0  0
 15 16  2  0  0  0  0
 16 17  1  0  0  0  0
 17 18  2  0  0  0  0
 18 19  1  0  0  0  0
 19 14  2  0  0  0  0
  2 20  1  0  0  0  0
 20 21  1  0  0  0  0
  1 22  1  0  0  0  0
  2 23  1  0  0  0  0
  3 24  1  0  0  0  0
  3 25  1  0  0  0  0
  6 26  1  0  0  0  0
  7 27  1  0  0  0  0
 11 28  1  0  0  0  0
 11 29  1  0  0  0  0
 11 30  1  0  0  0  0
 12 31  1  0  0  0  0
 12 32  1  0  0  0  0
 12 33  1  0  0  0  0
 13 34  1  0  0  0  0
 13 35  1  0  0  0  0
 15 36  1  0  0  0  0
 16 37  1  0  0  0  0
 17 38  1  0  0  0  0
 18 39  1  0  0  0  0
 19 40  1  0  0  0  0
 20 41  1  0  0  0  0
 20 42  1  0  0  0  0
 21 43  1  0  0  0  0
 21 44  1  0  0  0  0
 21 45  1  0  0  0  0
 22 46  1  0  0  0  0
 22 47  1  0  0  0  0
 22 48  1  0  0  0  0
M  END
>  <result-rank>
6

>  <similarity>
0.952

>  <query-name>
LIG_A_1101_CC(C)SC[R*]_1

>  <query-smiles>
S(C(C)C)CC(=O)[C@@H](NC(=O)C)Cc1ccc(O)cc1

>  <source>
REALspace_2019-12

>  <similarity-descriptor>
0.960;1.000;1.000;0.998;0.949;0.998;0.907;1.000;1.000;1.000;0.977;1.000;0.0;0.133

>  <similarity-descriptor-smiles>
c1ccccc1;SC;SC;C;C;C;C=O;NC;NC;C=O;NC;C;;C.C

>  <reaction-name>
s_11a

>  <reagent1-name>
14594094

>  <reagent1-smiles>
[R1*]NC(C(=O)N(C)C)Cc1ccccc1

>  <reagent2-name>
7692612

>  <reagent2-smiles>
[R1*]C(=O)CC(SC)CC

$$$$
s_22____564348____17513450
          04022015093D 1   1.00000     0.00000     0
            
 46 46  0  0  0  0            999 V2000
    0.4000    1.0000   -0.0392 O   0  0  0  0  0  0  0  0  0  0  0  0
    1.0000    1.0000    1.0000 C   0  0  0  0  0  0  0  0  0  0  0  0
    0.3150    1.0000    2.1865 N   0  0  0  0  0  0  0  0  0  0  0  0
   -1.1550    1.0000    2.1865 C   0  0  0  0  0  0  0  0  0  0  0  0
   -1.6617   -0.4331    2.1865 C   0  0  0  0  0  0  0  0  0  0  0  0
   -3.0817   -0.4331    2.1865 O   0  0  0  0  0  0  0  0  0  0  0  0
    1.0500    1.0000    3.4595 C   0  0  0  0  0  0  0  0  0  0  0  0
    1.3033    2.4331    3.8983 C   0  0  0  0  0  0  0  0  0  0  0  0
    2.0633    2.4331    5.2147 C   0  0  0  0  0  0  0  0  0  0  0  0
    2.5200    1.0000    1.0000 C   0  0  3  0  0  0  0  0  0  0  0  0
    3.0100    1.6930   -0.2002 N   0  0  0  0  0  0  0  0  0  0  0  0
    3.2383    3.0434   -0.1663 C   0  0  0  0  0  0  0  0  0  0  0  0
    3.0383    3.6605    0.8432 O   0  0  0  0  0  0  0  0  0  0  0  0
    3.7450    3.7599   -1.4074 C   0  0  0  0  0  0  0  0  0  0  0  0
    3.0267   -0.4331    1.0000 C   0  0  0  0  0  0  0  0  0  0  0  0
    4.5467   -0.4331    1.0000 C   0  0  0  0  0  0  0  0  0  0  0  0
    5.2311   -0.4331    2.2110 C   0  0  0  0  0  0  0  0  0  0  0  0
    6.6219   -0.4338    2.2159 C   0  0  0  0  0  0  0  0  0  0  0  0
    7.3116   -0.4351    1.0075 C   0  0  0  0  0  0  0  0  0  0  0  0
    8.7316   -0.4355    1.0077 O   0  0  0  0  0  0  0  0  0  0  0  0
    6.6320   -0.4347   -0.2063 C   0  0  0  0  0  0  0  0  0  0  0  0
    5.2412   -0.4344   -0.2053 C   0  0  0  0  0  0  0  0  0  0  0  0
   -1.4883    1.4714    1.3700 H   0  0  0  0  0  0  0  0  0  0  0  0
   -1.4883    1.4714    3.0030 H   0  0  0  0  0  0  0  0  0  0  0  0
   -1.3283   -0.9045    1.3700 H   0  0  0  0  0  0  0  0  0  0  0  0
   -1.3283   -0.9045    3.0030 H   0  0  0  0  0  0  0  0  0  0  0  0
   -3.4150   -1.3759    2.1865 H   0  0  0  0  0  0  0  0  0  0  0  0
    1.9238    0.5286    3.3399 H   0  0  0  0  0  0  0  0  0  0  0  0
    0.5096    0.5286    4.1564 H   0  0  0  0  0  0  0  0  0  0  0  0
    0.4296    2.9045    4.0179 H   0  0  0  0  0  0  0  0  0  0  0  0
    1.8438    2.9045    3.2014 H   0  0  0  0  0  0  0  0  0  0  0  0
    2.2300    3.3759    5.5033 H   0  0  0  0  0  0  0  0  0  0  0  0
    1.5229    1.9617    5.9116 H   0  0  0  0  0  0  0  0  0  0  0  0
    2.9371    1.9617    5.0951 H   0  0  0  0  0  0  0  0  0  0  0  0
    2.8533    1.4714    1.8165 H   0  0  0  0  0  0  0  0  0  0  0  0
    3.1767    1.1787   -1.0415 H   0  0  0  0  0  0  0  0  0  0  0  0
    3.8561    3.1005   -2.1510 H   0  0  0  0  0  0  0  0  0  0  0  0
    3.0863    4.4614   -1.6796 H   0  0  0  0  0  0  0  0  0  0  0  0
    4.6259    4.1892   -1.2082 H   0  0  0  0  0  0  0  0  0  0  0  0
    2.6933   -0.9045    1.8165 H   0  0  0  0  0  0  0  0  0  0  0  0
    2.6933   -0.9045    0.1835 H   0  0  0  0  0  0  0  0  0  0  0  0
    4.7256   -0.4325    3.0738 H   0  0  0  0  0  0  0  0  0  0  0  0
    7.1226   -0.4335    3.0815 H   0  0  0  0  0  0  0  0  0  0  0  0
    9.2317   -0.4364    0.1417 H   0  0  0  0  0  0  0  0  0  0  0  0
    7.1374   -0.4347   -1.0692 H   0  0  0  0  0  0  0  0  0  0  0  0
    4.7405   -0.4351   -1.0710 H   0  0  0  0  0  0  0  0  0  0  0  0
  1  2  2  0  0  0  0
  2  3  1  0  0  0  0
  3  4  1  0  0  0  0
  4  5  1  0  0  0  0
  5  6  1  0  0  0  0
  3  7  1  0  0  0  0
  7  8  1  0  0  0  0
  8  9  1  0  0  0  0
  2 10  1  0  0  0  0
 10 11  1  0  0  0  0
 11 12  1  0  0  0  0
 12 13  2  0  0  0  0
 12 14  1  0  0  0  0
 10 15  1  0  0  0  0
 15 16  1  0  0  0  0
 16 17  1  0  0  0  0
 17 18  2  0  0  0  0
 18 19  1  0  0  0  0
 19 20  1  0  0  0  0
 19 21  2  0  0  0  0
 21 22  1  0  0  0  0
 22 16  2  0  0  0  0
  4 23  1  0  0  0  0
  4 24  1  0  0  0  0
  5 25  1  0  0  0  0
  5 26  1  0  0  0  0
  6 27  1  0  0  0  0
  7 28  1  0  0  0  0
  7 29  1  0  0  0  0
  8 30  1  0  0  0  0
  8 31  1  0  0  0  0
  9 32  1  0  0  0  0
  9 33  1  0  0  0  0
  9 34  1  0  0  0  0
 10 35  1  0  0  0  0
 11 36  1  0  0  0  0
 14 37  1  0  0  0  0
 14 38  1  0  0  0  0
 14 39  1  0  0  0  0
 15 40  1  0  0  0  0
 15 41  1  0  0  0  0
 17 42  1  0  0  0  0
 18 43  1  0  0  0  0
 20 44  1  0  0  0  0
 21 45  1  0  0  0  0
 22 46  1  0  0  0  0
M  END
>  <result-rank>
7

>  <similarity>
0.950

>  <query-name>
LIG_A_1101_CC(C)SC[R*]_1

>  <query-smiles>
S(C(C)C)CC(=O)[C@@H](NC(=O)C)Cc1ccc(O)cc1

>  <source>
REALspace_2019-12

>  <similarity-descriptor>
1.000;0.808;0.808;0.808;1.000;0.970;0.907;1.000;1.000;1.000;1.000;1.000;1.000;0.133

>  <similarity-descriptor-smiles>
c1ccccc1;CC;CC;CC;C;NC;O=C;C;N;C=O;C;C;O;C.O

>  <reaction-name>
s_22

>  <reagent1-name>
564348

>  <reagent1-smiles>
[R1*]N(CCO)CCC

>  <reagent2-name>
17513450

>  <reagent2-smiles>
[R1*]C(=O)C(NC(=O)C)Cc1ccc(O)cc1

$$$$
s_276436a____14085696____14098040
          04022015093D 1   1.00000     0.00000     0
            
 41 41  0  0  0  0            999 V2000
   -3.4011    1.7876    3.4566 S   0  0  0  0  0  0  0  0  0  0  0  0
   -1.6902    1.2028    3.5409 C   0  0  3  0  0  0  0  0  0  0  0  0
   -1.1739    0.9426    2.1351 C   0  0  0  0  0  0  0  0  0  0  0  0
    0.3450    1.0000    2.1345 C   0  0  0  0  0  0  0  0  0  0  0  0
    0.9441    1.0453    3.1732 O   0  0  0  0  0  0  0  0  0  0  0  0
    1.0000    1.0000    1.0000 O   0  0  0  0  0  0  0  0  0  0  0  0
    2.4200    1.0000    1.0000 C   0  0  0  0  0  0  0  0  0  0  0  0
    2.9267   -0.4331    1.0000 C   0  0  3  0  0  0  0  0  0  0  0  0
    2.4367   -1.1260   -0.2002 N   0  0  0  0  0  0  0  0  0  0  0  0
    1.6490   -2.2399   -0.0746 C   0  0  0  0  0  0  0  0  0  0  0  0
    1.3591   -2.6499    1.0153 O   0  0  0  0  0  0  0  0  0  0  0  0
    1.1424   -2.9565   -1.3156 C   0  0  0  0  0  0  0  0  0  0  0  0
    4.4470   -0.4331    1.0000 C   0  0  0  0  0  0  0  0  0  0  0  0
    5.1360   -0.6429    2.1900 C   0  0  0  0  0  0  0  0  0  0  0  0
    6.5271   -0.6413    2.1857 C   0  0  0  0  0  0  0  0  0  0  0  0
    7.2187   -0.4322    0.9972 C   0  0  0  0  0  0  0  0  0  0  0  0
    6.5199   -0.2242   -0.1856 C   0  0  0  0  0  0  0  0  0  0  0  0
    5.1289   -0.2228   -0.1944 C   0  0  0  0  0  0  0  0  0  0  0  0
   -1.6337   -0.0841    4.3477 C   0  0  0  0  0  0  0  0  0  0  0  0
   -3.7153    1.9995    5.2265 C   0  0  0  0  0  0  0  0  0  0  0  0
   -1.1218    1.8977    3.9814 H   0  0  0  0  0  0  0  0  0  0  0  0
   -1.4734    0.0378    1.8322 H   0  0  0  0  0  0  0  0  0  0  0  0
   -1.5340    1.6383    1.5136 H   0  0  0  0  0  0  0  0  0  0  0  0
    2.7533    1.4714    1.8165 H   0  0  0  0  0  0  0  0  0  0  0  0
    2.7533    1.4714    0.1835 H   0  0  0  0  0  0  0  0  0  0  0  0
    2.5933   -0.9045    1.8165 H   0  0  0  0  0  0  0  0  0  0  0  0
    2.6782   -0.7844   -1.1085 H   0  0  0  0  0  0  0  0  0  0  0  0
    1.4757   -2.4850   -2.1321 H   0  0  0  0  0  0  0  0  0  0  0  0
    1.4757   -3.8993   -1.3156 H   0  0  0  0  0  0  0  0  0  0  0  0
    0.1424   -2.9565   -1.3156 H   0  0  0  0  0  0  0  0  0  0  0  0
    4.6351   -0.7938    3.0423 H   0  0  0  0  0  0  0  0  0  0  0  0
    7.0299   -0.7904    3.0372 H   0  0  0  0  0  0  0  0  0  0  0  0
    8.2187   -0.4317    0.9939 H   0  0  0  0  0  0  0  0  0  0  0  0
    7.0212   -0.0741   -1.0378 H   0  0  0  0  0  0  0  0  0  0  0  0
    4.6268   -0.0731   -1.0461 H   0  0  0  0  0  0  0  0  0  0  0  0
   -0.6885   -0.4072    4.3942 H   0  0  0  0  0  0  0  0  0  0  0  0
   -1.9734    0.0871    5.2725 H   0  0  0  0  0  0  0  0  0  0  0  0
   -2.2022   -0.7789    3.9071 H   0  0  0  0  0  0  0  0  0  0  0  0
   -4.6496    2.3294    5.3620 H   0  0  0  0  0  0  0  0  0  0  0  0
   -3.6007    1.1223    5.6928 H   0  0  0  0  0  0  0  0  0  0  0  0
   -3.0694    2.6638    5.6025 H   0  0  0  0  0  0  0  0  0  0  0  0
  1  2  1  0  0  0  0
  2  3  1  0  0  0  0
  3  4  1  0  0  0  0
  4  5  2  0  0  0  0
  4  6  1  0  0  0  0
  6  7  1  0  0  0  0
  7  8  1  0  0  0  0
  8  9  1  0  0  0  0
  9 10  1  0  0  0  0
 10 11  2  0  0  0  0
 10 12  1  0  0  0  0
  8 13  1  0  0  0  0
 13 14  1  0  0  0  0
 14 15  2  0  0  0  0
 15 16  1  0  0  0  0
 16 17  2  0  0  0  0
 17 18  1  0  0  0  0
 18 13  2  0  0  0  0
  2 19  1  0  0  0  0
  1 20  1  0  0  0  0
  2 21  1  0  0  0  0
  3 22  1  0  0  0  0
  3 23  1  0  0  0  0
  7 24  1  0  0  0  0
  7 25  1  0  0  0  0
  8 26  1  0  0  0  0
  9 27  1  0  0  0  0
 12 28  1  0  0  0  0
 12 29  1  0  0  0  0
 12 30  1  0  0  0  0
 14 31  1  0  0  0  0
 15 32  1  0  0  0  0
 16 33  1  0  0  0  0
 17 34  1  0  0  0  0
 18 35  1  0  0  0  0
 19 36  1  0  0  0  0
 19 37  1  0  0  0  0
 19 38  1  0  0  0  0
 20 39  1  0  0  0  0
 20 40  1  0  0  0  0
 20 41  1  0  0  0  0
M  END
>  <result-rank>
8

>  <similarity>
0.950

>  <query-name>
LIG_A_1101_CC(C)SC[R*]_1

>  <query-smiles>
S(C(C)C)CC(=O)[C@@H](NC(=O)C)Cc1ccc(O)cc1

>  <source>
REALspace_2019-12

>  <similarity-descriptor>
0.960;1.000;1.000;0.998;1.000;0.998;0.766;0.995;1.000;1.000;1.000;0.995;0.0;0.0

>  <similarity-descriptor-smiles>
c1ccccc1;SC;SC;C;C;C;C(=O)O;CC;N;C=O;C;CC;;

>  <reaction-name>
s_276436a

>  <reagent1-name>
14085696

>  <reagent1-smiles>
[R1*]OCC(NC(=O)C)c1ccccc1

>  <reagent2-name>
14098040

>  <reagent2-smiles>
[R1*]C(=O)CC(SC)C

$$$$
s_1458____17513454____12121624
          04022015093D 1   1.00000     0.00000     0
            
 45 45  0  0  0  0            999 V2000
    0.9450    1.0000    3.1737 O   0  0  0  0  0  0  0  0  0  0  0  0
    0.3450    1.0000    2.1345 C   0  0  0  0  0  0  0  0  0  0  0  0
    1.0000    1.0000    1.0000 O   0  0  0  0  0  0  0  0  0  0  0  0
    2.4200    1.0000    1.0000 C   0  0  0  0  0  0  0  0  0  0  0  0
    2.9267   -0.4331    1.0000 C   0  0  0  0  0  0  0  0  0  0  0  0
    4.4467   -0.4331    1.0000 C   0  0  0  0  0  0  0  0  0  0  0  0
    5.0967   -0.9960    1.9750 C   0  0  0  0  0  0  0  0  0  0  0  0
    6.6167   -0.9960    1.9750 C   0  0  0  0  0  0  0  0  0  0  0  0
    4.3367   -1.6542    3.1150 C   0  0  0  0  0  0  0  0  0  0  0  0
   -1.1750    1.0000    2.1345 C   0  0  3  0  0  0  0  0  0  0  0  0
   -1.6650    1.0000    3.5204 N   0  0  0  0  0  0  0  0  0  0  0  0
   -2.4526    2.0275    3.9685 C   0  0  0  0  0  0  0  0  0  0  0  0
   -2.7425    2.9275    3.2296 O   0  0  0  0  0  0  0  0  0  0  0  0
   -2.9593    2.0275    5.4016 C   0  0  0  0  0  0  0  0  0  0  0  0
   -1.6817   -0.2411    1.4180 C   0  0  0  0  0  0  0  0  0  0  0  0
   -3.2017   -0.2411    1.4180 C   0  0  0  0  0  0  0  0  0  0  0  0
   -3.8861    0.3644    0.3692 C   0  0  0  0  0  0  0  0  0  0  0  0
   -5.2769    0.3662    0.3646 C   0  0  0  0  0  0  0  0  0  0  0  0
   -5.9666   -0.2391    1.4104 C   0  0  0  0  0  0  0  0  0  0  0  0
   -7.3164   -0.2393    1.4101 O   0  0  0  0  0  0  0  0  0  0  0  0
   -5.2870   -0.8457    2.4618 C   0  0  0  0  0  0  0  0  0  0  0  0
   -3.8962   -0.8449    2.4611 C   0  0  0  0  0  0  0  0  0  0  0  0
    2.7533    1.4714    1.8165 H   0  0  0  0  0  0  0  0  0  0  0  0
    2.7533    1.4714    0.1835 H   0  0  0  0  0  0  0  0  0  0  0  0
    2.5933   -0.9045    1.8165 H   0  0  0  0  0  0  0  0  0  0  0  0
    2.5933   -0.9045    0.1835 H   0  0  0  0  0  0  0  0  0  0  0  0
    4.9467   -0.0001    0.2500 H   0  0  0  0  0  0  0  0  0  0  0  0
    6.9500   -1.4674    2.7915 H   0  0  0  0  0  0  0  0  0  0  0  0
    6.9500   -1.4674    1.1585 H   0  0  0  0  0  0  0  0  0  0  0  0
    6.9500   -0.0532    1.9750 H   0  0  0  0  0  0  0  0  0  0  0  0
    4.9865   -2.0342    3.7732 H   0  0  0  0  0  0  0  0  0  0  0  0
    3.7618   -0.9735    3.5691 H   0  0  0  0  0  0  0  0  0  0  0  0
    3.7618   -2.3878    2.7526 H   0  0  0  0  0  0  0  0  0  0  0  0
   -1.5083    1.8165    1.6631 H   0  0  0  0  0  0  0  0  0  0  0  0
   -1.4234    0.2500    4.1362 H   0  0  0  0  0  0  0  0  0  0  0  0
   -2.6260    1.2110    5.8730 H   0  0  0  0  0  0  0  0  0  0  0  0
   -2.6260    2.8440    5.8730 H   0  0  0  0  0  0  0  0  0  0  0  0
   -3.9593    2.0275    5.4016 H   0  0  0  0  0  0  0  0  0  0  0  0
   -1.3483   -0.2411    0.4751 H   0  0  0  0  0  0  0  0  0  0  0  0
   -1.3483   -1.0576    1.8894 H   0  0  0  0  0  0  0  0  0  0  0  0
   -3.3806    0.7963   -0.3777 H   0  0  0  0  0  0  0  0  0  0  0  0
   -5.7776    0.7993   -0.3849 H   0  0  0  0  0  0  0  0  0  0  0  0
   -7.8165   -0.6731    2.1596 H   0  0  0  0  0  0  0  0  0  0  0  0
   -5.7924   -1.2771    3.2091 H   0  0  0  0  0  0  0  0  0  0  0  0
   -3.3955   -1.2783    3.2104 H   0  0  0  0  0  0  0  0  0  0  0  0
  1  2  2  0  0  0  0
  2  3  1  0  0  0  0
  3  4  1  0  0  0  0
  4  5  1  0  0  0  0
  5  6  1  0  0  0  0
  6  7  2  0  0  0  0
  7  8  1  0  0  0  0
  7  9  1  0  0  0  0
  2 10  1  0  0  0  0
 10 11  1  0  0  0  0
 11 12  1  0  0  0  0
 12 13  2  0  0  0  0
 12 14  1  0  0  0  0
 10 15  1  0  0  0  0
 15 16  1  0  0  0  0
 16 17  1  0  0  0  0
 17 18  2  0  0  0  0
 18 19  1  0  0  0  0
 19 20  1  0  0  0  0
 19 21  2  0  0  0  0
 21 22  1  0  0  0  0
 22 16  2  0  0  0  0
  4 23  1  0  0  0  0
  4 24  1  0  0  0  0
  5 25  1  0  0  0  0
  5 26  1  0  0  0  0
  6 27  1  0  0  0  0
  8 28  1  0  0  0  0
  8 29  1  0  0  0  0
  8 30  1  0  0  0  0
  9 31  1  0  0  0  0
  9 32  1  0  0  0  0
  9 33  1  0  0  0  0
 10 34  1  0  0  0  0
 11 35  1  0  0  0  0
 14 36  1  0  0  0  0
 14 37  1  0  0  0  0
 14 38  1  0  0  0  0
 15 39  1  0  0  0  0
 15 40  1  0  0  0  0
 17 41  1  0  0  0  0
 18 42  1  0  0  0  0
 20 43  1  0  0  0  0
 21 44  1  0  0  0  0
 22 45  1  0  0  0  0
M  END
>  <result-rank>
9

>  <similarity>
0.949

>  <query-name>
LIG_A_1101_CC(C)SC[R*]_1

>  <query-smiles>
S(C(C)C)CC(=O)[C@@H](NC(=O)C)Cc1ccc(O)cc1

>  <source>
REALspace_2019-12

>  <similarity-descriptor>
1.000;0.807;0.807;1.000;1.000;0.994;0.766;1.000;1.000;1.000;1.000;1.000;1.000;0.0

>  <similarity-descriptor-smiles>
c1ccccc1;CC=C;CC=C;C;C;C;O=CO;C;N;C=O;C;C;O;

>  <reaction-name>
s_1458

>  <reagent1-name>
17513454

>  <reagent1-smiles>
[R1*]OC(=O)C(NC(=O)C)Cc1ccc(O)cc1

>  <reagent2-name>
12121624

>  <reagent2-smiles>
[R1*]CCC=C(C)C

$$$$
s_22____8963080____58844
          04022015093D 1   1.00000     0.00000     0
            
 38 38  0  0  0  0            999 V2000
    3.6336    7.4488    3.3307 Br  0  0  0  0  0  0  0  0  0  0  0  0
    3.0718    5.6832    3.9700 C   0  0  0  0  0  0  0  0  0  0  0  0
    2.2687    4.8834    3.1644 C   0  0  0  0  0  0  0  0  0  0  0  0
    1.8777    3.6329    3.6329 C   0  0  0  0  0  0  0  0  0  0  0  0
    2.2779    3.1802    4.8855 C   0  0  0  0  0  0  0  0  0  0  0  0
    3.0806    3.9967    5.6754 C   0  0  0  0  0  0  0  0  0  0  0  0
    3.4828    5.2501    5.2261 C   0  0  0  0  0  0  0  0  0  0  0  0
    1.0000    2.7551    2.7551 C   0  0  0  0  0  0  0  0  0  0  0  0
    1.8776    1.8776    1.8776 C   0  0  3  0  0  0  0  0  0  0  0  0
    2.7263    1.0289    2.7263 N   0  0  0  0  0  0  0  0  0  0  0  0
    3.9607    0.6334    2.2828 C   0  0  0  0  0  0  0  0  0  0  0  0
    4.3491    0.9798    1.2016 O   0  0  0  0  0  0  0  0  0  0  0  0
    4.8383   -0.2442    3.1604 C   0  0  0  0  0  0  0  0  0  0  0  0
    1.0000    1.0000    1.0000 C   0  0  0  0  0  0  0  0  0  0  0  0
    1.8198    0.1802    0.1802 O   0  0  0  0  0  0  0  0  0  0  0  0
    1.0000   -0.6397   -0.6397 C   0  0  0  0  0  0  0  0  0  0  0  0
    1.8776   -1.5172   -1.5172 C   0  0  0  0  0  0  0  0  0  0  0  0
    1.0000   -2.3948   -2.3948 C   0  0  0  0  0  0  0  0  0  0  0  0
    1.9768    5.2019    2.2625 H   0  0  0  0  0  0  0  0  0  0  0  0
    1.9925    2.2798    5.2139 H   0  0  0  0  0  0  0  0  0  0  0  0
    3.3722    3.6786    6.5775 H   0  0  0  0  0  0  0  0  0  0  0  0
    4.0600    5.8323    5.7987 H   0  0  0  0  0  0  0  0  0  0  0  0
    0.4226    3.3325    2.1778 H   0  0  0  0  0  0  0  0  0  0  0  0
    0.4226    2.1778    3.3325 H   0  0  0  0  0  0  0  0  0  0  0  0
    2.4549    2.4549    1.3002 H   0  0  0  0  0  0  0  0  0  0  0  0
    2.4026    0.7402    3.6273 H   0  0  0  0  0  0  0  0  0  0  0  0
    4.3641   -0.4366    4.0195 H   0  0  0  0  0  0  0  0  0  0  0  0
    5.0307   -1.1033    2.6862 H   0  0  0  0  0  0  0  0  0  0  0  0
    5.6974    0.2300    3.3528 H   0  0  0  0  0  0  0  0  0  0  0  0
    0.4226    0.4226    1.5774 H   0  0  0  0  0  0  0  0  0  0  0  0
    0.4226    1.5774    0.4226 H   0  0  0  0  0  0  0  0  0  0  0  0
    0.4226   -0.0623   -1.2170 H   0  0  0  0  0  0  0  0  0  0  0  0
    0.4226   -1.2170   -0.0623 H   0  0  0  0  0  0  0  0  0  0  0  0
    2.4549   -2.0946   -0.9399 H   0  0  0  0  0  0  0  0  0  0  0  0
    2.4549   -0.9399   -2.0946 H   0  0  0  0  0  0  0  0  0  0  0  0
    1.5774   -2.9722   -2.9722 H   0  0  0  0  0  0  0  0  0  0  0  0
    0.4226   -2.9722   -1.8175 H   0  0  0  0  0  0  0  0  0  0  0  0
    0.4226   -1.8175   -2.9722 H   0  0  0  0  0  0  0  0  0  0  0  0
  1  2  1  0  0  0  0
  2  3  1  0  0  0  0
  3  4  2  0  0  0  0
  4  5  1  0  0  0  0
  5  6  2  0  0  0  0
  6  7  1  0  0  0  0
  7  2  2  0  0  0  0
  4  8  1  0  0  0  0
  8  9  1  0  0  0  0
  9 10  1  0  0  0  0
 10 11  1  0  0  0  0
 11 12  2  0  0  0  0
 11 13  1  0  0  0  0
  9 14  1  0  0  0  0
 14 15  1  0  0  0  0
 15 16  1  0  0  0  0
 16 17  1  0  0  0  0
 17 18  1  0  0  0  0
  3 19  1  0  0  0  0
  5 20  1  0  0  0  0
  6 21  1  0  0  0  0
  7 22  1  0  0  0  0
  8 23  1  0  0  0  0
  8 24  1  0  0  0  0
  9 25  1  0  0  0  0
 10 26  1  0  0  0  0
 13 27  1  0  0  0  0
 13 28  1  0  0  0  0
 13 29  1  0  0  0  0
 14 30  1  0  0  0  0
 14 31  1  0  0  0  0
 16 32  1  0  0  0  0
 16 33  1  0  0  0  0
 17 34  1  0  0  0  0
 17 35  1  0  0  0  0
 18 36  1  0  0  0  0
 18 37  1  0  0  0  0
 18 38  1  0  0  0  0
M  END
>  <result-rank>
10

>  <similarity>
0.948

>  <query-name>
LIG_A_1101_CC(C)SC[R*]_1

>  <query-smiles>
S(C(C)C)CC(=O)[C@@H](NC(=O)C)Cc1ccc(O)cc1

>  <source>
REALspace_2019-12

>  <similarity-descriptor>
0.962;0.811;0.999;0.999;1.000;0.811;0.811;1.000;1.000;1.000;1.000;1.000;0.0;0.0

>  <similarity-descriptor-smiles>
Brc1ccccc1;CO;CC;CC;C;CO;CO;CC;N;C=O;C;CC;;

>  <reaction-name>
s_22

>  <reagent1-name>
8963080

>  <reagent1-smiles>
[R1*]NC(COCCC)Cc1cc(Br)ccc1

>  <reagent2-name>
58844

>  <reagent2-smiles>
[R1*]C(=O)C

$$$$
s_22____12635594____1055140
          04022015093D 1   1.00000     0.00000     0
            
 39 39  0  0  0  0            999 V2000
   -4.7794    5.0168    2.3450 Br  0  0  0  0  0  0  0  0  0  0  0  0
   -3.2258    4.0512    3.0487 C   0  0  0  0  0  0  0  0  0  0  0  0
   -2.7654    2.9161    2.3905 C   0  0  0  0  0  0  0  0  0  0  0  0
   -1.6618    2.2413    2.9031 C   0  0  0  0  0  0  0  0  0  0  0  0
   -1.0217    2.6863    4.0548 C   0  0  0  0  0  0  0  0  0  0  0  0
   -1.4992    3.8236    4.6978 C   0  0  0  0  0  0  0  0  0  0  0  0
   -2.6008    4.5130    4.2022 C   0  0  0  0  0  0  0  0  0  0  0  0
   -1.1550    1.0000    2.1865 C   0  0  3  0  0  0  0  0  0  0  0  0
    0.3150    1.0000    2.1865 N   0  0  0  0  0  0  0  0  0  0  0  0
    1.0000    1.0000    1.0000 C   0  0  0  0  0  0  0  0  0  0  0  0
    0.4000    1.0000   -0.0392 O   0  0  0  0  0  0  0  0  0  0  0  0
    2.5200    1.0000    1.0000 C   0  0  0  0  0  0  0  0  0  0  0  0
    3.1233   -0.7065    1.0000 S   0  0  0  0  0  0  0  0  0  0  0  0
    4.9032   -0.3775    1.0000 C   0  0  0  0  0  0  0  0  0  0  0  0
    5.6619   -1.6947    1.0000 C   0  0  0  0  0  0  0  0  0  0  0  0
    7.1566   -1.4184    1.0000 C   0  0  0  0  0  0  0  0  0  0  0  0
   -1.6617   -0.2411    2.9030 C   0  0  0  0  0  0  0  0  0  0  0  0
   -3.0817   -0.2411    2.9030 O   0  0  0  0  0  0  0  0  0  0  0  0
   -3.5550   -1.4005    3.5724 C   0  0  0  0  0  0  0  0  0  0  0  0
   -3.2203    2.5899    1.5619 H   0  0  0  0  0  0  0  0  0  0  0  0
   -0.2289    2.1952    4.4159 H   0  0  0  0  0  0  0  0  0  0  0  0
   -1.0447    4.1496    5.5268 H   0  0  0  0  0  0  0  0  0  0  0  0
   -2.9391    5.3300    4.6691 H   0  0  0  0  0  0  0  0  0  0  0  0
   -1.4883    1.0000    1.2436 H   0  0  0  0  0  0  0  0  0  0  0  0
    0.8150    1.0000    3.0525 H   0  0  0  0  0  0  0  0  0  0  0  0
    2.8533    1.4714    0.1835 H   0  0  0  0  0  0  0  0  0  0  0  0
    2.8533    1.4714    1.8165 H   0  0  0  0  0  0  0  0  0  0  0  0
    5.1453    0.1466    1.8165 H   0  0  0  0  0  0  0  0  0  0  0  0
    5.1453    0.1466    0.1835 H   0  0  0  0  0  0  0  0  0  0  0  0
    5.4198   -2.2188    0.1835 H   0  0  0  0  0  0  0  0  0  0  0  0
    5.4198   -2.2188    1.8165 H   0  0  0  0  0  0  0  0  0  0  0  0
    7.6557   -2.2849    1.0000 H   0  0  0  0  0  0  0  0  0  0  0  0
    7.3987   -0.8943    0.1835 H   0  0  0  0  0  0  0  0  0  0  0  0
    7.3987   -0.8943    1.8165 H   0  0  0  0  0  0  0  0  0  0  0  0
   -1.3283   -1.0576    2.4316 H   0  0  0  0  0  0  0  0  0  0  0  0
   -1.3283   -0.2411    3.8458 H   0  0  0  0  0  0  0  0  0  0  0  0
   -4.5550   -1.4005    3.5724 H   0  0  0  0  0  0  0  0  0  0  0  0
   -3.2217   -2.2170    3.1010 H   0  0  0  0  0  0  0  0  0  0  0  0
   -3.2217   -1.4005    4.5152 H   0  0  0  0  0  0  0  0  0  0  0  0
  1  2  1  0  0  0  0
  2  3  1  0  0  0  0
  3  4  2  0  0  0  0
  4  5  1  0  0  0  0
  5  6  2  0  0  0  0
  6  7  1  0  0  0  0
  7  2  2  0  0  0  0
  4  8  1  0  0  0  0
  8  9  1  0  0  0  0
  9 10  1  0  0  0  0
 10 11  2  0  0  0  0
 10 12  1  0  0  0  0
 12 13  1  0  0  0  0
 13 14  1  0  0  0  0
 14 15  1  0  0  0  0
 15 16  1  0  0  0  0
  8 17  1  0  0  0  0
 17 18  1  0  0  0  0
 18 19  1  0  0  0  0
  3 20  1  0  0  0  0
  5 21  1  0  0  0  0
  6 22  1  0  0  0  0
  7 23  1  0  0  0  0
  8 24  1  0  0  0  0
  9 25  1  0  0  0  0
 12 26  1  0  0  0  0
 12 27  1  0  0  0  0
 14 28  1  0  0  0  0
 14 29  1  0  0  0  0
 15 30  1  0  0  0  0
 15 31  1  0  0  0  0
 16 32  1  0  0  0  0
 16 33  1  0  0  0  0
 16 34  1  0  0  0  0
 17 35  1  0  0  0  0
 17 36  1  0  0  0  0
 19 37  1  0  0  0  0
 19 38  1  0  0  0  0
 19 39  1  0  0  0  0
M  END
>  <result-rank>
11

>  <similarity>
0.946

>  <query-name>
LIG_A_1101_CC(C)SC[R*]_1

>  <query-smiles>
S(C(C)C)CC(=O)[C@@H](NC(=O)C)Cc1ccc(O)cc1

>  <source>
REALspace_2019-12

>  <similarity-descriptor>
0.969;1.000;0.998;0.998;1.000;1.000;0.907;1.000;1.000;0.770;0.994;0.969;0.0;0.0

>  <similarity-descriptor-smiles>
Brc1ccccc1;S;CC;CC;C;C;C=O;CN;CN;CO;C;Brc1ccccc1;;

>  <reaction-name>
s_22

>  <reagent1-name>
12635594

>  <reagent1-smiles>
[R1*]NC(c1cc(Br)ccc1)COC

>  <reagent2-name>
1055140

>  <reagent2-smiles>
[R1*]C(=O)CSCCC

$$$$
s_272212____13255400____11403114
          04022015093D 1   1.00000     0.00000     0
            
 38 39  0  0  0  0            999 V2000
    1.4871   -1.0483    2.7286 S   0  0  0  0  0  0  0  0  0  0  0  0
    1.5213   -0.4275    1.0287 C   0  0  3  0  0  0  0  0  0  0  0  0
    1.0000    1.0000    1.0000 C   0  0  0  0  0  0  0  0  0  0  0  0
    1.8483    1.8483    1.8483 N   0  0  0  0  0  0  0  0  0  0  0  0
    2.9826    2.5392    1.4161 C   0  0  0  0  0  0  0  0  0  0  0  0
    3.4156    2.5270    0.2752 O   0  0  0  0  0  0  0  0  0  0  0  0
    3.5520    3.2536    2.4732 N   0  0  0  0  0  0  0  0  0  0  0  0
    2.7487    3.0118    3.6751 C   0  0  3  0  0  0  0  0  0  0  0  0
    1.6491    2.0881    3.2054 C   0  0  0  0  0  0  0  0  0  0  0  0
    0.7552    1.6275    3.8971 O   0  0  0  0  0  0  0  0  0  0  0  0
    3.5849    2.3711    4.7713 C   0  0  0  0  0  0  0  0  0  0  0  0
    4.7379    3.2935    5.1339 C   0  0  0  0  0  0  0  0  0  0  0  0
    4.5777    4.2467    6.1348 C   0  0  0  0  0  0  0  0  0  0  0  0
    3.4051    4.3665    6.7935 O   0  0  0  0  0  0  0  0  0  0  0  0
    5.6328    5.0910    6.4664 C   0  0  0  0  0  0  0  0  0  0  0  0
    6.8480    4.9815    5.7975 C   0  0  0  0  0  0  0  0  0  0  0  0
    7.0079    4.0277    4.7972 C   0  0  0  0  0  0  0  0  0  0  0  0
    5.9530    3.1836    4.4660 C   0  0  0  0  0  0  0  0  0  0  0  0
    0.6437   -1.3051    0.1511 C   0  0  0  0  0  0  0  0  0  0  0  0
    2.1439   -2.7094    2.4367 C   0  0  0  0  0  0  0  0  0  0  0  0
    2.4604   -0.4464    0.6858 H   0  0  0  0  0  0  0  0  0  0  0  0
    1.0189    1.3429    0.0608 H   0  0  0  0  0  0  0  0  0  0  0  0
    0.0608    1.0189    1.3429 H   0  0  0  0  0  0  0  0  0  0  0  0
    4.3671    3.8304    2.4191 H   0  0  0  0  0  0  0  0  0  0  0  0
    2.3564    3.8714    4.0027 H   0  0  0  0  0  0  0  0  0  0  0  0
    3.0148    2.2169    5.5784 H   0  0  0  0  0  0  0  0  0  0  0  0
    3.9466    1.4971    4.4468 H   0  0  0  0  0  0  0  0  0  0  0  0
    3.3027    5.0556    7.5109 H   0  0  0  0  0  0  0  0  0  0  0  0
    5.5177    5.7764    7.1855 H   0  0  0  0  0  0  0  0  0  0  0  0
    7.6064    5.5882    6.0357 H   0  0  0  0  0  0  0  0  0  0  0  0
    7.8811    3.9490    4.3164 H   0  0  0  0  0  0  0  0  0  0  0  0
    6.0683    2.4976    3.7476 H   0  0  0  0  0  0  0  0  0  0  0  0
    0.6626   -0.9622   -0.7880 H   0  0  0  0  0  0  0  0  0  0  0  0
    0.9866   -2.2443    0.1700 H   0  0  0  0  0  0  0  0  0  0  0  0
   -0.2955   -1.2862    0.4941 H   0  0  0  0  0  0  0  0  0  0  0  0
    2.1927   -3.2056    3.3035 H   0  0  0  0  0  0  0  0  0  0  0  0
    1.5428   -3.1994    1.8055 H   0  0  0  0  0  0  0  0  0  0  0  0
    3.0593   -2.6409    2.0399 H   0  0  0  0  0  0  0  0  0  0  0  0
  1  2  1  0  0  0  0
  2  3  1  0  0  0  0
  3  4  1  0  0  0  0
  4  5  1  0  0  0  0
  5  6  2  0  0  0  0
  5  7  1  0  0  0  0
  7  8  1  0  0  0  0
  8  9  1  0  0  0  0
  9  4  1  0  0  0  0
  9 10  2  0  0  0  0
  8 11  1  0  0  0  0
 11 12  1  0  0  0  0
 12 13  1  0  0  0  0
 13 14  1  0  0  0  0
 13 15  2  0  0  0  0
 15 16  1  0  0  0  0
 16 17  2  0  0  0  0
 17 18  1  0  0  0  0
 18 12  2  0  0  0  0
  2 19  1  0  0  0  0
  1 20  1  0  0  0  0
  2 21  1  0  0  0  0
  3 22  1  0  0  0  0
  3 23  1  0  0  0  0
  7 24  1  0  0  0  0
  8 25  1  0  0  0  0
 11 26  1  0  0  0  0
 11 27  1  0  0  0  0
 14 28  1  0  0  0  0
 15 29  1  0  0  0  0
 16 30  1  0  0  0  0
 17 31  1  0  0  0  0
 18 32  1  0  0  0  0
 19 33  1  0  0  0  0
 19 34  1  0  0  0  0
 19 35  1  0  0  0  0
 20 36  1  0  0  0  0
 20 37  1  0  0  0  0
 20 38  1  0  0  0  0
M  END
>  <result-rank>
12

>  <similarity>
0.945

>  <query-name>
LIG_A_1101_CC(C)SC[R*]_1

>  <query-smiles>
S(C(C)C)CC(=O)[C@@H](NC(=O)C)Cc1ccc(O)cc1

>  <source>
REALspace_2019-12

>  <similarity-descriptor>
1.000;1.000;1.000;0.998;1.000;0.995;0.859;0.859;0.859;0.859;0.0;1.000;1.000;0.0

>  <similarity-descriptor-smiles>
c1ccccc1;SC;SC;C;C;C;N1C(CNC1=O)=O;N1C(CNC1=O)=O;N1C(CNC1=O)=O;N1C(CNC1=O)=O;;C;O;

>  <reaction-name>
s_272212

>  <reagent1-name>
13255400

>  <reagent1-smiles>
[R2*]N(C([R1*])=O)CC(SC)C

>  <reagent2-name>
11403114

>  <reagent2-smiles>
[R1*]N(Cc1c(O)cccc1)CC([R2*])=O

$$$$
s_22____12206138____17611650
          04022015093D 1   1.00000     0.00000     0
            
 42 42  0  0  0  0            999 V2000
    4.0832   -1.3910    2.8352 O   0  0  0  0  0  0  0  0  0  0  0  0
    3.9789   -0.3536    2.2411 C   0  0  0  0  0  0  0  0  0  0  0  0
    4.6181    0.7095    2.6621 O   0  0  0  0  0  0  0  0  0  0  0  0
    5.4345    0.6343    3.8216 C   0  0  0  0  0  0  0  0  0  0  0  0
    3.1050   -0.2731    1.0000 C   0  0  3  0  0  0  0  0  0  0  0  0
    2.3700    1.0000    1.0000 N   0  0  0  0  0  0  0  0  0  0  0  0
    1.0000    1.0000    1.0000 C   0  0  0  0  0  0  0  0  0  0  0  0
    0.4000   -0.0392    1.0000 O   0  0  0  0  0  0  0  0  0  0  0  0
    0.2400    2.3164    1.0000 C   0  0  0  0  0  0  0  0  0  0  0  0
    0.0843    2.9770   -0.1087 C   0  0  0  0  0  0  0  0  0  0  0  0
   -0.6757    4.2934   -0.1087 C   0  0  0  0  0  0  0  0  0  0  0  0
    0.2932    5.4378    0.1401 C   0  0  0  0  0  0  0  0  0  0  0  0
    0.6623    2.4331   -1.4051 C   0  0  0  0  0  0  0  0  0  0  0  0
    3.9789   -0.3536   -0.2411 C   0  0  0  0  0  0  0  0  0  0  0  0
    4.7391   -1.6703   -0.2411 C   0  0  0  0  0  0  0  0  0  0  0  0
    4.1830   -2.7945   -0.8436 C   0  0  0  0  0  0  0  0  0  0  0  0
    2.9692   -2.7337   -1.4322 O   0  0  0  0  0  0  0  0  0  0  0  0
    4.8786   -3.9995   -0.8435 C   0  0  0  0  0  0  0  0  0  0  0  0
    6.1304   -4.0800   -0.2412 C   0  0  0  0  0  0  0  0  0  0  0  0
    6.6863   -2.9555    0.3606 C   0  0  0  0  0  0  0  0  0  0  0  0
    5.9908   -1.7507    0.3600 C   0  0  0  0  0  0  0  0  0  0  0  0
    5.8444    1.5289    3.9992 H   0  0  0  0  0  0  0  0  0  0  0  0
    4.8762    0.3619    4.6052 H   0  0  0  0  0  0  0  0  0  0  0  0
    6.1578   -0.0409    3.6767 H   0  0  0  0  0  0  0  0  0  0  0  0
    2.4552   -1.0331    1.0000 H   0  0  0  0  0  0  0  0  0  0  0  0
    2.8700    1.8660    1.0000 H   0  0  0  0  0  0  0  0  0  0  0  0
   -0.1402    2.6742    1.8529 H   0  0  0  0  0  0  0  0  0  0  0  0
   -1.3672    4.2790    0.6135 H   0  0  0  0  0  0  0  0  0  0  0  0
   -1.1216    4.4208   -0.9947 H   0  0  0  0  0  0  0  0  0  0  0  0
   -0.2068    6.3038    0.1401 H   0  0  0  0  0  0  0  0  0  0  0  0
    0.7391    5.3104    1.0261 H   0  0  0  0  0  0  0  0  0  0  0  0
    0.9847    5.4522   -0.5821 H   0  0  0  0  0  0  0  0  0  0  0  0
    0.4517    3.0619   -2.1536 H   0  0  0  0  0  0  0  0  0  0  0  0
    1.6541    2.3419   -1.3155 H   0  0  0  0  0  0  0  0  0  0  0  0
    0.2613    1.5378   -1.5990 H   0  0  0  0  0  0  0  0  0  0  0  0
    3.4040   -0.3006   -1.0576 H   0  0  0  0  0  0  0  0  0  0  0  0
    4.6287    0.4065   -0.2411 H   0  0  0  0  0  0  0  0  0  0  0  0
    2.5805   -3.5488   -1.8619 H   0  0  0  0  0  0  0  0  0  0  0  0
    4.4789   -4.8077   -1.2761 H   0  0  0  0  0  0  0  0  0  0  0  0
    6.6304   -4.9460   -0.2409 H   0  0  0  0  0  0  0  0  0  0  0  0
    7.5859   -3.0132    0.7935 H   0  0  0  0  0  0  0  0  0  0  0  0
    6.3908   -0.9423    0.7919 H   0  0  0  0  0  0  0  0  0  0  0  0
  1  2  2  0  0  0  0
  2  3  1  0  0  0  0
  3  4  1  0  0  0  0
  2  5  1  0  0  0  0
  5  6  1  0  0  0  0
  6  7  1  0  0  0  0
  7  8  2  0  0  0  0
  7  9  1  0  0  0  0
  9 10  2  0  0  0  0
 10 11  1  0  0  0  0
 11 12  1  0  0  0  0
 10 13  1  0  0  0  0
  5 14  1  0  0  0  0
 14 15  1  0  0  0  0
 15 16  1  0  0  0  0
 16 17  1  0  0  0  0
 16 18  2  0  0  0  0
 18 19  1  0  0  0  0
 19 20  2  0  0  0  0
 20 21  1  0  0  0  0
 21 15  2  0  0  0  0
  4 22  1  0  0  0  0
  4 23  1  0  0  0  0
  4 24  1  0  0  0  0
  5 25  1  0  0  0  0
  6 26  1  0  0  0  0
  9 27  1  0  0  0  0
 11 28  1  0  0  0  0
 11 29  1  0  0  0  0
 12 30  1  0  0  0  0
 12 31  1  0  0  0  0
 12 32  1  0  0  0  0
 13 33  1  0  0  0  0
 13 34  1  0  0  0  0
 13 35  1  0  0  0  0
 14 36  1  0  0  0  0
 14 37  1  0  0  0  0
 17 38  1  0  0  0  0
 18 39  1  0  0  0  0
 19 40  1  0  0  0  0
 20 41  1  0  0  0  0
 21 42  1  0  0  0  0
M  END
>  <result-rank>
13

>  <similarity>
0.945

>  <query-name>
LIG_A_1101_CC(C)SC[R*]_1

>  <query-smiles>
S(C(C)C)CC(=O)[C@@H](NC(=O)C)Cc1ccc(O)cc1

>  <source>
REALspace_2019-12

>  <similarity-descriptor>
1.000;0.993;0.975;0.975;0.0;0.993;0.788;1.000;1.000;0.855;0.994;1.000;1.000;0.0

>  <similarity-descriptor-smiles>
c1ccccc1;CC;CC;CC;;CC;C(=O)C;CN;CN;O=CO;C;C;O;

>  <reaction-name>
s_22

>  <reagent1-name>
12206138

>  <reagent1-smiles>
[R1*]NC(C(=O)OC)Cc1c(O)cccc1

>  <reagent2-name>
17611650

>  <reagent2-smiles>
[R1*]C(=O)C=C(CC)C

$$$$
s_11a____14594094____13759172
          04022015093D 1   1.00000     0.00000     0
            
 48 48  0  0  0  0            999 V2000
    4.6995    0.8569   -0.3248 O   0  0  0  0  0  0  0  0  0  0  0  0
    4.2359   -0.2052   -0.0133 C   0  0  0  0  0  0  0  0  0  0  0  0
    4.7259   -1.3566   -0.5711 N   0  0  0  0  0  0  0  0  0  0  0  0
    6.0114   -1.3387   -1.2839 C   0  0  0  0  0  0  0  0  0  0  0  0
    3.9662   -2.6098   -0.4568 C   0  0  0  0  0  0  0  0  0  0  0  0
    3.1050   -0.2731    1.0000 C   0  0  3  0  0  0  0  0  0  0  0  0
    2.3700    1.0000    1.0000 N   0  0  0  0  0  0  0  0  0  0  0  0
    1.0000    1.0000    1.0000 C   0  0  0  0  0  0  0  0  0  0  0  0
    0.4000   -0.0392    1.0000 O   0  0  0  0  0  0  0  0  0  0  0  0
    0.2400    2.3164    1.0000 C   0  0  0  0  0  0  0  0  0  0  0  0
    0.0843    2.9770   -0.1087 C   0  0  0  0  0  0  0  0  0  0  0  0
    0.6623    2.4331   -1.4051 C   0  0  0  0  0  0  0  0  0  0  0  0
   -0.4599    2.2092   -2.4055 C   0  0  0  0  0  0  0  0  0  0  0  0
    1.6570    3.4315   -1.9745 C   0  0  0  0  0  0  0  0  0  0  0  0
   -0.6757    4.2934   -0.1087 C   0  0  0  0  0  0  0  0  0  0  0  0
    3.6795   -0.5264    2.3842 C   0  0  0  0  0  0  0  0  0  0  0  0
    2.6721   -1.3031    3.2167 C   0  0  0  0  0  0  0  0  0  0  0  0
    1.7361   -0.6164    3.9831 C   0  0  0  0  0  0  0  0  0  0  0  0
    0.8166   -1.3310    4.7440 C   0  0  0  0  0  0  0  0  0  0  0  0
    0.8367   -2.7217    4.7338 C   0  0  0  0  0  0  0  0  0  0  0  0
    1.7758   -3.3970    3.9641 C   0  0  0  0  0  0  0  0  0  0  0  0
    2.7010   -2.6940    3.1994 C   0  0  0  0  0  0  0  0  0  0  0  0
    6.2163   -2.2562   -1.6248 H   0  0  0  0  0  0  0  0  0  0  0  0
    5.9573   -0.7018   -2.0529 H   0  0  0  0  0  0  0  0  0  0  0  0
    6.7351   -1.0461   -0.6589 H   0  0  0  0  0  0  0  0  0  0  0  0
    4.4646   -3.3449   -0.9164 H   0  0  0  0  0  0  0  0  0  0  0  0
    3.8475   -2.8407    0.5089 H   0  0  0  0  0  0  0  0  0  0  0  0
    3.0697   -2.4964   -0.8850 H   0  0  0  0  0  0  0  0  0  0  0  0
    2.4830   -1.0171    0.7560 H   0  0  0  0  0  0  0  0  0  0  0  0
    2.8700    1.8660    1.0000 H   0  0  0  0  0  0  0  0  0  0  0  0
   -0.1402    2.6742    1.8529 H   0  0  0  0  0  0  0  0  0  0  0  0
    1.1264    1.5658   -1.2251 H   0  0  0  0  0  0  0  0  0  0  0  0
   -0.0797    1.8514   -3.2584 H   0  0  0  0  0  0  0  0  0  0  0  0
   -1.1144    1.5524   -2.0309 H   0  0  0  0  0  0  0  0  0  0  0  0
   -0.9240    3.0765   -2.5855 H   0  0  0  0  0  0  0  0  0  0  0  0
    2.0372    3.0736   -2.8274 H   0  0  0  0  0  0  0  0  0  0  0  0
    1.1929    4.2988   -2.1545 H   0  0  0  0  0  0  0  0  0  0  0  0
    2.3953    3.5788   -1.3163 H   0  0  0  0  0  0  0  0  0  0  0  0
   -0.7006    4.6639   -1.0372 H   0  0  0  0  0  0  0  0  0  0  0  0
   -1.6096    4.1391    0.2137 H   0  0  0  0  0  0  0  0  0  0  0  0
   -0.2169    4.9432    0.4973 H   0  0  0  0  0  0  0  0  0  0  0  0
    4.5238   -1.0562    2.3029 H   0  0  0  0  0  0  0  0  0  0  0  0
    3.8760    0.3476    2.8287 H   0  0  0  0  0  0  0  0  0  0  0  0
    1.7243    0.3835    3.9870 H   0  0  0  0  0  0  0  0  0  0  0  0
    0.1411   -0.8448    5.2984 H   0  0  0  0  0  0  0  0  0  0  0  0
    0.1753   -3.2354    5.2803 H   0  0  0  0  0  0  0  0  0  0  0  0
    1.7868   -4.3970    3.9598 H   0  0  0  0  0  0  0  0  0  0  0  0
    3.3766   -3.1808    2.6457 H   0  0  0  0  0  0  0  0  0  0  0  0
  1  2  2  0  0  0  0
  2  3  1  0  0  0  0
  3  4  1  0  0  0  0
  3  5  1  0  0  0  0
  2  6  1  0  0  0  0
  6  7  1  0  0  0  0
  7  8  1  0  0  0  0
  8  9  2  0  0  0  0
  8 10  1  0  0  0  0
 10 11  2  0  0  0  0
 11 12  1  0  0  0  0
 12 13  1  0  0  0  0
 12 14  1  0  0  0  0
 11 15  1  0  0  0  0
  6 16  1  0  0  0  0
 16 17  1  0  0  0  0
 17 18  1  0  0  0  0
 18 19  2  0  0  0  0
 19 20  1  0  0  0  0
 20 21  2  0  0  0  0
 21 22  1  0  0  0  0
 22 17  2  0  0  0  0
  4 23  1  0  0  0  0
  4 24  1  0  0  0  0
  4 25  1  0  0  0  0
  5 26  1  0  0  0  0
  5 27  1  0  0  0  0
  5 28  1  0  0  0  0
  6 29  1  0  0  0  0
  7 30  1  0  0  0  0
 10 31  1  0  0  0  0
 12 32  1  0  0  0  0
 13 33  1  0  0  0  0
 13 34  1  0  0  0  0
 13 35  1  0  0  0  0
 14 36  1  0  0  0  0
 14 37  1  0  0  0  0
 14 38  1  0  0  0  0
 15 39  1  0  0  0  0
 15 40  1  0  0  0  0
 15 41  1  0  0  0  0
 16 42  1  0  0  0  0
 16 43  1  0  0  0  0
 18 44  1  0  0  0  0
 19 45  1  0  0  0  0
 20 46  1  0  0  0  0
 21 47  1  0  0  0  0
 22 48  1  0  0  0  0
M  END
>  <result-rank>
14

>  <similarity>
0.945

>  <query-name>
LIG_A_1101_CC(C)SC[R*]_1

>  <query-smiles>
S(C(C)C)CC(=O)[C@@H](NC(=O)C)Cc1ccc(O)cc1

>  <source>
REALspace_2019-12

>  <similarity-descriptor>
0.960;0.993;0.999;0.999;1.000;0.993;0.788;1.000;1.000;1.000;0.977;1.000;0.0;0.067

>  <similarity-descriptor-smiles>
c1ccccc1;CC;CC;CC;C;CC;C(=O)C;CN;CN;O=C;NC;C;;C

>  <reaction-name>
s_11a

>  <reagent1-name>
14594094

>  <reagent1-smiles>
[R1*]NC(C(=O)N(C)C)Cc1ccccc1

>  <reagent2-name>
13759172

>  <reagent2-smiles>
[R1*]C(=O)C=C(C(C)C)C

$$$$
s_527a____6362582____217438
          04022015093D 1   1.00000     0.00000     0
            
 45 45  0  0  0  0            999 V2000
    1.6287   -2.8076   -4.4731 Cl  0  0  0  0  0  0  0  0  0  0  0  0
    2.0403   -1.5646   -3.2675 C   0  0  0  0  0  0  0  0  0  0  0  0
    2.8044   -1.9046   -2.1567 C   0  0  0  0  0  0  0  0  0  0  0  0
    3.1278   -0.9363   -1.2116 C   0  0  0  0  0  0  0  0  0  0  0  0
    2.6787    0.3673   -1.3944 C   0  0  0  0  0  0  0  0  0  0  0  0
    1.9143    0.7077   -2.5049 C   0  0  0  0  0  0  0  0  0  0  0  0
    1.5908   -0.2609   -3.4501 C   0  0  0  0  0  0  0  0  0  0  0  0
    3.0267    1.4309   -0.3667 C   0  0  3  0  0  0  0  0  0  0  0  0
    4.4855    1.6046   -0.3161 N   0  0  0  0  0  0  0  0  0  0  0  0
    5.0404    2.8242   -0.6018 C   0  0  0  0  0  0  0  0  0  0  0  0
    4.3356    3.7506   -0.8934 O   0  0  0  0  0  0  0  0  0  0  0  0
    6.5489    3.0038   -0.5495 C   0  0  0  0  0  0  0  0  0  0  0  0
    2.5200    1.0000    1.0000 C   0  0  0  0  0  0  0  0  0  0  0  0
    1.0000    1.0000    1.0000 C   0  0  0  0  0  0  0  0  0  0  0  0
    0.4000    1.0000   -0.0392 O   0  0  0  0  0  0  0  0  0  0  0  0
    0.3150    1.0000    2.1865 N   0  0  0  0  0  0  0  0  0  0  0  0
   -1.1550    1.0000    2.1865 C   0  0  0  0  0  0  0  0  0  0  0  0
   -1.6617    1.0000    3.6195 C   0  0  0  0  0  0  0  0  0  0  0  0
   -3.4717    1.0000    3.6195 S   0  0  0  0  0  0  0  0  0  0  0  0
   -3.7548    1.0000    5.4072 C   0  0  0  0  0  0  0  0  0  0  0  0
   -1.1550   -0.2411    4.3361 C   0  0  0  0  0  0  0  0  0  0  0  0
   -1.1550    2.2411    4.3361 C   0  0  0  0  0  0  0  0  0  0  0  0
    3.1216   -2.8454   -2.0371 H   0  0  0  0  0  0  0  0  0  0  0  0
    3.6767   -1.1747   -0.4104 H   0  0  0  0  0  0  0  0  0  0  0  0
    1.5971    1.6485   -2.6242 H   0  0  0  0  0  0  0  0  0  0  0  0
    1.0417   -0.0225   -4.2512 H   0  0  0  0  0  0  0  0  0  0  0  0
    2.5967    2.2963   -0.6240 H   0  0  0  0  0  0  0  0  0  0  0  0
    5.0728    0.8326   -0.0731 H   0  0  0  0  0  0  0  0  0  0  0  0
    6.9789    2.1384   -0.2922 H   0  0  0  0  0  0  0  0  0  0  0  0
    6.8822    3.2873   -1.4486 H   0  0  0  0  0  0  0  0  0  0  0  0
    6.7779    3.7039    0.1269 H   0  0  0  0  0  0  0  0  0  0  0  0
    2.8533    0.0795    1.2041 H   0  0  0  0  0  0  0  0  0  0  0  0
    2.8533    1.6370    1.6951 H   0  0  0  0  0  0  0  0  0  0  0  0
    0.8150    1.0000    3.0525 H   0  0  0  0  0  0  0  0  0  0  0  0
   -1.4883    0.1835    1.7151 H   0  0  0  0  0  0  0  0  0  0  0  0
   -1.4883    1.8165    1.7151 H   0  0  0  0  0  0  0  0  0  0  0  0
   -4.7382    1.0000    5.5890 H   0  0  0  0  0  0  0  0  0  0  0  0
   -3.3414    0.1835    5.8102 H   0  0  0  0  0  0  0  0  0  0  0  0
   -3.3414    1.8165    5.8102 H   0  0  0  0  0  0  0  0  0  0  0  0
   -0.1550   -0.2411    4.3361 H   0  0  0  0  0  0  0  0  0  0  0  0
   -1.4883   -0.2411    5.2789 H   0  0  0  0  0  0  0  0  0  0  0  0
   -1.4883   -1.0576    3.8647 H   0  0  0  0  0  0  0  0  0  0  0  0
   -0.1550    2.2411    4.3361 H   0  0  0  0  0  0  0  0  0  0  0  0
   -1.4883    3.0576    3.8647 H   0  0  0  0  0  0  0  0  0  0  0  0
   -1.4883    2.2411    5.2789 H   0  0  0  0  0  0  0  0  0  0  0  0
  1  2  1  0  0  0  0
  2  3  1  0  0  0  0
  3  4  2  0  0  0  0
  4  5  1  0  0  0  0
  5  6  2  0  0  0  0
  6  7  1  0  0  0  0
  7  2  2  0  0  0  0
  5  8  1  0  0  0  0
  8  9  1  0  0  0  0
  9 10  1  0  0  0  0
 10 11  2  0  0  0  0
 10 12  1  0  0  0  0
  8 13  1  0  0  0  0
 13 14  1  0  0  0  0
 14 15  2  0  0  0  0
 14 16  1  0  0  0  0
 16 17  1  0  0  0  0
 17 18  1  0  0  0  0
 18 19  1  0  0  0  0
 19 20  1  0  0  0  0
 18 21  1  0  0  0  0
 18 22  1  0  0  0  0
  3 23  1  0  0  0  0
  4 24  1  0  0  0  0
  6 25  1  0  0  0  0
  7 26  1  0  0  0  0
  8 27  1  0  0  0  0
  9 28  1  0  0  0  0
 12 29  1  0  0  0  0
 12 30  1  0  0  0  0
 12 31  1  0  0  0  0
 13 32  1  0  0  0  0
 13 33  1  0  0  0  0
 16 34  1  0  0  0  0
 17 35  1  0  0  0  0
 17 36  1  0  0  0  0
 20 37  1  0  0  0  0
 20 38  1  0  0  0  0
 20 39  1  0  0  0  0
 21 40  1  0  0  0  0
 21 41  1  0  0  0  0
 21 42  1  0  0  0  0
 22 43  1  0  0  0  0
 22 44  1  0  0  0  0
 22 45  1  0  0  0  0
M  END
>  <result-rank>
15

>  <similarity>
0.944

>  <query-name>
LIG_A_1101_CC(C)SC[R*]_1

>  <query-smiles>
S(C(C)C)CC(=O)[C@@H](NC(=O)C)Cc1ccc(O)cc1

>  <source>
REALspace_2019-12

>  <similarity-descriptor>
0.968;0.922;0.922;0.998;1.000;0.995;0.763;1.000;1.000;1.000;1.000;1.000;0.0;0.0

>  <similarity-descriptor-smiles>
Clc1ccccc1;C(S)C;C(S)C;C;C;C;C(=O)N;CC;N;C=O;C;CC;;

>  <reaction-name>
s_527a

>  <reagent1-name>
6362582

>  <reagent1-smiles>
[R1*]NCC(SC)(C)C

>  <reagent2-name>
217438

>  <reagent2-smiles>
[R1*]C(=O)CC(NC(=O)C)c1ccc(Cl)cc1

$$$$
s_188690b____14468518____8287470
          04022015093D 1   1.00000     0.00000     0
            
 41 41  0  0  0  0            999 V2000
    0.6517    1.8583   -0.5550 S   0  0  0  0  0  0  0  0  0  0  0  0
    1.0000    1.0000    1.0000 C   0  0  0  0  0  0  0  0  0  0  0  0
    1.8776    1.8776    1.8776 C   0  0  0  0  0  0  0  0  0  0  0  0
    3.0725    1.7997    1.7997 O   0  0  0  0  0  0  0  0  0  0  0  0
    1.3043    2.7574    2.7574 N   0  0  0  0  0  0  0  0  0  0  0  0
    2.1530    3.6061    3.6061 C   0  0  3  0  0  0  0  0  0  0  0  0
    1.8605    3.3136    5.0688 C   0  0  0  0  0  0  0  0  0  0  0  0
    2.7186    3.4875    5.9039 O   0  5  0  0  0  0  0  0  0  0  0  0
    0.7334    2.8934    5.4088 O   0  0  0  0  0  0  0  0  0  0  0  0
    1.8605    5.0688    3.3136 C   0  0  0  0  0  0  0  0  0  0  0  0
    2.8623    5.9432    4.0508 C   0  0  0  0  0  0  0  0  0  0  0  0
    4.1208    6.1723    3.5033 C   0  0  0  0  0  0  0  0  0  0  0  0
    4.4690    5.6252    2.3189 O   0  0  0  0  0  0  0  0  0  0  0  0
    5.0377    6.9723    4.1780 C   0  0  0  0  0  0  0  0  0  0  0  0
    4.6956    7.5437    5.3998 C   0  0  0  0  0  0  0  0  0  0  0  0
    3.4368    7.3150    5.9465 C   0  0  0  0  0  0  0  0  0  0  0  0
    2.5202    6.5153    5.2716 C   0  0  0  0  0  0  0  0  0  0  0  0
   -0.3759    0.5981   -1.3500 C   0  0  0  0  0  0  0  0  0  0  0  0
   -0.8140    1.0914   -2.7194 C   0  0  0  0  0  0  0  0  0  0  0  0
   -1.6769    0.0332   -3.3870 C   0  0  0  0  0  0  0  0  0  0  0  0
   -2.1149    0.5265   -4.7564 C   0  0  0  0  0  0  0  0  0  0  0  0
    1.4742    0.1409    0.8075 H   0  0  0  0  0  0  0  0  0  0  0  0
    0.1409    0.8075    1.4742 H   0  0  0  0  0  0  0  0  0  0  0  0
    0.3085    2.8223    2.8223 H   0  0  0  0  0  0  0  0  0  0  0  0
    3.1153    3.4137    3.4137 H   0  0  0  0  0  0  0  0  0  0  0  0
    1.9347    5.2333    2.3300 H   0  0  0  0  0  0  0  0  0  0  0  0
    0.9349    5.2913    3.6199 H   0  0  0  0  0  0  0  0  0  0  0  0
    5.3766    5.7975    1.9361 H   0  0  0  0  0  0  0  0  0  0  0  0
    5.9424    7.1367    3.7849 H   0  0  0  0  0  0  0  0  0  0  0  0
    5.3544    8.1188    5.8849 H   0  0  0  0  0  0  0  0  0  0  0  0
    3.1909    7.7255    6.8246 H   0  0  0  0  0  0  0  0  0  0  0  0
    1.6152    6.3516    5.6642 H   0  0  0  0  0  0  0  0  0  0  0  0
   -1.1824    0.4211   -0.7858 H   0  0  0  0  0  0  0  0  0  0  0  0
    0.1509   -0.2456   -1.4525 H   0  0  0  0  0  0  0  0  0  0  0  0
   -0.0075    1.2685   -3.2835 H   0  0  0  0  0  0  0  0  0  0  0  0
   -1.3408    1.9352   -2.6169 H   0  0  0  0  0  0  0  0  0  0  0  0
   -2.4834   -0.1439   -2.8228 H   0  0  0  0  0  0  0  0  0  0  0  0
   -1.1500   -0.8106   -3.4895 H   0  0  0  0  0  0  0  0  0  0  0  0
   -2.6827   -0.1698   -5.1956 H   0  0  0  0  0  0  0  0  0  0  0  0
   -2.6418    1.3702   -4.6539 H   0  0  0  0  0  0  0  0  0  0  0  0
   -1.3085    0.7035   -5.3205 H   0  0  0  0  0  0  0  0  0  0  0  0
  1  2  1  0  0  0  0
  2  3  1  0  0  0  0
  3  4  2  0  0  0  0
  3  5  1  0  0  0  0
  5  6  1  0  0  0  0
  6  7  1  0  0  0  0
  7  8  1  0  0  0  0
  7  9  2  0  0  0  0
  6 10  1  0  0  0  0
 10 11  1  0  0  0  0
 11 12  1  0  0  0  0
 12 13  1  0  0  0  0
 12 14  2  0  0  0  0
 14 15  1  0  0  0  0
 15 16  2  0  0  0  0
 16 17  1  0  0  0  0
 17 11  2  0  0  0  0
  1 18  1  0  0  0  0
 18 19  1  0  0  0  0
 19 20  1  0  0  0  0
 20 21  1  0  0  0  0
  2 22  1  0  0  0  0
  2 23  1  0  0  0  0
  5 24  1  0  0  0  0
  6 25  1  0  0  0  0
 10 26  1  0  0  0  0
 10 27  1  0  0  0  0
 13 28  1  0  0  0  0
 14 29  1  0  0  0  0
 15 30  1  0  0  0  0
 16 31  1  0  0  0  0
 17 32  1  0  0  0  0
 18 33  1  0  0  0  0
 18 34  1  0  0  0  0
 19 35  1  0  0  0  0
 19 36  1  0  0  0  0
 20 37  1  0  0  0  0
 20 38  1  0  0  0  0
 21 39  1  0  0  0  0
 21 40  1  0  0  0  0
 21 41  1  0  0  0  0
M  CHG  1   8  -1
M  END
>  <result-rank>
16

>  <similarity>
0.941

>  <query-name>
LIG_A_1101_CC(C)SC[R*]_1

>  <query-smiles>
S(C(C)C)CC(=O)[C@@H](NC(=O)C)Cc1ccc(O)cc1

>  <source>
REALspace_2019-12

>  <similarity-descriptor>
1.000;1.000;0.998;0.998;0.949;1.000;0.907;1.000;1.000;0.733;0.733;1.000;1.000;0.077

>  <similarity-descriptor-smiles>
c1ccccc1;S;CC;CC;C;C;C=O;NC;NC;C([O-])=O;C([O-])=O;C;O;C

>  <reaction-name>
s_188690b

>  <reagent1-name>
14468518

>  <reagent1-smiles>
[R1*]NC(C(=O)O)Cc1c(O)cccc1

>  <reagent2-name>
8287470

>  <reagent2-smiles>
[R1*]C(=O)CSCCCC

$$$$
s_22____9866142____548060
          04022015093D 1   1.00000     0.00000     0
            
 42 42  0  0  0  0            999 V2000
    0.8251    4.4360   -2.0741 S   0  0  0  0  0  0  0  0  0  0  0  0
    1.2215    2.8306   -1.6695 C   0  0  0  0  0  0  0  0  0  0  0  0
    0.2272    2.4116   -0.8364 C   0  0  0  0  0  0  0  0  0  0  0  0
   -0.7741    3.3832   -0.5686 C   0  0  0  0  0  0  0  0  0  0  0  0
   -0.6184    4.5911   -1.1786 C   0  0  0  0  0  0  0  0  0  0  0  0
    0.2650    1.0000   -0.2731 C   0  0  0  0  0  0  0  0  0  0  0  0
    1.0000    1.0000    1.0000 N   0  0  0  0  0  0  0  0  0  0  0  0
    0.3150    1.0000    2.1865 C   0  0  0  0  0  0  0  0  0  0  0  0
    0.9150    1.0000    3.2257 O   0  0  0  0  0  0  0  0  0  0  0  0
   -1.2050    1.0000    2.1865 C   0  0  0  0  0  0  0  0  0  0  0  0
   -1.8083   -0.7065    2.1865 S   0  0  0  0  0  0  0  0  0  0  0  0
   -3.5882   -0.3775    2.1865 C   0  0  0  0  0  0  0  0  0  0  0  0
   -4.3469   -1.6947    2.1865 C   0  0  0  0  0  0  0  0  0  0  0  0
   -3.9562    0.4192    3.4275 C   0  0  0  0  0  0  0  0  0  0  0  0
    2.4700    1.0000    1.0000 C   0  0  0  0  0  0  0  0  0  0  0  0
    2.9767   -0.4331    1.0000 C   0  0  0  0  0  0  0  0  0  0  0  0
    4.4467   -0.4331    1.0000 N   0  0  0  0  0  0  0  0  0  0  0  0
    5.1317   -0.2270    2.1684 C   0  0  0  0  0  0  0  0  0  0  0  0
    4.5317   -0.0466    3.1919 O   0  0  0  0  0  0  0  0  0  0  0  0
    6.6517   -0.2270    2.1684 C   0  0  0  0  0  0  0  0  0  0  0  0
    2.0153    2.3062   -1.9776 H   0  0  0  0  0  0  0  0  0  0  0  0
   -1.5491    3.1913    0.0335 H   0  0  0  0  0  0  0  0  0  0  0  0
   -1.2166    5.3900   -1.1155 H   0  0  0  0  0  0  0  0  0  0  0  0
   -0.6689    0.6775   -0.1188 H   0  0  0  0  0  0  0  0  0  0  0  0
    0.7238    0.3940   -0.9228 H   0  0  0  0  0  0  0  0  0  0  0  0
   -1.5383    1.4714    3.0030 H   0  0  0  0  0  0  0  0  0  0  0  0
   -1.5383    1.4714    1.3700 H   0  0  0  0  0  0  0  0  0  0  0  0
   -3.8303    0.1466    1.3700 H   0  0  0  0  0  0  0  0  0  0  0  0
   -5.3302   -1.5129    2.1865 H   0  0  0  0  0  0  0  0  0  0  0  0
   -4.1048   -2.2188    1.3700 H   0  0  0  0  0  0  0  0  0  0  0  0
   -4.1048   -2.2188    3.0030 H   0  0  0  0  0  0  0  0  0  0  0  0
   -4.9395    0.6009    3.4275 H   0  0  0  0  0  0  0  0  0  0  0  0
   -3.7141   -0.1050    4.2440 H   0  0  0  0  0  0  0  0  0  0  0  0
   -3.4571    1.2857    3.4275 H   0  0  0  0  0  0  0  0  0  0  0  0
    2.8033    1.4714    1.8165 H   0  0  0  0  0  0  0  0  0  0  0  0
    2.8033    1.4714    0.1835 H   0  0  0  0  0  0  0  0  0  0  0  0
    2.6433   -0.9045    1.8165 H   0  0  0  0  0  0  0  0  0  0  0  0
    2.6433   -0.9045    0.1835 H   0  0  0  0  0  0  0  0  0  0  0  0
    4.9467   -0.5835    0.1471 H   0  0  0  0  0  0  0  0  0  0  0  0
    6.9850   -0.3908    1.2399 H   0  0  0  0  0  0  0  0  0  0  0  0
    6.9850    0.6589    2.4909 H   0  0  0  0  0  0  0  0  0  0  0  0
    6.9850   -0.9493    2.7745 H   0  0  0  0  0  0  0  0  0  0  0  0
  1  2  1  0  0  0  0
  2  3  2  0  0  0  0
  3  4  1  0  0  0  0
  4  5  2  0  0  0  0
  5  1  1  0  0  0  0
  3  6  1  0  0  0  0
  6  7  1  0  0  0  0
  7  8  1  0  0  0  0
  8  9  2  0  0  0  0
  8 10  1  0  0  0  0
 10 11  1  0  0  0  0
 11 12  1  0  0  0  0
 12 13  1  0  0  0  0
 12 14  1  0  0  0  0
  7 15  1  0  0  0  0
 15 16  1  0  0  0  0
 16 17  1  0  0  0  0
 17 18  1  0  0  0  0
 18 19  2  0  0  0  0
 18 20  1  0  0  0  0
  2 21  1  0  0  0  0
  4 22  1  0  0  0  0
  5 23  1  0  0  0  0
  6 24  1  0  0  0  0
  6 25  1  0  0  0  0
 10 26  1  0  0  0  0
 10 27  1  0  0  0  0
 12 28  1  0  0  0  0
 13 29  1  0  0  0  0
 13 30  1  0  0  0  0
 13 31  1  0  0  0  0
 14 32  1  0  0  0  0
 14 33  1  0  0  0  0
 14 34  1  0  0  0  0
 15 35  1  0  0  0  0
 15 36  1  0  0  0  0
 16 37  1  0  0  0  0
 16 38  1  0  0  0  0
 17 39  1  0  0  0  0
 20 40  1  0  0  0  0
 20 41  1  0  0  0  0
 20 42  1  0  0  0  0
M  END
>  <result-rank>
17

>  <similarity>
0.941

>  <query-name>
LIG_A_1101_CC(C)SC[R*]_1

>  <query-smiles>
S(C(C)C)CC(=O)[C@@H](NC(=O)C)Cc1ccc(O)cc1

>  <source>
REALspace_2019-12

>  <similarity-descriptor>
0.882;1.000;1.000;1.000;1.000;1.000;0.907;0.952;1.000;1.000;1.000;0.952;0.0;0.0

>  <similarity-descriptor-smiles>
S1C=CC(=C1)C;S;C;C;C;C;C=O;NCC;N;C=O;C;NCC;;

>  <reaction-name>
s_22

>  <reagent1-name>
9866142

>  <reagent1-smiles>
[R1*]N(CC1=CSC=C1)CCNC(=O)C

>  <reagent2-name>
548060

>  <reagent2-smiles>
[R1*]C(=O)CSC(C)C

$$$$
s_22____11620984____107338
          04022015093D 1   1.00000     0.00000     0
            
 49 49  0  0  0  0            999 V2000
   -2.3835   -1.7720    3.2548 S   0  0  0  0  0  0  0  0  0  0  0  0
   -1.0411   -0.5764    3.4659 C   0  0  0  0  0  0  0  0  0  0  0  0
   -1.0073    0.3635    2.2717 C   0  0  0  0  0  0  0  0  0  0  0  0
    0.3150    1.0000    2.1865 N   0  0  0  0  0  0  0  0  0  0  0  0
    1.0000    1.0000    1.0000 C   0  0  0  0  0  0  0  0  0  0  0  0
    0.4000    1.0000   -0.0392 O   0  0  0  0  0  0  0  0  0  0  0  0
    2.5200    1.0000    1.0000 C   0  0  0  0  0  0  0  0  0  0  0  0
    3.0267   -0.4331    1.0000 C   0  0  3  0  0  0  0  0  0  0  0  0
    3.4169   -0.8148    2.3649 N   0  0  0  0  0  0  0  0  0  0  0  0
    2.4971   -1.3822    3.2069 C   0  0  0  0  0  0  0  0  0  0  0  0
    1.5088   -1.8941    2.7586 O   0  0  0  0  0  0  0  0  0  0  0  0
    2.7286   -1.3632    4.7091 C   0  0  0  0  0  0  0  0  0  0  0  0
    4.2306   -0.5448    0.0788 C   0  0  0  0  0  0  0  0  0  0  0  0
    5.5065   -0.3357    0.5917 C   0  0  0  0  0  0  0  0  0  0  0  0
    6.6112   -0.4376   -0.2472 C   0  0  0  0  0  0  0  0  0  0  0  0
    6.4252   -0.7485   -1.5906 C   0  0  0  0  0  0  0  0  0  0  0  0
    7.5500   -0.8532   -2.4509 O   0  0  0  0  0  0  0  0  0  0  0  0
    7.3673   -1.1702   -3.8230 C   0  0  0  0  0  0  0  0  0  0  0  0
    5.1513   -0.9583   -2.1087 C   0  0  0  0  0  0  0  0  0  0  0  0
    4.0503   -0.8555   -1.2651 C   0  0  0  0  0  0  0  0  0  0  0  0
    0.9023    1.6365    3.3742 C   0  0  0  0  0  0  0  0  0  0  0  0
    0.0530    2.8293    3.7820 C   0  0  0  0  0  0  0  0  0  0  0  0
   -2.1669   -2.7139    4.7852 C   0  0  0  0  0  0  0  0  0  0  0  0
   -0.1696   -1.0620    3.5326 H   0  0  0  0  0  0  0  0  0  0  0  0
   -1.1933   -0.0484    4.3014 H   0  0  0  0  0  0  0  0  0  0  0  0
   -1.1824   -0.1548    1.4346 H   0  0  0  0  0  0  0  0  0  0  0  0
   -1.7095    1.0670    2.3812 H   0  0  0  0  0  0  0  0  0  0  0  0
    2.8533    1.4714    1.8165 H   0  0  0  0  0  0  0  0  0  0  0  0
    2.8533    1.4714    0.1835 H   0  0  0  0  0  0  0  0  0  0  0  0
    2.3025   -1.0427    0.6775 H   0  0  0  0  0  0  0  0  0  0  0  0
    4.3537   -0.6604    2.6787 H   0  0  0  0  0  0  0  0  0  0  0  0
    3.5932   -0.9014    4.9073 H   0  0  0  0  0  0  0  0  0  0  0  0
    1.9794   -0.8741    5.1556 H   0  0  0  0  0  0  0  0  0  0  0  0
    2.7656   -2.3017    5.0525 H   0  0  0  0  0  0  0  0  0  0  0  0
    5.6290   -0.1131    1.5589 H   0  0  0  0  0  0  0  0  0  0  0  0
    7.5323   -0.2886    0.1124 H   0  0  0  0  0  0  0  0  0  0  0  0
    8.2569   -1.2034   -4.2787 H   0  0  0  0  0  0  0  0  0  0  0  0
    6.9185   -2.0602   -3.9026 H   0  0  0  0  0  0  0  0  0  0  0  0
    6.7980   -0.4700   -4.2539 H   0  0  0  0  0  0  0  0  0  0  0  0
    5.0286   -1.1803   -3.0760 H   0  0  0  0  0  0  0  0  0  0  0  0
    3.1292   -1.0048   -1.6246 H   0  0  0  0  0  0  0  0  0  0  0  0
    1.8300    1.9445    3.1630 H   0  0  0  0  0  0  0  0  0  0  0  0
    0.9329    0.9768    4.1251 H   0  0  0  0  0  0  0  0  0  0  0  0
    0.4525    3.2623    4.5900 H   0  0  0  0  0  0  0  0  0  0  0  0
    0.0223    3.4890    3.0311 H   0  0  0  0  0  0  0  0  0  0  0  0
   -0.8747    2.5213    3.9932 H   0  0  0  0  0  0  0  0  0  0  0  0
   -2.8529   -3.4403    4.8294 H   0  0  0  0  0  0  0  0  0  0  0  0
   -1.2523   -3.1178    4.8014 H   0  0  0  0  0  0  0  0  0  0  0  0
   -2.2760   -2.1041    5.5702 H   0  0  0  0  0  0  0  0  0  0  0  0
  1  2  1  0  0  0  0
  2  3  1  0  0  0  0
  3  4  1  0  0  0  0
  4  5  1  0  0  0  0
  5  6  2  0  0  0  0
  5  7  1  0  0  0  0
  7  8  1  0  0  0  0
  8  9  1  0  0  0  0
  9 10  1  0  0  0  0
 10 11  2  0  0  0  0
 10 12  1  0  0  0  0
  8 13  1  0  0  0  0
 13 14  1  0  0  0  0
 14 15  2  0  0  0  0
 15 16  1  0  0  0  0
 16 17  1  0  0  0  0
 17 18  1  0  0  0  0
 16 19  2  0  0  0  0
 19 20  1  0  0  0  0
 20 13  2  0  0  0  0
  4 21  1  0  0  0  0
 21 22  1  0  0  0  0
  1 23  1  0  0  0  0
  2 24  1  0  0  0  0
  2 25  1  0  0  0  0
  3 26  1  0  0  0  0
  3 27  1  0  0  0  0
  7 28  1  0  0  0  0
  7 29  1  0  0  0  0
  8 30  1  0  0  0  0
  9 31  1  0  0  0  0
 12 32  1  0  0  0  0
 12 33  1  0  0  0  0
 12 34  1  0  0  0  0
 14 35  1  0  0  0  0
 15 36  1  0  0  0  0
 18 37  1  0  0  0  0
 18 38  1  0  0  0  0
 18 39  1  0  0  0  0
 19 40  1  0  0  0  0
 20 41  1  0  0  0  0
 21 42  1  0  0  0  0
 21 43  1  0  0  0  0
 22 44  1  0  0  0  0
 22 45  1  0  0  0  0
 22 46  1  0  0  0  0
 23 47  1  0  0  0  0
 23 48  1  0  0  0  0
 23 49  1  0  0  0  0
M  END
>  <result-rank>
18

>  <similarity>
0.940

>  <query-name>
LIG_A_1101_CC(C)SC[R*]_1

>  <query-smiles>
S(C(C)C)CC(=O)[C@@H](NC(=O)C)Cc1ccc(O)cc1

>  <source>
REALspace_2019-12

>  <similarity-descriptor>
1.000;0.966;0.966;0.0;0.998;0.970;0.907;1.000;1.000;1.000;1.000;1.000;0.704;0.188

>  <similarity-descriptor-smiles>
c1ccccc1;SC;SC;;C;CN;C=O;CC;N;C=O;C;CC;O;C.C.C

>  <reaction-name>
s_22

>  <reagent1-name>
11620984

>  <reagent1-smiles>
[R1*]N(CCSC)CC

>  <reagent2-name>
107338

>  <reagent2-smiles>
[R1*]C(=O)CC(NC(=O)C)c1ccc(OC)cc1

$$$$
s_22____7866888____12624298
          04022015093D 1   1.00000     0.00000     0
            
 40 40  0  0  0  0            999 V2000
    2.5652    6.3385    0.1087 Br  0  0  0  0  0  0  0  0  0  0  0  0
    3.1025    4.7404    1.1079 C   0  0  0  0  0  0  0  0  0  0  0  0
    2.6367    3.4918    0.7108 C   0  0  0  0  0  0  0  0  0  0  0  0
    3.0268    2.3670    1.4310 C   0  0  0  0  0  0  0  0  0  0  0  0
    3.8687    2.4782    2.5323 C   0  0  0  0  0  0  0  0  0  0  0  0
    4.3225    3.7369    2.9127 C   0  0  0  0  0  0  0  0  0  0  0  0
    3.9448    4.8741    2.2065 C   0  0  0  0  0  0  0  0  0  0  0  0
    2.5200    1.0000    1.0000 C   0  0  3  0  0  0  0  0  0  0  0  0
    3.0100    0.7000   -0.3531 N   0  0  0  0  0  0  0  0  0  0  0  0
    3.7976   -0.4001   -0.5681 C   0  0  0  0  0  0  0  0  0  0  0  0
    4.0875   -1.1188    0.3480 O   0  0  0  0  0  0  0  0  0  0  0  0
    4.3043   -0.7103   -1.9672 C   0  0  0  0  0  0  0  0  0  0  0  0
    1.0000    1.0000    1.0000 C   0  0  0  0  0  0  0  0  0  0  0  0
    0.4000    1.0000   -0.0392 O   0  0  0  0  0  0  0  0  0  0  0  0
    0.3150    1.0000    2.1865 N   0  0  0  0  0  0  0  0  0  0  0  0
    1.0458    0.8890    3.4571 C   0  0  0  0  0  0  0  0  0  0  0  0
    1.0553   -0.5615    3.9111 C   0  0  0  0  0  0  0  0  0  0  0  0
    0.5252   -0.8890    5.0521 C   0  0  0  0  0  0  0  0  0  0  0  0
   -1.1508    1.1110    2.1889 C   0  0  0  0  0  0  0  0  0  0  0  0
   -1.5479    2.5768    2.2522 C   0  0  0  0  0  0  0  0  0  0  0  0
   -2.9638    2.6840    2.2545 O   0  0  0  0  0  0  0  0  0  0  0  0
    2.0310    3.4037   -0.0800 H   0  0  0  0  0  0  0  0  0  0  0  0
    4.1442    1.6643    3.0438 H   0  0  0  0  0  0  0  0  0  0  0  0
    4.9278    3.8253    3.7038 H   0  0  0  0  0  0  0  0  0  0  0  0
    4.2746    5.7761    2.4851 H   0  0  0  0  0  0  0  0  0  0  0  0
    2.8533    0.3049    1.6370 H   0  0  0  0  0  0  0  0  0  0  0  0
    2.7684    1.2990   -1.1166 H   0  0  0  0  0  0  0  0  0  0  0  0
    3.9710   -0.0152   -2.6042 H   0  0  0  0  0  0  0  0  0  0  0  0
    5.3043   -0.7103   -1.9672 H   0  0  0  0  0  0  0  0  0  0  0  0
    3.9710   -1.6094   -2.2508 H   0  0  0  0  0  0  0  0  0  0  0  0
    0.5964    1.4524    4.1504 H   0  0  0  0  0  0  0  0  0  0  0  0
    1.9861    1.2045    3.3295 H   0  0  0  0  0  0  0  0  0  0  0  0
    1.4693   -1.2640    3.3322 H   0  0  0  0  0  0  0  0  0  0  0  0
    0.5315   -1.8433    5.3508 H   0  0  0  0  0  0  0  0  0  0  0  0
    0.1112   -0.1866    5.6310 H   0  0  0  0  0  0  0  0  0  0  0  0
   -1.5201    0.6309    2.9846 H   0  0  0  0  0  0  0  0  0  0  0  0
   -1.5174    0.7021    1.3532 H   0  0  0  0  0  0  0  0  0  0  0  0
   -1.1812    2.9857    3.0879 H   0  0  0  0  0  0  0  0  0  0  0  0
   -1.1785    3.0568    1.4564 H   0  0  0  0  0  0  0  0  0  0  0  0
   -3.2250    3.6484    2.2961 H   0  0  0  0  0  0  0  0  0  0  0  0
  1  2  1  0  0  0  0
  2  3  1  0  0  0  0
  3  4  2  0  0  0  0
  4  5  1  0  0  0  0
  5  6  2  0  0  0  0
  6  7  1  0  0  0  0
  7  2  2  0  0  0  0
  4  8  1  0  0  0  0
  8  9  1  0  0  0  0
  9 10  1  0  0  0  0
 10 11  2  0  0  0  0
 10 12  1  0  0  0  0
  8 13  1  0  0  0  0
 13 14  2  0  0  0  0
 13 15  1  0  0  0  0
 15 16  1  0  0  0  0
 16 17  1  0  0  0  0
 17 18  2  0  0  0  0
 15 19  1  0  0  0  0
 19 20  1  0  0  0  0
 20 21  1  0  0  0  0
  3 22  1  0  0  0  0
  5 23  1  0  0  0  0
  6 24  1  0  0  0  0
  7 25  1  0  0  0  0
  8 26  1  0  0  0  0
  9 27  1  0  0  0  0
 12 28  1  0  0  0  0
 12 29  1  0  0  0  0
 12 30  1  0  0  0  0
 16 31  1  0  0  0  0
 16 32  1  0  0  0  0
 17 33  1  0  0  0  0
 18 34  1  0  0  0  0
 18 35  1  0  0  0  0
 19 36  1  0  0  0  0
 19 37  1  0  0  0  0
 20 38  1  0  0  0  0
 20 39  1  0  0  0  0
 21 40  1  0  0  0  0
M  END
>  <result-rank>
19

>  <similarity>
0.940

>  <query-name>
LIG_A_1101_CC(C)SC[R*]_1

>  <query-smiles>
S(C(C)C)CC(=O)[C@@H](NC(=O)C)Cc1ccc(O)cc1

>  <source>
REALspace_2019-12

>  <similarity-descriptor>
0.969;0.992;0.926;0.0;0.956;0.992;0.907;1.000;1.000;1.000;1.000;0.969;0.0;0.154

>  <similarity-descriptor-smiles>
Brc1ccccc1;NCC;C;;C;NCC;C=O;C;N;C=O;C;Brc1ccccc1;;C.O

>  <reaction-name>
s_22

>  <reagent1-name>
7866888

>  <reagent1-smiles>
[R1*]N(CC=C)CCO

>  <reagent2-name>
12624298

>  <reagent2-smiles>
[R1*]C(=O)C(NC(=O)C)c1cc(Br)ccc1

$$$$
s_22____14588660____548060
          04022015093D 1   1.00000     0.00000     0
            
 45 45  0  0  0  0            999 V2000
   -1.8083   -0.7065    2.1865 S   0  0  0  0  0  0  0  0  0  0  0  0
   -3.5882   -0.3775    2.1865 C   0  0  0  0  0  0  0  0  0  0  0  0
   -4.3469   -1.6947    2.1865 C   0  0  0  0  0  0  0  0  0  0  0  0
   -3.9562    0.4192    3.4275 C   0  0  0  0  0  0  0  0  0  0  0  0
   -1.2050    1.0000    2.1865 C   0  0  0  0  0  0  0  0  0  0  0  0
    0.3150    1.0000    2.1865 C   0  0  0  0  0  0  0  0  0  0  0  0
    0.9150    1.0000    3.2257 O   0  0  0  0  0  0  0  0  0  0  0  0
    1.0000    1.0000    1.0000 N   0  0  0  0  0  0  0  0  0  0  0  0
    2.4700    1.0000    1.0000 C   0  0  3  0  0  0  0  0  0  0  0  0
    2.9767    2.2411    0.2835 C   0  0  0  0  0  0  0  0  0  0  0  0
    3.9272    2.8352    0.7118 O   0  0  0  0  0  0  0  0  0  0  0  0
    2.3756    2.6621   -0.8017 O   0  0  0  0  0  0  0  0  0  0  0  0
    2.8490    3.8216   -1.4711 C   0  0  0  0  0  0  0  0  0  0  0  0
    3.8863    3.4204   -2.5071 C   0  0  0  0  0  0  0  0  0  0  0  0
    2.9767   -0.2411    0.2835 C   0  0  0  0  0  0  0  0  0  0  0  0
    4.4970   -0.2411    0.2835 C   0  0  0  0  0  0  0  0  0  0  0  0
    5.1809   -0.8469    1.3328 C   0  0  0  0  0  0  0  0  0  0  0  0
    6.5716   -0.8511    1.3373 C   0  0  0  0  0  0  0  0  0  0  0  0
    7.2613   -0.2491    0.2899 C   0  0  0  0  0  0  0  0  0  0  0  0
    8.7814   -0.2515    0.2889 C   0  0  0  0  0  0  0  0  0  0  0  0
    9.9214   -0.2533    0.2892 N   0  0  0  0  0  0  0  0  0  0  0  0
    6.5787    0.3575   -0.7589 C   0  0  0  0  0  0  0  0  0  0  0  0
    5.1877    0.3630   -0.7626 C   0  0  0  0  0  0  0  0  0  0  0  0
   -3.8303    0.1466    1.3700 H   0  0  0  0  0  0  0  0  0  0  0  0
   -5.3302   -1.5129    2.1865 H   0  0  0  0  0  0  0  0  0  0  0  0
   -4.1048   -2.2188    1.3700 H   0  0  0  0  0  0  0  0  0  0  0  0
   -4.1048   -2.2188    3.0030 H   0  0  0  0  0  0  0  0  0  0  0  0
   -4.9395    0.6009    3.4275 H   0  0  0  0  0  0  0  0  0  0  0  0
   -3.7141   -0.1050    4.2440 H   0  0  0  0  0  0  0  0  0  0  0  0
   -3.4571    1.2857    3.4275 H   0  0  0  0  0  0  0  0  0  0  0  0
   -1.5383    1.4714    3.0030 H   0  0  0  0  0  0  0  0  0  0  0  0
   -1.5383    1.4714    1.3700 H   0  0  0  0  0  0  0  0  0  0  0  0
    0.5000    1.0000    0.1340 H   0  0  0  0  0  0  0  0  0  0  0  0
    2.8033    1.0000    1.9428 H   0  0  0  0  0  0  0  0  0  0  0  0
    3.2641    4.4436   -0.8072 H   0  0  0  0  0  0  0  0  0  0  0  0
    2.0847    4.2799   -1.9247 H   0  0  0  0  0  0  0  0  0  0  0  0
    4.2197    4.2369   -2.9785 H   0  0  0  0  0  0  0  0  0  0  0  0
    4.6506    2.9621   -2.0535 H   0  0  0  0  0  0  0  0  0  0  0  0
    3.4712    2.7984   -3.1710 H   0  0  0  0  0  0  0  0  0  0  0  0
    2.6433   -1.0576    0.7549 H   0  0  0  0  0  0  0  0  0  0  0  0
    2.6433   -0.2411   -0.6593 H   0  0  0  0  0  0  0  0  0  0  0  0
    4.6748   -1.2773    2.0802 H   0  0  0  0  0  0  0  0  0  0  0  0
    7.0718   -1.2834    2.0876 H   0  0  0  0  0  0  0  0  0  0  0  0
    7.0851    0.7876   -1.5063 H   0  0  0  0  0  0  0  0  0  0  0  0
    4.6878    0.7978   -1.5116 H   0  0  0  0  0  0  0  0  0  0  0  0
  1  2  1  0  0  0  0
  2  3  1  0  0  0  0
  2  4  1  0  0  0  0
  1  5  1  0  0  0  0
  5  6  1  0  0  0  0
  6  7  2  0  0  0  0
  6  8  1  0  0  0  0
  8  9  1  0  0  0  0
  9 10  1  0  0  0  0
 10 11  2  0  0  0  0
 10 12  1  0  0  0  0
 12 13  1  0  0  0  0
 13 14  1  0  0  0  0
  9 15  1  0  0  0  0
 15 16  1  0  0  0  0
 16 17  1  0  0  0  0
 17 18  2  0  0  0  0
 18 19  1  0  0  0  0
 19 20  1  0  0  0  0
 20 21  3  0  0  0  0
 19 22  2  0  0  0  0
 22 23  1  0  0  0  0
 23 16  2  0  0  0  0
  2 24  1  0  0  0  0
  3 25  1  0  0  0  0
  3 26  1  0  0  0  0
  3 27  1  0  0  0  0
  4 28  1  0  0  0  0
  4 29  1  0  0  0  0
  4 30  1  0  0  0  0
  5 31  1  0  0  0  0
  5 32  1  0  0  0  0
  8 33  1  0  0  0  0
  9 34  1  0  0  0  0
 13 35  1  0  0  0  0
 13 36  1  0  0  0  0
 14 37  1  0  0  0  0
 14 38  1  0  0  0  0
 14 39  1  0  0  0  0
 15 40  1  0  0  0  0
 15 41  1  0  0  0  0
 17 42  1  0  0  0  0
 18 43  1  0  0  0  0
 22 44  1  0  0  0  0
 23 45  1  0  0  0  0
M  END
>  <result-rank>
20

>  <similarity>
0.940

>  <query-name>
LIG_A_1101_CC(C)SC[R*]_1

>  <query-smiles>
S(C(C)C)CC(=O)[C@@H](NC(=O)C)Cc1ccc(O)cc1

>  <source>
REALspace_2019-12

>  <similarity-descriptor>
0.998;1.000;1.000;1.000;1.000;1.000;0.907;1.000;1.000;0.855;0.957;1.000;0.657;0.067

>  <similarity-descriptor-smiles>
c1ccccc1;S;C;C;C;C;C=O;NC;NC;C(=O)O;C;C;C#N;C

>  <reaction-name>
s_22

>  <reagent1-name>
14588660

>  <reagent1-smiles>
[R1*]NC(C(=O)OCC)Cc1ccc(C#N)cc1

>  <reagent2-name>
548060

>  <reagent2-smiles>
[R1*]C(=O)CSC(C)C

$$$$
s_22____6956712____16887748
          04022015093D 1   1.00000     0.00000     0
            
 53 53  0  0  0  0            999 V2000
   -0.1378    3.0374   -4.8894 S   0  0  0  0  0  0  0  0  0  0  0  0
    0.7219    2.2379   -3.5118 C   0  0  0  0  0  0  0  0  0  0  0  0
   -0.2984    1.6516   -2.5498 C   0  0  0  0  0  0  0  0  0  0  0  0
    0.3997    1.0022   -1.4309 N   0  0  0  0  0  0  0  0  0  0  0  0
    0.7075    1.7208   -0.3059 C   0  0  0  0  0  0  0  0  0  0  0  0
    0.7461    2.9193   -0.3513 O   0  0  0  0  0  0  0  0  0  0  0  0
    1.0000    1.0000    1.0000 C   0  0  3  0  0  0  0  0  0  0  0  0
    1.8487    1.8487    1.8487 N   0  0  0  0  0  0  0  0  0  0  0  0
    3.0831    1.4052    2.2442 C   0  0  0  0  0  0  0  0  0  0  0  0
    3.4716    0.3240    1.8978 O   0  0  0  0  0  0  0  0  0  0  0  0
    3.9607    2.2828    3.1218 C   0  0  0  0  0  0  0  0  0  0  0  0
    5.1807    1.6094    3.3950 O   0  0  0  0  0  0  0  0  0  0  0  0
    6.0005    2.4293    4.2149 C   0  0  0  0  0  0  0  0  0  0  0  0
    5.2797    2.7218    5.5207 C   0  0  0  0  0  0  0  0  0  0  0  0
    7.3064    1.7085    4.5074 C   0  0  0  0  0  0  0  0  0  0  0  0
   -0.3059    0.7075    1.7208 C   0  0  0  0  0  0  0  0  0  0  0  0
   -0.1034   -0.4483    2.6871 C   0  0  0  0  0  0  0  0  0  0  0  0
   -0.3182   -1.7513    2.2501 C   0  0  0  0  0  0  0  0  0  0  0  0
   -0.1334   -2.8121    3.1305 C   0  0  0  0  0  0  0  0  0  0  0  0
    0.2650   -2.5557    4.4386 C   0  0  0  0  0  0  0  0  0  0  0  0
    0.4451   -3.5822    5.2965 O   0  0  0  0  0  0  0  0  0  0  0  0
    0.4809   -1.2545    4.8808 C   0  0  0  0  0  0  0  0  0  0  0  0
    0.2950   -0.1975    3.9961 C   0  0  0  0  0  0  0  0  0  0  0  0
    0.7677   -0.4183   -1.5193 C   0  0  0  0  0  0  0  0  0  0  0  0
    1.3008    3.6147   -5.8241 C   0  0  0  0  0  0  0  0  0  0  0  0
    1.2829    2.9127   -3.0323 H   0  0  0  0  0  0  0  0  0  0  0  0
    1.3071    1.5071   -3.8632 H   0  0  0  0  0  0  0  0  0  0  0  0
   -0.8836    2.3823   -2.1984 H   0  0  0  0  0  0  0  0  0  0  0  0
   -0.8594    0.9768   -3.0293 H   0  0  0  0  0  0  0  0  0  0  0  0
    1.4742    0.1409    0.8075 H   0  0  0  0  0  0  0  0  0  0  0  0
    1.5250    2.7498    2.1374 H   0  0  0  0  0  0  0  0  0  0  0  0
    4.1532    3.1419    2.6475 H   0  0  0  0  0  0  0  0  0  0  0  0
    3.4865    2.4753    3.9809 H   0  0  0  0  0  0  0  0  0  0  0  0
    6.1929    3.2884    3.7407 H   0  0  0  0  0  0  0  0  0  0  0  0
    5.8570    3.2991    6.0981 H   0  0  0  0  0  0  0  0  0  0  0  0
    4.4206    3.1960    5.3283 H   0  0  0  0  0  0  0  0  0  0  0  0
    5.0872    1.8627    5.9950 H   0  0  0  0  0  0  0  0  0  0  0  0
    7.8837    2.2858    5.0848 H   0  0  0  0  0  0  0  0  0  0  0  0
    7.1139    0.8493    4.9816 H   0  0  0  0  0  0  0  0  0  0  0  0
    7.7806    1.5160    3.6483 H   0  0  0  0  0  0  0  0  0  0  0  0
   -0.5957    1.5191    2.2280 H   0  0  0  0  0  0  0  0  0  0  0  0
   -1.0084    0.4638    1.0521 H   0  0  0  0  0  0  0  0  0  0  0  0
   -0.6041   -1.9245    1.3076 H   0  0  0  0  0  0  0  0  0  0  0  0
   -0.2858   -3.7522    2.8255 H   0  0  0  0  0  0  0  0  0  0  0  0
    0.7315   -3.4029    6.2377 H   0  0  0  0  0  0  0  0  0  0  0  0
    0.7663   -1.0811    5.8234 H   0  0  0  0  0  0  0  0  0  0  0  0
    0.4478    0.7425    4.3009 H   0  0  0  0  0  0  0  0  0  0  0  0
    0.4703   -0.7854   -2.4006 H   0  0  0  0  0  0  0  0  0  0  0  0
    1.7600   -0.5113   -1.4371 H   0  0  0  0  0  0  0  0  0  0  0  0
    0.3231   -0.9244   -0.7802 H   0  0  0  0  0  0  0  0  0  0  0  0
    0.9936    4.0951   -6.6456 H   0  0  0  0  0  0  0  0  0  0  0  0
    1.8396    4.2368   -5.2560 H   0  0  0  0  0  0  0  0  0  0  0  0
    1.8638    2.8312   -6.0869 H   0  0  0  0  0  0  0  0  0  0  0  0
  1  2  1  0  0  0  0
  2  3  1  0  0  0  0
  3  4  1  0  0  0  0
  4  5  1  0  0  0  0
  5  6  2  0  0  0  0
  5  7  1  0  0  0  0
  7  8  1  0  0  0  0
  8  9  1  0  0  0  0
  9 10  2  0  0  0  0
  9 11  1  0  0  0  0
 11 12  1  0  0  0  0
 12 13  1  0  0  0  0
 13 14  1  0  0  0  0
 13 15  1  0  0  0  0
  7 16  1  0  0  0  0
 16 17  1  0  0  0  0
 17 18  1  0  0  0  0
 18 19  2  0  0  0  0
 19 20  1  0  0  0  0
 20 21  1  0  0  0  0
 20 22  2  0  0  0  0
 22 23  1  0  0  0  0
 23 17  2  0  0  0  0
  4 24  1  0  0  0  0
  1 25  1  0  0  0  0
  2 26  1  0  0  0  0
  2 27  1  0  0  0  0
  3 28  1  0  0  0  0
  3 29  1  0  0  0  0
  7 30  1  0  0  0  0
  8 31  1  0  0  0  0
 11 32  1  0  0  0  0
 11 33  1  0  0  0  0
 13 34  1  0  0  0  0
 14 35  1  0  0  0  0
 14 36  1  0  0  0  0
 14 37  1  0  0  0  0
 15 38  1  0  0  0  0
 15 39  1  0  0  0  0
 15 40  1  0  0  0  0
 16 41  1  0  0  0  0
 16 42  1  0  0  0  0
 18 43  1  0  0  0  0
 19 44  1  0  0  0  0
 21 45  1  0  0  0  0
 22 46  1  0  0  0  0
 23 47  1  0  0  0  0
 24 48  1  0  0  0  0
 24 49  1  0  0  0  0
 24 50  1  0  0  0  0
 25 51  1  0  0  0  0
 25 52  1  0  0  0  0
 25 53  1  0  0  0  0
M  END
>  <result-rank>
21

>  <similarity>
0.939

>  <query-name>
LIG_A_1101_CC(C)SC[R*]_1

>  <query-smiles>
S(C(C)C)CC(=O)[C@@H](NC(=O)C)Cc1ccc(O)cc1

>  <source>
REALspace_2019-12

>  <similarity-descriptor>
1.000;0.966;0.966;0.0;0.998;0.970;0.907;1.000;1.000;1.000;0.956;1.000;1.000;0.278

>  <similarity-descriptor-smiles>
c1ccccc1;SC;SC;;C;CN;C=O;C;N;C=O;C;C;O;O.C.C.C.C

>  <reaction-name>
s_22

>  <reagent1-name>
6956712

>  <reagent1-smiles>
[R1*]N(CCSC)C

>  <reagent2-name>
16887748

>  <reagent2-smiles>
[R1*]C(=O)C(NC(=O)COC(C)C)Cc1ccc(O)cc1

$$$$
s_22____7966704____1722870
          04022015093D 1   1.00000     0.00000     0
            
 43 43  0  0  0  0            999 V2000
    0.4000   -0.0392    1.0000 O   0  0  0  0  0  0  0  0  0  0  0  0
    1.0000    1.0000    1.0000 C   0  0  0  0  0  0  0  0  0  0  0  0
    2.3700    1.0000    1.0000 N   0  0  0  0  0  0  0  0  0  0  0  0
    3.1050   -0.2731    1.0000 C   0  0  3  0  0  0  0  0  0  0  0  0
    3.9789   -0.3536    2.2411 C   0  0  0  0  0  0  0  0  0  0  0  0
    4.9016    0.7257    2.2411 O   0  0  0  0  0  0  0  0  0  0  0  0
    3.9789   -0.3536   -0.2411 C   0  0  0  0  0  0  0  0  0  0  0  0
    3.1050   -0.2731   -1.4822 C   0  0  0  0  0  0  0  0  0  0  0  0
    2.8226    0.9691   -2.0410 C   0  0  0  0  0  0  0  0  0  0  0  0
    2.0241    1.0476   -3.1770 C   0  0  0  0  0  0  0  0  0  0  0  0
    1.5177   -0.1192   -3.7409 C   0  0  0  0  0  0  0  0  0  0  0  0
    0.7420   -0.0476   -4.8432 O   0  0  0  0  0  0  0  0  0  0  0  0
    1.7968   -1.3640   -3.1858 C   0  0  0  0  0  0  0  0  0  0  0  0
    2.5962   -1.4366   -2.0500 C   0  0  0  0  0  0  0  0  0  0  0  0
    0.2400    2.3164    1.0000 C   0  0  0  0  0  0  0  0  0  0  0  0
    0.0843    2.9770    2.1087 C   0  0  0  0  0  0  0  0  0  0  0  0
   -0.6757    4.2934    2.1087 C   0  0  0  0  0  0  0  0  0  0  0  0
   -2.1512    4.0265    2.3576 C   0  0  0  0  0  0  0  0  0  0  0  0
   -2.9112    5.3429    2.3576 C   0  0  0  0  0  0  0  0  0  0  0  0
    0.6623    2.4331    3.4051 C   0  0  0  0  0  0  0  0  0  0  0  0
    2.8700    1.8660    1.0000 H   0  0  0  0  0  0  0  0  0  0  0  0
    2.4552   -1.0331    1.0000 H   0  0  0  0  0  0  0  0  0  0  0  0
    3.4040   -0.3006    3.0576 H   0  0  0  0  0  0  0  0  0  0  0  0
    4.4789   -1.2196    2.2411 H   0  0  0  0  0  0  0  0  0  0  0  0
    5.4765    0.6728    3.0576 H   0  0  0  0  0  0  0  0  0  0  0  0
    4.6287    0.4065   -0.2411 H   0  0  0  0  0  0  0  0  0  0  0  0
    4.4789   -1.2196   -0.2411 H   0  0  0  0  0  0  0  0  0  0  0  0
    3.1920    1.8015   -1.6279 H   0  0  0  0  0  0  0  0  0  0  0  0
    1.8154    1.9361   -3.5856 H   0  0  0  0  0  0  0  0  0  0  0  0
    0.3758   -0.8835   -5.2521 H   0  0  0  0  0  0  0  0  0  0  0  0
    1.4271   -2.1964   -3.5984 H   0  0  0  0  0  0  0  0  0  0  0  0
    2.8052   -2.3252   -1.6416 H   0  0  0  0  0  0  0  0  0  0  0  0
   -0.1402    2.6742    0.1471 H   0  0  0  0  0  0  0  0  0  0  0  0
   -0.5631    4.7433    1.2228 H   0  0  0  0  0  0  0  0  0  0  0  0
   -0.3175    4.8851    2.8310 H   0  0  0  0  0  0  0  0  0  0  0  0
   -2.2638    3.5766    3.2435 H   0  0  0  0  0  0  0  0  0  0  0  0
   -2.5094    3.4348    1.6353 H   0  0  0  0  0  0  0  0  0  0  0  0
   -3.8820    5.1673    2.5213 H   0  0  0  0  0  0  0  0  0  0  0  0
   -2.5531    5.9346    3.0798 H   0  0  0  0  0  0  0  0  0  0  0  0
   -2.7987    5.7928    1.4716 H   0  0  0  0  0  0  0  0  0  0  0  0
    0.4517    3.0619    4.1536 H   0  0  0  0  0  0  0  0  0  0  0  0
    0.2613    1.5378    3.5990 H   0  0  0  0  0  0  0  0  0  0  0  0
    1.6541    2.3419    3.3155 H   0  0  0  0  0  0  0  0  0  0  0  0
  1  2  2  0  0  0  0
  2  3  1  0  0  0  0
  3  4  1  0  0  0  0
  4  5  1  0  0  0  0
  5  6  1  0  0  0  0
  4  7  1  0  0  0  0
  7  8  1  0  0  0  0
  8  9  1  0  0  0  0
  9 10  2  0  0  0  0
 10 11  1  0  0  0  0
 11 12  1  0  0  0  0
 11 13  2  0  0  0  0
 13 14  1  0  0  0  0
 14  8  2  0  0  0  0
  2 15  1  0  0  0  0
 15 16  2  0  0  0  0
 16 17  1  0  0  0  0
 17 18  1  0  0  0  0
 18 19  1  0  0  0  0
 16 20  1  0  0  0  0
  3 21  1  0  0  0  0
  4 22  1  0  0  0  0
  5 23  1  0  0  0  0
  5 24  1  0  0  0  0
  6 25  1  0  0  0  0
  7 26  1  0  0  0  0
  7 27  1  0  0  0  0
  9 28  1  0  0  0  0
 10 29  1  0  0  0  0
 12 30  1  0  0  0  0
 13 31  1  0  0  0  0
 14 32  1  0  0  0  0
 15 33  1  0  0  0  0
 17 34  1  0  0  0  0
 17 35  1  0  0  0  0
 18 36  1  0  0  0  0
 18 37  1  0  0  0  0
 19 38  1  0  0  0  0
 19 39  1  0  0  0  0
 19 40  1  0  0  0  0
 20 41  1  0  0  0  0
 20 42  1  0  0  0  0
 20 43  1  0  0  0  0
M  END
>  <result-rank>
22

>  <similarity>
0.939

>  <query-name>
LIG_A_1101_CC(C)SC[R*]_1

>  <query-smiles>
S(C(C)C)CC(=O)[C@@H](NC(=O)C)Cc1ccc(O)cc1

>  <source>
REALspace_2019-12

>  <similarity-descriptor>
1.000;0.993;0.997;0.997;1.000;0.993;0.788;0.999;0.999;0.730;0.730;1.000;1.000;0.0

>  <similarity-descriptor-smiles>
c1ccccc1;CC;CC;CC;C;CC;O=CC;NC;NC;CO;CO;C;O;

>  <reaction-name>
s_22

>  <reagent1-name>
7966704

>  <reagent1-smiles>
[R1*]NC(CO)Cc1ccc(O)cc1

>  <reagent2-name>
1722870

>  <reagent2-smiles>
[R1*]C(=O)C=C(CCC)C

$$$$
s_22____564362____548060
          04022015093D 1   1.00000     0.00000     0
            
 49 49  0  0  0  0            999 V2000
   -0.1012    1.0000    4.8786 S   0  0  0  0  0  0  0  0  0  0  0  0
    1.0736    1.0000    6.2555 C   0  0  0  0  0  0  0  0  0  0  0  0
    0.3123    1.0000    7.5711 C   0  0  0  0  0  0  0  0  0  0  0  0
    1.9476   -0.2411    6.1758 C   0  0  0  0  0  0  0  0  0  0  0  0
    1.0750    1.0000    3.5028 C   0  0  0  0  0  0  0  0  0  0  0  0
    0.3150    1.0000    2.1865 C   0  0  0  0  0  0  0  0  0  0  0  0
   -0.8850    1.0000    2.1865 O   0  0  0  0  0  0  0  0  0  0  0  0
    1.0000    1.0000    1.0000 N   0  0  0  0  0  0  0  0  0  0  0  0
    2.4700    1.0000    1.0000 C   0  0  0  0  0  0  0  0  0  0  0  0
    2.9768   -0.4335    1.0000 C   0  0  0  0  0  0  0  0  0  0  0  0
    3.2087   -1.0892   -0.2051 C   0  0  0  0  0  0  0  0  0  0  0  0
    2.9882   -0.4677   -1.3834 O   0  0  0  0  0  0  0  0  0  0  0  0
    3.2303   -1.1524   -2.6036 C   0  0  0  0  0  0  0  0  0  0  0  0
    2.9055   -0.2361   -3.7720 C   0  0  0  0  0  0  0  0  0  0  0  0
    3.6722   -2.4011   -0.2052 C   0  0  0  0  0  0  0  0  0  0  0  0
    3.9045   -3.0568    1.0000 C   0  0  0  0  0  0  0  0  0  0  0  0
    3.6732   -2.4005    2.2048 C   0  0  0  0  0  0  0  0  0  0  0  0
    3.2099   -1.0888    2.2045 C   0  0  0  0  0  0  0  0  0  0  0  0
    0.2650    1.0000   -0.2731 C   0  0  0  0  0  0  0  0  0  0  0  0
    0.0117    2.4331   -0.7118 C   0  0  3  0  0  0  0  0  0  0  0  0
   -0.7558    3.1025    0.2778 O   0  0  0  0  0  0  0  0  0  0  0  0
   -0.7483    2.4331   -2.0282 C   0  0  0  0  0  0  0  0  0  0  0  0
    1.6486    1.8165    6.2031 H   0  0  0  0  0  0  0  0  0  0  0  0
    0.9614    1.0000    8.3318 H   0  0  0  0  0  0  0  0  0  0  0  0
   -0.2627    1.8165    7.6235 H   0  0  0  0  0  0  0  0  0  0  0  0
   -0.2627    0.1835    7.6235 H   0  0  0  0  0  0  0  0  0  0  0  0
    2.5966   -0.2411    6.9366 H   0  0  0  0  0  0  0  0  0  0  0  0
    1.3726   -1.0576    6.2282 H   0  0  0  0  0  0  0  0  0  0  0  0
    2.4484   -0.2411    5.3103 H   0  0  0  0  0  0  0  0  0  0  0  0
    1.6499    0.1835    3.5558 H   0  0  0  0  0  0  0  0  0  0  0  0
    1.6499    1.8165    3.5558 H   0  0  0  0  0  0  0  0  0  0  0  0
    2.8033    1.4714    1.8165 H   0  0  0  0  0  0  0  0  0  0  0  0
    2.8033    1.4714    0.1835 H   0  0  0  0  0  0  0  0  0  0  0  0
    2.6528   -1.9676   -2.6487 H   0  0  0  0  0  0  0  0  0  0  0  0
    4.1921   -1.4225   -2.6491 H   0  0  0  0  0  0  0  0  0  0  0  0
    3.0760   -0.7183   -4.6313 H   0  0  0  0  0  0  0  0  0  0  0  0
    1.9437    0.0340   -3.7265 H   0  0  0  0  0  0  0  0  0  0  0  0
    3.4831    0.5790   -3.7269 H   0  0  0  0  0  0  0  0  0  0  0  0
    3.8385   -2.8727   -1.0712 H   0  0  0  0  0  0  0  0  0  0  0  0
    4.2376   -3.9997    1.0002 H   0  0  0  0  0  0  0  0  0  0  0  0
    3.8399   -2.8717    3.0709 H   0  0  0  0  0  0  0  0  0  0  0  0
    3.0444   -0.6169    3.0705 H   0  0  0  0  0  0  0  0  0  0  0  0
   -0.6088    0.5286   -0.1535 H   0  0  0  0  0  0  0  0  0  0  0  0
    0.8054    0.5286   -0.9700 H   0  0  0  0  0  0  0  0  0  0  0  0
    0.8854    2.9045   -0.8314 H   0  0  0  0  0  0  0  0  0  0  0  0
   -0.9224    4.0453   -0.0109 H   0  0  0  0  0  0  0  0  0  0  0  0
   -0.2079    1.9617   -2.7251 H   0  0  0  0  0  0  0  0  0  0  0  0
   -1.6221    1.9617   -1.9086 H   0  0  0  0  0  0  0  0  0  0  0  0
   -0.9150    3.3759   -2.3169 H   0  0  0  0  0  0  0  0  0  0  0  0
  1  2  1  0  0  0  0
  2  3  1  0  0  0  0
  2  4  1  0  0  0  0
  1  5  1  0  0  0  0
  5  6  1  0  0  0  0
  6  7  2  0  0  0  0
  6  8  1  0  0  0  0
  8  9  1  0  0  0  0
  9 10  1  0  0  0  0
 10 11  1  0  0  0  0
 11 12  1  0  0  0  0
 12 13  1  0  0  0  0
 13 14  1  0  0  0  0
 11 15  2  0  0  0  0
 15 16  1  0  0  0  0
 16 17  2  0  0  0  0
 17 18  1  0  0  0  0
 18 10  2  0  0  0  0
  8 19  1  0  0  0  0
 19 20  1  0  0  0  0
 20 21  1  0  0  0  0
 20 22  1  0  0  0  0
  2 23  1  0  0  0  0
  3 24  1  0  0  0  0
  3 25  1  0  0  0  0
  3 26  1  0  0  0  0
  4 27  1  0  0  0  0
  4 28  1  0  0  0  0
  4 29  1  0  0  0  0
  5 30  1  0  0  0  0
  5 31  1  0  0  0  0
  9 32  1  0  0  0  0
  9 33  1  0  0  0  0
 13 34  1  0  0  0  0
 13 35  1  0  0  0  0
 14 36  1  0  0  0  0
 14 37  1  0  0  0  0
 14 38  1  0  0  0  0
 15 39  1  0  0  0  0
 16 40  1  0  0  0  0
 17 41  1  0  0  0  0
 18 42  1  0  0  0  0
 19 43  1  0  0  0  0
 19 44  1  0  0  0  0
 20 45  1  0  0  0  0
 21 46  1  0  0  0  0
 22 47  1  0  0  0  0
 22 48  1  0  0  0  0
 22 49  1  0  0  0  0
M  END
>  <result-rank>
23

>  <similarity>
0.938

>  <query-name>
LIG_A_1101_CC(C)SC[R*]_1

>  <query-smiles>
S(C(C)C)CC(=O)[C@@H](NC(=O)C)Cc1ccc(O)cc1

>  <source>
REALspace_2019-12

>  <similarity-descriptor>
1.000;1.000;1.000;1.000;1.000;1.000;0.907;0.953;0.856;0.856;1.000;0.953;0.704;0.125

>  <similarity-descriptor-smiles>
c1ccccc1;S;C;C;C;C;C=O;N(C)C;CO;CO;C;N(C)C;O;C.C

>  <reaction-name>
s_22

>  <reagent1-name>
564362

>  <reagent1-smiles>
[R1*]N(Cc1c(OCC)cccc1)CC(O)C

>  <reagent2-name>
548060

>  <reagent2-smiles>
[R1*]C(=O)CSC(C)C

$$$$
s_22____12210646____17057108
          04022015093D 1   1.00000     0.00000     0
            
 58 58  0  0  0  0            999 V2000
    0.4000    1.0000   -0.0392 O   0  0  0  0  0  0  0  0  0  0  0  0
    1.0000    1.0000    1.0000 C   0  0  0  0  0  0  0  0  0  0  0  0
    0.3150    1.0000    2.1865 N   0  0  0  0  0  0  0  0  0  0  0  0
   -1.1550    1.0000    2.1865 C   0  0  0  0  0  0  0  0  0  0  0  0
   -1.6617    1.0000    3.6195 C   0  0  0  0  0  0  0  0  0  0  0  0
   -3.1817    1.0000    3.6195 C   0  0  0  0  0  0  0  0  0  0  0  0
   -3.6883    1.0000    5.0526 C   0  0  0  0  0  0  0  0  0  0  0  0
   -3.9050    2.1258    5.6654 C   0  0  0  0  0  0  0  0  0  0  0  0
   -3.6883    2.2411    2.9030 C   0  0  0  0  0  0  0  0  0  0  0  0
   -3.6883   -0.2411    2.9030 C   0  0  0  0  0  0  0  0  0  0  0  0
    2.5200    1.0000    1.0000 C   0  0  3  0  0  0  0  0  0  0  0  0
    3.0100    1.0000   -0.3859 N   0  0  0  0  0  0  0  0  0  0  0  0
    3.7976   -0.0275   -0.8340 C   0  0  0  0  0  0  0  0  0  0  0  0
    4.0138   -0.9711   -0.1248 O   0  0  0  0  0  0  0  0  0  0  0  0
    4.3977    0.0277   -2.2295 C   0  0  0  0  0  0  0  0  0  0  0  0
    4.8450   -1.3646   -2.6441 C   0  0  0  0  0  0  0  0  0  0  0  0
    3.6531   -2.1413   -3.1792 C   0  0  0  0  0  0  0  0  0  0  0  0
    5.9057   -1.2544   -3.7273 C   0  0  0  0  0  0  0  0  0  0  0  0
    3.0267    2.2411    1.7165 C   0  0  0  0  0  0  0  0  0  0  0  0
    4.5467    2.2411    1.7165 C   0  0  0  0  0  0  0  0  0  0  0  0
    5.2311    1.6356    2.7653 C   0  0  0  0  0  0  0  0  0  0  0  0
    6.6219    1.6325    2.7691 C   0  0  0  0  0  0  0  0  0  0  0  0
    7.3116    2.2356    1.7220 C   0  0  0  0  0  0  0  0  0  0  0  0
    8.6614    2.2352    1.7220 O   0  0  0  0  0  0  0  0  0  0  0  0
    6.6320    2.8428    0.6710 C   0  0  0  0  0  0  0  0  0  0  0  0
    5.2412    2.8426    0.6720 C   0  0  0  0  0  0  0  0  0  0  0  0
    0.8150    1.0000    3.0525 H   0  0  0  0  0  0  0  0  0  0  0  0
   -1.4883    0.1835    1.7151 H   0  0  0  0  0  0  0  0  0  0  0  0
   -1.4883    1.8165    1.7151 H   0  0  0  0  0  0  0  0  0  0  0  0
   -1.3283    0.1835    4.0909 H   0  0  0  0  0  0  0  0  0  0  0  0
   -1.3283    1.8165    4.0909 H   0  0  0  0  0  0  0  0  0  0  0  0
   -3.8550    0.1340    5.5240 H   0  0  0  0  0  0  0  0  0  0  0  0
   -4.2383    2.1258    6.6082 H   0  0  0  0  0  0  0  0  0  0  0  0
   -3.7383    2.9919    5.1940 H   0  0  0  0  0  0  0  0  0  0  0  0
   -3.3550    2.2411    1.9602 H   0  0  0  0  0  0  0  0  0  0  0  0
   -4.6883    2.2411    2.9030 H   0  0  0  0  0  0  0  0  0  0  0  0
   -3.3550    3.0576    3.3744 H   0  0  0  0  0  0  0  0  0  0  0  0
   -3.3550   -0.2411    1.9602 H   0  0  0  0  0  0  0  0  0  0  0  0
   -3.3550   -1.0576    3.3744 H   0  0  0  0  0  0  0  0  0  0  0  0
   -4.6883   -0.2411    2.9030 H   0  0  0  0  0  0  0  0  0  0  0  0
    2.8533    0.1835    1.4714 H   0  0  0  0  0  0  0  0  0  0  0  0
    2.7684    1.7500   -1.0017 H   0  0  0  0  0  0  0  0  0  0  0  0
    5.1848    0.6445   -2.2297 H   0  0  0  0  0  0  0  0  0  0  0  0
    3.7111    0.3631   -2.8745 H   0  0  0  0  0  0  0  0  0  0  0  0
    5.2257   -1.8420   -1.8521 H   0  0  0  0  0  0  0  0  0  0  0  0
    3.9473   -3.0573   -3.4520 H   0  0  0  0  0  0  0  0  0  0  0  0
    2.9553   -2.2138   -2.4666 H   0  0  0  0  0  0  0  0  0  0  0  0
    3.2724   -1.6638   -3.9711 H   0  0  0  0  0  0  0  0  0  0  0  0
    6.1999   -2.1704   -4.0000 H   0  0  0  0  0  0  0  0  0  0  0  0
    5.5250   -0.7770   -4.5192 H   0  0  0  0  0  0  0  0  0  0  0  0
    6.6898   -0.7434   -3.3752 H   0  0  0  0  0  0  0  0  0  0  0  0
    2.6933    3.0576    1.2451 H   0  0  0  0  0  0  0  0  0  0  0  0
    2.6933    2.2411    2.6593 H   0  0  0  0  0  0  0  0  0  0  0  0
    4.7256    1.2046    3.5128 H   0  0  0  0  0  0  0  0  0  0  0  0
    7.1226    1.1999    3.5190 H   0  0  0  0  0  0  0  0  0  0  0  0
    9.1615    2.6674    0.9716 H   0  0  0  0  0  0  0  0  0  0  0  0
    7.1374    3.2742   -0.0763 H   0  0  0  0  0  0  0  0  0  0  0  0
    4.7405    3.2748   -0.0780 H   0  0  0  0  0  0  0  0  0  0  0  0
  1  2  2  0  0  0  0
  2  3  1  0  0  0  0
  3  4  1  0  0  0  0
  4  5  1  0  0  0  0
  5  6  1  0  0  0  0
  6  7  1  0  0  0  0
  7  8  2  0  0  0  0
  6  9  1  0  0  0  0
  6 10  1  0  0  0  0
  2 11  1  0  0  0  0
 11 12  1  0  0  0  0
 12 13  1  0  0  0  0
 13 14  2  0  0  0  0
 13 15  1  0  0  0  0
 15 16  1  0  0  0  0
 16 17  1  0  0  0  0
 16 18  1  0  0  0  0
 11 19  1  0  0  0  0
 19 20  1  0  0  0  0
 20 21  1  0  0  0  0
 21 22  2  0  0  0  0
 22 23  1  0  0  0  0
 23 24  1  0  0  0  0
 23 25  2  0  0  0  0
 25 26  1  0  0  0  0
 26 20  2  0  0  0  0
  3 27  1  0  0  0  0
  4 28  1  0  0  0  0
  4 29  1  0  0  0  0
  5 30  1  0  0  0  0
  5 31  1  0  0  0  0
  7 32  1  0  0  0  0
  8 33  1  0  0  0  0
  8 34  1  0  0  0  0
  9 35  1  0  0  0  0
  9 36  1  0  0  0  0
  9 37  1  0  0  0  0
 10 38  1  0  0  0  0
 10 39  1  0  0  0  0
 10 40  1  0  0  0  0
 11 41  1  0  0  0  0
 12 42  1  0  0  0  0
 15 43  1  0  0  0  0
 15 44  1  0  0  0  0
 16 45  1  0  0  0  0
 17 46  1  0  0  0  0
 17 47  1  0  0  0  0
 17 48  1  0  0  0  0
 18 49  1  0  0  0  0
 18 50  1  0  0  0  0
 18 51  1  0  0  0  0
 19 52  1  0  0  0  0
 19 53  1  0  0  0  0
 21 54  1  0  0  0  0
 22 55  1  0  0  0  0
 24 56  1  0  0  0  0
 25 57  1  0  0  0  0
 26 58  1  0  0  0  0
M  END
>  <result-rank>
24

>  <similarity>
0.937

>  <query-name>
LIG_A_1101_CC(C)SC[R*]_1

>  <query-smiles>
S(C(C)C)CC(=O)[C@@H](NC(=O)C)Cc1ccc(O)cc1

>  <source>
REALspace_2019-12

>  <similarity-descriptor>
1.000;0.957;0.957;1.000;1.000;0.995;0.763;1.000;1.000;1.000;0.949;1.000;1.000;0.211

>  <similarity-descriptor-smiles>
c1ccccc1;CCC;CCC;C;C;C;O=CN;C;N;C=O;C;C;O;C.C.C.C

>  <reaction-name>
s_22

>  <reagent1-name>
12210646

>  <reagent1-smiles>
[R1*]NCCC(C=C)(C)C

>  <reagent2-name>
17057108

>  <reagent2-smiles>
[R1*]C(=O)C(NC(=O)CC(C)C)Cc1ccc(O)cc1

$$$$
s_62____2390328____7118646
          04022015093D 1   1.00000     0.00000     0
            
 39 39  0  0  0  0            999 V2000
   -0.0617    2.8389   -0.7065 S   0  0  0  0  0  0  0  0  0  0  0  0
   -0.9516    4.3803   -0.3775 C   0  0  0  0  0  0  0  0  0  0  0  0
   -1.3309    5.0373   -1.6947 C   0  0  0  0  0  0  0  0  0  0  0  0
   -2.2104    4.0784    0.4192 C   0  0  0  0  0  0  0  0  0  0  0  0
    0.2400    2.3164    1.0000 C   0  0  0  0  0  0  0  0  0  0  0  0
    1.0000    1.0000    1.0000 C   0  0  0  0  0  0  0  0  0  0  0  0
    0.4000   -0.0392    1.0000 O   0  0  0  0  0  0  0  0  0  0  0  0
    2.3700    1.0000    1.0000 N   0  0  0  0  0  0  0  0  0  0  0  0
    3.1050   -0.2731    1.0000 C   0  0  3  0  0  0  0  0  0  0  0  0
    3.9790   -0.3536    2.2413 C   0  0  0  0  0  0  0  0  0  0  0  0
    3.4269   -0.0920    3.4910 C   0  0  0  0  0  0  0  0  0  0  0  0
    4.2304   -0.1660    4.6241 C   0  0  0  0  0  0  0  0  0  0  0  0
    5.5750   -0.5008    4.5027 C   0  0  0  0  0  0  0  0  0  0  0  0
    6.1155   -0.7605    3.2494 C   0  0  0  0  0  0  0  0  0  0  0  0
    5.3227   -0.6892    2.1086 C   0  0  0  0  0  0  0  0  0  0  0  0
    3.9789   -0.3536   -0.2411 C   0  0  0  0  0  0  0  0  0  0  0  0
    4.0832   -1.3910   -0.8352 O   0  0  0  0  0  0  0  0  0  0  0  0
    4.6474    0.7582   -0.6814 N   0  0  0  0  0  0  0  0  0  0  0  0
    5.4925    0.6803   -1.8817 C   0  0  0  0  0  0  0  0  0  0  0  0
   -0.3655    4.9982    0.1466 H   0  0  0  0  0  0  0  0  0  0  0  0
   -1.8226    5.8889   -1.5129 H   0  0  0  0  0  0  0  0  0  0  0  0
   -0.5028    5.2359   -2.2188 H   0  0  0  0  0  0  0  0  0  0  0  0
   -1.9170    4.4194   -2.2188 H   0  0  0  0  0  0  0  0  0  0  0  0
   -2.7021    4.9300    0.6009 H   0  0  0  0  0  0  0  0  0  0  0  0
   -2.7965    3.4605   -0.1050 H   0  0  0  0  0  0  0  0  0  0  0  0
   -1.9608    3.6462    1.2857 H   0  0  0  0  0  0  0  0  0  0  0  0
   -0.6338    2.1968    1.4714 H   0  0  0  0  0  0  0  0  0  0  0  0
    0.7804    3.0133    1.4714 H   0  0  0  0  0  0  0  0  0  0  0  0
    2.8700    1.8660    1.0000 H   0  0  0  0  0  0  0  0  0  0  0  0
    2.4552   -1.0331    1.0000 H   0  0  0  0  0  0  0  0  0  0  0  0
    2.4596    0.1475    3.5742 H   0  0  0  0  0  0  0  0  0  0  0  0
    3.8413    0.0216    5.5260 H   0  0  0  0  0  0  0  0  0  0  0  0
    6.1524   -0.5546    5.3174 H   0  0  0  0  0  0  0  0  0  0  0  0
    7.0827   -1.0008    3.1667 H   0  0  0  0  0  0  0  0  0  0  0  0
    5.7126   -0.8763    1.2070 H   0  0  0  0  0  0  0  0  0  0  0  0
    4.5605    1.6227   -0.1864 H   0  0  0  0  0  0  0  0  0  0  0  0
    5.9025    1.5750   -2.0593 H   0  0  0  0  0  0  0  0  0  0  0  0
    6.2158    0.0051   -1.7369 H   0  0  0  0  0  0  0  0  0  0  0  0
    4.9343    0.4079   -2.6653 H   0  0  0  0  0  0  0  0  0  0  0  0
  1  2  1  0  0  0  0
  2  3  1  0  0  0  0
  2  4  1  0  0  0  0
  1  5  1  0  0  0  0
  5  6  1  0  0  0  0
  6  7  2  0  0  0  0
  6  8  1  0  0  0  0
  8  9  1  0  0  0  0
  9 10  1  0  0  0  0
 10 11  1  0  0  0  0
 11 12  2  0  0  0  0
 12 13  1  0  0  0  0
 13 14  2  0  0  0  0
 14 15  1  0  0  0  0
 15 10  2  0  0  0  0
  9 16  1  0  0  0  0
 16 17  2  0  0  0  0
 16 18  1  0  0  0  0
 18 19  1  0  0  0  0
  2 20  1  0  0  0  0
  3 21  1  0  0  0  0
  3 22  1  0  0  0  0
  3 23  1  0  0  0  0
  4 24  1  0  0  0  0
  4 25  1  0  0  0  0
  4 26  1  0  0  0  0
  5 27  1  0  0  0  0
  5 28  1  0  0  0  0
  8 29  1  0  0  0  0
  9 30  1  0  0  0  0
 11 31  1  0  0  0  0
 12 32  1  0  0  0  0
 13 33  1  0  0  0  0
 14 34  1  0  0  0  0
 15 35  1  0  0  0  0
 18 36  1  0  0  0  0
 19 37  1  0  0  0  0
 19 38  1  0  0  0  0
 19 39  1  0  0  0  0
M  END
>  <result-rank>
25

>  <similarity>
0.937

>  <query-name>
LIG_A_1101_CC(C)SC[R*]_1

>  <query-smiles>
S(C(C)C)CC(=O)[C@@H](NC(=O)C)Cc1ccc(O)cc1

>  <source>
REALspace_2019-12

>  <similarity-descriptor>
0.923;1.000;1.000;1.000;1.000;1.000;0.907;1.000;1.000;0.852;0.995;0.923;0.0;0.0

>  <similarity-descriptor-smiles>
c1ccccc1;S;C;C;C;C;C=O;NC;NC;C(=O)N;C;c1ccccc1;;

>  <reaction-name>
s_62

>  <reagent1-name>
2390328

>  <reagent1-smiles>
[R1*]SC(C)C

>  <reagent2-name>
7118646

>  <reagent2-smiles>
[R1*]CC(=O)NC(c1ccccc1)C(=O)NC

$$$$
s_34____15258682____10809276
          04022015093D 1   1.00000     0.00000     0
            
 41 41  0  0  0  0            999 V2000
    0.8390   -2.4312    6.7768 Br  0  0  0  0  0  0  0  0  0  0  0  0
    1.4931   -1.7993    5.0407 C   0  0  0  0  0  0  0  0  0  0  0  0
    1.1538   -2.4918    3.8829 C   0  0  0  0  0  0  0  0  0  0  0  0
    1.6210   -2.0385    2.6536 C   0  0  0  0  0  0  0  0  0  0  0  0
    2.4200   -0.9014    2.5954 C   0  0  0  0  0  0  0  0  0  0  0  0
    2.7555   -0.2135    3.7573 C   0  0  0  0  0  0  0  0  0  0  0  0
    2.2920   -0.6611    4.9902 C   0  0  0  0  0  0  0  0  0  0  0  0
    2.9267   -0.4113    1.2488 C   0  0  3  0  0  0  0  0  0  0  0  0
    2.4200    1.0000    1.0000 C   0  0  0  0  0  0  0  0  0  0  0  0
    1.0000    1.0000    1.0000 O   0  0  0  0  0  0  0  0  0  0  0  0
    0.2850    1.0000    2.2384 N   0  0  0  0  0  0  0  0  0  0  0  0
   -0.9650    1.0000    2.2384 C   0  0  0  0  0  0  0  0  0  0  0  0
   -1.7250    2.3164    2.2384 C   0  0  0  0  0  0  0  0  0  0  0  0
   -2.5989    2.3969    0.9973 C   0  0  0  0  0  0  0  0  0  0  0  0
   -3.3589    3.7132    0.9973 C   0  0  0  0  0  0  0  0  0  0  0  0
   -1.7250   -0.3164    2.2384 C   0  0  0  0  0  0  0  0  0  0  0  0
    4.4467   -0.4113    1.2488 C   0  0  0  0  0  0  0  0  0  0  0  0
    4.9200   -1.7297    1.4813 O   0  0  0  0  0  0  0  0  0  0  0  0
    6.3400   -1.7297    1.4813 C   0  0  0  0  0  0  0  0  0  0  0  0
    0.5789   -3.3085    3.9339 H   0  0  0  0  0  0  0  0  0  0  0  0
    1.3834   -2.5284    1.8148 H   0  0  0  0  0  0  0  0  0  0  0  0
    3.3303    0.6032    3.7061 H   0  0  0  0  0  0  0  0  0  0  0  0
    2.5298   -0.1714    5.8291 H   0  0  0  0  0  0  0  0  0  0  0  0
    2.5933   -1.0173    0.5266 H   0  0  0  0  0  0  0  0  0  0  0  0
    2.7533    1.6060    1.7222 H   0  0  0  0  0  0  0  0  0  0  0  0
    2.7533    1.3225    0.1140 H   0  0  0  0  0  0  0  0  0  0  0  0
   -1.0752    3.0764    2.2384 H   0  0  0  0  0  0  0  0  0  0  0  0
   -2.2999    2.3693    3.0549 H   0  0  0  0  0  0  0  0  0  0  0  0
   -3.2487    1.6368    0.9973 H   0  0  0  0  0  0  0  0  0  0  0  0
   -2.0240    2.3439    0.1808 H   0  0  0  0  0  0  0  0  0  0  0  0
   -3.9338    3.7662    0.1808 H   0  0  0  0  0  0  0  0  0  0  0  0
   -3.9338    3.7662    1.8138 H   0  0  0  0  0  0  0  0  0  0  0  0
   -2.7090    4.4733    0.9973 H   0  0  0  0  0  0  0  0  0  0  0  0
   -2.7082   -0.1336    2.2384 H   0  0  0  0  0  0  0  0  0  0  0  0
   -1.4834   -0.8407    1.4219 H   0  0  0  0  0  0  0  0  0  0  0  0
   -1.4834   -0.8407    3.0549 H   0  0  0  0  0  0  0  0  0  0  0  0
    4.7800   -0.0888    0.3629 H   0  0  0  0  0  0  0  0  0  0  0  0
    4.7800    0.1947    1.9711 H   0  0  0  0  0  0  0  0  0  0  0  0
    6.6733   -2.6582    1.6450 H   0  0  0  0  0  0  0  0  0  0  0  0
    6.6733   -1.4073    0.5954 H   0  0  0  0  0  0  0  0  0  0  0  0
    6.6733   -1.1237    2.2036 H   0  0  0  0  0  0  0  0  0  0  0  0
  1  2  1  0  0  0  0
  2  3  1  0  0  0  0
  3  4  2  0  0  0  0
  4  5  1  0  0  0  0
  5  6  2  0  0  0  0
  6  7  1  0  0  0  0
  7  2  2  0  0  0  0
  5  8  1  0  0  0  0
  8  9  1  0  0  0  0
  9 10  1  0  0  0  0
 10 11  1  0  0  0  0
 11 12  2  0  0  0  0
 12 13  1  0  0  0  0
 13 14  1  0  0  0  0
 14 15  1  0  0  0  0
 12 16  1  0  0  0  0
  8 17  1  0  0  0  0
 17 18  1  0  0  0  0
 18 19  1  0  0  0  0
  3 20  1  0  0  0  0
  4 21  1  0  0  0  0
  6 22  1  0  0  0  0
  7 23  1  0  0  0  0
  8 24  1  0  0  0  0
  9 25  1  0  0  0  0
  9 26  1  0  0  0  0
 13 27  1  0  0  0  0
 13 28  1  0  0  0  0
 14 29  1  0  0  0  0
 14 30  1  0  0  0  0
 15 31  1  0  0  0  0
 15 32  1  0  0  0  0
 15 33  1  0  0  0  0
 16 34  1  0  0  0  0
 16 35  1  0  0  0  0
 16 36  1  0  0  0  0
 17 37  1  0  0  0  0
 17 38  1  0  0  0  0
 19 39  1  0  0  0  0
 19 40  1  0  0  0  0
 19 41  1  0  0  0  0
M  END
>  <result-rank>
26

>  <similarity>
0.936

>  <query-name>
LIG_A_1101_CC(C)SC[R*]_1

>  <query-smiles>
S(C(C)C)CC(=O)[C@@H](NC(=O)C)Cc1ccc(O)cc1

>  <source>
REALspace_2019-12

>  <similarity-descriptor>
0.962;0.998;0.997;0.997;1.000;0.998;0.922;0.999;0.735;0.735;0.994;0.999;0.0;0.0

>  <similarity-descriptor-smiles>
Brc1ccccc1;CC;CC;CC;C;CC;ON;CC;CO;CO;C;CC;;

>  <reaction-name>
s_34

>  <reagent1-name>
15258682

>  <reagent1-smiles>
[R1*]ON=C(CCC)C

>  <reagent2-name>
10809276

>  <reagent2-smiles>
[R1*]CC(c1ccc(Br)cc1)COC

$$$$
s_276436a____16886450____17513464
          04022015093D 1   1.00000     0.00000     0
            
 44 44  0  0  0  0            999 V2000
   -0.3687    0.5827   -1.4721 F   0  0  0  0  0  0  0  0  0  0  0  0
   -1.0139    1.6600   -1.0338 C   0  0  0  0  0  0  0  0  0  0  0  0
   -1.8979    1.3010   -0.1073 F   0  0  0  0  0  0  0  0  0  0  0  0
   -0.0175    2.6373   -0.4317 C   0  0  3  0  0  0  0  0  0  0  0  0
    0.2900    2.2298    1.0000 C   0  0  0  0  0  0  0  0  0  0  0  0
    1.0000    1.0000    1.0000 O   0  0  0  0  0  0  0  0  0  0  0  0
    2.3100    1.0000    1.0000 C   0  0  0  0  0  0  0  0  0  0  0  0
    2.9100    2.0392    1.0000 O   0  0  0  0  0  0  0  0  0  0  0  0
    3.0700   -0.3164    1.0000 C   0  0  3  0  0  0  0  0  0  0  0  0
    4.5152   -0.0477    1.0000 N   0  0  0  0  0  0  0  0  0  0  0  0
    5.2971   -0.5058    2.0275 C   0  0  0  0  0  0  0  0  0  0  0  0
    4.8022   -1.1263    2.9275 O   0  0  0  0  0  0  0  0  0  0  0  0
    6.7915   -0.2281    2.0275 C   0  0  0  0  0  0  0  0  0  0  0  0
    2.7028   -1.1134   -0.2411 C   0  0  0  0  0  0  0  0  0  0  0  0
    3.4628   -2.4298   -0.2411 C   0  0  0  0  0  0  0  0  0  0  0  0
    2.8968   -3.5469    0.3644 C   0  0  0  0  0  0  0  0  0  0  0  0
    3.5882   -4.7537    0.3662 C   0  0  0  0  0  0  0  0  0  0  0  0
    4.8387   -4.8280   -0.2391 C   0  0  0  0  0  0  0  0  0  0  0  0
    5.5134   -5.9972   -0.2393 O   0  0  0  0  0  0  0  0  0  0  0  0
    5.4095   -3.7138   -0.8457 C   0  0  0  0  0  0  0  0  0  0  0  0
    4.7135   -2.5097   -0.8449 C   0  0  0  0  0  0  0  0  0  0  0  0
   -0.6100    4.0370   -0.4439 C   0  0  0  0  0  0  0  0  0  0  0  0
   -1.7372    2.3243   -2.1939 C   0  0  0  0  0  0  0  0  0  0  0  0
    0.8256    2.6275   -0.9694 H   0  0  0  0  0  0  0  0  0  0  0  0
    0.8476    2.9366    1.4353 H   0  0  0  0  0  0  0  0  0  0  0  0
   -0.5653    2.1209    1.5066 H   0  0  0  0  0  0  0  0  0  0  0  0
    2.8284   -0.8407    1.8165 H   0  0  0  0  0  0  0  0  0  0  0  0
    4.9277    0.4693    0.2500 H   0  0  0  0  0  0  0  0  0  0  0  0
    7.0331    0.2963    1.2110 H   0  0  0  0  0  0  0  0  0  0  0  0
    7.0331    0.2963    2.8440 H   0  0  0  0  0  0  0  0  0  0  0  0
    7.2915   -1.0941    2.0275 H   0  0  0  0  0  0  0  0  0  0  0  0
    1.7196   -1.2961   -0.2411 H   0  0  0  0  0  0  0  0  0  0  0  0
    2.9444   -0.5890   -1.0576 H   0  0  0  0  0  0  0  0  0  0  0  0
    1.9971   -3.4826    0.7963 H   0  0  0  0  0  0  0  0  0  0  0  0
    3.1894   -5.5620    0.7993 H   0  0  0  0  0  0  0  0  0  0  0  0
    6.4125   -6.0555   -0.6731 H   0  0  0  0  0  0  0  0  0  0  0  0
    6.3094   -3.7778   -1.2771 H   0  0  0  0  0  0  0  0  0  0  0  0
    5.1120   -1.7014   -1.2783 H   0  0  0  0  0  0  0  0  0  0  0  0
    0.0455    4.6799   -0.0478 H   0  0  0  0  0  0  0  0  0  0  0  0
   -0.8123    4.3051   -1.3859 H   0  0  0  0  0  0  0  0  0  0  0  0
   -1.4531    4.0468    0.0938 H   0  0  0  0  0  0  0  0  0  0  0  0
   -2.2223    3.1343   -1.8644 H   0  0  0  0  0  0  0  0  0  0  0  0
   -1.0725    2.5942   -2.8906 H   0  0  0  0  0  0  0  0  0  0  0  0
   -2.3928    1.6813   -2.5901 H   0  0  0  0  0  0  0  0  0  0  0  0
  1  2  1  0  0  0  0
  2  3  1  0  0  0  0
  2  4  1  0  0  0  0
  4  5  1  0  0  0  0
  5  6  1  0  0  0  0
  6  7  1  0  0  0  0
  7  8  2  0  0  0  0
  7  9  1  0  0  0  0
  9 10  1  0  0  0  0
 10 11  1  0  0  0  0
 11 12  2  0  0  0  0
 11 13  1  0  0  0  0
  9 14  1  0  0  0  0
 14 15  1  0  0  0  0
 15 16  1  0  0  0  0
 16 17  2  0  0  0  0
 17 18  1  0  0  0  0
 18 19  1  0  0  0  0
 18 20  2  0  0  0  0
 20 21  1  0  0  0  0
 21 15  2  0  0  0  0
  4 22  1  0  0  0  0
  2 23  1  0  0  0  0
  4 24  1  0  0  0  0
  5 25  1  0  0  0  0
  5 26  1  0  0  0  0
  9 27  1  0  0  0  0
 10 28  1  0  0  0  0
 13 29  1  0  0  0  0
 13 30  1  0  0  0  0
 13 31  1  0  0  0  0
 14 32  1  0  0  0  0
 14 33  1  0  0  0  0
 16 34  1  0  0  0  0
 17 35  1  0  0  0  0
 19 36  1  0  0  0  0
 20 37  1  0  0  0  0
 21 38  1  0  0  0  0
 22 39  1  0  0  0  0
 22 40  1  0  0  0  0
 22 41  1  0  0  0  0
 23 42  1  0  0  0  0
 23 43  1  0  0  0  0
 23 44  1  0  0  0  0
M  END
>  <result-rank>
27

>  <similarity>
0.935

>  <query-name>
LIG_A_1101_CC(C)SC[R*]_1

>  <query-smiles>
S(C(C)C)CC(=O)[C@@H](NC(=O)C)Cc1ccc(O)cc1

>  <source>
REALspace_2019-12

>  <similarity-descriptor>
1.000;0.731;0.731;1.000;1.000;0.994;0.766;1.000;1.000;1.000;1.000;1.000;1.000;0.0

>  <similarity-descriptor-smiles>
c1ccccc1;FC(F)C;FC(F)C;C;C;C;OC=O;C;N;C=O;C;C;O;

>  <reaction-name>
s_276436a

>  <reagent1-name>
16886450

>  <reagent1-smiles>
[R1*]OCC(C(F)(F)C)C

>  <reagent2-name>
17513464

>  <reagent2-smiles>
[R1*]C(=O)C(NC(=O)C)Cc1ccc(O)cc1

$$$$
s_22____7348398____1055140
          04022015093D 1   1.00000     0.00000     0
            
 37 37  0  0  0  0            999 V2000
    3.1233   -0.7065    1.0000 S   0  0  0  0  0  0  0  0  0  0  0  0
    2.5200    1.0000    1.0000 C   0  0  0  0  0  0  0  0  0  0  0  0
    1.0000    1.0000    1.0000 C   0  0  0  0  0  0  0  0  0  0  0  0
    0.4000    1.0000   -0.0392 O   0  0  0  0  0  0  0  0  0  0  0  0
    0.3150    1.0000    2.1865 N   0  0  0  0  0  0  0  0  0  0  0  0
   -1.1550    1.0000    2.1865 C   0  0  0  0  0  0  0  0  0  0  0  0
   -1.6617    1.0000    3.6195 C   0  0  0  0  0  0  0  0  0  0  0  0
   -3.1811    1.0000    3.6195 C   0  0  0  0  0  0  0  0  0  0  0  0
   -3.8612   -0.2127    3.6195 C   0  0  0  0  0  0  0  0  0  0  0  0
   -5.2519   -0.2018    3.6202 C   0  0  0  0  0  0  0  0  0  0  0  0
   -5.9279   -1.3704    3.6207 O   0  0  0  0  0  0  0  0  0  0  0  0
   -5.9458    1.0039    3.6210 C   0  0  0  0  0  0  0  0  0  0  0  0
   -7.2964    0.9946    3.6223 O   0  0  0  0  0  0  0  0  0  0  0  0
   -5.2613    2.2159    3.6210 C   0  0  0  0  0  0  0  0  0  0  0  0
   -3.8693    2.2080    3.6204 C   0  0  0  0  0  0  0  0  0  0  0  0
    4.9032   -0.3775    1.0000 C   0  0  0  0  0  0  0  0  0  0  0  0
    5.6619   -1.6947    1.0000 C   0  0  0  0  0  0  0  0  0  0  0  0
    7.1566   -1.4184    1.0000 C   0  0  0  0  0  0  0  0  0  0  0  0
    2.8533    1.4714    0.1835 H   0  0  0  0  0  0  0  0  0  0  0  0
    2.8533    1.4714    1.8165 H   0  0  0  0  0  0  0  0  0  0  0  0
    0.8150    1.0000    3.0525 H   0  0  0  0  0  0  0  0  0  0  0  0
   -1.4883    0.1835    1.7151 H   0  0  0  0  0  0  0  0  0  0  0  0
   -1.4883    1.8165    1.7151 H   0  0  0  0  0  0  0  0  0  0  0  0
   -1.3283    0.1835    4.0909 H   0  0  0  0  0  0  0  0  0  0  0  0
   -1.3283    1.8165    4.0909 H   0  0  0  0  0  0  0  0  0  0  0  0
   -3.3592   -1.0776    3.6190 H   0  0  0  0  0  0  0  0  0  0  0  0
   -5.4286   -2.2368    3.6202 H   0  0  0  0  0  0  0  0  0  0  0  0
   -7.8023    1.8571    3.6229 H   0  0  0  0  0  0  0  0  0  0  0  0
   -5.7629    3.0810    3.6215 H   0  0  0  0  0  0  0  0  0  0  0  0
   -3.3644    3.0711    3.6207 H   0  0  0  0  0  0  0  0  0  0  0  0
    5.1453    0.1466    1.8165 H   0  0  0  0  0  0  0  0  0  0  0  0
    5.1453    0.1466    0.1835 H   0  0  0  0  0  0  0  0  0  0  0  0
    5.4198   -2.2188    0.1835 H   0  0  0  0  0  0  0  0  0  0  0  0
    5.4198   -2.2188    1.8165 H   0  0  0  0  0  0  0  0  0  0  0  0
    7.6557   -2.2849    1.0000 H   0  0  0  0  0  0  0  0  0  0  0  0
    7.3987   -0.8943    0.1835 H   0  0  0  0  0  0  0  0  0  0  0  0
    7.3987   -0.8943    1.8165 H   0  0  0  0  0  0  0  0  0  0  0  0
  1  2  1  0  0  0  0
  2  3  1  0  0  0  0
  3  4  2  0  0  0  0
  3  5  1  0  0  0  0
  5  6  1  0  0  0  0
  6  7  1  0  0  0  0
  7  8  1  0  0  0  0
  8  9  1  0  0  0  0
  9 10  2  0  0  0  0
 10 11  1  0  0  0  0
 10 12  1  0  0  0  0
 12 13  1  0  0  0  0
 12 14  2  0  0  0  0
 14 15  1  0  0  0  0
 15  8  2  0  0  0  0
  1 16  1  0  0  0  0
 16 17  1  0  0  0  0
 17 18  1  0  0  0  0
  2 19  1  0  0  0  0
  2 20  1  0  0  0  0
  5 21  1  0  0  0  0
  6 22  1  0  0  0  0
  6 23  1  0  0  0  0
  7 24  1  0  0  0  0
  7 25  1  0  0  0  0
  9 26  1  0  0  0  0
 11 27  1  0  0  0  0
 13 28  1  0  0  0  0
 14 29  1  0  0  0  0
 15 30  1  0  0  0  0
 16 31  1  0  0  0  0
 16 32  1  0  0  0  0
 17 33  1  0  0  0  0
 17 34  1  0  0  0  0
 18 35  1  0  0  0  0
 18 36  1  0  0  0  0
 18 37  1  0  0  0  0
M  END
>  <result-rank>
28

>  <similarity>
0.935

>  <query-name>
LIG_A_1101_CC(C)SC[R*]_1

>  <query-smiles>
S(C(C)C)CC(=O)[C@@H](NC(=O)C)Cc1ccc(O)cc1

>  <source>
REALspace_2019-12

>  <similarity-descriptor>
0.957;1.000;0.998;0.998;1.000;1.000;0.907;0.952;0.952;0.0;0.0;1.000;1.000;0.083

>  <similarity-descriptor-smiles>
c1ccccc1;S;CC;CC;C;C;C=O;NC;NC;;;C;O;O

>  <reaction-name>
s_22

>  <reagent1-name>
7348398

>  <reagent1-smiles>
[R1*]NCCc1cc(O)c(O)cc1

>  <reagent2-name>
1055140

>  <reagent2-smiles>
[R1*]C(=O)CSCCC

$$$$
s_22____16501874____548060
          04022015093D 1   1.00000     0.00000     0
            
 44 44  0  0  0  0            999 V2000
    4.4994   -6.9623    1.1347 Cl  0  0  0  0  0  0  0  0  0  0  0  0
    3.9029   -5.3102    0.8474 C   0  0  0  0  0  0  0  0  0  0  0  0
    2.6876   -4.9093    1.3912 C   0  0  0  0  0  0  0  0  0  0  0  0
    2.2173   -3.6191    1.1685 C   0  0  0  0  0  0  0  0  0  0  0  0
    2.9765   -2.7432    0.3998 C   0  0  0  0  0  0  0  0  0  0  0  0
    4.1917   -3.1437   -0.1444 C   0  0  0  0  0  0  0  0  0  0  0  0
    4.6621   -4.4342    0.0783 C   0  0  0  0  0  0  0  0  0  0  0  0
    2.4700   -1.3325    0.1511 C   0  0  0  0  0  0  0  0  0  0  0  0
    2.9767   -0.4113    1.2488 C   0  0  3  0  0  0  0  0  0  0  0  0
    4.4967   -0.4113    1.2488 C   0  0  0  0  0  0  0  0  0  0  0  0
    5.0967   -0.7667    2.2254 O   0  0  0  0  0  0  0  0  0  0  0  0
    5.1517   -0.0233    0.1828 O   0  0  0  0  0  0  0  0  0  0  0  0
    6.5717   -0.0233    0.1828 C   0  0  0  0  0  0  0  0  0  0  0  0
    2.4700    1.0000    1.0000 C   0  0  0  0  0  0  0  0  0  0  0  0
    1.0000    1.0000    1.0000 N   0  0  0  0  0  0  0  0  0  0  0  0
    0.3150    1.0000    2.1865 C   0  0  0  0  0  0  0  0  0  0  0  0
    0.9150    1.0000    3.2257 O   0  0  0  0  0  0  0  0  0  0  0  0
   -1.2050    1.0000    2.1865 C   0  0  0  0  0  0  0  0  0  0  0  0
   -1.8083   -0.7065    2.1865 S   0  0  0  0  0  0  0  0  0  0  0  0
   -3.5882   -0.3775    2.1865 C   0  0  0  0  0  0  0  0  0  0  0  0
   -4.3469   -1.6947    2.1865 C   0  0  0  0  0  0  0  0  0  0  0  0
   -3.9562    0.4192    3.4275 C   0  0  0  0  0  0  0  0  0  0  0  0
    2.1515   -5.5486    1.9425 H   0  0  0  0  0  0  0  0  0  0  0  0
    1.3439   -3.3250    1.5565 H   0  0  0  0  0  0  0  0  0  0  0  0
    4.7276   -2.5044   -0.6958 H   0  0  0  0  0  0  0  0  0  0  0  0
    5.5354   -4.7284   -0.3099 H   0  0  0  0  0  0  0  0  0  0  0  0
    1.4700   -1.3325    0.1511 H   0  0  0  0  0  0  0  0  0  0  0  0
    2.8033   -1.0100   -0.7349 H   0  0  0  0  0  0  0  0  0  0  0  0
    2.6433   -0.7338    2.1348 H   0  0  0  0  0  0  0  0  0  0  0  0
    6.9050    0.2992   -0.7032 H   0  0  0  0  0  0  0  0  0  0  0  0
    6.9050    0.5827    0.9050 H   0  0  0  0  0  0  0  0  0  0  0  0
    6.9050   -0.9518    0.3465 H   0  0  0  0  0  0  0  0  0  0  0  0
    2.8033    1.6060    1.7222 H   0  0  0  0  0  0  0  0  0  0  0  0
    2.8033    1.3225    0.1140 H   0  0  0  0  0  0  0  0  0  0  0  0
    0.5000    1.0000    0.1340 H   0  0  0  0  0  0  0  0  0  0  0  0
   -1.5383    1.4714    3.0030 H   0  0  0  0  0  0  0  0  0  0  0  0
   -1.5383    1.4714    1.3700 H   0  0  0  0  0  0  0  0  0  0  0  0
   -3.8303    0.1466    1.3700 H   0  0  0  0  0  0  0  0  0  0  0  0
   -5.3302   -1.5129    2.1865 H   0  0  0  0  0  0  0  0  0  0  0  0
   -4.1048   -2.2188    1.3700 H   0  0  0  0  0  0  0  0  0  0  0  0
   -4.1048   -2.2188    3.0030 H   0  0  0  0  0  0  0  0  0  0  0  0
   -4.9395    0.6009    3.4275 H   0  0  0  0  0  0  0  0  0  0  0  0
   -3.7141   -0.1050    4.2440 H   0  0  0  0  0  0  0  0  0  0  0  0
   -3.4571    1.2857    3.4275 H   0  0  0  0  0  0  0  0  0  0  0  0
  1  2  1  0  0  0  0
  2  3  1  0  0  0  0
  3  4  2  0  0  0  0
  4  5  1  0  0  0  0
  5  6  2  0  0  0  0
  6  7  1  0  0  0  0
  7  2  2  0  0  0  0
  5  8  1  0  0  0  0
  8  9  1  0  0  0  0
  9 10  1  0  0  0  0
 10 11  2  0  0  0  0
 10 12  1  0  0  0  0
 12 13  1  0  0  0  0
  9 14  1  0  0  0  0
 14 15  1  0  0  0  0
 15 16  1  0  0  0  0
 16 17  2  0  0  0  0
 16 18  1  0  0  0  0
 18 19  1  0  0  0  0
 19 20  1  0  0  0  0
 20 21  1  0  0  0  0
 20 22  1  0  0  0  0
  3 23  1  0  0  0  0
  4 24  1  0  0  0  0
  6 25  1  0  0  0  0
  7 26  1  0  0  0  0
  8 27  1  0  0  0  0
  8 28  1  0  0  0  0
  9 29  1  0  0  0  0
 13 30  1  0  0  0  0
 13 31  1  0  0  0  0
 13 32  1  0  0  0  0
 14 33  1  0  0  0  0
 14 34  1  0  0  0  0
 15 35  1  0  0  0  0
 18 36  1  0  0  0  0
 18 37  1  0  0  0  0
 20 38  1  0  0  0  0
 21 39  1  0  0  0  0
 21 40  1  0  0  0  0
 21 41  1  0  0  0  0
 22 42  1  0  0  0  0
 22 43  1  0  0  0  0
 22 44  1  0  0  0  0
M  END
>  <result-rank>
29

>  <similarity>
0.935

>  <query-name>
LIG_A_1101_CC(C)SC[R*]_1

>  <query-smiles>
S(C(C)C)CC(=O)[C@@H](NC(=O)C)Cc1ccc(O)cc1

>  <source>
REALspace_2019-12

>  <similarity-descriptor>
0.968;1.000;1.000;1.000;1.000;1.000;0.907;0.824;0.824;0.855;0.994;1.000;0.0;0.0

>  <similarity-descriptor-smiles>
Clc1ccccc1;S;C;C;C;C;C=O;CCN;CCN;C(=O)O;C;C;;

>  <reaction-name>
s_22

>  <reagent1-name>
16501874

>  <reagent1-smiles>
[R1*]NCC(C(=O)OC)Cc1ccc(Cl)cc1

>  <reagent2-name>
548060

>  <reagent2-smiles>
[R1*]C(=O)CSC(C)C

$$$$
s_22____16639008____548072
          04022015093D 1   1.00000     0.00000     0
            
 42 42  0  0  0  0            999 V2000
    0.6517    1.8583   -0.5550 S   0  0  0  0  0  0  0  0  0  0  0  0
    1.0000    1.0000    1.0000 C   0  0  0  0  0  0  0  0  0  0  0  0
    1.8776    1.8776    1.8776 C   0  0  0  0  0  0  0  0  0  0  0  0
    3.0725    1.7997    1.7997 O   0  0  0  0  0  0  0  0  0  0  0  0
    1.3043    2.7574    2.7574 N   0  0  0  0  0  0  0  0  0  0  0  0
   -0.1595    2.8528    2.8528 C   0  0  0  0  0  0  0  0  0  0  0  0
   -0.6411    2.0631    4.0587 C   0  0  0  0  0  0  0  0  0  0  0  0
   -0.7481    2.6971    5.2919 C   0  0  0  0  0  0  0  0  0  0  0  0
   -1.1885    1.9795    6.3993 C   0  0  0  0  0  0  0  0  0  0  0  0
   -1.5169    0.6351    6.2581 C   0  0  0  0  0  0  0  0  0  0  0  0
   -1.9396   -0.0571    7.3125 F   0  0  0  0  0  0  0  0  0  0  0  0
   -1.4108   -0.0040    5.0272 C   0  0  0  0  0  0  0  0  0  0  0  0
   -0.9702    0.7186    3.9235 C   0  0  0  0  0  0  0  0  0  0  0  0
    2.1530    3.6061    3.6061 C   0  0  0  0  0  0  0  0  0  0  0  0
    2.4456    4.9120    2.8853 C   0  0  0  0  0  0  0  0  0  0  0  0
    3.2654    5.7318    3.7052 O   0  0  0  0  0  0  0  0  0  0  0  0
   -0.3759    0.5981   -1.3500 C   0  0  0  0  0  0  0  0  0  0  0  0
   -0.8140    1.0914   -2.7194 C   0  0  0  0  0  0  0  0  0  0  0  0
   -1.6769    0.0332   -3.3870 C   0  0  0  0  0  0  0  0  0  0  0  0
   -2.1149    0.5265   -4.7564 C   0  0  0  0  0  0  0  0  0  0  0  0
    1.4742    0.1409    0.8075 H   0  0  0  0  0  0  0  0  0  0  0  0
    0.1409    0.8075    1.4742 H   0  0  0  0  0  0  0  0  0  0  0  0
   -0.5727    2.4786    2.0226 H   0  0  0  0  0  0  0  0  0  0  0  0
   -0.4251    3.8115    2.9544 H   0  0  0  0  0  0  0  0  0  0  0  0
   -0.5095    3.6641    5.3822 H   0  0  0  0  0  0  0  0  0  0  0  0
   -1.2685    2.4267    7.2901 H   0  0  0  0  0  0  0  0  0  0  0  0
   -1.6485   -0.9712    4.9369 H   0  0  0  0  0  0  0  0  0  0  0  0
   -0.8901    0.2714    3.0326 H   0  0  0  0  0  0  0  0  0  0  0  0
    3.0121    3.1319    3.7986 H   0  0  0  0  0  0  0  0  0  0  0  0
    1.6788    3.7986    4.4652 H   0  0  0  0  0  0  0  0  0  0  0  0
    2.9198    4.7195    2.0262 H   0  0  0  0  0  0  0  0  0  0  0  0
    1.5864    5.3862    2.6929 H   0  0  0  0  0  0  0  0  0  0  0  0
    3.4578    6.5909    3.2309 H   0  0  0  0  0  0  0  0  0  0  0  0
   -1.1824    0.4211   -0.7858 H   0  0  0  0  0  0  0  0  0  0  0  0
    0.1509   -0.2456   -1.4525 H   0  0  0  0  0  0  0  0  0  0  0  0
   -0.0075    1.2685   -3.2835 H   0  0  0  0  0  0  0  0  0  0  0  0
   -1.3408    1.9352   -2.6169 H   0  0  0  0  0  0  0  0  0  0  0  0
   -2.4834   -0.1439   -2.8228 H   0  0  0  0  0  0  0  0  0  0  0  0
   -1.1500   -0.8106   -3.4895 H   0  0  0  0  0  0  0  0  0  0  0  0
   -2.6827   -0.1698   -5.1956 H   0  0  0  0  0  0  0  0  0  0  0  0
   -2.6418    1.3702   -4.6539 H   0  0  0  0  0  0  0  0  0  0  0  0
   -1.3085    0.7035   -5.3205 H   0  0  0  0  0  0  0  0  0  0  0  0
  1  2  1  0  0  0  0
  2  3  1  0  0  0  0
  3  4  2  0  0  0  0
  3  5  1  0  0  0  0
  5  6  1  0  0  0  0
  6  7  1  0  0  0  0
  7  8  1  0  0  0  0
  8  9  2  0  0  0  0
  9 10  1  0  0  0  0
 10 11  1  0  0  0  0
 10 12  2  0  0  0  0
 12 13  1  0  0  0  0
 13  7  2  0  0  0  0
  5 14  1  0  0  0  0
 14 15  1  0  0  0  0
 15 16  1  0  0  0  0
  1 17  1  0  0  0  0
 17 18  1  0  0  0  0
 18 19  1  0  0  0  0
 19 20  1  0  0  0  0
  2 21  1  0  0  0  0
  2 22  1  0  0  0  0
  6 23  1  0  0  0  0
  6 24  1  0  0  0  0
  8 25  1  0  0  0  0
  9 26  1  0  0  0  0
 12 27  1  0  0  0  0
 13 28  1  0  0  0  0
 14 29  1  0  0  0  0
 14 30  1  0  0  0  0
 15 31  1  0  0  0  0
 15 32  1  0  0  0  0
 16 33  1  0  0  0  0
 17 34  1  0  0  0  0
 17 35  1  0  0  0  0
 18 36  1  0  0  0  0
 18 37  1  0  0  0  0
 19 38  1  0  0  0  0
 19 39  1  0  0  0  0
 20 40  1  0  0  0  0
 20 41  1  0  0  0  0
 20 42  1  0  0  0  0
M  END
>  <result-rank>
30

>  <similarity>
0.934

>  <query-name>
LIG_A_1101_CC(C)SC[R*]_1

>  <query-smiles>
S(C(C)C)CC(=O)[C@@H](NC(=O)C)Cc1ccc(O)cc1

>  <source>
REALspace_2019-12

>  <similarity-descriptor>
0.983;1.000;0.998;0.998;0.949;1.000;0.907;0.953;0.828;0.828;0.828;0.953;0.0;0.077

>  <similarity-descriptor-smiles>
c1ccc(cc1)F;S;CC;CC;C;C;C=O;N(C)C;CO;CO;CO;N(C)C;;C

>  <reaction-name>
s_22

>  <reagent1-name>
16639008

>  <reagent1-smiles>
[R1*]N(Cc1ccc(F)cc1)CCO

>  <reagent2-name>
548072

>  <reagent2-smiles>
[R1*]C(=O)CSCCCC

$$$$
s_527a____9282696____217437
          04022015093D 1   1.00000     0.00000     0
            
 50 50  0  0  0  0            999 V2000
    0.4000    1.0000   -0.0392 O   0  0  0  0  0  0  0  0  0  0  0  0
    1.0000    1.0000    1.0000 C   0  0  0  0  0  0  0  0  0  0  0  0
    0.3150    1.0000    2.1865 N   0  0  0  0  0  0  0  0  0  0  0  0
    0.9023    1.6365    3.3742 C   0  0  0  0  0  0  0  0  0  0  0  0
    1.0317    3.1321    3.1358 C   0  0  0  0  0  0  0  0  0  0  0  0
    0.0565    3.9287    3.4593 C   0  0  0  0  0  0  0  0  0  0  0  0
   -1.0073    0.3635    2.2717 C   0  0  0  0  0  0  0  0  0  0  0  0
   -1.0411   -0.5764    3.4659 C   0  0  0  0  0  0  0  0  0  0  0  0
   -2.0943   -1.5144    3.3003 O   0  0  0  0  0  0  0  0  0  0  0  0
   -2.1259   -2.3924    4.4159 C   0  0  0  0  0  0  0  0  0  0  0  0
    2.5200    1.0000    1.0000 C   0  0  0  0  0  0  0  0  0  0  0  0
    3.0267   -0.4331    1.0000 C   0  0  3  0  0  0  0  0  0  0  0  0
    3.4169   -0.8148    2.3649 N   0  0  0  0  0  0  0  0  0  0  0  0
    2.4971   -1.3822    3.2069 C   0  0  0  0  0  0  0  0  0  0  0  0
    1.5088   -1.8941    2.7586 O   0  0  0  0  0  0  0  0  0  0  0  0
    2.7286   -1.3632    4.7091 C   0  0  0  0  0  0  0  0  0  0  0  0
    4.2306   -0.5448    0.0788 C   0  0  0  0  0  0  0  0  0  0  0  0
    5.5065   -0.3357    0.5917 C   0  0  0  0  0  0  0  0  0  0  0  0
    6.6112   -0.4376   -0.2472 C   0  0  0  0  0  0  0  0  0  0  0  0
    6.4252   -0.7485   -1.5906 C   0  0  0  0  0  0  0  0  0  0  0  0
    7.5500   -0.8532   -2.4509 O   0  0  0  0  0  0  0  0  0  0  0  0
    7.3673   -1.1702   -3.8230 C   0  0  0  0  0  0  0  0  0  0  0  0
    5.1513   -0.9583   -2.1087 C   0  0  0  0  0  0  0  0  0  0  0  0
    4.0503   -0.8555   -1.2651 C   0  0  0  0  0  0  0  0  0  0  0  0
    1.8068    1.2472    3.5481 H   0  0  0  0  0  0  0  0  0  0  0  0
    0.3121    1.4749    4.1652 H   0  0  0  0  0  0  0  0  0  0  0  0
    1.8669    3.5034    2.7302 H   0  0  0  0  0  0  0  0  0  0  0  0
    0.1417    4.9126    3.3024 H   0  0  0  0  0  0  0  0  0  0  0  0
   -0.7787    3.5574    3.8649 H   0  0  0  0  0  0  0  0  0  0  0  0
   -1.1824   -0.1548    1.4346 H   0  0  0  0  0  0  0  0  0  0  0  0
   -1.7095    1.0670    2.3812 H   0  0  0  0  0  0  0  0  0  0  0  0
   -0.1696   -1.0620    3.5326 H   0  0  0  0  0  0  0  0  0  0  0  0
   -1.1933   -0.0484    4.3014 H   0  0  0  0  0  0  0  0  0  0  0  0
   -2.8675   -3.0530    4.2992 H   0  0  0  0  0  0  0  0  0  0  0  0
   -1.2543   -2.8781    4.4826 H   0  0  0  0  0  0  0  0  0  0  0  0
   -2.2781   -1.8644    5.2514 H   0  0  0  0  0  0  0  0  0  0  0  0
    2.8533    1.4714    1.8165 H   0  0  0  0  0  0  0  0  0  0  0  0
    2.8533    1.4714    0.1835 H   0  0  0  0  0  0  0  0  0  0  0  0
    2.3025   -1.0427    0.6775 H   0  0  0  0  0  0  0  0  0  0  0  0
    4.3537   -0.6604    2.6787 H   0  0  0  0  0  0  0  0  0  0  0  0
    3.5932   -0.9014    4.9073 H   0  0  0  0  0  0  0  0  0  0  0  0
    1.9794   -0.8741    5.1556 H   0  0  0  0  0  0  0  0  0  0  0  0
    2.7656   -2.3017    5.0525 H   0  0  0  0  0  0  0  0  0  0  0  0
    5.6290   -0.1131    1.5589 H   0  0  0  0  0  0  0  0  0  0  0  0
    7.5323   -0.2886    0.1124 H   0  0  0  0  0  0  0  0  0  0  0  0
    8.2569   -1.2034   -4.2787 H   0  0  0  0  0  0  0  0  0  0  0  0
    6.9185   -2.0602   -3.9026 H   0  0  0  0  0  0  0  0  0  0  0  0
    6.7980   -0.4700   -4.2539 H   0  0  0  0  0  0  0  0  0  0  0  0
    5.0286   -1.1803   -3.0760 H   0  0  0  0  0  0  0  0  0  0  0  0
    3.1292   -1.0048   -1.6246 H   0  0  0  0  0  0  0  0  0  0  0  0
  1  2  2  0  0  0  0
  2  3  1  0  0  0  0
  3  4  1  0  0  0  0
  4  5  1  0  0  0  0
  5  6  2  0  0  0  0
  3  7  1  0  0  0  0
  7  8  1  0  0  0  0
  8  9  1  0  0  0  0
  9 10  1  0  0  0  0
  2 11  1  0  0  0  0
 11 12  1  0  0  0  0
 12 13  1  0  0  0  0
 13 14  1  0  0  0  0
 14 15  2  0  0  0  0
 14 16  1  0  0  0  0
 12 17  1  0  0  0  0
 17 18  1  0  0  0  0
 18 19  2  0  0  0  0
 19 20  1  0  0  0  0
 20 21  1  0  0  0  0
 21 22  1  0  0  0  0
 20 23  2  0  0  0  0
 23 24  1  0  0  0  0
 24 17  2  0  0  0  0
  4 25  1  0  0  0  0
  4 26  1  0  0  0  0
  5 27  1  0  0  0  0
  6 28  1  0  0  0  0
  6 29  1  0  0  0  0
  7 30  1  0  0  0  0
  7 31  1  0  0  0  0
  8 32  1  0  0  0  0
  8 33  1  0  0  0  0
 10 34  1  0  0  0  0
 10 35  1  0  0  0  0
 10 36  1  0  0  0  0
 11 37  1  0  0  0  0
 11 38  1  0  0  0  0
 12 39  1  0  0  0  0
 13 40  1  0  0  0  0
 16 41  1  0  0  0  0
 16 42  1  0  0  0  0
 16 43  1  0  0  0  0
 18 44  1  0  0  0  0
 19 45  1  0  0  0  0
 22 46  1  0  0  0  0
 22 47  1  0  0  0  0
 22 48  1  0  0  0  0
 23 49  1  0  0  0  0
 24 50  1  0  0  0  0
M  END
>  <result-rank>
31

>  <similarity>
0.932

>  <query-name>
LIG_A_1101_CC(C)SC[R*]_1

>  <query-smiles>
S(C(C)C)CC(=O)[C@@H](NC(=O)C)Cc1ccc(O)cc1

>  <source>
REALspace_2019-12

>  <similarity-descriptor>
1.000;0.992;0.926;0.0;0.956;0.992;0.907;1.000;1.000;1.000;1.000;1.000;0.704;0.235

>  <similarity-descriptor-smiles>
c1ccccc1;NCC;C;;C;NCC;O=C;CC;N;C=O;C;CC;O;C.O.C.C

>  <reaction-name>
s_527a

>  <reagent1-name>
9282696

>  <reagent1-smiles>
[R1*]N(CC=C)CCOC

>  <reagent2-name>
217437

>  <reagent2-smiles>
[R1*]C(=O)CC(NC(=O)C)c1ccc(OC)cc1

$$$$
s_22____16918398____107332
          04022015093D 1   1.00000     0.00000     0
            
 42 43  0  0  0  0            999 V2000
    5.8957   -1.5801    4.8239 Cl  0  0  0  0  0  0  0  0  0  0  0  0
    4.7153   -0.5657    3.9604 C   0  0  0  0  0  0  0  0  0  0  0  0
    3.3544   -0.8092    4.1090 C   0  0  0  0  0  0  0  0  0  0  0  0
    2.4285   -0.0192    3.4353 C   0  0  0  0  0  0  0  0  0  0  0  0
    2.8820    1.0104    2.6176 C   0  0  0  0  0  0  0  0  0  0  0  0
    4.2428    1.2540    2.4685 C   0  0  0  0  0  0  0  0  0  0  0  0
    5.1690    0.4639    3.1423 C   0  0  0  0  0  0  0  0  0  0  0  0
    1.8776    1.8776    1.8776 C   0  0  3  0  0  0  0  0  0  0  0  0
    1.0385    2.5935    2.8494 N   0  0  0  0  0  0  0  0  0  0  0  0
    1.0211    3.9634    2.8612 C   0  0  0  0  0  0  0  0  0  0  0  0
    1.6907    4.5788    2.0783 O   0  0  0  0  0  0  0  0  0  0  0  0
    0.1535    4.7037    3.8661 C   0  0  0  0  0  0  0  0  0  0  0  0
    1.0000    1.0000    1.0000 C   0  0  0  0  0  0  0  0  0  0  0  0
    1.8776    0.1224    0.1224 C   0  0  0  0  0  0  0  0  0  0  0  0
    2.9588    0.5109   -0.2240 O   0  0  0  0  0  0  0  0  0  0  0  0
    1.4236   -1.1413   -0.2824 N   0  0  0  0  0  0  0  0  0  0  0  0
    1.9585   -2.2381   -1.0983 C   0  0  0  0  0  0  0  0  0  0  0  0
    1.0893   -3.1473   -0.2571 C   0  0  0  0  0  0  0  0  0  0  0  0
    0.4163   -4.2480   -1.0593 C   0  0  0  0  0  0  0  0  0  0  0  0
   -0.3593   -3.7050   -1.9933 F   0  0  0  0  0  0  0  0  0  0  0  0
    0.2140   -1.9286   -0.0827 C   0  0  0  0  0  0  0  0  0  0  0  0
    1.7199   -3.6927    1.0104 C   0  0  0  0  0  0  0  0  0  0  0  0
    3.0412   -1.5524    4.7003 H   0  0  0  0  0  0  0  0  0  0  0  0
    1.4484   -0.1896    3.5377 H   0  0  0  0  0  0  0  0  0  0  0  0
    4.5558    1.9971    1.8770 H   0  0  0  0  0  0  0  0  0  0  0  0
    6.1490    0.6341    3.0396 H   0  0  0  0  0  0  0  0  0  0  0  0
    2.3646    2.5386    1.3068 H   0  0  0  0  0  0  0  0  0  0  0  0
    0.4806    2.0807    3.5018 H   0  0  0  0  0  0  0  0  0  0  0  0
   -0.3335    4.0426    4.4368 H   0  0  0  0  0  0  0  0  0  0  0  0
    0.7308    5.2810    4.4434 H   0  0  0  0  0  0  0  0  0  0  0  0
   -0.5076    5.2744    3.3790 H   0  0  0  0  0  0  0  0  0  0  0  0
    0.4226    0.4226    1.5774 H   0  0  0  0  0  0  0  0  0  0  0  0
    0.4226    1.5774    0.4226 H   0  0  0  0  0  0  0  0  0  0  0  0
    2.9424   -2.3914   -1.0067 H   0  0  0  0  0  0  0  0  0  0  0  0
    1.7159   -2.2004   -2.0677 H   0  0  0  0  0  0  0  0  0  0  0  0
    1.1138   -4.8172   -1.4947 H   0  0  0  0  0  0  0  0  0  0  0  0
   -0.1410   -4.8117   -0.4496 H   0  0  0  0  0  0  0  0  0  0  0  0
   -0.4863   -1.8095   -0.7866 H   0  0  0  0  0  0  0  0  0  0  0  0
   -0.2032   -1.8364    0.8215 H   0  0  0  0  0  0  0  0  0  0  0  0
    2.1535   -2.9461    1.5149 H   0  0  0  0  0  0  0  0  0  0  0  0
    1.0137   -4.1137    1.5796 H   0  0  0  0  0  0  0  0  0  0  0  0
    2.4083   -4.3778    0.7720 H   0  0  0  0  0  0  0  0  0  0  0  0
  1  2  1  0  0  0  0
  2  3  1  0  0  0  0
  3  4  2  0  0  0  0
  4  5  1  0  0  0  0
  5  6  2  0  0  0  0
  6  7  1  0  0  0  0
  7  2  2  0  0  0  0
  5  8  1  0  0  0  0
  8  9  1  0  0  0  0
  9 10  1  0  0  0  0
 10 11  2  0  0  0  0
 10 12  1  0  0  0  0
  8 13  1  0  0  0  0
 13 14  1  0  0  0  0
 14 15  2  0  0  0  0
 14 16  1  0  0  0  0
 16 17  1  0  0  0  0
 17 18  1  0  0  0  0
 18 19  1  0  0  0  0
 19 20  1  0  0  0  0
 18 21  1  0  0  0  0
 21 16  1  0  0  0  0
 18 22  1  0  0  0  0
  3 23  1  0  0  0  0
  4 24  1  0  0  0  0
  6 25  1  0  0  0  0
  7 26  1  0  0  0  0
  8 27  1  0  0  0  0
  9 28  1  0  0  0  0
 12 29  1  0  0  0  0
 12 30  1  0  0  0  0
 12 31  1  0  0  0  0
 13 32  1  0  0  0  0
 13 33  1  0  0  0  0
 17 34  1  0  0  0  0
 17 35  1  0  0  0  0
 19 36  1  0  0  0  0
 19 37  1  0  0  0  0
 21 38  1  0  0  0  0
 21 39  1  0  0  0  0
 22 40  1  0  0  0  0
 22 41  1  0  0  0  0
 22 42  1  0  0  0  0
M  END
>  <result-rank>
32

>  <similarity>
0.932

>  <query-name>
LIG_A_1101_CC(C)SC[R*]_1

>  <query-smiles>
S(C(C)C)CC(=O)[C@@H](NC(=O)C)Cc1ccc(O)cc1

>  <source>
REALspace_2019-12

>  <similarity-descriptor>
0.968;0.759;0.759;0.989;1.000;0.759;0.907;1.000;1.000;1.000;1.000;1.000;0.0;0.0

>  <similarity-descriptor-smiles>
Clc1ccccc1;N1CCC1;N1CCC1;CF;C;N1CCC1;C=O;CC;N;C=O;C;CC;;

>  <reaction-name>
s_22

>  <reagent1-name>
16918398

>  <reagent1-smiles>
[R1*]N1CC(CF)(C1)C

>  <reagent2-name>
107332

>  <reagent2-smiles>
[R1*]C(=O)CC(NC(=O)C)c1ccc(Cl)cc1

$$$$
s_22____13949588____17513450
          04022015093D 1   1.00000     0.00000     0
            
 46 46  0  0  0  0            999 V2000
    0.9150    1.0000    3.2257 O   0  0  0  0  0  0  0  0  0  0  0  0
    0.3150    1.0000    2.1865 C   0  0  0  0  0  0  0  0  0  0  0  0
    1.0000    1.0000    1.0000 N   0  0  0  0  0  0  0  0  0  0  0  0
    2.4700    1.0000    1.0000 C   0  0  0  0  0  0  0  0  0  0  0  0
    2.9767    1.0000   -0.4331 C   0  0  0  0  0  0  0  0  0  0  0  0
    4.4967    1.0000   -0.4331 C   0  0  0  0  0  0  0  0  0  0  0  0
    5.0033    1.0000   -1.8661 C   0  0  0  0  0  0  0  0  0  0  0  0
    5.3833    1.0000   -2.9409 N   0  0  0  0  0  0  0  0  0  0  0  0
    5.0033    2.2411    0.2835 C   0  0  0  0  0  0  0  0  0  0  0  0
    5.0033   -0.2411    0.2835 C   0  0  0  0  0  0  0  0  0  0  0  0
   -1.2050    1.0000    2.1865 C   0  0  3  0  0  0  0  0  0  0  0  0
   -1.6950    1.0000    3.5724 N   0  0  0  0  0  0  0  0  0  0  0  0
   -2.4826    2.0275    4.0205 C   0  0  0  0  0  0  0  0  0  0  0  0
   -2.7725    2.9275    3.2816 O   0  0  0  0  0  0  0  0  0  0  0  0
   -2.9893    2.0275    5.4535 C   0  0  0  0  0  0  0  0  0  0  0  0
   -1.7117   -0.2411    1.4699 C   0  0  0  0  0  0  0  0  0  0  0  0
   -3.2317   -0.2411    1.4699 C   0  0  0  0  0  0  0  0  0  0  0  0
   -3.9161    0.3644    0.4212 C   0  0  0  0  0  0  0  0  0  0  0  0
   -5.3069    0.3662    0.4166 C   0  0  0  0  0  0  0  0  0  0  0  0
   -5.9966   -0.2391    1.4624 C   0  0  0  0  0  0  0  0  0  0  0  0
   -7.3464   -0.2393    1.4621 O   0  0  0  0  0  0  0  0  0  0  0  0
   -5.3170   -0.8457    2.5138 C   0  0  0  0  0  0  0  0  0  0  0  0
   -3.9262   -0.8449    2.5131 C   0  0  0  0  0  0  0  0  0  0  0  0
    0.5000    1.0000    0.1340 H   0  0  0  0  0  0  0  0  0  0  0  0
    2.8033    0.1835    1.4714 H   0  0  0  0  0  0  0  0  0  0  0  0
    2.8033    1.8165    1.4714 H   0  0  0  0  0  0  0  0  0  0  0  0
    2.6433    0.1835   -0.9045 H   0  0  0  0  0  0  0  0  0  0  0  0
    2.6433    1.8165   -0.9045 H   0  0  0  0  0  0  0  0  0  0  0  0
    4.6700    2.2411    1.2263 H   0  0  0  0  0  0  0  0  0  0  0  0
    6.0033    2.2411    0.2835 H   0  0  0  0  0  0  0  0  0  0  0  0
    4.6700    3.0576   -0.1879 H   0  0  0  0  0  0  0  0  0  0  0  0
    4.6700   -0.2411    1.2263 H   0  0  0  0  0  0  0  0  0  0  0  0
    4.6700   -1.0576   -0.1879 H   0  0  0  0  0  0  0  0  0  0  0  0
    6.0033   -0.2411    0.2835 H   0  0  0  0  0  0  0  0  0  0  0  0
   -1.5383    1.8165    1.7151 H   0  0  0  0  0  0  0  0  0  0  0  0
   -1.4534    0.2500    4.1881 H   0  0  0  0  0  0  0  0  0  0  0  0
   -2.6560    1.2110    5.9249 H   0  0  0  0  0  0  0  0  0  0  0  0
   -2.6560    2.8440    5.9249 H   0  0  0  0  0  0  0  0  0  0  0  0
   -3.9893    2.0275    5.4535 H   0  0  0  0  0  0  0  0  0  0  0  0
   -1.3783   -0.2411    0.5271 H   0  0  0  0  0  0  0  0  0  0  0  0
   -1.3783   -1.0576    1.9413 H   0  0  0  0  0  0  0  0  0  0  0  0
   -3.4106    0.7963   -0.3258 H   0  0  0  0  0  0  0  0  0  0  0  0
   -5.8076    0.7993   -0.3330 H   0  0  0  0  0  0  0  0  0  0  0  0
   -7.8465   -0.6731    2.2116 H   0  0  0  0  0  0  0  0  0  0  0  0
   -5.8224   -1.2771    3.2611 H   0  0  0  0  0  0  0  0  0  0  0  0
   -3.4255   -1.2783    3.2624 H   0  0  0  0  0  0  0  0  0  0  0  0
  1  2  2  0  0  0  0
  2  3  1  0  0  0  0
  3  4  1  0  0  0  0
  4  5  1  0  0  0  0
  5  6  1  0  0  0  0
  6  7  1  0  0  0  0
  7  8  3  0  0  0  0
  6  9  1  0  0  0  0
  6 10  1  0  0  0  0
  2 11  1  0  0  0  0
 11 12  1  0  0  0  0
 12 13  1  0  0  0  0
 13 14  2  0  0  0  0
 13 15  1  0  0  0  0
 11 16  1  0  0  0  0
 16 17  1  0  0  0  0
 17 18  1  0  0  0  0
 18 19  2  0  0  0  0
 19 20  1  0  0  0  0
 20 21  1  0  0  0  0
 20 22  2  0  0  0  0
 22 23  1  0  0  0  0
 23 17  2  0  0  0  0
  3 24  1  0  0  0  0
  4 25  1  0  0  0  0
  4 26  1  0  0  0  0
  5 27  1  0  0  0  0
  5 28  1  0  0  0  0
  9 29  1  0  0  0  0
  9 30  1  0  0  0  0
  9 31  1  0  0  0  0
 10 32  1  0  0  0  0
 10 33  1  0  0  0  0
 10 34  1  0  0  0  0
 11 35  1  0  0  0  0
 12 36  1  0  0  0  0
 15 37  1  0  0  0  0
 15 38  1  0  0  0  0
 15 39  1  0  0  0  0
 16 40  1  0  0  0  0
 16 41  1  0  0  0  0
 18 42  1  0  0  0  0
 19 43  1  0  0  0  0
 21 44  1  0  0  0  0
 22 45  1  0  0  0  0
 23 46  1  0  0  0  0
M  END
>  <result-rank>
33

>  <similarity>
0.932

>  <query-name>
LIG_A_1101_CC(C)SC[R*]_1

>  <query-smiles>
S(C(C)C)CC(=O)[C@@H](NC(=O)C)Cc1ccc(O)cc1

>  <source>
REALspace_2019-12

>  <similarity-descriptor>
1.000;0.739;0.739;1.000;1.000;0.995;0.763;1.000;1.000;1.000;1.000;1.000;1.000;0.067

>  <similarity-descriptor-smiles>
c1ccccc1;CC;CC;C;C;C;O=CN;C;N;C=O;C;C;O;C#N

>  <reaction-name>
s_22

>  <reagent1-name>
13949588

>  <reagent1-smiles>
[R1*]NCCC(C#N)(C)C

>  <reagent2-name>
17513450

>  <reagent2-smiles>
[R1*]C(=O)C(NC(=O)C)Cc1ccc(O)cc1

$$$$
s_22____11649876____1322986
          04022015093D 1   1.00000     0.00000     0
            
 47 47  0  0  0  0            999 V2000
    0.6517    1.8583   -0.5550 S   0  0  0  0  0  0  0  0  0  0  0  0
    1.0000    1.0000    1.0000 C   0  0  0  0  0  0  0  0  0  0  0  0
    1.8776    1.8776    1.8776 C   0  0  0  0  0  0  0  0  0  0  0  0
    3.0725    1.7997    1.7997 O   0  0  0  0  0  0  0  0  0  0  0  0
    1.3043    2.7574    2.7574 N   0  0  0  0  0  0  0  0  0  0  0  0
    2.1530    3.6061    3.6061 C   0  0  3  0  0  0  0  0  0  0  0  0
    1.8605    5.0688    3.3136 C   0  0  0  0  0  0  0  0  0  0  0  0
    2.7591    5.8628    3.2675 O   0  0  0  0  0  0  0  0  0  0  0  0
    0.6275    5.4625    3.1119 O   0  0  0  0  0  0  0  0  0  0  0  0
    0.3542    6.8289    2.8386 C   0  0  0  0  0  0  0  0  0  0  0  0
    1.8605    3.3136    5.0688 C   0  0  0  0  0  0  0  0  0  0  0  0
    2.7383    4.1914    5.9465 C   0  0  0  0  0  0  0  0  0  0  0  0
    2.2816    5.4436    6.3443 C   0  0  0  0  0  0  0  0  0  0  0  0
    3.0883    6.2439    7.1468 C   0  0  0  0  0  0  0  0  0  0  0  0
    4.3407    5.7897    7.5465 C   0  0  0  0  0  0  0  0  0  0  0  0
    4.7863    4.5368    7.1434 C   0  0  0  0  0  0  0  0  0  0  0  0
    3.9893    3.7274    6.3405 C   0  0  0  0  0  0  0  0  0  0  0  0
   -0.3759    0.5981   -1.3500 C   0  0  0  0  0  0  0  0  0  0  0  0
   -0.8140    1.0914   -2.7194 C   0  0  0  0  0  0  0  0  0  0  0  0
   -1.6769    0.0332   -3.3870 C   0  0  0  0  0  0  0  0  0  0  0  0
   -2.1149    0.5265   -4.7564 C   0  0  0  0  0  0  0  0  0  0  0  0
   -0.8760   -1.2493   -3.5428 C   0  0  0  0  0  0  0  0  0  0  0  0
    1.4742    0.1409    0.8075 H   0  0  0  0  0  0  0  0  0  0  0  0
    0.1409    0.8075    1.4742 H   0  0  0  0  0  0  0  0  0  0  0  0
    0.3085    2.8223    2.8223 H   0  0  0  0  0  0  0  0  0  0  0  0
    3.1153    3.4137    3.4137 H   0  0  0  0  0  0  0  0  0  0  0  0
   -0.6299    6.9531    2.7116 H   0  0  0  0  0  0  0  0  0  0  0  0
    0.6648    7.3908    3.6053 H   0  0  0  0  0  0  0  0  0  0  0  0
    0.8352    7.1051    2.0065 H   0  0  0  0  0  0  0  0  0  0  0  0
    0.8983    3.5061    5.2612 H   0  0  0  0  0  0  0  0  0  0  0  0
    2.0530    2.3514    5.2612 H   0  0  0  0  0  0  0  0  0  0  0  0
    1.3802    5.7662    6.0556 H   0  0  0  0  0  0  0  0  0  0  0  0
    2.7678    7.1458    7.4362 H   0  0  0  0  0  0  0  0  0  0  0  0
    4.9204    6.3647    8.1239 H   0  0  0  0  0  0  0  0  0  0  0  0
    5.6874    4.2143    7.4330 H   0  0  0  0  0  0  0  0  0  0  0  0
    4.3107    2.8258    6.0509 H   0  0  0  0  0  0  0  0  0  0  0  0
   -1.1824    0.4211   -0.7858 H   0  0  0  0  0  0  0  0  0  0  0  0
    0.1509   -0.2456   -1.4525 H   0  0  0  0  0  0  0  0  0  0  0  0
   -1.3408    1.9352   -2.6169 H   0  0  0  0  0  0  0  0  0  0  0  0
   -0.0075    1.2685   -3.2835 H   0  0  0  0  0  0  0  0  0  0  0  0
   -2.4834   -0.1439   -2.8228 H   0  0  0  0  0  0  0  0  0  0  0  0
   -2.6827   -0.1698   -5.1956 H   0  0  0  0  0  0  0  0  0  0  0  0
   -2.6418    1.3702   -4.6539 H   0  0  0  0  0  0  0  0  0  0  0  0
   -1.3085    0.7035   -5.3205 H   0  0  0  0  0  0  0  0  0  0  0  0
   -1.4438   -1.9456   -3.9820 H   0  0  0  0  0  0  0  0  0  0  0  0
   -0.0696   -1.0723   -4.1070 H   0  0  0  0  0  0  0  0  0  0  0  0
   -0.5879   -1.5739   -2.6419 H   0  0  0  0  0  0  0  0  0  0  0  0
  1  2  1  0  0  0  0
  2  3  1  0  0  0  0
  3  4  2  0  0  0  0
  3  5  1  0  0  0  0
  5  6  1  0  0  0  0
  6  7  1  0  0  0  0
  7  8  2  0  0  0  0
  7  9  1  0  0  0  0
  9 10  1  0  0  0  0
  6 11  1  0  0  0  0
 11 12  1  0  0  0  0
 12 13  1  0  0  0  0
 13 14  2  0  0  0  0
 14 15  1  0  0  0  0
 15 16  2  0  0  0  0
 16 17  1  0  0  0  0
 17 12  2  0  0  0  0
  1 18  1  0  0  0  0
 18 19  1  0  0  0  0
 19 20  1  0  0  0  0
 20 21  1  0  0  0  0
 20 22  1  0  0  0  0
  2 23  1  0  0  0  0
  2 24  1  0  0  0  0
  5 25  1  0  0  0  0
  6 26  1  0  0  0  0
 10 27  1  0  0  0  0
 10 28  1  0  0  0  0
 10 29  1  0  0  0  0
 11 30  1  0  0  0  0
 11 31  1  0  0  0  0
 13 32  1  0  0  0  0
 14 33  1  0  0  0  0
 15 34  1  0  0  0  0
 16 35  1  0  0  0  0
 17 36  1  0  0  0  0
 18 37  1  0  0  0  0
 18 38  1  0  0  0  0
 19 39  1  0  0  0  0
 19 40  1  0  0  0  0
 20 41  1  0  0  0  0
 21 42  1  0  0  0  0
 21 43  1  0  0  0  0
 21 44  1  0  0  0  0
 22 45  1  0  0  0  0
 22 46  1  0  0  0  0
 22 47  1  0  0  0  0
M  END
>  <result-rank>
34

>  <similarity>
0.932

>  <query-name>
LIG_A_1101_CC(C)SC[R*]_1

>  <query-smiles>
S(C(C)C)CC(=O)[C@@H](NC(=O)C)Cc1ccc(O)cc1

>  <source>
REALspace_2019-12

>  <similarity-descriptor>
0.960;1.000;0.998;0.998;0.883;1.000;0.907;1.000;1.000;0.855;0.994;1.000;0.0;0.133

>  <similarity-descriptor-smiles>
c1ccccc1;S;CC;CC;C;C;C=O;NC;NC;C(=O)O;C;C;;C.C

>  <reaction-name>
s_22

>  <reagent1-name>
11649876

>  <reagent1-smiles>
[R1*]NC(C(=O)OC)Cc1ccccc1

>  <reagent2-name>
1322986

>  <reagent2-smiles>
[R1*]C(=O)CSCCC(C)C

$$$$
EN300-09603
          04022015093D 1   1.00000     0.00000     0
            
 30 30  0  0  0  0            999 V2000
   -1.7983   -0.6782    2.1865 Cl  0  0  0  0  0  0  0  0  0  0  0  0
   -1.2050    1.0000    2.1865 C   0  0  0  0  0  0  0  0  0  0  0  0
    0.3150    1.0000    2.1865 C   0  0  0  0  0  0  0  0  0  0  0  0
    0.9150    1.0000    3.2257 O   0  0  0  0  0  0  0  0  0  0  0  0
    1.0000    1.0000    1.0000 N   0  0  0  0  0  0  0  0  0  0  0  0
    2.4700    1.0000    1.0000 C   0  0  3  0  0  0  0  0  0  0  0  0
    2.9767    2.2411    0.2835 C   0  0  0  0  0  0  0  0  0  0  0  0
    3.9272    2.8352    0.7118 O   0  0  0  0  0  0  0  0  0  0  0  0
    2.2793    2.7296   -0.9756 C   0  0  0  0  0  0  0  0  0  0  0  0
    2.9767   -0.2411    0.2835 C   0  0  0  0  0  0  0  0  0  0  0  0
    4.4970   -0.2411    0.2835 C   0  0  0  0  0  0  0  0  0  0  0  0
    5.1860   -0.8453    1.3299 C   0  0  0  0  0  0  0  0  0  0  0  0
    6.5771   -0.8423    1.3265 C   0  0  0  0  0  0  0  0  0  0  0  0
    7.2687   -0.2393    0.2811 C   0  0  0  0  0  0  0  0  0  0  0  0
    6.5699    0.3607   -0.7592 C   0  0  0  0  0  0  0  0  0  0  0  0
    5.1789    0.3650   -0.7670 C   0  0  0  0  0  0  0  0  0  0  0  0
   -1.5383    1.4714    3.0030 H   0  0  0  0  0  0  0  0  0  0  0  0
   -1.5383    1.4714    1.3700 H   0  0  0  0  0  0  0  0  0  0  0  0
    0.5000    1.0000    0.1340 H   0  0  0  0  0  0  0  0  0  0  0  0
    2.8033    1.0000    1.9428 H   0  0  0  0  0  0  0  0  0  0  0  0
    1.5137    2.1229   -1.1895 H   0  0  0  0  0  0  0  0  0  0  0  0
    1.9378    3.6580   -0.8287 H   0  0  0  0  0  0  0  0  0  0  0  0
    2.9275    2.7295   -1.7371 H   0  0  0  0  0  0  0  0  0  0  0  0
    2.6433   -1.0576    0.7549 H   0  0  0  0  0  0  0  0  0  0  0  0
    2.6433   -0.2411   -0.6593 H   0  0  0  0  0  0  0  0  0  0  0  0
    4.6851   -1.2785    2.0792 H   0  0  0  0  0  0  0  0  0  0  0  0
    7.0799   -1.2736    2.0755 H   0  0  0  0  0  0  0  0  0  0  0  0
    8.2687   -0.2377    0.2782 H   0  0  0  0  0  0  0  0  0  0  0  0
    7.0712    0.7932   -1.5087 H   0  0  0  0  0  0  0  0  0  0  0  0
    4.6768    0.7970   -1.5161 H   0  0  0  0  0  0  0  0  0  0  0  0
  1  2  1  0  0  0  0
  2  3  1  0  0  0  0
  3  4  2  0  0  0  0
  3  5  1  0  0  0  0
  5  6  1  0  0  0  0
  6  7  1  0  0  0  0
  7  8  2  0  0  0  0
  7  9  1  0  0  0  0
  6 10  1  0  0  0  0
 10 11  1  0  0  0  0
 11 12  1  0  0  0  0
 12 13  2  0  0  0  0
 13 14  1  0  0  0  0
 14 15  2  0  0  0  0
 15 16  1  0  0  0  0
 16 11  2  0  0  0  0
  2 17  1  0  0  0  0
  2 18  1  0  0  0  0
  5 19  1  0  0  0  0
  6 20  1  0  0  0  0
  9 21  1  0  0  0  0
  9 22  1  0  0  0  0
  9 23  1  0  0  0  0
 10 24  1  0  0  0  0
 10 25  1  0  0  0  0
 12 26  1  0  0  0  0
 13 27  1  0  0  0  0
 14 28  1  0  0  0  0
 15 29  1  0  0  0  0
 16 30  1  0  0  0  0
M  END
>  <result-rank>
35

>  <similarity>
0.932

>  <query-name>
LIG_A_1101_CC(C)SC[R*]_1

>  <query-smiles>
S(C(C)C)CC(=O)[C@@H](NC(=O)C)Cc1ccc(O)cc1

>  <source>
REALspace_2019-12

>  <similarity-descriptor>
0.960;0.0;0.0;0.0;0.0;0.951;1.000;1.000;1.000;1.000;0.951;1.000;0.0;0.0

>  <similarity-descriptor-smiles>
c1ccccc1;;;;;C;C=O;C;N;C=O;ClC;C;;

$$$$
s_22____17318954____14651684
          04022015093D 1   1.00000     0.00000     0
            
 48 48  0  0  0  0            999 V2000
    3.1924   -1.5045    4.4279 F   0  0  0  0  0  0  0  0  0  0  0  0
    2.3114   -2.0530    3.5962 C   0  0  0  0  0  0  0  0  0  0  0  0
    1.0501   -1.4825    3.4593 C   0  0  0  0  0  0  0  0  0  0  0  0
    0.1128   -2.0387    2.5952 C   0  0  0  0  0  0  0  0  0  0  0  0
    0.4508   -3.1751    1.8665 C   0  0  0  0  0  0  0  0  0  0  0  0
    1.7133   -3.7412    2.0074 C   0  0  0  0  0  0  0  0  0  0  0  0
    2.0345   -4.8267    1.3107 F   0  0  0  0  0  0  0  0  0  0  0  0
    2.6535   -3.1890    2.8704 C   0  0  0  0  0  0  0  0  0  0  0  0
    0.6828   -0.2411    4.2566 C   0  0  0  0  0  0  0  0  0  0  0  0
    1.0500    1.0000    3.4595 C   0  0  3  0  0  0  0  0  0  0  0  0
    0.3150    1.0000    2.1865 N   0  0  0  0  0  0  0  0  0  0  0  0
    1.0000    1.0000    1.0000 C   0  0  0  0  0  0  0  0  0  0  0  0
    0.4000    1.0000   -0.0392 O   0  0  0  0  0  0  0  0  0  0  0  0
    2.5200    1.0000    1.0000 C   0  0  0  0  0  0  0  0  0  0  0  0
    3.0267    1.0000   -0.4331 C   0  0  0  0  0  0  0  0  0  0  0  0
    2.5200    2.2411   -1.1496 C   0  0  0  0  0  0  0  0  0  0  0  0
    3.0267    3.4821   -0.4331 C   0  0  0  0  0  0  0  0  0  0  0  0
    2.1819    4.3379    0.0610 C   0  0  0  0  0  0  0  0  0  0  0  0
    4.5467    1.0000   -0.4331 C   0  0  0  0  0  0  0  0  0  0  0  0
    2.5200   -0.2411   -1.1496 C   0  0  0  0  0  0  0  0  0  0  0  0
    0.6828    2.2411    4.2566 C   0  0  0  0  0  0  0  0  0  0  0  0
    1.3928    2.2411    5.4863 O   0  0  0  0  0  0  0  0  0  0  0  0
    1.0498    3.4005    6.2309 C   0  0  0  0  0  0  0  0  0  0  0  0
   -0.7933   -1.6269    2.4987 H   0  0  0  0  0  0  0  0  0  0  0  0
   -0.2139   -3.5845    1.2416 H   0  0  0  0  0  0  0  0  0  0  0  0
    3.5594   -3.6013    2.9674 H   0  0  0  0  0  0  0  0  0  0  0  0
    1.1828   -0.2411    5.1226 H   0  0  0  0  0  0  0  0  0  0  0  0
   -0.3004   -0.2411    4.4393 H   0  0  0  0  0  0  0  0  0  0  0  0
    2.0332    1.0000    3.2768 H   0  0  0  0  0  0  0  0  0  0  0  0
   -0.6850    1.0000    2.1865 H   0  0  0  0  0  0  0  0  0  0  0  0
    2.8533    0.1835    1.4714 H   0  0  0  0  0  0  0  0  0  0  0  0
    2.8533    1.8165    1.4714 H   0  0  0  0  0  0  0  0  0  0  0  0
    2.8533    2.2411   -2.0924 H   0  0  0  0  0  0  0  0  0  0  0  0
    1.5200    2.2411   -1.1496 H   0  0  0  0  0  0  0  0  0  0  0  0
    4.0098    3.6404   -0.3417 H   0  0  0  0  0  0  0  0  0  0  0  0
    2.5152    5.1544    0.5324 H   0  0  0  0  0  0  0  0  0  0  0  0
    1.1987    4.1796   -0.0304 H   0  0  0  0  0  0  0  0  0  0  0  0
    4.8800    1.0000   -1.3759 H   0  0  0  0  0  0  0  0  0  0  0  0
    4.8800    1.8165    0.0383 H   0  0  0  0  0  0  0  0  0  0  0  0
    4.8800    0.1835    0.0383 H   0  0  0  0  0  0  0  0  0  0  0  0
    2.8533   -0.2411   -2.0924 H   0  0  0  0  0  0  0  0  0  0  0  0
    2.8533   -1.0576   -0.6782 H   0  0  0  0  0  0  0  0  0  0  0  0
    1.5200   -0.2411   -1.1496 H   0  0  0  0  0  0  0  0  0  0  0  0
    0.9244    3.0576    3.7322 H   0  0  0  0  0  0  0  0  0  0  0  0
   -0.3004    2.2411    4.4393 H   0  0  0  0  0  0  0  0  0  0  0  0
    1.5498    3.4005    7.0970 H   0  0  0  0  0  0  0  0  0  0  0  0
    1.2913    4.2170    5.7066 H   0  0  0  0  0  0  0  0  0  0  0  0
    0.0666    3.4005    6.4137 H   0  0  0  0  0  0  0  0  0  0  0  0
  1  2  1  0  0  0  0
  2  3  1  0  0  0  0
  3  4  2  0  0  0  0
  4  5  1  0  0  0  0
  5  6  2  0  0  0  0
  6  7  1  0  0  0  0
  6  8  1  0  0  0  0
  8  2  2  0  0  0  0
  3  9  1  0  0  0  0
  9 10  1  0  0  0  0
 10 11  1  0  0  0  0
 11 12  1  0  0  0  0
 12 13  2  0  0  0  0
 12 14  1  0  0  0  0
 14 15  1  0  0  0  0
 15 16  1  0  0  0  0
 16 17  1  0  0  0  0
 17 18  2  0  0  0  0
 15 19  1  0  0  0  0
 15 20  1  0  0  0  0
 10 21  1  0  0  0  0
 21 22  1  0  0  0  0
 22 23  1  0  0  0  0
  4 24  1  0  0  0  0
  5 25  1  0  0  0  0
  8 26  1  0  0  0  0
  9 27  1  0  0  0  0
  9 28  1  0  0  0  0
 10 29  1  0  0  0  0
 11 30  1  0  0  0  0
 14 31  1  0  0  0  0
 14 32  1  0  0  0  0
 16 33  1  0  0  0  0
 16 34  1  0  0  0  0
 17 35  1  0  0  0  0
 18 36  1  0  0  0  0
 18 37  1  0  0  0  0
 19 38  1  0  0  0  0
 19 39  1  0  0  0  0
 19 40  1  0  0  0  0
 20 41  1  0  0  0  0
 20 42  1  0  0  0  0
 20 43  1  0  0  0  0
 21 44  1  0  0  0  0
 21 45  1  0  0  0  0
 23 46  1  0  0  0  0
 23 47  1  0  0  0  0
 23 48  1  0  0  0  0
M  END
>  <result-rank>
36

>  <similarity>
0.932

>  <query-name>
LIG_A_1101_CC(C)SC[R*]_1

>  <query-smiles>
S(C(C)C)CC(=O)[C@@H](NC(=O)C)Cc1ccc(O)cc1

>  <source>
REALspace_2019-12

>  <similarity-descriptor>
0.948;0.957;0.957;1.000;1.000;0.998;0.907;0.999;0.999;0.770;0.994;1.000;0.0;0.067

>  <similarity-descriptor-smiles>
Fc1cc(ccc1)F;CCC;CCC;C;C;C;C=O;CN;CN;CO;C;C;;C

>  <reaction-name>
s_22

>  <reagent1-name>
17318954

>  <reagent1-smiles>
[R1*]NC(COC)Cc1c(F)cc(F)cc1

>  <reagent2-name>
14651684

>  <reagent2-smiles>
[R1*]C(=O)CC(CC=C)(C)C

$$$$
s_527a____10430200____210093
          04022015093D 1   1.00000     0.00000     0
            
 43 43  0  0  0  0            999 V2000
    0.4000    1.0000   -0.0392 O   0  0  0  0  0  0  0  0  0  0  0  0
    1.0000    1.0000    1.0000 C   0  0  0  0  0  0  0  0  0  0  0  0
    0.3150    1.0000    2.1865 N   0  0  0  0  0  0  0  0  0  0  0  0
    1.0500    1.0000    3.4595 C   0  0  0  0  0  0  0  0  0  0  0  0
    1.3033    2.4331    3.8983 C   0  0  0  0  0  0  0  0  0  0  0  0
    0.8327    2.8583    5.0331 C   0  0  0  0  0  0  0  0  0  0  0  0
   -1.1550    1.0000    2.1865 C   0  0  0  0  0  0  0  0  0  0  0  0
   -1.6617   -0.4331    2.1865 C   0  0  0  0  0  0  0  0  0  0  0  0
   -3.1817   -0.4331    2.1865 C   0  0  0  0  0  0  0  0  0  0  0  0
   -4.3217   -0.4331    2.1865 N   0  0  0  0  0  0  0  0  0  0  0  0
    2.5200    1.0000    1.0000 C   0  0  0  0  0  0  0  0  0  0  0  0
    3.0267    1.2488   -0.4113 C   0  0  3  0  0  0  0  0  0  0  0  0
    4.3972    1.7773   -0.3538 N   0  0  0  0  0  0  0  0  0  0  0  0
    4.6793    3.0088   -0.8837 C   0  0  0  0  0  0  0  0  0  0  0  0
    3.8076    3.6561   -1.3947 O   0  0  0  0  0  0  0  0  0  0  0  0
    6.0965    3.5551   -0.8243 C   0  0  0  0  0  0  0  0  0  0  0  0
    3.0192   -0.0569   -1.1900 C   0  0  0  0  0  0  0  0  0  0  0  0
    3.7378   -1.1480   -0.7125 C   0  0  0  0  0  0  0  0  0  0  0  0
    3.7289   -2.3406   -1.4286 C   0  0  0  0  0  0  0  0  0  0  0  0
    3.0041   -2.4361   -2.6119 C   0  0  0  0  0  0  0  0  0  0  0  0
    2.2896   -1.3397   -3.0790 C   0  0  0  0  0  0  0  0  0  0  0  0
    2.2910   -0.1415   -2.3725 C   0  0  0  0  0  0  0  0  0  0  0  0
    1.9238    0.5286    3.3399 H   0  0  0  0  0  0  0  0  0  0  0  0
    0.5096    0.5286    4.1564 H   0  0  0  0  0  0  0  0  0  0  0  0
    1.8321    3.0488    3.3141 H   0  0  0  0  0  0  0  0  0  0  0  0
    0.9993    3.8011    5.3217 H   0  0  0  0  0  0  0  0  0  0  0  0
    0.3039    2.2425    5.6173 H   0  0  0  0  0  0  0  0  0  0  0  0
   -1.4883    1.4714    1.3700 H   0  0  0  0  0  0  0  0  0  0  0  0
   -1.4883    1.4714    3.0030 H   0  0  0  0  0  0  0  0  0  0  0  0
   -1.3283   -0.9045    1.3700 H   0  0  0  0  0  0  0  0  0  0  0  0
   -1.3283   -0.9045    3.0030 H   0  0  0  0  0  0  0  0  0  0  0  0
    2.8533    0.1140    1.3225 H   0  0  0  0  0  0  0  0  0  0  0  0
    2.8533    1.7222    1.6060 H   0  0  0  0  0  0  0  0  0  0  0  0
    2.4326    1.9119   -0.8667 H   0  0  0  0  0  0  0  0  0  0  0  0
    5.1236    1.2379    0.0720 H   0  0  0  0  0  0  0  0  0  0  0  0
    6.6906    2.8921   -0.3689 H   0  0  0  0  0  0  0  0  0  0  0  0
    6.4298    3.7189   -1.7528 H   0  0  0  0  0  0  0  0  0  0  0  0
    6.1014    4.4140   -0.3121 H   0  0  0  0  0  0  0  0  0  0  0  0
    4.2568   -1.0757    0.1391 H   0  0  0  0  0  0  0  0  0  0  0  0
    4.2437   -3.1294   -1.0926 H   0  0  0  0  0  0  0  0  0  0  0  0
    2.9972   -3.2935   -3.1264 H   0  0  0  0  0  0  0  0  0  0  0  0
    1.7700   -1.4127   -3.9303 H   0  0  0  0  0  0  0  0  0  0  0  0
    1.7765    0.6471   -2.7094 H   0  0  0  0  0  0  0  0  0  0  0  0
  1  2  2  0  0  0  0
  2  3  1  0  0  0  0
  3  4  1  0  0  0  0
  4  5  1  0  0  0  0
  5  6  2  0  0  0  0
  3  7  1  0  0  0  0
  7  8  1  0  0  0  0
  8  9  1  0  0  0  0
  9 10  3  0  0  0  0
  2 11  1  0  0  0  0
 11 12  1  0  0  0  0
 12 13  1  0  0  0  0
 13 14  1  0  0  0  0
 14 15  2  0  0  0  0
 14 16  1  0  0  0  0
 12 17  1  0  0  0  0
 17 18  1  0  0  0  0
 18 19  2  0  0  0  0
 19 20  1  0  0  0  0
 20 21  2  0  0  0  0
 21 22  1  0  0  0  0
 22 17  2  0  0  0  0
  4 23  1  0  0  0  0
  4 24  1  0  0  0  0
  5 25  1  0  0  0  0
  6 26  1  0  0  0  0
  6 27  1  0  0  0  0
  7 28  1  0  0  0  0
  7 29  1  0  0  0  0
  8 30  1  0  0  0  0
  8 31  1  0  0  0  0
 11 32  1  0  0  0  0
 11 33  1  0  0  0  0
 12 34  1  0  0  0  0
 13 35  1  0  0  0  0
 16 36  1  0  0  0  0
 16 37  1  0  0  0  0
 16 38  1  0  0  0  0
 18 39  1  0  0  0  0
 19 40  1  0  0  0  0
 20 41  1  0  0  0  0
 21 42  1  0  0  0  0
 22 43  1  0  0  0  0
M  END
>  <result-rank>
37

>  <similarity>
0.931

>  <query-name>
LIG_A_1101_CC(C)SC[R*]_1

>  <query-smiles>
S(C(C)C)CC(=O)[C@@H](NC(=O)C)Cc1ccc(O)cc1

>  <source>
REALspace_2019-12

>  <similarity-descriptor>
0.960;0.992;0.926;0.0;0.948;0.992;0.907;1.000;1.000;1.000;1.000;1.000;0.0;0.143

>  <similarity-descriptor-smiles>
c1ccccc1;NCC;C;;C;NCC;O=C;CC;N;C=O;C;CC;;C.C#N

>  <reaction-name>
s_527a

>  <reagent1-name>
10430200

>  <reagent1-smiles>
[R1*]N(CC=C)CCC#N

>  <reagent2-name>
210093

>  <reagent2-smiles>
[R1*]C(=O)CC(NC(=O)C)c1ccccc1

$$$$
s_22____14718616____107332
          04022015093D 1   1.00000     0.00000     0
            
 45 45  0  0  0  0            999 V2000
   -0.6757   -2.9595    7.6834 Cl  0  0  0  0  0  0  0  0  0  0  0  0
   -0.9896   -1.6998    6.4659 C   0  0  0  0  0  0  0  0  0  0  0  0
   -1.7244   -2.0071    5.3262 C   0  0  0  0  0  0  0  0  0  0  0  0
   -1.9714   -1.0257    4.3716 C   0  0  0  0  0  0  0  0  0  0  0  0
   -1.4761    0.2581    4.5742 C   0  0  0  0  0  0  0  0  0  0  0  0
   -0.7411    0.5659    5.7136 C   0  0  0  0  0  0  0  0  0  0  0  0
   -0.4940   -0.4158    6.6683 C   0  0  0  0  0  0  0  0  0  0  0  0
   -1.7407    1.3359    3.5365 C   0  0  3  0  0  0  0  0  0  0  0  0
   -3.1881    1.5698    3.4309 N   0  0  0  0  0  0  0  0  0  0  0  0
   -3.7027    2.8110    3.6981 C   0  0  0  0  0  0  0  0  0  0  0  0
   -2.9719    3.7073    4.0182 O   0  0  0  0  0  0  0  0  0  0  0  0
   -5.1994    3.0528    3.5890 C   0  0  0  0  0  0  0  0  0  0  0  0
   -1.2007    0.8853    2.1890 C   0  0  0  0  0  0  0  0  0  0  0  0
    0.3150    1.0000    2.1865 C   0  0  0  0  0  0  0  0  0  0  0  0
    0.9116    1.0906    3.2237 O   0  0  0  0  0  0  0  0  0  0  0  0
    1.0000    1.0000    1.0000 N   0  0  0  0  0  0  0  0  0  0  0  0
    2.4700    1.0000    1.0000 C   0  0  0  0  0  0  0  0  0  0  0  0
    2.9767   -0.4113    1.2488 C   0  0  0  0  0  0  0  0  0  0  0  0
    3.7241   -0.9993    0.3625 C   0  0  0  0  0  0  0  0  0  0  0  0
    4.0913   -0.2756   -0.9227 C   0  0  0  0  0  0  0  0  0  0  0  0
    5.6027   -0.1450   -1.0165 C   0  0  0  0  0  0  0  0  0  0  0  0
    5.9699    0.5788   -2.3017 C   0  0  0  0  0  0  0  0  0  0  0  0
   -2.0754   -2.9339    5.1926 H   0  0  0  0  0  0  0  0  0  0  0  0
   -2.4988   -1.2406    3.5497 H   0  0  0  0  0  0  0  0  0  0  0  0
   -0.3901    1.4927    5.8470 H   0  0  0  0  0  0  0  0  0  0  0  0
    0.0337   -0.2009    7.4902 H   0  0  0  0  0  0  0  0  0  0  0  0
   -1.2854    2.1826    3.8118 H   0  0  0  0  0  0  0  0  0  0  0  0
   -3.7971    0.8228    3.1641 H   0  0  0  0  0  0  0  0  0  0  0  0
   -5.6546    2.2061    3.3137 H   0  0  0  0  0  0  0  0  0  0  0  0
   -5.5546    3.3493    4.4755 H   0  0  0  0  0  0  0  0  0  0  0  0
   -5.3735    3.7622    2.9060 H   0  0  0  0  0  0  0  0  0  0  0  0
   -1.4632   -0.0657    2.0258 H   0  0  0  0  0  0  0  0  0  0  0  0
   -1.5800    1.4643    1.4673 H   0  0  0  0  0  0  0  0  0  0  0  0
    0.5000    1.0000    0.1340 H   0  0  0  0  0  0  0  0  0  0  0  0
    2.8033    1.6060    1.7222 H   0  0  0  0  0  0  0  0  0  0  0  0
    2.8033    1.3225    0.1140 H   0  0  0  0  0  0  0  0  0  0  0  0
    2.7351   -0.8874    2.0944 H   0  0  0  0  0  0  0  0  0  0  0  0
    4.0574   -1.9278    0.5262 H   0  0  0  0  0  0  0  0  0  0  0  0
    3.6774    0.6348   -0.9225 H   0  0  0  0  0  0  0  0  0  0  0  0
    3.7523   -0.7957   -1.7067 H   0  0  0  0  0  0  0  0  0  0  0  0
    6.0166   -1.0553   -1.0167 H   0  0  0  0  0  0  0  0  0  0  0  0
    5.9417    0.3751   -0.2326 H   0  0  0  0  0  0  0  0  0  0  0  0
    6.9643    0.6647   -2.3635 H   0  0  0  0  0  0  0  0  0  0  0  0
    5.6310    0.0587   -3.0857 H   0  0  0  0  0  0  0  0  0  0  0  0
    5.5561    1.4891   -2.3016 H   0  0  0  0  0  0  0  0  0  0  0  0
  1  2  1  0  0  0  0
  2  3  1  0  0  0  0
  3  4  2  0  0  0  0
  4  5  1  0  0  0  0
  5  6  2  0  0  0  0
  6  7  1  0  0  0  0
  7  2  2  0  0  0  0
  5  8  1  0  0  0  0
  8  9  1  0  0  0  0
  9 10  1  0  0  0  0
 10 11  2  0  0  0  0
 10 12  1  0  0  0  0
  8 13  1  0  0  0  0
 13 14  1  0  0  0  0
 14 15  2  0  0  0  0
 14 16  1  0  0  0  0
 16 17  1  0  0  0  0
 17 18  1  0  0  0  0
 18 19  2  0  0  0  0
 19 20  1  0  0  0  0
 20 21  1  0  0  0  0
 21 22  1  0  0  0  0
  3 23  1  0  0  0  0
  4 24  1  0  0  0  0
  6 25  1  0  0  0  0
  7 26  1  0  0  0  0
  8 27  1  0  0  0  0
  9 28  1  0  0  0  0
 12 29  1  0  0  0  0
 12 30  1  0  0  0  0
 12 31  1  0  0  0  0
 13 32  1  0  0  0  0
 13 33  1  0  0  0  0
 16 34  1  0  0  0  0
 17 35  1  0  0  0  0
 17 36  1  0  0  0  0
 18 37  1  0  0  0  0
 19 38  1  0  0  0  0
 20 39  1  0  0  0  0
 20 40  1  0  0  0  0
 21 41  1  0  0  0  0
 21 42  1  0  0  0  0
 22 43  1  0  0  0  0
 22 44  1  0  0  0  0
 22 45  1  0  0  0  0
M  END
>  <result-rank>
38

>  <similarity>
0.931

>  <query-name>
LIG_A_1101_CC(C)SC[R*]_1

>  <query-smiles>
S(C(C)C)CC(=O)[C@@H](NC(=O)C)Cc1ccc(O)cc1

>  <source>
REALspace_2019-12

>  <similarity-descriptor>
0.968;0.815;0.997;0.997;1.000;0.815;0.763;1.000;1.000;1.000;1.000;1.000;0.0;0.0

>  <similarity-descriptor-smiles>
Clc1ccccc1;CC=C;CC;CC;C;CC=C;C(=O)N;CC;N;C=O;C;CC;;

>  <reaction-name>
s_22

>  <reagent1-name>
14718616

>  <reagent1-smiles>
[R1*]NCC=CCCC

>  <reagent2-name>
107332

>  <reagent2-smiles>
[R1*]C(=O)CC(NC(=O)C)c1ccc(Cl)cc1

$$$$
s_276436a____14085696____14093154
          04022015093D 1   1.00000     0.00000     0
            
 44 44  0  0  0  0            999 V2000
    0.4000   -0.0392    1.0000 O   0  0  0  0  0  0  0  0  0  0  0  0
    1.0000    1.0000    1.0000 C   0  0  0  0  0  0  0  0  0  0  0  0
    2.3100    1.0000    1.0000 O   0  0  0  0  0  0  0  0  0  0  0  0
    3.0200   -0.2298    1.0000 C   0  0  0  0  0  0  0  0  0  0  0  0
    3.2733   -0.6685   -0.4331 C   0  0  3  0  0  0  0  0  0  0  0  0
    4.0678    0.3559   -1.1260 N   0  0  0  0  0  0  0  0  0  0  0  0
    3.5651    0.9752   -2.2399 C   0  0  0  0  0  0  0  0  0  0  0  0
    2.4763    0.6813   -2.6499 O   0  0  0  0  0  0  0  0  0  0  0  0
    4.3866    2.0345   -2.9565 C   0  0  0  0  0  0  0  0  0  0  0  0
    4.0335   -1.9852   -0.4331 C   0  0  0  0  0  0  0  0  0  0  0  0
    3.3474   -3.1769   -0.6429 C   0  0  0  0  0  0  0  0  0  0  0  0
    4.0467   -4.3795   -0.6413 C   0  0  0  0  0  0  0  0  0  0  0  0
    5.4218   -4.3842   -0.4322 C   0  0  0  0  0  0  0  0  0  0  0  0
    6.0967   -3.1876   -0.2242 C   0  0  0  0  0  0  0  0  0  0  0  0
    5.4088   -1.9786   -0.2228 C   0  0  0  0  0  0  0  0  0  0  0  0
    0.2400    2.3164    1.0000 C   0  0  0  0  0  0  0  0  0  0  0  0
    0.0843    2.9770    2.1087 C   0  0  0  0  0  0  0  0  0  0  0  0
   -0.6757    4.2934    2.1087 C   0  0  0  0  0  0  0  0  0  0  0  0
   -2.1512    4.0265    2.3576 C   0  0  0  0  0  0  0  0  0  0  0  0
   -2.9112    5.3429    2.3576 C   0  0  0  0  0  0  0  0  0  0  0  0
    0.6623    2.4331    3.4051 C   0  0  0  0  0  0  0  0  0  0  0  0
    2.4796   -0.9267    1.4714 H   0  0  0  0  0  0  0  0  0  0  0  0
    3.8938   -0.1102    1.4714 H   0  0  0  0  0  0  0  0  0  0  0  0
    2.3996   -0.7881   -0.9045 H   0  0  0  0  0  0  0  0  0  0  0  0
    4.9751    0.6008   -0.7844 H   0  0  0  0  0  0  0  0  0  0  0  0
    5.2603    2.1541   -2.4850 H   0  0  0  0  0  0  0  0  0  0  0  0
    4.5532    1.7458   -3.8993 H   0  0  0  0  0  0  0  0  0  0  0  0
    3.8866    2.9005   -2.9565 H   0  0  0  0  0  0  0  0  0  0  0  0
    2.3589   -3.1692   -0.7938 H   0  0  0  0  0  0  0  0  0  0  0  0
    3.5607   -5.2406   -0.7904 H   0  0  0  0  0  0  0  0  0  0  0  0
    5.9246   -5.2486   -0.4317 H   0  0  0  0  0  0  0  0  0  0  0  0
    7.0854   -3.1956   -0.0741 H   0  0  0  0  0  0  0  0  0  0  0  0
    5.8953   -1.1178   -0.0731 H   0  0  0  0  0  0  0  0  0  0  0  0
   -0.1402    2.6742    0.1471 H   0  0  0  0  0  0  0  0  0  0  0  0
   -0.5631    4.7433    1.2228 H   0  0  0  0  0  0  0  0  0  0  0  0
   -0.3175    4.8851    2.8310 H   0  0  0  0  0  0  0  0  0  0  0  0
   -2.2638    3.5766    3.2435 H   0  0  0  0  0  0  0  0  0  0  0  0
   -2.5094    3.4348    1.6353 H   0  0  0  0  0  0  0  0  0  0  0  0
   -3.8820    5.1673    2.5213 H   0  0  0  0  0  0  0  0  0  0  0  0
   -2.5531    5.9346    3.0798 H   0  0  0  0  0  0  0  0  0  0  0  0
   -2.7987    5.7928    1.4716 H   0  0  0  0  0  0  0  0  0  0  0  0
    0.4517    3.0619    4.1536 H   0  0  0  0  0  0  0  0  0  0  0  0
    0.2613    1.5378    3.5990 H   0  0  0  0  0  0  0  0  0  0  0  0
    1.6541    2.3419    3.3155 H   0  0  0  0  0  0  0  0  0  0  0  0
  1  2  2  0  0  0  0
  2  3  1  0  0  0  0
  3  4  1  0  0  0  0
  4  5  1  0  0  0  0
  5  6  1  0  0  0  0
  6  7  1  0  0  0  0
  7  8  2  0  0  0  0
  7  9  1  0  0  0  0
  5 10  1  0  0  0  0
 10 11  1  0  0  0  0
 11 12  2  0  0  0  0
 12 13  1  0  0  0  0
 13 14  2  0  0  0  0
 14 15  1  0  0  0  0
 15 10  2  0  0  0  0
  2 16  1  0  0  0  0
 16 17  2  0  0  0  0
 17 18  1  0  0  0  0
 18 19  1  0  0  0  0
 19 20  1  0  0  0  0
 17 21  1  0  0  0  0
  4 22  1  0  0  0  0
  4 23  1  0  0  0  0
  5 24  1  0  0  0  0
  6 25  1  0  0  0  0
  9 26  1  0  0  0  0
  9 27  1  0  0  0  0
  9 28  1  0  0  0  0
 11 29  1  0  0  0  0
 12 30  1  0  0  0  0
 13 31  1  0  0  0  0
 14 32  1  0  0  0  0
 15 33  1  0  0  0  0
 16 34  1  0  0  0  0
 18 35  1  0  0  0  0
 18 36  1  0  0  0  0
 19 37  1  0  0  0  0
 19 38  1  0  0  0  0
 20 39  1  0  0  0  0
 20 40  1  0  0  0  0
 20 41  1  0  0  0  0
 21 42  1  0  0  0  0
 21 43  1  0  0  0  0
 21 44  1  0  0  0  0
M  END
>  <result-rank>
39

>  <similarity>
0.931

>  <query-name>
LIG_A_1101_CC(C)SC[R*]_1

>  <query-smiles>
S(C(C)C)CC(=O)[C@@H](NC(=O)C)Cc1ccc(O)cc1

>  <source>
REALspace_2019-12

>  <similarity-descriptor>
0.960;0.993;0.997;0.997;1.000;0.993;0.677;0.995;1.000;1.000;1.000;0.995;0.0;0.0

>  <similarity-descriptor-smiles>
c1ccccc1;CC;CC;CC;C;CC;O=C(O)C;CC;N;C=O;C;CC;;

>  <reaction-name>
s_276436a

>  <reagent1-name>
14085696

>  <reagent1-smiles>
[R1*]OCC(NC(=O)C)c1ccccc1

>  <reagent2-name>
14093154

>  <reagent2-smiles>
[R1*]C(=O)C=C(CCC)C

$$$$
s_22____12210646____16717358
          04022015093D 1   1.00000     0.00000     0
            
 56 56  0  0  0  0            999 V2000
    3.0725    1.7997    1.7997 O   0  0  0  0  0  0  0  0  0  0  0  0
    1.8776    1.8776    1.8776 C   0  0  0  0  0  0  0  0  0  0  0  0
    1.3043    2.7574    2.7574 N   0  0  0  0  0  0  0  0  0  0  0  0
    2.1530    3.6061    3.6061 C   0  0  0  0  0  0  0  0  0  0  0  0
    2.4456    4.9120    2.8853 C   0  0  0  0  0  0  0  0  0  0  0  0
    3.3231    5.7896    3.7629 C   0  0  0  0  0  0  0  0  0  0  0  0
    3.6156    7.0954    3.0421 C   0  0  0  0  0  0  0  0  0  0  0  0
    2.8215    8.1135    3.1935 C   0  0  0  0  0  0  0  0  0  0  0  0
    2.6023    6.0821    5.0688 C   0  0  0  0  0  0  0  0  0  0  0  0
    4.6290    5.0688    4.0554 C   0  0  0  0  0  0  0  0  0  0  0  0
    1.0000    1.0000    1.0000 C   0  0  3  0  0  0  0  0  0  0  0  0
    0.7171    1.6971   -0.2629 N   0  0  0  0  0  0  0  0  0  0  0  0
    1.5540    1.5376   -1.3358 C   0  0  0  0  0  0  0  0  0  0  0  0
    2.5180    0.8288   -1.2446 O   0  0  0  0  0  0  0  0  0  0  0  0
    1.2615    2.2584   -2.6416 C   0  0  0  0  0  0  0  0  0  0  0  0
    1.9216    3.5718   -2.6349 N   0  0  0  0  0  0  0  0  0  0  0  0
    3.1979    3.6995   -3.1161 C   0  0  0  0  0  0  0  0  0  0  0  0
    3.7770    2.7391   -3.5431 O   0  0  0  0  0  0  0  0  0  0  0  0
    3.8805    5.0576   -3.1091 C   0  0  0  0  0  0  0  0  0  0  0  0
   -0.3059    0.7075    1.7208 C   0  0  0  0  0  0  0  0  0  0  0  0
   -1.1835   -0.1701    0.8432 C   0  0  0  0  0  0  0  0  0  0  0  0
   -1.0842   -1.5540    0.9425 C   0  0  0  0  0  0  0  0  0  0  0  0
   -1.8857   -2.3610    0.1420 C   0  0  0  0  0  0  0  0  0  0  0  0
   -2.7781   -1.7726   -0.7486 C   0  0  0  0  0  0  0  0  0  0  0  0
   -3.5982   -2.5925   -1.5681 O   0  0  0  0  0  0  0  0  0  0  0  0
   -2.8811   -0.3891   -0.8520 C   0  0  0  0  0  0  0  0  0  0  0  0
   -2.0774    0.4131   -0.0489 C   0  0  0  0  0  0  0  0  0  0  0  0
    0.3085    2.8223    2.8223 H   0  0  0  0  0  0  0  0  0  0  0  0
    3.0121    3.1319    3.7986 H   0  0  0  0  0  0  0  0  0  0  0  0
    1.6788    3.7986    4.4652 H   0  0  0  0  0  0  0  0  0  0  0  0
    2.9198    4.7195    2.0262 H   0  0  0  0  0  0  0  0  0  0  0  0
    1.5864    5.3862    2.6929 H   0  0  0  0  0  0  0  0  0  0  0  0
    4.4190    7.1714    2.4514 H   0  0  0  0  0  0  0  0  0  0  0  0
    3.0140    8.9726    2.7192 H   0  0  0  0  0  0  0  0  0  0  0  0
    2.0182    8.0375    3.7841 H   0  0  0  0  0  0  0  0  0  0  0  0
    2.4099    5.2230    5.5430 H   0  0  0  0  0  0  0  0  0  0  0  0
    3.1797    6.6594    5.6461 H   0  0  0  0  0  0  0  0  0  0  0  0
    1.7432    6.5563    4.8763 H   0  0  0  0  0  0  0  0  0  0  0  0
    4.4365    4.2096    4.5296 H   0  0  0  0  0  0  0  0  0  0  0  0
    5.1032    4.8763    3.1963 H   0  0  0  0  0  0  0  0  0  0  0  0
    5.2063    5.6461    4.6328 H   0  0  0  0  0  0  0  0  0  0  0  0
    1.4742    0.1409    0.8075 H   0  0  0  0  0  0  0  0  0  0  0  0
   -0.0862    2.2878   -0.3389 H   0  0  0  0  0  0  0  0  0  0  0  0
    1.6074    1.7154   -3.4068 H   0  0  0  0  0  0  0  0  0  0  0  0
    0.2741    2.3821   -2.7402 H   0  0  0  0  0  0  0  0  0  0  0  0
    1.4390    4.3721   -2.2790 H   0  0  0  0  0  0  0  0  0  0  0  0
    3.2604    5.7403   -2.7226 H   0  0  0  0  0  0  0  0  0  0  0  0
    4.7114    5.0102   -2.5546 H   0  0  0  0  0  0  0  0  0  0  0  0
    4.1188    5.3157   -4.0453 H   0  0  0  0  0  0  0  0  0  0  0  0
   -0.1134    0.2333    2.5799 H   0  0  0  0  0  0  0  0  0  0  0  0
   -0.7801    1.5666    1.9133 H   0  0  0  0  0  0  0  0  0  0  0  0
   -0.4397   -1.9667    1.5862 H   0  0  0  0  0  0  0  0  0  0  0  0
   -1.8211   -3.3569    0.2061 H   0  0  0  0  0  0  0  0  0  0  0  0
   -4.2411   -2.1742   -2.2097 H   0  0  0  0  0  0  0  0  0  0  0  0
   -3.5251    0.0237   -1.4961 H   0  0  0  0  0  0  0  0  0  0  0  0
   -2.1423    1.4089   -0.1127 H   0  0  0  0  0  0  0  0  0  0  0  0
  1  2  2  0  0  0  0
  2  3  1  0  0  0  0
  3  4  1  0  0  0  0
  4  5  1  0  0  0  0
  5  6  1  0  0  0  0
  6  7  1  0  0  0  0
  7  8  2  0  0  0  0
  6  9  1  0  0  0  0
  6 10  1  0  0  0  0
  2 11  1  0  0  0  0
 11 12  1  0  0  0  0
 12 13  1  0  0  0  0
 13 14  2  0  0  0  0
 13 15  1  0  0  0  0
 15 16  1  0  0  0  0
 16 17  1  0  0  0  0
 17 18  2  0  0  0  0
 17 19  1  0  0  0  0
 11 20  1  0  0  0  0
 20 21  1  0  0  0  0
 21 22  1  0  0  0  0
 22 23  2  0  0  0  0
 23 24  1  0  0  0  0
 24 25  1  0  0  0  0
 24 26  2  0  0  0  0
 26 27  1  0  0  0  0
 27 21  2  0  0  0  0
  3 28  1  0  0  0  0
  4 29  1  0  0  0  0
  4 30  1  0  0  0  0
  5 31  1  0  0  0  0
  5 32  1  0  0  0  0
  7 33  1  0  0  0  0
  8 34  1  0  0  0  0
  8 35  1  0  0  0  0
  9 36  1  0  0  0  0
  9 37  1  0  0  0  0
  9 38  1  0  0  0  0
 10 39  1  0  0  0  0
 10 40  1  0  0  0  0
 10 41  1  0  0  0  0
 11 42  1  0  0  0  0
 12 43  1  0  0  0  0
 15 44  1  0  0  0  0
 15 45  1  0  0  0  0
 16 46  1  0  0  0  0
 19 47  1  0  0  0  0
 19 48  1  0  0  0  0
 19 49  1  0  0  0  0
 20 50  1  0  0  0  0
 20 51  1  0  0  0  0
 22 52  1  0  0  0  0
 23 53  1  0  0  0  0
 25 54  1  0  0  0  0
 26 55  1  0  0  0  0
 27 56  1  0  0  0  0
M  END
>  <result-rank>
40

>  <similarity>
0.931

>  <query-name>
LIG_A_1101_CC(C)SC[R*]_1

>  <query-smiles>
S(C(C)C)CC(=O)[C@@H](NC(=O)C)Cc1ccc(O)cc1

>  <source>
REALspace_2019-12

>  <similarity-descriptor>
1.000;0.957;0.957;1.000;1.000;0.995;0.763;1.000;1.000;1.000;0.955;1.000;1.000;0.211

>  <similarity-descriptor-smiles>
c1ccccc1;CCC;CCC;C;C;C;O=CN;C;N;C=O;C;C;O;C.N.C=O.C

>  <reaction-name>
s_22

>  <reagent1-name>
12210646

>  <reagent1-smiles>
[R1*]NCCC(C=C)(C)C

>  <reagent2-name>
16717358

>  <reagent2-smiles>
[R1*]C(=O)C(NC(=O)CNC(=O)C)Cc1ccc(O)cc1

$$$$
s_276436a____15413918____16717372
          04022015093D 1   1.00000     0.00000     0
            
 52 52  0  0  0  0            999 V2000
   -0.3868    1.6571   -0.7943 O   0  0  0  0  0  0  0  0  0  0  0  0
    0.7075    1.7208   -0.3059 C   0  0  0  0  0  0  0  0  0  0  0  0
    1.6499    2.4116   -0.8981 O   0  0  0  0  0  0  0  0  0  0  0  0
    1.3766    3.0850   -2.1180 C   0  0  3  0  0  0  0  0  0  0  0  0
    2.2960    2.5550   -3.2063 C   0  0  0  0  0  0  0  0  0  0  0  0
    1.9260    1.5433   -3.9340 C   0  0  0  0  0  0  0  0  0  0  0  0
    1.6119    4.5758   -1.9376 C   0  0  0  0  0  0  0  0  0  0  0  0
    1.3194    5.2966   -3.2434 C   0  0  0  0  0  0  0  0  0  0  0  0
    0.6926    5.1058   -0.8493 C   0  0  0  0  0  0  0  0  0  0  0  0
    1.0000    1.0000    1.0000 C   0  0  3  0  0  0  0  0  0  0  0  0
    1.8487    1.8487    1.8487 N   0  0  0  0  0  0  0  0  0  0  0  0
    3.0831    1.4052    2.2442 C   0  0  0  0  0  0  0  0  0  0  0  0
    3.4716    0.3240    1.8978 O   0  0  0  0  0  0  0  0  0  0  0  0
    3.9607    2.2828    3.1218 C   0  0  0  0  0  0  0  0  0  0  0  0
    5.2236    1.5857    3.4047 N   0  0  0  0  0  0  0  0  0  0  0  0
    6.2255    1.5772    2.4703 C   0  0  0  0  0  0  0  0  0  0  0  0
    6.0722    2.1388    1.4210 O   0  0  0  0  0  0  0  0  0  0  0  0
    7.5314    0.8564    2.7629 C   0  0  0  0  0  0  0  0  0  0  0  0
   -0.3059    0.7075    1.7208 C   0  0  0  0  0  0  0  0  0  0  0  0
   -0.0133   -0.0134    3.0267 C   0  0  0  0  0  0  0  0  0  0  0  0
    0.1949    0.7274    4.1855 C   0  0  0  0  0  0  0  0  0  0  0  0
    0.4621    0.0721    5.3829 C   0  0  0  0  0  0  0  0  0  0  0  0
    0.5173   -1.3180    5.4060 C   0  0  0  0  0  0  0  0  0  0  0  0
    0.7767   -1.9580    6.5658 O   0  0  0  0  0  0  0  0  0  0  0  0
    0.3102   -2.0634    4.2499 C   0  0  0  0  0  0  0  0  0  0  0  0
    0.0429   -1.4030    3.0554 C   0  0  0  0  0  0  0  0  0  0  0  0
    0.4245    2.9271   -2.3799 H   0  0  0  0  0  0  0  0  0  0  0  0
    3.1854    2.9845   -3.3624 H   0  0  0  0  0  0  0  0  0  0  0  0
    2.5308    1.1946   -4.6500 H   0  0  0  0  0  0  0  0  0  0  0  0
    1.0365    1.1138   -3.7779 H   0  0  0  0  0  0  0  0  0  0  0  0
    2.5640    4.7337   -1.6757 H   0  0  0  0  0  0  0  0  0  0  0  0
    1.4742    6.2774   -3.1247 H   0  0  0  0  0  0  0  0  0  0  0  0
    1.9243    4.9479   -3.9594 H   0  0  0  0  0  0  0  0  0  0  0  0
    0.3673    5.1387   -3.5053 H   0  0  0  0  0  0  0  0  0  0  0  0
    0.8474    6.0866   -0.7306 H   0  0  0  0  0  0  0  0  0  0  0  0
   -0.2595    4.9479   -1.1112 H   0  0  0  0  0  0  0  0  0  0  0  0
    0.8850    4.6316    0.0098 H   0  0  0  0  0  0  0  0  0  0  0  0
    1.4742    0.1409    0.8075 H   0  0  0  0  0  0  0  0  0  0  0  0
    1.5250    2.7498    2.1374 H   0  0  0  0  0  0  0  0  0  0  0  0
    4.1532    3.1419    2.6475 H   0  0  0  0  0  0  0  0  0  0  0  0
    3.4865    2.4753    3.9809 H   0  0  0  0  0  0  0  0  0  0  0  0
    5.3514    1.1177    4.2791 H   0  0  0  0  0  0  0  0  0  0  0  0
    7.4892    0.4469    3.6742 H   0  0  0  0  0  0  0  0  0  0  0  0
    7.6760    0.1389    2.0815 H   0  0  0  0  0  0  0  0  0  0  0  0
    8.2881    1.5091    2.7253 H   0  0  0  0  0  0  0  0  0  0  0  0
   -0.7801    1.5666    1.9133 H   0  0  0  0  0  0  0  0  0  0  0  0
   -0.8832    0.1301    1.1435 H   0  0  0  0  0  0  0  0  0  0  0  0
    0.1526    1.7261    4.1579 H   0  0  0  0  0  0  0  0  0  0  0  0
    0.6134    0.5962    6.2210 H   0  0  0  0  0  0  0  0  0  0  0  0
    0.8174   -2.9569    6.5874 H   0  0  0  0  0  0  0  0  0  0  0  0
    0.3529   -3.0622    4.2773 H   0  0  0  0  0  0  0  0  0  0  0  0
   -0.1088   -1.9271    2.2174 H   0  0  0  0  0  0  0  0  0  0  0  0
  1  2  2  0  0  0  0
  2  3  1  0  0  0  0
  3  4  1  0  0  0  0
  4  5  1  0  0  0  0
  5  6  2  0  0  0  0
  4  7  1  0  0  0  0
  7  8  1  0  0  0  0
  7  9  1  0  0  0  0
  2 10  1  0  0  0  0
 10 11  1  0  0  0  0
 11 12  1  0  0  0  0
 12 13  2  0  0  0  0
 12 14  1  0  0  0  0
 14 15  1  0  0  0  0
 15 16  1  0  0  0  0
 16 17  2  0  0  0  0
 16 18  1  0  0  0  0
 10 19  1  0  0  0  0
 19 20  1  0  0  0  0
 20 21  1  0  0  0  0
 21 22  2  0  0  0  0
 22 23  1  0  0  0  0
 23 24  1  0  0  0  0
 23 25  2  0  0  0  0
 25 26  1  0  0  0  0
 26 20  2  0  0  0  0
  4 27  1  0  0  0  0
  5 28  1  0  0  0  0
  6 29  1  0  0  0  0
  6 30  1  0  0  0  0
  7 31  1  0  0  0  0
  8 32  1  0  0  0  0
  8 33  1  0  0  0  0
  8 34  1  0  0  0  0
  9 35  1  0  0  0  0
  9 36  1  0  0  0  0
  9 37  1  0  0  0  0
 10 38  1  0  0  0  0
 11 39  1  0  0  0  0
 14 40  1  0  0  0  0
 14 41  1  0  0  0  0
 15 42  1  0  0  0  0
 18 43  1  0  0  0  0
 18 44  1  0  0  0  0
 18 45  1  0  0  0  0
 19 46  1  0  0  0  0
 19 47  1  0  0  0  0
 21 48  1  0  0  0  0
 22 49  1  0  0  0  0
 24 50  1  0  0  0  0
 25 51  1  0  0  0  0
 26 52  1  0  0  0  0
M  END
>  <result-rank>
41

>  <similarity>
0.931

>  <query-name>
LIG_A_1101_CC(C)SC[R*]_1

>  <query-smiles>
S(C(C)C)CC(=O)[C@@H](NC(=O)C)Cc1ccc(O)cc1

>  <source>
REALspace_2019-12

>  <similarity-descriptor>
1.000;0.958;0.999;0.999;1.000;0.958;0.766;1.000;1.000;1.000;0.955;1.000;1.000;0.222

>  <similarity-descriptor-smiles>
c1ccccc1;CC;CC;CC;C;CC;O=CO;C;N;C=O;C;C;O;C.N.C=O.C

>  <reaction-name>
s_276436a

>  <reagent1-name>
15413918

>  <reagent1-smiles>
[R1*]OC(C=C)C(C)C

>  <reagent2-name>
16717372

>  <reagent2-smiles>
[R1*]C(=O)C(NC(=O)CNC(=O)C)Cc1ccc(O)cc1

$$$$
s_22____15151066____8593028
          04022015093D 1   1.00000     0.00000     0
            
 43 43  0  0  0  0            999 V2000
   -1.8583    1.9240    3.7868 Br  0  0  0  0  0  0  0  0  0  0  0  0
   -1.2050    1.0000    2.1865 C   0  0  3  0  0  0  0  0  0  0  0  0
    0.3150    1.0000    2.1865 C   0  0  0  0  0  0  0  0  0  0  0  0
    0.9150    1.0000    3.2257 O   0  0  0  0  0  0  0  0  0  0  0  0
    1.0000    1.0000    1.0000 N   0  0  0  0  0  0  0  0  0  0  0  0
    2.4700    1.0000    1.0000 C   0  0  3  0  0  0  0  0  0  0  0  0
    2.9767    1.7165   -0.2411 C   0  0  0  0  0  0  0  0  0  0  0  0
    3.1767    1.0994   -1.2506 O   0  0  0  0  0  0  0  0  0  0  0  0
    3.1950    3.0078   -0.2086 O   0  0  0  0  0  0  0  0  0  0  0  0
    3.6683    3.6772   -1.3681 C   0  0  0  0  0  0  0  0  0  0  0  0
    2.9767   -0.4331    1.0000 C   0  0  0  0  0  0  0  0  0  0  0  0
    4.4501   -0.4493    1.3708 C   0  0  0  0  0  0  0  0  0  0  0  0
    4.8250   -0.0898    2.6612 C   0  0  0  0  0  0  0  0  0  0  0  0
    6.1738   -0.1061    2.9987 C   0  0  0  0  0  0  0  0  0  0  0  0
    6.5540    0.2350    4.2263 F   0  0  0  0  0  0  0  0  0  0  0  0
    7.1328   -0.4756    2.0611 C   0  0  0  0  0  0  0  0  0  0  0  0
    6.7453   -0.8321    0.7730 C   0  0  0  0  0  0  0  0  0  0  0  0
    5.3989   -0.8208    0.4235 C   0  0  0  0  0  0  0  0  0  0  0  0
   -1.7117   -0.4331    2.1865 C   0  0  0  0  0  0  0  0  0  0  0  0
   -3.2317   -0.4331    2.1865 C   0  0  0  0  0  0  0  0  0  0  0  0
   -1.2050   -1.1496    0.9454 C   0  0  0  0  0  0  0  0  0  0  0  0
   -1.2050   -1.1496    3.4275 C   0  0  0  0  0  0  0  0  0  0  0  0
   -1.5383    1.4714    1.3700 H   0  0  0  0  0  0  0  0  0  0  0  0
    0.5000    1.0000    0.1340 H   0  0  0  0  0  0  0  0  0  0  0  0
    2.8033    1.4714    1.8165 H   0  0  0  0  0  0  0  0  0  0  0  0
    3.7794    4.6508   -1.1688 H   0  0  0  0  0  0  0  0  0  0  0  0
    4.5492    3.2900   -1.6402 H   0  0  0  0  0  0  0  0  0  0  0  0
    3.0096    3.5622   -2.1116 H   0  0  0  0  0  0  0  0  0  0  0  0
    2.4592   -0.9696    1.6667 H   0  0  0  0  0  0  0  0  0  0  0  0
    2.8577   -0.8287    0.0893 H   0  0  0  0  0  0  0  0  0  0  0  0
    4.1358    0.1762    3.3351 H   0  0  0  0  0  0  0  0  0  0  0  0
    8.1005   -0.4850    2.3127 H   0  0  0  0  0  0  0  0  0  0  0  0
    7.4348   -1.0965    0.0987 H   0  0  0  0  0  0  0  0  0  0  0  0
    5.1156   -1.0773   -0.5006 H   0  0  0  0  0  0  0  0  0  0  0  0
   -3.5650   -1.3759    2.1865 H   0  0  0  0  0  0  0  0  0  0  0  0
   -3.5650    0.0383    3.0030 H   0  0  0  0  0  0  0  0  0  0  0  0
   -3.5650    0.0383    1.3700 H   0  0  0  0  0  0  0  0  0  0  0  0
   -1.5383   -2.0924    0.9454 H   0  0  0  0  0  0  0  0  0  0  0  0
   -1.5383   -0.6782    0.1289 H   0  0  0  0  0  0  0  0  0  0  0  0
   -0.2050   -1.1496    0.9454 H   0  0  0  0  0  0  0  0  0  0  0  0
   -1.5383   -2.0924    3.4275 H   0  0  0  0  0  0  0  0  0  0  0  0
   -0.2050   -1.1496    3.4275 H   0  0  0  0  0  0  0  0  0  0  0  0
   -1.5383   -0.6782    4.2440 H   0  0  0  0  0  0  0  0  0  0  0  0
  1  2  1  0  0  0  0
  2  3  1  0  0  0  0
  3  4  2  0  0  0  0
  3  5  1  0  0  0  0
  5  6  1  0  0  0  0
  6  7  1  0  0  0  0
  7  8  2  0  0  0  0
  7  9  1  0  0  0  0
  9 10  1  0  0  0  0
  6 11  1  0  0  0  0
 11 12  1  0  0  0  0
 12 13  1  0  0  0  0
 13 14  2  0  0  0  0
 14 15  1  0  0  0  0
 14 16  1  0  0  0  0
 16 17  2  0  0  0  0
 17 18  1  0  0  0  0
 18 12  2  0  0  0  0
  2 19  1  0  0  0  0
 19 20  1  0  0  0  0
 19 21  1  0  0  0  0
 19 22  1  0  0  0  0
  2 23  1  0  0  0  0
  5 24  1  0  0  0  0
  6 25  1  0  0  0  0
 10 26  1  0  0  0  0
 10 27  1  0  0  0  0
 10 28  1  0  0  0  0
 11 29  1  0  0  0  0
 11 30  1  0  0  0  0
 13 31  1  0  0  0  0
 16 32  1  0  0  0  0
 17 33  1  0  0  0  0
 18 34  1  0  0  0  0
 20 35  1  0  0  0  0
 20 36  1  0  0  0  0
 20 37  1  0  0  0  0
 21 38  1  0  0  0  0
 21 39  1  0  0  0  0
 21 40  1  0  0  0  0
 22 41  1  0  0  0  0
 22 42  1  0  0  0  0
 22 43  1  0  0  0  0
M  END
>  <result-rank>
42

>  <similarity>
0.931

>  <query-name>
LIG_A_1101_CC(C)SC[R*]_1

>  <query-smiles>
S(C(C)C)CC(=O)[C@@H](NC(=O)C)Cc1ccc(O)cc1

>  <source>
REALspace_2019-12

>  <similarity-descriptor>
0.983;0.751;0.751;1.000;1.000;0.918;0.907;1.000;1.000;0.855;0.994;1.000;0.0;0.0

>  <similarity-descriptor-smiles>
c1cccc(c1)F;CC;CC;C;C;BrC;C=O;NC;NC;C(=O)O;C;C;;

>  <reaction-name>
s_22

>  <reagent1-name>
15151066

>  <reagent1-smiles>
[R1*]NC(C(=O)OC)Cc1cc(F)ccc1

>  <reagent2-name>
8593028

>  <reagent2-smiles>
[R1*]C(=O)C(Br)C(C)(C)C

$$$$
s_270062____14591256____15585492
          04022015093D 1   1.00000     0.00000     0
            
 36 36  0  0  0  0            999 V2000
    1.8978    1.6760   -1.4716 O   0  0  0  0  0  0  0  0  0  0  0  0
    2.2442    0.5948   -1.0831 C   0  0  0  0  0  0  0  0  0  0  0  0
    1.8487    0.1513    0.1513 N   0  0  0  0  0  0  0  0  0  0  0  0
    2.2731   -1.1732    0.6271 C   0  0  0  0  0  0  0  0  0  0  0  0
    1.1430   -2.1691    0.4275 C   0  0  0  0  0  0  0  0  0  0  0  0
    1.0677   -2.8730   -0.7700 C   0  0  0  0  0  0  0  0  0  0  0  0
    0.0334   -3.7845   -0.9504 C   0  0  0  0  0  0  0  0  0  0  0  0
   -0.0591   -4.4773   -2.1050 O   0  0  0  0  0  0  0  0  0  0  0  0
   -0.9113   -3.9889    0.0501 C   0  0  0  0  0  0  0  0  0  0  0  0
   -0.8261   -3.2779    1.2432 C   0  0  0  0  0  0  0  0  0  0  0  0
    0.2048   -2.3639    1.4361 C   0  0  0  0  0  0  0  0  0  0  0  0
    1.0000    1.0000    1.0000 C   0  0  0  0  0  0  0  0  0  0  0  0
    1.8776    1.8776    1.8776 C   0  0  0  0  0  0  0  0  0  0  0  0
    1.0577    2.6974    2.6974 O   0  0  0  0  0  0  0  0  0  0  0  0
    1.8776    3.5172    3.5172 C   0  0  0  0  0  0  0  0  0  0  0  0
    1.0000    4.3948    4.3948 C   0  0  0  0  0  0  0  0  0  0  0  0
    3.1218   -0.2828   -1.9607 C   0  0  0  0  0  0  0  0  0  0  0  0
    2.5030   -1.1204    1.5989 H   0  0  0  0  0  0  0  0  0  0  0  0
    3.0755   -1.4717    0.1105 H   0  0  0  0  0  0  0  0  0  0  0  0
    1.7466   -2.7258   -1.4894 H   0  0  0  0  0  0  0  0  0  0  0  0
   -0.8024   -5.1332   -2.2364 H   0  0  0  0  0  0  0  0  0  0  0  0
   -1.6516   -4.6468   -0.0880 H   0  0  0  0  0  0  0  0  0  0  0  0
   -1.5058   -3.4239    1.9620 H   0  0  0  0  0  0  0  0  0  0  0  0
    0.2708   -1.8515    2.2923 H   0  0  0  0  0  0  0  0  0  0  0  0
    0.4226    0.4226    1.5774 H   0  0  0  0  0  0  0  0  0  0  0  0
    0.4226    1.5774    0.4226 H   0  0  0  0  0  0  0  0  0  0  0  0
    2.4549    1.3002    2.4549 H   0  0  0  0  0  0  0  0  0  0  0  0
    2.4549    2.4549    1.3002 H   0  0  0  0  0  0  0  0  0  0  0  0
    2.4549    4.0946    2.9399 H   0  0  0  0  0  0  0  0  0  0  0  0
    2.4549    2.9399    4.0946 H   0  0  0  0  0  0  0  0  0  0  0  0
    1.5774    4.9722    4.9722 H   0  0  0  0  0  0  0  0  0  0  0  0
    0.4226    4.9722    3.8175 H   0  0  0  0  0  0  0  0  0  0  0  0
    0.4226    3.8175    4.9722 H   0  0  0  0  0  0  0  0  0  0  0  0
    3.3142   -1.1419   -1.4865 H   0  0  0  0  0  0  0  0  0  0  0  0
    2.6475   -0.4753   -2.8198 H   0  0  0  0  0  0  0  0  0  0  0  0
    3.9809    0.1914   -2.1532 H   0  0  0  0  0  0  0  0  0  0  0  0
  1  2  2  0  0  0  0
  2  3  1  0  0  0  0
  3  4  1  0  0  0  0
  4  5  1  0  0  0  0
  5  6  1  0  0  0  0
  6  7  2  0  0  0  0
  7  8  1  0  0  0  0
  7  9  1  0  0  0  0
  9 10  2  0  0  0  0
 10 11  1  0  0  0  0
 11  5  2  0  0  0  0
  3 12  1  0  0  0  0
 12 13  1  0  0  0  0
 13 14  1  0  0  0  0
 14 15  1  0  0  0  0
 15 16  1  0  0  0  0
  2 17  1  0  0  0  0
  4 18  1  0  0  0  0
  4 19  1  0  0  0  0
  6 20  1  0  0  0  0
  8 21  1  0  0  0  0
  9 22  1  0  0  0  0
 10 23  1  0  0  0  0
 11 24  1  0  0  0  0
 12 25  1  0  0  0  0
 12 26  1  0  0  0  0
 13 27  1  0  0  0  0
 13 28  1  0  0  0  0
 15 29  1  0  0  0  0
 15 30  1  0  0  0  0
 16 31  1  0  0  0  0
 16 32  1  0  0  0  0
 16 33  1  0  0  0  0
 17 34  1  0  0  0  0
 17 35  1  0  0  0  0
 17 36  1  0  0  0  0
M  END
>  <result-rank>
43

>  <similarity>
0.931

>  <query-name>
LIG_A_1101_CC(C)SC[R*]_1

>  <query-smiles>
S(C(C)C)CC(=O)[C@@H](NC(=O)C)Cc1ccc(O)cc1

>  <source>
REALspace_2019-12

>  <similarity-descriptor>
1.000;0.811;0.972;0.972;0.0;0.811;0.811;0.953;0.852;0.852;1.000;0.953;1.000;0.0

>  <similarity-descriptor-smiles>
c1ccccc1;CO;CC;CC;;CO;CO;N(C)C;O=C;O=C;C;N(C)C;O;

>  <reaction-name>
s_270062

>  <reagent1-name>
14591256

>  <reagent1-smiles>
[R1*]N(Cc1cc(O)ccc1)CCOCC

>  <reagent2-name>
15585492

>  <reagent2-smiles>
[R1*]C(=O)C

$$$$
s_240690a____16789190____7412758
          04022015093D 1   1.00000     0.00000     0
            
 38 38  0  0  0  0            999 V2000
    3.1233   -0.7065    1.0000 S   0  0  0  0  0  0  0  0  0  0  0  0
    2.5200    1.0000    1.0000 C   0  0  0  0  0  0  0  0  0  0  0  0
    1.0000    1.0000    1.0000 C   0  0  0  0  0  0  0  0  0  0  0  0
    0.4000    1.0000   -0.0392 O   0  0  0  0  0  0  0  0  0  0  0  0
    0.3150    1.0000    2.1865 N   0  0  0  0  0  0  0  0  0  0  0  0
   -1.1550    1.0000    2.1865 C   0  0  0  0  0  0  0  0  0  0  0  0
   -1.6617   -0.4113    1.9376 C   0  0  3  0  0  0  0  0  0  0  0  0
   -3.1317   -0.4113    1.9376 N   0  3  0  0  0  0  0  0  0  0  0  0
   -1.1551   -1.3323    3.0353 C   0  0  0  0  0  0  0  0  0  0  0  0
   -1.6617   -1.2021    4.3240 C   0  0  0  0  0  0  0  0  0  0  0  0
   -1.2020   -2.0424    5.3328 C   0  0  0  0  0  0  0  0  0  0  0  0
   -0.2403   -3.0035    5.0387 C   0  0  0  0  0  0  0  0  0  0  0  0
    0.2033   -3.8110    5.9983 F   0  0  0  0  0  0  0  0  0  0  0  0
    0.2704   -3.1373    3.7517 C   0  0  0  0  0  0  0  0  0  0  0  0
   -0.1933   -2.2946    2.7471 C   0  0  0  0  0  0  0  0  0  0  0  0
    4.9032   -0.3775    1.0000 C   0  0  0  0  0  0  0  0  0  0  0  0
    5.6619   -1.6947    1.0000 C   0  0  0  0  0  0  0  0  0  0  0  0
    7.1566   -1.4184    1.0000 C   0  0  0  0  0  0  0  0  0  0  0  0
   -3.4650    0.1947    1.2154 H   0  0  0  0  0  0  0  0  0  0  0  0
   -3.4650   -1.3398    1.7739 H   0  0  0  0  0  0  0  0  0  0  0  0
   -3.4650   -0.0888    2.8236 H   0  0  0  0  0  0  0  0  0  0  0  0
    2.8533    1.4714    0.1835 H   0  0  0  0  0  0  0  0  0  0  0  0
    2.8533    1.4714    1.8165 H   0  0  0  0  0  0  0  0  0  0  0  0
    0.8150    1.0000    3.0525 H   0  0  0  0  0  0  0  0  0  0  0  0
   -1.4883    1.6060    1.4642 H   0  0  0  0  0  0  0  0  0  0  0  0
   -1.4883    1.3225    3.0724 H   0  0  0  0  0  0  0  0  0  0  0  0
   -1.3283   -0.7338    1.0517 H   0  0  0  0  0  0  0  0  0  0  0  0
   -2.3530   -0.5078    4.5244 H   0  0  0  0  0  0  0  0  0  0  0  0
   -1.5602   -1.9562    6.2625 H   0  0  0  0  0  0  0  0  0  0  0  0
    0.9623   -3.8309    3.5513 H   0  0  0  0  0  0  0  0  0  0  0  0
    0.1650   -2.3807    1.8174 H   0  0  0  0  0  0  0  0  0  0  0  0
    5.1453    0.1466    1.8165 H   0  0  0  0  0  0  0  0  0  0  0  0
    5.1453    0.1466    0.1835 H   0  0  0  0  0  0  0  0  0  0  0  0
    5.4198   -2.2188    0.1835 H   0  0  0  0  0  0  0  0  0  0  0  0
    5.4198   -2.2188    1.8165 H   0  0  0  0  0  0  0  0  0  0  0  0
    7.6557   -2.2849    1.0000 H   0  0  0  0  0  0  0  0  0  0  0  0
    7.3987   -0.8943    0.1835 H   0  0  0  0  0  0  0  0  0  0  0  0
    7.3987   -0.8943    1.8165 H   0  0  0  0  0  0  0  0  0  0  0  0
  1  2  1  0  0  0  0
  2  3  1  0  0  0  0
  3  4  2  0  0  0  0
  3  5  1  0  0  0  0
  5  6  1  0  0  0  0
  6  7  1  0  0  0  0
  7  8  1  0  0  0  0
  7  9  1  0  0  0  0
  9 10  1  0  0  0  0
 10 11  2  0  0  0  0
 11 12  1  0  0  0  0
 12 13  1  0  0  0  0
 12 14  2  0  0  0  0
 14 15  1  0  0  0  0
 15  9  2  0  0  0  0
  1 16  1  0  0  0  0
 16 17  1  0  0  0  0
 17 18  1  0  0  0  0
  8 19  1  0  0  0  0
  8 20  1  0  0  0  0
  8 21  1  0  0  0  0
  2 22  1  0  0  0  0
  2 23  1  0  0  0  0
  5 24  1  0  0  0  0
  6 25  1  0  0  0  0
  6 26  1  0  0  0  0
  7 27  1  0  0  0  0
 10 28  1  0  0  0  0
 11 29  1  0  0  0  0
 14 30  1  0  0  0  0
 15 31  1  0  0  0  0
 16 32  1  0  0  0  0
 16 33  1  0  0  0  0
 17 34  1  0  0  0  0
 17 35  1  0  0  0  0
 18 36  1  0  0  0  0
 18 37  1  0  0  0  0
 18 38  1  0  0  0  0
M  CHG  1   8   1
M  END
>  <result-rank>
44

>  <similarity>
0.930

>  <query-name>
LIG_A_1101_CC(C)SC[R*]_1

>  <query-smiles>
S(C(C)C)CC(=O)[C@@H](NC(=O)C)Cc1ccc(O)cc1

>  <source>
REALspace_2019-12

>  <similarity-descriptor>
0.983;1.000;0.998;0.998;1.000;1.000;0.907;0.952;0.952;0.0;0.0;0.938;0.0;0.091

>  <similarity-descriptor-smiles>
c1ccc(cc1)F;S;CC;CC;C;C;C=O;NC;NC;;;C;;[NH3+]

>  <reaction-name>
s_240690a

>  <reagent1-name>
16789190

>  <reagent1-smiles>
[R1*]NCC(N)c1ccc(F)cc1

>  <reagent2-name>
7412758

>  <reagent2-smiles>
[R1*]C(=O)CSCCC

$$$$
s_269946a____7297400____17057126
          04022015093D 1   1.00000     0.00000     0
            
 50 50  0  0  0  0            999 V2000
    6.0844    4.1718    4.6187 O   0  5  0  0  0  0  0  0  0  0  0  0
    5.0321    3.5835    4.7213 C   0  0  0  0  0  0  0  0  0  0  0  0
    4.3712    3.6646    5.7792 O   0  0  0  0  0  0  0  0  0  0  0  0
    4.5136    2.7459    3.5637 C   0  0  0  0  0  0  0  0  0  0  0  0
    3.1838    2.1181    3.9482 C   0  0  0  0  0  0  0  0  0  0  0  0
    2.6825    1.3080    2.8287 N   0  0  0  0  0  0  0  0  0  0  0  0
    1.8776    1.8776    1.8776 C   0  0  0  0  0  0  0  0  0  0  0  0
    1.8654    3.0693    1.7373 O   0  0  0  0  0  0  0  0  0  0  0  0
    1.0000    1.0000    1.0000 C   0  0  3  0  0  0  0  0  0  0  0  0
    0.7171    1.6971   -0.2629 N   0  0  0  0  0  0  0  0  0  0  0  0
    1.1013    1.1397   -1.4540 C   0  0  0  0  0  0  0  0  0  0  0  0
    1.5876    0.0429   -1.4739 O   0  0  0  0  0  0  0  0  0  0  0  0
    0.9116    1.9107   -2.7501 C   0  0  0  0  0  0  0  0  0  0  0  0
    2.0609    1.6024   -3.6959 C   0  0  0  0  0  0  0  0  0  0  0  0
    1.5767    1.7073   -5.1328 C   0  0  0  0  0  0  0  0  0  0  0  0
    3.1866    2.5977   -3.4666 C   0  0  0  0  0  0  0  0  0  0  0  0
   -0.3059    0.7075    1.7208 C   0  0  0  0  0  0  0  0  0  0  0  0
   -0.9259   -0.5585    1.1522 C   0  0  0  0  0  0  0  0  0  0  0  0
   -0.6053   -1.7898    1.7144 C   0  0  0  0  0  0  0  0  0  0  0  0
   -1.1708   -2.9508    1.1979 C   0  0  0  0  0  0  0  0  0  0  0  0
   -2.0515   -2.8653    0.1243 C   0  0  0  0  0  0  0  0  0  0  0  0
   -2.6024   -3.9895   -0.3803 O   0  0  0  0  0  0  0  0  0  0  0  0
   -2.3753   -1.6365   -0.4419 C   0  0  0  0  0  0  0  0  0  0  0  0
   -1.8072   -0.4787    0.0788 C   0  0  0  0  0  0  0  0  0  0  0  0
    3.0447   -0.1132    2.7297 C   0  0  0  0  0  0  0  0  0  0  0  0
    5.1737    2.0251    3.3520 H   0  0  0  0  0  0  0  0  0  0  0  0
    4.3874    3.3286    2.7609 H   0  0  0  0  0  0  0  0  0  0  0  0
    3.3100    1.5354    4.7510 H   0  0  0  0  0  0  0  0  0  0  0  0
    2.5238    2.8389    4.1599 H   0  0  0  0  0  0  0  0  0  0  0  0
    1.4742    0.1409    0.8075 H   0  0  0  0  0  0  0  0  0  0  0  0
    0.2442    2.5782   -0.2526 H   0  0  0  0  0  0  0  0  0  0  0  0
    0.8943    2.8914   -2.5552 H   0  0  0  0  0  0  0  0  0  0  0  0
    0.0481    1.6401   -3.1756 H   0  0  0  0  0  0  0  0  0  0  0  0
    2.3951    0.6758   -3.5235 H   0  0  0  0  0  0  0  0  0  0  0  0
    2.3328    1.5044   -5.7550 H   0  0  0  0  0  0  0  0  0  0  0  0
    0.8361    1.0525   -5.2836 H   0  0  0  0  0  0  0  0  0  0  0  0
    1.2426    2.6339   -5.3052 H   0  0  0  0  0  0  0  0  0  0  0  0
    3.9428    2.3949   -4.0888 H   0  0  0  0  0  0  0  0  0  0  0  0
    2.8525    3.5243   -3.6390 H   0  0  0  0  0  0  0  0  0  0  0  0
    3.5052    2.5287   -2.5212 H   0  0  0  0  0  0  0  0  0  0  0  0
   -0.1271    0.5819    2.6966 H   0  0  0  0  0  0  0  0  0  0  0  0
   -0.9359    1.4735    1.5933 H   0  0  0  0  0  0  0  0  0  0  0  0
    0.0287   -1.8399    2.4862 H   0  0  0  0  0  0  0  0  0  0  0  0
   -0.9460   -3.8404    1.5954 H   0  0  0  0  0  0  0  0  0  0  0  0
   -3.2359   -3.9331   -1.1519 H   0  0  0  0  0  0  0  0  0  0  0  0
   -3.0088   -1.5862   -1.2140 H   0  0  0  0  0  0  0  0  0  0  0  0
   -2.0322    0.4111   -0.3183 H   0  0  0  0  0  0  0  0  0  0  0  0
    3.6323   -0.3618    3.4998 H   0  0  0  0  0  0  0  0  0  0  0  0
    2.2150   -0.6709    2.7500 H   0  0  0  0  0  0  0  0  0  0  0  0
    3.5334   -0.2737    1.8721 H   0  0  0  0  0  0  0  0  0  0  0  0
  1  2  1  0  0  0  0
  2  3  2  0  0  0  0
  2  4  1  0  0  0  0
  4  5  1  0  0  0  0
  5  6  1  0  0  0  0
  6  7  1  0  0  0  0
  7  8  2  0  0  0  0
  7  9  1  0  0  0  0
  9 10  1  0  0  0  0
 10 11  1  0  0  0  0
 11 12  2  0  0  0  0
 11 13  1  0  0  0  0
 13 14  1  0  0  0  0
 14 15  1  0  0  0  0
 14 16  1  0  0  0  0
  9 17  1  0  0  0  0
 17 18  1  0  0  0  0
 18 19  1  0  0  0  0
 19 20  2  0  0  0  0
 20 21  1  0  0  0  0
 21 22  1  0  0  0  0
 21 23  2  0  0  0  0
 23 24  1  0  0  0  0
 24 18  2  0  0  0  0
  6 25  1  0  0  0  0
  4 26  1  0  0  0  0
  4 27  1  0  0  0  0
  5 28  1  0  0  0  0
  5 29  1  0  0  0  0
  9 30  1  0  0  0  0
 10 31  1  0  0  0  0
 13 32  1  0  0  0  0
 13 33  1  0  0  0  0
 14 34  1  0  0  0  0
 15 35  1  0  0  0  0
 15 36  1  0  0  0  0
 15 37  1  0  0  0  0
 16 38  1  0  0  0  0
 16 39  1  0  0  0  0
 16 40  1  0  0  0  0
 17 41  1  0  0  0  0
 17 42  1  0  0  0  0
 19 43  1  0  0  0  0
 20 44  1  0  0  0  0
 22 45  1  0  0  0  0
 23 46  1  0  0  0  0
 24 47  1  0  0  0  0
 25 48  1  0  0  0  0
 25 49  1  0  0  0  0
 25 50  1  0  0  0  0
M  CHG  1   1  -1
M  END
>  <result-rank>
45

>  <similarity>
0.930

>  <query-name>
LIG_A_1101_CC(C)SC[R*]_1

>  <query-smiles>
S(C(C)C)CC(=O)[C@@H](NC(=O)C)Cc1ccc(O)cc1

>  <source>
REALspace_2019-12

>  <similarity-descriptor>
1.000;0.806;0.806;0.806;1.000;0.998;0.907;1.000;1.000;1.000;0.981;1.000;1.000;0.188

>  <similarity-descriptor-smiles>
c1ccccc1;CC;CC;CC;C;C;C=O;CN;CN;C=O;CN;C;O;[O-]C=O.C.C

>  <reaction-name>
s_269946a

>  <reagent1-name>
7297400

>  <reagent1-smiles>
[R1*]N(CCC(=O)O)C

>  <reagent2-name>
17057126

>  <reagent2-smiles>
[R1*]C(=O)C(NC(=O)CC(C)C)Cc1ccc(O)cc1

$$$$
s_1458____470822____10158468
          04022015093D 1   1.00000     0.00000     0
            
 44 44  0  0  0  0            999 V2000
   -0.8683    4.2360   -0.4331 S   0  0  0  0  0  0  0  0  0  0  0  0
   -1.0099    4.4813   -2.2208 C   0  0  0  0  0  0  0  0  0  0  0  0
   -1.7572    5.7757   -2.4970 C   0  0  0  0  0  0  0  0  0  0  0  0
    0.3791    4.5575   -2.8333 C   0  0  0  0  0  0  0  0  0  0  0  0
    0.0367    2.6685   -0.4331 C   0  0  0  0  0  0  0  0  0  0  0  0
    0.2900    2.2298    1.0000 C   0  0  0  0  0  0  0  0  0  0  0  0
    1.0000    1.0000    1.0000 O   0  0  0  0  0  0  0  0  0  0  0  0
    2.3100    1.0000    1.0000 C   0  0  0  0  0  0  0  0  0  0  0  0
    2.9100    2.0382    1.0453 O   0  0  0  0  0  0  0  0  0  0  0  0
    3.0700   -0.3151    0.9426 C   0  0  0  0  0  0  0  0  0  0  0  0
    4.5456   -0.0594    1.2028 C   0  0  3  0  0  0  0  0  0  0  0  0
    5.2178   -1.3316    1.5036 N   0  0  0  0  0  0  0  0  0  0  0  0
    5.8469   -1.5059    2.7081 C   0  0  0  0  0  0  0  0  0  0  0  0
    5.8492   -0.6200    3.5175 O   0  0  0  0  0  0  0  0  0  0  0  0
    6.5420   -2.8214    3.0191 C   0  0  0  0  0  0  0  0  0  0  0  0
    5.1763    0.5680   -0.0300 C   0  0  0  0  0  0  0  0  0  0  0  0
    5.1128   -0.0965   -1.2504 C   0  0  0  0  0  0  0  0  0  0  0  0
    5.6919    0.4806   -2.3758 C   0  0  0  0  0  0  0  0  0  0  0  0
    6.3274    1.7139   -2.2760 C   0  0  0  0  0  0  0  0  0  0  0  0
    6.3843    2.3688   -1.0519 C   0  0  0  0  0  0  0  0  0  0  0  0
    5.8096    1.8018    0.0809 C   0  0  0  0  0  0  0  0  0  0  0  0
   -1.5103    3.7149   -2.6238 H   0  0  0  0  0  0  0  0  0  0  0  0
   -1.8355    5.9112   -3.4847 H   0  0  0  0  0  0  0  0  0  0  0  0
   -2.6711    5.7255   -2.0941 H   0  0  0  0  0  0  0  0  0  0  0  0
   -1.2569    6.5420   -2.0941 H   0  0  0  0  0  0  0  0  0  0  0  0
    0.3009    4.6930   -3.8210 H   0  0  0  0  0  0  0  0  0  0  0  0
    0.8795    5.3239   -2.4303 H   0  0  0  0  0  0  0  0  0  0  0  0
    0.8708    3.7059   -2.6516 H   0  0  0  0  0  0  0  0  0  0  0  0
    0.9104    2.7881   -0.9045 H   0  0  0  0  0  0  0  0  0  0  0  0
   -0.5038    1.9716   -0.9045 H   0  0  0  0  0  0  0  0  0  0  0  0
    0.8304    2.9267    1.4714 H   0  0  0  0  0  0  0  0  0  0  0  0
   -0.5838    2.1102    1.4714 H   0  0  0  0  0  0  0  0  0  0  0  0
    2.9574   -0.7259    0.0378 H   0  0  0  0  0  0  0  0  0  0  0  0
    2.7118   -0.9377    1.6383 H   0  0  0  0  0  0  0  0  0  0  0  0
    4.6441    0.5617    1.9804 H   0  0  0  0  0  0  0  0  0  0  0  0
    5.2158   -2.0698    0.8291 H   0  0  0  0  0  0  0  0  0  0  0  0
    6.4434   -3.4424    2.2416 H   0  0  0  0  0  0  0  0  0  0  0  0
    7.5128   -2.6531    3.1903 H   0  0  0  0  0  0  0  0  0  0  0  0
    6.1271   -3.2340    3.8300 H   0  0  0  0  0  0  0  0  0  0  0  0
    4.6542   -0.9826   -1.3182 H   0  0  0  0  0  0  0  0  0  0  0  0
    5.6514    0.0089   -3.2566 H   0  0  0  0  0  0  0  0  0  0  0  0
    6.7432    2.1291   -3.0851 H   0  0  0  0  0  0  0  0  0  0  0  0
    6.8423    3.2552   -0.9847 H   0  0  0  0  0  0  0  0  0  0  0  0
    5.8509    2.2739    0.9615 H   0  0  0  0  0  0  0  0  0  0  0  0
  1  2  1  0  0  0  0
  2  3  1  0  0  0  0
  2  4  1  0  0  0  0
  1  5  1  0  0  0  0
  5  6  1  0  0  0  0
  6  7  1  0  0  0  0
  7  8  1  0  0  0  0
  8  9  2  0  0  0  0
  8 10  1  0  0  0  0
 10 11  1  0  0  0  0
 11 12  1  0  0  0  0
 12 13  1  0  0  0  0
 13 14  2  0  0  0  0
 13 15  1  0  0  0  0
 11 16  1  0  0  0  0
 16 17  1  0  0  0  0
 17 18  2  0  0  0  0
 18 19  1  0  0  0  0
 19 20  2  0  0  0  0
 20 21  1  0  0  0  0
 21 16  2  0  0  0  0
  2 22  1  0  0  0  0
  3 23  1  0  0  0  0
  3 24  1  0  0  0  0
  3 25  1  0  0  0  0
  4 26  1  0  0  0  0
  4 27  1  0  0  0  0
  4 28  1  0  0  0  0
  5 29  1  0  0  0  0
  5 30  1  0  0  0  0
  6 31  1  0  0  0  0
  6 32  1  0  0  0  0
 10 33  1  0  0  0  0
 10 34  1  0  0  0  0
 11 35  1  0  0  0  0
 12 36  1  0  0  0  0
 15 37  1  0  0  0  0
 15 38  1  0  0  0  0
 15 39  1  0  0  0  0
 17 40  1  0  0  0  0
 18 41  1  0  0  0  0
 19 42  1  0  0  0  0
 20 43  1  0  0  0  0
 21 44  1  0  0  0  0
M  END
>  <result-rank>
46

>  <similarity>
0.930

>  <query-name>
LIG_A_1101_CC(C)SC[R*]_1

>  <query-smiles>
S(C(C)C)CC(=O)[C@@H](NC(=O)C)Cc1ccc(O)cc1

>  <source>
REALspace_2019-12

>  <similarity-descriptor>
0.960;1.000;1.000;1.000;1.000;0.999;0.659;1.000;1.000;1.000;1.000;1.000;0.0;0.0

>  <similarity-descriptor-smiles>
c1ccccc1;S;C;C;C;C;COC=O;CC;N;C=O;C;CC;;

>  <reaction-name>
s_1458

>  <reagent1-name>
470822

>  <reagent1-smiles>
[R1*]OC(=O)CC(NC(=O)C)c1ccccc1

>  <reagent2-name>
10158468

>  <reagent2-smiles>
[R1*]CCSC(C)C

$$$$
s_22____12206138____2834210
          04022015093D 1   1.00000     0.00000     0
            
 45 45  0  0  0  0            999 V2000
    0.8326    2.9226    2.9226 S   0  0  0  0  0  0  0  0  0  0  0  0
    2.1288    3.8159    3.8159 C   0  0  0  0  0  0  0  0  0  0  0  0
    1.4914    4.7916    4.7916 C   0  0  0  0  0  0  0  0  0  0  0  0
    1.2397    5.9116    4.4419 O   0  0  0  0  0  0  0  0  0  0  0  0
    1.2167    4.4099    6.0143 O   0  0  0  0  0  0  0  0  0  0  0  0
    0.6212    5.3214    6.9258 C   0  0  0  0  0  0  0  0  0  0  0  0
    1.8776    1.8776    1.8776 C   0  0  0  0  0  0  0  0  0  0  0  0
    1.0000    1.0000    1.0000 C   0  0  0  0  0  0  0  0  0  0  0  0
    1.8776    0.1224    0.1224 C   0  0  0  0  0  0  0  0  0  0  0  0
    3.0725    0.2003    0.2003 O   0  0  0  0  0  0  0  0  0  0  0  0
    1.3043   -0.7574   -0.7574 N   0  0  0  0  0  0  0  0  0  0  0  0
    2.1530   -1.6061   -1.6061 C   0  0  3  0  0  0  0  0  0  0  0  0
    1.8605   -1.3136   -3.0688 C   0  0  0  0  0  0  0  0  0  0  0  0
    2.7591   -1.2675   -3.8628 O   0  0  0  0  0  0  0  0  0  0  0  0
    0.6275   -1.1119   -3.4625 O   0  0  0  0  0  0  0  0  0  0  0  0
    0.3542   -0.8386   -4.8289 C   0  0  0  0  0  0  0  0  0  0  0  0
    1.8605   -3.0688   -1.3136 C   0  0  0  0  0  0  0  0  0  0  0  0
    2.7383   -3.9466   -2.1914 C   0  0  0  0  0  0  0  0  0  0  0  0
    3.9920   -4.3481   -1.7408 C   0  0  0  0  0  0  0  0  0  0  0  0
    4.4447   -3.9668   -0.5272 O   0  0  0  0  0  0  0  0  0  0  0  0
    4.7955   -5.1513   -2.5442 C   0  0  0  0  0  0  0  0  0  0  0  0
    4.3447   -5.5532   -3.7978 C   0  0  0  0  0  0  0  0  0  0  0  0
    3.0908   -5.1520   -4.2477 C   0  0  0  0  0  0  0  0  0  0  0  0
    2.2876   -4.3492   -3.4442 C   0  0  0  0  0  0  0  0  0  0  0  0
    2.6965    4.3190    3.1643 H   0  0  0  0  0  0  0  0  0  0  0  0
    2.6965    3.1643    4.3190 H   0  0  0  0  0  0  0  0  0  0  0  0
    0.4814    4.8687    7.8065 H   0  0  0  0  0  0  0  0  0  0  0  0
    1.2227    6.1108    7.0486 H   0  0  0  0  0  0  0  0  0  0  0  0
   -0.2598    5.6266    6.5644 H   0  0  0  0  0  0  0  0  0  0  0  0
    2.4549    1.3002    2.4549 H   0  0  0  0  0  0  0  0  0  0  0  0
    2.4549    2.4549    1.3002 H   0  0  0  0  0  0  0  0  0  0  0  0
    0.4226    0.4226    1.5774 H   0  0  0  0  0  0  0  0  0  0  0  0
    0.4226    1.5774    0.4226 H   0  0  0  0  0  0  0  0  0  0  0  0
    0.3085   -0.8223   -0.8223 H   0  0  0  0  0  0  0  0  0  0  0  0
    3.1153   -1.4137   -1.4137 H   0  0  0  0  0  0  0  0  0  0  0  0
   -0.6299   -0.7116   -4.9531 H   0  0  0  0  0  0  0  0  0  0  0  0
    0.8352   -0.0065   -5.1051 H   0  0  0  0  0  0  0  0  0  0  0  0
    0.6648   -1.6053   -5.3908 H   0  0  0  0  0  0  0  0  0  0  0  0
    2.0530   -3.2612   -0.3514 H   0  0  0  0  0  0  0  0  0  0  0  0
    0.8983   -3.2612   -1.5061 H   0  0  0  0  0  0  0  0  0  0  0  0
    5.3476   -4.2622   -0.2149 H   0  0  0  0  0  0  0  0  0  0  0  0
    5.6967   -5.4396   -2.2207 H   0  0  0  0  0  0  0  0  0  0  0  0
    4.9221   -6.1304   -4.3754 H   0  0  0  0  0  0  0  0  0  0  0  0
    2.7668   -5.4407   -5.1486 H   0  0  0  0  0  0  0  0  0  0  0  0
    1.3860   -4.0616   -3.7673 H   0  0  0  0  0  0  0  0  0  0  0  0
  1  2  1  0  0  0  0
  2  3  1  0  0  0  0
  3  4  2  0  0  0  0
  3  5  1  0  0  0  0
  5  6  1  0  0  0  0
  1  7  1  0  0  0  0
  7  8  1  0  0  0  0
  8  9  1  0  0  0  0
  9 10  2  0  0  0  0
  9 11  1  0  0  0  0
 11 12  1  0  0  0  0
 12 13  1  0  0  0  0
 13 14  2  0  0  0  0
 13 15  1  0  0  0  0
 15 16  1  0  0  0  0
 12 17  1  0  0  0  0
 17 18  1  0  0  0  0
 18 19  1  0  0  0  0
 19 20  1  0  0  0  0
 19 21  2  0  0  0  0
 21 22  1  0  0  0  0
 22 23  2  0  0  0  0
 23 24  1  0  0  0  0
 24 18  2  0  0  0  0
  2 25  1  0  0  0  0
  2 26  1  0  0  0  0
  6 27  1  0  0  0  0
  6 28  1  0  0  0  0
  6 29  1  0  0  0  0
  7 30  1  0  0  0  0
  7 31  1  0  0  0  0
  8 32  1  0  0  0  0
  8 33  1  0  0  0  0
 11 34  1  0  0  0  0
 12 35  1  0  0  0  0
 16 36  1  0  0  0  0
 16 37  1  0  0  0  0
 16 38  1  0  0  0  0
 17 39  1  0  0  0  0
 17 40  1  0  0  0  0
 20 41  1  0  0  0  0
 21 42  1  0  0  0  0
 22 43  1  0  0  0  0
 23 44  1  0  0  0  0
 24 45  1  0  0  0  0
M  END
>  <result-rank>
47

>  <similarity>
0.930

>  <query-name>
LIG_A_1101_CC(C)SC[R*]_1

>  <query-smiles>
S(C(C)C)CC(=O)[C@@H](NC(=O)C)Cc1ccc(O)cc1

>  <source>
REALspace_2019-12

>  <similarity-descriptor>
1.000;0.966;0.966;0.0;0.951;0.998;0.907;1.000;1.000;0.855;0.994;1.000;1.000;0.188

>  <similarity-descriptor-smiles>
c1ccccc1;SC;SC;;C;C;C=O;NC;NC;C(=O)O;C;C;O;C=O.O.C

>  <reaction-name>
s_22

>  <reagent1-name>
12206138

>  <reagent1-smiles>
[R1*]NC(C(=O)OC)Cc1c(O)cccc1

>  <reagent2-name>
2834210

>  <reagent2-smiles>
[R1*]C(=O)CCSCC(=O)OC

$$$$
s_8____14594092____7689630
          04022015093D 1   1.00000     0.00000     0
            
 44 44  0  0  0  0            999 V2000
    0.1750   -0.4289    1.0000 S   0  0  0  0  0  0  0  0  0  0  0  0
    1.0000    1.0000    1.0000 C   0  0  0  0  0  0  0  0  0  0  0  0
    2.3700    1.0000    1.0000 N   0  0  0  0  0  0  0  0  0  0  0  0
    3.1050    2.2731    1.0000 C   0  0  3  0  0  0  0  0  0  0  0  0
    3.0371    2.8973    2.3842 C   0  0  0  0  0  0  0  0  0  0  0  0
    2.8634    2.2032    3.3476 O   0  0  0  0  0  0  0  0  0  0  0  0
    3.1743    4.2524    2.5321 N   0  0  0  0  0  0  0  0  0  0  0  0
    3.0566    5.1350    1.3624 C   0  0  0  0  0  0  0  0  0  0  0  0
    3.4393    4.8237    3.8603 C   0  0  0  0  0  0  0  0  0  0  0  0
    4.5571    2.0197    0.6291 C   0  0  0  0  0  0  0  0  0  0  0  0
    4.6867    1.9363   -0.8834 C   0  0  0  0  0  0  0  0  0  0  0  0
    4.5501    0.7070   -1.5199 C   0  0  0  0  0  0  0  0  0  0  0  0
    4.6702    0.6350   -2.9039 C   0  0  0  0  0  0  0  0  0  0  0  0
    4.9238    1.7870   -3.6409 C   0  0  0  0  0  0  0  0  0  0  0  0
    5.0578    3.0096   -2.9945 C   0  0  0  0  0  0  0  0  0  0  0  0
    4.9405    3.0947   -1.6110 C   0  0  0  0  0  0  0  0  0  0  0  0
    0.3150    2.1865    1.0000 N   0  0  0  0  0  0  0  0  0  0  0  0
   -1.1550    2.1865    1.0000 C   0  0  0  0  0  0  0  0  0  0  0  0
   -1.6617    3.6195    1.0000 C   0  0  0  0  0  0  0  0  0  0  0  0
   -3.4717    3.6195    1.0000 S   0  0  0  0  0  0  0  0  0  0  0  0
   -3.7548    5.4072    1.0000 C   0  0  0  0  0  0  0  0  0  0  0  0
    2.8700    0.1340    1.0000 H   0  0  0  0  0  0  0  0  0  0  0  0
    2.6943    2.8951    0.3333 H   0  0  0  0  0  0  0  0  0  0  0  0
    3.1825    6.0851    1.6478 H   0  0  0  0  0  0  0  0  0  0  0  0
    3.7567    4.8932    0.6905 H   0  0  0  0  0  0  0  0  0  0  0  0
    2.1505    5.0271    0.9533 H   0  0  0  0  0  0  0  0  0  0  0  0
    3.5103    5.8185    3.7871 H   0  0  0  0  0  0  0  0  0  0  0  0
    2.6908    4.5877    4.4801 H   0  0  0  0  0  0  0  0  0  0  0  0
    4.2970    4.4537    4.2173 H   0  0  0  0  0  0  0  0  0  0  0  0
    5.1242    2.7689    0.9714 H   0  0  0  0  0  0  0  0  0  0  0  0
    4.8602    1.1588    1.0376 H   0  0  0  0  0  0  0  0  0  0  0  0
    4.3669   -0.1188   -0.9865 H   0  0  0  0  0  0  0  0  0  0  0  0
    4.5743   -0.2451   -3.3690 H   0  0  0  0  0  0  0  0  0  0  0  0
    5.0095    1.7354   -4.6359 H   0  0  0  0  0  0  0  0  0  0  0  0
    5.2402    3.8353   -3.5283 H   0  0  0  0  0  0  0  0  0  0  0  0
    5.0371    3.9750   -1.1465 H   0  0  0  0  0  0  0  0  0  0  0  0
    0.8150    3.0525    1.0000 H   0  0  0  0  0  0  0  0  0  0  0  0
   -1.4883    1.7151    1.8165 H   0  0  0  0  0  0  0  0  0  0  0  0
   -1.4883    1.7151    0.1835 H   0  0  0  0  0  0  0  0  0  0  0  0
   -1.3283    4.0909    1.8165 H   0  0  0  0  0  0  0  0  0  0  0  0
   -1.3283    4.0909    0.1835 H   0  0  0  0  0  0  0  0  0  0  0  0
   -4.7382    5.5890    1.0000 H   0  0  0  0  0  0  0  0  0  0  0  0
   -3.3414    5.8102    1.8165 H   0  0  0  0  0  0  0  0  0  0  0  0
   -3.3414    5.8102    0.1835 H   0  0  0  0  0  0  0  0  0  0  0  0
  1  2  2  0  0  0  0
  2  3  1  0  0  0  0
  3  4  1  0  0  0  0
  4  5  1  0  0  0  0
  5  6  2  0  0  0  0
  5  7  1  0  0  0  0
  7  8  1  0  0  0  0
  7  9  1  0  0  0  0
  4 10  1  0  0  0  0
 10 11  1  0  0  0  0
 11 12  1  0  0  0  0
 12 13  2  0  0  0  0
 13 14  1  0  0  0  0
 14 15  2  0  0  0  0
 15 16  1  0  0  0  0
 16 11  2  0  0  0  0
  2 17  1  0  0  0  0
 17 18  1  0  0  0  0
 18 19  1  0  0  0  0
 19 20  1  0  0  0  0
 20 21  1  0  0  0  0
  3 22  1  0  0  0  0
  4 23  1  0  0  0  0
  8 24  1  0  0  0  0
  8 25  1  0  0  0  0
  8 26  1  0  0  0  0
  9 27  1  0  0  0  0
  9 28  1  0  0  0  0
  9 29  1  0  0  0  0
 10 30  1  0  0  0  0
 10 31  1  0  0  0  0
 12 32  1  0  0  0  0
 13 33  1  0  0  0  0
 14 34  1  0  0  0  0
 15 35  1  0  0  0  0
 16 36  1  0  0  0  0
 17 37  1  0  0  0  0
 18 38  1  0  0  0  0
 18 39  1  0  0  0  0
 19 40  1  0  0  0  0
 19 41  1  0  0  0  0
 21 42  1  0  0  0  0
 21 43  1  0  0  0  0
 21 44  1  0  0  0  0
M  END
>  <result-rank>
48

>  <similarity>
0.930

>  <query-name>
LIG_A_1101_CC(C)SC[R*]_1

>  <query-smiles>
S(C(C)C)CC(=O)[C@@H](NC(=O)C)Cc1ccc(O)cc1

>  <source>
REALspace_2019-12

>  <similarity-descriptor>
0.960;0.966;0.966;0.0;0.998;0.995;0.775;0.996;0.996;1.000;0.977;1.000;0.0;0.071

>  <similarity-descriptor-smiles>
c1ccccc1;CS;CS;;C;C;S=CN;NC;NC;C=O;NC;C;;C

>  <reaction-name>
s_8

>  <reagent1-name>
14594092

>  <reagent1-smiles>
[R1*]NC(C(=O)N(C)C)Cc1ccccc1

>  <reagent2-name>
7689630

>  <reagent2-smiles>
[R1*]C(=S)NCCSC

$$$$
m_271722____10195612____17513462
          04022015093D 1   1.00000     0.00000     0
            
 40 41  0  0  0  0            999 V2000
   -1.2551    1.8141   -0.2741 O   0  0  0  0  0  0  0  0  0  0  0  0
   -0.2423    1.9355   -0.9061 C   0  0  0  0  0  0  0  0  0  0  0  0
    0.9555    1.5559   -0.3601 N   0  0  0  0  0  0  0  0  0  0  0  0
    1.0000    1.0000    1.0000 C   0  0  3  0  0  0  0  0  0  0  0  0
    1.8776    1.8776    1.8776 C   0  0  0  0  0  0  0  0  0  0  0  0
    3.0883    2.2825    1.5756 O   0  0  0  0  0  0  0  0  0  0  0  0
    3.4972    3.0122    2.5875 C   0  0  0  0  0  0  0  0  0  0  0  0
    2.5564    3.0559    3.4991 N   0  0  0  0  0  0  0  0  0  0  0  0
    1.5430    2.3478    3.0566 N   0  0  0  0  0  0  0  0  0  0  0  0
    4.8501    3.6972    2.6847 C   0  0  0  0  0  0  0  0  0  0  0  0
    4.6495    5.1976    2.8223 C   0  0  0  0  0  0  0  0  0  0  0  0
    5.5976    3.1723    3.8996 C   0  0  0  0  0  0  0  0  0  0  0  0
    1.5748   -0.4064    0.9540 C   0  0  0  0  0  0  0  0  0  0  0  0
    0.6972   -1.2840    0.0764 C   0  0  0  0  0  0  0  0  0  0  0  0
    0.9658   -1.3762   -1.2853 C   0  0  0  0  0  0  0  0  0  0  0  0
    0.1659   -2.1786   -2.0921 C   0  0  0  0  0  0  0  0  0  0  0  0
   -0.8937   -2.8799   -1.5256 C   0  0  0  0  0  0  0  0  0  0  0  0
   -1.6727   -3.6595   -2.3050 O   0  0  0  0  0  0  0  0  0  0  0  0
   -1.1668   -2.7909   -0.1644 C   0  0  0  0  0  0  0  0  0  0  0  0
   -0.3635   -1.9875    0.6377 C   0  0  0  0  0  0  0  0  0  0  0  0
   -0.2884    2.5103   -2.3125 C   0  0  0  0  0  0  0  0  0  0  0  0
    1.7995    1.6570   -0.8868 H   0  0  0  0  0  0  0  0  0  0  0  0
    0.0748    0.9697    1.3782 H   0  0  0  0  0  0  0  0  0  0  0  0
    5.3805    3.5062    1.8588 H   0  0  0  0  0  0  0  0  0  0  0  0
    5.5399    5.6484    2.8863 H   0  0  0  0  0  0  0  0  0  0  0  0
    4.1578    5.5429    2.0230 H   0  0  0  0  0  0  0  0  0  0  0  0
    4.1191    5.3886    3.6482 H   0  0  0  0  0  0  0  0  0  0  0  0
    6.4879    3.6231    3.9636 H   0  0  0  0  0  0  0  0  0  0  0  0
    5.0671    3.3634    4.7256 H   0  0  0  0  0  0  0  0  0  0  0  0
    5.7295    2.1852    3.8091 H   0  0  0  0  0  0  0  0  0  0  0  0
    2.5001   -0.3761    0.5758 H   0  0  0  0  0  0  0  0  0  0  0  0
    1.6051   -0.7845    1.8792 H   0  0  0  0  0  0  0  0  0  0  0  0
    1.7302   -0.8681   -1.6823 H   0  0  0  0  0  0  0  0  0  0  0  0
    0.3511   -2.2508   -3.0722 H   0  0  0  0  0  0  0  0  0  0  0  0
   -2.4355   -4.1656   -1.9024 H   0  0  0  0  0  0  0  0  0  0  0  0
   -1.9315   -3.2986    0.2325 H   0  0  0  0  0  0  0  0  0  0  0  0
   -0.5484   -1.9155    1.6178 H   0  0  0  0  0  0  0  0  0  0  0  0
    0.6369    2.5406   -2.6906 H   0  0  0  0  0  0  0  0  0  0  0  0
   -0.8657    1.9330   -2.8898 H   0  0  0  0  0  0  0  0  0  0  0  0
   -0.6665    3.4356   -2.2822 H   0  0  0  0  0  0  0  0  0  0  0  0
  1  2  2  0  0  0  0
  2  3  1  0  0  0  0
  3  4  1  0  0  0  0
  4  5  1  0  0  0  0
  5  6  1  0  0  0  0
  6  7  1  0  0  0  0
  7  8  2  0  0  0  0
  8  9  1  0  0  0  0
  5  9  2  0  0  0  0
  7 10  1  0  0  0  0
 10 11  1  0  0  0  0
 10 12  1  0  0  0  0
  4 13  1  0  0  0  0
 13 14  1  0  0  0  0
 14 15  1  0  0  0  0
 15 16  2  0  0  0  0
 16 17  1  0  0  0  0
 17 18  1  0  0  0  0
 17 19  2  0  0  0  0
 19 20  1  0  0  0  0
 20 14  2  0  0  0  0
  2 21  1  0  0  0  0
  3 22  1  0  0  0  0
  4 23  1  0  0  0  0
 10 24  1  0  0  0  0
 11 25  1  0  0  0  0
 11 26  1  0  0  0  0
 11 27  1  0  0  0  0
 12 28  1  0  0  0  0
 12 29  1  0  0  0  0
 12 30  1  0  0  0  0
 13 31  1  0  0  0  0
 13 32  1  0  0  0  0
 15 33  1  0  0  0  0
 16 34  1  0  0  0  0
 18 35  1  0  0  0  0
 19 36  1  0  0  0  0
 20 37  1  0  0  0  0
 21 38  1  0  0  0  0
 21 39  1  0  0  0  0
 21 40  1  0  0  0  0
M  END
>  <result-rank>
49

>  <similarity>
0.929

>  <query-name>
LIG_A_1101_CC(C)SC[R*]_1

>  <query-smiles>
S(C(C)C)CC(=O)[C@@H](NC(=O)C)Cc1ccc(O)cc1

>  <source>
REALspace_2019-12

>  <similarity-descriptor>
1.000;0.679;0.999;0.999;1.000;0.679;0.679;1.000;1.000;1.000;1.000;1.000;1.000;0.0

>  <similarity-descriptor-smiles>
c1ccccc1;C1=NN=CO1;CC;CC;C;C1=NN=CO1;C1=NN=CO1;C;N;O=C;C;C;O;

>  <reaction-name>
m_271722

>  <reagent1-name>
10195612

>  <reagent1-smiles>
[R1*]=NN=C(O[R2*])C(C)C

>  <reagent2-name>
17513462

>  <reagent2-smiles>
[R1*]C([R2*])C(NC(=O)C)Cc1ccc(O)cc1

$$$$
s_240690a____7347540____17513472
          04022015093D 1   1.00000     0.00000     0
            
 48 48  0  0  0  0            999 V2000
    0.9150    1.0000    3.2257 O   0  0  0  0  0  0  0  0  0  0  0  0
    0.3150    1.0000    2.1865 C   0  0  0  0  0  0  0  0  0  0  0  0
    1.0000    1.0000    1.0000 N   0  0  0  0  0  0  0  0  0  0  0  0
    2.4700    1.0000    1.0000 C   0  0  0  0  0  0  0  0  0  0  0  0
    2.9767    1.0000   -0.4331 C   0  0  0  0  0  0  0  0  0  0  0  0
    4.4967    1.0000   -0.4331 C   0  0  3  0  0  0  0  0  0  0  0  0
    4.9867    1.0000   -1.8190 N   0  3  0  0  0  0  0  0  0  0  0  0
    6.4567    1.0000   -1.8190 C   0  0  0  0  0  0  0  0  0  0  0  0
    5.0033    2.2411    0.2835 C   0  0  0  0  0  0  0  0  0  0  0  0
   -1.2050    1.0000    2.1865 C   0  0  3  0  0  0  0  0  0  0  0  0
   -1.6950    1.0000    3.5724 N   0  0  0  0  0  0  0  0  0  0  0  0
   -2.4826    2.0275    4.0205 C   0  0  0  0  0  0  0  0  0  0  0  0
   -2.7725    2.9275    3.2816 O   0  0  0  0  0  0  0  0  0  0  0  0
   -2.9893    2.0275    5.4535 C   0  0  0  0  0  0  0  0  0  0  0  0
   -1.7117   -0.2411    1.4699 C   0  0  0  0  0  0  0  0  0  0  0  0
   -3.2317   -0.2411    1.4699 C   0  0  0  0  0  0  0  0  0  0  0  0
   -3.9161    0.3644    0.4212 C   0  0  0  0  0  0  0  0  0  0  0  0
   -5.3069    0.3662    0.4166 C   0  0  0  0  0  0  0  0  0  0  0  0
   -5.9966   -0.2391    1.4624 C   0  0  0  0  0  0  0  0  0  0  0  0
   -7.3464   -0.2393    1.4621 O   0  0  0  0  0  0  0  0  0  0  0  0
   -5.3170   -0.8457    2.5138 C   0  0  0  0  0  0  0  0  0  0  0  0
   -3.9262   -0.8449    2.5131 C   0  0  0  0  0  0  0  0  0  0  0  0
    4.6533    1.8165   -2.2904 H   0  0  0  0  0  0  0  0  0  0  0  0
    4.6533    0.1835   -2.2904 H   0  0  0  0  0  0  0  0  0  0  0  0
    0.5000    1.0000    0.1340 H   0  0  0  0  0  0  0  0  0  0  0  0
    2.8033    0.1835    1.4714 H   0  0  0  0  0  0  0  0  0  0  0  0
    2.8033    1.8165    1.4714 H   0  0  0  0  0  0  0  0  0  0  0  0
    2.6433    0.1835   -0.9045 H   0  0  0  0  0  0  0  0  0  0  0  0
    2.6433    1.8165   -0.9045 H   0  0  0  0  0  0  0  0  0  0  0  0
    4.8300    0.1835    0.0383 H   0  0  0  0  0  0  0  0  0  0  0  0
    6.7900    1.0000   -2.7618 H   0  0  0  0  0  0  0  0  0  0  0  0
    6.7900    1.8165   -1.3476 H   0  0  0  0  0  0  0  0  0  0  0  0
    6.7900    0.1835   -1.3476 H   0  0  0  0  0  0  0  0  0  0  0  0
    4.6700    2.2411    1.2263 H   0  0  0  0  0  0  0  0  0  0  0  0
    6.0033    2.2411    0.2835 H   0  0  0  0  0  0  0  0  0  0  0  0
    4.6700    3.0576   -0.1879 H   0  0  0  0  0  0  0  0  0  0  0  0
   -1.5383    1.8165    1.7151 H   0  0  0  0  0  0  0  0  0  0  0  0
   -1.4534    0.2500    4.1881 H   0  0  0  0  0  0  0  0  0  0  0  0
   -2.6560    1.2110    5.9249 H   0  0  0  0  0  0  0  0  0  0  0  0
   -2.6560    2.8440    5.9249 H   0  0  0  0  0  0  0  0  0  0  0  0
   -3.9893    2.0275    5.4535 H   0  0  0  0  0  0  0  0  0  0  0  0
   -1.3783   -0.2411    0.5271 H   0  0  0  0  0  0  0  0  0  0  0  0
   -1.3783   -1.0576    1.9413 H   0  0  0  0  0  0  0  0  0  0  0  0
   -3.4106    0.7963   -0.3258 H   0  0  0  0  0  0  0  0  0  0  0  0
   -5.8076    0.7993   -0.3330 H   0  0  0  0  0  0  0  0  0  0  0  0
   -7.8465   -0.6731    2.2116 H   0  0  0  0  0  0  0  0  0  0  0  0
   -5.8224   -1.2771    3.2611 H   0  0  0  0  0  0  0  0  0  0  0  0
   -3.4255   -1.2783    3.2624 H   0  0  0  0  0  0  0  0  0  0  0  0
  1  2  2  0  0  0  0
  2  3  1  0  0  0  0
  3  4  1  0  0  0  0
  4  5  1  0  0  0  0
  5  6  1  0  0  0  0
  6  7  1  0  0  0  0
  7  8  1  0  0  0  0
  6  9  1  0  0  0  0
  2 10  1  0  0  0  0
 10 11  1  0  0  0  0
 11 12  1  0  0  0  0
 12 13  2  0  0  0  0
 12 14  1  0  0  0  0
 10 15  1  0  0  0  0
 15 16  1  0  0  0  0
 16 17  1  0  0  0  0
 17 18  2  0  0  0  0
 18 19  1  0  0  0  0
 19 20  1  0  0  0  0
 19 21  2  0  0  0  0
 21 22  1  0  0  0  0
 22 16  2  0  0  0  0
  7 23  1  0  0  0  0
  7 24  1  0  0  0  0
  3 25  1  0  0  0  0
  4 26  1  0  0  0  0
  4 27  1  0  0  0  0
  5 28  1  0  0  0  0
  5 29  1  0  0  0  0
  6 30  1  0  0  0  0
  8 31  1  0  0  0  0
  8 32  1  0  0  0  0
  8 33  1  0  0  0  0
  9 34  1  0  0  0  0
  9 35  1  0  0  0  0
  9 36  1  0  0  0  0
 10 37  1  0  0  0  0
 11 38  1  0  0  0  0
 14 39  1  0  0  0  0
 14 40  1  0  0  0  0
 14 41  1  0  0  0  0
 15 42  1  0  0  0  0
 15 43  1  0  0  0  0
 17 44  1  0  0  0  0
 18 45  1  0  0  0  0
 20 46  1  0  0  0  0
 21 47  1  0  0  0  0
 22 48  1  0  0  0  0
M  CHG  1   7   1
M  END
>  <result-rank>
50

>  <similarity>
0.929

>  <query-name>
LIG_A_1101_CC(C)SC[R*]_1

>  <query-smiles>
S(C(C)C)CC(=O)[C@@H](NC(=O)C)Cc1ccc(O)cc1

>  <source>
REALspace_2019-12

>  <similarity-descriptor>
1.000;0.681;0.969;0.969;1.000;0.681;0.763;1.000;1.000;1.000;1.000;1.000;1.000;0.133

>  <similarity-descriptor-smiles>
c1ccccc1;C;CC;CC;C;C;O=CN;C;N;C=O;C;C;O;[NH2+].C

>  <reaction-name>
s_240690a

>  <reagent1-name>
7347540

>  <reagent1-smiles>
[R1*]NCCC(NC)C

>  <reagent2-name>
17513472

>  <reagent2-smiles>
[R1*]C(=O)C(NC(=O)C)Cc1ccc(O)cc1

$$$$
s_527a____13611728____14038892
          04022015093D 1   1.00000     0.00000     0
            
 55 55  0  0  0  0            999 V2000
    2.0922   -1.6710    6.1805 I   0  0  0  0  0  0  0  0  0  0  0  0
    2.9750   -0.5321    4.5851 C   0  0  0  0  0  0  0  0  0  0  0  0
    2.1689    0.2694    3.7842 C   0  0  0  0  0  0  0  0  0  0  0  0
    2.7553    0.9999    2.7553 C   0  0  0  0  0  0  0  0  0  0  0  0
    4.1250    0.9367    2.5226 C   0  0  0  0  0  0  0  0  0  0  0  0
    4.9128    0.1281    3.3353 C   0  0  0  0  0  0  0  0  0  0  0  0
    4.3468   -0.6102    4.3693 C   0  0  0  0  0  0  0  0  0  0  0  0
    1.8776    1.8776    1.8776 C   0  0  3  0  0  0  0  0  0  0  0  0
    1.0289    2.7263    2.7263 N   0  0  0  0  0  0  0  0  0  0  0  0
    1.1178    4.0905    2.6374 C   0  0  0  0  0  0  0  0  0  0  0  0
    1.8884    4.5926    1.8667 O   0  0  0  0  0  0  0  0  0  0  0  0
    0.3614    4.8468    3.3937 O   0  0  0  0  0  0  0  0  0  0  0  0
    0.4535    6.2608    3.3016 C   0  0  0  0  0  0  0  0  0  0  0  0
    1.8685    6.6996    3.6418 C   0  0  0  0  0  0  0  0  0  0  0  0
    0.1134    6.6996    1.8866 C   0  0  0  0  0  0  0  0  0  0  0  0
   -0.5226    6.8969    4.2778 C   0  0  0  0  0  0  0  0  0  0  0  0
    1.0000    1.0000    1.0000 C   0  0  0  0  0  0  0  0  0  0  0  0
    1.8776    0.1224    0.1224 C   0  0  0  0  0  0  0  0  0  0  0  0
    3.0725    0.2003    0.2003 O   0  0  0  0  0  0  0  0  0  0  0  0
    1.3043   -0.7574   -0.7574 N   0  0  0  0  0  0  0  0  0  0  0  0
   -0.1595   -0.8528   -0.8528 C   0  0  0  0  0  0  0  0  0  0  0  0
   -0.6640   -1.8990    0.1277 C   0  0  0  0  0  0  0  0  0  0  0  0
   -1.3188   -2.9347   -0.3067 C   0  0  0  0  0  0  0  0  0  0  0  0
    2.1530   -1.6061   -1.6061 C   0  0  0  0  0  0  0  0  0  0  0  0
    2.4456   -0.8853   -2.9120 C   0  0  0  0  0  0  0  0  0  0  0  0
    3.3231   -1.7629   -3.7896 C   0  0  0  0  0  0  0  0  0  0  0  0
    1.1833    0.3200    3.9453 H   0  0  0  0  0  0  0  0  0  0  0  0
    4.5379    1.4654    1.7810 H   0  0  0  0  0  0  0  0  0  0  0  0
    5.8984    0.0770    3.1740 H   0  0  0  0  0  0  0  0  0  0  0  0
    4.9187   -1.1895    4.9500 H   0  0  0  0  0  0  0  0  0  0  0  0
    2.4549    2.4549    1.3002 H   0  0  0  0  0  0  0  0  0  0  0  0
    0.3866    2.3078    3.3685 H   0  0  0  0  0  0  0  0  0  0  0  0
    1.9334    7.6954    3.5769 H   0  0  0  0  0  0  0  0  0  0  0  0
    2.0923    6.4109    4.5727 H   0  0  0  0  0  0  0  0  0  0  0  0
    2.5108    6.2812    2.9995 H   0  0  0  0  0  0  0  0  0  0  0  0
    0.1783    7.6954    1.8217 H   0  0  0  0  0  0  0  0  0  0  0  0
    0.7556    6.2812    1.2444 H   0  0  0  0  0  0  0  0  0  0  0  0
   -0.8175    6.4109    1.6628 H   0  0  0  0  0  0  0  0  0  0  0  0
   -0.4578    7.8926    4.2129 H   0  0  0  0  0  0  0  0  0  0  0  0
   -1.4535    6.6082    4.0540 H   0  0  0  0  0  0  0  0  0  0  0  0
   -0.2988    6.6082    5.2087 H   0  0  0  0  0  0  0  0  0  0  0  0
    0.4226    0.4226    1.5774 H   0  0  0  0  0  0  0  0  0  0  0  0
    0.4226    1.5774    0.4226 H   0  0  0  0  0  0  0  0  0  0  0  0
   -0.4165   -1.1160   -1.7827 H   0  0  0  0  0  0  0  0  0  0  0  0
   -0.5663    0.0338   -0.6328 H   0  0  0  0  0  0  0  0  0  0  0  0
   -0.4923   -1.7906    1.1068 H   0  0  0  0  0  0  0  0  0  0  0  0
   -1.6507   -3.6230    0.3383 H   0  0  0  0  0  0  0  0  0  0  0  0
   -1.4905   -3.0430   -1.2859 H   0  0  0  0  0  0  0  0  0  0  0  0
    1.6788   -2.4652   -1.7986 H   0  0  0  0  0  0  0  0  0  0  0  0
    3.0121   -1.7986   -1.1319 H   0  0  0  0  0  0  0  0  0  0  0  0
    2.9198   -0.0262   -2.7195 H   0  0  0  0  0  0  0  0  0  0  0  0
    1.5864   -0.6929   -3.3862 H   0  0  0  0  0  0  0  0  0  0  0  0
    3.5156   -1.2887   -4.6487 H   0  0  0  0  0  0  0  0  0  0  0  0
    4.1822   -1.9553   -3.3153 H   0  0  0  0  0  0  0  0  0  0  0  0
    2.8489   -2.6220   -3.9820 H   0  0  0  0  0  0  0  0  0  0  0  0
  1  2  1  0  0  0  0
  2  3  1  0  0  0  0
  3  4  2  0  0  0  0
  4  5  1  0  0  0  0
  5  6  2  0  0  0  0
  6  7  1  0  0  0  0
  7  2  2  0  0  0  0
  4  8  1  0  0  0  0
  8  9  1  0  0  0  0
  9 10  1  0  0  0  0
 10 11  2  0  0  0  0
 10 12  1  0  0  0  0
 12 13  1  0  0  0  0
 13 14  1  0  0  0  0
 13 15  1  0  0  0  0
 13 16  1  0  0  0  0
  8 17  1  0  0  0  0
 17 18  1  0  0  0  0
 18 19  2  0  0  0  0
 18 20  1  0  0  0  0
 20 21  1  0  0  0  0
 21 22  1  0  0  0  0
 22 23  2  0  0  0  0
 20 24  1  0  0  0  0
 24 25  1  0  0  0  0
 25 26  1  0  0  0  0
  3 27  1  0  0  0  0
  5 28  1  0  0  0  0
  6 29  1  0  0  0  0
  7 30  1  0  0  0  0
  8 31  1  0  0  0  0
  9 32  1  0  0  0  0
 14 33  1  0  0  0  0
 14 34  1  0  0  0  0
 14 35  1  0  0  0  0
 15 36  1  0  0  0  0
 15 37  1  0  0  0  0
 15 38  1  0  0  0  0
 16 39  1  0  0  0  0
 16 40  1  0  0  0  0
 16 41  1  0  0  0  0
 17 42  1  0  0  0  0
 17 43  1  0  0  0  0
 21 44  1  0  0  0  0
 21 45  1  0  0  0  0
 22 46  1  0  0  0  0
 23 47  1  0  0  0  0
 23 48  1  0  0  0  0
 24 49  1  0  0  0  0
 24 50  1  0  0  0  0
 25 51  1  0  0  0  0
 25 52  1  0  0  0  0
 26 53  1  0  0  0  0
 26 54  1  0  0  0  0
 26 55  1  0  0  0  0
M  END
>  <result-rank>
51

>  <similarity>
0.929

>  <query-name>
LIG_A_1101_CC(C)SC[R*]_1

>  <query-smiles>
S(C(C)C)CC(=O)[C@@H](NC(=O)C)Cc1ccc(O)cc1

>  <source>
REALspace_2019-12

>  <similarity-descriptor>
0.953;0.992;1.000;1.000;1.000;0.992;0.907;1.000;1.000;0.851;0.971;1.000;0.0;0.167

>  <similarity-descriptor-smiles>
Ic1ccccc1;NCC;CC;CC;C;NCC;C=O;CC;N;C(=O)O;CC;CC;;C.C.C

>  <reaction-name>
s_527a

>  <reagent1-name>
13611728

>  <reagent1-smiles>
[R1*]N(CC=C)CCC

>  <reagent2-name>
14038892

>  <reagent2-smiles>
[R1*]C(=O)CC(NC(=O)OC(C)(C)C)c1cc(I)ccc1

$$$$
s_22____14421750____13287720
          04022015093D 1   1.00000     0.00000     0
            
 41 41  0  0  0  0            999 V2000
    6.2725   -1.9266    1.5484 S   0  0  0  0  0  0  0  0  0  0  0  0
    4.7399   -1.6717    2.2411 C   0  0  0  0  0  0  0  0  0  0  0  0
    4.3393   -2.8513    2.7869 C   0  0  0  0  0  0  0  0  0  0  0  0
    5.2846   -3.8988    2.6061 C   0  0  0  0  0  0  0  0  0  0  0  0
    6.4265   -3.5775    1.9355 C   0  0  0  0  0  0  0  0  0  0  0  0
    3.9789   -0.3536    2.2411 C   0  0  0  0  0  0  0  0  0  0  0  0
    3.1050   -0.2731    1.0000 C   0  0  3  0  0  0  0  0  0  0  0  0
    2.3700    1.0000    1.0000 N   0  0  0  0  0  0  0  0  0  0  0  0
    1.0000    1.0000    1.0000 C   0  0  0  0  0  0  0  0  0  0  0  0
    0.4000   -0.0392    1.0000 O   0  0  0  0  0  0  0  0  0  0  0  0
    0.2400    2.3164    1.0000 C   0  0  0  0  0  0  0  0  0  0  0  0
    0.0843    2.9770   -0.1087 C   0  0  0  0  0  0  0  0  0  0  0  0
   -0.3380    2.8602    2.2964 C   0  0  0  0  0  0  0  0  0  0  0  0
    0.7843    3.0841    3.2968 C   0  0  0  0  0  0  0  0  0  0  0  0
    1.7790    4.0825    2.7274 C   0  0  0  0  0  0  0  0  0  0  0  0
    0.2063    3.6280    4.5932 C   0  0  0  0  0  0  0  0  0  0  0  0
    3.9789   -0.3536   -0.2411 C   0  0  0  0  0  0  0  0  0  0  0  0
    4.0832   -1.3910   -0.8352 O   0  0  0  0  0  0  0  0  0  0  0  0
    4.6181    0.7095   -0.6621 O   0  0  0  0  0  0  0  0  0  0  0  0
    5.4345    0.6343   -1.8216 C   0  0  0  0  0  0  0  0  0  0  0  0
    3.4697   -2.9700    3.2661 H   0  0  0  0  0  0  0  0  0  0  0  0
    5.1198   -4.8222    2.9528 H   0  0  0  0  0  0  0  0  0  0  0  0
    7.1921   -4.1826    1.7172 H   0  0  0  0  0  0  0  0  0  0  0  0
    4.6287    0.4065    2.2411 H   0  0  0  0  0  0  0  0  0  0  0  0
    3.4040   -0.3006    3.0576 H   0  0  0  0  0  0  0  0  0  0  0  0
    2.4552   -1.0331    1.0000 H   0  0  0  0  0  0  0  0  0  0  0  0
    2.8700    1.8660    1.0000 H   0  0  0  0  0  0  0  0  0  0  0  0
   -0.4157    3.8430   -0.1087 H   0  0  0  0  0  0  0  0  0  0  0  0
    0.4645    2.6192   -0.9616 H   0  0  0  0  0  0  0  0  0  0  0  0
   -0.9924    2.2035    2.6710 H   0  0  0  0  0  0  0  0  0  0  0  0
   -0.8021    3.7276    2.1164 H   0  0  0  0  0  0  0  0  0  0  0  0
    1.2484    2.2168    3.4768 H   0  0  0  0  0  0  0  0  0  0  0  0
    2.5173    4.2298    3.3856 H   0  0  0  0  0  0  0  0  0  0  0  0
    2.1592    3.7246    1.8745 H   0  0  0  0  0  0  0  0  0  0  0  0
    1.3149    4.9498    2.5474 H   0  0  0  0  0  0  0  0  0  0  0  0
    0.9446    3.7753    5.2514 H   0  0  0  0  0  0  0  0  0  0  0  0
   -0.2578    4.4953    4.4132 H   0  0  0  0  0  0  0  0  0  0  0  0
   -0.4481    2.9712    4.9678 H   0  0  0  0  0  0  0  0  0  0  0  0
    5.8444    1.5289   -1.9992 H   0  0  0  0  0  0  0  0  0  0  0  0
    6.1578   -0.0409   -1.6767 H   0  0  0  0  0  0  0  0  0  0  0  0
    4.8762    0.3619   -2.6052 H   0  0  0  0  0  0  0  0  0  0  0  0
  1  2  1  0  0  0  0
  2  3  2  0  0  0  0
  3  4  1  0  0  0  0
  4  5  2  0  0  0  0
  5  1  1  0  0  0  0
  2  6  1  0  0  0  0
  6  7  1  0  0  0  0
  7  8  1  0  0  0  0
  8  9  1  0  0  0  0
  9 10  2  0  0  0  0
  9 11  1  0  0  0  0
 11 12  2  0  0  0  0
 11 13  1  0  0  0  0
 13 14  1  0  0  0  0
 14 15  1  0  0  0  0
 14 16  1  0  0  0  0
  7 17  1  0  0  0  0
 17 18  2  0  0  0  0
 17 19  1  0  0  0  0
 19 20  1  0  0  0  0
  3 21  1  0  0  0  0
  4 22  1  0  0  0  0
  5 23  1  0  0  0  0
  6 24  1  0  0  0  0
  6 25  1  0  0  0  0
  7 26  1  0  0  0  0
  8 27  1  0  0  0  0
 12 28  1  0  0  0  0
 12 29  1  0  0  0  0
 13 30  1  0  0  0  0
 13 31  1  0  0  0  0
 14 32  1  0  0  0  0
 15 33  1  0  0  0  0
 15 34  1  0  0  0  0
 15 35  1  0  0  0  0
 16 36  1  0  0  0  0
 16 37  1  0  0  0  0
 16 38  1  0  0  0  0
 20 39  1  0  0  0  0
 20 40  1  0  0  0  0
 20 41  1  0  0  0  0
M  END
>  <result-rank>
52

>  <similarity>
0.929

>  <query-name>
LIG_A_1101_CC(C)SC[R*]_1

>  <query-smiles>
S(C(C)C)CC(=O)[C@@H](NC(=O)C)Cc1ccc(O)cc1

>  <source>
REALspace_2019-12

>  <similarity-descriptor>
0.924;0.954;0.999;0.999;1.000;0.954;0.908;1.000;1.000;0.855;0.994;1.000;0.0;0.071

>  <similarity-descriptor-smiles>
S1C=CC=C1;CC;CC;CC;C;CC;C=O;CN;CN;C(=O)O;C;C;;C

>  <reaction-name>
s_22

>  <reagent1-name>
14421750

>  <reagent1-smiles>
[R1*]NC(C(=O)OC)CC=1SC=CC1

>  <reagent2-name>
13287720

>  <reagent2-smiles>
[R1*]C(=O)C(=C)CC(C)C

$$$$
s_276436a____14085750____14087428
          04022015093D 1   1.00000     0.00000     0
            
 48 48  0  0  0  0            999 V2000
    0.9441    1.0453    3.1732 O   0  0  0  0  0  0  0  0  0  0  0  0
    0.3450    1.0000    2.1345 C   0  0  0  0  0  0  0  0  0  0  0  0
    1.0000    1.0000    1.0000 O   0  0  0  0  0  0  0  0  0  0  0  0
    2.4200    1.0000    1.0000 C   0  0  0  0  0  0  0  0  0  0  0  0
    2.9267   -0.4331    1.0000 C   0  0  0  0  0  0  0  0  0  0  0  0
    3.6741   -0.8583    0.0250 C   0  0  0  0  0  0  0  0  0  0  0  0
    4.0413    0.0777   -1.1150 C   0  0  0  0  0  0  0  0  0  0  0  0
    5.5527    0.2226   -1.1847 C   0  0  0  0  0  0  0  0  0  0  0  0
    5.9199    1.1585   -2.3247 C   0  0  0  0  0  0  0  0  0  0  0  0
   -1.1739    0.9426    2.1351 C   0  0  0  0  0  0  0  0  0  0  0  0
   -1.6902    1.2028    3.5409 C   0  0  3  0  0  0  0  0  0  0  0  0
   -3.1592    1.1473    3.5415 N   0  0  0  0  0  0  0  0  0  0  0  0
   -3.8096    0.2300    4.3240 C   0  0  0  0  0  0  0  0  0  0  0  0
   -3.1803   -0.5281    5.0090 O   0  0  0  0  0  0  0  0  0  0  0  0
   -5.3286    0.1726    4.3247 C   0  0  0  0  0  0  0  0  0  0  0  0
   -1.2350    2.5781    4.0013 C   0  0  0  0  0  0  0  0  0  0  0  0
   -1.5769    3.6987    3.2516 C   0  0  0  0  0  0  0  0  0  0  0  0
   -1.1632    4.9592    3.6695 C   0  0  0  0  0  0  0  0  0  0  0  0
   -0.4120    5.0829    4.8340 C   0  0  0  0  0  0  0  0  0  0  0  0
   -0.0081    6.3042    5.2430 O   0  0  0  0  0  0  0  0  0  0  0  0
    1.0134    6.4232    6.2221 C   0  0  0  0  0  0  0  0  0  0  0  0
   -0.0670    3.9653    5.5872 C   0  0  0  0  0  0  0  0  0  0  0  0
   -0.4837    2.7074    5.1650 C   0  0  0  0  0  0  0  0  0  0  0  0
    2.7533    1.4714    1.8165 H   0  0  0  0  0  0  0  0  0  0  0  0
    2.7533    1.4714    0.1835 H   0  0  0  0  0  0  0  0  0  0  0  0
    2.6851   -1.0488    1.7500 H   0  0  0  0  0  0  0  0  0  0  0  0
    4.0074   -1.8011    0.0250 H   0  0  0  0  0  0  0  0  0  0  0  0
    3.6274    0.9742   -0.9568 H   0  0  0  0  0  0  0  0  0  0  0  0
    3.7023   -0.2984   -1.9774 H   0  0  0  0  0  0  0  0  0  0  0  0
    5.9666   -0.6739   -1.3430 H   0  0  0  0  0  0  0  0  0  0  0  0
    5.8917    0.5986   -0.3224 H   0  0  0  0  0  0  0  0  0  0  0  0
    6.9143    1.2538   -2.3706 H   0  0  0  0  0  0  0  0  0  0  0  0
    5.5810    0.7824   -3.1871 H   0  0  0  0  0  0  0  0  0  0  0  0
    5.5061    2.0550   -2.1665 H   0  0  0  0  0  0  0  0  0  0  0  0
   -1.4734    0.0378    1.8322 H   0  0  0  0  0  0  0  0  0  0  0  0
   -1.5340    1.6383    1.5136 H   0  0  0  0  0  0  0  0  0  0  0  0
   -1.3301    0.5071    4.1624 H   0  0  0  0  0  0  0  0  0  0  0  0
   -3.6836    1.7791    2.9707 H   0  0  0  0  0  0  0  0  0  0  0  0
   -5.6887    0.8684    3.7032 H   0  0  0  0  0  0  0  0  0  0  0  0
   -5.6281   -0.7321    4.0217 H   0  0  0  0  0  0  0  0  0  0  0  0
   -5.6682    0.3439    5.2495 H   0  0  0  0  0  0  0  0  0  0  0  0
   -2.1175    3.5986    2.4163 H   0  0  0  0  0  0  0  0  0  0  0  0
   -1.4040    5.7705    3.1368 H   0  0  0  0  0  0  0  0  0  0  0  0
    1.1874    7.3906    6.4065 H   0  0  0  0  0  0  0  0  0  0  0  0
    0.7219    5.9704    7.0647 H   0  0  0  0  0  0  0  0  0  0  0  0
    1.8504    5.9925    5.8846 H   0  0  0  0  0  0  0  0  0  0  0  0
    0.4741    4.0652    6.4223 H   0  0  0  0  0  0  0  0  0  0  0  0
   -0.2433    1.8960    5.6978 H   0  0  0  0  0  0  0  0  0  0  0  0
  1  2  2  0  0  0  0
  2  3  1  0  0  0  0
  3  4  1  0  0  0  0
  4  5  1  0  0  0  0
  5  6  2  0  0  0  0
  6  7  1  0  0  0  0
  7  8  1  0  0  0  0
  8  9  1  0  0  0  0
  2 10  1  0  0  0  0
 10 11  1  0  0  0  0
 11 12  1  0  0  0  0
 12 13  1  0  0  0  0
 13 14  2  0  0  0  0
 13 15  1  0  0  0  0
 11 16  1  0  0  0  0
 16 17  1  0  0  0  0
 17 18  2  0  0  0  0
 18 19  1  0  0  0  0
 19 20  1  0  0  0  0
 20 21  1  0  0  0  0
 19 22  2  0  0  0  0
 22 23  1  0  0  0  0
 23 16  2  0  0  0  0
  4 24  1  0  0  0  0
  4 25  1  0  0  0  0
  5 26  1  0  0  0  0
  6 27  1  0  0  0  0
  7 28  1  0  0  0  0
  7 29  1  0  0  0  0
  8 30  1  0  0  0  0
  8 31  1  0  0  0  0
  9 32  1  0  0  0  0
  9 33  1  0  0  0  0
  9 34  1  0  0  0  0
 10 35  1  0  0  0  0
 10 36  1  0  0  0  0
 11 37  1  0  0  0  0
 12 38  1  0  0  0  0
 15 39  1  0  0  0  0
 15 40  1  0  0  0  0
 15 41  1  0  0  0  0
 17 42  1  0  0  0  0
 18 43  1  0  0  0  0
 21 44  1  0  0  0  0
 21 45  1  0  0  0  0
 21 46  1  0  0  0  0
 22 47  1  0  0  0  0
 23 48  1  0  0  0  0
M  END
>  <result-rank>
53

>  <similarity>
0.929

>  <query-name>
LIG_A_1101_CC(C)SC[R*]_1

>  <query-smiles>
S(C(C)C)CC(=O)[C@@H](NC(=O)C)Cc1ccc(O)cc1

>  <source>
REALspace_2019-12

>  <similarity-descriptor>
1.000;0.814;0.997;0.997;1.000;0.814;0.766;1.000;1.000;1.000;1.000;1.000;0.704;0.063

>  <similarity-descriptor-smiles>
c1ccccc1;CC=C;CC;CC;C;CC=C;O=CO;CC;N;C=O;C;CC;O;C

>  <reaction-name>
s_276436a

>  <reagent1-name>
14085750

>  <reagent1-smiles>
[R1*]OCC=CCCC

>  <reagent2-name>
14087428

>  <reagent2-smiles>
[R1*]C(=O)CC(NC(=O)C)c1ccc(OC)cc1

$$$$
s_22____16911156____548072
          04022015093D 1   1.00000     0.00000     0
            
 48 48  0  0  0  0            999 V2000
   -2.1358   -0.3848    7.8136 Br  0  0  0  0  0  0  0  0  0  0  0  0
   -1.5154    0.6335    6.2580 C   0  0  0  0  0  0  0  0  0  0  0  0
   -1.1884    1.9781    6.4005 C   0  0  0  0  0  0  0  0  0  0  0  0
   -0.7487    2.6956    5.2929 C   0  0  0  0  0  0  0  0  0  0  0  0
   -0.6411    2.0630    4.0588 C   0  0  0  0  0  0  0  0  0  0  0  0
   -0.9699    0.7178    3.9234 C   0  0  0  0  0  0  0  0  0  0  0  0
   -1.4104   -0.0060    5.0266 C   0  0  0  0  0  0  0  0  0  0  0  0
   -0.1595    2.8528    2.8528 C   0  0  0  0  0  0  0  0  0  0  0  0
    1.3043    2.7574    2.7574 N   0  0  0  0  0  0  0  0  0  0  0  0
    1.8776    1.8776    1.8776 C   0  0  0  0  0  0  0  0  0  0  0  0
    3.0725    1.7997    1.7997 O   0  0  0  0  0  0  0  0  0  0  0  0
    1.0000    1.0000    1.0000 C   0  0  0  0  0  0  0  0  0  0  0  0
    0.6517    1.8583   -0.5550 S   0  0  0  0  0  0  0  0  0  0  0  0
   -0.3759    0.5981   -1.3500 C   0  0  0  0  0  0  0  0  0  0  0  0
   -0.8140    1.0914   -2.7194 C   0  0  0  0  0  0  0  0  0  0  0  0
   -1.6769    0.0332   -3.3870 C   0  0  0  0  0  0  0  0  0  0  0  0
   -2.1149    0.5265   -4.7564 C   0  0  0  0  0  0  0  0  0  0  0  0
    2.1530    3.6061    3.6061 C   0  0  0  0  0  0  0  0  0  0  0  0
    2.4456    4.9120    2.8853 C   0  0  0  0  0  0  0  0  0  0  0  0
    1.9953    5.1067    1.7902 O   0  0  0  0  0  0  0  0  0  0  0  0
    3.2232    5.8667    3.4860 N   0  0  0  0  0  0  0  0  0  0  0  0
    3.5061    7.1296    2.7889 C   0  0  0  0  0  0  0  0  0  0  0  0
    3.7747    5.6281    4.8275 C   0  0  0  0  0  0  0  0  0  0  0  0
   -1.2687    2.4250    7.2914 H   0  0  0  0  0  0  0  0  0  0  0  0
   -0.5108    3.6626    5.3836 H   0  0  0  0  0  0  0  0  0  0  0  0
   -0.8893    0.2710    3.0324 H   0  0  0  0  0  0  0  0  0  0  0  0
   -1.6486   -0.9730    4.9359 H   0  0  0  0  0  0  0  0  0  0  0  0
   -0.5727    2.4786    2.0226 H   0  0  0  0  0  0  0  0  0  0  0  0
   -0.4251    3.8115    2.9544 H   0  0  0  0  0  0  0  0  0  0  0  0
    1.4742    0.1409    0.8075 H   0  0  0  0  0  0  0  0  0  0  0  0
    0.1409    0.8075    1.4742 H   0  0  0  0  0  0  0  0  0  0  0  0
   -1.1824    0.4211   -0.7858 H   0  0  0  0  0  0  0  0  0  0  0  0
    0.1509   -0.2456   -1.4525 H   0  0  0  0  0  0  0  0  0  0  0  0
   -0.0075    1.2685   -3.2835 H   0  0  0  0  0  0  0  0  0  0  0  0
   -1.3408    1.9352   -2.6169 H   0  0  0  0  0  0  0  0  0  0  0  0
   -2.4834   -0.1439   -2.8228 H   0  0  0  0  0  0  0  0  0  0  0  0
   -1.1500   -0.8106   -3.4895 H   0  0  0  0  0  0  0  0  0  0  0  0
   -2.6827   -0.1698   -5.1956 H   0  0  0  0  0  0  0  0  0  0  0  0
   -2.6418    1.3702   -4.6539 H   0  0  0  0  0  0  0  0  0  0  0  0
   -1.3085    0.7035   -5.3205 H   0  0  0  0  0  0  0  0  0  0  0  0
    3.0121    3.1319    3.7986 H   0  0  0  0  0  0  0  0  0  0  0  0
    1.6788    3.7986    4.4652 H   0  0  0  0  0  0  0  0  0  0  0  0
    4.0835    7.7069    3.3662 H   0  0  0  0  0  0  0  0  0  0  0  0
    3.9803    6.9371    1.9297 H   0  0  0  0  0  0  0  0  0  0  0  0
    2.6470    7.6038    2.5964 H   0  0  0  0  0  0  0  0  0  0  0  0
    4.3135    6.4210    5.1123 H   0  0  0  0  0  0  0  0  0  0  0  0
    3.0262    5.4839    5.4748 H   0  0  0  0  0  0  0  0  0  0  0  0
    4.3596    4.8172    4.8082 H   0  0  0  0  0  0  0  0  0  0  0  0
  1  2  1  0  0  0  0
  2  3  1  0  0  0  0
  3  4  2  0  0  0  0
  4  5  1  0  0  0  0
  5  6  2  0  0  0  0
  6  7  1  0  0  0  0
  7  2  2  0  0  0  0
  5  8  1  0  0  0  0
  8  9  1  0  0  0  0
  9 10  1  0  0  0  0
 10 11  2  0  0  0  0
 10 12  1  0  0  0  0
 12 13  1  0  0  0  0
 13 14  1  0  0  0  0
 14 15  1  0  0  0  0
 15 16  1  0  0  0  0
 16 17  1  0  0  0  0
  9 18  1  0  0  0  0
 18 19  1  0  0  0  0
 19 20  2  0  0  0  0
 19 21  1  0  0  0  0
 21 22  1  0  0  0  0
 21 23  1  0  0  0  0
  3 24  1  0  0  0  0
  4 25  1  0  0  0  0
  6 26  1  0  0  0  0
  7 27  1  0  0  0  0
  8 28  1  0  0  0  0
  8 29  1  0  0  0  0
 12 30  1  0  0  0  0
 12 31  1  0  0  0  0
 14 32  1  0  0  0  0
 14 33  1  0  0  0  0
 15 34  1  0  0  0  0
 15 35  1  0  0  0  0
 16 36  1  0  0  0  0
 16 37  1  0  0  0  0
 17 38  1  0  0  0  0
 17 39  1  0  0  0  0
 17 40  1  0  0  0  0
 18 41  1  0  0  0  0
 18 42  1  0  0  0  0
 22 43  1  0  0  0  0
 22 44  1  0  0  0  0
 22 45  1  0  0  0  0
 23 46  1  0  0  0  0
 23 47  1  0  0  0  0
 23 48  1  0  0  0  0
M  END
>  <result-rank>
54

>  <similarity>
0.929

>  <query-name>
LIG_A_1101_CC(C)SC[R*]_1

>  <query-smiles>
S(C(C)C)CC(=O)[C@@H](NC(=O)C)Cc1ccc(O)cc1

>  <source>
REALspace_2019-12

>  <similarity-descriptor>
0.962;1.000;0.998;0.998;0.949;1.000;0.907;0.953;0.852;0.852;0.977;0.953;0.0;0.133

>  <similarity-descriptor-smiles>
Brc1ccccc1;S;CC;CC;C;C;C=O;CNC;C=O;C=O;NC;CNC;;C.C

>  <reaction-name>
s_22

>  <reagent1-name>
16911156

>  <reagent1-smiles>
[R1*]N(Cc1ccc(Br)cc1)CC(=O)N(C)C

>  <reagent2-name>
548072

>  <reagent2-smiles>
[R1*]C(=O)CSCCCC

$$$$
s_276436a____15413918____14087426
          04022015093D 1   1.00000     0.00000     0
            
 47 47  0  0  0  0            999 V2000
    0.4000    1.0000   -0.0392 O   0  0  0  0  0  0  0  0  0  0  0  0
    1.0000    1.0000    1.0000 C   0  0  0  0  0  0  0  0  0  0  0  0
    0.3450    1.0000    2.1345 O   0  0  0  0  0  0  0  0  0  0  0  0
   -1.0750    1.0000    2.1345 C   0  0  3  0  0  0  0  0  0  0  0  0
   -1.5817    2.2411    2.8510 C   0  0  0  0  0  0  0  0  0  0  0  0
   -1.7983    3.3347    2.1824 C   0  0  0  0  0  0  0  0  0  0  0  0
   -1.5817   -0.2411    2.8510 C   0  0  0  0  0  0  0  0  0  0  0  0
   -1.0750   -0.2411    4.2841 C   0  0  0  0  0  0  0  0  0  0  0  0
   -3.1017   -0.2411    2.8510 C   0  0  0  0  0  0  0  0  0  0  0  0
    2.5200    1.0000    1.0000 C   0  0  0  0  0  0  0  0  0  0  0  0
    3.0267    1.2488   -0.4113 C   0  0  3  0  0  0  0  0  0  0  0  0
    4.4855    1.4277   -0.3838 N   0  0  0  0  0  0  0  0  0  0  0  0
    5.0404    2.5995   -0.8262 C   0  0  0  0  0  0  0  0  0  0  0  0
    4.3356    3.4799   -1.2362 O   0  0  0  0  0  0  0  0  0  0  0  0
    6.5489    2.7844   -0.7978 C   0  0  0  0  0  0  0  0  0  0  0  0
    2.6785    0.0596   -1.2917 C   0  0  0  0  0  0  0  0  0  0  0  0
    3.1261   -1.2106   -0.9433 C   0  0  0  0  0  0  0  0  0  0  0  0
    2.8054   -2.2951   -1.7528 C   0  0  0  0  0  0  0  0  0  0  0  0
    2.0414   -2.0975   -2.8988 C   0  0  0  0  0  0  0  0  0  0  0  0
    1.5921   -0.8269   -3.2452 C   0  0  0  0  0  0  0  0  0  0  0  0
    1.9140    0.2579   -2.4364 C   0  0  0  0  0  0  0  0  0  0  0  0
    1.6955   -3.2868   -3.7804 C   0  0  0  0  0  0  0  0  0  0  0  0
   -1.4083    1.0000    1.1917 H   0  0  0  0  0  0  0  0  0  0  0  0
   -1.7483    2.2163    3.8367 H   0  0  0  0  0  0  0  0  0  0  0  0
   -2.1317    4.1512    2.6538 H   0  0  0  0  0  0  0  0  0  0  0  0
   -1.6317    3.3595    1.1967 H   0  0  0  0  0  0  0  0  0  0  0  0
   -1.2483   -1.0576    2.3796 H   0  0  0  0  0  0  0  0  0  0  0  0
   -1.4083   -1.0576    4.7555 H   0  0  0  0  0  0  0  0  0  0  0  0
   -0.0750   -0.2411    4.2841 H   0  0  0  0  0  0  0  0  0  0  0  0
   -1.4083    0.5754    4.7555 H   0  0  0  0  0  0  0  0  0  0  0  0
   -3.4350   -1.0576    3.3224 H   0  0  0  0  0  0  0  0  0  0  0  0
   -3.4350    0.5754    3.3224 H   0  0  0  0  0  0  0  0  0  0  0  0
   -3.4350   -0.2411    1.9082 H   0  0  0  0  0  0  0  0  0  0  0  0
    2.8533    0.1140    1.3225 H   0  0  0  0  0  0  0  0  0  0  0  0
    2.8533    1.7222    1.6060 H   0  0  0  0  0  0  0  0  0  0  0  0
    2.5967    2.0733   -0.7793 H   0  0  0  0  0  0  0  0  0  0  0  0
    5.0728    0.6940   -0.0421 H   0  0  0  0  0  0  0  0  0  0  0  0
    6.9789    1.9600   -0.4297 H   0  0  0  0  0  0  0  0  0  0  0  0
    6.8822    2.9482   -1.7263 H   0  0  0  0  0  0  0  0  0  0  0  0
    6.7779    3.5668   -0.2186 H   0  0  0  0  0  0  0  0  0  0  0  0
    3.6741   -1.3429   -0.1174 H   0  0  0  0  0  0  0  0  0  0  0  0
    3.1225   -3.2125   -1.5124 H   0  0  0  0  0  0  0  0  0  0  0  0
    1.0418   -0.6948   -4.0696 H   0  0  0  0  0  0  0  0  0  0  0  0
    1.5974    1.1756   -2.6766 H   0  0  0  0  0  0  0  0  0  0  0  0
    1.1463   -2.9776   -4.5568 H   0  0  0  0  0  0  0  0  0  0  0  0
    2.5375   -3.7097   -4.1152 H   0  0  0  0  0  0  0  0  0  0  0  0
    1.1750   -3.9553   -3.2492 H   0  0  0  0  0  0  0  0  0  0  0  0
  1  2  2  0  0  0  0
  2  3  1  0  0  0  0
  3  4  1  0  0  0  0
  4  5  1  0  0  0  0
  5  6  2  0  0  0  0
  4  7  1  0  0  0  0
  7  8  1  0  0  0  0
  7  9  1  0  0  0  0
  2 10  1  0  0  0  0
 10 11  1  0  0  0  0
 11 12  1  0  0  0  0
 12 13  1  0  0  0  0
 13 14  2  0  0  0  0
 13 15  1  0  0  0  0
 11 16  1  0  0  0  0
 16 17  1  0  0  0  0
 17 18  2  0  0  0  0
 18 19  1  0  0  0  0
 19 20  2  0  0  0  0
 20 21  1  0  0  0  0
 21 16  2  0  0  0  0
 19 22  1  0  0  0  0
  4 23  1  0  0  0  0
  5 24  1  0  0  0  0
  6 25  1  0  0  0  0
  6 26  1  0  0  0  0
  7 27  1  0  0  0  0
  8 28  1  0  0  0  0
  8 29  1  0  0  0  0
  8 30  1  0  0  0  0
  9 31  1  0  0  0  0
  9 32  1  0  0  0  0
  9 33  1  0  0  0  0
 10 34  1  0  0  0  0
 10 35  1  0  0  0  0
 11 36  1  0  0  0  0
 12 37  1  0  0  0  0
 15 38  1  0  0  0  0
 15 39  1  0  0  0  0
 15 40  1  0  0  0  0
 17 41  1  0  0  0  0
 18 42  1  0  0  0  0
 20 43  1  0  0  0  0
 21 44  1  0  0  0  0
 22 45  1  0  0  0  0
 22 46  1  0  0  0  0
 22 47  1  0  0  0  0
M  END
>  <result-rank>
55

>  <similarity>
0.929

>  <query-name>
LIG_A_1101_CC(C)SC[R*]_1

>  <query-smiles>
S(C(C)C)CC(=O)[C@@H](NC(=O)C)Cc1ccc(O)cc1

>  <source>
REALspace_2019-12

>  <similarity-descriptor>
0.927;0.958;0.999;0.999;1.000;0.958;0.766;1.000;1.000;1.000;1.000;1.000;0.0;0.067

>  <similarity-descriptor-smiles>
c1ccc(cc1)C;CC;CC;CC;C;CC;O=CO;CC;N;C=O;C;CC;;C

>  <reaction-name>
s_276436a

>  <reagent1-name>
15413918

>  <reagent1-smiles>
[R1*]OC(C=C)C(C)C

>  <reagent2-name>
14087426

>  <reagent2-smiles>
[R1*]C(=O)CC(NC(=O)C)c1ccc(cc1)C

$$$$
s_11a____5137414____220031
          04022015093D 1   1.00000     0.00000     0
            
 42 42  0  0  0  0            999 V2000
    1.5239    0.0595   -2.5424 S   0  0  0  0  0  0  0  0  0  0  0  0
    2.6781    0.0581   -1.2928 C   0  0  0  0  0  0  0  0  0  0  0  0
    3.2192   -1.1886   -1.2409 C   0  0  0  0  0  0  0  0  0  0  0  0
    2.6651   -2.0775   -2.2033 C   0  0  0  0  0  0  0  0  0  0  0  0
    1.7023   -1.5650   -3.0201 C   0  0  0  0  0  0  0  0  0  0  0  0
    3.0267    1.2488   -0.4113 C   0  0  3  0  0  0  0  0  0  0  0  0
    4.4855    1.4277   -0.3838 N   0  0  0  0  0  0  0  0  0  0  0  0
    5.0404    2.5995   -0.8262 C   0  0  0  0  0  0  0  0  0  0  0  0
    4.3356    3.4799   -1.2362 O   0  0  0  0  0  0  0  0  0  0  0  0
    6.5489    2.7844   -0.7978 C   0  0  0  0  0  0  0  0  0  0  0  0
    2.5200    1.0000    1.0000 C   0  0  0  0  0  0  0  0  0  0  0  0
    1.0000    1.0000    1.0000 C   0  0  0  0  0  0  0  0  0  0  0  0
    0.4000    1.0000   -0.0392 O   0  0  0  0  0  0  0  0  0  0  0  0
    0.3150    1.0000    2.1865 N   0  0  0  0  0  0  0  0  0  0  0  0
   -1.1550    1.0000    2.1865 C   0  0  3  0  0  0  0  0  0  0  0  0
   -1.6617   -0.2411    2.9030 C   0  0  0  0  0  0  0  0  0  0  0  0
   -3.4717   -0.2411    2.9030 S   0  0  0  0  0  0  0  0  0  0  0  0
   -3.7548   -1.7893    3.7968 C   0  0  0  0  0  0  0  0  0  0  0  0
   -1.6617    2.2411    2.9030 C   0  0  0  0  0  0  0  0  0  0  0  0
    1.0500    1.0000    3.4595 C   0  0  0  0  0  0  0  0  0  0  0  0
    3.9333   -1.4531   -0.5927 H   0  0  0  0  0  0  0  0  0  0  0  0
    2.9662   -3.0283   -2.2765 H   0  0  0  0  0  0  0  0  0  0  0  0
    1.2061   -2.0417   -3.7458 H   0  0  0  0  0  0  0  0  0  0  0  0
    2.5967    2.0733   -0.7793 H   0  0  0  0  0  0  0  0  0  0  0  0
    5.0728    0.6940   -0.0421 H   0  0  0  0  0  0  0  0  0  0  0  0
    6.9789    1.9600   -0.4297 H   0  0  0  0  0  0  0  0  0  0  0  0
    6.8822    2.9482   -1.7263 H   0  0  0  0  0  0  0  0  0  0  0  0
    6.7779    3.5668   -0.2186 H   0  0  0  0  0  0  0  0  0  0  0  0
    2.8533    0.1140    1.3225 H   0  0  0  0  0  0  0  0  0  0  0  0
    2.8533    1.7222    1.6060 H   0  0  0  0  0  0  0  0  0  0  0  0
   -1.4883    1.0000    1.2436 H   0  0  0  0  0  0  0  0  0  0  0  0
   -1.3283   -1.0576    2.4316 H   0  0  0  0  0  0  0  0  0  0  0  0
   -1.3283   -0.2411    3.8458 H   0  0  0  0  0  0  0  0  0  0  0  0
   -4.7382   -1.9467    3.8877 H   0  0  0  0  0  0  0  0  0  0  0  0
   -3.3414   -2.5465    3.2912 H   0  0  0  0  0  0  0  0  0  0  0  0
   -3.3414   -1.7300    4.7054 H   0  0  0  0  0  0  0  0  0  0  0  0
   -2.6617    2.2411    2.9030 H   0  0  0  0  0  0  0  0  0  0  0  0
   -1.3283    2.2411    3.8458 H   0  0  0  0  0  0  0  0  0  0  0  0
   -1.3283    3.0576    2.4316 H   0  0  0  0  0  0  0  0  0  0  0  0
    0.4002    1.0000    4.2196 H   0  0  0  0  0  0  0  0  0  0  0  0
    1.6249    0.1835    3.5125 H   0  0  0  0  0  0  0  0  0  0  0  0
    1.6249    1.8165    3.5125 H   0  0  0  0  0  0  0  0  0  0  0  0
  1  2  1  0  0  0  0
  2  3  2  0  0  0  0
  3  4  1  0  0  0  0
  4  5  2  0  0  0  0
  5  1  1  0  0  0  0
  2  6  1  0  0  0  0
  6  7  1  0  0  0  0
  7  8  1  0  0  0  0
  8  9  2  0  0  0  0
  8 10  1  0  0  0  0
  6 11  1  0  0  0  0
 11 12  1  0  0  0  0
 12 13  2  0  0  0  0
 12 14  1  0  0  0  0
 14 15  1  0  0  0  0
 15 16  1  0  0  0  0
 16 17  1  0  0  0  0
 17 18  1  0  0  0  0
 15 19  1  0  0  0  0
 14 20  1  0  0  0  0
  3 21  1  0  0  0  0
  4 22  1  0  0  0  0
  5 23  1  0  0  0  0
  6 24  1  0  0  0  0
  7 25  1  0  0  0  0
 10 26  1  0  0  0  0
 10 27  1  0  0  0  0
 10 28  1  0  0  0  0
 11 29  1  0  0  0  0
 11 30  1  0  0  0  0
 15 31  1  0  0  0  0
 16 32  1  0  0  0  0
 16 33  1  0  0  0  0
 18 34  1  0  0  0  0
 18 35  1  0  0  0  0
 18 36  1  0  0  0  0
 19 37  1  0  0  0  0
 19 38  1  0  0  0  0
 19 39  1  0  0  0  0
 20 40  1  0  0  0  0
 20 41  1  0  0  0  0
 20 42  1  0  0  0  0
M  END
>  <result-rank>
56

>  <similarity>
0.928

>  <query-name>
LIG_A_1101_CC(C)SC[R*]_1

>  <query-smiles>
S(C(C)C)CC(=O)[C@@H](NC(=O)C)Cc1ccc(O)cc1

>  <source>
REALspace_2019-12

>  <similarity-descriptor>
0.924;0.782;0.782;0.998;1.000;0.929;0.907;1.000;1.000;1.000;1.000;1.000;0.0;0.0

>  <similarity-descriptor-smiles>
S1C=CC=C1;CCS;CCS;C;C;NC;C=O;CC;N;C=O;C;CC;;

>  <reaction-name>
s_11a

>  <reagent1-name>
5137414

>  <reagent1-smiles>
[R1*]N(C(CSC)C)C

>  <reagent2-name>
220031

>  <reagent2-smiles>
[R1*]C(=O)CC(NC(=O)C)C=1SC=CC1

$$$$
s_240690a____7868478____17057130
          04022015093D 1   1.00000     0.00000     0
            
 41 41  0  0  0  0            999 V2000
    3.1767    1.0994   -1.2506 O   0  0  0  0  0  0  0  0  0  0  0  0
    2.9767    1.7165   -0.2411 C   0  0  0  0  0  0  0  0  0  0  0  0
    3.2050    3.0669   -0.2071 N   0  0  0  0  0  0  0  0  0  0  0  0
    3.6883    3.7505   -1.3911 N   0  0  0  0  0  0  0  0  0  0  0  0
    2.4700    1.0000    1.0000 C   0  0  3  0  0  0  0  0  0  0  0  0
    1.0000    1.0000    1.0000 N   0  0  0  0  0  0  0  0  0  0  0  0
    0.3150    1.0000    2.1865 C   0  0  0  0  0  0  0  0  0  0  0  0
    0.9150    1.0000    3.2257 O   0  0  0  0  0  0  0  0  0  0  0  0
   -1.2050    1.0000    2.1865 C   0  0  0  0  0  0  0  0  0  0  0  0
   -1.7117   -0.4331    2.1865 C   0  0  0  0  0  0  0  0  0  0  0  0
   -3.2317   -0.4331    2.1865 C   0  0  0  0  0  0  0  0  0  0  0  0
   -1.2050   -1.1496    0.9454 C   0  0  0  0  0  0  0  0  0  0  0  0
    2.9767   -0.4331    1.0000 C   0  0  0  0  0  0  0  0  0  0  0  0
    4.4507   -0.4493    1.3709 C   0  0  0  0  0  0  0  0  0  0  0  0
    4.8363   -0.0915    2.6586 C   0  0  0  0  0  0  0  0  0  0  0  0
    6.1839   -0.1057    3.0027 C   0  0  0  0  0  0  0  0  0  0  0  0
    7.1299   -0.4786    2.0531 C   0  0  0  0  0  0  0  0  0  0  0  0
    8.4388   -0.4934    2.3828 O   0  0  0  0  0  0  0  0  0  0  0  0
    6.7496   -0.8370    0.7639 C   0  0  0  0  0  0  0  0  0  0  0  0
    5.4007   -0.8215    0.4253 C   0  0  0  0  0  0  0  0  0  0  0  0
    3.0383    3.5812    0.6341 H   0  0  0  0  0  0  0  0  0  0  0  0
    3.7994    4.7241   -1.1918 H   0  0  0  0  0  0  0  0  0  0  0  0
    4.5692    3.3633   -1.6632 H   0  0  0  0  0  0  0  0  0  0  0  0
    2.8033    1.4714    1.8165 H   0  0  0  0  0  0  0  0  0  0  0  0
    0.5000    1.0000    0.1340 H   0  0  0  0  0  0  0  0  0  0  0  0
   -1.5383    1.4714    1.3700 H   0  0  0  0  0  0  0  0  0  0  0  0
   -1.5383    1.4714    3.0030 H   0  0  0  0  0  0  0  0  0  0  0  0
   -1.3783   -0.9045    3.0030 H   0  0  0  0  0  0  0  0  0  0  0  0
   -3.5650   -1.3759    2.1865 H   0  0  0  0  0  0  0  0  0  0  0  0
   -3.5650    0.0383    3.0030 H   0  0  0  0  0  0  0  0  0  0  0  0
   -3.5650    0.0383    1.3700 H   0  0  0  0  0  0  0  0  0  0  0  0
   -1.5383   -2.0924    0.9454 H   0  0  0  0  0  0  0  0  0  0  0  0
   -1.5383   -0.6782    0.1289 H   0  0  0  0  0  0  0  0  0  0  0  0
   -0.2050   -1.1496    0.9454 H   0  0  0  0  0  0  0  0  0  0  0  0
    2.4592   -0.9696    1.6667 H   0  0  0  0  0  0  0  0  0  0  0  0
    2.8577   -0.8287    0.0893 H   0  0  0  0  0  0  0  0  0  0  0  0
    4.1481    0.1746    3.3335 H   0  0  0  0  0  0  0  0  0  0  0  0
    6.4707    0.1503    3.9259 H   0  0  0  0  0  0  0  0  0  0  0  0
    9.1224   -0.7607    1.7037 H   0  0  0  0  0  0  0  0  0  0  0  0
    7.4377   -1.1026    0.0887 H   0  0  0  0  0  0  0  0  0  0  0  0
    5.1138   -1.0778   -0.4977 H   0  0  0  0  0  0  0  0  0  0  0  0
  1  2  2  0  0  0  0
  2  3  1  0  0  0  0
  3  4  1  0  0  0  0
  2  5  1  0  0  0  0
  5  6  1  0  0  0  0
  6  7  1  0  0  0  0
  7  8  2  0  0  0  0
  7  9  1  0  0  0  0
  9 10  1  0  0  0  0
 10 11  1  0  0  0  0
 10 12  1  0  0  0  0
  5 13  1  0  0  0  0
 13 14  1  0  0  0  0
 14 15  1  0  0  0  0
 15 16  2  0  0  0  0
 16 17  1  0  0  0  0
 17 18  1  0  0  0  0
 17 19  2  0  0  0  0
 19 20  1  0  0  0  0
 20 14  2  0  0  0  0
  3 21  1  0  0  0  0
  4 22  1  0  0  0  0
  4 23  1  0  0  0  0
  5 24  1  0  0  0  0
  6 25  1  0  0  0  0
  9 26  1  0  0  0  0
  9 27  1  0  0  0  0
 10 28  1  0  0  0  0
 11 29  1  0  0  0  0
 11 30  1  0  0  0  0
 11 31  1  0  0  0  0
 12 32  1  0  0  0  0
 12 33  1  0  0  0  0
 12 34  1  0  0  0  0
 13 35  1  0  0  0  0
 13 36  1  0  0  0  0
 15 37  1  0  0  0  0
 16 38  1  0  0  0  0
 18 39  1  0  0  0  0
 19 40  1  0  0  0  0
 20 41  1  0  0  0  0
M  END
>  <result-rank>
57

>  <similarity>
0.928

>  <query-name>
LIG_A_1101_CC(C)SC[R*]_1

>  <query-smiles>
S(C(C)C)CC(=O)[C@@H](NC(=O)C)Cc1ccc(O)cc1

>  <source>
REALspace_2019-12

>  <similarity-descriptor>
1.000;0.806;0.806;0.806;1.000;0.998;0.907;1.000;1.000;0.836;0.836;1.000;1.000;0.154

>  <similarity-descriptor-smiles>
c1ccccc1;CC;CC;CC;C;C;C=O;CN;CN;O=C;O=C;C;O;N.N

>  <reaction-name>
s_240690a

>  <reagent1-name>
7868478

>  <reagent1-smiles>
[R1*]NN

>  <reagent2-name>
17057130

>  <reagent2-smiles>
[R1*]C(=O)C(NC(=O)CC(C)C)Cc1ccc(O)cc1

$$$$
s_22____1281834____7841202
          04022015093D 1   1.00000     0.00000     0
            
 38 38  0  0  0  0            999 V2000
    0.2153   -1.1412    4.7651 S   0  0  0  0  0  0  0  0  0  0  0  0
    0.1737    0.6641    4.6417 C   0  0  3  0  0  0  0  0  0  0  0  0
    1.0707    1.1147    3.5003 C   0  0  0  0  0  0  0  0  0  0  0  0
    0.3150    1.0000    2.1865 C   0  0  0  0  0  0  0  0  0  0  0  0
   -0.8816    0.9094    2.1884 O   0  0  0  0  0  0  0  0  0  0  0  0
    1.0000    1.0000    1.0000 N   0  0  0  0  0  0  0  0  0  0  0  0
    2.4700    1.0000    1.0000 C   0  0  0  0  0  0  0  0  0  0  0  0
    2.9767    1.0000   -0.4331 C   0  0  0  0  0  0  0  0  0  0  0  0
    4.4969    1.0000   -0.4331 C   0  0  0  0  0  0  0  0  0  0  0  0
    5.1928   -0.2051   -0.4331 C   0  0  0  0  0  0  0  0  0  0  0  0
    6.5840   -0.2049   -0.4326 C   0  0  0  0  0  0  0  0  0  0  0  0
    7.2796    0.9998   -0.4320 C   0  0  0  0  0  0  0  0  0  0  0  0
    6.5840    2.2047   -0.4329 C   0  0  0  0  0  0  0  0  0  0  0  0
    5.1924    2.2047   -0.4330 C   0  0  0  0  0  0  0  0  0  0  0  0
    4.4677   -1.5413   -0.4334 C   0  0  0  0  0  0  0  0  0  0  0  0
    3.7054   -1.6317   -1.5195 F   0  0  0  0  0  0  0  0  0  0  0  0
    5.3583   -2.5291   -0.4333 F   0  0  0  0  0  0  0  0  0  0  0  0
    3.7049   -1.6320    0.6523 F   0  0  0  0  0  0  0  0  0  0  0  0
    0.6671    1.2725    5.9443 C   0  0  0  0  0  0  0  0  0  0  0  0
   -1.1344   -1.3753    5.9482 C   0  0  0  0  0  0  0  0  0  0  0  0
   -0.7640    0.9648    4.4674 H   0  0  0  0  0  0  0  0  0  0  0  0
    1.3433    2.0657    3.6461 H   0  0  0  0  0  0  0  0  0  0  0  0
    1.8853    0.5357    3.4680 H   0  0  0  0  0  0  0  0  0  0  0  0
    0.5000    1.0000    0.1340 H   0  0  0  0  0  0  0  0  0  0  0  0
    2.8033    0.1835    1.4714 H   0  0  0  0  0  0  0  0  0  0  0  0
    2.8033    1.8165    1.4714 H   0  0  0  0  0  0  0  0  0  0  0  0
    2.6433    0.1835   -0.9045 H   0  0  0  0  0  0  0  0  0  0  0  0
    2.6433    1.8165   -0.9045 H   0  0  0  0  0  0  0  0  0  0  0  0
    7.0841   -1.0709   -0.4327 H   0  0  0  0  0  0  0  0  0  0  0  0
    8.2796    0.9998   -0.4310 H   0  0  0  0  0  0  0  0  0  0  0  0
    7.0840    3.0707   -0.4334 H   0  0  0  0  0  0  0  0  0  0  0  0
    4.6924    3.0707   -0.4329 H   0  0  0  0  0  0  0  0  0  0  0  0
    0.6441    2.2699    5.8761 H   0  0  0  0  0  0  0  0  0  0  0  0
    0.0769    0.9761    6.6953 H   0  0  0  0  0  0  0  0  0  0  0  0
    1.6047    0.9719    6.1186 H   0  0  0  0  0  0  0  0  0  0  0  0
   -1.2497   -2.3512    6.1336 H   0  0  0  0  0  0  0  0  0  0  0  0
   -0.9180   -0.8975    6.7996 H   0  0  0  0  0  0  0  0  0  0  0  0
   -1.9813   -1.0065    5.5650 H   0  0  0  0  0  0  0  0  0  0  0  0
  1  2  1  0  0  0  0
  2  3  1  0  0  0  0
  3  4  1  0  0  0  0
  4  5  2  0  0  0  0
  4  6  1  0  0  0  0
  6  7  1  0  0  0  0
  7  8  1  0  0  0  0
  8  9  1  0  0  0  0
  9 10  1  0  0  0  0
 10 11  2  0  0  0  0
 11 12  1  0  0  0  0
 12 13  2  0  0  0  0
 13 14  1  0  0  0  0
 14  9  2  0  0  0  0
 10 15  1  0  0  0  0
 15 16  1  0  0  0  0
 15 17  1  0  0  0  0
 15 18  1  0  0  0  0
  2 19  1  0  0  0  0
  1 20  1  0  0  0  0
  2 21  1  0  0  0  0
  3 22  1  0  0  0  0
  3 23  1  0  0  0  0
  6 24  1  0  0  0  0
  7 25  1  0  0  0  0
  7 26  1  0  0  0  0
  8 27  1  0  0  0  0
  8 28  1  0  0  0  0
 11 29  1  0  0  0  0
 12 30  1  0  0  0  0
 13 31  1  0  0  0  0
 14 32  1  0  0  0  0
 19 33  1  0  0  0  0
 19 34  1  0  0  0  0
 19 35  1  0  0  0  0
 20 36  1  0  0  0  0
 20 37  1  0  0  0  0
 20 38  1  0  0  0  0
M  END
>  <result-rank>
58

>  <similarity>
0.928

>  <query-name>
LIG_A_1101_CC(C)SC[R*]_1

>  <query-smiles>
S(C(C)C)CC(=O)[C@@H](NC(=O)C)Cc1ccc(O)cc1

>  <source>
REALspace_2019-12

>  <similarity-descriptor>
0.944;1.000;1.000;0.998;1.000;0.998;0.907;0.952;0.952;0.0;0.0;1.000;0.0;0.0

>  <similarity-descriptor-smiles>
c1ccccc1C(F)(F)F;SC;SC;C;C;C;C=O;NC;NC;;;C;;

>  <reaction-name>
s_22

>  <reagent1-name>
1281834

>  <reagent1-smiles>
[R1*]NCCc1c(cccc1)C(F)(F)F

>  <reagent2-name>
7841202

>  <reagent2-smiles>
[R1*]C(=O)CC(SC)C

$$$$
s_8____13611712____83751
          04022015093D 1   1.00000     0.00000     0
            
 44 44  0  0  0  0            999 V2000
    1.1400    1.0000    3.6154 S   0  0  0  0  0  0  0  0  0  0  0  0
    0.3150    1.0000    2.1865 C   0  0  0  0  0  0  0  0  0  0  0  0
   -1.0550    1.0000    2.1865 N   0  0  0  0  0  0  0  0  0  0  0  0
   -1.7900    1.0000    3.4595 C   0  0  0  0  0  0  0  0  0  0  0  0
   -2.0433    2.4331    3.8983 C   0  0  0  0  0  0  0  0  0  0  0  0
   -3.2614    2.8583    4.0581 C   0  0  0  0  0  0  0  0  0  0  0  0
   -1.7900    1.0000    0.9134 C   0  0  0  0  0  0  0  0  0  0  0  0
   -2.2588   -0.4113    0.5990 C   0  0  0  0  0  0  0  0  0  0  0  0
   -3.0188   -0.4113   -0.7173 C   0  0  0  0  0  0  0  0  0  0  0  0
    1.0000    1.0000    1.0000 N   0  0  0  0  0  0  0  0  0  0  0  0
    2.4700    1.0000    1.0000 C   0  0  0  0  0  0  0  0  0  0  0  0
    2.9767   -0.4331    1.0000 C   0  0  0  0  0  0  0  0  0  0  0  0
    4.4967   -0.4331    1.0000 C   0  0  0  0  0  0  0  0  0  0  0  0
    5.1811   -0.4331    2.2110 C   0  0  0  0  0  0  0  0  0  0  0  0
    6.5719   -0.4338    2.2159 C   0  0  0  0  0  0  0  0  0  0  0  0
    7.2616   -0.4351    1.0075 C   0  0  0  0  0  0  0  0  0  0  0  0
    8.6114   -0.4355    1.0077 O   0  0  0  0  0  0  0  0  0  0  0  0
    9.3216   -0.4367   -0.2220 C   0  0  0  0  0  0  0  0  0  0  0  0
    6.5820   -0.4347   -0.2063 C   0  0  0  0  0  0  0  0  0  0  0  0
    5.1912   -0.4344   -0.2053 C   0  0  0  0  0  0  0  0  0  0  0  0
   -1.2496    0.5286    4.1564 H   0  0  0  0  0  0  0  0  0  0  0  0
   -2.6638    0.5286    3.3399 H   0  0  0  0  0  0  0  0  0  0  0  0
   -1.2730    3.0488    4.0641 H   0  0  0  0  0  0  0  0  0  0  0  0
   -3.4281    3.8011    4.3467 H   0  0  0  0  0  0  0  0  0  0  0  0
   -4.0317    2.2425    3.8923 H   0  0  0  0  0  0  0  0  0  0  0  0
   -1.1894    1.3225    0.1817 H   0  0  0  0  0  0  0  0  0  0  0  0
   -2.5821    1.6060    0.9858 H   0  0  0  0  0  0  0  0  0  0  0  0
   -2.8594   -0.7338    1.3307 H   0  0  0  0  0  0  0  0  0  0  0  0
   -1.4667   -1.0173    0.5266 H   0  0  0  0  0  0  0  0  0  0  0  0
   -3.3273   -1.3398   -0.9241 H   0  0  0  0  0  0  0  0  0  0  0  0
   -3.8110    0.1947   -0.6449 H   0  0  0  0  0  0  0  0  0  0  0  0
   -2.4183   -0.0888   -1.4490 H   0  0  0  0  0  0  0  0  0  0  0  0
    0.5000    1.0000    0.1340 H   0  0  0  0  0  0  0  0  0  0  0  0
    2.8033    1.4714    1.8165 H   0  0  0  0  0  0  0  0  0  0  0  0
    2.8033    1.4714    0.1835 H   0  0  0  0  0  0  0  0  0  0  0  0
    2.6433   -0.9045    1.8165 H   0  0  0  0  0  0  0  0  0  0  0  0
    2.6433   -0.9045    0.1835 H   0  0  0  0  0  0  0  0  0  0  0  0
    4.6756   -0.4325    3.0738 H   0  0  0  0  0  0  0  0  0  0  0  0
    7.0726   -0.4335    3.0815 H   0  0  0  0  0  0  0  0  0  0  0  0
   10.3047   -0.4369   -0.0392 H   0  0  0  0  0  0  0  0  0  0  0  0
    9.0798   -1.2536   -0.7457 H   0  0  0  0  0  0  0  0  0  0  0  0
    9.0803    0.3794   -0.7471 H   0  0  0  0  0  0  0  0  0  0  0  0
    7.0874   -0.4347   -1.0692 H   0  0  0  0  0  0  0  0  0  0  0  0
    4.6905   -0.4351   -1.0710 H   0  0  0  0  0  0  0  0  0  0  0  0
  1  2  2  0  0  0  0
  2  3  1  0  0  0  0
  3  4  1  0  0  0  0
  4  5  1  0  0  0  0
  5  6  2  0  0  0  0
  3  7  1  0  0  0  0
  7  8  1  0  0  0  0
  8  9  1  0  0  0  0
  2 10  1  0  0  0  0
 10 11  1  0  0  0  0
 11 12  1  0  0  0  0
 12 13  1  0  0  0  0
 13 14  1  0  0  0  0
 14 15  2  0  0  0  0
 15 16  1  0  0  0  0
 16 17  1  0  0  0  0
 17 18  1  0  0  0  0
 16 19  2  0  0  0  0
 19 20  1  0  0  0  0
 20 13  2  0  0  0  0
  4 21  1  0  0  0  0
  4 22  1  0  0  0  0
  5 23  1  0  0  0  0
  6 24  1  0  0  0  0
  6 25  1  0  0  0  0
  7 26  1  0  0  0  0
  7 27  1  0  0  0  0
  8 28  1  0  0  0  0
  8 29  1  0  0  0  0
  9 30  1  0  0  0  0
  9 31  1  0  0  0  0
  9 32  1  0  0  0  0
 10 33  1  0  0  0  0
 11 34  1  0  0  0  0
 11 35  1  0  0  0  0
 12 36  1  0  0  0  0
 12 37  1  0  0  0  0
 14 38  1  0  0  0  0
 15 39  1  0  0  0  0
 18 40  1  0  0  0  0
 18 41  1  0  0  0  0
 18 42  1  0  0  0  0
 19 43  1  0  0  0  0
 20 44  1  0  0  0  0
M  END
>  <result-rank>
59

>  <similarity>
0.928

>  <query-name>
LIG_A_1101_CC(C)SC[R*]_1

>  <query-smiles>
S(C(C)C)CC(=O)[C@@H](NC(=O)C)Cc1ccc(O)cc1

>  <source>
REALspace_2019-12

>  <similarity-descriptor>
1.000;0.990;1.000;1.000;1.000;0.990;0.931;0.949;0.949;0.0;0.0;1.000;0.704;0.143

>  <similarity-descriptor-smiles>
c1ccccc1;NCC;CC;CC;C;NCC;S=C;NC;NC;;;C;O;C.C

>  <reaction-name>
s_8

>  <reagent1-name>
13611712

>  <reagent1-smiles>
[R1*]N(CC=C)CCC

>  <reagent2-name>
83751

>  <reagent2-smiles>
[R1*]C(=S)NCCc1ccc(OC)cc1

$$$$
s_270062____16420882____15585492
          04022015093D 1   1.00000     0.00000     0
            
 39 39  0  0  0  0            999 V2000
    0.6642    1.0677    4.1675 O   0  0  0  0  0  0  0  0  0  0  0  0
    0.4652    2.2114    3.8639 C   0  0  0  0  0  0  0  0  0  0  0  0
    1.0289    2.7263    2.7263 N   0  0  0  0  0  0  0  0  0  0  0  0
    1.8776    1.8776    1.8776 C   0  0  0  0  0  0  0  0  0  0  0  0
    1.0000    1.0000    1.0000 C   0  0  3  0  0  0  0  0  0  0  0  0
    0.1802    1.8198    0.1802 O   0  0  0  0  0  0  0  0  0  0  0  0
   -0.6397    1.0000   -0.6397 C   0  0  0  0  0  0  0  0  0  0  0  0
   -2.1023    1.2925   -0.3472 C   0  0  0  0  0  0  0  0  0  0  0  0
   -0.3472    1.2925   -2.1023 C   0  0  0  0  0  0  0  0  0  0  0  0
    1.8778    0.1222    0.1222 C   0  0  0  0  0  0  0  0  0  0  0  0
    1.7874   -1.2634    0.2126 C   0  0  0  0  0  0  0  0  0  0  0  0
    0.9260   -1.8447    1.0749 O   0  0  0  0  0  0  0  0  0  0  0  0
    0.8473   -3.2603    1.1536 C   0  0  0  0  0  0  0  0  0  0  0  0
    2.5908   -2.0667   -0.5905 C   0  0  0  0  0  0  0  0  0  0  0  0
    3.4842   -1.4843   -1.4844 C   0  0  0  0  0  0  0  0  0  0  0  0
    3.5738   -0.0988   -1.5750 C   0  0  0  0  0  0  0  0  0  0  0  0
    2.7702    0.7041   -0.7721 C   0  0  0  0  0  0  0  0  0  0  0  0
   -0.4124    3.0890    4.7414 C   0  0  0  0  0  0  0  0  0  0  0  0
    0.8630    3.6794    2.4733 H   0  0  0  0  0  0  0  0  0  0  0  0
    2.4549    1.3002    2.4549 H   0  0  0  0  0  0  0  0  0  0  0  0
    2.4549    2.4549    1.3002 H   0  0  0  0  0  0  0  0  0  0  0  0
    0.4226    0.4226    1.5774 H   0  0  0  0  0  0  0  0  0  0  0  0
   -0.4472    0.0377   -0.4472 H   0  0  0  0  0  0  0  0  0  0  0  0
   -2.6796    0.7152   -0.9245 H   0  0  0  0  0  0  0  0  0  0  0  0
   -2.2947    1.1001    0.6151 H   0  0  0  0  0  0  0  0  0  0  0  0
   -2.2947    2.2548   -0.5396 H   0  0  0  0  0  0  0  0  0  0  0  0
   -0.9245    0.7152   -2.6796 H   0  0  0  0  0  0  0  0  0  0  0  0
   -0.5396    2.2548   -2.2947 H   0  0  0  0  0  0  0  0  0  0  0  0
    0.6151    1.1001   -2.2947 H   0  0  0  0  0  0  0  0  0  0  0  0
    0.1645   -3.5186    1.8371 H   0  0  0  0  0  0  0  0  0  0  0  0
    0.5832   -3.6296    0.2626 H   0  0  0  0  0  0  0  0  0  0  0  0
    1.7385   -3.6296    1.4167 H   0  0  0  0  0  0  0  0  0  0  0  0
    2.5263   -3.0625   -0.5254 H   0  0  0  0  0  0  0  0  0  0  0  0
    4.0618   -2.0615   -2.0617 H   0  0  0  0  0  0  0  0  0  0  0  0
    4.2158    0.3198   -2.2173 H   0  0  0  0  0  0  0  0  0  0  0  0
    2.8341    1.6999   -0.8378 H   0  0  0  0  0  0  0  0  0  0  0  0
   -0.4712    4.0048    4.3442 H   0  0  0  0  0  0  0  0  0  0  0  0
   -1.3282    2.6918    4.8002 H   0  0  0  0  0  0  0  0  0  0  0  0
   -0.0152    3.1478    5.6573 H   0  0  0  0  0  0  0  0  0  0  0  0
  1  2  2  0  0  0  0
  2  3  1  0  0  0  0
  3  4  1  0  0  0  0
  4  5  1  0  0  0  0
  5  6  1  0  0  0  0
  6  7  1  0  0  0  0
  7  8  1  0  0  0  0
  7  9  1  0  0  0  0
  5 10  1  0  0  0  0
 10 11  1  0  0  0  0
 11 12  1  0  0  0  0
 12 13  1  0  0  0  0
 11 14  2  0  0  0  0
 14 15  1  0  0  0  0
 15 16  2  0  0  0  0
 16 17  1  0  0  0  0
 17 10  2  0  0  0  0
  2 18  1  0  0  0  0
  3 19  1  0  0  0  0
  4 20  1  0  0  0  0
  4 21  1  0  0  0  0
  5 22  1  0  0  0  0
  7 23  1  0  0  0  0
  8 24  1  0  0  0  0
  8 25  1  0  0  0  0
  8 26  1  0  0  0  0
  9 27  1  0  0  0  0
  9 28  1  0  0  0  0
  9 29  1  0  0  0  0
 13 30  1  0  0  0  0
 13 31  1  0  0  0  0
 13 32  1  0  0  0  0
 14 33  1  0  0  0  0
 15 34  1  0  0  0  0
 16 35  1  0  0  0  0
 17 36  1  0  0  0  0
 18 37  1  0  0  0  0
 18 38  1  0  0  0  0
 18 39  1  0  0  0  0
M  END
>  <result-rank>
60

>  <similarity>
0.928

>  <query-name>
LIG_A_1101_CC(C)SC[R*]_1

>  <query-smiles>
S(C(C)C)CC(=O)[C@@H](NC(=O)C)Cc1ccc(O)cc1

>  <source>
REALspace_2019-12

>  <similarity-descriptor>
1.000;0.831;0.831;0.0;1.000;0.831;0.807;0.995;1.000;1.000;1.000;0.995;0.704;0.083

>  <similarity-descriptor-smiles>
c1ccccc1;CC;CC;;C;CC;O;CC;N;O=C;C;CC;O;C

>  <reaction-name>
s_270062

>  <reagent1-name>
16420882

>  <reagent1-smiles>
[R1*]NCC(OC(C)C)c1c(OC)cccc1

>  <reagent2-name>
15585492

>  <reagent2-smiles>
[R1*]C(=O)C

$$$$
s_188690b____2735030____10870446
          04022015093D 1   1.00000     0.00000     0
            
 37 37  0  0  0  0            999 V2000
    2.6121    3.1711   -0.6428 S   0  0  0  0  0  0  0  0  0  0  0  0
    3.0267    1.4309   -0.3667 C   0  0  3  0  0  0  0  0  0  0  0  0
    2.5200    1.0000    1.0000 C   0  0  0  0  0  0  0  0  0  0  0  0
    1.0000    1.0000    1.0000 C   0  0  0  0  0  0  0  0  0  0  0  0
    0.4000    1.0000   -0.0392 O   0  0  0  0  0  0  0  0  0  0  0  0
    0.3150    1.0000    2.1865 N   0  0  0  0  0  0  0  0  0  0  0  0
   -1.1550    1.0000    2.1865 C   0  0  3  0  0  0  0  0  0  0  0  0
   -1.6617    2.2411    2.9030 C   0  0  0  0  0  0  0  0  0  0  0  0
   -2.7917    2.6300    2.7137 O   0  5  0  0  0  0  0  0  0  0  0  0
   -0.9109    2.8599    3.6878 O   0  0  0  0  0  0  0  0  0  0  0  0
   -1.6617   -0.2411    2.9030 C   0  0  0  0  0  0  0  0  0  0  0  0
   -1.1549   -1.4824    2.1863 C   0  0  0  0  0  0  0  0  0  0  0  0
    0.0614   -2.0450    2.5591 C   0  0  0  0  0  0  0  0  0  0  0  0
    0.5218   -3.1803    1.9002 C   0  0  0  0  0  0  0  0  0  0  0  0
   -0.2332   -3.7453    0.8778 C   0  0  0  0  0  0  0  0  0  0  0  0
   -1.4469   -3.1750    0.5142 C   0  0  0  0  0  0  0  0  0  0  0  0
   -1.9179   -2.0394    1.1649 C   0  0  0  0  0  0  0  0  0  0  0  0
    4.5351    1.2538   -0.4269 C   0  0  0  0  0  0  0  0  0  0  0  0
    3.3241    3.3732   -2.2945 C   0  0  0  0  0  0  0  0  0  0  0  0
    2.5967    0.8696   -1.0738 H   0  0  0  0  0  0  0  0  0  0  0  0
    2.8533    0.0795    1.2041 H   0  0  0  0  0  0  0  0  0  0  0  0
    2.8533    1.6370    1.6951 H   0  0  0  0  0  0  0  0  0  0  0  0
    0.8150    1.0000    3.0525 H   0  0  0  0  0  0  0  0  0  0  0  0
   -1.4883    1.0000    1.2436 H   0  0  0  0  0  0  0  0  0  0  0  0
   -1.3283   -0.2411    3.8458 H   0  0  0  0  0  0  0  0  0  0  0  0
   -2.6617   -0.2411    2.9030 H   0  0  0  0  0  0  0  0  0  0  0  0
    0.6008   -1.6364    3.2954 H   0  0  0  0  0  0  0  0  0  0  0  0
    1.3957   -3.5903    2.1616 H   0  0  0  0  0  0  0  0  0  0  0  0
    0.0974   -4.5618    0.4045 H   0  0  0  0  0  0  0  0  0  0  0  0
   -1.9864   -3.5845   -0.2216 H   0  0  0  0  0  0  0  0  0  0  0  0
   -2.7916   -1.6296    0.9026 H   0  0  0  0  0  0  0  0  0  0  0  0
    4.7642    0.2924   -0.2744 H   0  0  0  0  0  0  0  0  0  0  0  0
    4.8684    1.5373   -1.3261 H   0  0  0  0  0  0  0  0  0  0  0  0
    4.9651    1.8151    0.2802 H   0  0  0  0  0  0  0  0  0  0  0  0
    3.1778    4.3115   -2.6080 H   0  0  0  0  0  0  0  0  0  0  0  0
    4.3051    3.1823   -2.2603 H   0  0  0  0  0  0  0  0  0  0  0  0
    2.8827    2.7375   -2.9278 H   0  0  0  0  0  0  0  0  0  0  0  0
  1  2  1  0  0  0  0
  2  3  1  0  0  0  0
  3  4  1  0  0  0  0
  4  5  2  0  0  0  0
  4  6  1  0  0  0  0
  6  7  1  0  0  0  0
  7  8  1  0  0  0  0
  8  9  1  0  0  0  0
  8 10  2  0  0  0  0
  7 11  1  0  0  0  0
 11 12  1  0  0  0  0
 12 13  1  0  0  0  0
 13 14  2  0  0  0  0
 14 15  1  0  0  0  0
 15 16  2  0  0  0  0
 16 17  1  0  0  0  0
 17 12  2  0  0  0  0
  2 18  1  0  0  0  0
  1 19  1  0  0  0  0
  2 20  1  0  0  0  0
  3 21  1  0  0  0  0
  3 22  1  0  0  0  0
  6 23  1  0  0  0  0
  7 24  1  0  0  0  0
 11 25  1  0  0  0  0
 11 26  1  0  0  0  0
 13 27  1  0  0  0  0
 14 28  1  0  0  0  0
 15 29  1  0  0  0  0
 16 30  1  0  0  0  0
 17 31  1  0  0  0  0
 18 32  1  0  0  0  0
 18 33  1  0  0  0  0
 18 34  1  0  0  0  0
 19 35  1  0  0  0  0
 19 36  1  0  0  0  0
 19 37  1  0  0  0  0
M  CHG  1   9  -1
M  END
>  <result-rank>
61

>  <similarity>
0.928

>  <query-name>
LIG_A_1101_CC(C)SC[R*]_1

>  <query-smiles>
S(C(C)C)CC(=O)[C@@H](NC(=O)C)Cc1ccc(O)cc1

>  <source>
REALspace_2019-12

>  <similarity-descriptor>
0.960;1.000;1.000;0.998;1.000;0.998;0.907;1.000;1.000;0.733;0.733;1.000;0.0;0.0

>  <similarity-descriptor-smiles>
c1ccccc1;SC;SC;C;C;C;C=O;NC;NC;C([O-])=O;C([O-])=O;C;;

>  <reaction-name>
s_188690b

>  <reagent1-name>
2735030

>  <reagent1-smiles>
[R1*]NC(C(=O)O)Cc1ccccc1

>  <reagent2-name>
10870446

>  <reagent2-smiles>
[R1*]C(=O)CC(SC)C

$$$$
s_1458____17513454____15113670
          04022015093D 1   1.00000     0.00000     0
            
 45 45  0  0  0  0            999 V2000
    0.9450    1.0000    3.1737 O   0  0  0  0  0  0  0  0  0  0  0  0
    0.3450    1.0000    2.1345 C   0  0  0  0  0  0  0  0  0  0  0  0
    1.0000    1.0000    1.0000 O   0  0  0  0  0  0  0  0  0  0  0  0
    2.4200    1.0000    1.0000 C   0  0  0  0  0  0  0  0  0  0  0  0
    2.9267   -0.4331    1.0000 C   0  0  0  0  0  0  0  0  0  0  0  0
    2.1469   -1.3452    1.0000 O   0  0  0  0  0  0  0  0  0  0  0  0
    4.2736   -0.6834    1.0000 N   0  0  0  0  0  0  0  0  0  0  0  0
    4.7636   -2.0693    1.0000 C   0  0  0  0  0  0  0  0  0  0  0  0
    4.9325   -2.5470   -0.4331 C   0  0  0  0  0  0  0  0  0  0  0  0
    5.2289    0.4339    1.0000 C   0  0  0  0  0  0  0  0  0  0  0  0
   -1.1750    1.0000    2.1345 C   0  0  3  0  0  0  0  0  0  0  0  0
   -1.6650    1.0000    3.5204 N   0  0  0  0  0  0  0  0  0  0  0  0
   -2.4526    2.0275    3.9685 C   0  0  0  0  0  0  0  0  0  0  0  0
   -2.7425    2.9275    3.2296 O   0  0  0  0  0  0  0  0  0  0  0  0
   -2.9593    2.0275    5.4016 C   0  0  0  0  0  0  0  0  0  0  0  0
   -1.6817   -0.2411    1.4180 C   0  0  0  0  0  0  0  0  0  0  0  0
   -3.2017   -0.2411    1.4180 C   0  0  0  0  0  0  0  0  0  0  0  0
   -3.8861    0.3644    0.3692 C   0  0  0  0  0  0  0  0  0  0  0  0
   -5.2769    0.3662    0.3646 C   0  0  0  0  0  0  0  0  0  0  0  0
   -5.9666   -0.2391    1.4104 C   0  0  0  0  0  0  0  0  0  0  0  0
   -7.3164   -0.2393    1.4101 O   0  0  0  0  0  0  0  0  0  0  0  0
   -5.2870   -0.8457    2.4618 C   0  0  0  0  0  0  0  0  0  0  0  0
   -3.8962   -0.8449    2.4611 C   0  0  0  0  0  0  0  0  0  0  0  0
    2.7533    1.4714    1.8165 H   0  0  0  0  0  0  0  0  0  0  0  0
    2.7533    1.4714    0.1835 H   0  0  0  0  0  0  0  0  0  0  0  0
    4.1049   -2.6558    1.4714 H   0  0  0  0  0  0  0  0  0  0  0  0
    5.6445   -2.1114    1.4714 H   0  0  0  0  0  0  0  0  0  0  0  0
    5.2658   -3.4898   -0.4331 H   0  0  0  0  0  0  0  0  0  0  0  0
    4.0516   -2.5049   -0.9045 H   0  0  0  0  0  0  0  0  0  0  0  0
    5.5912   -1.9606   -0.9045 H   0  0  0  0  0  0  0  0  0  0  0  0
    6.1621    0.0746    1.0000 H   0  0  0  0  0  0  0  0  0  0  0  0
    5.0872    0.9936    0.1835 H   0  0  0  0  0  0  0  0  0  0  0  0
    5.0872    0.9936    1.8165 H   0  0  0  0  0  0  0  0  0  0  0  0
   -1.5083    1.8165    1.6631 H   0  0  0  0  0  0  0  0  0  0  0  0
   -1.4234    0.2500    4.1362 H   0  0  0  0  0  0  0  0  0  0  0  0
   -2.6260    1.2110    5.8730 H   0  0  0  0  0  0  0  0  0  0  0  0
   -2.6260    2.8440    5.8730 H   0  0  0  0  0  0  0  0  0  0  0  0
   -3.9593    2.0275    5.4016 H   0  0  0  0  0  0  0  0  0  0  0  0
   -1.3483   -0.2411    0.4751 H   0  0  0  0  0  0  0  0  0  0  0  0
   -1.3483   -1.0576    1.8894 H   0  0  0  0  0  0  0  0  0  0  0  0
   -3.3806    0.7963   -0.3777 H   0  0  0  0  0  0  0  0  0  0  0  0
   -5.7776    0.7993   -0.3849 H   0  0  0  0  0  0  0  0  0  0  0  0
   -7.8165   -0.6731    2.1596 H   0  0  0  0  0  0  0  0  0  0  0  0
   -5.7924   -1.2771    3.2091 H   0  0  0  0  0  0  0  0  0  0  0  0
   -3.3955   -1.2783    3.2104 H   0  0  0  0  0  0  0  0  0  0  0  0
  1  2  2  0  0  0  0
  2  3  1  0  0  0  0
  3  4  1  0  0  0  0
  4  5  1  0  0  0  0
  5  6  2  0  0  0  0
  5  7  1  0  0  0  0
  7  8  1  0  0  0  0
  8  9  1  0  0  0  0
  7 10  1  0  0  0  0
  2 11  1  0  0  0  0
 11 12  1  0  0  0  0
 12 13  1  0  0  0  0
 13 14  2  0  0  0  0
 13 15  1  0  0  0  0
 11 16  1  0  0  0  0
 16 17  1  0  0  0  0
 17 18  1  0  0  0  0
 18 19  2  0  0  0  0
 19 20  1  0  0  0  0
 20 21  1  0  0  0  0
 20 22  2  0  0  0  0
 22 23  1  0  0  0  0
 23 17  2  0  0  0  0
  4 24  1  0  0  0  0
  4 25  1  0  0  0  0
  8 26  1  0  0  0  0
  8 27  1  0  0  0  0
  9 28  1  0  0  0  0
  9 29  1  0  0  0  0
  9 30  1  0  0  0  0
 10 31  1  0  0  0  0
 10 32  1  0  0  0  0
 10 33  1  0  0  0  0
 11 34  1  0  0  0  0
 12 35  1  0  0  0  0
 15 36  1  0  0  0  0
 15 37  1  0  0  0  0
 15 38  1  0  0  0  0
 16 39  1  0  0  0  0
 16 40  1  0  0  0  0
 18 41  1  0  0  0  0
 19 42  1  0  0  0  0
 21 43  1  0  0  0  0
 22 44  1  0  0  0  0
 23 45  1  0  0  0  0
M  END
>  <result-rank>
62

>  <similarity>
0.928

>  <query-name>
LIG_A_1101_CC(C)SC[R*]_1

>  <query-smiles>
S(C(C)C)CC(=O)[C@@H](NC(=O)C)Cc1ccc(O)cc1

>  <source>
REALspace_2019-12

>  <similarity-descriptor>
1.000;0.426;0.961;0.961;0.995;0.995;0.766;1.000;1.000;1.000;1.000;1.000;1.000;0.0

>  <similarity-descriptor-smiles>
c1ccccc1;C=O;NCC;NCC;C;C;O=CO;C;N;C=O;C;C;O;

>  <reaction-name>
s_1458

>  <reagent1-name>
17513454

>  <reagent1-smiles>
[R1*]OC(=O)C(NC(=O)C)Cc1ccc(O)cc1

>  <reagent2-name>
15113670

>  <reagent2-smiles>
[R1*]CC(=O)N(CC)C

$$$$
s_22____4822192____17513450
          04022015093D 1   1.00000     0.00000     0
            
 46 47  0  0  0  0            999 V2000
    0.4000    1.0000   -0.0392 O   0  0  0  0  0  0  0  0  0  0  0  0
    1.0000    1.0000    1.0000 C   0  0  0  0  0  0  0  0  0  0  0  0
    0.3150    1.0000    2.1865 N   0  0  0  0  0  0  0  0  0  0  0  0
   -1.1550    1.0000    2.1865 C   0  0  0  0  0  0  0  0  0  0  0  0
   -1.6621   -0.4126    1.9374 C   0  0  3  0  0  0  0  0  0  0  0  0
   -3.1583   -0.5277    1.9171 C   0  0  0  0  0  0  0  0  0  0  0  0
   -2.3895   -0.5093    0.6271 C   0  0  0  0  0  0  0  0  0  0  0  0
   -3.9665    0.7225    2.2209 C   0  0  0  0  0  0  0  0  0  0  0  0
   -3.7339   -1.8826    2.2960 C   0  0  0  0  0  0  0  0  0  0  0  0
    2.5200    1.0000    1.0000 C   0  0  3  0  0  0  0  0  0  0  0  0
    3.0100    1.0000   -0.3859 N   0  0  0  0  0  0  0  0  0  0  0  0
    3.7976    2.0275   -0.8340 C   0  0  0  0  0  0  0  0  0  0  0  0
    4.0875    2.9275   -0.0951 O   0  0  0  0  0  0  0  0  0  0  0  0
    4.3043    2.0275   -2.2671 C   0  0  0  0  0  0  0  0  0  0  0  0
    3.0267   -0.2411    1.7165 C   0  0  0  0  0  0  0  0  0  0  0  0
    4.5467   -0.2411    1.7165 C   0  0  0  0  0  0  0  0  0  0  0  0
    5.2311    0.3644    2.7653 C   0  0  0  0  0  0  0  0  0  0  0  0
    6.6219    0.3662    2.7699 C   0  0  0  0  0  0  0  0  0  0  0  0
    7.3116   -0.2391    1.7241 C   0  0  0  0  0  0  0  0  0  0  0  0
    8.6614   -0.2393    1.7244 O   0  0  0  0  0  0  0  0  0  0  0  0
    6.6320   -0.8457    0.6727 C   0  0  0  0  0  0  0  0  0  0  0  0
    5.2412   -0.8449    0.6734 C   0  0  0  0  0  0  0  0  0  0  0  0
    0.8150    1.0000    3.0525 H   0  0  0  0  0  0  0  0  0  0  0  0
   -1.4883    1.6060    1.4642 H   0  0  0  0  0  0  0  0  0  0  0  0
   -1.4883    1.3225    3.0724 H   0  0  0  0  0  0  0  0  0  0  0  0
   -1.1168   -1.1896    2.2517 H   0  0  0  0  0  0  0  0  0  0  0  0
   -2.4426    0.2870    0.0246 H   0  0  0  0  0  0  0  0  0  0  0  0
   -2.3180   -1.3404    0.0756 H   0  0  0  0  0  0  0  0  0  0  0  0
   -4.9421    0.5082    2.1742 H   0  0  0  0  0  0  0  0  0  0  0  0
   -3.7407    1.0507    3.1381 H   0  0  0  0  0  0  0  0  0  0  0  0
   -3.7485    1.4315    1.5502 H   0  0  0  0  0  0  0  0  0  0  0  0
   -4.7321   -1.8457    2.2489 H   0  0  0  0  0  0  0  0  0  0  0  0
   -3.3957   -2.5777    1.6616 H   0  0  0  0  0  0  0  0  0  0  0  0
   -3.4525   -2.1157    3.2269 H   0  0  0  0  0  0  0  0  0  0  0  0
    2.8533    1.8165    1.4714 H   0  0  0  0  0  0  0  0  0  0  0  0
    2.7684    0.2500   -1.0017 H   0  0  0  0  0  0  0  0  0  0  0  0
    3.9710    1.2110   -2.7385 H   0  0  0  0  0  0  0  0  0  0  0  0
    3.9710    2.8440   -2.7385 H   0  0  0  0  0  0  0  0  0  0  0  0
    5.3043    2.0275   -2.2671 H   0  0  0  0  0  0  0  0  0  0  0  0
    2.6933   -0.2411    2.6593 H   0  0  0  0  0  0  0  0  0  0  0  0
    2.6933   -1.0576    1.2451 H   0  0  0  0  0  0  0  0  0  0  0  0
    4.7256    0.7963    3.5122 H   0  0  0  0  0  0  0  0  0  0  0  0
    7.1226    0.7993    3.5194 H   0  0  0  0  0  0  0  0  0  0  0  0
    9.1615   -0.6731    0.9749 H   0  0  0  0  0  0  0  0  0  0  0  0
    7.1374   -1.2771   -0.0746 H   0  0  0  0  0  0  0  0  0  0  0  0
    4.7405   -1.2783   -0.0759 H   0  0  0  0  0  0  0  0  0  0  0  0
  1  2  2  0  0  0  0
  2  3  1  0  0  0  0
  3  4  1  0  0  0  0
  4  5  1  0  0  0  0
  5  6  1  0  0  0  0
  6  7  1  0  0  0  0
  7  5  1  0  0  0  0
  6  8  1  0  0  0  0
  6  9  1  0  0  0  0
  2 10  1  0  0  0  0
 10 11  1  0  0  0  0
 11 12  1  0  0  0  0
 12 13  2  0  0  0  0
 12 14  1  0  0  0  0
 10 15  1  0  0  0  0
 15 16  1  0  0  0  0
 16 17  1  0  0  0  0
 17 18  2  0  0  0  0
 18 19  1  0  0  0  0
 19 20  1  0  0  0  0
 19 21  2  0  0  0  0
 21 22  1  0  0  0  0
 22 16  2  0  0  0  0
  3 23  1  0  0  0  0
  4 24  1  0  0  0  0
  4 25  1  0  0  0  0
  5 26  1  0  0  0  0
  7 27  1  0  0  0  0
  7 28  1  0  0  0  0
  8 29  1  0  0  0  0
  8 30  1  0  0  0  0
  8 31  1  0  0  0  0
  9 32  1  0  0  0  0
  9 33  1  0  0  0  0
  9 34  1  0  0  0  0
 10 35  1  0  0  0  0
 11 36  1  0  0  0  0
 14 37  1  0  0  0  0
 14 38  1  0  0  0  0
 14 39  1  0  0  0  0
 15 40  1  0  0  0  0
 15 41  1  0  0  0  0
 17 42  1  0  0  0  0
 18 43  1  0  0  0  0
 20 44  1  0  0  0  0
 21 45  1  0  0  0  0
 22 46  1  0  0  0  0
M  END
>  <result-rank>
63

>  <similarity>
0.928

>  <query-name>
LIG_A_1101_CC(C)SC[R*]_1

>  <query-smiles>
S(C(C)C)CC(=O)[C@@H](NC(=O)C)Cc1ccc(O)cc1

>  <source>
REALspace_2019-12

>  <similarity-descriptor>
1.000;0.681;0.891;0.891;1.000;0.681;0.763;1.000;1.000;1.000;1.000;1.000;1.000;0.077

>  <similarity-descriptor-smiles>
c1ccccc1;C;C1CC1;C1CC1;C;C;O=CN;C;N;C=O;C;C;O;C

>  <reaction-name>
s_22

>  <reagent1-name>
4822192

>  <reagent1-smiles>
[R1*]NCC1C(C1)(C)C

>  <reagent2-name>
17513450

>  <reagent2-smiles>
[R1*]C(=O)C(NC(=O)C)Cc1ccc(O)cc1

$$$$
s_11a____13797774____12624296
          04022015093D 1   1.00000     0.00000     0
            
 39 39  0  0  0  0            999 V2000
   -1.5369    1.3427    6.0190 Br  0  0  0  0  0  0  0  0  0  0  0  0
   -0.6612    2.4687    4.6751 C   0  0  0  0  0  0  0  0  0  0  0  0
   -0.5300    2.0066    3.3702 C   0  0  0  0  0  0  0  0  0  0  0  0
    0.0948    2.8177    2.4279 C   0  0  0  0  0  0  0  0  0  0  0  0
    0.5841    4.0724    2.7748 C   0  0  0  0  0  0  0  0  0  0  0  0
    0.4430    4.5149    4.0860 C   0  0  0  0  0  0  0  0  0  0  0  0
   -0.1785    3.7200    5.0434 C   0  0  0  0  0  0  0  0  0  0  0  0
    0.2400    2.3164    1.0000 C   0  0  3  0  0  0  0  0  0  0  0  0
   -1.0928    2.1127    0.4143 N   0  0  0  0  0  0  0  0  0  0  0  0
   -1.4622    2.8089   -0.7063 C   0  0  0  0  0  0  0  0  0  0  0  0
   -0.6978    3.5849   -1.2097 O   0  0  0  0  0  0  0  0  0  0  0  0
   -2.8404    2.5982   -1.3120 C   0  0  0  0  0  0  0  0  0  0  0  0
    1.0000    1.0000    1.0000 C   0  0  0  0  0  0  0  0  0  0  0  0
    0.4000   -0.0392    1.0000 O   0  0  0  0  0  0  0  0  0  0  0  0
    2.3700    1.0000    1.0000 N   0  0  0  0  0  0  0  0  0  0  0  0
    3.1050   -0.2682    0.8890 C   0  0  3  0  0  0  0  0  0  0  0  0
    3.9789   -0.2403   -0.3543 C   0  0  0  0  0  0  0  0  0  0  0  0
    4.7389   -1.5516   -0.4691 C   0  0  0  0  0  0  0  0  0  0  0  0
    5.3089   -2.5351   -0.5551 N   0  0  0  0  0  0  0  0  0  0  0  0
    3.9789   -0.4566    2.1184 C   0  0  0  0  0  0  0  0  0  0  0  0
    3.1050    2.2682    1.1110 C   0  0  0  0  0  0  0  0  0  0  0  0
   -0.8792    1.1056    3.1130 H   0  0  0  0  0  0  0  0  0  0  0  0
    1.0314    4.6487    2.0909 H   0  0  0  0  0  0  0  0  0  0  0  0
    0.7926    5.4157    4.3435 H   0  0  0  0  0  0  0  0  0  0  0  0
   -0.2769    4.0440    5.9844 H   0  0  0  0  0  0  0  0  0  0  0  0
    0.7422    2.9912    0.4592 H   0  0  0  0  0  0  0  0  0  0  0  0
   -1.7298    1.4659    0.8338 H   0  0  0  0  0  0  0  0  0  0  0  0
   -3.3425    1.9234   -0.7712 H   0  0  0  0  0  0  0  0  0  0  0  0
   -3.3404    3.4643   -1.3120 H   0  0  0  0  0  0  0  0  0  0  0  0
   -2.7449    2.2685   -2.2512 H   0  0  0  0  0  0  0  0  0  0  0  0
    2.4552   -1.0254    0.8228 H   0  0  0  0  0  0  0  0  0  0  0  0
    3.4040   -0.1163   -1.1631 H   0  0  0  0  0  0  0  0  0  0  0  0
    4.6287    0.5169   -0.2881 H   0  0  0  0  0  0  0  0  0  0  0  0
    4.4789   -1.3193    2.0429 H   0  0  0  0  0  0  0  0  0  0  0  0
    4.6287    0.3006    2.1846 H   0  0  0  0  0  0  0  0  0  0  0  0
    3.4040   -0.4750    2.9364 H   0  0  0  0  0  0  0  0  0  0  0  0
    4.0882    2.0862    1.0950 H   0  0  0  0  0  0  0  0  0  0  0  0
    2.8634    2.8618    0.3433 H   0  0  0  0  0  0  0  0  0  0  0  0
    2.8634    2.7194    1.9700 H   0  0  0  0  0  0  0  0  0  0  0  0
  1  2  1  0  0  0  0
  2  3  1  0  0  0  0
  3  4  2  0  0  0  0
  4  5  1  0  0  0  0
  5  6  2  0  0  0  0
  6  7  1  0  0  0  0
  7  2  2  0  0  0  0
  4  8  1  0  0  0  0
  8  9  1  0  0  0  0
  9 10  1  0  0  0  0
 10 11  2  0  0  0  0
 10 12  1  0  0  0  0
  8 13  1  0  0  0  0
 13 14  2  0  0  0  0
 13 15  1  0  0  0  0
 15 16  1  0  0  0  0
 16 17  1  0  0  0  0
 17 18  1  0  0  0  0
 18 19  3  0  0  0  0
 16 20  1  0  0  0  0
 15 21  1  0  0  0  0
  3 22  1  0  0  0  0
  5 23  1  0  0  0  0
  6 24  1  0  0  0  0
  7 25  1  0  0  0  0
  8 26  1  0  0  0  0
  9 27  1  0  0  0  0
 12 28  1  0  0  0  0
 12 29  1  0  0  0  0
 12 30  1  0  0  0  0
 16 31  1  0  0  0  0
 17 32  1  0  0  0  0
 17 33  1  0  0  0  0
 20 34  1  0  0  0  0
 20 35  1  0  0  0  0
 20 36  1  0  0  0  0
 21 37  1  0  0  0  0
 21 38  1  0  0  0  0
 21 39  1  0  0  0  0
M  END
>  <result-rank>
64

>  <similarity>
0.927

>  <query-name>
LIG_A_1101_CC(C)SC[R*]_1

>  <query-smiles>
S(C(C)C)CC(=O)[C@@H](NC(=O)C)Cc1ccc(O)cc1

>  <source>
REALspace_2019-12

>  <similarity-descriptor>
0.969;0.746;0.998;0.998;0.948;0.746;0.907;1.000;1.000;1.000;1.000;0.969;0.0;0.083

>  <similarity-descriptor-smiles>
Brc1ccccc1;NC;CC;CC;C;NC;C=O;C;N;C=O;C;Brc1ccccc1;;C#N

>  <reaction-name>
s_11a

>  <reagent1-name>
13797774

>  <reagent1-smiles>
[R1*]N(C(CC#N)C)C

>  <reagent2-name>
12624296

>  <reagent2-smiles>
[R1*]C(=O)C(NC(=O)C)c1cc(Br)ccc1

$$$$
s_11a____5904666____548058
          04022015093D 1   1.00000     0.00000     0
            
 52 53  0  0  0  0            999 V2000
   -0.0617    2.8389    2.7065 S   0  0  0  0  0  0  0  0  0  0  0  0
   -0.9516    4.3803    2.3775 C   0  0  0  0  0  0  0  0  0  0  0  0
   -1.3309    5.0373    3.6947 C   0  0  0  0  0  0  0  0  0  0  0  0
   -0.0608    5.3195    1.5808 C   0  0  0  0  0  0  0  0  0  0  0  0
    0.2400    2.3164    1.0000 C   0  0  0  0  0  0  0  0  0  0  0  0
    1.0000    1.0000    1.0000 C   0  0  0  0  0  0  0  0  0  0  0  0
    0.4000   -0.0392    1.0000 O   0  0  0  0  0  0  0  0  0  0  0  0
    2.3700    1.0000    1.0000 N   0  0  0  0  0  0  0  0  0  0  0  0
    3.1050    2.2731    1.0000 C   0  0  3  0  0  0  0  0  0  0  0  0
    4.2359    2.2052    2.0133 C   0  0  0  0  0  0  0  0  0  0  0  0
    4.8494    1.1844    2.1603 O   0  0  0  0  0  0  0  0  0  0  0  0
    4.5548    3.3094    2.7589 N   0  0  0  0  0  0  0  0  0  0  0  0
    5.8721    3.5057    3.1912 C   0  0  0  0  0  0  0  0  0  0  0  0
    6.2790    2.9879    4.4167 C   0  0  0  0  0  0  0  0  0  0  0  0
    7.5885    3.1848    4.8427 C   0  0  0  0  0  0  0  0  0  0  0  0
    8.4798    3.8947    4.0454 C   0  0  0  0  0  0  0  0  0  0  0  0
    8.0621    4.4074    2.8218 C   0  0  0  0  0  0  0  0  0  0  0  0
    6.7551    4.2169    2.3855 C   0  0  0  0  0  0  0  0  0  0  0  0
    3.5142    4.2882    3.1049 C   0  0  0  0  0  0  0  0  0  0  0  0
    3.6795    2.5264   -0.3842 C   0  0  0  0  0  0  0  0  0  0  0  0
    2.6721    3.3031   -1.2167 C   0  0  0  0  0  0  0  0  0  0  0  0
    1.7361    2.6164   -1.9831 C   0  0  0  0  0  0  0  0  0  0  0  0
    0.8166    3.3310   -2.7440 C   0  0  0  0  0  0  0  0  0  0  0  0
    0.8367    4.7217   -2.7338 C   0  0  0  0  0  0  0  0  0  0  0  0
    1.7758    5.3970   -1.9641 C   0  0  0  0  0  0  0  0  0  0  0  0
    2.7010    4.6940   -1.1994 C   0  0  0  0  0  0  0  0  0  0  0  0
   -1.7798    4.1817    1.8534 H   0  0  0  0  0  0  0  0  0  0  0  0
   -1.8226    5.8889    3.5129 H   0  0  0  0  0  0  0  0  0  0  0  0
   -1.9170    4.4194    4.2188 H   0  0  0  0  0  0  0  0  0  0  0  0
   -0.5028    5.2359    4.2188 H   0  0  0  0  0  0  0  0  0  0  0  0
   -0.5525    6.1711    1.3991 H   0  0  0  0  0  0  0  0  0  0  0  0
    0.7674    5.5181    2.1050 H   0  0  0  0  0  0  0  0  0  0  0  0
    0.1888    4.8872    0.7143 H   0  0  0  0  0  0  0  0  0  0  0  0
    0.7804    3.0133    0.5286 H   0  0  0  0  0  0  0  0  0  0  0  0
   -0.6338    2.1968    0.5286 H   0  0  0  0  0  0  0  0  0  0  0  0
    2.8700    0.1340    1.0000 H   0  0  0  0  0  0  0  0  0  0  0  0
    2.4830    3.0171    1.2440 H   0  0  0  0  0  0  0  0  0  0  0  0
    5.6350    2.4781    4.9870 H   0  0  0  0  0  0  0  0  0  0  0  0
    7.8890    2.8157    5.7222 H   0  0  0  0  0  0  0  0  0  0  0  0
    9.4210    4.0367    4.3519 H   0  0  0  0  0  0  0  0  0  0  0  0
    8.7063    4.9167    2.2513 H   0  0  0  0  0  0  0  0  0  0  0  0
    6.4549    4.5858    1.5058 H   0  0  0  0  0  0  0  0  0  0  0  0
    2.6394    3.9952    2.7191 H   0  0  0  0  0  0  0  0  0  0  0  0
    3.4348    4.3528    4.0997 H   0  0  0  0  0  0  0  0  0  0  0  0
    3.7603    5.1826    2.7314 H   0  0  0  0  0  0  0  0  0  0  0  0
    4.5238    3.0562   -0.3029 H   0  0  0  0  0  0  0  0  0  0  0  0
    3.8760    1.6524   -0.8287 H   0  0  0  0  0  0  0  0  0  0  0  0
    1.7243    1.6165   -1.9870 H   0  0  0  0  0  0  0  0  0  0  0  0
    0.1411    2.8448   -3.2984 H   0  0  0  0  0  0  0  0  0  0  0  0
    0.1753    5.2354   -3.2803 H   0  0  0  0  0  0  0  0  0  0  0  0
    1.7868    6.3970   -1.9598 H   0  0  0  0  0  0  0  0  0  0  0  0
    3.3766    5.1808   -0.6457 H   0  0  0  0  0  0  0  0  0  0  0  0
  1  2  1  0  0  0  0
  2  3  1  0  0  0  0
  2  4  1  0  0  0  0
  1  5  1  0  0  0  0
  5  6  1  0  0  0  0
  6  7  2  0  0  0  0
  6  8  1  0  0  0  0
  8  9  1  0  0  0  0
  9 10  1  0  0  0  0
 10 11  2  0  0  0  0
 10 12  1  0  0  0  0
 12 13  1  0  0  0  0
 13 14  1  0  0  0  0
 14 15  2  0  0  0  0
 15 16  1  0  0  0  0
 16 17  2  0  0  0  0
 17 18  1  0  0  0  0
 18 13  2  0  0  0  0
 12 19  1  0  0  0  0
  9 20  1  0  0  0  0
 20 21  1  0  0  0  0
 21 22  1  0  0  0  0
 22 23  2  0  0  0  0
 23 24  1  0  0  0  0
 24 25  2  0  0  0  0
 25 26  1  0  0  0  0
 26 21  2  0  0  0  0
  2 27  1  0  0  0  0
  3 28  1  0  0  0  0
  3 29  1  0  0  0  0
  3 30  1  0  0  0  0
  4 31  1  0  0  0  0
  4 32  1  0  0  0  0
  4 33  1  0  0  0  0
  5 34  1  0  0  0  0
  5 35  1  0  0  0  0
  8 36  1  0  0  0  0
  9 37  1  0  0  0  0
 14 38  1  0  0  0  0
 15 39  1  0  0  0  0
 16 40  1  0  0  0  0
 17 41  1  0  0  0  0
 18 42  1  0  0  0  0
 19 43  1  0  0  0  0
 19 44  1  0  0  0  0
 19 45  1  0  0  0  0
 20 46  1  0  0  0  0
 20 47  1  0  0  0  0
 22 48  1  0  0  0  0
 23 49  1  0  0  0  0
 24 50  1  0  0  0  0
 25 51  1  0  0  0  0
 26 52  1  0  0  0  0
M  END
>  <result-rank>
65

>  <similarity>
0.927

>  <query-name>
LIG_A_1101_CC(C)SC[R*]_1

>  <query-smiles>
S(C(C)C)CC(=O)[C@@H](NC(=O)C)Cc1ccc(O)cc1

>  <source>
REALspace_2019-12

>  <similarity-descriptor>
0.960;1.000;1.000;1.000;1.000;1.000;0.907;1.000;1.000;1.000;0.977;1.000;0.0;0.071

>  <similarity-descriptor-smiles>
c1ccccc1;S;C;C;C;C;C=O;NC;NC;C=O;NC;C;;c1ccccc1

>  <reaction-name>
s_11a

>  <reagent1-name>
5904666

>  <reagent1-smiles>
[R1*]NC(C(=O)N(c1ccccc1)C)Cc2ccccc2

>  <reagent2-name>
548058

>  <reagent2-smiles>
[R1*]C(=O)CSC(C)C

$$$$
s_22____15151066____16726278
          04022015093D 1   1.00000     0.00000     0
            
 41 41  0  0  0  0            999 V2000
   -5.9108   -1.4239    0.8539 F   0  0  0  0  0  0  0  0  0  0  0  0
   -5.2462   -0.8490    1.8518 C   0  0  0  0  0  0  0  0  0  0  0  0
   -3.8557   -0.8493    1.8495 C   0  0  0  0  0  0  0  0  0  0  0  0
   -3.1811   -0.2411    2.9030 C   0  0  0  0  0  0  0  0  0  0  0  0
   -3.8740    0.3619    3.9479 C   0  0  0  0  0  0  0  0  0  0  0  0
   -5.2651    0.3566    3.9383 C   0  0  0  0  0  0  0  0  0  0  0  0
   -5.9513   -0.2497    2.8905 C   0  0  0  0  0  0  0  0  0  0  0  0
   -1.6617   -0.2411    2.9030 C   0  0  0  0  0  0  0  0  0  0  0  0
   -1.1550    1.0000    2.1865 C   0  0  3  0  0  0  0  0  0  0  0  0
    0.3150    1.0000    2.1865 N   0  0  0  0  0  0  0  0  0  0  0  0
    1.0000    1.0000    1.0000 C   0  0  0  0  0  0  0  0  0  0  0  0
    0.4000    1.0000   -0.0392 O   0  0  0  0  0  0  0  0  0  0  0  0
    2.5200    1.0000    1.0000 C   0  0  0  0  0  0  0  0  0  0  0  0
    3.0267    1.0000   -0.4331 C   0  0  0  0  0  0  0  0  0  0  0  0
    4.5467    1.0000   -0.4331 C   0  0  0  0  0  0  0  0  0  0  0  0
    5.1967    0.0250   -0.9960 C   0  0  0  0  0  0  0  0  0  0  0  0
    4.4367   -1.1150   -1.6542 C   0  0  0  0  0  0  0  0  0  0  0  0
   -1.6617    2.2411    2.9030 C   0  0  0  0  0  0  0  0  0  0  0  0
   -2.6122    2.8352    2.4746 O   0  0  0  0  0  0  0  0  0  0  0  0
   -1.0606    2.6621    3.9881 O   0  0  0  0  0  0  0  0  0  0  0  0
   -1.5340    3.8216    4.6575 C   0  0  0  0  0  0  0  0  0  0  0  0
   -3.3489   -1.2798    1.1026 H   0  0  0  0  0  0  0  0  0  0  0  0
   -3.3765    0.7954    4.6993 H   0  0  0  0  0  0  0  0  0  0  0  0
   -5.7719    0.7885    4.6843 H   0  0  0  0  0  0  0  0  0  0  0  0
   -6.9512   -0.2546    2.8842 H   0  0  0  0  0  0  0  0  0  0  0  0
   -1.3283   -1.0576    2.4316 H   0  0  0  0  0  0  0  0  0  0  0  0
   -1.3283   -0.2411    3.8458 H   0  0  0  0  0  0  0  0  0  0  0  0
   -1.4883    1.0000    1.2436 H   0  0  0  0  0  0  0  0  0  0  0  0
    0.8150    1.0000    3.0525 H   0  0  0  0  0  0  0  0  0  0  0  0
    2.8533    0.1835    1.4714 H   0  0  0  0  0  0  0  0  0  0  0  0
    2.8533    1.8165    1.4714 H   0  0  0  0  0  0  0  0  0  0  0  0
    2.6933    0.1835   -0.9045 H   0  0  0  0  0  0  0  0  0  0  0  0
    2.6933    1.8165   -0.9045 H   0  0  0  0  0  0  0  0  0  0  0  0
    5.0467    1.7500   -0.0001 H   0  0  0  0  0  0  0  0  0  0  0  0
    6.1967    0.0250   -0.9960 H   0  0  0  0  0  0  0  0  0  0  0  0
    5.0865   -1.7732   -2.0342 H   0  0  0  0  0  0  0  0  0  0  0  0
    3.8618   -1.5691   -0.9735 H   0  0  0  0  0  0  0  0  0  0  0  0
    3.8618   -0.7526   -2.3878 H   0  0  0  0  0  0  0  0  0  0  0  0
   -0.9641    3.9992    5.4599 H   0  0  0  0  0  0  0  0  0  0  0  0
   -1.4907    4.6052    4.0379 H   0  0  0  0  0  0  0  0  0  0  0  0
   -2.4804    3.6767    4.9463 H   0  0  0  0  0  0  0  0  0  0  0  0
  1  2  1  0  0  0  0
  2  3  1  0  0  0  0
  3  4  2  0  0  0  0
  4  5  1  0  0  0  0
  5  6  2  0  0  0  0
  6  7  1  0  0  0  0
  7  2  2  0  0  0  0
  4  8  1  0  0  0  0
  8  9  1  0  0  0  0
  9 10  1  0  0  0  0
 10 11  1  0  0  0  0
 11 12  2  0  0  0  0
 11 13  1  0  0  0  0
 13 14  1  0  0  0  0
 14 15  1  0  0  0  0
 15 16  2  0  0  0  0
 16 17  1  0  0  0  0
  9 18  1  0  0  0  0
 18 19  2  0  0  0  0
 18 20  1  0  0  0  0
 20 21  1  0  0  0  0
  3 22  1  0  0  0  0
  5 23  1  0  0  0  0
  6 24  1  0  0  0  0
  7 25  1  0  0  0  0
  8 26  1  0  0  0  0
  8 27  1  0  0  0  0
  9 28  1  0  0  0  0
 10 29  1  0  0  0  0
 13 30  1  0  0  0  0
 13 31  1  0  0  0  0
 14 32  1  0  0  0  0
 14 33  1  0  0  0  0
 15 34  1  0  0  0  0
 16 35  1  0  0  0  0
 17 36  1  0  0  0  0
 17 37  1  0  0  0  0
 17 38  1  0  0  0  0
 21 39  1  0  0  0  0
 21 40  1  0  0  0  0
 21 41  1  0  0  0  0
M  END
>  <result-rank>
66

>  <similarity>
0.927

>  <query-name>
LIG_A_1101_CC(C)SC[R*]_1

>  <query-smiles>
S(C(C)C)CC(=O)[C@@H](NC(=O)C)Cc1ccc(O)cc1

>  <source>
REALspace_2019-12

>  <similarity-descriptor>
0.983;0.977;0.977;0.0;0.704;0.998;0.907;1.000;1.000;0.855;0.994;1.000;0.0;0.0

>  <similarity-descriptor-smiles>
Fc1ccccc1;CC;CC;;CC;C;C=O;CN;CN;C(=O)O;C;C;;

>  <reaction-name>
s_22

>  <reagent1-name>
15151066

>  <reagent1-smiles>
[R1*]NC(C(=O)OC)Cc1cc(F)ccc1

>  <reagent2-name>
16726278

>  <reagent2-smiles>
[R1*]C(=O)CCC=CC

$$$$
s_11a____12914660____17512238
          04022015093D 1   1.00000     0.00000     0
            
 45 45  0  0  0  0            999 V2000
    0.4000   -0.0392    1.0000 O   0  0  0  0  0  0  0  0  0  0  0  0
    1.0000    1.0000    1.0000 C   0  0  0  0  0  0  0  0  0  0  0  0
    2.3700    1.0000    1.0000 N   0  0  0  0  0  0  0  0  0  0  0  0
    3.1050   -0.2682    0.8890 C   0  0  3  0  0  0  0  0  0  0  0  0
    3.9789   -0.2403   -0.3543 C   0  0  0  0  0  0  0  0  0  0  0  0
    4.6889   -1.4653   -0.4615 O   0  0  0  0  0  0  0  0  0  0  0  0
    5.5052   -1.4392   -1.6231 C   0  0  0  0  0  0  0  0  0  0  0  0
    3.9789   -0.4566    2.1184 C   0  0  0  0  0  0  0  0  0  0  0  0
    3.1050    2.2682    1.1110 C   0  0  0  0  0  0  0  0  0  0  0  0
    0.2400    2.3164    1.0000 C   0  0  3  0  0  0  0  0  0  0  0  0
   -0.9572    2.1909    0.1563 N   0  0  0  0  0  0  0  0  0  0  0  0
   -1.1172    3.0081   -0.9316 C   0  0  0  0  0  0  0  0  0  0  0  0
   -0.2800    3.8262   -1.1959 O   0  0  0  0  0  0  0  0  0  0  0  0
   -2.3551    2.8784   -1.8040 C   0  0  0  0  0  0  0  0  0  0  0  0
   -0.1753    2.6616    2.4208 C   0  0  0  0  0  0  0  0  0  0  0  0
   -0.5958    4.1212    2.4854 C   0  0  0  0  0  0  0  0  0  0  0  0
   -1.9241    4.4663    2.2589 C   0  0  0  0  0  0  0  0  0  0  0  0
   -2.3044    5.8031    2.3181 C   0  0  0  0  0  0  0  0  0  0  0  0
   -1.3595    6.7831    2.6034 C   0  0  0  0  0  0  0  0  0  0  0  0
   -0.0355    6.4266    2.8283 C   0  0  0  0  0  0  0  0  0  0  0  0
    0.3575    5.0934    2.7713 C   0  0  0  0  0  0  0  0  0  0  0  0
    2.4552   -1.0254    0.8228 H   0  0  0  0  0  0  0  0  0  0  0  0
    3.4040   -0.1163   -1.1631 H   0  0  0  0  0  0  0  0  0  0  0  0
    4.6287    0.5169   -0.2881 H   0  0  0  0  0  0  0  0  0  0  0  0
    6.0052   -2.3019   -1.6986 H   0  0  0  0  0  0  0  0  0  0  0  0
    4.9303   -1.3153   -2.4318 H   0  0  0  0  0  0  0  0  0  0  0  0
    6.1551   -0.6820   -1.5568 H   0  0  0  0  0  0  0  0  0  0  0  0
    4.4789   -1.3193    2.0429 H   0  0  0  0  0  0  0  0  0  0  0  0
    4.6287    0.3006    2.1846 H   0  0  0  0  0  0  0  0  0  0  0  0
    3.4040   -0.4750    2.9364 H   0  0  0  0  0  0  0  0  0  0  0  0
    4.0882    2.0862    1.0950 H   0  0  0  0  0  0  0  0  0  0  0  0
    2.8634    2.8618    0.3433 H   0  0  0  0  0  0  0  0  0  0  0  0
    2.8634    2.7194    1.9700 H   0  0  0  0  0  0  0  0  0  0  0  0
    0.8277    3.0406    0.6392 H   0  0  0  0  0  0  0  0  0  0  0  0
   -1.6549    1.5092    0.3765 H   0  0  0  0  0  0  0  0  0  0  0  0
   -2.9428    2.1542   -1.4432 H   0  0  0  0  0  0  0  0  0  0  0  0
   -2.8551    3.7444   -1.8040 H   0  0  0  0  0  0  0  0  0  0  0  0
   -2.0819    2.6512   -2.7388 H   0  0  0  0  0  0  0  0  0  0  0  0
   -0.9425    2.0813    2.6942 H   0  0  0  0  0  0  0  0  0  0  0  0
    0.5952    2.5090    3.0397 H   0  0  0  0  0  0  0  0  0  0  0  0
   -2.6007    3.7587    2.0551 H   0  0  0  0  0  0  0  0  0  0  0  0
   -3.2572    6.0595    2.1556 H   0  0  0  0  0  0  0  0  0  0  0  0
   -1.6329    7.7440    2.6465 H   0  0  0  0  0  0  0  0  0  0  0  0
    0.6406    7.1344    3.0329 H   0  0  0  0  0  0  0  0  0  0  0  0
    1.3106    4.8378    2.9334 H   0  0  0  0  0  0  0  0  0  0  0  0
  1  2  2  0  0  0  0
  2  3  1  0  0  0  0
  3  4  1  0  0  0  0
  4  5  1  0  0  0  0
  5  6  1  0  0  0  0
  6  7  1  0  0  0  0
  4  8  1  0  0  0  0
  3  9  1  0  0  0  0
  2 10  1  0  0  0  0
 10 11  1  0  0  0  0
 11 12  1  0  0  0  0
 12 13  2  0  0  0  0
 12 14  1  0  0  0  0
 10 15  1  0  0  0  0
 15 16  1  0  0  0  0
 16 17  1  0  0  0  0
 17 18  2  0  0  0  0
 18 19  1  0  0  0  0
 19 20  2  0  0  0  0
 20 21  1  0  0  0  0
 21 16  2  0  0  0  0
  4 22  1  0  0  0  0
  5 23  1  0  0  0  0
  5 24  1  0  0  0  0
  7 25  1  0  0  0  0
  7 26  1  0  0  0  0
  7 27  1  0  0  0  0
  8 28  1  0  0  0  0
  8 29  1  0  0  0  0
  8 30  1  0  0  0  0
  9 31  1  0  0  0  0
  9 32  1  0  0  0  0
  9 33  1  0  0  0  0
 10 34  1  0  0  0  0
 11 35  1  0  0  0  0
 14 36  1  0  0  0  0
 14 37  1  0  0  0  0
 14 38  1  0  0  0  0
 15 39  1  0  0  0  0
 15 40  1  0  0  0  0
 17 41  1  0  0  0  0
 18 42  1  0  0  0  0
 19 43  1  0  0  0  0
 20 44  1  0  0  0  0
 21 45  1  0  0  0  0
M  END
>  <result-rank>
67

>  <similarity>
0.926

>  <query-name>
LIG_A_1101_CC(C)SC[R*]_1

>  <query-smiles>
S(C(C)C)CC(=O)[C@@H](NC(=O)C)Cc1ccc(O)cc1

>  <source>
REALspace_2019-12

>  <similarity-descriptor>
0.960;0.746;0.998;0.956;0.998;0.746;0.907;1.000;1.000;1.000;1.000;1.000;0.0;0.143

>  <similarity-descriptor-smiles>
c1ccccc1;NC;CC;C;CC;NC;O=C;C;N;C=O;C;C;;O.C

>  <reaction-name>
s_11a

>  <reagent1-name>
12914660

>  <reagent1-smiles>
[R1*]N(C(COC)C)C

>  <reagent2-name>
17512238

>  <reagent2-smiles>
[R1*]C(=O)C(NC(=O)C)Cc1ccccc1

$$$$
s_22____8741158____10687876
          04022015093D 1   1.00000     0.00000     0
            
 44 45  0  0  0  0            999 V2000
    3.6124    1.9345    4.8634 S   0  0  0  0  0  0  0  0  0  0  0  0
    4.7778    3.0999    5.6248 C   0  0  0  0  0  0  0  0  0  0  0  0
    4.4933    4.5694    5.5145 C   0  0  0  0  0  0  0  0  0  0  0  0
    5.6251    3.9654    4.7375 C   0  0  0  0  0  0  0  0  0  0  0  0
    3.9607    2.2828    3.1218 C   0  0  0  0  0  0  0  0  0  0  0  0
    3.0831    1.4052    2.2442 C   0  0  0  0  0  0  0  0  0  0  0  0
    3.4716    0.3240    1.8978 O   0  0  0  0  0  0  0  0  0  0  0  0
    1.8487    1.8487    1.8487 N   0  0  0  0  0  0  0  0  0  0  0  0
    1.0000    1.0000    1.0000 C   0  0  3  0  0  0  0  0  0  0  0  0
    0.7075    1.7208   -0.3059 C   0  0  0  0  0  0  0  0  0  0  0  0
   -0.3868    1.6571   -0.7943 O   0  0  0  0  0  0  0  0  0  0  0  0
    1.6499    2.4116   -0.8981 O   0  0  0  0  0  0  0  0  0  0  0  0
    1.3766    3.0850   -2.1180 C   0  0  0  0  0  0  0  0  0  0  0  0
    0.8842    4.4920   -1.8208 C   0  0  0  0  0  0  0  0  0  0  0  0
   -0.3059    0.7075    1.7208 C   0  0  0  0  0  0  0  0  0  0  0  0
   -0.0134   -0.0131    3.0262 C   0  0  0  0  0  0  0  0  0  0  0  0
    0.1940    0.7312    4.1821 C   0  0  0  0  0  0  0  0  0  0  0  0
    0.4603    0.0621    5.3719 C   0  0  0  0  0  0  0  0  0  0  0  0
    0.6637    0.7694    6.5036 O   0  0  0  0  0  0  0  0  0  0  0  0
    0.5169   -1.3277    5.3998 C   0  0  0  0  0  0  0  0  0  0  0  0
    0.7761   -1.9599    6.5648 O   0  0  0  0  0  0  0  0  0  0  0  0
    0.3086   -2.0691    4.2404 C   0  0  0  0  0  0  0  0  0  0  0  0
    0.0418   -1.4021    3.0482 C   0  0  0  0  0  0  0  0  0  0  0  0
    5.2031    2.7991    6.4784 H   0  0  0  0  0  0  0  0  0  0  0  0
    4.6844    5.1749    6.2871 H   0  0  0  0  0  0  0  0  0  0  0  0
    3.6726    4.8853    5.0385 H   0  0  0  0  0  0  0  0  0  0  0  0
    5.5589    3.8784    3.7434 H   0  0  0  0  0  0  0  0  0  0  0  0
    6.5707    4.1681    4.9921 H   0  0  0  0  0  0  0  0  0  0  0  0
    4.9230    2.0904    2.9293 H   0  0  0  0  0  0  0  0  0  0  0  0
    3.7683    3.2451    2.9293 H   0  0  0  0  0  0  0  0  0  0  0  0
    1.5250    2.7498    2.1374 H   0  0  0  0  0  0  0  0  0  0  0  0
    1.4742    0.1409    0.8075 H   0  0  0  0  0  0  0  0  0  0  0  0
    0.6734    2.5857   -2.6241 H   0  0  0  0  0  0  0  0  0  0  0  0
    2.2114    3.1329   -2.6666 H   0  0  0  0  0  0  0  0  0  0  0  0
    0.6917    4.9662   -2.6799 H   0  0  0  0  0  0  0  0  0  0  0  0
    0.0494    4.4441   -1.2723 H   0  0  0  0  0  0  0  0  0  0  0  0
    1.5874    4.9913   -1.3147 H   0  0  0  0  0  0  0  0  0  0  0  0
   -0.7801    1.5666    1.9133 H   0  0  0  0  0  0  0  0  0  0  0  0
   -0.8832    0.1301    1.1435 H   0  0  0  0  0  0  0  0  0  0  0  0
    0.1525    1.7300    4.1584 H   0  0  0  0  0  0  0  0  0  0  0  0
    0.6229    1.7684    6.4830 H   0  0  0  0  0  0  0  0  0  0  0  0
    0.8185   -2.9586    6.5930 H   0  0  0  0  0  0  0  0  0  0  0  0
    0.3501   -3.0680    4.2637 H   0  0  0  0  0  0  0  0  0  0  0  0
   -0.1101   -1.9219    2.2075 H   0  0  0  0  0  0  0  0  0  0  0  0
  1  2  1  0  0  0  0
  2  3  1  0  0  0  0
  3  4  1  0  0  0  0
  4  2  1  0  0  0  0
  1  5  1  0  0  0  0
  5  6  1  0  0  0  0
  6  7  2  0  0  0  0
  6  8  1  0  0  0  0
  8  9  1  0  0  0  0
  9 10  1  0  0  0  0
 10 11  2  0  0  0  0
 10 12  1  0  0  0  0
 12 13  1  0  0  0  0
 13 14  1  0  0  0  0
  9 15  1  0  0  0  0
 15 16  1  0  0  0  0
 16 17  1  0  0  0  0
 17 18  2  0  0  0  0
 18 19  1  0  0  0  0
 18 20  1  0  0  0  0
 20 21  1  0  0  0  0
 20 22  2  0  0  0  0
 22 23  1  0  0  0  0
 23 16  2  0  0  0  0
  2 24  1  0  0  0  0
  3 25  1  0  0  0  0
  3 26  1  0  0  0  0
  4 27  1  0  0  0  0
  4 28  1  0  0  0  0
  5 29  1  0  0  0  0
  5 30  1  0  0  0  0
  8 31  1  0  0  0  0
  9 32  1  0  0  0  0
 13 33  1  0  0  0  0
 13 34  1  0  0  0  0
 14 35  1  0  0  0  0
 14 36  1  0  0  0  0
 14 37  1  0  0  0  0
 15 38  1  0  0  0  0
 15 39  1  0  0  0  0
 17 40  1  0  0  0  0
 19 41  1  0  0  0  0
 21 42  1  0  0  0  0
 22 43  1  0  0  0  0
 23 44  1  0  0  0  0
M  END
>  <result-rank>
68

>  <similarity>
0.926

>  <query-name>
LIG_A_1101_CC(C)SC[R*]_1

>  <query-smiles>
S(C(C)C)CC(=O)[C@@H](NC(=O)C)Cc1ccc(O)cc1

>  <source>
REALspace_2019-12

>  <similarity-descriptor>
0.957;1.000;0.873;0.873;0.873;1.000;0.907;1.000;1.000;0.855;0.957;1.000;1.000;0.143

>  <similarity-descriptor-smiles>
c1ccccc1;S;C1CC1;C1CC1;C1CC1;C;C=O;NC;NC;C(=O)O;C;C;O;C.O

>  <reaction-name>
s_22

>  <reagent1-name>
8741158

>  <reagent1-smiles>
[R1*]NC(C(=O)OCC)Cc1cc(O)c(O)cc1

>  <reagent2-name>
10687876

>  <reagent2-smiles>
[R1*]C(=O)CSC1CC1

$$$$
s_22____12890560____7841202
          04022015093D 1   1.00000     0.00000     0
            
 40 40  0  0  0  0            999 V2000
   -3.5217   -0.4331    2.1865 S   0  0  0  0  0  0  0  0  0  0  0  0
   -1.7117   -0.4331    2.1865 C   0  0  3  0  0  0  0  0  0  0  0  0
   -1.2050    1.0000    2.1865 C   0  0  0  0  0  0  0  0  0  0  0  0
    0.3150    1.0000    2.1865 C   0  0  0  0  0  0  0  0  0  0  0  0
    0.9150    1.0000    3.2257 O   0  0  0  0  0  0  0  0  0  0  0  0
    1.0000    1.0000    1.0000 N   0  0  0  0  0  0  0  0  0  0  0  0
    2.4700    1.0000    1.0000 C   0  0  0  0  0  0  0  0  0  0  0  0
    2.9767   -0.4331    1.0000 C   0  0  0  0  0  0  0  0  0  0  0  0
    4.4971   -0.4331    1.0000 C   0  0  0  0  0  0  0  0  0  0  0  0
    5.1806   -0.4331    2.2119 C   0  0  0  0  0  0  0  0  0  0  0  0
    6.5713   -0.4333    2.2059 C   0  0  0  0  0  0  0  0  0  0  0  0
    7.2684   -0.4342    1.0011 C   0  0  0  0  0  0  0  0  0  0  0  0
    8.6884   -0.4349    1.0024 O   0  0  0  0  0  0  0  0  0  0  0  0
    6.5757   -0.4354   -0.2059 C   0  0  0  0  0  0  0  0  0  0  0  0
    5.1843   -0.4342   -0.2096 C   0  0  0  0  0  0  0  0  0  0  0  0
    7.3300   -0.4332    3.5230 C   0  0  0  0  0  0  0  0  0  0  0  0
    7.5670    0.9056    3.9326 O   0  0  0  0  0  0  0  0  0  0  0  0
   -1.2050   -1.1496    0.9454 C   0  0  0  0  0  0  0  0  0  0  0  0
   -3.8048   -2.2208    2.1865 C   0  0  0  0  0  0  0  0  0  0  0  0
   -1.3783   -0.9045    3.0030 H   0  0  0  0  0  0  0  0  0  0  0  0
   -1.5383    1.4714    1.3700 H   0  0  0  0  0  0  0  0  0  0  0  0
   -1.5383    1.4714    3.0030 H   0  0  0  0  0  0  0  0  0  0  0  0
    0.5000    1.0000    0.1340 H   0  0  0  0  0  0  0  0  0  0  0  0
    2.8033    1.4714    1.8165 H   0  0  0  0  0  0  0  0  0  0  0  0
    2.8033    1.4714    0.1835 H   0  0  0  0  0  0  0  0  0  0  0  0
    2.6433   -0.9045    1.8165 H   0  0  0  0  0  0  0  0  0  0  0  0
    2.6433   -0.9045    0.1835 H   0  0  0  0  0  0  0  0  0  0  0  0
    4.6781   -0.4329    3.0764 H   0  0  0  0  0  0  0  0  0  0  0  0
    9.1892   -0.4355    0.1368 H   0  0  0  0  0  0  0  0  0  0  0  0
    7.0779   -0.4371   -1.0706 H   0  0  0  0  0  0  0  0  0  0  0  0
    4.6825   -0.4342   -1.0746 H   0  0  0  0  0  0  0  0  0  0  0  0
    6.7887   -0.9041    4.2196 H   0  0  0  0  0  0  0  0  0  0  0  0
    8.2037   -0.9051    3.4044 H   0  0  0  0  0  0  0  0  0  0  0  0
    8.0662    0.9057    4.7991 H   0  0  0  0  0  0  0  0  0  0  0  0
   -0.2050   -1.1496    0.9454 H   0  0  0  0  0  0  0  0  0  0  0  0
   -1.5383   -2.0924    0.9454 H   0  0  0  0  0  0  0  0  0  0  0  0
   -1.5383   -0.6782    0.1289 H   0  0  0  0  0  0  0  0  0  0  0  0
   -4.7882   -2.4025    2.1865 H   0  0  0  0  0  0  0  0  0  0  0  0
   -3.3914   -2.6238    1.3700 H   0  0  0  0  0  0  0  0  0  0  0  0
   -3.3914   -2.6238    3.0030 H   0  0  0  0  0  0  0  0  0  0  0  0
  1  2  1  0  0  0  0
  2  3  1  0  0  0  0
  3  4  1  0  0  0  0
  4  5  2  0  0  0  0
  4  6  1  0  0  0  0
  6  7  1  0  0  0  0
  7  8  1  0  0  0  0
  8  9  1  0  0  0  0
  9 10  1  0  0  0  0
 10 11  2  0  0  0  0
 11 12  1  0  0  0  0
 12 13  1  0  0  0  0
 12 14  2  0  0  0  0
 14 15  1  0  0  0  0
 15  9  2  0  0  0  0
 11 16  1  0  0  0  0
 16 17  1  0  0  0  0
  2 18  1  0  0  0  0
  1 19  1  0  0  0  0
  2 20  1  0  0  0  0
  3 21  1  0  0  0  0
  3 22  1  0  0  0  0
  6 23  1  0  0  0  0
  7 24  1  0  0  0  0
  7 25  1  0  0  0  0
  8 26  1  0  0  0  0
  8 27  1  0  0  0  0
 10 28  1  0  0  0  0
 13 29  1  0  0  0  0
 14 30  1  0  0  0  0
 15 31  1  0  0  0  0
 16 32  1  0  0  0  0
 16 33  1  0  0  0  0
 17 34  1  0  0  0  0
 18 35  1  0  0  0  0
 18 36  1  0  0  0  0
 18 37  1  0  0  0  0
 19 38  1  0  0  0  0
 19 39  1  0  0  0  0
 19 40  1  0  0  0  0
M  END
>  <result-rank>
69

>  <similarity>
0.926

>  <query-name>
LIG_A_1101_CC(C)SC[R*]_1

>  <query-smiles>
S(C(C)C)CC(=O)[C@@H](NC(=O)C)Cc1ccc(O)cc1

>  <source>
REALspace_2019-12

>  <similarity-descriptor>
0.954;1.000;1.000;0.998;1.000;0.998;0.907;0.952;0.952;0.0;0.0;1.000;1.000;0.154

>  <similarity-descriptor-smiles>
c1ccccc1;SC;SC;C;C;C;C=O;NC;NC;;;C;O;C.O

>  <reaction-name>
s_22

>  <reagent1-name>
12890560

>  <reagent1-smiles>
[R1*]NCCc1cc(c(O)cc1)CO

>  <reagent2-name>
7841202

>  <reagent2-smiles>
[R1*]C(=O)CC(SC)C

$$$$
s_22____12853234____60463
          04022015093D 1   1.00000     0.00000     0
            
 48 48  0  0  0  0            999 V2000
   -1.8083   -0.7065    2.1865 S   0  0  0  0  0  0  0  0  0  0  0  0
   -3.5882   -0.3775    2.1865 C   0  0  0  0  0  0  0  0  0  0  0  0
   -4.3469   -1.6947    2.1865 C   0  0  0  0  0  0  0  0  0  0  0  0
   -3.9562    0.4192    3.4275 C   0  0  0  0  0  0  0  0  0  0  0  0
   -3.9562    0.4192    0.9454 C   0  0  0  0  0  0  0  0  0  0  0  0
   -1.2050    1.0000    2.1865 C   0  0  0  0  0  0  0  0  0  0  0  0
    0.3150    1.0000    2.1865 C   0  0  0  0  0  0  0  0  0  0  0  0
    0.9150    1.0000    3.2257 O   0  0  0  0  0  0  0  0  0  0  0  0
    1.0000    1.0000    1.0000 N   0  0  0  0  0  0  0  0  0  0  0  0
    2.4700    1.0000    1.0000 C   0  0  3  0  0  0  0  0  0  0  0  0
    2.9767    2.2411    0.2835 C   0  0  0  0  0  0  0  0  0  0  0  0
    3.9272    2.8352    0.7118 O   0  0  0  0  0  0  0  0  0  0  0  0
    2.3756    2.6621   -0.8017 O   0  0  0  0  0  0  0  0  0  0  0  0
    2.8490    3.8216   -1.4711 C   0  0  0  0  0  0  0  0  0  0  0  0
    2.9767   -0.2411    0.2835 C   0  0  0  0  0  0  0  0  0  0  0  0
    4.4967   -0.2411    0.2835 C   0  0  0  0  0  0  0  0  0  0  0  0
    5.1811   -0.8466    1.3322 C   0  0  0  0  0  0  0  0  0  0  0  0
    6.5719   -0.8497    1.3361 C   0  0  0  0  0  0  0  0  0  0  0  0
    7.2616   -0.2466    0.2890 C   0  0  0  0  0  0  0  0  0  0  0  0
    8.6114   -0.2470    0.2889 O   0  0  0  0  0  0  0  0  0  0  0  0
    9.3213   -1.3126   -0.3250 C   0  0  0  0  0  0  0  0  0  0  0  0
    9.0000   -1.3747   -1.6142 F   0  0  0  0  0  0  0  0  0  0  0  0
   10.6289   -1.1023   -0.2037 F   0  0  0  0  0  0  0  0  0  0  0  0
    8.9997   -2.4590    0.2677 F   0  0  0  0  0  0  0  0  0  0  0  0
    6.5820    0.3606   -0.7621 C   0  0  0  0  0  0  0  0  0  0  0  0
    5.1912    0.3604   -0.7611 C   0  0  0  0  0  0  0  0  0  0  0  0
   -5.3302   -1.5129    2.1865 H   0  0  0  0  0  0  0  0  0  0  0  0
   -4.1048   -2.2188    1.3700 H   0  0  0  0  0  0  0  0  0  0  0  0
   -4.1048   -2.2188    3.0030 H   0  0  0  0  0  0  0  0  0  0  0  0
   -4.9395    0.6009    3.4275 H   0  0  0  0  0  0  0  0  0  0  0  0
   -3.7141   -0.1050    4.2440 H   0  0  0  0  0  0  0  0  0  0  0  0
   -3.4571    1.2857    3.4275 H   0  0  0  0  0  0  0  0  0  0  0  0
   -4.9395    0.6009    0.9454 H   0  0  0  0  0  0  0  0  0  0  0  0
   -3.4571    1.2857    0.9454 H   0  0  0  0  0  0  0  0  0  0  0  0
   -3.7141   -0.1050    0.1289 H   0  0  0  0  0  0  0  0  0  0  0  0
   -1.5383    1.4714    3.0030 H   0  0  0  0  0  0  0  0  0  0  0  0
   -1.5383    1.4714    1.3700 H   0  0  0  0  0  0  0  0  0  0  0  0
    0.5000    1.0000    0.1340 H   0  0  0  0  0  0  0  0  0  0  0  0
    2.8033    1.0000    1.9428 H   0  0  0  0  0  0  0  0  0  0  0  0
    2.2791    3.9992   -2.2734 H   0  0  0  0  0  0  0  0  0  0  0  0
    2.8057    4.6052   -0.8514 H   0  0  0  0  0  0  0  0  0  0  0  0
    3.7954    3.6767   -1.7598 H   0  0  0  0  0  0  0  0  0  0  0  0
    2.6433   -1.0576    0.7549 H   0  0  0  0  0  0  0  0  0  0  0  0
    2.6433   -0.2411   -0.6593 H   0  0  0  0  0  0  0  0  0  0  0  0
    4.6756   -1.2775    2.0797 H   0  0  0  0  0  0  0  0  0  0  0  0
    7.0726   -1.2822    2.0859 H   0  0  0  0  0  0  0  0  0  0  0  0
    7.0874    0.7921   -1.5094 H   0  0  0  0  0  0  0  0  0  0  0  0
    4.6905    0.7926   -1.5111 H   0  0  0  0  0  0  0  0  0  0  0  0
  1  2  1  0  0  0  0
  2  3  1  0  0  0  0
  2  4  1  0  0  0  0
  2  5  1  0  0  0  0
  1  6  1  0  0  0  0
  6  7  1  0  0  0  0
  7  8  2  0  0  0  0
  7  9  1  0  0  0  0
  9 10  1  0  0  0  0
 10 11  1  0  0  0  0
 11 12  2  0  0  0  0
 11 13  1  0  0  0  0
 13 14  1  0  0  0  0
 10 15  1  0  0  0  0
 15 16  1  0  0  0  0
 16 17  1  0  0  0  0
 17 18  2  0  0  0  0
 18 19  1  0  0  0  0
 19 20  1  0  0  0  0
 20 21  1  0  0  0  0
 21 22  1  0  0  0  0
 21 23  1  0  0  0  0
 21 24  1  0  0  0  0
 19 25  2  0  0  0  0
 25 26  1  0  0  0  0
 26 16  2  0  0  0  0
  3 27  1  0  0  0  0
  3 28  1  0  0  0  0
  3 29  1  0  0  0  0
  4 30  1  0  0  0  0
  4 31  1  0  0  0  0
  4 32  1  0  0  0  0
  5 33  1  0  0  0  0
  5 34  1  0  0  0  0
  5 35  1  0  0  0  0
  6 36  1  0  0  0  0
  6 37  1  0  0  0  0
  9 38  1  0  0  0  0
 10 39  1  0  0  0  0
 14 40  1  0  0  0  0
 14 41  1  0  0  0  0
 14 42  1  0  0  0  0
 15 43  1  0  0  0  0
 15 44  1  0  0  0  0
 17 45  1  0  0  0  0
 18 46  1  0  0  0  0
 25 47  1  0  0  0  0
 26 48  1  0  0  0  0
M  END
>  <result-rank>
70

>  <similarity>
0.926

>  <query-name>
LIG_A_1101_CC(C)SC[R*]_1

>  <query-smiles>
S(C(C)C)CC(=O)[C@@H](NC(=O)C)Cc1ccc(O)cc1

>  <source>
REALspace_2019-12

>  <similarity-descriptor>
1.000;1.000;0.939;0.939;1.000;1.000;0.907;1.000;1.000;0.855;0.994;1.000;0.704;0.063

>  <similarity-descriptor-smiles>
c1ccccc1;S;C(C)C;C(C)C;C;C;C=O;NC;NC;C(=O)O;C;C;O;C(F)(F)F

>  <reaction-name>
s_22

>  <reagent1-name>
12853234

>  <reagent1-smiles>
[R1*]NC(C(=O)OC)Cc1ccc(OC(F)(F)F)cc1

>  <reagent2-name>
60463

>  <reagent2-smiles>
[R1*]C(=O)CSC(C)(C)C

$$$$
s_2708____7689054____6465960
          04022015093D 1   1.00000     0.00000     0
            
 44 44  0  0  0  0            999 V2000
   -1.0583    3.2448    3.5082 S   0  0  0  0  0  0  0  0  0  0  0  0
   -1.6617    1.9376    2.4113 C   0  0  3  0  0  0  0  0  0  0  0  0
   -1.1550    2.1865    1.0000 C   0  0  0  0  0  0  0  0  0  0  0  0
    0.3150    2.1865    1.0000 N   0  0  0  0  0  0  0  0  0  0  0  0
    1.0000    1.0000    1.0000 C   0  0  0  0  0  0  0  0  0  0  0  0
    0.4000   -0.0392    1.0000 O   0  0  0  0  0  0  0  0  0  0  0  0
    2.3700    1.0000    1.0000 N   0  0  0  0  0  0  0  0  0  0  0  0
    3.1050   -0.2731    1.0000 C   0  0  3  0  0  0  0  0  0  0  0  0
    4.2359   -0.2052   -0.0133 C   0  0  0  0  0  0  0  0  0  0  0  0
    3.7113    0.1457   -1.2853 O   0  0  0  0  0  0  0  0  0  0  0  0
    3.3593   -1.0335   -1.9939 C   0  0  0  0  0  0  0  0  0  0  0  0
    3.6795   -0.5264    2.3842 C   0  0  0  0  0  0  0  0  0  0  0  0
    4.5913   -1.7421    2.3398 C   0  0  0  0  0  0  0  0  0  0  0  0
    5.9600   -1.5843    2.5315 C   0  0  0  0  0  0  0  0  0  0  0  0
    6.7908   -2.6992    2.4892 C   0  0  0  0  0  0  0  0  0  0  0  0
    6.2514   -3.9602    2.2578 C   0  0  0  0  0  0  0  0  0  0  0  0
    4.8827   -4.1059    2.0682 C   0  0  0  0  0  0  0  0  0  0  0  0
    4.0414   -2.9988    2.1075 C   0  0  0  0  0  0  0  0  0  0  0  0
   -3.1817    1.9376    2.4113 C   0  0  0  0  0  0  0  0  0  0  0  0
   -1.8067    2.6824    5.0573 C   0  0  0  0  0  0  0  0  0  0  0  0
   -1.3283    1.0517    2.7338 H   0  0  0  0  0  0  0  0  0  0  0  0
   -1.4883    1.4642    0.3940 H   0  0  0  0  0  0  0  0  0  0  0  0
   -1.4883    3.0724    0.6775 H   0  0  0  0  0  0  0  0  0  0  0  0
    0.8150    3.0525    1.0000 H   0  0  0  0  0  0  0  0  0  0  0  0
    2.8700    1.8660    1.0000 H   0  0  0  0  0  0  0  0  0  0  0  0
    2.4830   -1.0171    0.7560 H   0  0  0  0  0  0  0  0  0  0  0  0
    4.9007    0.4841    0.2747 H   0  0  0  0  0  0  0  0  0  0  0  0
    4.6846   -1.0969   -0.0723 H   0  0  0  0  0  0  0  0  0  0  0  0
    2.9898   -0.7864   -2.8896 H   0  0  0  0  0  0  0  0  0  0  0  0
    4.1710   -1.6049   -2.1142 H   0  0  0  0  0  0  0  0  0  0  0  0
    2.6691   -1.5396   -1.4767 H   0  0  0  0  0  0  0  0  0  0  0  0
    4.2036    0.2727    2.6790 H   0  0  0  0  0  0  0  0  0  0  0  0
    2.9338   -0.6925    3.0294 H   0  0  0  0  0  0  0  0  0  0  0  0
    6.3438   -0.6761    2.6985 H   0  0  0  0  0  0  0  0  0  0  0  0
    7.7760   -2.5941    2.6251 H   0  0  0  0  0  0  0  0  0  0  0  0
    6.8485   -4.7618    2.2280 H   0  0  0  0  0  0  0  0  0  0  0  0
    4.4992   -5.0144    1.9020 H   0  0  0  0  0  0  0  0  0  0  0  0
    3.0565   -3.1046    1.9709 H   0  0  0  0  0  0  0  0  0  0  0  0
   -3.5150    1.2154    1.8053 H   0  0  0  0  0  0  0  0  0  0  0  0
   -3.5150    1.7739    3.3398 H   0  0  0  0  0  0  0  0  0  0  0  0
   -3.5150    2.8236    2.0888 H   0  0  0  0  0  0  0  0  0  0  0  0
   -1.5646    3.3147    5.7933 H   0  0  0  0  0  0  0  0  0  0  0  0
   -2.8011    2.6539    4.9560 H   0  0  0  0  0  0  0  0  0  0  0  0
   -1.4678    1.7680    5.2785 H   0  0  0  0  0  0  0  0  0  0  0  0
  1  2  1  0  0  0  0
  2  3  1  0  0  0  0
  3  4  1  0  0  0  0
  4  5  1  0  0  0  0
  5  6  2  0  0  0  0
  5  7  1  0  0  0  0
  7  8  1  0  0  0  0
  8  9  1  0  0  0  0
  9 10  1  0  0  0  0
 10 11  1  0  0  0  0
  8 12  1  0  0  0  0
 12 13  1  0  0  0  0
 13 14  1  0  0  0  0
 14 15  2  0  0  0  0
 15 16  1  0  0  0  0
 16 17  2  0  0  0  0
 17 18  1  0  0  0  0
 18 13  2  0  0  0  0
  2 19  1  0  0  0  0
  1 20  1  0  0  0  0
  2 21  1  0  0  0  0
  3 22  1  0  0  0  0
  3 23  1  0  0  0  0
  4 24  1  0  0  0  0
  7 25  1  0  0  0  0
  8 26  1  0  0  0  0
  9 27  1  0  0  0  0
  9 28  1  0  0  0  0
 11 29  1  0  0  0  0
 11 30  1  0  0  0  0
 11 31  1  0  0  0  0
 12 32  1  0  0  0  0
 12 33  1  0  0  0  0
 14 34  1  0  0  0  0
 15 35  1  0  0  0  0
 16 36  1  0  0  0  0
 17 37  1  0  0  0  0
 18 38  1  0  0  0  0
 19 39  1  0  0  0  0
 19 40  1  0  0  0  0
 19 41  1  0  0  0  0
 20 42  1  0  0  0  0
 20 43  1  0  0  0  0
 20 44  1  0  0  0  0
M  END
>  <result-rank>
71

>  <similarity>
0.925

>  <query-name>
LIG_A_1101_CC(C)SC[R*]_1

>  <query-smiles>
S(C(C)C)CC(=O)[C@@H](NC(=O)C)Cc1ccc(O)cc1

>  <source>
REALspace_2019-12

>  <similarity-descriptor>
0.960;1.000;1.000;0.998;1.000;0.995;0.759;0.999;0.999;0.770;0.994;1.000;0.0;0.0

>  <similarity-descriptor-smiles>
c1ccccc1;SC;SC;C;C;C;NC=O;NC;NC;CO;C;C;;

>  <reaction-name>
s_2708

>  <reagent1-name>
7689054

>  <reagent1-smiles>
[R1*]C(=O)NCC(SC)C

>  <reagent2-name>
6465960

>  <reagent2-smiles>
[R1*]NC(COC)Cc1ccccc1

$$$$
s_1458____17057112____8265150
          04022015093D 1   1.00000     0.00000     0
            
 51 51  0  0  0  0            999 V2000
    0.4000    1.0000   -0.0392 O   0  0  0  0  0  0  0  0  0  0  0  0
    1.0000    1.0000    1.0000 C   0  0  0  0  0  0  0  0  0  0  0  0
    0.3450    1.0000    2.1345 O   0  0  0  0  0  0  0  0  0  0  0  0
   -1.0750    1.0000    2.1345 C   0  0  0  0  0  0  0  0  0  0  0  0
   -1.5817   -0.4331    2.1345 C   0  0  0  0  0  0  0  0  0  0  0  0
   -2.3291   -0.8583    1.1595 C   0  0  0  0  0  0  0  0  0  0  0  0
   -1.2145   -1.3690    3.2745 C   0  0  0  0  0  0  0  0  0  0  0  0
   -1.7297   -0.7974    4.5853 C   0  0  0  0  0  0  0  0  0  0  0  0
    2.5200    1.0000    1.0000 C   0  0  3  0  0  0  0  0  0  0  0  0
    3.0100    1.0000   -0.3859 N   0  0  0  0  0  0  0  0  0  0  0  0
    3.7976   -0.0275   -0.8340 C   0  0  0  0  0  0  0  0  0  0  0  0
    4.0138   -0.9711   -0.1248 O   0  0  0  0  0  0  0  0  0  0  0  0
    4.3977    0.0277   -2.2295 C   0  0  0  0  0  0  0  0  0  0  0  0
    4.8450   -1.3646   -2.6441 C   0  0  0  0  0  0  0  0  0  0  0  0
    3.6531   -2.1413   -3.1792 C   0  0  0  0  0  0  0  0  0  0  0  0
    5.9057   -1.2544   -3.7273 C   0  0  0  0  0  0  0  0  0  0  0  0
    3.0267    2.2411    1.7165 C   0  0  0  0  0  0  0  0  0  0  0  0
    4.5467    2.2411    1.7165 C   0  0  0  0  0  0  0  0  0  0  0  0
    5.2311    1.6356    2.7653 C   0  0  0  0  0  0  0  0  0  0  0  0
    6.6219    1.6325    2.7691 C   0  0  0  0  0  0  0  0  0  0  0  0
    7.3116    2.2356    1.7220 C   0  0  0  0  0  0  0  0  0  0  0  0
    8.6614    2.2352    1.7220 O   0  0  0  0  0  0  0  0  0  0  0  0
    6.6320    2.8428    0.6710 C   0  0  0  0  0  0  0  0  0  0  0  0
    5.2412    2.8426    0.6720 C   0  0  0  0  0  0  0  0  0  0  0  0
   -1.4083    1.4714    1.3180 H   0  0  0  0  0  0  0  0  0  0  0  0
   -1.4083    1.4714    2.9510 H   0  0  0  0  0  0  0  0  0  0  0  0
   -2.6624   -1.8011    1.1595 H   0  0  0  0  0  0  0  0  0  0  0  0
   -2.5706   -0.2425    0.4095 H   0  0  0  0  0  0  0  0  0  0  0  0
   -0.2201   -1.4643    3.3204 H   0  0  0  0  0  0  0  0  0  0  0  0
   -1.6283   -2.2655    3.1162 H   0  0  0  0  0  0  0  0  0  0  0  0
   -1.4881   -1.4131    5.3353 H   0  0  0  0  0  0  0  0  0  0  0  0
   -1.3158    0.0991    4.7435 H   0  0  0  0  0  0  0  0  0  0  0  0
   -2.7240   -0.7020    4.5394 H   0  0  0  0  0  0  0  0  0  0  0  0
    2.8533    0.1835    1.4714 H   0  0  0  0  0  0  0  0  0  0  0  0
    2.7684    1.7500   -1.0017 H   0  0  0  0  0  0  0  0  0  0  0  0
    5.1848    0.6445   -2.2297 H   0  0  0  0  0  0  0  0  0  0  0  0
    3.7111    0.3631   -2.8745 H   0  0  0  0  0  0  0  0  0  0  0  0
    5.2257   -1.8420   -1.8521 H   0  0  0  0  0  0  0  0  0  0  0  0
    3.9473   -3.0573   -3.4520 H   0  0  0  0  0  0  0  0  0  0  0  0
    2.9553   -2.2138   -2.4666 H   0  0  0  0  0  0  0  0  0  0  0  0
    3.2724   -1.6638   -3.9711 H   0  0  0  0  0  0  0  0  0  0  0  0
    6.1999   -2.1704   -4.0000 H   0  0  0  0  0  0  0  0  0  0  0  0
    5.5250   -0.7770   -4.5192 H   0  0  0  0  0  0  0  0  0  0  0  0
    6.6898   -0.7434   -3.3752 H   0  0  0  0  0  0  0  0  0  0  0  0
    2.6933    3.0576    1.2451 H   0  0  0  0  0  0  0  0  0  0  0  0
    2.6933    2.2411    2.6593 H   0  0  0  0  0  0  0  0  0  0  0  0
    4.7256    1.2046    3.5128 H   0  0  0  0  0  0  0  0  0  0  0  0
    7.1226    1.1999    3.5190 H   0  0  0  0  0  0  0  0  0  0  0  0
    9.1615    2.6674    0.9716 H   0  0  0  0  0  0  0  0  0  0  0  0
    7.1374    3.2742   -0.0763 H   0  0  0  0  0  0  0  0  0  0  0  0
    4.7405    3.2748   -0.0780 H   0  0  0  0  0  0  0  0  0  0  0  0
  1  2  2  0  0  0  0
  2  3  1  0  0  0  0
  3  4  1  0  0  0  0
  4  5  1  0  0  0  0
  5  6  2  0  0  0  0
  5  7  1  0  0  0  0
  7  8  1  0  0  0  0
  2  9  1  0  0  0  0
  9 10  1  0  0  0  0
 10 11  1  0  0  0  0
 11 12  2  0  0  0  0
 11 13  1  0  0  0  0
 13 14  1  0  0  0  0
 14 15  1  0  0  0  0
 14 16  1  0  0  0  0
  9 17  1  0  0  0  0
 17 18  1  0  0  0  0
 18 19  1  0  0  0  0
 19 20  2  0  0  0  0
 20 21  1  0  0  0  0
 21 22  1  0  0  0  0
 21 23  2  0  0  0  0
 23 24  1  0  0  0  0
 24 18  2  0  0  0  0
  4 25  1  0  0  0  0
  4 26  1  0  0  0  0
  6 27  1  0  0  0  0
  6 28  1  0  0  0  0
  7 29  1  0  0  0  0
  7 30  1  0  0  0  0
  8 31  1  0  0  0  0
  8 32  1  0  0  0  0
  8 33  1  0  0  0  0
  9 34  1  0  0  0  0
 10 35  1  0  0  0  0
 13 36  1  0  0  0  0
 13 37  1  0  0  0  0
 14 38  1  0  0  0  0
 15 39  1  0  0  0  0
 15 40  1  0  0  0  0
 15 41  1  0  0  0  0
 16 42  1  0  0  0  0
 16 43  1  0  0  0  0
 16 44  1  0  0  0  0
 17 45  1  0  0  0  0
 17 46  1  0  0  0  0
 19 47  1  0  0  0  0
 20 48  1  0  0  0  0
 22 49  1  0  0  0  0
 23 50  1  0  0  0  0
 24 51  1  0  0  0  0
M  END
>  <result-rank>
72

>  <similarity>
0.925

>  <query-name>
LIG_A_1101_CC(C)SC[R*]_1

>  <query-smiles>
S(C(C)C)CC(=O)[C@@H](NC(=O)C)Cc1ccc(O)cc1

>  <source>
REALspace_2019-12

>  <similarity-descriptor>
1.000;0.960;0.975;0.975;0.0;0.960;0.766;1.000;1.000;1.000;0.949;1.000;1.000;0.235

>  <similarity-descriptor-smiles>
c1ccccc1;CC;CC;CC;;CC;O=CO;C;N;C=O;C;C;O;C.C.C.C

>  <reaction-name>
s_1458

>  <reagent1-name>
17057112

>  <reagent1-smiles>
[R1*]OC(=O)C(NC(=O)CC(C)C)Cc1ccc(O)cc1

>  <reagent2-name>
8265150

>  <reagent2-smiles>
[R1*]CC(=C)CC

$$$$
s_22____9982722____17513450
          04022015093D 1   1.00000     0.00000     0
            
 41 43  0  0  0  0            999 V2000
    0.4711    2.1500   -0.9930 O   0  0  0  0  0  0  0  0  0  0  0  0
    0.1224    1.8776    0.1224 C   0  0  0  0  0  0  0  0  0  0  0  0
   -1.0918    2.3677    0.6152 N   0  0  0  0  0  0  0  0  0  0  0  0
   -1.7861    3.4837    0.1611 C   0  0  0  0  0  0  0  0  0  0  0  0
   -2.6258    3.8995    1.1162 N   0  0  0  0  0  0  0  0  0  0  0  0
   -3.3123    4.9284    0.6873 N   0  0  0  0  0  0  0  0  0  0  0  0
   -2.9373    5.2447   -0.5317 C   0  0  0  0  0  0  0  0  0  0  0  0
   -1.9423    4.3171   -0.9028 C   0  0  0  0  0  0  0  0  0  0  0  0
   -2.4615    3.0618    2.3048 C   0  0  0  0  0  0  0  0  0  0  0  0
   -1.8514    1.8046    1.7291 C   0  0  0  0  0  0  0  0  0  0  0  0
    1.0000    1.0000    1.0000 C   0  0  3  0  0  0  0  0  0  0  0  0
    1.8487    0.1513    0.1513 N   0  0  0  0  0  0  0  0  0  0  0  0
    1.7598   -1.2129    0.2402 C   0  0  0  0  0  0  0  0  0  0  0  0
    0.9891   -1.7150    1.0109 O   0  0  0  0  0  0  0  0  0  0  0  0
    2.6374   -2.0905   -0.6374 C   0  0  0  0  0  0  0  0  0  0  0  0
    1.8776    1.8776    1.8776 C   0  0  0  0  0  0  0  0  0  0  0  0
    2.8824    1.0100    2.6179 C   0  0  0  0  0  0  0  0  0  0  0  0
    2.5504    0.4903    3.8647 C   0  0  0  0  0  0  0  0  0  0  0  0
    3.4664   -0.3047    4.5455 C   0  0  0  0  0  0  0  0  0  0  0  0
    4.7046   -0.5705    3.9693 C   0  0  0  0  0  0  0  0  0  0  0  0
    5.5967   -1.3413    4.6266 O   0  0  0  0  0  0  0  0  0  0  0  0
    5.0418   -0.0530    2.7228 C   0  0  0  0  0  0  0  0  0  0  0  0
    4.1218    0.7410    2.0463 C   0  0  0  0  0  0  0  0  0  0  0  0
   -3.2893    5.9973   -1.0883 H   0  0  0  0  0  0  0  0  0  0  0  0
   -1.4505    4.2794   -1.7728 H   0  0  0  0  0  0  0  0  0  0  0  0
   -3.3422    2.8714    2.7385 H   0  0  0  0  0  0  0  0  0  0  0  0
   -1.8489    3.4908    2.9686 H   0  0  0  0  0  0  0  0  0  0  0  0
   -1.2556    1.3470    2.3890 H   0  0  0  0  0  0  0  0  0  0  0  0
   -2.5520    1.1649    1.4129 H   0  0  0  0  0  0  0  0  0  0  0  0
    0.4226    0.4226    1.5774 H   0  0  0  0  0  0  0  0  0  0  0  0
    2.4909    0.5697   -0.4909 H   0  0  0  0  0  0  0  0  0  0  0  0
    3.2147   -1.5131   -1.2147 H   0  0  0  0  0  0  0  0  0  0  0  0
    3.2147   -2.6678   -0.0600 H   0  0  0  0  0  0  0  0  0  0  0  0
    2.0600   -2.6678   -1.2147 H   0  0  0  0  0  0  0  0  0  0  0  0
    2.3646    2.5386    1.3068 H   0  0  0  0  0  0  0  0  0  0  0  0
    1.3068    2.3646    2.5386 H   0  0  0  0  0  0  0  0  0  0  0  0
    1.6575    0.6873    4.2696 H   0  0  0  0  0  0  0  0  0  0  0  0
    3.2367   -0.6824    5.4424 H   0  0  0  0  0  0  0  0  0  0  0  0
    6.4879   -1.5352    4.2166 H   0  0  0  0  0  0  0  0  0  0  0  0
    5.9348   -0.2495    2.3180 H   0  0  0  0  0  0  0  0  0  0  0  0
    4.3513    1.1184    1.1492 H   0  0  0  0  0  0  0  0  0  0  0  0
  1  2  2  0  0  0  0
  2  3  1  0  0  0  0
  3  4  1  0  0  0  0
  4  5  1  0  0  0  0
  5  6  1  0  0  0  0
  6  7  2  0  0  0  0
  7  8  1  0  0  0  0
  4  8  2  0  0  0  0
  5  9  1  0  0  0  0
  9 10  1  0  0  0  0
 10  3  1  0  0  0  0
  2 11  1  0  0  0  0
 11 12  1  0  0  0  0
 12 13  1  0  0  0  0
 13 14  2  0  0  0  0
 13 15  1  0  0  0  0
 11 16  1  0  0  0  0
 16 17  1  0  0  0  0
 17 18  1  0  0  0  0
 18 19  2  0  0  0  0
 19 20  1  0  0  0  0
 20 21  1  0  0  0  0
 20 22  2  0  0  0  0
 22 23  1  0  0  0  0
 23 17  2  0  0  0  0
  7 24  1  0  0  0  0
  8 25  1  0  0  0  0
  9 26  1  0  0  0  0
  9 27  1  0  0  0  0
 10 28  1  0  0  0  0
 10 29  1  0  0  0  0
 11 30  1  0  0  0  0
 12 31  1  0  0  0  0
 15 32  1  0  0  0  0
 15 33  1  0  0  0  0
 15 34  1  0  0  0  0
 16 35  1  0  0  0  0
 16 36  1  0  0  0  0
 18 37  1  0  0  0  0
 19 38  1  0  0  0  0
 21 39  1  0  0  0  0
 22 40  1  0  0  0  0
 23 41  1  0  0  0  0
M  END
>  <result-rank>
73

>  <similarity>
0.925

>  <query-name>
LIG_A_1101_CC(C)SC[R*]_1

>  <query-smiles>
S(C(C)C)CC(=O)[C@@H](NC(=O)C)Cc1ccc(O)cc1

>  <source>
REALspace_2019-12

>  <similarity-descriptor>
1.000;0.895;0.895;0.0;0.0;0.895;0.907;1.000;1.000;1.000;1.000;1.000;1.000;0.100

>  <similarity-descriptor-smiles>
c1ccccc1;N1CCNC1;N1CCNC1;;;N1CCNC1;O=C;C;N;C=O;C;C;O;C1=CC=NN1

>  <reaction-name>
s_22

>  <reagent1-name>
9982722

>  <reagent1-smiles>
[R1*]N1C=2N(N=CC2)CC1

>  <reagent2-name>
17513450

>  <reagent2-smiles>
[R1*]C(=O)C(NC(=O)C)Cc1ccc(O)cc1

$$$$
s_22____9283054____1055140
          04022015093D 1   1.00000     0.00000     0
            
 48 48  0  0  0  0            999 V2000
    3.1233    1.0000   -0.7065 S   0  0  0  0  0  0  0  0  0  0  0  0
    2.5200    1.0000    1.0000 C   0  0  0  0  0  0  0  0  0  0  0  0
    1.0000    1.0000    1.0000 C   0  0  0  0  0  0  0  0  0  0  0  0
    0.4000    1.0000   -0.0392 O   0  0  0  0  0  0  0  0  0  0  0  0
    0.3150    1.0000    2.1865 N   0  0  0  0  0  0  0  0  0  0  0  0
    1.0500    1.0000    3.4595 C   0  0  0  0  0  0  0  0  0  0  0  0
    0.0623    1.0000    4.6148 C   0  0  3  0  0  0  0  0  0  0  0  0
    0.8223    1.0000    5.9312 C   0  0  3  0  0  0  0  0  0  0  0  0
    1.5026    2.2369    6.0849 O   0  0  0  0  0  0  0  0  0  0  0  0
    1.8311   -0.1369    5.9338 C   0  0  0  0  0  0  0  0  0  0  0  0
   -0.8116    2.2411    4.5343 C   0  0  0  0  0  0  0  0  0  0  0  0
   -2.1780    1.9382    5.1281 C   0  0  0  0  0  0  0  0  0  0  0  0
   -2.3242    1.8449    6.5083 C   0  0  0  0  0  0  0  0  0  0  0  0
   -3.5760    1.5668    7.0475 C   0  0  0  0  0  0  0  0  0  0  0  0
   -4.6702    1.3855    6.2080 C   0  0  0  0  0  0  0  0  0  0  0  0
   -4.5124    1.4814    4.8309 C   0  0  0  0  0  0  0  0  0  0  0  0
   -3.2657    1.7584    4.2795 C   0  0  0  0  0  0  0  0  0  0  0  0
   -0.8116   -0.2411    4.5343 C   0  0  0  0  0  0  0  0  0  0  0  0
    4.9032    1.0000   -0.3775 C   0  0  0  0  0  0  0  0  0  0  0  0
    5.6619    1.0000   -1.6947 C   0  0  0  0  0  0  0  0  0  0  0  0
    7.1566    1.0000   -1.4184 C   0  0  0  0  0  0  0  0  0  0  0  0
    2.8533    1.8165    1.4714 H   0  0  0  0  0  0  0  0  0  0  0  0
    2.8533    0.1835    1.4714 H   0  0  0  0  0  0  0  0  0  0  0  0
   -0.6850    1.0000    2.1865 H   0  0  0  0  0  0  0  0  0  0  0  0
    1.6249    1.8165    3.5125 H   0  0  0  0  0  0  0  0  0  0  0  0
    1.6249    0.1835    3.5125 H   0  0  0  0  0  0  0  0  0  0  0  0
    0.1794    0.8769    6.6872 H   0  0  0  0  0  0  0  0  0  0  0  0
    2.0026    2.2369    6.9510 H   0  0  0  0  0  0  0  0  0  0  0  0
    1.3520   -1.0080    5.8255 H   0  0  0  0  0  0  0  0  0  0  0  0
    2.4740   -0.0139    5.1777 H   0  0  0  0  0  0  0  0  0  0  0  0
    2.3311   -0.1369    6.7998 H   0  0  0  0  0  0  0  0  0  0  0  0
   -0.3826    2.9846    5.0472 H   0  0  0  0  0  0  0  0  0  0  0  0
   -0.9167    2.5132    3.5778 H   0  0  0  0  0  0  0  0  0  0  0  0
   -1.5353    1.9769    7.1085 H   0  0  0  0  0  0  0  0  0  0  0  0
   -3.6893    1.4972    8.0386 H   0  0  0  0  0  0  0  0  0  0  0  0
   -5.5702    1.1861    6.5956 H   0  0  0  0  0  0  0  0  0  0  0  0
   -5.3017    1.3502    4.2311 H   0  0  0  0  0  0  0  0  0  0  0  0
   -3.1531    1.8273    3.2882 H   0  0  0  0  0  0  0  0  0  0  0  0
   -1.3116   -0.2411    3.6683 H   0  0  0  0  0  0  0  0  0  0  0  0
   -0.2367   -1.0576    4.5873 H   0  0  0  0  0  0  0  0  0  0  0  0
   -1.4614   -0.2411    5.2944 H   0  0  0  0  0  0  0  0  0  0  0  0
    5.1453    0.1835    0.1466 H   0  0  0  0  0  0  0  0  0  0  0  0
    5.1453    1.8165    0.1466 H   0  0  0  0  0  0  0  0  0  0  0  0
    5.4198    1.8165   -2.2188 H   0  0  0  0  0  0  0  0  0  0  0  0
    5.4198    0.1835   -2.2188 H   0  0  0  0  0  0  0  0  0  0  0  0
    7.6557    1.0000   -2.2849 H   0  0  0  0  0  0  0  0  0  0  0  0
    7.3987    1.8165   -0.8943 H   0  0  0  0  0  0  0  0  0  0  0  0
    7.3987    0.1835   -0.8943 H   0  0  0  0  0  0  0  0  0  0  0  0
  1  2  1  0  0  0  0
  2  3  1  0  0  0  0
  3  4  2  0  0  0  0
  3  5  1  0  0  0  0
  5  6  1  0  0  0  0
  6  7  1  0  0  0  0
  7  8  1  0  0  0  0
  8  9  1  0  0  0  0
  8 10  1  0  0  0  0
  7 11  1  0  0  0  0
 11 12  1  0  0  0  0
 12 13  1  0  0  0  0
 13 14  2  0  0  0  0
 14 15  1  0  0  0  0
 15 16  2  0  0  0  0
 16 17  1  0  0  0  0
 17 12  2  0  0  0  0
  7 18  1  0  0  0  0
  1 19  1  0  0  0  0
 19 20  1  0  0  0  0
 20 21  1  0  0  0  0
  2 22  1  0  0  0  0
  2 23  1  0  0  0  0
  5 24  1  0  0  0  0
  6 25  1  0  0  0  0
  6 26  1  0  0  0  0
  8 27  1  0  0  0  0
  9 28  1  0  0  0  0
 10 29  1  0  0  0  0
 10 30  1  0  0  0  0
 10 31  1  0  0  0  0
 11 32  1  0  0  0  0
 11 33  1  0  0  0  0
 13 34  1  0  0  0  0
 14 35  1  0  0  0  0
 15 36  1  0  0  0  0
 16 37  1  0  0  0  0
 17 38  1  0  0  0  0
 18 39  1  0  0  0  0
 18 40  1  0  0  0  0
 18 41  1  0  0  0  0
 19 42  1  0  0  0  0
 19 43  1  0  0  0  0
 20 44  1  0  0  0  0
 20 45  1  0  0  0  0
 21 46  1  0  0  0  0
 21 47  1  0  0  0  0
 21 48  1  0  0  0  0
M  END
>  <result-rank>
74

>  <similarity>
0.925

>  <query-name>
LIG_A_1101_CC(C)SC[R*]_1

>  <query-smiles>
S(C(C)C)CC(=O)[C@@H](NC(=O)C)Cc1ccc(O)cc1

>  <source>
REALspace_2019-12

>  <similarity-descriptor>
0.960;1.000;0.998;0.998;1.000;1.000;0.907;0.928;0.928;0.710;1.000;1.000;0.0;0.067

>  <similarity-descriptor-smiles>
c1ccccc1;S;CC;CC;C;C;C=O;NCC;NCC;CO;C;C;;C

>  <reaction-name>
s_22

>  <reagent1-name>
9283054

>  <reagent1-smiles>
[R1*]NCC(C(O)C)(Cc1ccccc1)C

>  <reagent2-name>
1055140

>  <reagent2-smiles>
[R1*]C(=O)CSCCC

$$$$
s_2708____11569280____13040476
          04022015093D 1   1.00000     0.00000     0
            
 49 49  0  0  0  0            999 V2000
   -2.0570    4.8408   -5.9516 F   0  0  0  0  0  0  0  0  0  0  0  0
   -1.8456    4.5384   -4.6735 C   0  0  0  0  0  0  0  0  0  0  0  0
   -2.0804    3.2443   -4.2206 C   0  0  0  0  0  0  0  0  0  0  0  0
   -1.8579    2.9358   -2.8825 C   0  0  0  0  0  0  0  0  0  0  0  0
   -1.4039    3.9233   -2.0146 C   0  0  0  0  0  0  0  0  0  0  0  0
   -1.1703    5.2153   -2.4730 C   0  0  0  0  0  0  0  0  0  0  0  0
   -1.3906    5.5295   -3.8099 C   0  0  0  0  0  0  0  0  0  0  0  0
   -1.1630    3.5798   -0.5538 C   0  0  0  0  0  0  0  0  0  0  0  0
    0.1198    2.7743   -0.4276 C   0  0  3  0  0  0  0  0  0  0  0  0
    1.3078    3.6552   -0.7786 C   0  0  0  0  0  0  0  0  0  0  0  0
    1.5260    4.6494   -0.1431 O   0  0  0  0  0  0  0  0  0  0  0  0
    2.1294    3.3141   -1.8205 N   0  0  0  0  0  0  0  0  0  0  0  0
    3.2117    4.2205   -2.2302 C   0  0  0  0  0  0  0  0  0  0  0  0
    1.9285    2.0417   -2.5287 C   0  0  0  0  0  0  0  0  0  0  0  0
    0.2650    2.2731    1.0000 C   0  0  0  0  0  0  0  0  0  0  0  0
    1.0000    1.0000    1.0000 N   0  0  0  0  0  0  0  0  0  0  0  0
    2.3700    1.0000    1.0000 C   0  0  0  0  0  0  0  0  0  0  0  0
    2.9700    2.0353    1.0906 O   0  0  0  0  0  0  0  0  0  0  0  0
    3.0550   -0.1819    0.8966 N   0  0  0  0  0  0  0  0  0  0  0  0
    4.5250   -0.1819    0.8966 C   0  0  0  0  0  0  0  0  0  0  0  0
    5.0317   -0.3068    2.3242 C   0  0  0  0  0  0  0  0  0  0  0  0
    6.5517   -0.3068    2.3242 C   0  0  0  0  0  0  0  0  0  0  0  0
    6.9950   -0.4161    3.5734 F   0  0  0  0  0  0  0  0  0  0  0  0
    2.3200   -1.4502    0.7856 C   0  0  0  0  0  0  0  0  0  0  0  0
   -2.4066    2.5410   -4.8522 H   0  0  0  0  0  0  0  0  0  0  0  0
   -2.0236    2.0087   -2.5462 H   0  0  0  0  0  0  0  0  0  0  0  0
   -0.8439    5.9185   -1.8414 H   0  0  0  0  0  0  0  0  0  0  0  0
   -1.2240    6.4564   -4.1461 H   0  0  0  0  0  0  0  0  0  0  0  0
   -1.9306    3.0406   -0.2072 H   0  0  0  0  0  0  0  0  0  0  0  0
   -1.0809    4.4228   -0.0223 H   0  0  0  0  0  0  0  0  0  0  0  0
    0.0867    1.9946   -1.0529 H   0  0  0  0  0  0  0  0  0  0  0  0
    3.7092    3.8193   -2.9993 H   0  0  0  0  0  0  0  0  0  0  0  0
    2.8236    5.0997   -2.5065 H   0  0  0  0  0  0  0  0  0  0  0  0
    3.8387    4.3590   -1.4636 H   0  0  0  0  0  0  0  0  0  0  0  0
    2.6102    1.9533   -3.2550 H   0  0  0  0  0  0  0  0  0  0  0  0
    2.0269    1.2828   -1.8850 H   0  0  0  0  0  0  0  0  0  0  0  0
    1.0119    2.0235   -2.9279 H   0  0  0  0  0  0  0  0  0  0  0  0
    0.7672    2.9479    1.5408 H   0  0  0  0  0  0  0  0  0  0  0  0
   -0.6417    2.1345    1.3984 H   0  0  0  0  0  0  0  0  0  0  0  0
    0.5000    0.1340    1.0000 H   0  0  0  0  0  0  0  0  0  0  0  0
    4.8583    0.6725    0.4981 H   0  0  0  0  0  0  0  0  0  0  0  0
    4.8583   -0.9542    0.3558 H   0  0  0  0  0  0  0  0  0  0  0  0
    4.6983    0.4655    2.8650 H   0  0  0  0  0  0  0  0  0  0  0  0
    4.6983   -1.1613    2.7227 H   0  0  0  0  0  0  0  0  0  0  0  0
    6.8850   -1.0791    1.7834 H   0  0  0  0  0  0  0  0  0  0  0  0
    6.8850    0.5476    1.9258 H   0  0  0  0  0  0  0  0  0  0  0  0
    2.9698   -2.2073    0.7194 H   0  0  0  0  0  0  0  0  0  0  0  0
    1.7451   -1.5741    1.5944 H   0  0  0  0  0  0  0  0  0  0  0  0
    1.7451   -1.4318   -0.0324 H   0  0  0  0  0  0  0  0  0  0  0  0
  1  2  1  0  0  0  0
  2  3  1  0  0  0  0
  3  4  2  0  0  0  0
  4  5  1  0  0  0  0
  5  6  2  0  0  0  0
  6  7  1  0  0  0  0
  7  2  2  0  0  0  0
  5  8  1  0  0  0  0
  8  9  1  0  0  0  0
  9 10  1  0  0  0  0
 10 11  2  0  0  0  0
 10 12  1  0  0  0  0
 12 13  1  0  0  0  0
 12 14  1  0  0  0  0
  9 15  1  0  0  0  0
 15 16  1  0  0  0  0
 16 17  1  0  0  0  0
 17 18  2  0  0  0  0
 17 19  1  0  0  0  0
 19 20  1  0  0  0  0
 20 21  1  0  0  0  0
 21 22  1  0  0  0  0
 22 23  1  0  0  0  0
 19 24  1  0  0  0  0
  3 25  1  0  0  0  0
  4 26  1  0  0  0  0
  6 27  1  0  0  0  0
  7 28  1  0  0  0  0
  8 29  1  0  0  0  0
  8 30  1  0  0  0  0
  9 31  1  0  0  0  0
 13 32  1  0  0  0  0
 13 33  1  0  0  0  0
 13 34  1  0  0  0  0
 14 35  1  0  0  0  0
 14 36  1  0  0  0  0
 14 37  1  0  0  0  0
 15 38  1  0  0  0  0
 15 39  1  0  0  0  0
 16 40  1  0  0  0  0
 20 41  1  0  0  0  0
 20 42  1  0  0  0  0
 21 43  1  0  0  0  0
 21 44  1  0  0  0  0
 22 45  1  0  0  0  0
 22 46  1  0  0  0  0
 24 47  1  0  0  0  0
 24 48  1  0  0  0  0
 24 49  1  0  0  0  0
M  END
>  <result-rank>
75

>  <similarity>
0.925

>  <query-name>
LIG_A_1101_CC(C)SC[R*]_1

>  <query-smiles>
S(C(C)C)CC(=O)[C@@H](NC(=O)C)Cc1ccc(O)cc1

>  <source>
REALspace_2019-12

>  <similarity-descriptor>
0.983;0.746;1.000;1.000;0.989;0.746;0.902;0.824;0.824;1.000;0.977;1.000;0.0;0.067

>  <similarity-descriptor-smiles>
Fc1ccccc1;NC;CC;CC;CF;NC;C=O;CCN;CCN;C=O;NC;C;;C

>  <reaction-name>
s_2708

>  <reagent1-name>
11569280

>  <reagent1-smiles>
[R1*]C(=O)NCC(C(=O)N(C)C)Cc1ccc(F)cc1

>  <reagent2-name>
13040476

>  <reagent2-smiles>
[R1*]N(CCCF)C

$$$$
s_22____14182010____7841202
          04022015093D 1   1.00000     0.00000     0
            
 39 39  0  0  0  0            999 V2000
   -1.3087    4.7396    6.5815 Br  0  0  0  0  0  0  0  0  0  0  0  0
    0.1140    4.1241    5.3817 C   0  0  0  0  0  0  0  0  0  0  0  0
    1.1593    4.9788    5.0459 C   0  0  0  0  0  0  0  0  0  0  0  0
    1.1846    6.2120    5.5432 F   0  0  0  0  0  0  0  0  0  0  0  0
    2.1713    4.5448    4.1954 C   0  0  0  0  0  0  0  0  0  0  0  0
    2.1391    3.2539    3.6775 C   0  0  0  0  0  0  0  0  0  0  0  0
    1.0878    2.4107    4.0225 C   0  0  0  0  0  0  0  0  0  0  0  0
    0.0696    2.8306    4.8717 C   0  0  0  0  0  0  0  0  0  0  0  0
    1.0500    1.0000    3.4595 C   0  0  0  0  0  0  0  0  0  0  0  0
    0.3150    1.0000    2.1865 N   0  0  0  0  0  0  0  0  0  0  0  0
    1.0000    1.0000    1.0000 C   0  0  0  0  0  0  0  0  0  0  0  0
    0.4000    1.0000   -0.0392 O   0  0  0  0  0  0  0  0  0  0  0  0
    2.5200    1.0000    1.0000 C   0  0  0  0  0  0  0  0  0  0  0  0
    3.0267    1.2488   -0.4113 C   0  0  3  0  0  0  0  0  0  0  0  0
    3.0178    3.0267   -0.7508 S   0  0  0  0  0  0  0  0  0  0  0  0
    3.6515    2.9944   -2.4459 C   0  0  0  0  0  0  0  0  0  0  0  0
    4.4438    0.7151   -0.5423 C   0  0  0  0  0  0  0  0  0  0  0  0
   -1.1550    1.0000    2.1865 C   0  0  0  0  0  0  0  0  0  0  0  0
   -1.6617   -0.4331    2.1865 C   0  0  0  0  0  0  0  0  0  0  0  0
   -3.0817   -0.4331    2.1865 O   0  0  0  0  0  0  0  0  0  0  0  0
    2.9219    5.1608    3.9563 H   0  0  0  0  0  0  0  0  0  0  0  0
    2.8628    2.9360    3.0648 H   0  0  0  0  0  0  0  0  0  0  0  0
   -0.6804    2.2141    5.1114 H   0  0  0  0  0  0  0  0  0  0  0  0
    1.9839    0.6775    3.3052 H   0  0  0  0  0  0  0  0  0  0  0  0
    0.5912    0.3940    4.1093 H   0  0  0  0  0  0  0  0  0  0  0  0
    2.8533    0.1140    1.3225 H   0  0  0  0  0  0  0  0  0  0  0  0
    2.8533    1.7222    1.6060 H   0  0  0  0  0  0  0  0  0  0  0  0
    2.4326    0.7815   -1.0660 H   0  0  0  0  0  0  0  0  0  0  0  0
    3.7113    3.9287   -2.7973 H   0  0  0  0  0  0  0  0  0  0  0  0
    4.5600    2.5764   -2.4542 H   0  0  0  0  0  0  0  0  0  0  0  0
    3.0335    2.4602   -3.0227 H   0  0  0  0  0  0  0  0  0  0  0  0
    4.4487   -0.2672   -0.3548 H   0  0  0  0  0  0  0  0  0  0  0  0
    4.7772    0.8788   -1.4708 H   0  0  0  0  0  0  0  0  0  0  0  0
    5.0379    1.1824    0.1124 H   0  0  0  0  0  0  0  0  0  0  0  0
   -1.4883    1.4714    1.3700 H   0  0  0  0  0  0  0  0  0  0  0  0
   -1.4883    1.4714    3.0030 H   0  0  0  0  0  0  0  0  0  0  0  0
   -1.3283   -0.9045    1.3700 H   0  0  0  0  0  0  0  0  0  0  0  0
   -1.3283   -0.9045    3.0030 H   0  0  0  0  0  0  0  0  0  0  0  0
   -3.4150   -1.3759    2.1865 H   0  0  0  0  0  0  0  0  0  0  0  0
  1  2  1  0  0  0  0
  2  3  1  0  0  0  0
  3  4  1  0  0  0  0
  3  5  2  0  0  0  0
  5  6  1  0  0  0  0
  6  7  2  0  0  0  0
  7  8  1  0  0  0  0
  8  2  2  0  0  0  0
  7  9  1  0  0  0  0
  9 10  1  0  0  0  0
 10 11  1  0  0  0  0
 11 12  2  0  0  0  0
 11 13  1  0  0  0  0
 13 14  1  0  0  0  0
 14 15  1  0  0  0  0
 15 16  1  0  0  0  0
 14 17  1  0  0  0  0
 10 18  1  0  0  0  0
 18 19  1  0  0  0  0
 19 20  1  0  0  0  0
  5 21  1  0  0  0  0
  6 22  1  0  0  0  0
  8 23  1  0  0  0  0
  9 24  1  0  0  0  0
  9 25  1  0  0  0  0
 13 26  1  0  0  0  0
 13 27  1  0  0  0  0
 14 28  1  0  0  0  0
 16 29  1  0  0  0  0
 16 30  1  0  0  0  0
 16 31  1  0  0  0  0
 17 32  1  0  0  0  0
 17 33  1  0  0  0  0
 17 34  1  0  0  0  0
 18 35  1  0  0  0  0
 18 36  1  0  0  0  0
 19 37  1  0  0  0  0
 19 38  1  0  0  0  0
 20 39  1  0  0  0  0
M  END
>  <result-rank>
76

>  <similarity>
0.925

>  <query-name>
LIG_A_1101_CC(C)SC[R*]_1

>  <query-smiles>
S(C(C)C)CC(=O)[C@@H](NC(=O)C)Cc1ccc(O)cc1

>  <source>
REALspace_2019-12

>  <similarity-descriptor>
0.928;1.000;1.000;0.998;1.000;0.998;0.907;0.953;0.828;0.828;0.828;0.953;0.0;0.0

>  <similarity-descriptor-smiles>
Brc1ccccc1F;CS;CS;C;C;C;C=O;CNC;CO;CO;CO;CNC;;

>  <reaction-name>
s_22

>  <reagent1-name>
14182010

>  <reagent1-smiles>
[R1*]N(Cc1cc(Br)c(F)cc1)CCO

>  <reagent2-name>
7841202

>  <reagent2-smiles>
[R1*]C(=O)CC(SC)C

$$$$
s_34____15258682____2692240
          04022015093D 1   1.00000     0.00000     0
            
 38 38  0  0  0  0            999 V2000
    4.5195   -4.9349   -0.4506 O   0  0  0  0  0  0  0  0  0  0  0  0
    4.3181   -4.3658   -1.4877 C   0  0  0  0  0  0  0  0  0  0  0  0
    3.8611   -3.0743   -1.4828 N   0  0  0  0  0  0  0  0  0  0  0  0
    3.6174   -2.3856   -0.2072 C   0  0  0  0  0  0  0  0  0  0  0  0
    3.1534   -1.0744   -0.2132 C   0  0  0  0  0  0  0  0  0  0  0  0
    2.9267   -0.4332    1.0000 C   0  0  0  0  0  0  0  0  0  0  0  0
    3.1578   -1.0845    2.2070 C   0  0  0  0  0  0  0  0  0  0  0  0
    3.6216   -2.3961    2.1881 C   0  0  0  0  0  0  0  0  0  0  0  0
    3.8552   -3.0570    0.9872 C   0  0  0  0  0  0  0  0  0  0  0  0
    2.4200    1.0000    1.0000 C   0  0  0  0  0  0  0  0  0  0  0  0
    1.0000    1.0000    1.0000 O   0  0  0  0  0  0  0  0  0  0  0  0
    0.2850    1.0000    2.2384 N   0  0  0  0  0  0  0  0  0  0  0  0
   -0.9650    1.0000    2.2384 C   0  0  0  0  0  0  0  0  0  0  0  0
   -1.7250    1.0000    3.5548 C   0  0  0  0  0  0  0  0  0  0  0  0
   -1.9783    2.4331    3.9936 C   0  0  0  0  0  0  0  0  0  0  0  0
   -2.7383    2.4331    5.3099 C   0  0  0  0  0  0  0  0  0  0  0  0
   -1.7250    1.0000    0.9221 C   0  0  0  0  0  0  0  0  0  0  0  0
    4.5702   -5.0778   -2.8067 C   0  0  0  0  0  0  0  0  0  0  0  0
    3.6933   -2.6000   -2.3471 H   0  0  0  0  0  0  0  0  0  0  0  0
    2.9853   -0.5997   -1.0772 H   0  0  0  0  0  0  0  0  0  0  0  0
    2.9930   -0.6169    3.0755 H   0  0  0  0  0  0  0  0  0  0  0  0
    3.7896   -2.8711    3.0519 H   0  0  0  0  0  0  0  0  0  0  0  0
    4.1887   -3.9997    0.9825 H   0  0  0  0  0  0  0  0  0  0  0  0
    2.7533    1.4714    1.8165 H   0  0  0  0  0  0  0  0  0  0  0  0
    2.7533    1.4714    0.1835 H   0  0  0  0  0  0  0  0  0  0  0  0
   -1.1846    0.5286    4.2517 H   0  0  0  0  0  0  0  0  0  0  0  0
   -2.5988    0.5286    3.4352 H   0  0  0  0  0  0  0  0  0  0  0  0
   -2.5188    2.9045    3.2966 H   0  0  0  0  0  0  0  0  0  0  0  0
   -1.1046    2.9045    4.1131 H   0  0  0  0  0  0  0  0  0  0  0  0
   -2.9050    3.3759    5.5986 H   0  0  0  0  0  0  0  0  0  0  0  0
   -3.6121    1.9617    5.1903 H   0  0  0  0  0  0  0  0  0  0  0  0
   -2.1979    1.9617    6.0068 H   0  0  0  0  0  0  0  0  0  0  0  0
   -2.7082    1.0000    1.1048 H   0  0  0  0  0  0  0  0  0  0  0  0
   -1.4834    1.8165    0.3977 H   0  0  0  0  0  0  0  0  0  0  0  0
   -1.4834    0.1835    0.3977 H   0  0  0  0  0  0  0  0  0  0  0  0
    4.3525   -4.4627   -3.5645 H   0  0  0  0  0  0  0  0  0  0  0  0
    5.5316   -5.3473   -2.8617 H   0  0  0  0  0  0  0  0  0  0  0  0
    3.9922   -5.8920   -2.8618 H   0  0  0  0  0  0  0  0  0  0  0  0
  1  2  2  0  0  0  0
  2  3  1  0  0  0  0
  3  4  1  0  0  0  0
  4  5  1  0  0  0  0
  5  6  2  0  0  0  0
  6  7  1  0  0  0  0
  7  8  2  0  0  0  0
  8  9  1  0  0  0  0
  9  4  2  0  0  0  0
  6 10  1  0  0  0  0
 10 11  1  0  0  0  0
 11 12  1  0  0  0  0
 12 13  2  0  0  0  0
 13 14  1  0  0  0  0
 14 15  1  0  0  0  0
 15 16  1  0  0  0  0
 13 17  1  0  0  0  0
  2 18  1  0  0  0  0
  3 19  1  0  0  0  0
  5 20  1  0  0  0  0
  7 21  1  0  0  0  0
  8 22  1  0  0  0  0
  9 23  1  0  0  0  0
 10 24  1  0  0  0  0
 10 25  1  0  0  0  0
 14 26  1  0  0  0  0
 14 27  1  0  0  0  0
 15 28  1  0  0  0  0
 15 29  1  0  0  0  0
 16 30  1  0  0  0  0
 16 31  1  0  0  0  0
 16 32  1  0  0  0  0
 17 33  1  0  0  0  0
 17 34  1  0  0  0  0
 17 35  1  0  0  0  0
 18 36  1  0  0  0  0
 18 37  1  0  0  0  0
 18 38  1  0  0  0  0
M  END
>  <result-rank>
77

>  <similarity>
0.924

>  <query-name>
LIG_A_1101_CC(C)SC[R*]_1

>  <query-smiles>
S(C(C)C)CC(=O)[C@@H](NC(=O)C)Cc1ccc(O)cc1

>  <source>
REALspace_2019-12

>  <similarity-descriptor>
0.893;0.998;0.997;0.997;1.000;0.998;0.801;0.893;1.000;1.000;1.000;0.893;0.0;0.0

>  <similarity-descriptor-smiles>
c1ccccc1;CC;CC;CC;C;CC;CON;c1ccccc1;N;O=C;C;c1ccccc1;;

>  <reaction-name>
s_34

>  <reagent1-name>
15258682

>  <reagent1-smiles>
[R1*]ON=C(CCC)C

>  <reagent2-name>
2692240

>  <reagent2-smiles>
[R1*]Cc1cc(NC(=O)C)ccc1

$$$$
s_34____15258682____14428370
          04022015093D 1   1.00000     0.00000     0
            
 38 38  0  0  0  0            999 V2000
    4.2567   -0.4113    1.2488 F   0  0  0  0  0  0  0  0  0  0  0  0
    2.9267   -0.4113    1.2488 C   0  0  3  0  0  0  0  0  0  0  0  0
    2.4202   -1.3321    0.1515 C   0  0  0  0  0  0  0  0  0  0  0  0
    1.6219   -2.4177    0.4967 C   0  0  0  0  0  0  0  0  0  0  0  0
    1.1587   -3.2587   -0.5091 C   0  0  0  0  0  0  0  0  0  0  0  0
    0.3837   -4.3183   -0.1962 O   0  0  0  0  0  0  0  0  0  0  0  0
   -0.0905   -5.1786   -1.2216 C   0  0  0  0  0  0  0  0  0  0  0  0
    1.4887   -3.0186   -1.8390 C   0  0  0  0  0  0  0  0  0  0  0  0
    2.2891   -1.9300   -2.1717 C   0  0  0  0  0  0  0  0  0  0  0  0
    2.7577   -1.0808   -1.1746 C   0  0  0  0  0  0  0  0  0  0  0  0
    2.4200    1.0000    1.0000 C   0  0  0  0  0  0  0  0  0  0  0  0
    1.0000    1.0000    1.0000 O   0  0  0  0  0  0  0  0  0  0  0  0
    0.2850    1.0000    2.2384 N   0  0  0  0  0  0  0  0  0  0  0  0
   -0.9650    1.0000    2.2384 C   0  0  0  0  0  0  0  0  0  0  0  0
   -1.7250    2.3164    2.2384 C   0  0  0  0  0  0  0  0  0  0  0  0
   -2.5989    2.3969    0.9973 C   0  0  0  0  0  0  0  0  0  0  0  0
   -3.3589    3.7132    0.9973 C   0  0  0  0  0  0  0  0  0  0  0  0
   -1.7250   -0.3164    2.2384 C   0  0  0  0  0  0  0  0  0  0  0  0
    2.5933   -0.7338    2.1348 H   0  0  0  0  0  0  0  0  0  0  0  0
    1.3849   -2.5905    1.4527 H   0  0  0  0  0  0  0  0  0  0  0  0
   -0.6452   -5.9055   -0.8168 H   0  0  0  0  0  0  0  0  0  0  0  0
   -0.6472   -4.6540   -1.8658 H   0  0  0  0  0  0  0  0  0  0  0  0
    0.6868   -5.5820   -1.7043 H   0  0  0  0  0  0  0  0  0  0  0  0
    1.1508   -3.6284   -2.5560 H   0  0  0  0  0  0  0  0  0  0  0  0
    2.5273   -1.7582   -3.1276 H   0  0  0  0  0  0  0  0  0  0  0  0
    3.3322   -0.2966   -1.4089 H   0  0  0  0  0  0  0  0  0  0  0  0
    2.7533    1.6060    1.7222 H   0  0  0  0  0  0  0  0  0  0  0  0
    2.7533    1.3225    0.1140 H   0  0  0  0  0  0  0  0  0  0  0  0
   -1.0752    3.0764    2.2384 H   0  0  0  0  0  0  0  0  0  0  0  0
   -2.2999    2.3693    3.0549 H   0  0  0  0  0  0  0  0  0  0  0  0
   -3.2487    1.6368    0.9973 H   0  0  0  0  0  0  0  0  0  0  0  0
   -2.0240    2.3439    0.1808 H   0  0  0  0  0  0  0  0  0  0  0  0
   -3.9338    3.7662    0.1808 H   0  0  0  0  0  0  0  0  0  0  0  0
   -3.9338    3.7662    1.8138 H   0  0  0  0  0  0  0  0  0  0  0  0
   -2.7090    4.4733    0.9973 H   0  0  0  0  0  0  0  0  0  0  0  0
   -2.7082   -0.1336    2.2384 H   0  0  0  0  0  0  0  0  0  0  0  0
   -1.4834   -0.8407    1.4219 H   0  0  0  0  0  0  0  0  0  0  0  0
   -1.4834   -0.8407    3.0549 H   0  0  0  0  0  0  0  0  0  0  0  0
  1  2  1  0  0  0  0
  2  3  1  0  0  0  0
  3  4  1  0  0  0  0
  4  5  2  0  0  0  0
  5  6  1  0  0  0  0
  6  7  1  0  0  0  0
  5  8  1  0  0  0  0
  8  9  2  0  0  0  0
  9 10  1  0  0  0  0
 10  3  2  0  0  0  0
  2 11  1  0  0  0  0
 11 12  1  0  0  0  0
 12 13  1  0  0  0  0
 13 14  2  0  0  0  0
 14 15  1  0  0  0  0
 15 16  1  0  0  0  0
 16 17  1  0  0  0  0
 14 18  1  0  0  0  0
  2 19  1  0  0  0  0
  4 20  1  0  0  0  0
  7 21  1  0  0  0  0
  7 22  1  0  0  0  0
  7 23  1  0  0  0  0
  8 24  1  0  0  0  0
  9 25  1  0  0  0  0
 10 26  1  0  0  0  0
 11 27  1  0  0  0  0
 11 28  1  0  0  0  0
 15 29  1  0  0  0  0
 15 30  1  0  0  0  0
 16 31  1  0  0  0  0
 16 32  1  0  0  0  0
 17 33  1  0  0  0  0
 17 34  1  0  0  0  0
 17 35  1  0  0  0  0
 18 36  1  0  0  0  0
 18 37  1  0  0  0  0
 18 38  1  0  0  0  0
M  END
>  <result-rank>
78

>  <similarity>
0.924

>  <query-name>
LIG_A_1101_CC(C)SC[R*]_1

>  <query-smiles>
S(C(C)C)CC(=O)[C@@H](NC(=O)C)Cc1ccc(O)cc1

>  <source>
REALspace_2019-12

>  <similarity-descriptor>
1.000;0.998;0.997;0.997;1.000;0.998;0.922;0.931;0.0;0.0;0.0;0.982;0.704;0.083

>  <similarity-descriptor-smiles>
c1ccccc1;CC;CC;CC;C;CC;ON;C;;;;FC;O;C

>  <reaction-name>
s_34

>  <reagent1-name>
15258682

>  <reagent1-smiles>
[R1*]ON=C(CCC)C

>  <reagent2-name>
14428370

>  <reagent2-smiles>
[R1*]CC(F)c1cc(OC)ccc1

$$$$
s_22____11569248____12297758
          04022015093D 1   1.00000     0.00000     0
            
 52 52  0  0  0  0            999 V2000
   -2.3030   -5.0235    2.4753 F   0  0  0  0  0  0  0  0  0  0  0  0
   -1.9995   -3.8191    2.9515 C   0  0  0  0  0  0  0  0  0  0  0  0
   -2.9952   -3.0256    3.5121 C   0  0  0  0  0  0  0  0  0  0  0  0
   -2.6704   -1.7667    4.0072 C   0  0  0  0  0  0  0  0  0  0  0  0
   -1.3562   -1.3171    3.9362 C   0  0  0  0  0  0  0  0  0  0  0  0
   -0.3647   -2.1148    3.3752 C   0  0  0  0  0  0  0  0  0  0  0  0
   -0.6835   -3.3744    2.8789 C   0  0  0  0  0  0  0  0  0  0  0  0
   -1.0081    0.0593    4.4787 C   0  0  0  0  0  0  0  0  0  0  0  0
   -1.6617    1.1249    3.6141 C   0  0  3  0  0  0  0  0  0  0  0  0
   -1.3135    2.5014    4.1567 C   0  0  0  0  0  0  0  0  0  0  0  0
   -0.1848    2.7517    4.4783 O   0  0  0  0  0  0  0  0  0  0  0  0
   -2.2883    3.4563    4.2785 N   0  0  0  0  0  0  0  0  0  0  0  0
   -1.9169    4.8640    4.4817 C   0  0  0  0  0  0  0  0  0  0  0  0
   -3.7056    3.0732    4.2061 C   0  0  0  0  0  0  0  0  0  0  0  0
   -1.1550    1.0000    2.1865 C   0  0  0  0  0  0  0  0  0  0  0  0
    0.3150    1.0000    2.1865 N   0  0  0  0  0  0  0  0  0  0  0  0
    1.0000    1.0000    1.0000 C   0  0  0  0  0  0  0  0  0  0  0  0
    0.4000    1.0000   -0.0392 O   0  0  0  0  0  0  0  0  0  0  0  0
    2.5200    1.0000    1.0000 C   0  0  3  0  0  0  0  0  0  0  0  0
    2.9933    1.0000   -0.3388 O   0  0  0  0  0  0  0  0  0  0  0  0
    3.0267   -0.2411    1.7165 C   0  0  0  0  0  0  0  0  0  0  0  0
    3.2433   -1.3347    1.0479 C   0  0  0  0  0  0  0  0  0  0  0  0
    3.7500   -2.5758    1.7645 C   0  0  0  0  0  0  0  0  0  0  0  0
    2.7488   -3.7060    1.5896 C   0  0  0  0  0  0  0  0  0  0  0  0
    3.2555   -4.9471    2.3062 C   0  0  0  0  0  0  0  0  0  0  0  0
   -3.9373   -3.3576    3.5588 H   0  0  0  0  0  0  0  0  0  0  0  0
   -3.3783   -1.1880    4.4121 H   0  0  0  0  0  0  0  0  0  0  0  0
    0.5774   -1.7828    3.3287 H   0  0  0  0  0  0  0  0  0  0  0  0
    0.0248   -3.9533    2.4749 H   0  0  0  0  0  0  0  0  0  0  0  0
   -0.0157    0.1816    4.4653 H   0  0  0  0  0  0  0  0  0  0  0  0
   -1.3414    0.1414    5.4179 H   0  0  0  0  0  0  0  0  0  0  0  0
   -2.6541    1.0025    3.6275 H   0  0  0  0  0  0  0  0  0  0  0  0
   -2.7448    5.4208    4.5494 H   0  0  0  0  0  0  0  0  0  0  0  0
   -1.3871    4.9506    5.3254 H   0  0  0  0  0  0  0  0  0  0  0  0
   -1.3660    5.1784    3.7086 H   0  0  0  0  0  0  0  0  0  0  0  0
   -4.2768    3.8870    4.3133 H   0  0  0  0  0  0  0  0  0  0  0  0
   -3.8916    2.6499    3.3194 H   0  0  0  0  0  0  0  0  0  0  0  0
   -3.9127    2.4221    4.9363 H   0  0  0  0  0  0  0  0  0  0  0  0
   -1.4883    0.1455    1.7880 H   0  0  0  0  0  0  0  0  0  0  0  0
   -1.4883    1.7723    1.6457 H   0  0  0  0  0  0  0  0  0  0  0  0
    0.8150    1.0000    3.0525 H   0  0  0  0  0  0  0  0  0  0  0  0
    2.8533    1.8165    1.4714 H   0  0  0  0  0  0  0  0  0  0  0  0
    3.9933    1.0000   -0.3388 H   0  0  0  0  0  0  0  0  0  0  0  0
    3.1933   -0.2163    2.7022 H   0  0  0  0  0  0  0  0  0  0  0  0
    3.0767   -1.3595    0.0622 H   0  0  0  0  0  0  0  0  0  0  0  0
    3.8611   -2.3765    2.7381 H   0  0  0  0  0  0  0  0  0  0  0  0
    4.6309   -2.8480    1.3773 H   0  0  0  0  0  0  0  0  0  0  0  0
    2.6377   -3.9053    0.6160 H   0  0  0  0  0  0  0  0  0  0  0  0
    1.8679   -3.4338    1.9768 H   0  0  0  0  0  0  0  0  0  0  0  0
    2.5968   -5.6907    2.1911 H   0  0  0  0  0  0  0  0  0  0  0  0
    4.1364   -5.2193    1.9190 H   0  0  0  0  0  0  0  0  0  0  0  0
    3.3666   -4.7479    3.2798 H   0  0  0  0  0  0  0  0  0  0  0  0
  1  2  1  0  0  0  0
  2  3  1  0  0  0  0
  3  4  2  0  0  0  0
  4  5  1  0  0  0  0
  5  6  2  0  0  0  0
  6  7  1  0  0  0  0
  7  2  2  0  0  0  0
  5  8  1  0  0  0  0
  8  9  1  0  0  0  0
  9 10  1  0  0  0  0
 10 11  2  0  0  0  0
 10 12  1  0  0  0  0
 12 13  1  0  0  0  0
 12 14  1  0  0  0  0
  9 15  1  0  0  0  0
 15 16  1  0  0  0  0
 16 17  1  0  0  0  0
 17 18  2  0  0  0  0
 17 19  1  0  0  0  0
 19 20  1  0  0  0  0
 19 21  1  0  0  0  0
 21 22  2  0  0  0  0
 22 23  1  0  0  0  0
 23 24  1  0  0  0  0
 24 25  1  0  0  0  0
  3 26  1  0  0  0  0
  4 27  1  0  0  0  0
  6 28  1  0  0  0  0
  7 29  1  0  0  0  0
  8 30  1  0  0  0  0
  8 31  1  0  0  0  0
  9 32  1  0  0  0  0
 13 33  1  0  0  0  0
 13 34  1  0  0  0  0
 13 35  1  0  0  0  0
 14 36  1  0  0  0  0
 14 37  1  0  0  0  0
 14 38  1  0  0  0  0
 15 39  1  0  0  0  0
 15 40  1  0  0  0  0
 16 41  1  0  0  0  0
 19 42  1  0  0  0  0
 20 43  1  0  0  0  0
 21 44  1  0  0  0  0
 22 45  1  0  0  0  0
 23 46  1  0  0  0  0
 23 47  1  0  0  0  0
 24 48  1  0  0  0  0
 24 49  1  0  0  0  0
 25 50  1  0  0  0  0
 25 51  1  0  0  0  0
 25 52  1  0  0  0  0
M  END
>  <result-rank>
79

>  <similarity>
0.924

>  <query-name>
LIG_A_1101_CC(C)SC[R*]_1

>  <query-smiles>
S(C(C)C)CC(=O)[C@@H](NC(=O)C)Cc1ccc(O)cc1

>  <source>
REALspace_2019-12

>  <similarity-descriptor>
0.983;0.839;0.997;0.997;1.000;0.839;0.907;0.824;0.824;1.000;0.977;1.000;0.0;0.118

>  <similarity-descriptor-smiles>
Fc1ccccc1;CC=C;CC;CC;C;CC=C;C=O;CCN;CCN;C=O;NC;C;;C.O

>  <reaction-name>
s_22

>  <reagent1-name>
11569248

>  <reagent1-smiles>
[R1*]NCC(C(=O)N(C)C)Cc1ccc(F)cc1

>  <reagent2-name>
12297758

>  <reagent2-smiles>
[R1*]C(=O)C(O)C=CCCC

$$$$
s_22____12206138____13022906
          04022015093D 1   1.00000     0.00000     0
            
 50 50  0  0  0  0            999 V2000
   -2.6122    2.8352    2.4746 O   0  0  0  0  0  0  0  0  0  0  0  0
   -1.6617    2.2411    2.9030 C   0  0  0  0  0  0  0  0  0  0  0  0
   -1.0606    2.6621    3.9881 O   0  0  0  0  0  0  0  0  0  0  0  0
   -1.5340    3.8216    4.6575 C   0  0  0  0  0  0  0  0  0  0  0  0
   -1.1550    1.0000    2.1865 C   0  0  3  0  0  0  0  0  0  0  0  0
    0.3150    1.0000    2.1865 N   0  0  0  0  0  0  0  0  0  0  0  0
    1.0000    1.0000    1.0000 C   0  0  0  0  0  0  0  0  0  0  0  0
    0.4000    1.0000   -0.0392 O   0  0  0  0  0  0  0  0  0  0  0  0
    2.5200    1.0000    1.0000 C   0  0  3  0  0  0  0  0  0  0  0  0
    3.0267   -0.2411    1.7165 C   0  0  0  0  0  0  0  0  0  0  0  0
    4.5467   -0.2411    1.7165 C   0  0  0  0  0  0  0  0  0  0  0  0
    5.0367   -1.4413    2.4095 N   0  3  0  0  0  0  0  0  0  0  0  0
    6.5067   -1.4413    2.4095 C   0  0  0  0  0  0  0  0  0  0  0  0
    4.5467   -1.4413    3.7954 C   0  0  0  0  0  0  0  0  0  0  0  0
    3.0267    1.0000   -0.4331 C   0  0  0  0  0  0  0  0  0  0  0  0
   -1.6617   -0.2411    2.9030 C   0  0  0  0  0  0  0  0  0  0  0  0
   -3.1821   -0.2411    2.9030 C   0  0  0  0  0  0  0  0  0  0  0  0
   -3.8776   -0.8436    1.8593 C   0  0  0  0  0  0  0  0  0  0  0  0
   -3.2181   -1.4322    0.8386 O   0  0  0  0  0  0  0  0  0  0  0  0
   -5.2690   -0.8435    1.8592 C   0  0  0  0  0  0  0  0  0  0  0  0
   -5.9646   -0.2412    2.9031 C   0  0  0  0  0  0  0  0  0  0  0  0
   -5.2687    0.3606    3.9468 C   0  0  0  0  0  0  0  0  0  0  0  0
   -3.8776    0.3600    3.9468 C   0  0  0  0  0  0  0  0  0  0  0  0
    4.7033   -2.2578    1.9381 H   0  0  0  0  0  0  0  0  0  0  0  0
   -0.9641    3.9992    5.4599 H   0  0  0  0  0  0  0  0  0  0  0  0
   -1.4907    4.6052    4.0379 H   0  0  0  0  0  0  0  0  0  0  0  0
   -2.4804    3.6767    4.9463 H   0  0  0  0  0  0  0  0  0  0  0  0
   -1.4883    1.0000    1.2436 H   0  0  0  0  0  0  0  0  0  0  0  0
    0.8150    1.0000    3.0525 H   0  0  0  0  0  0  0  0  0  0  0  0
    2.8533    1.8165    1.4714 H   0  0  0  0  0  0  0  0  0  0  0  0
    2.6933   -1.0576    1.2451 H   0  0  0  0  0  0  0  0  0  0  0  0
    2.6933   -0.2411    2.6593 H   0  0  0  0  0  0  0  0  0  0  0  0
    4.8800   -0.2411    0.7737 H   0  0  0  0  0  0  0  0  0  0  0  0
    4.8800    0.5754    2.1879 H   0  0  0  0  0  0  0  0  0  0  0  0
    6.8400   -2.2578    2.8809 H   0  0  0  0  0  0  0  0  0  0  0  0
    6.8400   -1.4413    1.4667 H   0  0  0  0  0  0  0  0  0  0  0  0
    6.8400   -0.6248    2.8809 H   0  0  0  0  0  0  0  0  0  0  0  0
    4.8800   -2.2578    4.2668 H   0  0  0  0  0  0  0  0  0  0  0  0
    4.8800   -0.6248    4.2668 H   0  0  0  0  0  0  0  0  0  0  0  0
    3.5467   -1.4413    3.7954 H   0  0  0  0  0  0  0  0  0  0  0  0
    4.0267    1.0000   -0.4331 H   0  0  0  0  0  0  0  0  0  0  0  0
    2.6933    0.1835   -0.9045 H   0  0  0  0  0  0  0  0  0  0  0  0
    2.6933    1.8165   -0.9045 H   0  0  0  0  0  0  0  0  0  0  0  0
   -1.3283   -1.0576    2.4316 H   0  0  0  0  0  0  0  0  0  0  0  0
   -1.3283   -0.2411    3.8458 H   0  0  0  0  0  0  0  0  0  0  0  0
   -3.7296   -1.8619    0.0944 H   0  0  0  0  0  0  0  0  0  0  0  0
   -5.7690   -1.2761    1.1090 H   0  0  0  0  0  0  0  0  0  0  0  0
   -6.9646   -0.2409    2.9031 H   0  0  0  0  0  0  0  0  0  0  0  0
   -5.7685    0.7935    4.6970 H   0  0  0  0  0  0  0  0  0  0  0  0
   -3.3775    0.7919    4.6974 H   0  0  0  0  0  0  0  0  0  0  0  0
  1  2  2  0  0  0  0
  2  3  1  0  0  0  0
  3  4  1  0  0  0  0
  2  5  1  0  0  0  0
  5  6  1  0  0  0  0
  6  7  1  0  0  0  0
  7  8  2  0  0  0  0
  7  9  1  0  0  0  0
  9 10  1  0  0  0  0
 10 11  1  0  0  0  0
 11 12  1  0  0  0  0
 12 13  1  0  0  0  0
 12 14  1  0  0  0  0
  9 15  1  0  0  0  0
  5 16  1  0  0  0  0
 16 17  1  0  0  0  0
 17 18  1  0  0  0  0
 18 19  1  0  0  0  0
 18 20  2  0  0  0  0
 20 21  1  0  0  0  0
 21 22  2  0  0  0  0
 22 23  1  0  0  0  0
 23 17  2  0  0  0  0
 12 24  1  0  0  0  0
  4 25  1  0  0  0  0
  4 26  1  0  0  0  0
  4 27  1  0  0  0  0
  5 28  1  0  0  0  0
  6 29  1  0  0  0  0
  9 30  1  0  0  0  0
 10 31  1  0  0  0  0
 10 32  1  0  0  0  0
 11 33  1  0  0  0  0
 11 34  1  0  0  0  0
 13 35  1  0  0  0  0
 13 36  1  0  0  0  0
 13 37  1  0  0  0  0
 14 38  1  0  0  0  0
 14 39  1  0  0  0  0
 14 40  1  0  0  0  0
 15 41  1  0  0  0  0
 15 42  1  0  0  0  0
 15 43  1  0  0  0  0
 16 44  1  0  0  0  0
 16 45  1  0  0  0  0
 19 46  1  0  0  0  0
 20 47  1  0  0  0  0
 21 48  1  0  0  0  0
 22 49  1  0  0  0  0
 23 50  1  0  0  0  0
M  CHG  1  12   1
M  END
>  <result-rank>
80

>  <similarity>
0.924

>  <query-name>
LIG_A_1101_CC(C)SC[R*]_1

>  <query-smiles>
S(C(C)C)CC(=O)[C@@H](NC(=O)C)Cc1ccc(O)cc1

>  <source>
REALspace_2019-12

>  <similarity-descriptor>
1.000;0.795;0.795;0.956;1.000;0.795;0.907;1.000;1.000;0.855;0.994;1.000;1.000;0.188

>  <similarity-descriptor-smiles>
c1ccccc1;CC;CC;C;C;CC;C=O;CN;CN;O=CO;C;C;O;[NH+].C.C

>  <reaction-name>
s_22

>  <reagent1-name>
12206138

>  <reagent1-smiles>
[R1*]NC(C(=O)OC)Cc1c(O)cccc1

>  <reagent2-name>
13022906

>  <reagent2-smiles>
[R1*]C(=O)C(CCN(C)C)C

$$$$
s_63____17315394____7593308
          04022015093D 1   1.00000     0.00000     0
            
 35 35  0  0  0  0            999 V2000
    2.0450   -0.0450   -0.0450 S   0  0  0  0  0  0  0  0  0  0  0  0
    1.0000    1.0000    1.0000 C   0  0  0  0  0  0  0  0  0  0  0  0
    1.8776    1.8776    1.8776 C   0  0  3  0  0  0  0  0  0  0  0  0
    2.6974    1.0577    2.6974 O   0  0  0  0  0  0  0  0  0  0  0  0
    1.0000    2.7551    2.7551 C   0  0  0  0  0  0  0  0  0  0  0  0
    1.8778    3.6329    3.6329 C   0  0  0  0  0  0  0  0  0  0  0  0
    2.2726    4.8845    3.1710 C   0  0  0  0  0  0  0  0  0  0  0  0
    3.0744    5.6923    3.9702 C   0  0  0  0  0  0  0  0  0  0  0  0
    3.4707    5.2372    5.2236 C   0  0  0  0  0  0  0  0  0  0  0  0
    3.0774    3.9859    5.6859 C   0  0  0  0  0  0  0  0  0  0  0  0
    2.2766    3.1775    4.8859 C   0  0  0  0  0  0  0  0  0  0  0  0
    4.3462    6.1160    6.1020 C   0  0  0  0  0  0  0  0  0  0  0  0
    3.5766    6.8840    6.8680 F   0  0  0  0  0  0  0  0  0  0  0  0
    5.1133    5.3493    6.8717 F   0  0  0  0  0  0  0  0  0  0  0  0
    5.1149    6.8838    5.3348 F   0  0  0  0  0  0  0  0  0  0  0  0
    0.7488   -0.9383   -0.9383 C   0  0  0  0  0  0  0  0  0  0  0  0
    1.3862   -1.9140   -1.9140 C   0  0  0  0  0  0  0  0  0  0  0  0
    0.2977   -2.6642   -2.6642 C   0  0  0  0  0  0  0  0  0  0  0  0
    0.8554   -3.5180   -3.5180 F   0  0  0  0  0  0  0  0  0  0  0  0
    0.4226    0.4226    1.5774 H   0  0  0  0  0  0  0  0  0  0  0  0
    0.4226    1.5774    0.4226 H   0  0  0  0  0  0  0  0  0  0  0  0
    2.4549    2.4549    1.3002 H   0  0  0  0  0  0  0  0  0  0  0  0
    3.2748    1.6351    3.2748 H   0  0  0  0  0  0  0  0  0  0  0  0
    0.4226    3.3325    2.1778 H   0  0  0  0  0  0  0  0  0  0  0  0
    0.4226    2.1778    3.3325 H   0  0  0  0  0  0  0  0  0  0  0  0
    1.9812    5.2018    2.2685 H   0  0  0  0  0  0  0  0  0  0  0  0
    3.3638    6.5931    3.6464 H   0  0  0  0  0  0  0  0  0  0  0  0
    3.3687    3.6691    6.5885 H   0  0  0  0  0  0  0  0  0  0  0  0
    1.9896    2.2756    5.2088 H   0  0  0  0  0  0  0  0  0  0  0  0
    0.1811   -0.2868   -1.4415 H   0  0  0  0  0  0  0  0  0  0  0  0
    0.1811   -1.4415   -0.2868 H   0  0  0  0  0  0  0  0  0  0  0  0
    1.9540   -2.5656   -1.4109 H   0  0  0  0  0  0  0  0  0  0  0  0
    1.9540   -1.4109   -2.5656 H   0  0  0  0  0  0  0  0  0  0  0  0
   -0.2700   -3.1674   -2.0127 H   0  0  0  0  0  0  0  0  0  0  0  0
   -0.2700   -2.0127   -3.1674 H   0  0  0  0  0  0  0  0  0  0  0  0
  1  2  1  0  0  0  0
  2  3  1  0  0  0  0
  3  4  1  0  0  0  0
  3  5  1  0  0  0  0
  5  6  1  0  0  0  0
  6  7  1  0  0  0  0
  7  8  2  0  0  0  0
  8  9  1  0  0  0  0
  9 10  2  0  0  0  0
 10 11  1  0  0  0  0
 11  6  2  0  0  0  0
  9 12  1  0  0  0  0
 12 13  1  0  0  0  0
 12 14  1  0  0  0  0
 12 15  1  0  0  0  0
  1 16  1  0  0  0  0
 16 17  1  0  0  0  0
 17 18  1  0  0  0  0
 18 19  1  0  0  0  0
  2 20  1  0  0  0  0
  2 21  1  0  0  0  0
  3 22  1  0  0  0  0
  4 23  1  0  0  0  0
  5 24  1  0  0  0  0
  5 25  1  0  0  0  0
  7 26  1  0  0  0  0
  8 27  1  0  0  0  0
 10 28  1  0  0  0  0
 11 29  1  0  0  0  0
 16 30  1  0  0  0  0
 16 31  1  0  0  0  0
 17 32  1  0  0  0  0
 17 33  1  0  0  0  0
 18 34  1  0  0  0  0
 18 35  1  0  0  0  0
M  END
>  <result-rank>
81

>  <similarity>
0.923

>  <query-name>
LIG_A_1101_CC(C)SC[R*]_1

>  <query-smiles>
S(C(C)C)CC(=O)[C@@H](NC(=O)C)Cc1ccc(O)cc1

>  <source>
REALspace_2019-12

>  <similarity-descriptor>
0.944;1.000;0.998;0.998;0.989;0.999;0.894;0.894;0.894;0.0;0.0;1.000;0.0;0.0

>  <similarity-descriptor-smiles>
c1ccc(cc1)C(F)(F)F;S;CC;CC;CF;C;CO;CO;CO;;;C;;

>  <reaction-name>
s_63

>  <reagent1-name>
17315394

>  <reagent1-smiles>
[R1*]SCCCF

>  <reagent2-name>
7593308

>  <reagent2-smiles>
[R1*]CC(O)Cc1ccc(cc1)C(F)(F)F

$$$$
s_22____13824052____17057108
          04022015093D 1   1.00000     0.00000     0
            
 60 60  0  0  0  0            999 V2000
    0.4000    1.0000   -0.0392 O   0  0  0  0  0  0  0  0  0  0  0  0
    1.0000    1.0000    1.0000 C   0  0  0  0  0  0  0  0  0  0  0  0
    0.3150    1.0000    2.1865 N   0  0  0  0  0  0  0  0  0  0  0  0
   -1.0885    0.5646    2.2248 C   0  0  0  0  0  0  0  0  0  0  0  0
   -1.1478   -0.9321    2.4831 C   0  0  0  0  0  0  0  0  0  0  0  0
   -2.5990   -1.3824    2.5228 C   0  0  0  0  0  0  0  0  0  0  0  0
   -2.6583   -2.8791    2.7811 C   0  0  0  0  0  0  0  0  0  0  0  0
   -4.1096   -3.3293    2.8208 C   0  0  0  0  0  0  0  0  0  0  0  0
   -1.9299   -3.6146    1.6681 C   0  0  0  0  0  0  0  0  0  0  0  0
    0.9835    1.4354    3.4211 C   0  0  0  0  0  0  0  0  0  0  0  0
    2.5200    1.0000    1.0000 C   0  0  3  0  0  0  0  0  0  0  0  0
    3.0100   -0.0617    0.1091 N   0  0  0  0  0  0  0  0  0  0  0  0
    3.7976   -1.0654    0.6082 C   0  0  0  0  0  0  0  0  0  0  0  0
    4.0138   -1.1286    1.7869 O   0  0  0  0  0  0  0  0  0  0  0  0
    4.3977   -2.0989   -0.3310 C   0  0  0  0  0  0  0  0  0  0  0  0
    4.4447   -3.4494    0.3650 C   0  0  0  0  0  0  0  0  0  0  0  0
    3.1526   -4.2033    0.0958 C   0  0  0  0  0  0  0  0  0  0  0  0
    5.6203   -4.2528   -0.1667 C   0  0  0  0  0  0  0  0  0  0  0  0
    3.0267    2.3466    0.5099 C   0  0  0  0  0  0  0  0  0  0  0  0
    4.3657    2.6519    1.1613 C   0  0  0  0  0  0  0  0  0  0  0  0
    4.3977    3.3376    2.3711 C   0  0  0  0  0  0  0  0  0  0  0  0
    5.6206    3.6185    2.9712 C   0  0  0  0  0  0  0  0  0  0  0  0
    6.7977    3.2087    2.3530 C   0  0  0  0  0  0  0  0  0  0  0  0
    7.9867    3.4795    2.9318 O   0  0  0  0  0  0  0  0  0  0  0  0
    6.7712    2.5229    1.1429 C   0  0  0  0  0  0  0  0  0  0  0  0
    5.5456    2.2444    0.5474 C   0  0  0  0  0  0  0  0  0  0  0  0
   -1.5251    0.7692    1.3487 H   0  0  0  0  0  0  0  0  0  0  0  0
   -1.5677    1.0485    2.9571 H   0  0  0  0  0  0  0  0  0  0  0  0
   -0.7112   -1.1367    3.3592 H   0  0  0  0  0  0  0  0  0  0  0  0
   -0.6686   -1.4160    1.7509 H   0  0  0  0  0  0  0  0  0  0  0  0
   -3.0782   -0.8985    3.2551 H   0  0  0  0  0  0  0  0  0  0  0  0
   -3.0356   -1.1777    1.6467 H   0  0  0  0  0  0  0  0  0  0  0  0
   -2.2218   -3.0837    3.6572 H   0  0  0  0  0  0  0  0  0  0  0  0
   -4.1486   -4.3140    2.9908 H   0  0  0  0  0  0  0  0  0  0  0  0
   -4.5888   -2.8454    3.5531 H   0  0  0  0  0  0  0  0  0  0  0  0
   -4.5461   -3.1247    1.9447 H   0  0  0  0  0  0  0  0  0  0  0  0
   -1.9689   -4.5992    1.8380 H   0  0  0  0  0  0  0  0  0  0  0  0
   -2.3665   -3.4099    0.7920 H   0  0  0  0  0  0  0  0  0  0  0  0
   -0.9752   -3.3184    1.6420 H   0  0  0  0  0  0  0  0  0  0  0  0
    0.3432    1.3729    4.1867 H   0  0  0  0  0  0  0  0  0  0  0  0
    1.7729    0.8475    3.5979 H   0  0  0  0  0  0  0  0  0  0  0  0
    1.2892    2.3820    3.3187 H   0  0  0  0  0  0  0  0  0  0  0  0
    2.8533    0.8363    1.9285 H   0  0  0  0  0  0  0  0  0  0  0  0
    2.7684   -0.0513   -0.8612 H   0  0  0  0  0  0  0  0  0  0  0  0
    5.3247   -1.8215   -0.5834 H   0  0  0  0  0  0  0  0  0  0  0  0
    3.8346   -2.1677   -1.1545 H   0  0  0  0  0  0  0  0  0  0  0  0
    4.5522   -3.3132    1.3498 H   0  0  0  0  0  0  0  0  0  0  0  0
    3.1835   -5.0918    0.5537 H   0  0  0  0  0  0  0  0  0  0  0  0
    2.3791   -3.6747    0.4456 H   0  0  0  0  0  0  0  0  0  0  0  0
    3.0451   -4.3395   -0.8890 H   0  0  0  0  0  0  0  0  0  0  0  0
    5.6512   -5.1413    0.2912 H   0  0  0  0  0  0  0  0  0  0  0  0
    5.5128   -4.3889   -1.1516 H   0  0  0  0  0  0  0  0  0  0  0  0
    6.4704   -3.7568    0.0104 H   0  0  0  0  0  0  0  0  0  0  0  0
    3.1378    2.3195   -0.4836 H   0  0  0  0  0  0  0  0  0  0  0  0
    2.3680    3.0589    0.7523 H   0  0  0  0  0  0  0  0  0  0  0  0
    3.5457    3.6273    2.8072 H   0  0  0  0  0  0  0  0  0  0  0  0
    5.6535    4.1113    3.8408 H   0  0  0  0  0  0  0  0  0  0  0  0
    8.8354    3.1870    2.4912 H   0  0  0  0  0  0  0  0  0  0  0  0
    7.6232    2.2336    0.7065 H   0  0  0  0  0  0  0  0  0  0  0  0
    5.5126    1.7512   -0.3219 H   0  0  0  0  0  0  0  0  0  0  0  0
  1  2  2  0  0  0  0
  2  3  1  0  0  0  0
  3  4  1  0  0  0  0
  4  5  1  0  0  0  0
  5  6  1  0  0  0  0
  6  7  1  0  0  0  0
  7  8  1  0  0  0  0
  7  9  1  0  0  0  0
  3 10  1  0  0  0  0
  2 11  1  0  0  0  0
 11 12  1  0  0  0  0
 12 13  1  0  0  0  0
 13 14  2  0  0  0  0
 13 15  1  0  0  0  0
 15 16  1  0  0  0  0
 16 17  1  0  0  0  0
 16 18  1  0  0  0  0
 11 19  1  0  0  0  0
 19 20  1  0  0  0  0
 20 21  1  0  0  0  0
 21 22  2  0  0  0  0
 22 23  1  0  0  0  0
 23 24  1  0  0  0  0
 23 25  2  0  0  0  0
 25 26  1  0  0  0  0
 26 20  2  0  0  0  0
  4 27  1  0  0  0  0
  4 28  1  0  0  0  0
  5 29  1  0  0  0  0
  5 30  1  0  0  0  0
  6 31  1  0  0  0  0
  6 32  1  0  0  0  0
  7 33  1  0  0  0  0
  8 34  1  0  0  0  0
  8 35  1  0  0  0  0
  8 36  1  0  0  0  0
  9 37  1  0  0  0  0
  9 38  1  0  0  0  0
  9 39  1  0  0  0  0
 10 40  1  0  0  0  0
 10 41  1  0  0  0  0
 10 42  1  0  0  0  0
 11 43  1  0  0  0  0
 12 44  1  0  0  0  0
 15 45  1  0  0  0  0
 15 46  1  0  0  0  0
 16 47  1  0  0  0  0
 17 48  1  0  0  0  0
 17 49  1  0  0  0  0
 17 50  1  0  0  0  0
 18 51  1  0  0  0  0
 18 52  1  0  0  0  0
 18 53  1  0  0  0  0
 19 54  1  0  0  0  0
 19 55  1  0  0  0  0
 21 56  1  0  0  0  0
 22 57  1  0  0  0  0
 24 58  1  0  0  0  0
 25 59  1  0  0  0  0
 26 60  1  0  0  0  0
M  END
>  <result-rank>
82

>  <similarity>
0.923

>  <query-name>
LIG_A_1101_CC(C)SC[R*]_1

>  <query-smiles>
S(C(C)C)CC(=O)[C@@H](NC(=O)C)Cc1ccc(O)cc1

>  <source>
REALspace_2019-12

>  <similarity-descriptor>
1.000;0.806;0.806;0.806;1.000;0.998;0.907;1.000;1.000;1.000;0.981;1.000;1.000;0.316

>  <similarity-descriptor-smiles>
c1ccccc1;CC;CC;CC;C;C;C=O;CN;CN;O=C;NC;C;O;C.C.C.C.C.C

>  <reaction-name>
s_22

>  <reagent1-name>
13824052

>  <reagent1-smiles>
[R1*]N(CCCC(C)C)C

>  <reagent2-name>
17057108

>  <reagent2-smiles>
[R1*]C(=O)C(NC(=O)CC(C)C)Cc1ccc(O)cc1

$$$$
s_240690b____7355900____14581486
          04022015093D 1   1.00000     0.00000     0
            
 45 46  0  0  0  0            999 V2000
    0.3116    0.6776    6.5861 S   0  0  0  0  0  0  0  0  0  0  0  0
   -0.2042   -0.2999    5.1581 C   0  0  0  0  0  0  0  0  0  0  0  0
    1.0004   -0.2121    4.2437 C   0  0  3  0  0  0  0  0  0  0  0  0
    0.9068   -1.2953    3.2561 N   0  3  0  0  0  0  0  0  0  0  0  0
    1.0707    1.1147    3.5003 C   0  0  0  0  0  0  0  0  0  0  0  0
    0.3150    1.0000    2.1865 C   0  0  0  0  0  0  0  0  0  0  0  0
   -0.8816    0.9094    2.1884 O   0  0  0  0  0  0  0  0  0  0  0  0
    1.0000    1.0000    1.0000 N   0  0  0  0  0  0  0  0  0  0  0  0
    2.4700    1.0000    1.0000 C   0  0  3  0  0  0  0  0  0  0  0  0
    2.9767   -0.2411    0.2835 C   0  0  0  0  0  0  0  0  0  0  0  0
    3.9272   -0.8352    0.7118 O   0  0  0  0  0  0  0  0  0  0  0  0
    2.3756   -0.6621   -0.8017 O   0  0  0  0  0  0  0  0  0  0  0  0
    2.8490   -1.8216   -1.4711 C   0  0  0  0  0  0  0  0  0  0  0  0
    2.9767    2.2411    0.2835 C   0  0  0  0  0  0  0  0  0  0  0  0
    2.4699    3.4824    1.0001 C   0  0  0  0  0  0  0  0  0  0  0  0
    1.2536    4.0450    0.6273 C   0  0  0  0  0  0  0  0  0  0  0  0
    0.7940    5.1813    1.2851 C   0  0  0  0  0  0  0  0  0  0  0  0
    1.5485    5.7457    2.3082 C   0  0  0  0  0  0  0  0  0  0  0  0
    2.7618    5.1749    2.6725 C   0  0  0  0  0  0  0  0  0  0  0  0
    3.2326    4.0390    2.0220 C   0  0  0  0  0  0  0  0  0  0  0  0
    2.2005   -0.4350    5.1505 C   0  0  0  0  0  0  0  0  0  0  0  0
    2.0889    0.4973    6.3404 C   0  0  0  0  0  0  0  0  0  0  0  0
    1.6946   -1.2550    2.6414 H   0  0  0  0  0  0  0  0  0  0  0  0
    0.8971   -2.1769    3.7281 H   0  0  0  0  0  0  0  0  0  0  0  0
    0.0650   -1.1916    2.7263 H   0  0  0  0  0  0  0  0  0  0  0  0
   -1.0152    0.0938    4.7252 H   0  0  0  0  0  0  0  0  0  0  0  0
   -0.3917   -1.2471    5.4179 H   0  0  0  0  0  0  0  0  0  0  0  0
    0.6580    1.8330    4.0606 H   0  0  0  0  0  0  0  0  0  0  0  0
    2.0266    1.3434    3.3162 H   0  0  0  0  0  0  0  0  0  0  0  0
    0.5000    1.0000    0.1340 H   0  0  0  0  0  0  0  0  0  0  0  0
    2.8033    1.0000    1.9428 H   0  0  0  0  0  0  0  0  0  0  0  0
    2.2791   -1.9992   -2.2734 H   0  0  0  0  0  0  0  0  0  0  0  0
    3.7954   -1.6767   -1.7598 H   0  0  0  0  0  0  0  0  0  0  0  0
    2.8057   -2.6052   -0.8514 H   0  0  0  0  0  0  0  0  0  0  0  0
    3.9767    2.2411    0.2835 H   0  0  0  0  0  0  0  0  0  0  0  0
    2.6433    2.2411   -0.6593 H   0  0  0  0  0  0  0  0  0  0  0  0
    0.7136    3.6357   -0.1081 H   0  0  0  0  0  0  0  0  0  0  0  0
   -0.0789    5.5924    1.0224 H   0  0  0  0  0  0  0  0  0  0  0  0
    1.2179    6.5622    2.7815 H   0  0  0  0  0  0  0  0  0  0  0  0
    3.3011    5.5840    3.4085 H   0  0  0  0  0  0  0  0  0  0  0  0
    4.1059    3.6288    2.2848 H   0  0  0  0  0  0  0  0  0  0  0  0
    3.0429   -0.2402    4.6481 H   0  0  0  0  0  0  0  0  0  0  0  0
    2.2124   -1.3838    5.4662 H   0  0  0  0  0  0  0  0  0  0  0  0
    2.5207    0.0962    7.1483 H   0  0  0  0  0  0  0  0  0  0  0  0
    2.5118    1.3812    6.1406 H   0  0  0  0  0  0  0  0  0  0  0  0
  1  2  1  0  0  0  0
  2  3  1  0  0  0  0
  3  4  1  0  0  0  0
  3  5  1  0  0  0  0
  5  6  1  0  0  0  0
  6  7  2  0  0  0  0
  6  8  1  0  0  0  0
  8  9  1  0  0  0  0
  9 10  1  0  0  0  0
 10 11  2  0  0  0  0
 10 12  1  0  0  0  0
 12 13  1  0  0  0  0
  9 14  1  0  0  0  0
 14 15  1  0  0  0  0
 15 16  1  0  0  0  0
 16 17  2  0  0  0  0
 17 18  1  0  0  0  0
 18 19  2  0  0  0  0
 19 20  1  0  0  0  0
 20 15  2  0  0  0  0
  3 21  1  0  0  0  0
 21 22  1  0  0  0  0
 22  1  1  0  0  0  0
  4 23  1  0  0  0  0
  4 24  1  0  0  0  0
  4 25  1  0  0  0  0
  2 26  1  0  0  0  0
  2 27  1  0  0  0  0
  5 28  1  0  0  0  0
  5 29  1  0  0  0  0
  8 30  1  0  0  0  0
  9 31  1  0  0  0  0
 13 32  1  0  0  0  0
 13 33  1  0  0  0  0
 13 34  1  0  0  0  0
 14 35  1  0  0  0  0
 14 36  1  0  0  0  0
 16 37  1  0  0  0  0
 17 38  1  0  0  0  0
 18 39  1  0  0  0  0
 19 40  1  0  0  0  0
 20 41  1  0  0  0  0
 21 42  1  0  0  0  0
 21 43  1  0  0  0  0
 22 44  1  0  0  0  0
 22 45  1  0  0  0  0
M  CHG  1   4   1
M  END
>  <result-rank>
83

>  <similarity>
0.923

>  <query-name>
LIG_A_1101_CC(C)SC[R*]_1

>  <query-smiles>
S(C(C)C)CC(=O)[C@@H](NC(=O)C)Cc1ccc(O)cc1

>  <source>
REALspace_2019-12

>  <similarity-descriptor>
0.960;0.897;0.897;0.897;0.897;0.998;0.907;1.000;1.000;0.855;0.994;1.000;0.0;0.091

>  <similarity-descriptor-smiles>
c1ccccc1;S1CCCC1;S1CCCC1;S1CCCC1;S1CCCC1;C;C=O;NC;NC;C(=O)O;C;C;;[NH3+]

>  <reaction-name>
s_240690b

>  <reagent1-name>
7355900

>  <reagent1-smiles>
[R1*]NC(C(=O)OC)Cc1ccccc1

>  <reagent2-name>
14581486

>  <reagent2-smiles>
[R1*]C(=O)CC1(N)CSCC1

$$$$
s_1458____17513454____13763134
          04022015093D 1   1.00000     0.00000     0
            
 48 49  0  0  0  0            999 V2000
    0.9450    1.0000    3.1737 O   0  0  0  0  0  0  0  0  0  0  0  0
    0.3450    1.0000    2.1345 C   0  0  0  0  0  0  0  0  0  0  0  0
    1.0000    1.0000    1.0000 O   0  0  0  0  0  0  0  0  0  0  0  0
    2.4200    1.0000    1.0000 C   0  0  0  0  0  0  0  0  0  0  0  0
    2.9267   -0.4331    1.0000 C   0  0  0  0  0  0  0  0  0  0  0  0
    4.4467   -0.4331    1.0000 C   0  0  0  0  0  0  0  0  0  0  0  0
    4.9533   -1.8661    1.0000 C   0  0  0  0  0  0  0  0  0  0  0  0
    6.4740   -1.8661    1.0000 C   0  0  0  0  0  0  0  0  0  0  0  0
    7.0114   -1.1655    2.2136 C   0  0  0  0  0  0  0  0  0  0  0  0
    7.0475   -0.4839    0.8758 C   0  0  0  0  0  0  0  0  0  0  0  0
   -1.1750    1.0000    2.1345 C   0  0  3  0  0  0  0  0  0  0  0  0
   -1.6650    1.0000    3.5204 N   0  0  0  0  0  0  0  0  0  0  0  0
   -2.4526    2.0275    3.9685 C   0  0  0  0  0  0  0  0  0  0  0  0
   -2.7425    2.9275    3.2296 O   0  0  0  0  0  0  0  0  0  0  0  0
   -2.9593    2.0275    5.4016 C   0  0  0  0  0  0  0  0  0  0  0  0
   -1.6817   -0.2411    1.4180 C   0  0  0  0  0  0  0  0  0  0  0  0
   -3.2017   -0.2411    1.4180 C   0  0  0  0  0  0  0  0  0  0  0  0
   -3.8861    0.3644    0.3692 C   0  0  0  0  0  0  0  0  0  0  0  0
   -5.2769    0.3662    0.3646 C   0  0  0  0  0  0  0  0  0  0  0  0
   -5.9666   -0.2391    1.4104 C   0  0  0  0  0  0  0  0  0  0  0  0
   -7.3164   -0.2393    1.4101 O   0  0  0  0  0  0  0  0  0  0  0  0
   -5.2870   -0.8457    2.4618 C   0  0  0  0  0  0  0  0  0  0  0  0
   -3.8962   -0.8449    2.4611 C   0  0  0  0  0  0  0  0  0  0  0  0
    2.7533    1.4714    1.8165 H   0  0  0  0  0  0  0  0  0  0  0  0
    2.7533    1.4714    0.1835 H   0  0  0  0  0  0  0  0  0  0  0  0
    2.5933   -0.9045    0.1835 H   0  0  0  0  0  0  0  0  0  0  0  0
    2.5933   -0.9045    1.8165 H   0  0  0  0  0  0  0  0  0  0  0  0
    4.7800    0.0383    0.1835 H   0  0  0  0  0  0  0  0  0  0  0  0
    4.7800    0.0383    1.8165 H   0  0  0  0  0  0  0  0  0  0  0  0
    4.6200   -2.3375    1.8165 H   0  0  0  0  0  0  0  0  0  0  0  0
    4.6200   -2.3375    0.1835 H   0  0  0  0  0  0  0  0  0  0  0  0
    6.9700   -2.6453    0.6167 H   0  0  0  0  0  0  0  0  0  0  0  0
    7.8607   -1.4802    2.6374 H   0  0  0  0  0  0  0  0  0  0  0  0
    6.3848   -0.8421    2.9227 H   0  0  0  0  0  0  0  0  0  0  0  0
    6.4449    0.2931    0.6940 H   0  0  0  0  0  0  0  0  0  0  0  0
    7.9207   -0.3449    0.4088 H   0  0  0  0  0  0  0  0  0  0  0  0
   -1.5083    1.8165    1.6631 H   0  0  0  0  0  0  0  0  0  0  0  0
   -1.4234    0.2500    4.1362 H   0  0  0  0  0  0  0  0  0  0  0  0
   -2.6260    1.2110    5.8730 H   0  0  0  0  0  0  0  0  0  0  0  0
   -2.6260    2.8440    5.8730 H   0  0  0  0  0  0  0  0  0  0  0  0
   -3.9593    2.0275    5.4016 H   0  0  0  0  0  0  0  0  0  0  0  0
   -1.3483   -0.2411    0.4751 H   0  0  0  0  0  0  0  0  0  0  0  0
   -1.3483   -1.0576    1.8894 H   0  0  0  0  0  0  0  0  0  0  0  0
   -3.3806    0.7963   -0.3777 H   0  0  0  0  0  0  0  0  0  0  0  0
   -5.7776    0.7993   -0.3849 H   0  0  0  0  0  0  0  0  0  0  0  0
   -7.8165   -0.6731    2.1596 H   0  0  0  0  0  0  0  0  0  0  0  0
   -5.7924   -1.2771    3.2091 H   0  0  0  0  0  0  0  0  0  0  0  0
   -3.3955   -1.2783    3.2104 H   0  0  0  0  0  0  0  0  0  0  0  0
  1  2  2  0  0  0  0
  2  3  1  0  0  0  0
  3  4  1  0  0  0  0
  4  5  1  0  0  0  0
  5  6  1  0  0  0  0
  6  7  1  0  0  0  0
  7  8  1  0  0  0  0
  8  9  1  0  0  0  0
  9 10  1  0  0  0  0
 10  8  1  0  0  0  0
  2 11  1  0  0  0  0
 11 12  1  0  0  0  0
 12 13  1  0  0  0  0
 13 14  2  0  0  0  0
 13 15  1  0  0  0  0
 11 16  1  0  0  0  0
 16 17  1  0  0  0  0
 17 18  1  0  0  0  0
 18 19  2  0  0  0  0
 19 20  1  0  0  0  0
 20 21  1  0  0  0  0
 20 22  2  0  0  0  0
 22 23  1  0  0  0  0
 23 17  2  0  0  0  0
  4 24  1  0  0  0  0
  4 25  1  0  0  0  0
  5 26  1  0  0  0  0
  5 27  1  0  0  0  0
  6 28  1  0  0  0  0
  6 29  1  0  0  0  0
  7 30  1  0  0  0  0
  7 31  1  0  0  0  0
  8 32  1  0  0  0  0
  9 33  1  0  0  0  0
  9 34  1  0  0  0  0
 10 35  1  0  0  0  0
 10 36  1  0  0  0  0
 11 37  1  0  0  0  0
 12 38  1  0  0  0  0
 15 39  1  0  0  0  0
 15 40  1  0  0  0  0
 15 41  1  0  0  0  0
 16 42  1  0  0  0  0
 16 43  1  0  0  0  0
 18 44  1  0  0  0  0
 19 45  1  0  0  0  0
 21 46  1  0  0  0  0
 22 47  1  0  0  0  0
 23 48  1  0  0  0  0
M  END
>  <result-rank>
84

>  <similarity>
0.923

>  <query-name>
LIG_A_1101_CC(C)SC[R*]_1

>  <query-smiles>
S(C(C)C)CC(=O)[C@@H](NC(=O)C)Cc1ccc(O)cc1

>  <source>
REALspace_2019-12

>  <similarity-descriptor>
1.000;0.682;0.997;0.997;0.949;0.682;0.766;1.000;1.000;1.000;1.000;1.000;1.000;0.071

>  <similarity-descriptor-smiles>
c1ccccc1;C;CC;CC;C;C;O=CO;C;N;C=O;C;C;O;C1CC1

>  <reaction-name>
s_1458

>  <reagent1-name>
17513454

>  <reagent1-smiles>
[R1*]OC(=O)C(NC(=O)C)Cc1ccc(O)cc1

>  <reagent2-name>
13763134

>  <reagent2-smiles>
[R1*]CCCCC1CC1

$$$$
s_1458____17513454____9433362
          04022015093D 1   1.00000     0.00000     0
            
 48 48  0  0  0  0            999 V2000
    1.8516   -1.3886    1.6855 O   0  0  0  0  0  0  0  0  0  0  0  0
    2.1980   -1.0002    0.6042 C   0  0  0  0  0  0  0  0  0  0  0  0
    1.8198    0.1802    0.1802 O   0  0  0  0  0  0  0  0  0  0  0  0
    1.0000    1.0000    1.0000 C   0  0  0  0  0  0  0  0  0  0  0  0
    1.8776    1.8776    1.8776 C   0  0  0  0  0  0  0  0  0  0  0  0
    1.0000    2.7551    2.7551 C   0  0  0  0  0  0  0  0  0  0  0  0
    1.8776    3.6327    3.6327 C   0  0  0  0  0  0  0  0  0  0  0  0
    2.7551    2.7551    4.5103 C   0  0  0  0  0  0  0  0  0  0  0  0
    3.6327    3.6327    5.3879 C   0  0  0  0  0  0  0  0  0  0  0  0
    3.5484    3.5484    6.6824 C   0  0  0  0  0  0  0  0  0  0  0  0
    3.0756   -1.8778   -0.2734 C   0  0  3  0  0  0  0  0  0  0  0  0
    3.3585   -3.1407    0.4237 N   0  0  0  0  0  0  0  0  0  0  0  0
    2.9743   -4.3317   -0.1336 C   0  0  0  0  0  0  0  0  0  0  0  0
    2.4068   -4.3441   -1.1909 O   0  0  0  0  0  0  0  0  0  0  0  0
    3.2668   -5.6376    0.5872 C   0  0  0  0  0  0  0  0  0  0  0  0
    4.3814   -1.1570   -0.5659 C   0  0  0  0  0  0  0  0  0  0  0  0
    5.2590   -2.0346   -1.4435 C   0  0  0  0  0  0  0  0  0  0  0  0
    5.1598   -1.9353   -2.8274 C   0  0  0  0  0  0  0  0  0  0  0  0
    5.9613   -2.7358   -3.6344 C   0  0  0  0  0  0  0  0  0  0  0  0
    6.8537   -3.6264   -3.0459 C   0  0  0  0  0  0  0  0  0  0  0  0
    7.6332   -4.4054   -3.8254 O   0  0  0  0  0  0  0  0  0  0  0  0
    6.9566   -3.7298   -1.6625 C   0  0  0  0  0  0  0  0  0  0  0  0
    6.1530   -2.9267   -0.8603 C   0  0  0  0  0  0  0  0  0  0  0  0
    0.4226    0.4226    1.5774 H   0  0  0  0  0  0  0  0  0  0  0  0
    0.4226    1.5774    0.4226 H   0  0  0  0  0  0  0  0  0  0  0  0
    2.4549    2.4549    1.3002 H   0  0  0  0  0  0  0  0  0  0  0  0
    2.4549    1.3002    2.4549 H   0  0  0  0  0  0  0  0  0  0  0  0
    0.4226    2.1778    3.3325 H   0  0  0  0  0  0  0  0  0  0  0  0
    0.4226    3.3325    2.1778 H   0  0  0  0  0  0  0  0  0  0  0  0
    2.4549    4.2101    3.0554 H   0  0  0  0  0  0  0  0  0  0  0  0
    1.3002    4.2101    4.2101 H   0  0  0  0  0  0  0  0  0  0  0  0
    2.1778    2.1778    5.0876 H   0  0  0  0  0  0  0  0  0  0  0  0
    3.3325    2.1778    3.9329 H   0  0  0  0  0  0  0  0  0  0  0  0
    4.2749    4.2749    4.9694 H   0  0  0  0  0  0  0  0  0  0  0  0
    4.1257    4.1257    7.2597 H   0  0  0  0  0  0  0  0  0  0  0  0
    2.9061    2.9061    7.1008 H   0  0  0  0  0  0  0  0  0  0  0  0
    2.6014   -2.0702   -1.1325 H   0  0  0  0  0  0  0  0  0  0  0  0
    3.8314   -3.1304    1.3048 H   0  0  0  0  0  0  0  0  0  0  0  0
    3.7410   -5.4451    1.4463 H   0  0  0  0  0  0  0  0  0  0  0  0
    2.4077   -6.1118    0.7796 H   0  0  0  0  0  0  0  0  0  0  0  0
    3.8441   -6.2149    0.0098 H   0  0  0  0  0  0  0  0  0  0  0  0
    4.1890   -0.2979   -1.0401 H   0  0  0  0  0  0  0  0  0  0  0  0
    4.8556   -0.9645    0.2932 H   0  0  0  0  0  0  0  0  0  0  0  0
    4.5153   -1.2916   -3.2400 H   0  0  0  0  0  0  0  0  0  0  0  0
    5.8967   -2.6716   -4.6302 H   0  0  0  0  0  0  0  0  0  0  0  0
    8.2761   -5.0470   -3.4070 H   0  0  0  0  0  0  0  0  0  0  0  0
    7.6007   -4.3739   -1.2497 H   0  0  0  0  0  0  0  0  0  0  0  0
    6.2178   -2.9905    0.1356 H   0  0  0  0  0  0  0  0  0  0  0  0
  1  2  2  0  0  0  0
  2  3  1  0  0  0  0
  3  4  1  0  0  0  0
  4  5  1  0  0  0  0
  5  6  1  0  0  0  0
  6  7  1  0  0  0  0
  7  8  1  0  0  0  0
  8  9  1  0  0  0  0
  9 10  2  0  0  0  0
  2 11  1  0  0  0  0
 11 12  1  0  0  0  0
 12 13  1  0  0  0  0
 13 14  2  0  0  0  0
 13 15  1  0  0  0  0
 11 16  1  0  0  0  0
 16 17  1  0  0  0  0
 17 18  1  0  0  0  0
 18 19  2  0  0  0  0
 19 20  1  0  0  0  0
 20 21  1  0  0  0  0
 20 22  2  0  0  0  0
 22 23  1  0  0  0  0
 23 17  2  0  0  0  0
  4 24  1  0  0  0  0
  4 25  1  0  0  0  0
  5 26  1  0  0  0  0
  5 27  1  0  0  0  0
  6 28  1  0  0  0  0
  6 29  1  0  0  0  0
  7 30  1  0  0  0  0
  7 31  1  0  0  0  0
  8 32  1  0  0  0  0
  8 33  1  0  0  0  0
  9 34  1  0  0  0  0
 10 35  1  0  0  0  0
 10 36  1  0  0  0  0
 11 37  1  0  0  0  0
 12 38  1  0  0  0  0
 15 39  1  0  0  0  0
 15 40  1  0  0  0  0
 15 41  1  0  0  0  0
 16 42  1  0  0  0  0
 16 43  1  0  0  0  0
 18 44  1  0  0  0  0
 19 45  1  0  0  0  0
 21 46  1  0  0  0  0
 22 47  1  0  0  0  0
 23 48  1  0  0  0  0
M  END
>  <result-rank>
85

>  <similarity>
0.923

>  <query-name>
LIG_A_1101_CC(C)SC[R*]_1

>  <query-smiles>
S(C(C)C)CC(=O)[C@@H](NC(=O)C)Cc1ccc(O)cc1

>  <source>
REALspace_2019-12

>  <similarity-descriptor>
1.000;0.805;0.805;0.805;0.949;0.994;0.766;1.000;1.000;1.000;1.000;1.000;1.000;0.188

>  <similarity-descriptor-smiles>
c1ccccc1;CC;CC;CC;C;C;O=CO;C;N;C=O;C;C;O;C.C.C

>  <reaction-name>
s_1458

>  <reagent1-name>
17513454

>  <reagent1-smiles>
[R1*]OC(=O)C(NC(=O)C)Cc1ccc(O)cc1

>  <reagent2-name>
9433362

>  <reagent2-smiles>
[R1*]CCCCCC=C

$$$$
s_11a____2496944____548058
          04022015093D 1   1.00000     0.00000     0
            
 49 50  0  0  0  0            999 V2000
    3.1233   -0.7065    1.0000 S   0  0  0  0  0  0  0  0  0  0  0  0
    4.9032   -0.3775    1.0000 C   0  0  0  0  0  0  0  0  0  0  0  0
    5.6619   -1.6947    1.0000 C   0  0  0  0  0  0  0  0  0  0  0  0
    5.2712    0.4192   -0.2411 C   0  0  0  0  0  0  0  0  0  0  0  0
    2.5200    1.0000    1.0000 C   0  0  0  0  0  0  0  0  0  0  0  0
    1.0000    1.0000    1.0000 C   0  0  0  0  0  0  0  0  0  0  0  0
    0.4000    1.0000   -0.0392 O   0  0  0  0  0  0  0  0  0  0  0  0
    0.3150    1.0000    2.1865 N   0  0  0  0  0  0  0  0  0  0  0  0
   -1.1550    1.0000    2.1865 C   0  0  3  0  0  0  0  0  0  0  0  0
   -1.6617    1.7165    3.4275 C   0  0  0  0  0  0  0  0  0  0  0  0
   -1.8617    1.0994    4.4370 O   0  0  0  0  0  0  0  0  0  0  0  0
   -1.8955    3.0995    3.3928 N   0  0  0  0  0  0  0  0  0  0  0  0
   -2.3817    3.9128    4.5112 C   0  0  0  0  0  0  0  0  0  0  0  0
   -1.7866    5.2876    4.2782 C   0  0  0  0  0  0  0  0  0  0  0  0
   -1.4057    5.3496    2.8092 C   0  0  0  0  0  0  0  0  0  0  0  0
   -1.7030    3.9781    2.2337 C   0  0  0  0  0  0  0  0  0  0  0  0
   -1.6617   -0.4331    2.1865 C   0  0  0  0  0  0  0  0  0  0  0  0
   -3.1704   -0.4372    1.9994 C   0  0  0  0  0  0  0  0  0  0  0  0
   -3.7097   -0.1773    0.7438 C   0  0  0  0  0  0  0  0  0  0  0  0
   -5.0908   -0.1812    0.5771 C   0  0  0  0  0  0  0  0  0  0  0  0
   -5.9214   -0.4449    1.6612 C   0  0  0  0  0  0  0  0  0  0  0  0
   -5.3715   -0.7036    2.9107 C   0  0  0  0  0  0  0  0  0  0  0  0
   -3.9921   -0.7019    3.0904 C   0  0  0  0  0  0  0  0  0  0  0  0
    5.1453    0.1466    1.8165 H   0  0  0  0  0  0  0  0  0  0  0  0
    6.6452   -1.5129    1.0000 H   0  0  0  0  0  0  0  0  0  0  0  0
    5.4198   -2.2188    1.8165 H   0  0  0  0  0  0  0  0  0  0  0  0
    5.4198   -2.2188    0.1835 H   0  0  0  0  0  0  0  0  0  0  0  0
    6.2545    0.6009   -0.2411 H   0  0  0  0  0  0  0  0  0  0  0  0
    5.0291   -0.1050   -1.0576 H   0  0  0  0  0  0  0  0  0  0  0  0
    4.7721    1.2857   -0.2411 H   0  0  0  0  0  0  0  0  0  0  0  0
    2.8533    1.4714    0.1835 H   0  0  0  0  0  0  0  0  0  0  0  0
    2.8533    1.4714    1.8165 H   0  0  0  0  0  0  0  0  0  0  0  0
    0.8150    1.0000    3.0525 H   0  0  0  0  0  0  0  0  0  0  0  0
   -1.4883    1.4714    1.3700 H   0  0  0  0  0  0  0  0  0  0  0  0
   -2.0681    3.5364    5.3830 H   0  0  0  0  0  0  0  0  0  0  0  0
   -3.3808    3.9562    4.5070 H   0  0  0  0  0  0  0  0  0  0  0  0
   -0.9767    5.4150    4.8507 H   0  0  0  0  0  0  0  0  0  0  0  0
   -2.4598    5.9960    4.4906 H   0  0  0  0  0  0  0  0  0  0  0  0
   -1.9477    6.0468    2.3401 H   0  0  0  0  0  0  0  0  0  0  0  0
   -0.4333    5.5622    2.7124 H   0  0  0  0  0  0  0  0  0  0  0  0
   -2.5318    4.0059    1.6748 H   0  0  0  0  0  0  0  0  0  0  0  0
   -0.9361    3.6590    1.6769 H   0  0  0  0  0  0  0  0  0  0  0  0
   -1.2317   -0.9387    1.4385 H   0  0  0  0  0  0  0  0  0  0  0  0
   -1.4326   -0.8676    3.0575 H   0  0  0  0  0  0  0  0  0  0  0  0
   -3.1091    0.0108   -0.0333 H   0  0  0  0  0  0  0  0  0  0  0  0
   -5.4864    0.0056   -0.3221 H   0  0  0  0  0  0  0  0  0  0  0  0
   -6.9142   -0.4483    1.5413 H   0  0  0  0  0  0  0  0  0  0  0  0
   -5.9724   -0.8925    3.6873 H   0  0  0  0  0  0  0  0  0  0  0  0
   -3.5972   -0.8883    3.9900 H   0  0  0  0  0  0  0  0  0  0  0  0
  1  2  1  0  0  0  0
  2  3  1  0  0  0  0
  2  4  1  0  0  0  0
  1  5  1  0  0  0  0
  5  6  1  0  0  0  0
  6  7  2  0  0  0  0
  6  8  1  0  0  0  0
  8  9  1  0  0  0  0
  9 10  1  0  0  0  0
 10 11  2  0  0  0  0
 10 12  1  0  0  0  0
 12 13  1  0  0  0  0
 13 14  1  0  0  0  0
 14 15  1  0  0  0  0
 15 16  1  0  0  0  0
 16 12  1  0  0  0  0
  9 17  1  0  0  0  0
 17 18  1  0  0  0  0
 18 19  1  0  0  0  0
 19 20  2  0  0  0  0
 20 21  1  0  0  0  0
 21 22  2  0  0  0  0
 22 23  1  0  0  0  0
 23 18  2  0  0  0  0
  2 24  1  0  0  0  0
  3 25  1  0  0  0  0
  3 26  1  0  0  0  0
  3 27  1  0  0  0  0
  4 28  1  0  0  0  0
  4 29  1  0  0  0  0
  4 30  1  0  0  0  0
  5 31  1  0  0  0  0
  5 32  1  0  0  0  0
  8 33  1  0  0  0  0
  9 34  1  0  0  0  0
 13 35  1  0  0  0  0
 13 36  1  0  0  0  0
 14 37  1  0  0  0  0
 14 38  1  0  0  0  0
 15 39  1  0  0  0  0
 15 40  1  0  0  0  0
 16 41  1  0  0  0  0
 16 42  1  0  0  0  0
 17 43  1  0  0  0  0
 17 44  1  0  0  0  0
 19 45  1  0  0  0  0
 20 46  1  0  0  0  0
 21 47  1  0  0  0  0
 22 48  1  0  0  0  0
 23 49  1  0  0  0  0
M  END
>  <result-rank>
86

>  <similarity>
0.923

>  <query-name>
LIG_A_1101_CC(C)SC[R*]_1

>  <query-smiles>
S(C(C)C)CC(=O)[C@@H](NC(=O)C)Cc1ccc(O)cc1

>  <source>
REALspace_2019-12

>  <similarity-descriptor>
0.960;1.000;1.000;1.000;1.000;1.000;0.907;1.000;1.000;1.000;0.0;1.000;0.0;0.083

>  <similarity-descriptor-smiles>
c1ccccc1;S;C;C;C;C;C=O;NC;NC;C=O;;C;;N1CCCC1

>  <reaction-name>
s_11a

>  <reagent1-name>
2496944

>  <reagent1-smiles>
[R1*]NC(C(=O)N1CCCC1)Cc2ccccc2

>  <reagent2-name>
548058

>  <reagent2-smiles>
[R1*]C(=O)CSC(C)C

$$$$
s_22____11566452____548060
          04022015093D 1   1.00000     0.00000     0
            
 49 49  0  0  0  0            999 V2000
   -1.8083   -0.7065    2.1865 S   0  0  0  0  0  0  0  0  0  0  0  0
   -3.5882   -0.3775    2.1865 C   0  0  0  0  0  0  0  0  0  0  0  0
   -4.3469   -1.6947    2.1865 C   0  0  0  0  0  0  0  0  0  0  0  0
   -3.9562    0.4192    3.4275 C   0  0  0  0  0  0  0  0  0  0  0  0
   -1.2050    1.0000    2.1865 C   0  0  0  0  0  0  0  0  0  0  0  0
    0.3150    1.0000    2.1865 C   0  0  0  0  0  0  0  0  0  0  0  0
    0.9150    1.0000    3.2257 O   0  0  0  0  0  0  0  0  0  0  0  0
    1.0000    1.0000    1.0000 N   0  0  0  0  0  0  0  0  0  0  0  0
    2.4700    1.0000    1.0000 C   0  0  0  0  0  0  0  0  0  0  0  0
    2.9767   -0.4113    1.2488 C   0  0  3  0  0  0  0  0  0  0  0  0
    4.4967   -0.4113    1.2488 C   0  0  0  0  0  0  0  0  0  0  0  0
    5.0967   -0.7667    2.2254 O   0  0  0  0  0  0  0  0  0  0  0  0
    5.1817   -0.0055    0.1339 N   0  0  0  0  0  0  0  0  0  0  0  0
    6.6517   -0.0055    0.1339 C   0  0  0  0  0  0  0  0  0  0  0  0
    2.4700   -1.3325    0.1511 C   0  0  0  0  0  0  0  0  0  0  0  0
    2.9765   -2.7434    0.3998 C   0  0  0  0  0  0  0  0  0  0  0  0
    2.2070   -3.6081    1.1702 C   0  0  0  0  0  0  0  0  0  0  0  0
    2.6743   -4.8985    1.3945 C   0  0  0  0  0  0  0  0  0  0  0  0
    1.9588   -5.7469    2.1269 F   0  0  0  0  0  0  0  0  0  0  0  0
    3.8889   -5.3128    0.8562 C   0  0  0  0  0  0  0  0  0  0  0  0
    4.3338   -6.5682    1.0799 O   0  0  0  0  0  0  0  0  0  0  0  0
    5.5733   -6.9906    0.5305 C   0  0  0  0  0  0  0  0  0  0  0  0
    4.6545   -4.4436    0.0860 C   0  0  0  0  0  0  0  0  0  0  0  0
    4.1914   -3.1517   -0.1410 C   0  0  0  0  0  0  0  0  0  0  0  0
   -3.8303    0.1466    1.3700 H   0  0  0  0  0  0  0  0  0  0  0  0
   -5.3302   -1.5129    2.1865 H   0  0  0  0  0  0  0  0  0  0  0  0
   -4.1048   -2.2188    1.3700 H   0  0  0  0  0  0  0  0  0  0  0  0
   -4.1048   -2.2188    3.0030 H   0  0  0  0  0  0  0  0  0  0  0  0
   -4.9395    0.6009    3.4275 H   0  0  0  0  0  0  0  0  0  0  0  0
   -3.7141   -0.1050    4.2440 H   0  0  0  0  0  0  0  0  0  0  0  0
   -3.4571    1.2857    3.4275 H   0  0  0  0  0  0  0  0  0  0  0  0
   -1.5383    1.4714    3.0030 H   0  0  0  0  0  0  0  0  0  0  0  0
   -1.5383    1.4714    1.3700 H   0  0  0  0  0  0  0  0  0  0  0  0
    0.5000    1.0000    0.1340 H   0  0  0  0  0  0  0  0  0  0  0  0
    2.8033    1.6060    1.7222 H   0  0  0  0  0  0  0  0  0  0  0  0
    2.8033    1.3225    0.1140 H   0  0  0  0  0  0  0  0  0  0  0  0
    2.6433   -0.7338    2.1348 H   0  0  0  0  0  0  0  0  0  0  0  0
    4.6817    0.2907   -0.6799 H   0  0  0  0  0  0  0  0  0  0  0  0
    6.9850    0.3170   -0.7520 H   0  0  0  0  0  0  0  0  0  0  0  0
    6.9850    0.6005    0.8562 H   0  0  0  0  0  0  0  0  0  0  0  0
    6.9850   -0.9340    0.2977 H   0  0  0  0  0  0  0  0  0  0  0  0
    1.4700   -1.3325    0.1511 H   0  0  0  0  0  0  0  0  0  0  0  0
    2.8033   -1.0100   -0.7349 H   0  0  0  0  0  0  0  0  0  0  0  0
    1.3344   -3.3079    1.5555 H   0  0  0  0  0  0  0  0  0  0  0  0
    5.7478   -7.9398    0.7924 H   0  0  0  0  0  0  0  0  0  0  0  0
    5.5369   -6.9212   -0.4664 H   0  0  0  0  0  0  0  0  0  0  0  0
    6.3079   -6.4083    0.8786 H   0  0  0  0  0  0  0  0  0  0  0  0
    5.5270   -4.7437   -0.2997 H   0  0  0  0  0  0  0  0  0  0  0  0
    4.7317   -2.5165   -0.6930 H   0  0  0  0  0  0  0  0  0  0  0  0
  1  2  1  0  0  0  0
  2  3  1  0  0  0  0
  2  4  1  0  0  0  0
  1  5  1  0  0  0  0
  5  6  1  0  0  0  0
  6  7  2  0  0  0  0
  6  8  1  0  0  0  0
  8  9  1  0  0  0  0
  9 10  1  0  0  0  0
 10 11  1  0  0  0  0
 11 12  2  0  0  0  0
 11 13  1  0  0  0  0
 13 14  1  0  0  0  0
 10 15  1  0  0  0  0
 15 16  1  0  0  0  0
 16 17  1  0  0  0  0
 17 18  2  0  0  0  0
 18 19  1  0  0  0  0
 18 20  1  0  0  0  0
 20 21  1  0  0  0  0
 21 22  1  0  0  0  0
 20 23  2  0  0  0  0
 23 24  1  0  0  0  0
 24 16  2  0  0  0  0
  2 25  1  0  0  0  0
  3 26  1  0  0  0  0
  3 27  1  0  0  0  0
  3 28  1  0  0  0  0
  4 29  1  0  0  0  0
  4 30  1  0  0  0  0
  4 31  1  0  0  0  0
  5 32  1  0  0  0  0
  5 33  1  0  0  0  0
  8 34  1  0  0  0  0
  9 35  1  0  0  0  0
  9 36  1  0  0  0  0
 10 37  1  0  0  0  0
 13 38  1  0  0  0  0
 14 39  1  0  0  0  0
 14 40  1  0  0  0  0
 14 41  1  0  0  0  0
 15 42  1  0  0  0  0
 15 43  1  0  0  0  0
 17 44  1  0  0  0  0
 22 45  1  0  0  0  0
 22 46  1  0  0  0  0
 22 47  1  0  0  0  0
 23 48  1  0  0  0  0
 24 49  1  0  0  0  0
M  END
>  <result-rank>
87

>  <similarity>
0.922

>  <query-name>
LIG_A_1101_CC(C)SC[R*]_1

>  <query-smiles>
S(C(C)C)CC(=O)[C@@H](NC(=O)C)Cc1ccc(O)cc1

>  <source>
REALspace_2019-12

>  <similarity-descriptor>
0.965;1.000;1.000;1.000;1.000;1.000;0.907;0.824;0.824;0.852;0.995;1.000;0.704;0.063

>  <similarity-descriptor-smiles>
c1cccc(c1)F;S;C;C;C;C;C=O;NCC;NCC;C(=O)N;C;C;O;C

>  <reaction-name>
s_22

>  <reagent1-name>
11566452

>  <reagent1-smiles>
[R1*]NCC(C(=O)NC)Cc1cc(F)c(OC)cc1

>  <reagent2-name>
548060

>  <reagent2-smiles>
[R1*]C(=O)CSC(C)C

$$$$
s_240690b____13611768____14577254
          04022015093D 1   1.00000     0.00000     0
            
 42 42  0  0  0  0            999 V2000
    7.2786   -0.4345    3.3613 F   0  0  0  0  0  0  0  0  0  0  0  0
    6.6093   -0.4339    2.2119 C   0  0  0  0  0  0  0  0  0  0  0  0
    7.3108   -0.4351    1.0100 C   0  0  0  0  0  0  0  0  0  0  0  0
    8.7308   -0.4359    1.0163 O   0  0  0  0  0  0  0  0  0  0  0  0
    6.6328   -0.4354   -0.2046 C   0  0  0  0  0  0  0  0  0  0  0  0
    5.2418   -0.4344   -0.2047 C   0  0  0  0  0  0  0  0  0  0  0  0
    4.5463   -0.4331    1.0000 C   0  0  0  0  0  0  0  0  0  0  0  0
    5.2188   -0.4331    2.2171 C   0  0  0  0  0  0  0  0  0  0  0  0
    3.0267   -0.4331    1.0000 C   0  0  0  0  0  0  0  0  0  0  0  0
    2.5200    1.0000    1.0000 C   0  0  3  0  0  0  0  0  0  0  0  0
    3.0100    1.6930   -0.2002 N   0  3  0  0  0  0  0  0  0  0  0  0
    1.0000    1.0000    1.0000 C   0  0  0  0  0  0  0  0  0  0  0  0
    0.4000    1.0000   -0.0392 O   0  0  0  0  0  0  0  0  0  0  0  0
    0.3150    1.0000    2.1865 N   0  0  0  0  0  0  0  0  0  0  0  0
   -1.1550    1.0000    2.1865 C   0  0  0  0  0  0  0  0  0  0  0  0
   -1.6617   -0.4331    2.1865 C   0  0  0  0  0  0  0  0  0  0  0  0
   -1.8783   -1.0459    3.3123 C   0  0  0  0  0  0  0  0  0  0  0  0
    1.0500    1.0000    3.4595 C   0  0  0  0  0  0  0  0  0  0  0  0
    1.3033    2.4331    3.8983 C   0  0  0  0  0  0  0  0  0  0  0  0
    2.0633    2.4331    5.2147 C   0  0  0  0  0  0  0  0  0  0  0  0
    4.0100    1.6930   -0.2002 H   0  0  0  0  0  0  0  0  0  0  0  0
    2.6767    1.2216   -1.0167 H   0  0  0  0  0  0  0  0  0  0  0  0
    2.6767    2.6358   -0.2002 H   0  0  0  0  0  0  0  0  0  0  0  0
    9.2346   -0.4368    0.1525 H   0  0  0  0  0  0  0  0  0  0  0  0
    7.1392   -0.4363   -1.0670 H   0  0  0  0  0  0  0  0  0  0  0  0
    4.7418   -0.4347   -1.0707 H   0  0  0  0  0  0  0  0  0  0  0  0
    4.7123   -0.4325    3.0793 H   0  0  0  0  0  0  0  0  0  0  0  0
    2.6933   -0.9045    1.8165 H   0  0  0  0  0  0  0  0  0  0  0  0
    2.6933   -0.9045    0.1835 H   0  0  0  0  0  0  0  0  0  0  0  0
    2.8533    1.4714    1.8165 H   0  0  0  0  0  0  0  0  0  0  0  0
   -1.4883    1.4714    1.3700 H   0  0  0  0  0  0  0  0  0  0  0  0
   -1.4883    1.4714    3.0030 H   0  0  0  0  0  0  0  0  0  0  0  0
   -1.8283   -0.9045    1.3204 H   0  0  0  0  0  0  0  0  0  0  0  0
   -2.2117   -1.9887    3.3123 H   0  0  0  0  0  0  0  0  0  0  0  0
   -1.7117   -0.5745    4.1783 H   0  0  0  0  0  0  0  0  0  0  0  0
    1.9238    0.5286    3.3399 H   0  0  0  0  0  0  0  0  0  0  0  0
    0.5096    0.5286    4.1564 H   0  0  0  0  0  0  0  0  0  0  0  0
    0.4296    2.9045    4.0179 H   0  0  0  0  0  0  0  0  0  0  0  0
    1.8438    2.9045    3.2014 H   0  0  0  0  0  0  0  0  0  0  0  0
    2.2300    3.3759    5.5033 H   0  0  0  0  0  0  0  0  0  0  0  0
    1.5229    1.9617    5.9116 H   0  0  0  0  0  0  0  0  0  0  0  0
    2.9371    1.9617    5.0951 H   0  0  0  0  0  0  0  0  0  0  0  0
  1  2  1  0  0  0  0
  2  3  1  0  0  0  0
  3  4  1  0  0  0  0
  3  5  2  0  0  0  0
  5  6  1  0  0  0  0
  6  7  2  0  0  0  0
  7  8  1  0  0  0  0
  8  2  2  0  0  0  0
  7  9  1  0  0  0  0
  9 10  1  0  0  0  0
 10 11  1  0  0  0  0
 10 12  1  0  0  0  0
 12 13  2  0  0  0  0
 12 14  1  0  0  0  0
 14 15  1  0  0  0  0
 15 16  1  0  0  0  0
 16 17  2  0  0  0  0
 14 18  1  0  0  0  0
 18 19  1  0  0  0  0
 19 20  1  0  0  0  0
 11 21  1  0  0  0  0
 11 22  1  0  0  0  0
 11 23  1  0  0  0  0
  4 24  1  0  0  0  0
  5 25  1  0  0  0  0
  6 26  1  0  0  0  0
  8 27  1  0  0  0  0
  9 28  1  0  0  0  0
  9 29  1  0  0  0  0
 10 30  1  0  0  0  0
 15 31  1  0  0  0  0
 15 32  1  0  0  0  0
 16 33  1  0  0  0  0
 17 34  1  0  0  0  0
 17 35  1  0  0  0  0
 18 36  1  0  0  0  0
 18 37  1  0  0  0  0
 19 38  1  0  0  0  0
 19 39  1  0  0  0  0
 20 40  1  0  0  0  0
 20 41  1  0  0  0  0
 20 42  1  0  0  0  0
M  CHG  1  11   1
M  END
>  <result-rank>
88

>  <similarity>
0.922

>  <query-name>
LIG_A_1101_CC(C)SC[R*]_1

>  <query-smiles>
S(C(C)C)CC(=O)[C@@H](NC(=O)C)Cc1ccc(O)cc1

>  <source>
REALspace_2019-12

>  <similarity-descriptor>
0.965;0.992;1.000;1.000;1.000;0.992;0.907;1.000;0.585;0.0;0.0;1.000;1.000;0.077

>  <similarity-descriptor-smiles>
Fc1ccccc1;NCC;CC;CC;C;NCC;C=O;CC;[NH3+];;;CC;O;C

>  <reaction-name>
s_240690b

>  <reagent1-name>
13611768

>  <reagent1-smiles>
[R1*]N(CC=C)CCC

>  <reagent2-name>
14577254

>  <reagent2-smiles>
[R1*]C(=O)C(N)Cc1cc(F)c(O)cc1

$$$$
s_22____14326058____220032
          04022015093D 1   1.00000     0.00000     0
            
 40 41  0  0  0  0            999 V2000
    1.5239    0.5299   -2.6349 S   0  0  0  0  0  0  0  0  0  0  0  0
    2.6781    0.3655   -1.3961 C   0  0  0  0  0  0  0  0  0  0  0  0
    3.2192   -0.8774   -1.5074 C   0  0  0  0  0  0  0  0  0  0  0  0
    2.6651   -1.6331   -2.5775 C   0  0  0  0  0  0  0  0  0  0  0  0
    1.7023   -1.0184   -3.3205 C   0  0  0  0  0  0  0  0  0  0  0  0
    3.0267    1.4309   -0.3667 C   0  0  3  0  0  0  0  0  0  0  0  0
    4.4855    1.6046   -0.3161 N   0  0  0  0  0  0  0  0  0  0  0  0
    5.0404    2.8242   -0.6018 C   0  0  0  0  0  0  0  0  0  0  0  0
    4.3356    3.7506   -0.8934 O   0  0  0  0  0  0  0  0  0  0  0  0
    6.5489    3.0038   -0.5495 C   0  0  0  0  0  0  0  0  0  0  0  0
    2.5200    1.0000    1.0000 C   0  0  0  0  0  0  0  0  0  0  0  0
    1.0000    1.0000    1.0000 C   0  0  0  0  0  0  0  0  0  0  0  0
    0.4000    1.0000   -0.0392 O   0  0  0  0  0  0  0  0  0  0  0  0
    0.3150    1.0000    2.1865 N   0  0  0  0  0  0  0  0  0  0  0  0
   -1.1550    1.0000    2.1865 C   0  0  0  0  0  0  0  0  0  0  0  0
   -1.6617    1.0000    3.6197 C   0  0  0  0  0  0  0  0  0  0  0  0
   -1.1839    2.2175    4.3769 C   0  0  0  0  0  0  0  0  0  0  0  0
   -1.1334    1.1118    5.7986 S   0  0  0  0  0  0  0  0  0  0  0  0
   -0.9617   -0.0582    4.4402 C   0  0  0  0  0  0  0  0  0  0  0  0
   -3.1745    0.8634    3.5961 C   0  0  0  0  0  0  0  0  0  0  0  0
    3.9333   -1.2242   -0.8993 H   0  0  0  0  0  0  0  0  0  0  0  0
    2.9662   -2.5662   -2.7742 H   0  0  0  0  0  0  0  0  0  0  0  0
    1.2061   -1.3962   -4.1022 H   0  0  0  0  0  0  0  0  0  0  0  0
    2.5967    2.2963   -0.6240 H   0  0  0  0  0  0  0  0  0  0  0  0
    5.0728    0.8326   -0.0731 H   0  0  0  0  0  0  0  0  0  0  0  0
    6.9789    2.1384   -0.2922 H   0  0  0  0  0  0  0  0  0  0  0  0
    6.8822    3.2873   -1.4486 H   0  0  0  0  0  0  0  0  0  0  0  0
    6.7779    3.7039    0.1269 H   0  0  0  0  0  0  0  0  0  0  0  0
    2.8533    0.0795    1.2041 H   0  0  0  0  0  0  0  0  0  0  0  0
    2.8533    1.6370    1.6951 H   0  0  0  0  0  0  0  0  0  0  0  0
    0.8150    1.0000    3.0525 H   0  0  0  0  0  0  0  0  0  0  0  0
   -1.4883    0.1835    1.7151 H   0  0  0  0  0  0  0  0  0  0  0  0
   -1.4883    1.8165    1.7151 H   0  0  0  0  0  0  0  0  0  0  0  0
   -0.2980    2.5794    4.0867 H   0  0  0  0  0  0  0  0  0  0  0  0
   -1.8444    2.9654    4.4418 H   0  0  0  0  0  0  0  0  0  0  0  0
   -1.4655   -0.9151    4.5495 H   0  0  0  0  0  0  0  0  0  0  0  0
   -0.0210   -0.2572    4.1656 H   0  0  0  0  0  0  0  0  0  0  0  0
   -3.4272    0.0431    3.0830 H   0  0  0  0  0  0  0  0  0  0  0  0
   -3.5171    0.7895    4.5327 H   0  0  0  0  0  0  0  0  0  0  0  0
   -3.5750    1.6677    3.1572 H   0  0  0  0  0  0  0  0  0  0  0  0
  1  2  1  0  0  0  0
  2  3  2  0  0  0  0
  3  4  1  0  0  0  0
  4  5  2  0  0  0  0
  5  1  1  0  0  0  0
  2  6  1  0  0  0  0
  6  7  1  0  0  0  0
  7  8  1  0  0  0  0
  8  9  2  0  0  0  0
  8 10  1  0  0  0  0
  6 11  1  0  0  0  0
 11 12  1  0  0  0  0
 12 13  2  0  0  0  0
 12 14  1  0  0  0  0
 14 15  1  0  0  0  0
 15 16  1  0  0  0  0
 16 17  1  0  0  0  0
 17 18  1  0  0  0  0
 18 19  1  0  0  0  0
 19 16  1  0  0  0  0
 16 20  1  0  0  0  0
  3 21  1  0  0  0  0
  4 22  1  0  0  0  0
  5 23  1  0  0  0  0
  6 24  1  0  0  0  0
  7 25  1  0  0  0  0
 10 26  1  0  0  0  0
 10 27  1  0  0  0  0
 10 28  1  0  0  0  0
 11 29  1  0  0  0  0
 11 30  1  0  0  0  0
 14 31  1  0  0  0  0
 15 32  1  0  0  0  0
 15 33  1  0  0  0  0
 17 34  1  0  0  0  0
 17 35  1  0  0  0  0
 19 36  1  0  0  0  0
 19 37  1  0  0  0  0
 20 38  1  0  0  0  0
 20 39  1  0  0  0  0
 20 40  1  0  0  0  0
M  END
>  <result-rank>
89

>  <similarity>
0.921

>  <query-name>
LIG_A_1101_CC(C)SC[R*]_1

>  <query-smiles>
S(C(C)C)CC(=O)[C@@H](NC(=O)C)Cc1ccc(O)cc1

>  <source>
REALspace_2019-12

>  <similarity-descriptor>
0.924;0.892;0.892;0.892;1.000;0.995;0.763;1.000;1.000;1.000;1.000;1.000;0.0;0.0

>  <similarity-descriptor-smiles>
S1C=CC=C1;C1CSC1;C1CSC1;C1CSC1;C;C;C(=O)N;CC;N;C=O;C;CC;;

>  <reaction-name>
s_22

>  <reagent1-name>
14326058

>  <reagent1-smiles>
[R1*]NCC1(CSC1)C

>  <reagent2-name>
220032

>  <reagent2-smiles>
[R1*]C(=O)CC(NC(=O)C)C=1SC=CC1

$$$$
s_22____1322838____60463
          04022015093D 1   1.00000     0.00000     0
            
 45 45  0  0  0  0            999 V2000
   -1.8083   -0.7065    2.1865 S   0  0  0  0  0  0  0  0  0  0  0  0
   -3.5882   -0.3775    2.1865 C   0  0  0  0  0  0  0  0  0  0  0  0
   -4.3469   -1.6947    2.1865 C   0  0  0  0  0  0  0  0  0  0  0  0
   -3.9562    0.4192    3.4275 C   0  0  0  0  0  0  0  0  0  0  0  0
   -3.9562    0.4192    0.9454 C   0  0  0  0  0  0  0  0  0  0  0  0
   -1.2050    1.0000    2.1865 C   0  0  0  0  0  0  0  0  0  0  0  0
    0.3150    1.0000    2.1865 C   0  0  0  0  0  0  0  0  0  0  0  0
    0.9150    1.0000    3.2257 O   0  0  0  0  0  0  0  0  0  0  0  0
    1.0000    1.0000    1.0000 N   0  0  0  0  0  0  0  0  0  0  0  0
    2.4700    1.0000    1.0000 C   0  0  0  0  0  0  0  0  0  0  0  0
    2.9767   -0.4113    1.2488 C   0  0  3  0  0  0  0  0  0  0  0  0
    4.4967   -0.4113    1.2488 C   0  0  0  0  0  0  0  0  0  0  0  0
    5.0967   -0.7667    2.2254 O   0  0  0  0  0  0  0  0  0  0  0  0
    5.1817   -0.0055    0.1339 N   0  0  0  0  0  0  0  0  0  0  0  0
    2.4700   -1.3325    0.1511 C   0  0  0  0  0  0  0  0  0  0  0  0
    2.9766   -2.7436    0.3999 C   0  0  0  0  0  0  0  0  0  0  0  0
    2.2149   -3.6169    1.1690 C   0  0  0  0  0  0  0  0  0  0  0  0
    2.6734   -4.9099    1.4001 C   0  0  0  0  0  0  0  0  0  0  0  0
    3.8893   -5.3128    0.8577 C   0  0  0  0  0  0  0  0  0  0  0  0
    4.3335   -6.5480    1.0738 F   0  0  0  0  0  0  0  0  0  0  0  0
    4.6554   -4.4430    0.0885 C   0  0  0  0  0  0  0  0  0  0  0  0
    4.1918   -3.1516   -0.1394 C   0  0  0  0  0  0  0  0  0  0  0  0
   -5.3302   -1.5129    2.1865 H   0  0  0  0  0  0  0  0  0  0  0  0
   -4.1048   -2.2188    1.3700 H   0  0  0  0  0  0  0  0  0  0  0  0
   -4.1048   -2.2188    3.0030 H   0  0  0  0  0  0  0  0  0  0  0  0
   -4.9395    0.6009    3.4275 H   0  0  0  0  0  0  0  0  0  0  0  0
   -3.7141   -0.1050    4.2440 H   0  0  0  0  0  0  0  0  0  0  0  0
   -3.4571    1.2857    3.4275 H   0  0  0  0  0  0  0  0  0  0  0  0
   -4.9395    0.6009    0.9454 H   0  0  0  0  0  0  0  0  0  0  0  0
   -3.4571    1.2857    0.9454 H   0  0  0  0  0  0  0  0  0  0  0  0
   -3.7141   -0.1050    0.1289 H   0  0  0  0  0  0  0  0  0  0  0  0
   -1.5383    1.4714    3.0030 H   0  0  0  0  0  0  0  0  0  0  0  0
   -1.5383    1.4714    1.3700 H   0  0  0  0  0  0  0  0  0  0  0  0
    0.5000    1.0000    0.1340 H   0  0  0  0  0  0  0  0  0  0  0  0
    2.8033    1.6060    1.7222 H   0  0  0  0  0  0  0  0  0  0  0  0
    2.8033    1.3225    0.1140 H   0  0  0  0  0  0  0  0  0  0  0  0
    2.6433   -0.7338    2.1348 H   0  0  0  0  0  0  0  0  0  0  0  0
    4.6817    0.2907   -0.6799 H   0  0  0  0  0  0  0  0  0  0  0  0
    6.1817   -0.0055    0.1339 H   0  0  0  0  0  0  0  0  0  0  0  0
    1.4700   -1.3325    0.1511 H   0  0  0  0  0  0  0  0  0  0  0  0
    2.8033   -1.0100   -0.7349 H   0  0  0  0  0  0  0  0  0  0  0  0
    1.3421   -3.3169    1.5540 H   0  0  0  0  0  0  0  0  0  0  0  0
    2.1328   -5.5449    1.9520 H   0  0  0  0  0  0  0  0  0  0  0  0
    5.5286   -4.7425   -0.2959 H   0  0  0  0  0  0  0  0  0  0  0  0
    4.7324   -2.5165   -0.6912 H   0  0  0  0  0  0  0  0  0  0  0  0
  1  2  1  0  0  0  0
  2  3  1  0  0  0  0
  2  4  1  0  0  0  0
  2  5  1  0  0  0  0
  1  6  1  0  0  0  0
  6  7  1  0  0  0  0
  7  8  2  0  0  0  0
  7  9  1  0  0  0  0
  9 10  1  0  0  0  0
 10 11  1  0  0  0  0
 11 12  1  0  0  0  0
 12 13  2  0  0  0  0
 12 14  1  0  0  0  0
 11 15  1  0  0  0  0
 15 16  1  0  0  0  0
 16 17  1  0  0  0  0
 17 18  2  0  0  0  0
 18 19  1  0  0  0  0
 19 20  1  0  0  0  0
 19 21  2  0  0  0  0
 21 22  1  0  0  0  0
 22 16  2  0  0  0  0
  3 23  1  0  0  0  0
  3 24  1  0  0  0  0
  3 25  1  0  0  0  0
  4 26  1  0  0  0  0
  4 27  1  0  0  0  0
  4 28  1  0  0  0  0
  5 29  1  0  0  0  0
  5 30  1  0  0  0  0
  5 31  1  0  0  0  0
  6 32  1  0  0  0  0
  6 33  1  0  0  0  0
  9 34  1  0  0  0  0
 10 35  1  0  0  0  0
 10 36  1  0  0  0  0
 11 37  1  0  0  0  0
 14 38  1  0  0  0  0
 14 39  1  0  0  0  0
 15 40  1  0  0  0  0
 15 41  1  0  0  0  0
 17 42  1  0  0  0  0
 18 43  1  0  0  0  0
 21 44  1  0  0  0  0
 22 45  1  0  0  0  0
M  END
>  <result-rank>
90

>  <similarity>
0.921

>  <query-name>
LIG_A_1101_CC(C)SC[R*]_1

>  <query-smiles>
S(C(C)C)CC(=O)[C@@H](NC(=O)C)Cc1ccc(O)cc1

>  <source>
REALspace_2019-12

>  <similarity-descriptor>
0.983;1.000;0.939;0.939;1.000;1.000;0.907;0.824;0.824;0.836;0.836;1.000;0.0;0.071

>  <similarity-descriptor-smiles>
c1ccc(cc1)F;S;C(C)C;C(C)C;C;C;C=O;NCC;NCC;C=O;C=O;C;;N

>  <reaction-name>
s_22

>  <reagent1-name>
1322838

>  <reagent1-smiles>
[R1*]NCC(C(=O)N)Cc1ccc(F)cc1

>  <reagent2-name>
60463

>  <reagent2-smiles>
[R1*]C(=O)CSC(C)(C)C

$$$$
s_527a____10214102____17513452
          04022015093D 1   1.00000     0.00000     0
            
 39 39  0  0  0  0            999 V2000
   -3.6217   -0.4331    2.1865 Br  0  0  0  0  0  0  0  0  0  0  0  0
   -1.6617   -0.4331    2.1865 C   0  0  0  0  0  0  0  0  0  0  0  0
   -1.2183   -1.0600    1.1005 F   0  0  0  0  0  0  0  0  0  0  0  0
   -1.2183   -1.0600    3.2724 F   0  0  0  0  0  0  0  0  0  0  0  0
   -1.1550    1.0000    2.1865 C   0  0  0  0  0  0  0  0  0  0  0  0
    0.3150    1.0000    2.1865 N   0  0  0  0  0  0  0  0  0  0  0  0
    1.0000    1.0000    1.0000 C   0  0  0  0  0  0  0  0  0  0  0  0
    0.4000    1.0000   -0.0392 O   0  0  0  0  0  0  0  0  0  0  0  0
    2.5200    1.0000    1.0000 C   0  0  3  0  0  0  0  0  0  0  0  0
    3.0100    1.6930   -0.2002 N   0  0  0  0  0  0  0  0  0  0  0  0
    3.2383    3.0434   -0.1663 C   0  0  0  0  0  0  0  0  0  0  0  0
    3.0383    3.6605    0.8432 O   0  0  0  0  0  0  0  0  0  0  0  0
    3.7450    3.7599   -1.4074 C   0  0  0  0  0  0  0  0  0  0  0  0
    3.0267   -0.4331    1.0000 C   0  0  0  0  0  0  0  0  0  0  0  0
    4.5467   -0.4331    1.0000 C   0  0  0  0  0  0  0  0  0  0  0  0
    5.2311   -0.4331    2.2110 C   0  0  0  0  0  0  0  0  0  0  0  0
    6.6219   -0.4338    2.2159 C   0  0  0  0  0  0  0  0  0  0  0  0
    7.3116   -0.4351    1.0075 C   0  0  0  0  0  0  0  0  0  0  0  0
    8.7316   -0.4355    1.0077 O   0  0  0  0  0  0  0  0  0  0  0  0
    6.6320   -0.4347   -0.2063 C   0  0  0  0  0  0  0  0  0  0  0  0
    5.2412   -0.4344   -0.2053 C   0  0  0  0  0  0  0  0  0  0  0  0
    1.0500    1.0000    3.4595 C   0  0  0  0  0  0  0  0  0  0  0  0
   -1.4883    1.4714    1.3700 H   0  0  0  0  0  0  0  0  0  0  0  0
   -1.4883    1.4714    3.0030 H   0  0  0  0  0  0  0  0  0  0  0  0
    2.8533    1.4714    1.8165 H   0  0  0  0  0  0  0  0  0  0  0  0
    3.1767    1.1787   -1.0415 H   0  0  0  0  0  0  0  0  0  0  0  0
    3.8561    3.1005   -2.1510 H   0  0  0  0  0  0  0  0  0  0  0  0
    3.0863    4.4614   -1.6796 H   0  0  0  0  0  0  0  0  0  0  0  0
    4.6259    4.1892   -1.2082 H   0  0  0  0  0  0  0  0  0  0  0  0
    2.6933   -0.9045    1.8165 H   0  0  0  0  0  0  0  0  0  0  0  0
    2.6933   -0.9045    0.1835 H   0  0  0  0  0  0  0  0  0  0  0  0
    4.7256   -0.4325    3.0738 H   0  0  0  0  0  0  0  0  0  0  0  0
    7.1226   -0.4335    3.0815 H   0  0  0  0  0  0  0  0  0  0  0  0
    9.2317   -0.4364    0.1417 H   0  0  0  0  0  0  0  0  0  0  0  0
    7.1374   -0.4347   -1.0692 H   0  0  0  0  0  0  0  0  0  0  0  0
    4.7405   -0.4351   -1.0710 H   0  0  0  0  0  0  0  0  0  0  0  0
    0.4002    1.0000    4.2196 H   0  0  0  0  0  0  0  0  0  0  0  0
    1.6249    0.1835    3.5125 H   0  0  0  0  0  0  0  0  0  0  0  0
    1.6249    1.8165    3.5125 H   0  0  0  0  0  0  0  0  0  0  0  0
  1  2  1  0  0  0  0
  2  3  1  0  0  0  0
  2  4  1  0  0  0  0
  2  5  1  0  0  0  0
  5  6  1  0  0  0  0
  6  7  1  0  0  0  0
  7  8  2  0  0  0  0
  7  9  1  0  0  0  0
  9 10  1  0  0  0  0
 10 11  1  0  0  0  0
 11 12  2  0  0  0  0
 11 13  1  0  0  0  0
  9 14  1  0  0  0  0
 14 15  1  0  0  0  0
 15 16  1  0  0  0  0
 16 17  2  0  0  0  0
 17 18  1  0  0  0  0
 18 19  1  0  0  0  0
 18 20  2  0  0  0  0
 20 21  1  0  0  0  0
 21 15  2  0  0  0  0
  6 22  1  0  0  0  0
  5 23  1  0  0  0  0
  5 24  1  0  0  0  0
  9 25  1  0  0  0  0
 10 26  1  0  0  0  0
 13 27  1  0  0  0  0
 13 28  1  0  0  0  0
 13 29  1  0  0  0  0
 14 30  1  0  0  0  0
 14 31  1  0  0  0  0
 16 32  1  0  0  0  0
 17 33  1  0  0  0  0
 19 34  1  0  0  0  0
 20 35  1  0  0  0  0
 21 36  1  0  0  0  0
 22 37  1  0  0  0  0
 22 38  1  0  0  0  0
 22 39  1  0  0  0  0
M  END
>  <result-rank>
91

>  <similarity>
0.921

>  <query-name>
LIG_A_1101_CC(C)SC[R*]_1

>  <query-smiles>
S(C(C)C)CC(=O)[C@@H](NC(=O)C)Cc1ccc(O)cc1

>  <source>
REALspace_2019-12

>  <similarity-descriptor>
1.000;0.762;0.762;0.0;0.0;0.970;0.907;1.000;1.000;1.000;1.000;1.000;1.000;0.083

>  <similarity-descriptor-smiles>
c1ccccc1;C;C;;;CN;C=O;C;N;C=O;C;C;O;BrC(F)F

>  <reaction-name>
s_527a

>  <reagent1-name>
10214102

>  <reagent1-smiles>
[R1*]N(CC(Br)(F)F)C

>  <reagent2-name>
17513452

>  <reagent2-smiles>
[R1*]C(=O)C(NC(=O)C)Cc1ccc(O)cc1

$$$$
s_22____15786952____13287720
          04022015093D 1   1.00000     0.00000     0
            
 42 42  0  0  0  0            999 V2000
    0.4000   -0.0392    1.0000 O   0  0  0  0  0  0  0  0  0  0  0  0
    1.0000    1.0000    1.0000 C   0  0  0  0  0  0  0  0  0  0  0  0
    2.3700    1.0000    1.0000 N   0  0  0  0  0  0  0  0  0  0  0  0
    3.1050   -0.2731    1.0000 C   0  0  0  0  0  0  0  0  0  0  0  0
    3.1428   -0.8363   -0.4113 C   0  0  0  0  0  0  0  0  0  0  0  0
    3.9030   -2.1530   -0.4113 C   0  0  0  0  0  0  0  0  0  0  0  0
    3.2107   -3.3411   -0.2008 C   0  0  0  0  0  0  0  0  0  0  0  0
    3.9113   -4.5427   -0.2011 C   0  0  0  0  0  0  0  0  0  0  0  0
    3.2432   -5.6983    0.0027 O   0  0  0  0  0  0  0  0  0  0  0  0
    5.2868   -4.5557   -0.4089 C   0  0  0  0  0  0  0  0  0  0  0  0
    5.9702   -3.3621   -0.6193 C   0  0  0  0  0  0  0  0  0  0  0  0
    5.2785   -2.1551   -0.6207 C   0  0  0  0  0  0  0  0  0  0  0  0
    6.0582   -5.8655   -0.4110 C   0  0  0  0  0  0  0  0  0  0  0  0
    0.2400    2.3164    1.0000 C   0  0  0  0  0  0  0  0  0  0  0  0
    0.0843    2.9770   -0.1087 C   0  0  0  0  0  0  0  0  0  0  0  0
   -0.3380    2.8602    2.2964 C   0  0  0  0  0  0  0  0  0  0  0  0
    0.7843    3.0841    3.2968 C   0  0  0  0  0  0  0  0  0  0  0  0
    1.7790    4.0825    2.7274 C   0  0  0  0  0  0  0  0  0  0  0  0
    0.2063    3.6280    4.5932 C   0  0  0  0  0  0  0  0  0  0  0  0
    2.8700    1.8660    1.0000 H   0  0  0  0  0  0  0  0  0  0  0  0
    2.6462   -0.9228    1.6060 H   0  0  0  0  0  0  0  0  0  0  0  0
    4.0389   -0.1188    1.3225 H   0  0  0  0  0  0  0  0  0  0  0  0
    2.2089   -0.9906   -0.7338 H   0  0  0  0  0  0  0  0  0  0  0  0
    3.6016   -0.1865   -1.0173 H   0  0  0  0  0  0  0  0  0  0  0  0
    2.2220   -3.3314   -0.0513 H   0  0  0  0  0  0  0  0  0  0  0  0
    2.2545   -5.6846    0.1516 H   0  0  0  0  0  0  0  0  0  0  0  0
    6.9588   -3.3719   -0.7696 H   0  0  0  0  0  0  0  0  0  0  0  0
    5.7664   -1.2953   -0.7711 H   0  0  0  0  0  0  0  0  0  0  0  0
    7.0274   -5.6812   -0.5744 H   0  0  0  0  0  0  0  0  0  0  0  0
    5.9495   -6.3178    0.4742 H   0  0  0  0  0  0  0  0  0  0  0  0
    5.7052   -6.4591   -1.1343 H   0  0  0  0  0  0  0  0  0  0  0  0
   -0.4157    3.8430   -0.1087 H   0  0  0  0  0  0  0  0  0  0  0  0
    0.4645    2.6192   -0.9616 H   0  0  0  0  0  0  0  0  0  0  0  0
   -0.9924    2.2035    2.6710 H   0  0  0  0  0  0  0  0  0  0  0  0
   -0.8021    3.7276    2.1164 H   0  0  0  0  0  0  0  0  0  0  0  0
    1.2484    2.2168    3.4768 H   0  0  0  0  0  0  0  0  0  0  0  0
    2.5173    4.2298    3.3856 H   0  0  0  0  0  0  0  0  0  0  0  0
    2.1592    3.7246    1.8745 H   0  0  0  0  0  0  0  0  0  0  0  0
    1.3149    4.9498    2.5474 H   0  0  0  0  0  0  0  0  0  0  0  0
    0.9446    3.7753    5.2514 H   0  0  0  0  0  0  0  0  0  0  0  0
   -0.2578    4.4953    4.4132 H   0  0  0  0  0  0  0  0  0  0  0  0
   -0.4481    2.9712    4.9678 H   0  0  0  0  0  0  0  0  0  0  0  0
  1  2  2  0  0  0  0
  2  3  1  0  0  0  0
  3  4  1  0  0  0  0
  4  5  1  0  0  0  0
  5  6  1  0  0  0  0
  6  7  1  0  0  0  0
  7  8  2  0  0  0  0
  8  9  1  0  0  0  0
  8 10  1  0  0  0  0
 10 11  2  0  0  0  0
 11 12  1  0  0  0  0
 12  6  2  0  0  0  0
 10 13  1  0  0  0  0
  2 14  1  0  0  0  0
 14 15  2  0  0  0  0
 14 16  1  0  0  0  0
 16 17  1  0  0  0  0
 17 18  1  0  0  0  0
 17 19  1  0  0  0  0
  3 20  1  0  0  0  0
  4 21  1  0  0  0  0
  4 22  1  0  0  0  0
  5 23  1  0  0  0  0
  5 24  1  0  0  0  0
  7 25  1  0  0  0  0
  9 26  1  0  0  0  0
 11 27  1  0  0  0  0
 12 28  1  0  0  0  0
 13 29  1  0  0  0  0
 13 30  1  0  0  0  0
 13 31  1  0  0  0  0
 15 32  1  0  0  0  0
 15 33  1  0  0  0  0
 16 34  1  0  0  0  0
 16 35  1  0  0  0  0
 17 36  1  0  0  0  0
 18 37  1  0  0  0  0
 18 38  1  0  0  0  0
 18 39  1  0  0  0  0
 19 40  1  0  0  0  0
 19 41  1  0  0  0  0
 19 42  1  0  0  0  0
M  END
>  <result-rank>
92

>  <similarity>
0.921

>  <query-name>
LIG_A_1101_CC(C)SC[R*]_1

>  <query-smiles>
S(C(C)C)CC(=O)[C@@H](NC(=O)C)Cc1ccc(O)cc1

>  <source>
REALspace_2019-12

>  <similarity-descriptor>
0.954;0.954;0.999;0.999;1.000;0.954;0.908;0.952;0.952;0.0;0.0;1.000;1.000;0.154

>  <similarity-descriptor-smiles>
c1ccccc1;CC;CC;CC;C;CC;O=C;NC;NC;;;C;O;C.C

>  <reaction-name>
s_22

>  <reagent1-name>
15786952

>  <reagent1-smiles>
[R1*]NCCc1cc(O)c(cc1)C

>  <reagent2-name>
13287720

>  <reagent2-smiles>
[R1*]C(=O)C(=C)CC(C)C

$$$$
s_22____9277430____3192126
          04022015093D 1   1.00000     0.00000     0
            
 52 52  0  0  0  0            999 V2000
    0.4000    1.0000   -0.0392 O   0  0  0  0  0  0  0  0  0  0  0  0
    1.0000    1.0000    1.0000 C   0  0  0  0  0  0  0  0  0  0  0  0
    0.3150    1.0000    2.1865 N   0  0  0  0  0  0  0  0  0  0  0  0
   -1.1550    1.0000    2.1865 C   0  0  0  0  0  0  0  0  0  0  0  0
   -1.6617   -0.4113    1.9376 C   0  0  0  0  0  0  0  0  0  0  0  0
   -3.1817   -0.4113    1.9376 C   0  0  0  0  0  0  0  0  0  0  0  0
   -3.8317   -0.7964    0.8797 C   0  0  0  0  0  0  0  0  0  0  0  0
   -5.3517   -0.7964    0.8797 C   0  0  0  0  0  0  0  0  0  0  0  0
   -3.0717   -1.2466   -0.3573 C   0  0  0  0  0  0  0  0  0  0  0  0
    2.5200    1.0000    1.0000 C   0  0  0  0  0  0  0  0  0  0  0  0
    3.0267    2.1369    0.1276 C   0  0  3  0  0  0  0  0  0  0  0  0
    4.4967    2.1369    0.1276 N   0  0  0  0  0  0  0  0  0  0  0  0
    5.1817    1.9821   -1.0487 C   0  0  0  0  0  0  0  0  0  0  0  0
    4.5817    1.8464   -2.0790 O   0  0  0  0  0  0  0  0  0  0  0  0
    6.7017    1.9821   -1.0487 C   0  0  0  0  0  0  0  0  0  0  0  0
    2.5198    3.4613    0.6762 C   0  0  0  0  0  0  0  0  0  0  0  0
    1.4846    4.1308    0.0311 C   0  0  0  0  0  0  0  0  0  0  0  0
    0.9193    3.6189   -1.0832 O   0  0  0  0  0  0  0  0  0  0  0  0
    0.2941    4.4811   -2.0225 C   0  0  0  0  0  0  0  0  0  0  0  0
   -0.2574    3.6591   -3.1759 C   0  0  0  0  0  0  0  0  0  0  0  0
    1.0209    5.3429    0.5330 C   0  0  0  0  0  0  0  0  0  0  0  0
    1.5922    5.8849    1.6802 C   0  0  0  0  0  0  0  0  0  0  0  0
    2.6269    5.2147    2.3252 C   0  0  0  0  0  0  0  0  0  0  0  0
    3.0902    4.0028    1.8234 C   0  0  0  0  0  0  0  0  0  0  0  0
    0.8150    1.0000    3.0525 H   0  0  0  0  0  0  0  0  0  0  0  0
   -1.4883    1.6060    1.4642 H   0  0  0  0  0  0  0  0  0  0  0  0
   -1.4883    1.3225    3.0724 H   0  0  0  0  0  0  0  0  0  0  0  0
   -1.3283   -0.7338    1.0517 H   0  0  0  0  0  0  0  0  0  0  0  0
   -1.3283   -1.0173    2.6598 H   0  0  0  0  0  0  0  0  0  0  0  0
   -3.6817   -0.1151    2.7514 H   0  0  0  0  0  0  0  0  0  0  0  0
   -5.6850   -1.1188   -0.0063 H   0  0  0  0  0  0  0  0  0  0  0  0
   -5.6850   -1.4024    1.6019 H   0  0  0  0  0  0  0  0  0  0  0  0
   -5.6850    0.1321    1.0434 H   0  0  0  0  0  0  0  0  0  0  0  0
   -3.7215   -1.5065   -1.0715 H   0  0  0  0  0  0  0  0  0  0  0  0
   -2.4968   -0.4974   -0.6863 H   0  0  0  0  0  0  0  0  0  0  0  0
   -2.4968   -2.0320   -0.1278 H   0  0  0  0  0  0  0  0  0  0  0  0
    2.8533    0.1290    0.6392 H   0  0  0  0  0  0  0  0  0  0  0  0
    2.8533    1.1231    1.9347 H   0  0  0  0  0  0  0  0  0  0  0  0
    2.6933    2.0139   -0.8071 H   0  0  0  0  0  0  0  0  0  0  0  0
    4.9967    2.2500    0.9862 H   0  0  0  0  0  0  0  0  0  0  0  0
    7.0350    2.1051   -0.1140 H   0  0  0  0  0  0  0  0  0  0  0  0
    7.0350    1.1110   -1.4095 H   0  0  0  0  0  0  0  0  0  0  0  0
    7.0350    2.7300   -1.6226 H   0  0  0  0  0  0  0  0  0  0  0  0
    0.9642    5.1366   -2.3707 H   0  0  0  0  0  0  0  0  0  0  0  0
   -0.4534    4.9736   -1.5768 H   0  0  0  0  0  0  0  0  0  0  0  0
   -0.6977    4.2663   -3.8374 H   0  0  0  0  0  0  0  0  0  0  0  0
    0.4901    3.1666   -3.6217 H   0  0  0  0  0  0  0  0  0  0  0  0
   -0.9275    3.0036   -2.8277 H   0  0  0  0  0  0  0  0  0  0  0  0
    0.2772    5.8244    0.0693 H   0  0  0  0  0  0  0  0  0  0  0  0
    1.2592    6.7560    2.0410 H   0  0  0  0  0  0  0  0  0  0  0  0
    3.0376    5.6043    3.1496 H   0  0  0  0  0  0  0  0  0  0  0  0
    3.8333    3.5208    2.2876 H   0  0  0  0  0  0  0  0  0  0  0  0
  1  2  2  0  0  0  0
  2  3  1  0  0  0  0
  3  4  1  0  0  0  0
  4  5  1  0  0  0  0
  5  6  1  0  0  0  0
  6  7  2  0  0  0  0
  7  8  1  0  0  0  0
  7  9  1  0  0  0  0
  2 10  1  0  0  0  0
 10 11  1  0  0  0  0
 11 12  1  0  0  0  0
 12 13  1  0  0  0  0
 13 14  2  0  0  0  0
 13 15  1  0  0  0  0
 11 16  1  0  0  0  0
 16 17  1  0  0  0  0
 17 18  1  0  0  0  0
 18 19  1  0  0  0  0
 19 20  1  0  0  0  0
 17 21  2  0  0  0  0
 21 22  1  0  0  0  0
 22 23  2  0  0  0  0
 23 24  1  0  0  0  0
 24 16  2  0  0  0  0
  3 25  1  0  0  0  0
  4 26  1  0  0  0  0
  4 27  1  0  0  0  0
  5 28  1  0  0  0  0
  5 29  1  0  0  0  0
  6 30  1  0  0  0  0
  8 31  1  0  0  0  0
  8 32  1  0  0  0  0
  8 33  1  0  0  0  0
  9 34  1  0  0  0  0
  9 35  1  0  0  0  0
  9 36  1  0  0  0  0
 10 37  1  0  0  0  0
 10 38  1  0  0  0  0
 11 39  1  0  0  0  0
 12 40  1  0  0  0  0
 15 41  1  0  0  0  0
 15 42  1  0  0  0  0
 15 43  1  0  0  0  0
 19 44  1  0  0  0  0
 19 45  1  0  0  0  0
 20 46  1  0  0  0  0
 20 47  1  0  0  0  0
 20 48  1  0  0  0  0
 21 49  1  0  0  0  0
 22 50  1  0  0  0  0
 23 51  1  0  0  0  0
 24 52  1  0  0  0  0
M  END
>  <result-rank>
93

>  <similarity>
0.921

>  <query-name>
LIG_A_1101_CC(C)SC[R*]_1

>  <query-smiles>
S(C(C)C)CC(=O)[C@@H](NC(=O)C)Cc1ccc(O)cc1

>  <source>
REALspace_2019-12

>  <similarity-descriptor>
1.000;0.807;0.807;1.000;1.000;0.995;0.763;1.000;1.000;1.000;1.000;1.000;0.704;0.118

>  <similarity-descriptor-smiles>
c1ccccc1;CC=C;CC=C;C;C;C;O=CN;CC;N;C=O;C;CC;O;C.C

>  <reaction-name>
s_22

>  <reagent1-name>
9277430

>  <reagent1-smiles>
[R1*]NCCC=C(C)C

>  <reagent2-name>
3192126

>  <reagent2-smiles>
[R1*]C(=O)CC(NC(=O)C)c1c(OCC)cccc1

$$$$
s_272164____9388494____17340966
          04022015093D 1   1.00000     0.00000     0
            
 45 46  0  0  0  0            999 V2000
   -0.8307    1.3554   -0.2178 O   0  0  0  0  0  0  0  0  0  0  0  0
    0.3150    1.0000   -0.1865 C   0  0  0  0  0  0  0  0  0  0  0  0
    0.9511    0.5857   -1.3613 N   0  0  0  0  0  0  0  0  0  0  0  0
    1.9793    1.3267   -1.9506 C   0  0  0  0  0  0  0  0  0  0  0  0
    3.3035    0.9321   -1.8025 C   0  0  0  0  0  0  0  0  0  0  0  0
    3.6046   -0.2180   -1.0660 N   0  0  0  0  0  0  0  0  0  0  0  0
    2.8913   -1.3707   -1.4044 C   0  0  0  0  0  0  0  0  0  0  0  0
    3.0576   -2.4108   -0.7894 O   0  0  0  0  0  0  0  0  0  0  0  0
    1.9017   -1.2354   -2.5505 C   0  0  0  0  0  0  0  0  0  0  0  0
    0.5881   -0.6561   -2.0511 C   0  0  3  0  0  0  0  0  0  0  0  0
   -0.1482   -1.6381   -1.1507 C   0  0  0  0  0  0  0  0  0  0  0  0
    4.3399    1.6551   -2.3823 C   0  0  0  0  0  0  0  0  0  0  0  0
    4.0632    2.7945   -3.1290 C   0  0  0  0  0  0  0  0  0  0  0  0
    2.7426    3.2019   -3.2851 C   0  0  0  0  0  0  0  0  0  0  0  0
    1.7144    2.4712   -2.6982 C   0  0  0  0  0  0  0  0  0  0  0  0
    1.0000    1.0000    1.0000 N   0  0  0  0  0  0  0  0  0  0  0  0
    2.4700    1.0000    1.0000 C   0  0  0  0  0  0  0  0  0  0  0  0
    2.9767    2.3570    1.4606 C   0  0  0  0  0  0  0  0  0  0  0  0
    3.8395    2.4339    2.4300 C   0  0  0  0  0  0  0  0  0  0  0  0
    0.2650    1.0000    2.2731 C   0  0  0  0  0  0  0  0  0  0  0  0
    0.0117   -0.4331    2.7118 C   0  0  0  0  0  0  0  0  0  0  0  0
   -0.7483   -0.4331    4.0282 C   0  0  0  0  0  0  0  0  0  0  0  0
    4.2910   -0.2156   -0.3388 H   0  0  0  0  0  0  0  0  0  0  0  0
    1.7338   -2.1371   -2.9490 H   0  0  0  0  0  0  0  0  0  0  0  0
    2.2854   -0.6292   -3.2471 H   0  0  0  0  0  0  0  0  0  0  0  0
    0.0092   -0.4361   -2.8362 H   0  0  0  0  0  0  0  0  0  0  0  0
   -0.3708   -2.4635   -1.6694 H   0  0  0  0  0  0  0  0  0  0  0  0
    0.4338   -1.8792   -0.3741 H   0  0  0  0  0  0  0  0  0  0  0  0
   -0.9914   -1.2166   -0.8170 H   0  0  0  0  0  0  0  0  0  0  0  0
    5.2861    1.3549   -2.2619 H   0  0  0  0  0  0  0  0  0  0  0  0
    4.8059    3.3157   -3.5495 H   0  0  0  0  0  0  0  0  0  0  0  0
    2.5320    4.0205   -3.8195 H   0  0  0  0  0  0  0  0  0  0  0  0
    0.7683    2.7732   -2.8154 H   0  0  0  0  0  0  0  0  0  0  0  0
    2.8033    0.8161    0.0753 H   0  0  0  0  0  0  0  0  0  0  0  0
    2.8033    0.2912    1.6216 H   0  0  0  0  0  0  0  0  0  0  0  0
    2.6463    3.1907    1.0181 H   0  0  0  0  0  0  0  0  0  0  0  0
    4.1728    3.3267    2.7330 H   0  0  0  0  0  0  0  0  0  0  0  0
    4.1699    1.6002    2.8726 H   0  0  0  0  0  0  0  0  0  0  0  0
   -0.6088    1.4714    2.1535 H   0  0  0  0  0  0  0  0  0  0  0  0
    0.8054    1.4714    2.9700 H   0  0  0  0  0  0  0  0  0  0  0  0
    0.8854   -0.9045    2.8314 H   0  0  0  0  0  0  0  0  0  0  0  0
   -0.5288   -0.9045    2.0149 H   0  0  0  0  0  0  0  0  0  0  0  0
   -0.9150   -1.3759    4.3169 H   0  0  0  0  0  0  0  0  0  0  0  0
   -0.2079    0.0383    4.7251 H   0  0  0  0  0  0  0  0  0  0  0  0
   -1.6221    0.0383    3.9086 H   0  0  0  0  0  0  0  0  0  0  0  0
  1  2  2  0  0  0  0
  2  3  1  0  0  0  0
  3  4  1  0  0  0  0
  4  5  1  0  0  0  0
  5  6  1  0  0  0  0
  6  7  1  0  0  0  0
  7  8  2  0  0  0  0
  7  9  1  0  0  0  0
  9 10  1  0  0  0  0
 10  3  1  0  0  0  0
 10 11  1  0  0  0  0
  5 12  2  0  0  0  0
 12 13  1  0  0  0  0
 13 14  2  0  0  0  0
 14 15  1  0  0  0  0
 15  4  2  0  0  0  0
  2 16  1  0  0  0  0
 16 17  1  0  0  0  0
 17 18  1  0  0  0  0
 18 19  2  0  0  0  0
 16 20  1  0  0  0  0
 20 21  1  0  0  0  0
 21 22  1  0  0  0  0
  6 23  1  0  0  0  0
  9 24  1  0  0  0  0
  9 25  1  0  0  0  0
 10 26  1  0  0  0  0
 11 27  1  0  0  0  0
 11 28  1  0  0  0  0
 11 29  1  0  0  0  0
 12 30  1  0  0  0  0
 13 31  1  0  0  0  0
 14 32  1  0  0  0  0
 15 33  1  0  0  0  0
 17 34  1  0  0  0  0
 17 35  1  0  0  0  0
 18 36  1  0  0  0  0
 19 37  1  0  0  0  0
 19 38  1  0  0  0  0
 20 39  1  0  0  0  0
 20 40  1  0  0  0  0
 21 41  1  0  0  0  0
 21 42  1  0  0  0  0
 22 43  1  0  0  0  0
 22 44  1  0  0  0  0
 22 45  1  0  0  0  0
M  END
>  <result-rank>
94

>  <similarity>
0.921

>  <query-name>
LIG_A_1101_CC(C)SC[R*]_1

>  <query-smiles>
S(C(C)C)CC(=O)[C@@H](NC(=O)C)Cc1ccc(O)cc1

>  <source>
REALspace_2019-12

>  <similarity-descriptor>
0.984;0.992;1.000;1.000;1.000;0.992;0.902;0.834;0.834;0.834;1.000;0.834;0.0;0.091

>  <similarity-descriptor-smiles>
c1ccccc1;NCC;CC;CC;C;NCC;O=C;N1CCC(Ncc1)=O;N1CCC(Ncc1)=O;N1CCC(Ncc1)=O;C;N1CCC(Ncc1)=O;;C

>  <reaction-name>
s_272164

>  <reagent1-name>
9388494

>  <reagent1-smiles>
[R1*]C(=O)N1c2c(NC(=O)CC1C)cccc2

>  <reagent2-name>
17340966

>  <reagent2-smiles>
[R1*]N(CC=C)CCC

$$$$
s_22____11649876____16481288
          04022015093D 1   1.00000     0.00000     0
            
 39 39  0  0  0  0            999 V2000
    3.1233   -0.7065    1.0000 S   0  0  0  0  0  0  0  0  0  0  0  0
    2.5200    1.0000    1.0000 C   0  0  0  0  0  0  0  0  0  0  0  0
    1.0000    1.0000    1.0000 C   0  0  0  0  0  0  0  0  0  0  0  0
    0.4000    1.0000   -0.0392 O   0  0  0  0  0  0  0  0  0  0  0  0
    0.3150    1.0000    2.1865 N   0  0  0  0  0  0  0  0  0  0  0  0
   -1.1550    1.0000    2.1865 C   0  0  3  0  0  0  0  0  0  0  0  0
   -1.6617   -0.2411    2.9030 C   0  0  0  0  0  0  0  0  0  0  0  0
   -2.6122   -0.8352    2.4746 O   0  0  0  0  0  0  0  0  0  0  0  0
   -1.0606   -0.6621    3.9881 O   0  0  0  0  0  0  0  0  0  0  0  0
   -1.5340   -1.8216    4.6575 C   0  0  0  0  0  0  0  0  0  0  0  0
   -1.6617    2.2411    2.9030 C   0  0  0  0  0  0  0  0  0  0  0  0
   -3.1820    2.2411    2.9030 C   0  0  0  0  0  0  0  0  0  0  0  0
   -3.8710    1.6369    3.9495 C   0  0  0  0  0  0  0  0  0  0  0  0
   -5.2621    1.6384    3.9451 C   0  0  0  0  0  0  0  0  0  0  0  0
   -5.9537    2.2423    2.9003 C   0  0  0  0  0  0  0  0  0  0  0  0
   -5.2549    2.8431    1.8605 C   0  0  0  0  0  0  0  0  0  0  0  0
   -3.8639    2.8477    1.8529 C   0  0  0  0  0  0  0  0  0  0  0  0
    4.9032   -0.3775    1.0000 C   0  0  0  0  0  0  0  0  0  0  0  0
    5.6619   -1.6947    1.0000 C   0  0  0  0  0  0  0  0  0  0  0  0
    7.1566   -1.4184    1.0000 C   0  0  0  0  0  0  0  0  0  0  0  0
    8.2776   -1.2112    1.0000 N   0  0  0  0  0  0  0  0  0  0  0  0
    2.8533    1.4714    0.1835 H   0  0  0  0  0  0  0  0  0  0  0  0
    2.8533    1.4714    1.8165 H   0  0  0  0  0  0  0  0  0  0  0  0
    0.8150    1.0000    3.0525 H   0  0  0  0  0  0  0  0  0  0  0  0
   -1.4883    1.0000    1.2436 H   0  0  0  0  0  0  0  0  0  0  0  0
   -0.9641   -1.9992    5.4599 H   0  0  0  0  0  0  0  0  0  0  0  0
   -2.4804   -1.6767    4.9463 H   0  0  0  0  0  0  0  0  0  0  0  0
   -1.4907   -2.6052    4.0379 H   0  0  0  0  0  0  0  0  0  0  0  0
   -1.3283    2.2411    3.8458 H   0  0  0  0  0  0  0  0  0  0  0  0
   -1.3283    3.0576    2.4316 H   0  0  0  0  0  0  0  0  0  0  0  0
   -3.3701    1.2047    4.6993 H   0  0  0  0  0  0  0  0  0  0  0  0
   -5.7649    1.2054    4.6932 H   0  0  0  0  0  0  0  0  0  0  0  0
   -6.9537    2.2439    2.8974 H   0  0  0  0  0  0  0  0  0  0  0  0
   -5.7562    3.2760    1.1113 H   0  0  0  0  0  0  0  0  0  0  0  0
   -3.3618    3.2805    1.1042 H   0  0  0  0  0  0  0  0  0  0  0  0
    5.1453    0.1466    1.8165 H   0  0  0  0  0  0  0  0  0  0  0  0
    5.1453    0.1466    0.1835 H   0  0  0  0  0  0  0  0  0  0  0  0
    5.4198   -2.2188    1.8165 H   0  0  0  0  0  0  0  0  0  0  0  0
    5.4198   -2.2188    0.1835 H   0  0  0  0  0  0  0  0  0  0  0  0
  1  2  1  0  0  0  0
  2  3  1  0  0  0  0
  3  4  2  0  0  0  0
  3  5  1  0  0  0  0
  5  6  1  0  0  0  0
  6  7  1  0  0  0  0
  7  8  2  0  0  0  0
  7  9  1  0  0  0  0
  9 10  1  0  0  0  0
  6 11  1  0  0  0  0
 11 12  1  0  0  0  0
 12 13  1  0  0  0  0
 13 14  2  0  0  0  0
 14 15  1  0  0  0  0
 15 16  2  0  0  0  0
 16 17  1  0  0  0  0
 17 12  2  0  0  0  0
  1 18  1  0  0  0  0
 18 19  1  0  0  0  0
 19 20  1  0  0  0  0
 20 21  3  0  0  0  0
  2 22  1  0  0  0  0
  2 23  1  0  0  0  0
  5 24  1  0  0  0  0
  6 25  1  0  0  0  0
 10 26  1  0  0  0  0
 10 27  1  0  0  0  0
 10 28  1  0  0  0  0
 11 29  1  0  0  0  0
 11 30  1  0  0  0  0
 13 31  1  0  0  0  0
 14 32  1  0  0  0  0
 15 33  1  0  0  0  0
 16 34  1  0  0  0  0
 17 35  1  0  0  0  0
 18 36  1  0  0  0  0
 18 37  1  0  0  0  0
 19 38  1  0  0  0  0
 19 39  1  0  0  0  0
M  END
>  <result-rank>
95

>  <similarity>
0.921

>  <query-name>
LIG_A_1101_CC(C)SC[R*]_1

>  <query-smiles>
S(C(C)C)CC(=O)[C@@H](NC(=O)C)Cc1ccc(O)cc1

>  <source>
REALspace_2019-12

>  <similarity-descriptor>
0.960;0.966;0.966;0.0;0.948;1.000;0.907;1.000;1.000;0.855;0.994;1.000;0.0;0.077

>  <similarity-descriptor-smiles>
c1ccccc1;SC;SC;;C;C;C=O;NC;NC;C(=O)O;C;C;;C#N

>  <reaction-name>
s_22

>  <reagent1-name>
11649876

>  <reagent1-smiles>
[R1*]NC(C(=O)OC)Cc1ccccc1

>  <reagent2-name>
16481288

>  <reagent2-smiles>
[R1*]C(=O)CSCCC#N

$$$$
s_62____2390328____81227
          04022015093D 1   1.00000     0.00000     0
            
 36 36  0  0  0  0            999 V2000
   -0.0617    2.8389   -0.7065 S   0  0  0  0  0  0  0  0  0  0  0  0
   -0.9516    4.3803   -0.3775 C   0  0  0  0  0  0  0  0  0  0  0  0
   -1.3309    5.0373   -1.6947 C   0  0  0  0  0  0  0  0  0  0  0  0
   -2.2104    4.0784    0.4192 C   0  0  0  0  0  0  0  0  0  0  0  0
    0.2400    2.3164    1.0000 C   0  0  0  0  0  0  0  0  0  0  0  0
    1.0000    1.0000    1.0000 C   0  0  0  0  0  0  0  0  0  0  0  0
    0.4000   -0.0392    1.0000 O   0  0  0  0  0  0  0  0  0  0  0  0
    2.3700    1.0000    1.0000 N   0  0  0  0  0  0  0  0  0  0  0  0
    3.0701   -0.2127    1.0000 C   0  0  0  0  0  0  0  0  0  0  0  0
    4.4610   -0.2080    1.0000 C   0  0  0  0  0  0  0  0  0  0  0  0
    5.1385   -1.4230    0.9997 C   0  0  0  0  0  0  0  0  0  0  0  0
    6.6085   -1.4189    0.9997 N   0  0  0  0  0  0  0  0  0  0  0  0
    7.2968   -2.6034    0.9994 C   0  0  0  0  0  0  0  0  0  0  0  0
    6.6997   -3.6443    0.9991 O   0  0  0  0  0  0  0  0  0  0  0  0
    8.8168   -2.5992    0.9995 C   0  0  0  0  0  0  0  0  0  0  0  0
    4.4480   -2.6303    1.0008 C   0  0  0  0  0  0  0  0  0  0  0  0
    3.0573   -2.6108    1.0006 C   0  0  0  0  0  0  0  0  0  0  0  0
    2.3589   -1.4083    1.0006 C   0  0  0  0  0  0  0  0  0  0  0  0
   -0.3655    4.9982    0.1466 H   0  0  0  0  0  0  0  0  0  0  0  0
   -1.8226    5.8889   -1.5129 H   0  0  0  0  0  0  0  0  0  0  0  0
   -0.5028    5.2359   -2.2188 H   0  0  0  0  0  0  0  0  0  0  0  0
   -1.9170    4.4194   -2.2188 H   0  0  0  0  0  0  0  0  0  0  0  0
   -2.7021    4.9300    0.6009 H   0  0  0  0  0  0  0  0  0  0  0  0
   -2.7965    3.4605   -0.1050 H   0  0  0  0  0  0  0  0  0  0  0  0
   -1.9608    3.6462    1.2857 H   0  0  0  0  0  0  0  0  0  0  0  0
   -0.6338    2.1968    1.4714 H   0  0  0  0  0  0  0  0  0  0  0  0
    0.7804    3.0133    1.4714 H   0  0  0  0  0  0  0  0  0  0  0  0
    2.8700    1.8660    1.0000 H   0  0  0  0  0  0  0  0  0  0  0  0
    4.9660    0.6551    1.0002 H   0  0  0  0  0  0  0  0  0  0  0  0
    7.1061   -0.5515    1.0000 H   0  0  0  0  0  0  0  0  0  0  0  0
    9.1475   -1.6555    0.9998 H   0  0  0  0  0  0  0  0  0  0  0  0
    9.1514   -3.0699    1.8158 H   0  0  0  0  0  0  0  0  0  0  0  0
    9.1515   -3.0694    0.1829 H   0  0  0  0  0  0  0  0  0  0  0  0
    4.9436   -3.4989    1.0016 H   0  0  0  0  0  0  0  0  0  0  0  0
    2.5523   -3.4739    1.0005 H   0  0  0  0  0  0  0  0  0  0  0  0
    1.3590   -1.4030    1.0011 H   0  0  0  0  0  0  0  0  0  0  0  0
  1  2  1  0  0  0  0
  2  3  1  0  0  0  0
  2  4  1  0  0  0  0
  1  5  1  0  0  0  0
  5  6  1  0  0  0  0
  6  7  2  0  0  0  0
  6  8  1  0  0  0  0
  8  9  1  0  0  0  0
  9 10  1  0  0  0  0
 10 11  2  0  0  0  0
 11 12  1  0  0  0  0
 12 13  1  0  0  0  0
 13 14  2  0  0  0  0
 13 15  1  0  0  0  0
 11 16  1  0  0  0  0
 16 17  2  0  0  0  0
 17 18  1  0  0  0  0
 18  9  2  0  0  0  0
  2 19  1  0  0  0  0
  3 20  1  0  0  0  0
  3 21  1  0  0  0  0
  3 22  1  0  0  0  0
  4 23  1  0  0  0  0
  4 24  1  0  0  0  0
  4 25  1  0  0  0  0
  5 26  1  0  0  0  0
  5 27  1  0  0  0  0
  8 28  1  0  0  0  0
 10 29  1  0  0  0  0
 12 30  1  0  0  0  0
 15 31  1  0  0  0  0
 15 32  1  0  0  0  0
 15 33  1  0  0  0  0
 16 34  1  0  0  0  0
 17 35  1  0  0  0  0
 18 36  1  0  0  0  0
M  END
>  <result-rank>
96

>  <similarity>
0.920

>  <query-name>
LIG_A_1101_CC(C)SC[R*]_1

>  <query-smiles>
S(C(C)C)CC(=O)[C@@H](NC(=O)C)Cc1ccc(O)cc1

>  <source>
REALspace_2019-12

>  <similarity-descriptor>
0.894;1.000;1.000;1.000;1.000;1.000;0.763;0.894;1.000;1.000;1.000;0.894;0.0;0.0

>  <similarity-descriptor-smiles>
c1ccccc1;S;C;C;C;C;C(=O)N;c1ccccc1;N;C=O;C;c1ccccc1;;

>  <reaction-name>
s_62

>  <reagent1-name>
2390328

>  <reagent1-smiles>
[R1*]SC(C)C

>  <reagent2-name>
81227

>  <reagent2-smiles>
[R1*]CC(=O)Nc1cc(NC(=O)C)ccc1

$$$$
s_512____7689040____13941176
          04022015093D 1   1.00000     0.00000     0
            
 38 38  0  0  0  0            999 V2000
    6.5562   -3.0380    5.9522 Cl  0  0  0  0  0  0  0  0  0  0  0  0
    5.9587   -2.2020    4.4989 C   0  0  0  0  0  0  0  0  0  0  0  0
    4.9962   -2.8079    3.6990 C   0  0  0  0  0  0  0  0  0  0  0  0
    4.5270   -2.1583    2.5618 C   0  0  0  0  0  0  0  0  0  0  0  0
    5.0315   -0.9027    2.2406 C   0  0  0  0  0  0  0  0  0  0  0  0
    5.9941   -0.2965    3.0400 C   0  0  0  0  0  0  0  0  0  0  0  0
    6.4635   -0.9462    4.1774 C   0  0  0  0  0  0  0  0  0  0  0  0
    4.5250   -0.1865    1.0000 C   0  0  3  0  0  0  0  0  0  0  0  0
    3.0550   -0.1865    1.0000 N   0  0  0  0  0  0  0  0  0  0  0  0
    2.3700    1.0000    1.0000 C   0  0  0  0  0  0  0  0  0  0  0  0
    2.9700    2.0392    1.0000 O   0  0  0  0  0  0  0  0  0  0  0  0
    1.0000    1.0000    1.0000 N   0  0  0  0  0  0  0  0  0  0  0  0
    0.2650    2.2731    1.0000 C   0  0  0  0  0  0  0  0  0  0  0  0
    0.2272    2.8363   -0.4113 C   0  0  3  0  0  0  0  0  0  0  0  0
   -0.6033    1.6601   -1.5082 S   0  0  0  0  0  0  0  0  0  0  0  0
   -0.4904    2.5895   -3.0573 C   0  0  0  0  0  0  0  0  0  0  0  0
   -0.5328    4.1526   -0.4113 C   0  0  0  0  0  0  0  0  0  0  0  0
    5.0317   -0.9030   -0.2411 C   0  0  0  0  0  0  0  0  0  0  0  0
    5.9822   -1.6317   -0.1672 O   0  0  0  0  0  0  0  0  0  0  0  0
    4.4031   -0.7169   -1.4441 N   0  0  0  0  0  0  0  0  0  0  0  0
    4.6412   -3.7109    3.9412 H   0  0  0  0  0  0  0  0  0  0  0  0
    3.8352   -2.5891    1.9823 H   0  0  0  0  0  0  0  0  0  0  0  0
    6.3491    0.6064    2.7976 H   0  0  0  0  0  0  0  0  0  0  0  0
    7.1555   -0.5156    4.7568 H   0  0  0  0  0  0  0  0  0  0  0  0
    4.8583    0.7564    1.0000 H   0  0  0  0  0  0  0  0  0  0  0  0
    2.5550   -1.0525    1.0000 H   0  0  0  0  0  0  0  0  0  0  0  0
    0.5000    0.1340    1.0000 H   0  0  0  0  0  0  0  0  0  0  0  0
    0.7238    2.9228    1.6060 H   0  0  0  0  0  0  0  0  0  0  0  0
   -0.6689    2.1188    1.3225 H   0  0  0  0  0  0  0  0  0  0  0  0
    1.1611    2.9906   -0.7338 H   0  0  0  0  0  0  0  0  0  0  0  0
   -0.9168    2.0637   -3.7933 H   0  0  0  0  0  0  0  0  0  0  0  0
   -0.9629    3.4649   -2.9560 H   0  0  0  0  0  0  0  0  0  0  0  0
    0.4710    2.7532   -3.2785 H   0  0  0  0  0  0  0  0  0  0  0  0
   -0.0740    4.8024    0.1947 H   0  0  0  0  0  0  0  0  0  0  0  0
   -0.5577    4.5232   -1.3398 H   0  0  0  0  0  0  0  0  0  0  0  0
   -1.4667    3.9983   -0.0888 H   0  0  0  0  0  0  0  0  0  0  0  0
    3.6110   -0.1097   -1.5057 H   0  0  0  0  0  0  0  0  0  0  0  0
    4.7364   -1.1883   -2.2606 H   0  0  0  0  0  0  0  0  0  0  0  0
  1  2  1  0  0  0  0
  2  3  1  0  0  0  0
  3  4  2  0  0  0  0
  4  5  1  0  0  0  0
  5  6  2  0  0  0  0
  6  7  1  0  0  0  0
  7  2  2  0  0  0  0
  5  8  1  0  0  0  0
  8  9  1  0  0  0  0
  9 10  1  0  0  0  0
 10 11  2  0  0  0  0
 10 12  1  0  0  0  0
 12 13  1  0  0  0  0
 13 14  1  0  0  0  0
 14 15  1  0  0  0  0
 15 16  1  0  0  0  0
 14 17  1  0  0  0  0
  8 18  1  0  0  0  0
 18 19  2  0  0  0  0
 18 20  1  0  0  0  0
  3 21  1  0  0  0  0
  4 22  1  0  0  0  0
  6 23  1  0  0  0  0
  7 24  1  0  0  0  0
  8 25  1  0  0  0  0
  9 26  1  0  0  0  0
 12 27  1  0  0  0  0
 13 28  1  0  0  0  0
 13 29  1  0  0  0  0
 14 30  1  0  0  0  0
 16 31  1  0  0  0  0
 16 32  1  0  0  0  0
 16 33  1  0  0  0  0
 17 34  1  0  0  0  0
 17 35  1  0  0  0  0
 17 36  1  0  0  0  0
 20 37  1  0  0  0  0
 20 38  1  0  0  0  0
M  END
>  <result-rank>
97

>  <similarity>
0.920

>  <query-name>
LIG_A_1101_CC(C)SC[R*]_1

>  <query-smiles>
S(C(C)C)CC(=O)[C@@H](NC(=O)C)Cc1ccc(O)cc1

>  <source>
REALspace_2019-12

>  <similarity-descriptor>
0.969;1.000;1.000;0.998;1.000;0.995;0.759;1.000;1.000;0.836;0.836;0.969;0.0;0.083

>  <similarity-descriptor-smiles>
Clc1ccccc1;CS;CS;C;C;C;C(=O)N;CN;CN;C=O;C=O;Clc1ccccc1;;N

>  <reaction-name>
s_512

>  <reagent1-name>
7689040

>  <reagent1-smiles>
[R1*]C(=O)NCC(SC)C

>  <reagent2-name>
13941176

>  <reagent2-smiles>
[R1*]NC(c1ccc(Cl)cc1)C(=O)N

$$$$
s_11a____16637818____217444
          04022015093D 1   1.00000     0.00000     0
            
 52 53  0  0  0  0            999 V2000
    2.0766    3.0213    1.5740 O   0  0  0  0  0  0  0  0  0  0  0  0
    1.8776    1.8776    1.8776 C   0  0  0  0  0  0  0  0  0  0  0  0
    2.4413    1.3627    3.0152 N   0  0  0  0  0  0  0  0  0  0  0  0
    3.2900    2.2114    3.8639 C   0  0  3  0  0  0  0  0  0  0  0  0
    2.6862    2.3008    5.2559 C   0  0  0  0  0  0  0  0  0  0  0  0
    3.5641    3.1787    6.1338 C   0  0  0  0  0  0  0  0  0  0  0  0
    2.9979    3.2903    7.5193 C   0  0  0  0  0  0  0  0  0  0  0  0
    2.8694    4.4396    6.5611 C   0  0  0  0  0  0  0  0  0  0  0  0
    4.6820    1.6076    3.9532 C   0  0  0  0  0  0  0  0  0  0  0  0
    2.1974   -0.0384    3.3871 C   0  0  0  0  0  0  0  0  0  0  0  0
    1.0000    1.0000    1.0000 C   0  0  0  0  0  0  0  0  0  0  0  0
    0.7075    1.7208   -0.3059 C   0  0  3  0  0  0  0  0  0  0  0  0
   -0.2825    0.9552   -1.0771 N   0  0  0  0  0  0  0  0  0  0  0  0
   -1.4824    1.5266   -1.4097 C   0  0  0  0  0  0  0  0  0  0  0  0
   -1.7253    2.6520   -1.0715 O   0  0  0  0  0  0  0  0  0  0  0  0
   -2.5060    0.7349   -2.2071 C   0  0  0  0  0  0  0  0  0  0  0  0
    1.9895    1.8483   -1.1124 C   0  0  0  0  0  0  0  0  0  0  0  0
    2.6991    0.7022   -1.4555 C   0  0  0  0  0  0  0  0  0  0  0  0
    3.8724    0.8140   -2.1941 C   0  0  0  0  0  0  0  0  0  0  0  0
    4.3213    2.0727   -2.5811 C   0  0  0  0  0  0  0  0  0  0  0  0
    5.4597    2.1858   -3.2977 O   0  0  0  0  0  0  0  0  0  0  0  0
    6.0379    3.4644   -3.5148 C   0  0  0  0  0  0  0  0  0  0  0  0
    3.6157    3.2221   -2.2403 C   0  0  0  0  0  0  0  0  0  0  0  0
    2.4429    3.1045   -1.5020 C   0  0  0  0  0  0  0  0  0  0  0  0
    3.3488    3.1273    3.4666 H   0  0  0  0  0  0  0  0  0  0  0  0
    2.6274    1.3850    5.6532 H   0  0  0  0  0  0  0  0  0  0  0  0
    1.7703    2.6980    5.1971 H   0  0  0  0  0  0  0  0  0  0  0  0
    4.5553    3.1789    6.0016 H   0  0  0  0  0  0  0  0  0  0  0  0
    3.6113    3.3614    8.3058 H   0  0  0  0  0  0  0  0  0  0  0  0
    2.1900    2.7587    7.7736 H   0  0  0  0  0  0  0  0  0  0  0  0
    1.9761    4.6731    6.1771 H   0  0  0  0  0  0  0  0  0  0  0  0
    3.3973    5.2758    6.7094 H   0  0  0  0  0  0  0  0  0  0  0  0
    5.2594    2.1850    4.5305 H   0  0  0  0  0  0  0  0  0  0  0  0
    4.6233    0.6918    4.3504 H   0  0  0  0  0  0  0  0  0  0  0  0
    5.0793    1.5489    3.0374 H   0  0  0  0  0  0  0  0  0  0  0  0
    2.6804   -0.2464    4.2377 H   0  0  0  0  0  0  0  0  0  0  0  0
    1.2165   -0.1829    3.5168 H   0  0  0  0  0  0  0  0  0  0  0  0
    2.5295   -0.6390    2.6597 H   0  0  0  0  0  0  0  0  0  0  0  0
    0.1409    0.8075    1.4742 H   0  0  0  0  0  0  0  0  0  0  0  0
    1.4742    0.1409    0.8075 H   0  0  0  0  0  0  0  0  0  0  0  0
    0.3450    2.6319   -0.1097 H   0  0  0  0  0  0  0  0  0  0  0  0
   -0.0801    0.0173   -1.3589 H   0  0  0  0  0  0  0  0  0  0  0  0
   -2.1436   -0.1762   -2.4032 H   0  0  0  0  0  0  0  0  0  0  0  0
   -3.3495    0.6510   -1.6765 H   0  0  0  0  0  0  0  0  0  0  0  0
   -2.6985    1.2091   -3.0662 H   0  0  0  0  0  0  0  0  0  0  0  0
    2.3673   -0.1977   -1.1725 H   0  0  0  0  0  0  0  0  0  0  0  0
    4.3894   -0.0043   -2.4451 H   0  0  0  0  0  0  0  0  0  0  0  0
    6.8701    3.3656   -4.0605 H   0  0  0  0  0  0  0  0  0  0  0  0
    5.3868    4.0463   -4.0021 H   0  0  0  0  0  0  0  0  0  0  0  0
    6.2641    3.8818   -2.6346 H   0  0  0  0  0  0  0  0  0  0  0  0
    3.9476    4.1221   -2.5228 H   0  0  0  0  0  0  0  0  0  0  0  0
    1.9256    3.9227   -1.2513 H   0  0  0  0  0  0  0  0  0  0  0  0
  1  2  2  0  0  0  0
  2  3  1  0  0  0  0
  3  4  1  0  0  0  0
  4  5  1  0  0  0  0
  5  6  1  0  0  0  0
  6  7  1  0  0  0  0
  7  8  1  0  0  0  0
  8  6  1  0  0  0  0
  4  9  1  0  0  0  0
  3 10  1  0  0  0  0
  2 11  1  0  0  0  0
 11 12  1  0  0  0  0
 12 13  1  0  0  0  0
 13 14  1  0  0  0  0
 14 15  2  0  0  0  0
 14 16  1  0  0  0  0
 12 17  1  0  0  0  0
 17 18  1  0  0  0  0
 18 19  2  0  0  0  0
 19 20  1  0  0  0  0
 20 21  1  0  0  0  0
 21 22  1  0  0  0  0
 20 23  2  0  0  0  0
 23 24  1  0  0  0  0
 24 17  2  0  0  0  0
  4 25  1  0  0  0  0
  5 26  1  0  0  0  0
  5 27  1  0  0  0  0
  6 28  1  0  0  0  0
  7 29  1  0  0  0  0
  7 30  1  0  0  0  0
  8 31  1  0  0  0  0
  8 32  1  0  0  0  0
  9 33  1  0  0  0  0
  9 34  1  0  0  0  0
  9 35  1  0  0  0  0
 10 36  1  0  0  0  0
 10 37  1  0  0  0  0
 10 38  1  0  0  0  0
 11 39  1  0  0  0  0
 11 40  1  0  0  0  0
 12 41  1  0  0  0  0
 13 42  1  0  0  0  0
 16 43  1  0  0  0  0
 16 44  1  0  0  0  0
 16 45  1  0  0  0  0
 18 46  1  0  0  0  0
 19 47  1  0  0  0  0
 22 48  1  0  0  0  0
 22 49  1  0  0  0  0
 22 50  1  0  0  0  0
 23 51  1  0  0  0  0
 24 52  1  0  0  0  0
M  END
>  <result-rank>
98

>  <similarity>
0.920

>  <query-name>
LIG_A_1101_CC(C)SC[R*]_1

>  <query-smiles>
S(C(C)C)CC(=O)[C@@H](NC(=O)C)Cc1ccc(O)cc1

>  <source>
REALspace_2019-12

>  <similarity-descriptor>
1.000;0.746;0.998;0.998;0.949;0.746;0.907;1.000;1.000;1.000;1.000;1.000;0.704;0.133

>  <similarity-descriptor-smiles>
c1ccccc1;NC;CC;CC;C;NC;O=C;CC;N;C=O;C;CC;O;C1CC1.C

>  <reaction-name>
s_11a

>  <reagent1-name>
16637818

>  <reagent1-smiles>
[R1*]N(C(CC1CC1)C)C

>  <reagent2-name>
217444

>  <reagent2-smiles>
[R1*]C(=O)CC(NC(=O)C)c1ccc(OC)cc1

$$$$
s_11a____13657618____548058
          04022015093D 1   1.00000     0.00000     0
            
 52 53  0  0  0  0            999 V2000
   -1.8083   -0.7065    2.1865 S   0  0  0  0  0  0  0  0  0  0  0  0
   -3.5882   -0.3775    2.1865 C   0  0  0  0  0  0  0  0  0  0  0  0
   -4.3469   -1.6947    2.1865 C   0  0  0  0  0  0  0  0  0  0  0  0
   -3.9562    0.4192    3.4275 C   0  0  0  0  0  0  0  0  0  0  0  0
   -1.2050    1.0000    2.1865 C   0  0  0  0  0  0  0  0  0  0  0  0
    0.3150    1.0000    2.1865 C   0  0  0  0  0  0  0  0  0  0  0  0
    0.9150    1.0000    3.2257 O   0  0  0  0  0  0  0  0  0  0  0  0
    1.0000    1.0000    1.0000 N   0  0  0  0  0  0  0  0  0  0  0  0
    2.4700    1.0000    1.0000 C   0  0  3  0  0  0  0  0  0  0  0  0
    2.9767    2.2411    0.2835 C   0  0  0  0  0  0  0  0  0  0  0  0
    3.9272    2.8352    0.7118 O   0  0  0  0  0  0  0  0  0  0  0  0
    2.3756    2.6621   -0.8017 O   0  0  0  0  0  0  0  0  0  0  0  0
    2.8490    3.8216   -1.4711 C   0  0  0  0  0  0  0  0  0  0  0  0
    2.9767   -0.2411    0.2835 C   0  0  0  0  0  0  0  0  0  0  0  0
    4.4961   -0.2411    0.2835 C   0  0  0  0  0  0  0  0  0  0  0  0
    5.1708   -0.8493    1.3370 C   0  0  0  0  0  0  0  0  0  0  0  0
    6.5612   -0.8490    1.3347 C   0  0  0  0  0  0  0  0  0  0  0  0
    7.2357   -1.4325    2.3476 O   0  0  0  0  0  0  0  0  0  0  0  0
    7.5739   -0.7110    3.4375 C   0  0  0  0  0  0  0  0  0  0  0  0
    8.2690   -1.3185    4.4779 C   0  0  0  0  0  0  0  0  0  0  0  0
    8.6142   -0.5701    5.5995 C   0  0  0  0  0  0  0  0  0  0  0  0
    8.2650    0.7746    5.6738 C   0  0  0  0  0  0  0  0  0  0  0  0
    7.5689    1.3753    4.6300 C   0  0  0  0  0  0  0  0  0  0  0  0
    7.2207    0.6329    3.5060 C   0  0  0  0  0  0  0  0  0  0  0  0
    7.2663   -0.2497    0.2959 C   0  0  0  0  0  0  0  0  0  0  0  0
    6.5801    0.3566   -0.7518 C   0  0  0  0  0  0  0  0  0  0  0  0
    5.1890    0.3619   -0.7614 C   0  0  0  0  0  0  0  0  0  0  0  0
   -3.8303    0.1466    1.3700 H   0  0  0  0  0  0  0  0  0  0  0  0
   -5.3302   -1.5129    2.1865 H   0  0  0  0  0  0  0  0  0  0  0  0
   -4.1048   -2.2188    1.3700 H   0  0  0  0  0  0  0  0  0  0  0  0
   -4.1048   -2.2188    3.0030 H   0  0  0  0  0  0  0  0  0  0  0  0
   -4.9395    0.6009    3.4275 H   0  0  0  0  0  0  0  0  0  0  0  0
   -3.7141   -0.1050    4.2440 H   0  0  0  0  0  0  0  0  0  0  0  0
   -3.4571    1.2857    3.4275 H   0  0  0  0  0  0  0  0  0  0  0  0
   -1.5383    1.4714    3.0030 H   0  0  0  0  0  0  0  0  0  0  0  0
   -1.5383    1.4714    1.3700 H   0  0  0  0  0  0  0  0  0  0  0  0
    0.5000    1.0000    0.1340 H   0  0  0  0  0  0  0  0  0  0  0  0
    2.8033    1.0000    1.9428 H   0  0  0  0  0  0  0  0  0  0  0  0
    2.2791    3.9992   -2.2734 H   0  0  0  0  0  0  0  0  0  0  0  0
    2.8057    4.6052   -0.8514 H   0  0  0  0  0  0  0  0  0  0  0  0
    3.7954    3.6767   -1.7598 H   0  0  0  0  0  0  0  0  0  0  0  0
    2.6433   -1.0576    0.7549 H   0  0  0  0  0  0  0  0  0  0  0  0
    2.6433   -0.2411   -0.6593 H   0  0  0  0  0  0  0  0  0  0  0  0
    4.6640   -1.2798    2.0839 H   0  0  0  0  0  0  0  0  0  0  0  0
    8.5188   -2.2851    4.4205 H   0  0  0  0  0  0  0  0  0  0  0  0
    9.1134   -0.9991    6.3523 H   0  0  0  0  0  0  0  0  0  0  0  0
    8.5152    1.3109    6.4799 H   0  0  0  0  0  0  0  0  0  0  0  0
    7.3184    2.3417    4.6875 H   0  0  0  0  0  0  0  0  0  0  0  0
    6.7207    1.0617    2.7536 H   0  0  0  0  0  0  0  0  0  0  0  0
    8.2662   -0.2545    0.3022 H   0  0  0  0  0  0  0  0  0  0  0  0
    7.0869    0.7885   -1.4979 H   0  0  0  0  0  0  0  0  0  0  0  0
    4.6915    0.7954   -1.5128 H   0  0  0  0  0  0  0  0  0  0  0  0
  1  2  1  0  0  0  0
  2  3  1  0  0  0  0
  2  4  1  0  0  0  0
  1  5  1  0  0  0  0
  5  6  1  0  0  0  0
  6  7  2  0  0  0  0
  6  8  1  0  0  0  0
  8  9  1  0  0  0  0
  9 10  1  0  0  0  0
 10 11  2  0  0  0  0
 10 12  1  0  0  0  0
 12 13  1  0  0  0  0
  9 14  1  0  0  0  0
 14 15  1  0  0  0  0
 15 16  1  0  0  0  0
 16 17  2  0  0  0  0
 17 18  1  0  0  0  0
 18 19  1  0  0  0  0
 19 20  1  0  0  0  0
 20 21  2  0  0  0  0
 21 22  1  0  0  0  0
 22 23  2  0  0  0  0
 23 24  1  0  0  0  0
 24 19  2  0  0  0  0
 17 25  1  0  0  0  0
 25 26  2  0  0  0  0
 26 27  1  0  0  0  0
 27 15  2  0  0  0  0
  2 28  1  0  0  0  0
  3 29  1  0  0  0  0
  3 30  1  0  0  0  0
  3 31  1  0  0  0  0
  4 32  1  0  0  0  0
  4 33  1  0  0  0  0
  4 34  1  0  0  0  0
  5 35  1  0  0  0  0
  5 36  1  0  0  0  0
  8 37  1  0  0  0  0
  9 38  1  0  0  0  0
 13 39  1  0  0  0  0
 13 40  1  0  0  0  0
 13 41  1  0  0  0  0
 14 42  1  0  0  0  0
 14 43  1  0  0  0  0
 16 44  1  0  0  0  0
 20 45  1  0  0  0  0
 21 46  1  0  0  0  0
 22 47  1  0  0  0  0
 23 48  1  0  0  0  0
 24 49  1  0  0  0  0
 25 50  1  0  0  0  0
 26 51  1  0  0  0  0
 27 52  1  0  0  0  0
M  END
>  <result-rank>
99

>  <similarity>
0.920

>  <query-name>
LIG_A_1101_CC(C)SC[R*]_1

>  <query-smiles>
S(C(C)C)CC(=O)[C@@H](NC(=O)C)Cc1ccc(O)cc1

>  <source>
REALspace_2019-12

>  <similarity-descriptor>
0.987;1.000;1.000;1.000;1.000;1.000;0.907;1.000;1.000;0.855;0.994;1.000;0.0;0.067

>  <similarity-descriptor-smiles>
c1cccc(c1)O;S;C;C;C;C;C=O;NC;NC;C(=O)O;C;C;;c1ccccc1

>  <reaction-name>
s_11a

>  <reagent1-name>
13657618

>  <reagent1-smiles>
[R1*]NC(C(=O)OC)Cc1cc(Oc2ccccc2)ccc1

>  <reagent2-name>
548058

>  <reagent2-smiles>
[R1*]C(=O)CSC(C)C

$$$$
s_188690b____10719888____17513482
          04022015093D 1   1.00000     0.00000     0
            
 44 44  0  0  0  0            999 V2000
    4.1886   -2.6862   -0.5995 O   0  5  0  0  0  0  0  0  0  0  0  0
    4.7389   -1.6699   -0.2411 C   0  0  0  0  0  0  0  0  0  0  0  0
    5.9323   -1.7026    0.1292 O   0  0  0  0  0  0  0  0  0  0  0  0
    3.9789   -0.3536   -0.2411 C   0  0  3  0  0  0  0  0  0  0  0  0
    3.1050   -0.2731    1.0000 C   0  0  3  0  0  0  0  0  0  0  0  0
    2.3700    1.0000    1.0000 N   0  0  0  0  0  0  0  0  0  0  0  0
    1.0000    1.0000    1.0000 C   0  0  0  0  0  0  0  0  0  0  0  0
    0.4000   -0.0392    1.0000 O   0  0  0  0  0  0  0  0  0  0  0  0
    0.2400    2.3164    1.0000 C   0  0  3  0  0  0  0  0  0  0  0  0
   -1.2052    2.0477    1.0000 N   0  0  0  0  0  0  0  0  0  0  0  0
   -1.9871    2.5058    2.0275 C   0  0  0  0  0  0  0  0  0  0  0  0
   -1.4922    3.1263    2.9275 O   0  0  0  0  0  0  0  0  0  0  0  0
   -3.4815    2.2281    2.0275 C   0  0  0  0  0  0  0  0  0  0  0  0
    0.6072    3.1134   -0.2411 C   0  0  0  0  0  0  0  0  0  0  0  0
   -0.1528    4.4298   -0.2411 C   0  0  0  0  0  0  0  0  0  0  0  0
    0.4132    5.5469    0.3644 C   0  0  0  0  0  0  0  0  0  0  0  0
   -0.2782    6.7537    0.3662 C   0  0  0  0  0  0  0  0  0  0  0  0
   -1.5287    6.8280   -0.2391 C   0  0  0  0  0  0  0  0  0  0  0  0
   -2.2034    7.9972   -0.2393 O   0  0  0  0  0  0  0  0  0  0  0  0
   -2.0995    5.7138   -0.8457 C   0  0  0  0  0  0  0  0  0  0  0  0
   -1.4035    4.5097   -0.8449 C   0  0  0  0  0  0  0  0  0  0  0  0
    3.9789   -0.3536    2.2411 C   0  0  0  0  0  0  0  0  0  0  0  0
    3.1050   -0.2731   -1.4821 C   0  0  0  0  0  0  0  0  0  0  0  0
    4.6287    0.4065   -0.2411 H   0  0  0  0  0  0  0  0  0  0  0  0
    2.4552   -1.0331    1.0000 H   0  0  0  0  0  0  0  0  0  0  0  0
    2.8700    1.8660    1.0000 H   0  0  0  0  0  0  0  0  0  0  0  0
    0.4816    2.8407    1.8165 H   0  0  0  0  0  0  0  0  0  0  0  0
   -1.6177    1.5307    0.2500 H   0  0  0  0  0  0  0  0  0  0  0  0
   -3.7231    1.7037    1.2110 H   0  0  0  0  0  0  0  0  0  0  0  0
   -3.7231    1.7037    2.8440 H   0  0  0  0  0  0  0  0  0  0  0  0
   -3.9815    3.0941    2.0275 H   0  0  0  0  0  0  0  0  0  0  0  0
    1.5904    3.2961   -0.2411 H   0  0  0  0  0  0  0  0  0  0  0  0
    0.3656    2.5890   -1.0576 H   0  0  0  0  0  0  0  0  0  0  0  0
    1.3129    5.4826    0.7963 H   0  0  0  0  0  0  0  0  0  0  0  0
    0.1206    7.5620    0.7993 H   0  0  0  0  0  0  0  0  0  0  0  0
   -3.1025    8.0555   -0.6731 H   0  0  0  0  0  0  0  0  0  0  0  0
   -2.9994    5.7778   -1.2771 H   0  0  0  0  0  0  0  0  0  0  0  0
   -1.8020    3.7014   -1.2783 H   0  0  0  0  0  0  0  0  0  0  0  0
    4.4789   -1.2196    2.2411 H   0  0  0  0  0  0  0  0  0  0  0  0
    4.6287    0.4065    2.2411 H   0  0  0  0  0  0  0  0  0  0  0  0
    3.4040   -0.3006    3.0576 H   0  0  0  0  0  0  0  0  0  0  0  0
    2.6050    0.5930   -1.4821 H   0  0  0  0  0  0  0  0  0  0  0  0
    3.6799   -0.3260   -2.2986 H   0  0  0  0  0  0  0  0  0  0  0  0
    2.4552   -1.0331   -1.4821 H   0  0  0  0  0  0  0  0  0  0  0  0
  1  2  1  0  0  0  0
  2  3  2  0  0  0  0
  2  4  1  0  0  0  0
  4  5  1  0  0  0  0
  5  6  1  0  0  0  0
  6  7  1  0  0  0  0
  7  8  2  0  0  0  0
  7  9  1  0  0  0  0
  9 10  1  0  0  0  0
 10 11  1  0  0  0  0
 11 12  2  0  0  0  0
 11 13  1  0  0  0  0
  9 14  1  0  0  0  0
 14 15  1  0  0  0  0
 15 16  1  0  0  0  0
 16 17  2  0  0  0  0
 17 18  1  0  0  0  0
 18 19  1  0  0  0  0
 18 20  2  0  0  0  0
 20 21  1  0  0  0  0
 21 15  2  0  0  0  0
  5 22  1  0  0  0  0
  4 23  1  0  0  0  0
  4 24  1  0  0  0  0
  5 25  1  0  0  0  0
  6 26  1  0  0  0  0
  9 27  1  0  0  0  0
 10 28  1  0  0  0  0
 13 29  1  0  0  0  0
 13 30  1  0  0  0  0
 13 31  1  0  0  0  0
 14 32  1  0  0  0  0
 14 33  1  0  0  0  0
 16 34  1  0  0  0  0
 17 35  1  0  0  0  0
 19 36  1  0  0  0  0
 20 37  1  0  0  0  0
 21 38  1  0  0  0  0
 22 39  1  0  0  0  0
 22 40  1  0  0  0  0
 22 41  1  0  0  0  0
 23 42  1  0  0  0  0
 23 43  1  0  0  0  0
 23 44  1  0  0  0  0
M  CHG  1   1  -1
M  END
>  <result-rank>
100

>  <similarity>
0.920

>  <query-name>
LIG_A_1101_CC(C)SC[R*]_1

>  <query-smiles>
S(C(C)C)CC(=O)[C@@H](NC(=O)C)Cc1ccc(O)cc1

>  <source>
REALspace_2019-12

>  <similarity-descriptor>
1.000;0.762;0.762;1.000;1.000;0.762;0.763;1.000;1.000;1.000;1.000;1.000;1.000;0.071

>  <similarity-descriptor-smiles>
c1ccccc1;CC;CC;C;C;CC;NC=O;C;N;C=O;C;C;O;[O-]C=O

>  <reaction-name>
s_188690b

>  <reagent1-name>
10719888

>  <reagent1-smiles>
[R1*]NC(C(C(=O)O)C)C

>  <reagent2-name>
17513482

>  <reagent2-smiles>
[R1*]C(=O)C(NC(=O)C)Cc1ccc(O)cc1

$$$$
