m_273170____10756572____10761984____10755784
          04022017313D 1   1.00000     0.00000     0
            
 70 75  0  0  0  0            999 V2000
    2.5249    5.7951    2.3845 S   0  0  0  0  0  0  0  0  0  0  0  0
    3.7672    6.3759    2.8238 O   0  0  0  0  0  0  0  0  0  0  0  0
    2.2943    6.1408    1.0058 O   0  0  0  0  0  0  0  0  0  0  0  0
    1.3037    6.3678    3.2998 N   0  0  0  0  0  0  0  0  0  0  0  0
    1.2354    7.8301    3.1662 C   0  0  0  0  0  0  0  0  0  0  0  0
    2.6058    4.0640    2.5427 C   0  0  0  0  0  0  0  0  0  0  0  0
    1.8027    3.2597    1.7404 C   0  0  0  0  0  0  0  0  0  0  0  0
    1.8777    1.8777    1.8777 C   0  0  0  0  0  0  0  0  0  0  0  0
    2.7407    1.2964    2.8006 C   0  0  0  0  0  0  0  0  0  0  0  0
    3.5352    2.1186    3.5931 C   0  0  0  0  0  0  0  0  0  0  0  0
    3.4754    3.5031    3.4723 C   0  0  0  0  0  0  0  0  0  0  0  0
    1.0000    1.0000    1.0000 C   0  0  0  0  0  0  0  0  0  0  0  0
    1.7941    0.4801   -0.1233 N   0  0  0  0  0  0  0  0  0  0  0  0
    2.2645   -0.7876   -0.2518 C   0  0  0  0  0  0  0  0  0  0  0  0
    2.9110   -0.8126   -1.3910 N   0  0  0  0  0  0  0  0  0  0  0  0
    2.8759    0.3595   -1.9849 N   0  0  0  0  0  0  0  0  0  0  0  0
    2.1898    1.1789   -1.2205 C   0  0  0  0  0  0  0  0  0  0  0  0
    1.9086    2.5750   -1.5014 C   0  0  0  0  0  0  0  0  0  0  0  0
    0.6586    3.0668   -1.4822 N   0  0  0  0  0  0  0  0  0  0  0  0
    0.3884    4.3572   -1.7406 C   0  0  0  0  0  0  0  0  0  0  0  0
    1.4241    5.2377   -2.0420 C   0  0  0  0  0  0  0  0  0  0  0  0
    2.7283    4.7547   -2.0686 C   0  0  0  0  0  0  0  0  0  0  0  0
    2.9790    3.4131   -1.7973 C   0  0  0  0  0  0  0  0  0  0  0  0
    1.1773    6.5793   -2.3138 C   0  0  0  0  0  0  0  0  0  0  0  0
   -0.1337    7.0428   -2.2824 C   0  0  0  0  0  0  0  0  0  0  0  0
   -1.1862    6.1840   -1.9839 C   0  0  0  0  0  0  0  0  0  0  0  0
   -0.9139    4.8465   -1.7155 C   0  0  0  0  0  0  0  0  0  0  0  0
    2.0975   -1.8491    0.6482 N   0  0  0  0  0  0  0  0  0  0  0  0
    1.0118   -1.8093    1.6384 C   0  0  0  0  0  0  0  0  0  0  0  0
   -0.2383   -2.4490    1.0474 C   0  0  0  0  0  0  0  0  0  0  0  0
   -0.3468   -3.6862    0.6190 O   0  0  0  0  0  0  0  0  0  0  0  0
   -1.5610   -3.9160    0.1684 C   0  0  0  0  0  0  0  0  0  0  0  0
   -2.2843   -2.7694    0.3037 C   0  0  0  0  0  0  0  0  0  0  0  0
   -1.4242   -1.8042    0.8770 C   0  0  0  0  0  0  0  0  0  0  0  0
    3.0081   -3.0021    0.6018 C   0  0  0  0  0  0  0  0  0  0  0  0
    4.2570   -2.6966    1.4207 C   0  0  3  0  0  0  0  0  0  0  0  0
    4.0671   -2.8683    2.8160 O   0  0  0  0  0  0  0  0  0  0  0  0
    5.3565   -2.9924    3.3864 C   0  0  0  0  0  0  0  0  0  0  0  0
    6.2593   -3.5725    2.3161 C   0  0  0  0  0  0  0  0  0  0  0  0
    5.2978   -3.7711    1.1632 C   0  0  0  0  0  0  0  0  0  0  0  0
    1.4638    6.1277    4.2573 H   0  0  0  0  0  0  0  0  0  0  0  0
    0.4862    8.1815    3.7277 H   0  0  0  0  0  0  0  0  0  0  0  0
    2.0981    8.2334    3.4712 H   0  0  0  0  0  0  0  0  0  0  0  0
    1.0753    8.0702    2.2087 H   0  0  0  0  0  0  0  0  0  0  0  0
    1.1799    3.6697    1.0740 H   0  0  0  0  0  0  0  0  0  0  0  0
    2.7894    0.3019    2.8931 H   0  0  0  0  0  0  0  0  0  0  0  0
    4.1582    1.7084    4.2591 H   0  0  0  0  0  0  0  0  0  0  0  0
    4.0497    4.0872    4.0459 H   0  0  0  0  0  0  0  0  0  0  0  0
    0.6465    0.2362    1.5400 H   0  0  0  0  0  0  0  0  0  0  0  0
    0.2362    1.5400    0.6465 H   0  0  0  0  0  0  0  0  0  0  0  0
    3.4856    5.3715   -2.2828 H   0  0  0  0  0  0  0  0  0  0  0  0
    3.9134    3.0572   -1.8147 H   0  0  0  0  0  0  0  0  0  0  0  0
    1.9307    7.2009   -2.5285 H   0  0  0  0  0  0  0  0  0  0  0  0
   -0.3219    8.0055   -2.4768 H   0  0  0  0  0  0  0  0  0  0  0  0
   -2.1265    6.5236   -1.9625 H   0  0  0  0  0  0  0  0  0  0  0  0
   -1.6677    4.2255   -1.5006 H   0  0  0  0  0  0  0  0  0  0  0  0
    0.8168   -0.8590    1.8813 H   0  0  0  0  0  0  0  0  0  0  0  0
    1.2886   -2.3126    2.4570 H   0  0  0  0  0  0  0  0  0  0  0  0
   -1.8947   -4.7805   -0.2074 H   0  0  0  0  0  0  0  0  0  0  0  0
   -3.2414   -2.6357    0.0466 H   0  0  0  0  0  0  0  0  0  0  0  0
   -1.6404   -0.8553    1.1068 H   0  0  0  0  0  0  0  0  0  0  0  0
    3.2676   -3.1840   -0.3466 H   0  0  0  0  0  0  0  0  0  0  0  0
    2.5487   -3.8051    0.9815 H   0  0  0  0  0  0  0  0  0  0  0  0
    4.6148   -1.7864    1.2118 H   0  0  0  0  0  0  0  0  0  0  0  0
    5.3249   -3.6033    4.1775 H   0  0  0  0  0  0  0  0  0  0  0  0
    5.6939   -2.0952    3.6713 H   0  0  0  0  0  0  0  0  0  0  0  0
    6.6585   -4.4411    2.6096 H   0  0  0  0  0  0  0  0  0  0  0  0
    6.9904   -2.9348    2.0732 H   0  0  0  0  0  0  0  0  0  0  0  0
    5.7529   -3.6311    0.2839 H   0  0  0  0  0  0  0  0  0  0  0  0
    4.8893   -4.6836    1.1856 H   0  0  0  0  0  0  0  0  0  0  0  0
  1  2  2  0  0  0  0
  1  3  2  0  0  0  0
  1  4  1  0  0  0  0
  4  5  1  0  0  0  0
  1  6  1  0  0  0  0
  6  7  1  0  0  0  0
  7  8  2  0  0  0  0
  8  9  1  0  0  0  0
  9 10  2  0  0  0  0
 10 11  1  0  0  0  0
 11  6  2  0  0  0  0
  8 12  1  0  0  0  0
 12 13  1  0  0  0  0
 13 14  1  0  0  0  0
 14 15  2  0  0  0  0
 15 16  1  0  0  0  0
 16 17  2  0  0  0  0
 17 13  1  0  0  0  0
 17 18  1  0  0  0  0
 18 19  1  0  0  0  0
 19 20  2  0  0  0  0
 20 21  1  0  0  0  0
 21 22  2  0  0  0  0
 22 23  1  0  0  0  0
 23 18  2  0  0  0  0
 21 24  1  0  0  0  0
 24 25  2  0  0  0  0
 25 26  1  0  0  0  0
 26 27  2  0  0  0  0
 27 20  1  0  0  0  0
 14 28  1  0  0  0  0
 28 29  1  0  0  0  0
 29 30  1  0  0  0  0
 30 31  1  0  0  0  0
 31 32  1  0  0  0  0
 32 33  2  0  0  0  0
 33 34  1  0  0  0  0
 30 34  2  0  0  0  0
 28 35  1  0  0  0  0
 35 36  1  0  0  0  0
 36 37  1  0  0  0  0
 37 38  1  0  0  0  0
 38 39  1  0  0  0  0
 39 40  1  0  0  0  0
 40 36  1  0  0  0  0
  4 41  1  0  0  0  0
  5 42  1  0  0  0  0
  5 43  1  0  0  0  0
  5 44  1  0  0  0  0
  7 45  1  0  0  0  0
  9 46  1  0  0  0  0
 10 47  1  0  0  0  0
 11 48  1  0  0  0  0
 12 49  1  0  0  0  0
 12 50  1  0  0  0  0
 22 51  1  0  0  0  0
 23 52  1  0  0  0  0
 24 53  1  0  0  0  0
 25 54  1  0  0  0  0
 26 55  1  0  0  0  0
 27 56  1  0  0  0  0
 29 57  1  0  0  0  0
 29 58  1  0  0  0  0
 32 59  1  0  0  0  0
 33 60  1  0  0  0  0
 34 61  1  0  0  0  0
 35 62  1  0  0  0  0
 35 63  1  0  0  0  0
 36 64  1  0  0  0  0
 38 65  1  0  0  0  0
 38 66  1  0  0  0  0
 39 67  1  0  0  0  0
 39 68  1  0  0  0  0
 40 69  1  0  0  0  0
 40 70  1  0  0  0  0
M  END
>  <result-rank>
1

>  <similarity>
0.910

>  <query-name>


>  <query-smiles>
S(=O)(=O)(NC(=O)C)c1ccc(cc1)C=2N3N=CC=C(N4CCOCC4)C3=NC2/C=C/c5nc6c(cc5)cccc6

>  <source>
REALspace_2019-12

>  <similarity-descriptor>
0.936;0.956;0.797;0.876;0.935;1.000;1.000;0.733;0.733;0.733;0.797;0.935;0.0

>  <similarity-descriptor-smiles>
c1cccc(c1)C;CC1CCCO1;N1C=NN=C1;NCC1=CC=CO1;c1ccccn1;c1ccccc1;S(=O)=O;NC;NC;NC;N1C=NN=C1;c1ccccn1;

>  <reaction-name>
m_273170

>  <reagent1-name>
10756572

>  <reagent1-smiles>
[R2*]=C([R1*])N([R3*])Cc1cc(S(=O)(=O)NC)ccc1

>  <reagent2-name>
10761984

>  <reagent2-smiles>
[R1*]N(CC=1OC=CC1)CC2OCCC2

>  <reagent3-name>
10755784

>  <reagent3-smiles>
[R2*]=NN=C([R3*])c1nc2c(cc1)cccc2

$$$$
m_273170____10759452____10761548____10755784
          04022017313D 1   1.00000     0.00000     0
            
 68 73  0  0  0  0            999 V2000
    4.7645   -5.2586    3.1309 F   0  0  0  0  0  0  0  0  0  0  0  0
    4.1094   -4.1030    3.1889 C   0  0  0  0  0  0  0  0  0  0  0  0
    3.7168   -3.5570    4.4057 C   0  0  0  0  0  0  0  0  0  0  0  0
    3.0570   -2.3894    4.4352 N   0  0  0  0  0  0  0  0  0  0  0  0
    2.7604   -1.7231    3.3094 C   0  0  0  0  0  0  0  0  0  0  0  0
    3.1293   -2.2231    2.0648 C   0  0  0  0  0  0  0  0  0  0  0  0
    3.8142   -3.4322    2.0070 C   0  0  0  0  0  0  0  0  0  0  0  0
    2.8010   -1.4805    0.7791 C   0  0  0  0  0  0  0  0  0  0  0  0
    3.2232   -0.0772    0.9021 N   0  0  0  0  0  0  0  0  0  0  0  0
    2.4017    1.0000    1.0000 C   0  0  0  0  0  0  0  0  0  0  0  0
    3.1912    2.0415    1.0908 N   0  0  0  0  0  0  0  0  0  0  0  0
    4.4560    1.6855    1.0558 N   0  0  0  0  0  0  0  0  0  0  0  0
    4.5040    0.3775    0.9393 C   0  0  0  0  0  0  0  0  0  0  0  0
    5.7075   -0.4292    0.8647 C   0  0  0  0  0  0  0  0  0  0  0  0
    6.3465   -0.8574    1.9660 N   0  0  0  0  0  0  0  0  0  0  0  0
    7.4613   -1.6049    1.9071 C   0  0  0  0  0  0  0  0  0  0  0  0
    7.9941   -1.9625    0.6714 C   0  0  0  0  0  0  0  0  0  0  0  0
    7.3522   -1.5324   -0.4853 C   0  0  0  0  0  0  0  0  0  0  0  0
    6.1991   -0.7588   -0.3945 C   0  0  0  0  0  0  0  0  0  0  0  0
    9.1465   -2.7356    0.5766 C   0  0  0  0  0  0  0  0  0  0  0  0
    9.7737   -3.1555    1.7448 C   0  0  0  0  0  0  0  0  0  0  0  0
    9.2618   -2.8121    2.9916 C   0  0  0  0  0  0  0  0  0  0  0  0
    8.1079   -2.0382    3.0603 C   0  0  0  0  0  0  0  0  0  0  0  0
    1.0000    1.0000    1.0000 N   0  0  0  0  0  0  0  0  0  0  0  0
    0.2650   -0.2731    1.0004 C   0  0  0  0  0  0  0  0  0  0  0  0
   -1.0632   -0.0910    1.7170 C   0  0  0  0  0  0  0  0  0  0  0  0
   -2.2379    0.0354    0.9829 C   0  0  0  0  0  0  0  0  0  0  0  0
   -2.2201   -0.0012   -0.4169 N   0  3  0  0  0  0  0  0  0  0  0  0
   -2.7869    0.8690   -1.0570 O   0  5  0  0  0  0  0  0  0  0  0  0
   -1.6426   -0.8959   -0.9914 O   0  0  0  0  0  0  0  0  0  0  0  0
   -3.4529    0.2019    1.6384 C   0  0  0  0  0  0  0  0  0  0  0  0
   -3.4935    0.2417    3.0281 C   0  0  0  0  0  0  0  0  0  0  0  0
   -2.3191    0.1155    3.7619 C   0  0  0  0  0  0  0  0  0  0  0  0
   -1.1038   -0.0502    3.1063 C   0  0  0  0  0  0  0  0  0  0  0  0
    0.2650    2.2731    0.9996 C   0  0  0  0  0  0  0  0  0  0  0  0
    4.0269   -4.2538    5.5800 N   0  0  0  0  0  0  0  0  0  0  0  0
    4.4810   -5.6527    5.5782 C   0  0  0  0  0  0  0  0  0  0  0  0
    5.3622   -5.8997    6.7926 C   0  0  0  0  0  0  0  0  0  0  0  0
    4.6653   -5.6948    8.0193 O   0  0  0  0  0  0  0  0  0  0  0  0
    3.6241   -4.7278    7.9363 C   0  0  0  0  0  0  0  0  0  0  0  0
    3.9242   -3.6432    6.9127 C   0  0  0  0  0  0  0  0  0  0  0  0
    2.2673   -0.8550    3.3656 H   0  0  0  0  0  0  0  0  0  0  0  0
    4.0912   -3.8149    1.1257 H   0  0  0  0  0  0  0  0  0  0  0  0
    3.2837   -1.9080    0.0147 H   0  0  0  0  0  0  0  0  0  0  0  0
    1.8154   -1.5189    0.6143 H   0  0  0  0  0  0  0  0  0  0  0  0
    7.7194   -1.7792   -1.3822 H   0  0  0  0  0  0  0  0  0  0  0  0
    5.7315   -0.4449   -1.2208 H   0  0  0  0  0  0  0  0  0  0  0  0
    9.5182   -2.9856   -0.3175 H   0  0  0  0  0  0  0  0  0  0  0  0
   10.6031   -3.7113    1.6876 H   0  0  0  0  0  0  0  0  0  0  0  0
    9.7174   -3.1176    3.8277 H   0  0  0  0  0  0  0  0  0  0  0  0
    7.7365   -1.7888    3.9547 H   0  0  0  0  0  0  0  0  0  0  0  0
    0.8054   -0.9698    1.4721 H   0  0  0  0  0  0  0  0  0  0  0  0
    0.0983   -0.5621    0.0577 H   0  0  0  0  0  0  0  0  0  0  0  0
   -4.2974    0.2929    1.1107 H   0  0  0  0  0  0  0  0  0  0  0  0
   -4.3672    0.3612    3.4996 H   0  0  0  0  0  0  0  0  0  0  0  0
   -2.3484    0.1439    4.7611 H   0  0  0  0  0  0  0  0  0  0  0  0
   -0.2592   -0.1400    3.6341 H   0  0  0  0  0  0  0  0  0  0  0  0
   -0.7182    2.0903    0.9996 H   0  0  0  0  0  0  0  0  0  0  0  0
    0.5066    2.7977    1.8159 H   0  0  0  0  0  0  0  0  0  0  0  0
    0.5066    2.7972    0.1829 H   0  0  0  0  0  0  0  0  0  0  0  0
    5.0036   -5.8327    4.7448 H   0  0  0  0  0  0  0  0  0  0  0  0
    3.6880   -6.2609    5.6123 H   0  0  0  0  0  0  0  0  0  0  0  0
    5.6915   -6.8435    6.7640 H   0  0  0  0  0  0  0  0  0  0  0  0
    6.1411   -5.2737    6.7571 H   0  0  0  0  0  0  0  0  0  0  0  0
    3.5095   -4.3007    8.8333 H   0  0  0  0  0  0  0  0  0  0  0  0
    2.7761   -5.1896    7.6764 H   0  0  0  0  0  0  0  0  0  0  0  0
    3.1872   -2.9673    6.9153 H   0  0  0  0  0  0  0  0  0  0  0  0
    4.7881   -3.1954    7.1431 H   0  0  0  0  0  0  0  0  0  0  0  0
  1  2  1  0  0  0  0
  2  3  1  0  0  0  0
  3  4  2  0  0  0  0
  4  5  1  0  0  0  0
  5  6  2  0  0  0  0
  6  7  1  0  0  0  0
  7  2  2  0  0  0  0
  6  8  1  0  0  0  0
  8  9  1  0  0  0  0
  9 10  1  0  0  0  0
 10 11  2  0  0  0  0
 11 12  1  0  0  0  0
 12 13  2  0  0  0  0
 13  9  1  0  0  0  0
 13 14  1  0  0  0  0
 14 15  1  0  0  0  0
 15 16  2  0  0  0  0
 16 17  1  0  0  0  0
 17 18  2  0  0  0  0
 18 19  1  0  0  0  0
 19 14  2  0  0  0  0
 17 20  1  0  0  0  0
 20 21  2  0  0  0  0
 21 22  1  0  0  0  0
 22 23  2  0  0  0  0
 23 16  1  0  0  0  0
 10 24  1  0  0  0  0
 24 25  1  0  0  0  0
 25 26  1  0  0  0  0
 26 27  1  0  0  0  0
 27 28  1  0  0  0  0
 28 29  1  0  0  0  0
 28 30  2  0  0  0  0
 27 31  2  0  0  0  0
 31 32  1  0  0  0  0
 32 33  2  0  0  0  0
 33 34  1  0  0  0  0
 34 26  2  0  0  0  0
 24 35  1  0  0  0  0
  3 36  1  0  0  0  0
 36 37  1  0  0  0  0
 37 38  1  0  0  0  0
 38 39  1  0  0  0  0
 39 40  1  0  0  0  0
 40 41  1  0  0  0  0
 41 36  1  0  0  0  0
  5 42  1  0  0  0  0
  7 43  1  0  0  0  0
  8 44  1  0  0  0  0
  8 45  1  0  0  0  0
 18 46  1  0  0  0  0
 19 47  1  0  0  0  0
 20 48  1  0  0  0  0
 21 49  1  0  0  0  0
 22 50  1  0  0  0  0
 23 51  1  0  0  0  0
 25 52  1  0  0  0  0
 25 53  1  0  0  0  0
 31 54  1  0  0  0  0
 32 55  1  0  0  0  0
 33 56  1  0  0  0  0
 34 57  1  0  0  0  0
 35 58  1  0  0  0  0
 35 59  1  0  0  0  0
 35 60  1  0  0  0  0
 37 61  1  0  0  0  0
 37 62  1  0  0  0  0
 38 63  1  0  0  0  0
 38 64  1  0  0  0  0
 40 65  1  0  0  0  0
 40 66  1  0  0  0  0
 41 67  1  0  0  0  0
 41 68  1  0  0  0  0
M  CHG  2  28   1  29  -1
M  END
>  <result-rank>
2

>  <similarity>
0.908

>  <query-name>


>  <query-smiles>
S(=O)(=O)(NC(=O)C)c1ccc(cc1)C=2N3N=CC=C(N4CCOCC4)C3=NC2/C=C/c5nc6c(cc5)cccc6

>  <source>
REALspace_2019-12

>  <similarity-descriptor>
0.928;1.000;0.797;0.864;0.935;1.000;0.975;0.0;0.0;0.0;0.797;0.935;0.091

>  <similarity-descriptor-smiles>
NCc1ccccc1;N1CCOCC1;N1C=NN=C1;Fc1cc(cnc1)C;c1ccccn1;c1ccccc1;[N+]([O-])=O;;;;N1C=NN=C1;c1ccccn1;C

>  <reaction-name>
m_273170

>  <reagent1-name>
10759452

>  <reagent1-smiles>
[R2*]=C([R1*])N([R3*])Cc1cnc(N2CCOCC2)c(F)c1

>  <reagent2-name>
10761548

>  <reagent2-smiles>
[R1*]N(Cc1c([N+]([O-])=O)cccc1)C

>  <reagent3-name>
10755784

>  <reagent3-smiles>
[R2*]=NN=C([R3*])c1nc2c(cc1)cccc2

$$$$
m_273170____10756432____10761548____10766638
          04022017313D 1   1.00000     0.00000     0
            
 70 75  0  0  0  0            999 V2000
    4.6058   -2.3295    1.7131 S   0  0  0  0  0  0  0  0  0  0  0  0
    4.8011   -2.0333    3.3777 C   0  0  0  0  0  0  0  0  0  0  0  0
    4.3737   -0.8133    3.5868 N   0  0  0  0  0  0  0  0  0  0  0  0
    3.9082   -0.1501    2.4826 C   0  0  0  0  0  0  0  0  0  0  0  0
    3.3905    1.2051    2.4893 C   0  0  0  0  0  0  0  0  0  0  0  0
    4.1071    2.3065    2.4903 N   0  0  0  0  0  0  0  0  0  0  0  0
    3.2789    3.3271    2.4974 N   0  0  0  0  0  0  0  0  0  0  0  0
    2.0315    2.9267    2.5008 C   0  0  0  0  0  0  0  0  0  0  0  0
    2.0806    1.5694    2.4959 N   0  0  0  0  0  0  0  0  0  0  0  0
    0.9245    0.6605    2.4981 C   0  0  0  0  0  0  0  0  0  0  0  0
    0.8353   -0.0427    3.8428 C   0  0  0  0  0  0  0  0  0  0  0  0
   -0.1704   -0.9636    4.1212 C   0  0  0  0  0  0  0  0  0  0  0  0
   -1.0878   -1.2363    3.1687 O   0  0  0  0  0  0  0  0  0  0  0  0
   -2.0728   -2.1266    3.4152 C   0  0  0  0  0  0  0  0  0  0  0  0
   -1.8621   -3.4690    3.1169 C   0  0  0  0  0  0  0  0  0  0  0  0
   -2.8780   -4.3844    3.3718 C   0  0  0  0  0  0  0  0  0  0  0  0
   -2.6888   -5.6708    3.0907 F   0  0  0  0  0  0  0  0  0  0  0  0
   -4.0896   -3.9742    3.9170 C   0  0  0  0  0  0  0  0  0  0  0  0
   -4.2802   -2.6277    4.2082 C   0  0  0  0  0  0  0  0  0  0  0  0
   -3.2773   -1.6963    3.9610 C   0  0  0  0  0  0  0  0  0  0  0  0
   -0.2193   -1.5659    5.3190 N   0  0  0  0  0  0  0  0  0  0  0  0
    0.6858   -1.3061    6.2741 C   0  0  0  0  0  0  0  0  0  0  0  0
    1.7133   -0.3952    6.0532 C   0  0  0  0  0  0  0  0  0  0  0  0
    1.7839    0.2418    4.8190 C   0  0  0  0  0  0  0  0  0  0  0  0
    0.8853    3.7336    2.5048 N   0  0  0  0  0  0  0  0  0  0  0  0
   -0.4485    3.1157    2.5084 C   0  0  0  0  0  0  0  0  0  0  0  0
   -1.1103    3.3467    3.8572 C   0  0  0  0  0  0  0  0  0  0  0  0
   -2.4657    3.6518    3.9238 C   0  0  0  0  0  0  0  0  0  0  0  0
   -3.2395    3.7521    2.7610 N   0  3  0  0  0  0  0  0  0  0  0  0
   -3.8059    2.7664    2.3182 O   0  5  0  0  0  0  0  0  0  0  0  0
   -3.3464    4.8164    2.1954 O   0  0  0  0  0  0  0  0  0  0  0  0
   -3.0710    3.8630    5.1578 C   0  0  0  0  0  0  0  0  0  0  0  0
   -2.3211    3.7690    6.3253 C   0  0  0  0  0  0  0  0  0  0  0  0
   -0.9660    3.4642    6.2587 C   0  0  0  0  0  0  0  0  0  0  0  0
   -0.3604    3.2537    5.0246 C   0  0  0  0  0  0  0  0  0  0  0  0
    1.0172    5.1977    2.5052 C   0  0  0  0  0  0  0  0  0  0  0  0
    3.9421   -0.8166    1.2996 C   0  0  0  0  0  0  0  0  0  0  0  0
    5.3251   -2.9234    4.3226 N   0  0  0  0  0  0  0  0  0  0  0  0
    5.4234   -2.5024    5.7289 C   0  0  0  0  0  0  0  0  0  0  0  0
    5.2224   -3.6829    6.6665 C   0  0  0  0  0  0  0  0  0  0  0  0
    5.9779   -4.8130    6.2496 O   0  0  0  0  0  0  0  0  0  0  0  0
    5.5176   -5.2898    4.9919 C   0  0  0  0  0  0  0  0  0  0  0  0
    5.7420   -4.2658    3.8897 C   0  0  0  0  0  0  0  0  0  0  0  0
    1.0336   -0.0194    1.7729 H   0  0  0  0  0  0  0  0  0  0  0  0
    0.0878    1.1850    2.3401 H   0  0  0  0  0  0  0  0  0  0  0  0
   -0.9932   -3.7714    2.7250 H   0  0  0  0  0  0  0  0  0  0  0  0
   -4.8147   -4.6389    4.0973 H   0  0  0  0  0  0  0  0  0  0  0  0
   -5.1491   -2.3254    4.6002 H   0  0  0  0  0  0  0  0  0  0  0  0
   -3.4206   -0.7296    4.1731 H   0  0  0  0  0  0  0  0  0  0  0  0
    0.6210   -1.7731    7.1560 H   0  0  0  0  0  0  0  0  0  0  0  0
    2.3870   -0.2025    6.7666 H   0  0  0  0  0  0  0  0  0  0  0  0
    2.5129    0.9010    4.6345 H   0  0  0  0  0  0  0  0  0  0  0  0
   -0.3612    2.1332    2.3438 H   0  0  0  0  0  0  0  0  0  0  0  0
   -1.0078    3.5259    1.7881 H   0  0  0  0  0  0  0  0  0  0  0  0
   -4.0454    4.0826    5.2057 H   0  0  0  0  0  0  0  0  0  0  0  0
   -2.7564    3.9207    7.2127 H   0  0  0  0  0  0  0  0  0  0  0  0
   -0.4269    3.3964    7.0982 H   0  0  0  0  0  0  0  0  0  0  0  0
    0.6143    3.0354    4.9767 H   0  0  0  0  0  0  0  0  0  0  0  0
    0.1080    5.6142    2.5082 H   0  0  0  0  0  0  0  0  0  0  0  0
    1.5190    5.4869    3.3204 H   0  0  0  0  0  0  0  0  0  0  0  0
    1.5141    5.4879    1.6874 H   0  0  0  0  0  0  0  0  0  0  0  0
    3.6473   -0.4952    0.3996 H   0  0  0  0  0  0  0  0  0  0  0  0
    4.7217   -1.8145    5.9142 H   0  0  0  0  0  0  0  0  0  0  0  0
    6.3280   -2.1075    5.8895 H   0  0  0  0  0  0  0  0  0  0  0  0
    5.5118   -3.4200    7.5869 H   0  0  0  0  0  0  0  0  0  0  0  0
    4.2527   -3.9268    6.6790 H   0  0  0  0  0  0  0  0  0  0  0  0
    4.5394   -5.4869    5.0577 H   0  0  0  0  0  0  0  0  0  0  0  0
    6.0118   -6.1281    4.7618 H   0  0  0  0  0  0  0  0  0  0  0  0
    6.7139   -4.2463    3.6548 H   0  0  0  0  0  0  0  0  0  0  0  0
    5.2099   -4.5297    3.0852 H   0  0  0  0  0  0  0  0  0  0  0  0
  1  2  1  0  0  0  0
  2  3  2  0  0  0  0
  3  4  1  0  0  0  0
  4  5  1  0  0  0  0
  5  6  2  0  0  0  0
  6  7  1  0  0  0  0
  7  8  2  0  0  0  0
  8  9  1  0  0  0  0
  9  5  1  0  0  0  0
  9 10  1  0  0  0  0
 10 11  1  0  0  0  0
 11 12  1  0  0  0  0
 12 13  1  0  0  0  0
 13 14  1  0  0  0  0
 14 15  1  0  0  0  0
 15 16  2  0  0  0  0
 16 17  1  0  0  0  0
 16 18  1  0  0  0  0
 18 19  2  0  0  0  0
 19 20  1  0  0  0  0
 20 14  2  0  0  0  0
 12 21  2  0  0  0  0
 21 22  1  0  0  0  0
 22 23  2  0  0  0  0
 23 24  1  0  0  0  0
 24 11  2  0  0  0  0
  8 25  1  0  0  0  0
 25 26  1  0  0  0  0
 26 27  1  0  0  0  0
 27 28  1  0  0  0  0
 28 29  1  0  0  0  0
 29 30  1  0  0  0  0
 29 31  2  0  0  0  0
 28 32  2  0  0  0  0
 32 33  1  0  0  0  0
 33 34  2  0  0  0  0
 34 35  1  0  0  0  0
 35 27  2  0  0  0  0
 25 36  1  0  0  0  0
  4 37  2  0  0  0  0
 37  1  1  0  0  0  0
  2 38  1  0  0  0  0
 38 39  1  0  0  0  0
 39 40  1  0  0  0  0
 40 41  1  0  0  0  0
 41 42  1  0  0  0  0
 42 43  1  0  0  0  0
 43 38  1  0  0  0  0
 10 44  1  0  0  0  0
 10 45  1  0  0  0  0
 15 46  1  0  0  0  0
 18 47  1  0  0  0  0
 19 48  1  0  0  0  0
 20 49  1  0  0  0  0
 22 50  1  0  0  0  0
 23 51  1  0  0  0  0
 24 52  1  0  0  0  0
 26 53  1  0  0  0  0
 26 54  1  0  0  0  0
 32 55  1  0  0  0  0
 33 56  1  0  0  0  0
 34 57  1  0  0  0  0
 35 58  1  0  0  0  0
 36 59  1  0  0  0  0
 36 60  1  0  0  0  0
 36 61  1  0  0  0  0
 37 62  1  0  0  0  0
 39 63  1  0  0  0  0
 39 64  1  0  0  0  0
 40 65  1  0  0  0  0
 40 66  1  0  0  0  0
 42 67  1  0  0  0  0
 42 68  1  0  0  0  0
 43 69  1  0  0  0  0
 43 70  1  0  0  0  0
M  CHG  2  29   1  30  -1
M  END
>  <result-rank>
3

>  <similarity>
0.904

>  <query-name>


>  <query-smiles>
S(=O)(=O)(NC(=O)C)c1ccc(cc1)C=2N3N=CC=C(N4CCOCC4)C3=NC2/C=C/c5nc6c(cc5)cccc6

>  <source>
REALspace_2019-12

>  <similarity-descriptor>
0.928;1.000;0.805;0.961;0.942;0.953;0.975;0.0;0.0;0.0;0.251;0.942;0.083

>  <similarity-descriptor-smiles>
NCc1ccccc1;N1CCOCC1;C=1NC=NN1;S1C=CN=C1;c1cccnc1;Oc1cccc(c1)F;[N+]([O-])=O;;;;C;c1cccnc1;C

>  <reaction-name>
m_273170

>  <reagent1-name>
10756432

>  <reagent1-smiles>
[R2*]=C([R1*])N([R3*])Cc1c(Oc2cc(F)ccc2)nccc1

>  <reagent2-name>
10761548

>  <reagent2-smiles>
[R1*]N(Cc1c([N+]([O-])=O)cccc1)C

>  <reagent3-name>
10766638

>  <reagent3-smiles>
[R2*]=NN=C([R3*])C=1N=C(SC1)N2CCOCC2

$$$$
s_2____11687950____8992042____86635
          04022017313D 1   1.00000     0.00000     0
            
 63 68  0  0  0  0            999 V2000
   -1.9513    6.0842    0.4460 S   0  0  0  0  0  0  0  0  0  0  0  0
   -1.1728    7.0069   -0.3390 O   0  0  0  0  0  0  0  0  0  0  0  0
   -3.2098    5.8392   -0.2095 O   0  0  0  0  0  0  0  0  0  0  0  0
   -2.2222    6.7207    1.9220 N   0  0  0  0  0  0  0  0  0  0  0  0
   -1.0821    4.5864    0.6111 C   0  0  0  0  0  0  0  0  0  0  0  0
   -0.7377    4.1262    1.8777 C   0  0  0  0  0  0  0  0  0  0  0  0
   -0.0423    2.9284    2.0032 C   0  0  0  0  0  0  0  0  0  0  0  0
    0.2999    2.2052    0.8655 C   0  0  0  0  0  0  0  0  0  0  0  0
    1.0000    1.0000    1.0000 N   0  0  0  0  0  0  0  0  0  0  0  0
    2.2727    1.0000    1.0000 C   0  0  0  0  0  0  0  0  0  0  0  0
    3.2932    2.2218    0.3944 S   0  0  0  0  0  0  0  0  0  0  0  0
    4.7811    1.4716    0.7594 C   0  0  0  0  0  0  0  0  0  0  0  0
    4.4252    0.2929    1.3410 C   0  0  0  0  0  0  0  0  0  0  0  0
    3.0922    0.0268    1.4798 N   0  0  0  0  0  0  0  0  0  0  0  0
    2.5424   -1.1964    2.0815 C   0  0  0  0  0  0  0  0  0  0  0  0
    2.4675   -1.0292    3.5923 C   0  0  0  0  0  0  0  0  0  0  0  0
    3.4798   -1.3722    4.4089 N   0  0  0  0  0  0  0  0  0  0  0  0
    3.4239   -1.2300    5.7455 C   0  0  0  0  0  0  0  0  0  0  0  0
    4.4863   -1.5912    6.5845 N   0  0  0  0  0  0  0  0  0  0  0  0
    4.3429   -1.4028    8.0363 C   0  0  0  0  0  0  0  0  0  0  0  0
    5.6814   -1.0676    8.6759 C   0  0  0  0  0  0  0  0  0  0  0  0
    6.7050   -1.9423    8.2206 O   0  0  0  0  0  0  0  0  0  0  0  0
    6.9357   -1.7243    6.8354 C   0  0  0  0  0  0  0  0  0  0  0  0
    5.7274   -2.1253    6.0031 C   0  0  0  0  0  0  0  0  0  0  0  0
    2.2762   -0.7061    6.3316 C   0  0  0  0  0  0  0  0  0  0  0  0
    1.2096   -0.3407    5.5161 C   0  0  0  0  0  0  0  0  0  0  0  0
    1.3012   -0.5017    4.1374 C   0  0  0  0  0  0  0  0  0  0  0  0
    5.4808   -0.5996    1.7731 C   0  0  0  0  0  0  0  0  0  0  0  0
    5.4724   -1.9052    1.6503 O   0  0  0  0  0  0  0  0  0  0  0  0
    6.5784   -2.4279    2.1388 C   0  0  0  0  0  0  0  0  0  0  0  0
    7.3674   -1.4058    2.6115 C   0  0  0  0  0  0  0  0  0  0  0  0
    8.6006   -1.6985    3.1852 C   0  0  0  0  0  0  0  0  0  0  0  0
    9.0504   -3.0108    3.2916 C   0  0  0  0  0  0  0  0  0  0  0  0
    8.2521   -4.0455    2.8145 C   0  0  0  0  0  0  0  0  0  0  0  0
    7.0205   -3.7435    2.2423 C   0  0  0  0  0  0  0  0  0  0  0  0
    6.6442   -0.2173    2.3681 C   0  0  0  0  0  0  0  0  0  0  0  0
   -0.0472    2.6709   -0.3977 C   0  0  0  0  0  0  0  0  0  0  0  0
   -0.7424    3.8680   -0.5304 C   0  0  0  0  0  0  0  0  0  0  0  0
   -2.7628    6.0799    2.4671 H   0  0  0  0  0  0  0  0  0  0  0  0
   -1.3483    6.8909    2.3772 H   0  0  0  0  0  0  0  0  0  0  0  0
   -0.9878    4.6519    2.6907 H   0  0  0  0  0  0  0  0  0  0  0  0
    0.2110    2.5881    2.9087 H   0  0  0  0  0  0  0  0  0  0  0  0
    5.7030    1.8179    0.5861 H   0  0  0  0  0  0  0  0  0  0  0  0
    3.1343   -1.9716    1.8608 H   0  0  0  0  0  0  0  0  0  0  0  0
    1.6255   -1.3633    1.7188 H   0  0  0  0  0  0  0  0  0  0  0  0
    3.9880   -2.2451    8.4421 H   0  0  0  0  0  0  0  0  0  0  0  0
    3.7019   -0.6546    8.2075 H   0  0  0  0  0  0  0  0  0  0  0  0
    5.9282   -0.1274    8.4412 H   0  0  0  0  0  0  0  0  0  0  0  0
    5.5983   -1.1525    9.6688 H   0  0  0  0  0  0  0  0  0  0  0  0
    7.7243   -2.2675    6.5473 H   0  0  0  0  0  0  0  0  0  0  0  0
    7.1266   -0.7541    6.6858 H   0  0  0  0  0  0  0  0  0  0  0  0
    5.8352   -1.7664    5.0760 H   0  0  0  0  0  0  0  0  0  0  0  0
    5.6699   -3.1231    5.9697 H   0  0  0  0  0  0  0  0  0  0  0  0
    2.2187   -0.5937    7.3236 H   0  0  0  0  0  0  0  0  0  0  0  0
    0.3772    0.0376    5.9212 H   0  0  0  0  0  0  0  0  0  0  0  0
    0.5383   -0.2416    3.5456 H   0  0  0  0  0  0  0  0  0  0  0  0
    9.1732   -0.9532    3.5268 H   0  0  0  0  0  0  0  0  0  0  0  0
    9.9384   -3.2082    3.7068 H   0  0  0  0  0  0  0  0  0  0  0  0
    8.5597   -4.9946    2.8821 H   0  0  0  0  0  0  0  0  0  0  0  0
    6.4431   -4.4844    1.8994 H   0  0  0  0  0  0  0  0  0  0  0  0
    6.9290    0.7157    2.5882 H   0  0  0  0  0  0  0  0  0  0  0  0
    0.2031    2.1451   -1.2107 H   0  0  0  0  0  0  0  0  0  0  0  0
   -0.9951    4.2084   -1.4360 H   0  0  0  0  0  0  0  0  0  0  0  0
  1  2  2  0  0  0  0
  1  3  2  0  0  0  0
  1  4  1  0  0  0  0
  1  5  1  0  0  0  0
  5  6  1  0  0  0  0
  6  7  2  0  0  0  0
  7  8  1  0  0  0  0
  8  9  1  0  0  0  0
  9 10  2  0  0  0  0
 10 11  1  0  0  0  0
 11 12  1  0  0  0  0
 12 13  2  0  0  0  0
 13 14  1  0  0  0  0
 14 10  1  0  0  0  0
 14 15  1  0  0  0  0
 15 16  1  0  0  0  0
 16 17  1  0  0  0  0
 17 18  2  0  0  0  0
 18 19  1  0  0  0  0
 19 20  1  0  0  0  0
 20 21  1  0  0  0  0
 21 22  1  0  0  0  0
 22 23  1  0  0  0  0
 23 24  1  0  0  0  0
 24 19  1  0  0  0  0
 18 25  1  0  0  0  0
 25 26  2  0  0  0  0
 26 27  1  0  0  0  0
 27 16  2  0  0  0  0
 13 28  1  0  0  0  0
 28 29  1  0  0  0  0
 29 30  1  0  0  0  0
 30 31  1  0  0  0  0
 31 32  2  0  0  0  0
 32 33  1  0  0  0  0
 33 34  2  0  0  0  0
 34 35  1  0  0  0  0
 35 30  2  0  0  0  0
 31 36  1  0  0  0  0
 28 36  2  0  0  0  0
  8 37  2  0  0  0  0
 37 38  1  0  0  0  0
 38  5  2  0  0  0  0
  4 39  1  0  0  0  0
  4 40  1  0  0  0  0
  6 41  1  0  0  0  0
  7 42  1  0  0  0  0
 12 43  1  0  0  0  0
 15 44  1  0  0  0  0
 15 45  1  0  0  0  0
 20 46  1  0  0  0  0
 20 47  1  0  0  0  0
 21 48  1  0  0  0  0
 21 49  1  0  0  0  0
 23 50  1  0  0  0  0
 23 51  1  0  0  0  0
 24 52  1  0  0  0  0
 24 53  1  0  0  0  0
 25 54  1  0  0  0  0
 26 55  1  0  0  0  0
 27 56  1  0  0  0  0
 32 57  1  0  0  0  0
 33 58  1  0  0  0  0
 34 59  1  0  0  0  0
 35 60  1  0  0  0  0
 36 61  1  0  0  0  0
 37 62  1  0  0  0  0
 38 63  1  0  0  0  0
M  END
>  <result-rank>
4

>  <similarity>
0.895

>  <query-name>


>  <query-smiles>
S(=O)(=O)(NC(=O)C)c1ccc(cc1)C=2N3N=CC=C(N4CCOCC4)C3=NC2/C=C/c5nc6c(cc5)cccc6

>  <source>
REALspace_2019-12

>  <similarity-descriptor>
0.998;1.000;0.822;0.842;0.772;0.999;1.000;0.588;0.0;0.0;0.772;0.772;0.0

>  <similarity-descriptor-smiles>
c1ccccc1;N1CCOCC1;N=C1NC=CS1;Cc1ccccn1;C1=CccO1;c1ccccc1;S(=O)=O;N;;;C1=CccO1;C1=CccO1;

>  <reaction-name>
s_2

>  <reagent1-name>
11687950

>  <reagent1-smiles>
[R1*]SC([R3*])=Nc1ccc(S(=O)(=O)N)cc1

>  <reagent2-name>
8992042

>  <reagent2-smiles>
[R2*]N([R3*])Cc1nc(N2CCOCC2)ccc1

>  <reagent3-name>
86635

>  <reagent3-smiles>
[R2*]C(C=1Oc2c(cccc2)C1)=C[R1*]

$$$$
s_2____11687950____8992042____12433048
          04022017313D 1   1.00000     0.00000     0
            
 71 76  0  0  0  0            999 V2000
   -7.0559   -0.6476    5.8037 Cl  0  0  0  0  0  0  0  0  0  0  0  0
   -5.6236   -1.0425    4.8240 C   0  0  0  0  0  0  0  0  0  0  0  0
   -5.5561   -0.6183    3.5011 C   0  0  0  0  0  0  0  0  0  0  0  0
   -4.4345   -0.9305    2.7404 C   0  0  0  0  0  0  0  0  0  0  0  0
   -3.3955   -1.6602    3.3079 C   0  0  0  0  0  0  0  0  0  0  0  0
   -2.3097   -1.9595    2.5631 O   0  0  0  0  0  0  0  0  0  0  0  0
   -1.2568   -1.1152    2.5346 C   0  0  0  0  0  0  0  0  0  0  0  0
   -0.8473   -0.5537    1.3297 C   0  0  0  0  0  0  0  0  0  0  0  0
    0.2399    0.3140    1.3103 C   0  0  0  0  0  0  0  0  0  0  0  0
    0.9034    0.6099    2.4960 C   0  0  0  0  0  0  0  0  0  0  0  0
    0.4940    0.0492    3.7015 C   0  0  0  0  0  0  0  0  0  0  0  0
   -0.5928   -0.8187    3.7205 C   0  0  0  0  0  0  0  0  0  0  0  0
    2.0334    1.5154    2.4653 C   0  0  0  0  0  0  0  0  0  0  0  0
    3.3388    1.1121    2.4746 N   0  0  0  0  0  0  0  0  0  0  0  0
    4.2406    2.1295    2.4468 C   0  0  0  0  0  0  0  0  0  0  0  0
    3.3299    3.5681    2.4036 S   0  0  0  0  0  0  0  0  0  0  0  0
    1.7813    2.8529    2.4247 C   0  0  0  0  0  0  0  0  0  0  0  0
    5.5094    2.0301    2.4537 N   0  0  0  0  0  0  0  0  0  0  0  0
    6.2585    2.6964    3.4312 C   0  0  0  0  0  0  0  0  0  0  0  0
    7.2750    3.5624    3.0423 C   0  0  0  0  0  0  0  0  0  0  0  0
    8.0233    4.2276    4.0074 C   0  0  0  0  0  0  0  0  0  0  0  0
    7.7433    4.0173    5.3535 C   0  0  0  0  0  0  0  0  0  0  0  0
    8.6746    4.8465    6.5666 S   0  0  0  0  0  0  0  0  0  0  0  0
    7.7920    5.6072    7.4126 O   0  0  0  0  0  0  0  0  0  0  0  0
    9.3913    3.8840    7.3627 O   0  0  0  0  0  0  0  0  0  0  0  0
    9.7352    5.8517    5.8444 N   0  0  0  0  0  0  0  0  0  0  0  0
    6.7279    3.1530    5.7488 C   0  0  0  0  0  0  0  0  0  0  0  0
    5.9835    2.4907    4.7785 C   0  0  0  0  0  0  0  0  0  0  0  0
    3.7804   -0.2891    2.5193 C   0  0  0  0  0  0  0  0  0  0  0  0
    4.0575   -0.7790    1.1053 C   0  0  0  0  0  0  0  0  0  0  0  0
    3.1120   -1.3542    0.3409 N   0  0  0  0  0  0  0  0  0  0  0  0
    3.3461   -1.7921   -0.9094 C   0  0  0  0  0  0  0  0  0  0  0  0
    2.3523   -2.3887   -1.6943 N   0  0  0  0  0  0  0  0  0  0  0  0
    2.6863   -2.8423   -3.0535 C   0  0  0  0  0  0  0  0  0  0  0  0
    1.8813   -4.0768   -3.4292 C   0  0  0  0  0  0  0  0  0  0  0  0
    0.5087   -3.9259   -3.0900 O   0  0  0  0  0  0  0  0  0  0  0  0
    0.3468   -3.8248   -1.6813 C   0  0  0  0  0  0  0  0  0  0  0  0
    1.0053   -2.5686   -1.1317 C   0  0  0  0  0  0  0  0  0  0  0  0
    4.6173   -1.6536   -1.4573 C   0  0  0  0  0  0  0  0  0  0  0  0
    5.6195   -1.0628   -0.6939 C   0  0  0  0  0  0  0  0  0  0  0  0
    5.3426   -0.6216    0.5960 C   0  0  0  0  0  0  0  0  0  0  0  0
   -3.4693   -2.0815    4.6309 C   0  0  0  0  0  0  0  0  0  0  0  0
   -4.5881   -1.7730    5.3971 C   0  0  0  0  0  0  0  0  0  0  0  0
   -6.3072   -0.0935    3.1006 H   0  0  0  0  0  0  0  0  0  0  0  0
   -4.3753   -0.6311    1.7881 H   0  0  0  0  0  0  0  0  0  0  0  0
   -1.3315   -0.7725    0.4825 H   0  0  0  0  0  0  0  0  0  0  0  0
    0.5424    0.7224    0.4491 H   0  0  0  0  0  0  0  0  0  0  0  0
    0.9778    0.2686    4.5487 H   0  0  0  0  0  0  0  0  0  0  0  0
   -0.8951   -1.2271    4.5818 H   0  0  0  0  0  0  0  0  0  0  0  0
    0.8925    3.3109    2.4105 H   0  0  0  0  0  0  0  0  0  0  0  0
    7.4671    3.7063    2.0716 H   0  0  0  0  0  0  0  0  0  0  0  0
    8.7562    4.8515    3.7361 H   0  0  0  0  0  0  0  0  0  0  0  0
   10.3481    5.3235    5.2569 H   0  0  0  0  0  0  0  0  0  0  0  0
    9.2375    6.5201    5.2916 H   0  0  0  0  0  0  0  0  0  0  0  0
    6.5353    3.0094    6.7195 H   0  0  0  0  0  0  0  0  0  0  0  0
    5.2507    1.8668    5.0498 H   0  0  0  0  0  0  0  0  0  0  0  0
    3.0640   -0.8513    2.9324 H   0  0  0  0  0  0  0  0  0  0  0  0
    4.6151   -0.3583    3.0656 H   0  0  0  0  0  0  0  0  0  0  0  0
    3.6609   -3.0624   -3.0945 H   0  0  0  0  0  0  0  0  0  0  0  0
    2.4825   -2.1091   -3.7022 H   0  0  0  0  0  0  0  0  0  0  0  0
    1.9579   -4.2272   -4.4149 H   0  0  0  0  0  0  0  0  0  0  0  0
    2.2517   -4.8673   -2.9416 H   0  0  0  0  0  0  0  0  0  0  0  0
    0.7619   -4.6249   -1.2485 H   0  0  0  0  0  0  0  0  0  0  0  0
   -0.6298   -3.7994   -1.4678 H   0  0  0  0  0  0  0  0  0  0  0  0
    0.4440   -1.7754   -1.3677 H   0  0  0  0  0  0  0  0  0  0  0  0
    1.0741   -2.6442   -0.1369 H   0  0  0  0  0  0  0  0  0  0  0  0
    4.8078   -1.9736   -2.3853 H   0  0  0  0  0  0  0  0  0  0  0  0
    6.5388   -0.9555   -1.0725 H   0  0  0  0  0  0  0  0  0  0  0  0
    6.0583   -0.1965    1.1502 H   0  0  0  0  0  0  0  0  0  0  0  0
   -2.7182   -2.6063    5.0313 H   0  0  0  0  0  0  0  0  0  0  0  0
   -4.6474   -2.0729    6.3492 H   0  0  0  0  0  0  0  0  0  0  0  0
  1  2  1  0  0  0  0
  2  3  1  0  0  0  0
  3  4  2  0  0  0  0
  4  5  1  0  0  0  0
  5  6  1  0  0  0  0
  6  7  1  0  0  0  0
  7  8  1  0  0  0  0
  8  9  2  0  0  0  0
  9 10  1  0  0  0  0
 10 11  2  0  0  0  0
 11 12  1  0  0  0  0
 12  7  2  0  0  0  0
 10 13  1  0  0  0  0
 13 14  1  0  0  0  0
 14 15  1  0  0  0  0
 15 16  1  0  0  0  0
 16 17  1  0  0  0  0
 13 17  2  0  0  0  0
 15 18  2  0  0  0  0
 18 19  1  0  0  0  0
 19 20  1  0  0  0  0
 20 21  2  0  0  0  0
 21 22  1  0  0  0  0
 22 23  1  0  0  0  0
 23 24  2  0  0  0  0
 23 25  2  0  0  0  0
 23 26  1  0  0  0  0
 22 27  2  0  0  0  0
 27 28  1  0  0  0  0
 28 19  2  0  0  0  0
 14 29  1  0  0  0  0
 29 30  1  0  0  0  0
 30 31  1  0  0  0  0
 31 32  2  0  0  0  0
 32 33  1  0  0  0  0
 33 34  1  0  0  0  0
 34 35  1  0  0  0  0
 35 36  1  0  0  0  0
 36 37  1  0  0  0  0
 37 38  1  0  0  0  0
 38 33  1  0  0  0  0
 32 39  1  0  0  0  0
 39 40  2  0  0  0  0
 40 41  1  0  0  0  0
 41 30  2  0  0  0  0
  5 42  2  0  0  0  0
 42 43  1  0  0  0  0
 43  2  2  0  0  0  0
  3 44  1  0  0  0  0
  4 45  1  0  0  0  0
  8 46  1  0  0  0  0
  9 47  1  0  0  0  0
 11 48  1  0  0  0  0
 12 49  1  0  0  0  0
 17 50  1  0  0  0  0
 20 51  1  0  0  0  0
 21 52  1  0  0  0  0
 26 53  1  0  0  0  0
 26 54  1  0  0  0  0
 27 55  1  0  0  0  0
 28 56  1  0  0  0  0
 29 57  1  0  0  0  0
 29 58  1  0  0  0  0
 34 59  1  0  0  0  0
 34 60  1  0  0  0  0
 35 61  1  0  0  0  0
 35 62  1  0  0  0  0
 37 63  1  0  0  0  0
 37 64  1  0  0  0  0
 38 65  1  0  0  0  0
 38 66  1  0  0  0  0
 39 67  1  0  0  0  0
 40 68  1  0  0  0  0
 41 69  1  0  0  0  0
 42 70  1  0  0  0  0
 43 71  1  0  0  0  0
M  END
>  <result-rank>
5

>  <similarity>
0.895

>  <query-name>


>  <query-smiles>
S(=O)(=O)(NC(=O)C)c1ccc(cc1)C=2N3N=CC=C(N4CCOCC4)C3=NC2/C=C/c5nc6c(cc5)cccc6

>  <source>
REALspace_2019-12

>  <similarity-descriptor>
0.998;1.000;0.822;0.842;0.825;0.939;1.000;0.588;0.0;0.0;0.825;0.825;0.0

>  <similarity-descriptor-smiles>
c1ccccc1;N1CCOCC1;C1=CSC(N1)=N;Cc1ccccn1;c1ccccc1;Clc1ccc(cc1)O;S(=O)=O;N;;;c1ccccc1;c1ccccc1;

>  <reaction-name>
s_2

>  <reagent1-name>
11687950

>  <reagent1-smiles>
[R1*]SC([R3*])=Nc1ccc(S(=O)(=O)N)cc1

>  <reagent2-name>
8992042

>  <reagent2-smiles>
[R2*]N([R3*])Cc1nc(N2CCOCC2)ccc1

>  <reagent3-name>
12433048

>  <reagent3-smiles>
[R2*]C(c1ccc(Oc2ccc(Cl)cc2)cc1)=C[R1*]

$$$$
s_2____821402____8992042____236124
          04022017313D 1   1.00000     0.00000     0
            
 69 74  0  0  0  0            999 V2000
   -0.3062    3.3447    1.3125 S   0  0  0  0  0  0  0  0  0  0  0  0
   -0.5014    1.9353    1.0911 O   0  0  0  0  0  0  0  0  0  0  0  0
   -1.5625    3.9539    1.6646 O   0  0  0  0  0  0  0  0  0  0  0  0
    0.7615    3.5615    2.5249 N   0  0  0  0  0  0  0  0  0  0  0  0
    1.9850    2.8822    2.5096 C   0  0  0  0  0  0  0  0  0  0  0  0
    3.1774    3.5986    2.4996 C   0  0  0  0  0  0  0  0  0  0  0  0
    4.3889    2.9151    2.4847 C   0  0  0  0  0  0  0  0  0  0  0  0
    4.3934    1.5238    2.4792 C   0  0  0  0  0  0  0  0  0  0  0  0
    3.2017    0.8073    2.4891 C   0  0  0  0  0  0  0  0  0  0  0  0
    1.9902    1.4907    2.5042 C   0  0  0  0  0  0  0  0  0  0  0  0
    5.6599    0.8215    2.4637 C   0  0  0  0  0  0  0  0  0  0  0  0
    6.3415    0.4457    3.5867 N   0  0  0  0  0  0  0  0  0  0  0  0
    7.5139   -0.1981    3.3425 C   0  0  0  0  0  0  0  0  0  0  0  0
    7.6623   -0.2845    1.6479 S   0  0  0  0  0  0  0  0  0  0  0  0
    6.2079    0.5157    1.2552 C   0  0  0  0  0  0  0  0  0  0  0  0
    8.3374   -0.6452    4.2038 N   0  0  0  0  0  0  0  0  0  0  0  0
    9.2670   -1.6265    3.8399 C   0  0  0  0  0  0  0  0  0  0  0  0
   10.4048   -1.8094    4.6189 C   0  0  0  0  0  0  0  0  0  0  0  0
   11.3283   -2.7851    4.2569 C   0  0  0  0  0  0  0  0  0  0  0  0
   11.1063   -3.5649    3.1259 C   0  0  0  0  0  0  0  0  0  0  0  0
    9.9657   -3.3754    2.3527 C   0  0  0  0  0  0  0  0  0  0  0  0
    9.0376   -2.4014    2.7078 C   0  0  0  0  0  0  0  0  0  0  0  0
   12.0247   -4.5430    2.7587 C   0  0  0  0  0  0  0  0  0  0  0  0
   13.1629   -4.7271    3.5365 C   0  0  0  0  0  0  0  0  0  0  0  0
   13.3872   -3.9493    4.6677 C   0  0  0  0  0  0  0  0  0  0  0  0
   12.4673   -2.9723    5.0326 C   0  0  0  0  0  0  0  0  0  0  0  0
    5.8909    0.7008    4.9623 C   0  0  0  0  0  0  0  0  0  0  0  0
    6.6190    1.9164    5.5175 C   0  0  0  0  0  0  0  0  0  0  0  0
    6.1420    3.1672    5.3868 N   0  0  0  0  0  0  0  0  0  0  0  0
    6.7778    4.2488    5.8722 C   0  0  0  0  0  0  0  0  0  0  0  0
    6.2695    5.5454    5.7294 N   0  0  0  0  0  0  0  0  0  0  0  0
    4.9935    5.7431    5.0241 C   0  0  0  0  0  0  0  0  0  0  0  0
    4.2248    6.9186    5.6075 C   0  0  0  0  0  0  0  0  0  0  0  0
    5.0675    8.0475    5.7998 O   0  0  0  0  0  0  0  0  0  0  0  0
    6.0650    7.7705    6.7742 C   0  0  0  0  0  0  0  0  0  0  0  0
    7.0121    6.6750    6.3089 C   0  0  0  0  0  0  0  0  0  0  0  0
    7.9856    4.0899    6.5438 C   0  0  0  0  0  0  0  0  0  0  0  0
    8.5082    2.8094    6.6970 C   0  0  0  0  0  0  0  0  0  0  0  0
    7.8243    1.7129    6.1820 C   0  0  0  0  0  0  0  0  0  0  0  0
    0.3329    4.1099   -0.1982 C   0  0  0  0  0  0  0  0  0  0  0  0
    0.5423    4.1798    3.2796 H   0  0  0  0  0  0  0  0  0  0  0  0
    3.1638    4.5985    2.5030 H   0  0  0  0  0  0  0  0  0  0  0  0
    5.2515    3.4208    2.4781 H   0  0  0  0  0  0  0  0  0  0  0  0
    3.2155   -0.1926    2.4853 H   0  0  0  0  0  0  0  0  0  0  0  0
    1.1277    0.9848    2.5111 H   0  0  0  0  0  0  0  0  0  0  0  0
    5.8418    0.7146    0.3461 H   0  0  0  0  0  0  0  0  0  0  0  0
   10.5575   -1.2455    5.4306 H   0  0  0  0  0  0  0  0  0  0  0  0
    9.8125   -3.9394    1.5413 H   0  0  0  0  0  0  0  0  0  0  0  0
    8.2158   -2.2601    2.1558 H   0  0  0  0  0  0  0  0  0  0  0  0
   11.8688   -5.1057    1.9469 H   0  0  0  0  0  0  0  0  0  0  0  0
   13.8286   -5.4276    3.2792 H   0  0  0  0  0  0  0  0  0  0  0  0
   14.2095   -4.0927    5.2184 H   0  0  0  0  0  0  0  0  0  0  0  0
   12.6233   -2.4099    5.8446 H   0  0  0  0  0  0  0  0  0  0  0  0
    6.0909   -0.0964    5.5319 H   0  0  0  0  0  0  0  0  0  0  0  0
    4.9058    0.8729    4.9639 H   0  0  0  0  0  0  0  0  0  0  0  0
    4.4400    4.9148    5.1111 H   0  0  0  0  0  0  0  0  0  0  0  0
    5.1783    5.9205    4.0575 H   0  0  0  0  0  0  0  0  0  0  0  0
    3.4862    7.1672    4.9808 H   0  0  0  0  0  0  0  0  0  0  0  0
    3.8372    6.6483    6.4889 H   0  0  0  0  0  0  0  0  0  0  0  0
    5.6198    7.4771    7.6202 H   0  0  0  0  0  0  0  0  0  0  0  0
    6.5912    8.6034    6.9459 H   0  0  0  0  0  0  0  0  0  0  0  0
    7.6299    7.0491    5.6173 H   0  0  0  0  0  0  0  0  0  0  0  0
    7.5445    6.3496    7.0904 H   0  0  0  0  0  0  0  0  0  0  0  0
    8.4708    4.8836    6.9109 H   0  0  0  0  0  0  0  0  0  0  0  0
    9.3753    2.6773    7.1772 H   0  0  0  0  0  0  0  0  0  0  0  0
    8.1943    0.7900    6.2881 H   0  0  0  0  0  0  0  0  0  0  0  0
    0.4685    5.0887   -0.0445 H   0  0  0  0  0  0  0  0  0  0  0  0
    1.2054    3.6868   -0.4428 H   0  0  0  0  0  0  0  0  0  0  0  0
   -0.3221    3.9769   -0.9421 H   0  0  0  0  0  0  0  0  0  0  0  0
  1  2  2  0  0  0  0
  1  3  2  0  0  0  0
  1  4  1  0  0  0  0
  4  5  1  0  0  0  0
  5  6  1  0  0  0  0
  6  7  2  0  0  0  0
  7  8  1  0  0  0  0
  8  9  2  0  0  0  0
  9 10  1  0  0  0  0
 10  5  2  0  0  0  0
  8 11  1  0  0  0  0
 11 12  1  0  0  0  0
 12 13  1  0  0  0  0
 13 14  1  0  0  0  0
 14 15  1  0  0  0  0
 11 15  2  0  0  0  0
 13 16  2  0  0  0  0
 16 17  1  0  0  0  0
 17 18  1  0  0  0  0
 18 19  2  0  0  0  0
 19 20  1  0  0  0  0
 20 21  2  0  0  0  0
 21 22  1  0  0  0  0
 22 17  2  0  0  0  0
 20 23  1  0  0  0  0
 23 24  2  0  0  0  0
 24 25  1  0  0  0  0
 25 26  2  0  0  0  0
 26 19  1  0  0  0  0
 12 27  1  0  0  0  0
 27 28  1  0  0  0  0
 28 29  1  0  0  0  0
 29 30  2  0  0  0  0
 30 31  1  0  0  0  0
 31 32  1  0  0  0  0
 32 33  1  0  0  0  0
 33 34  1  0  0  0  0
 34 35  1  0  0  0  0
 35 36  1  0  0  0  0
 36 31  1  0  0  0  0
 30 37  1  0  0  0  0
 37 38  2  0  0  0  0
 38 39  1  0  0  0  0
 39 28  2  0  0  0  0
  1 40  1  0  0  0  0
  4 41  1  0  0  0  0
  6 42  1  0  0  0  0
  7 43  1  0  0  0  0
  9 44  1  0  0  0  0
 10 45  1  0  0  0  0
 15 46  1  0  0  0  0
 18 47  1  0  0  0  0
 21 48  1  0  0  0  0
 22 49  1  0  0  0  0
 23 50  1  0  0  0  0
 24 51  1  0  0  0  0
 25 52  1  0  0  0  0
 26 53  1  0  0  0  0
 27 54  1  0  0  0  0
 27 55  1  0  0  0  0
 32 56  1  0  0  0  0
 32 57  1  0  0  0  0
 33 58  1  0  0  0  0
 33 59  1  0  0  0  0
 35 60  1  0  0  0  0
 35 61  1  0  0  0  0
 36 62  1  0  0  0  0
 36 63  1  0  0  0  0
 37 64  1  0  0  0  0
 38 65  1  0  0  0  0
 39 66  1  0  0  0  0
 40 67  1  0  0  0  0
 40 68  1  0  0  0  0
 40 69  1  0  0  0  0
M  END
>  <result-rank>
6

>  <similarity>
0.894

>  <query-name>


>  <query-smiles>
S(=O)(=O)(NC(=O)C)c1ccc(cc1)C=2N3N=CC=C(N4CCOCC4)C3=NC2/C=C/c5nc6c(cc5)cccc6

>  <source>
REALspace_2019-12

>  <similarity-descriptor>
0.999;1.000;0.779;0.842;0.910;0.999;0.790;0.0;0.0;0.0;0.779;0.779;0.0

>  <similarity-descriptor-smiles>
c1ccccc1;N1CCOCC1;C1=CSCN1;Cc1ccccn1;Nc1ccccc1;c1ccccc1;S(=O)(=O)(N)C;;;;C1=CSCN1;C1=CSCN1;

>  <reaction-name>
s_2

>  <reagent1-name>
821402

>  <reagent1-smiles>
[R1*]SC([R3*])=Nc1cc2c(cc1)cccc2

>  <reagent2-name>
8992042

>  <reagent2-smiles>
[R2*]N([R3*])Cc1nc(N2CCOCC2)ccc1

>  <reagent3-name>
236124

>  <reagent3-smiles>
[R2*]C(c1ccc(NS(=O)(=O)C)cc1)=C[R1*]

$$$$
m_273170____10758172____10760336____10766636
          04022017313D 1   1.00000     0.00000     0
            
 72 77  0  0  0  0            999 V2000
    4.4791   -3.3475   -2.6552 S   0  0  0  0  0  0  0  0  0  0  0  0
    5.8417   -3.0683   -3.0280 O   0  0  0  0  0  0  0  0  0  0  0  0
    4.4178   -4.6151   -1.9746 O   0  0  0  0  0  0  0  0  0  0  0  0
    3.5503   -3.4038   -3.9935 N   0  0  0  0  0  0  0  0  0  0  0  0
    3.8984   -2.0933   -1.5986 C   0  0  0  0  0  0  0  0  0  0  0  0
    2.9369   -2.3880   -0.6380 C   0  0  0  0  0  0  0  0  0  0  0  0
    2.4709   -1.3868    0.2080 C   0  0  0  0  0  0  0  0  0  0  0  0
    2.9766   -0.0976    0.0790 C   0  0  0  0  0  0  0  0  0  0  0  0
    3.9379    0.1965   -0.8824 C   0  0  0  0  0  0  0  0  0  0  0  0
    4.4046   -0.8040   -1.7279 C   0  0  0  0  0  0  0  0  0  0  0  0
    2.4700    1.0000    1.0000 C   0  0  3  0  0  0  0  0  0  0  0  0
    1.0000    1.0000    1.0000 N   0  0  0  0  0  0  0  0  0  0  0  0
    0.2992    1.0000    2.2139 C   0  0  0  0  0  0  0  0  0  0  0  0
   -1.0010    1.0000    2.3749 N   0  0  0  0  0  0  0  0  0  0  0  0
   -1.3236    1.0040    3.6491 N   0  0  0  0  0  0  0  0  0  0  0  0
   -0.2104    1.0064    4.3473 C   0  0  0  0  0  0  0  0  0  0  0  0
    0.8251    1.0040    3.4661 N   0  0  0  0  0  0  0  0  0  0  0  0
    2.2562    1.0047    3.8049 C   0  0  0  0  0  0  0  0  0  0  0  0
    2.7490   -0.4285    3.9264 C   0  0  0  0  0  0  0  0  0  0  0  0
    4.0681   -0.8189    4.2400 C   0  0  0  0  0  0  0  0  0  0  0  0
    3.9973   -2.1927    4.2265 C   0  0  0  0  0  0  0  0  0  0  0  0
    2.7737   -2.5734    3.9354 O   0  0  0  0  0  0  0  0  0  0  0  0
    1.9860   -1.5426    3.7465 C   0  0  0  0  0  0  0  0  0  0  0  0
    5.1532   -2.9226    4.4914 C   0  0  0  0  0  0  0  0  0  0  0  0
    6.3650   -2.2969    4.7694 C   0  0  0  0  0  0  0  0  0  0  0  0
    6.4282   -0.9079    4.7823 C   0  0  0  0  0  0  0  0  0  0  0  0
    5.2736   -0.1800    4.5166 C   0  0  0  0  0  0  0  0  0  0  0  0
   -0.1104    1.0108    5.7960 C   0  0  0  0  0  0  0  0  0  0  0  0
   -0.2762   -0.3284    6.8294 S   0  0  0  0  0  0  0  0  0  0  0  0
   -0.0224    0.5333    8.2735 C   0  0  0  0  0  0  0  0  0  0  0  0
    0.1762    1.7880    7.9477 N   0  0  0  0  0  0  0  0  0  0  0  0
    0.1323    2.0745    6.6091 C   0  0  0  0  0  0  0  0  0  0  0  0
    0.3319    3.4618    6.0290 C   0  0  0  0  0  0  0  0  0  0  0  0
   -0.0247   -0.0064    9.5651 N   0  0  0  0  0  0  0  0  0  0  0  0
   -0.2642   -1.4474    9.7411 C   0  0  0  0  0  0  0  0  0  0  0  0
    0.5083   -1.9865   10.9351 C   0  0  0  0  0  0  0  0  0  0  0  0
    0.3709   -1.1397   12.0690 O   0  0  0  0  0  0  0  0  0  0  0  0
    0.9599    0.1305   11.8227 C   0  0  0  0  0  0  0  0  0  0  0  0
    0.2360    0.8765   10.7122 C   0  0  0  0  0  0  0  0  0  0  0  0
    0.2650    1.0000   -0.2731 C   0  0  0  0  0  0  0  0  0  0  0  0
    2.9767    2.3466    0.5099 C   0  0  0  0  0  0  0  0  0  0  0  0
    2.6041   -3.5977   -3.7346 H   0  0  0  0  0  0  0  0  0  0  0  0
    3.5929   -2.5236   -4.4661 H   0  0  0  0  0  0  0  0  0  0  0  0
    2.5808   -3.3188   -0.5555 H   0  0  0  0  0  0  0  0  0  0  0  0
    1.7800   -1.5917    0.9013 H   0  0  0  0  0  0  0  0  0  0  0  0
    4.2935    1.1274   -0.9655 H   0  0  0  0  0  0  0  0  0  0  0  0
    5.0959   -0.5991   -2.4208 H   0  0  0  0  0  0  0  0  0  0  0  0
    2.8033    0.8363    1.9285 H   0  0  0  0  0  0  0  0  0  0  0  0
    2.3926    1.4790    4.6747 H   0  0  0  0  0  0  0  0  0  0  0  0
    2.7688    1.4736    3.0856 H   0  0  0  0  0  0  0  0  0  0  0  0
    1.0135   -1.5691    3.5152 H   0  0  0  0  0  0  0  0  0  0  0  0
    5.1115   -3.9216    4.4818 H   0  0  0  0  0  0  0  0  0  0  0  0
    7.1825   -2.8412    4.9580 H   0  0  0  0  0  0  0  0  0  0  0  0
    7.2898   -0.4401    4.9794 H   0  0  0  0  0  0  0  0  0  0  0  0
    5.3099    0.8193    4.5245 H   0  0  0  0  0  0  0  0  0  0  0  0
    0.2552    3.4207    5.0328 H   0  0  0  0  0  0  0  0  0  0  0  0
   -0.3667    4.0785    6.3919 H   0  0  0  0  0  0  0  0  0  0  0  0
    1.2386    3.8007    6.2799 H   0  0  0  0  0  0  0  0  0  0  0  0
    0.0293   -1.9308    8.9164 H   0  0  0  0  0  0  0  0  0  0  0  0
   -1.2415   -1.6010    9.8875 H   0  0  0  0  0  0  0  0  0  0  0  0
    0.1600   -2.8955   11.1641 H   0  0  0  0  0  0  0  0  0  0  0  0
    1.4765   -2.0516   10.6934 H   0  0  0  0  0  0  0  0  0  0  0  0
    1.9150   -0.0006   11.5568 H   0  0  0  0  0  0  0  0  0  0  0  0
    0.9189    0.6754   12.6602 H   0  0  0  0  0  0  0  0  0  0  0  0
   -0.6344    1.2213   11.0636 H   0  0  0  0  0  0  0  0  0  0  0  0
    0.8018    1.6443   10.4116 H   0  0  0  0  0  0  0  0  0  0  0  0
    0.9148    1.0000   -1.0331 H   0  0  0  0  0  0  0  0  0  0  0  0
   -0.3099    0.1835   -0.3260 H   0  0  0  0  0  0  0  0  0  0  0  0
   -0.3099    1.8165   -0.3260 H   0  0  0  0  0  0  0  0  0  0  0  0
    3.9767    2.3466    0.5099 H   0  0  0  0  0  0  0  0  0  0  0  0
    2.6433    2.5104   -0.4186 H   0  0  0  0  0  0  0  0  0  0  0  0
    2.6433    3.0689    1.1159 H   0  0  0  0  0  0  0  0  0  0  0  0
  1  2  2  0  0  0  0
  1  3  2  0  0  0  0
  1  4  1  0  0  0  0
  1  5  1  0  0  0  0
  5  6  1  0  0  0  0
  6  7  2  0  0  0  0
  7  8  1  0  0  0  0
  8  9  2  0  0  0  0
  9 10  1  0  0  0  0
 10  5  2  0  0  0  0
  8 11  1  0  0  0  0
 11 12  1  0  0  0  0
 12 13  1  0  0  0  0
 13 14  2  0  0  0  0
 14 15  1  0  0  0  0
 15 16  2  0  0  0  0
 16 17  1  0  0  0  0
 17 13  1  0  0  0  0
 17 18  1  0  0  0  0
 18 19  1  0  0  0  0
 19 20  1  0  0  0  0
 20 21  1  0  0  0  0
 21 22  1  0  0  0  0
 22 23  1  0  0  0  0
 19 23  2  0  0  0  0
 21 24  2  0  0  0  0
 24 25  1  0  0  0  0
 25 26  2  0  0  0  0
 26 27  1  0  0  0  0
 27 20  2  0  0  0  0
 16 28  1  0  0  0  0
 28 29  1  0  0  0  0
 29 30  1  0  0  0  0
 30 31  2  0  0  0  0
 31 32  1  0  0  0  0
 28 32  2  0  0  0  0
 32 33  1  0  0  0  0
 30 34  1  0  0  0  0
 34 35  1  0  0  0  0
 35 36  1  0  0  0  0
 36 37  1  0  0  0  0
 37 38  1  0  0  0  0
 38 39  1  0  0  0  0
 39 34  1  0  0  0  0
 12 40  1  0  0  0  0
 11 41  1  0  0  0  0
  4 42  1  0  0  0  0
  4 43  1  0  0  0  0
  6 44  1  0  0  0  0
  7 45  1  0  0  0  0
  9 46  1  0  0  0  0
 10 47  1  0  0  0  0
 11 48  1  0  0  0  0
 18 49  1  0  0  0  0
 18 50  1  0  0  0  0
 23 51  1  0  0  0  0
 24 52  1  0  0  0  0
 25 53  1  0  0  0  0
 26 54  1  0  0  0  0
 27 55  1  0  0  0  0
 33 56  1  0  0  0  0
 33 57  1  0  0  0  0
 33 58  1  0  0  0  0
 35 59  1  0  0  0  0
 35 60  1  0  0  0  0
 36 61  1  0  0  0  0
 36 62  1  0  0  0  0
 38 63  1  0  0  0  0
 38 64  1  0  0  0  0
 39 65  1  0  0  0  0
 39 66  1  0  0  0  0
 40 67  1  0  0  0  0
 40 68  1  0  0  0  0
 40 69  1  0  0  0  0
 41 70  1  0  0  0  0
 41 71  1  0  0  0  0
 41 72  1  0  0  0  0
M  END
>  <result-rank>
7

>  <similarity>
0.891

>  <query-name>


>  <query-smiles>
S(=O)(=O)(NC(=O)C)c1ccc(cc1)C=2N3N=CC=C(N4CCOCC4)C3=NC2/C=C/c5nc6c(cc5)cccc6

>  <source>
REALspace_2019-12

>  <similarity-descriptor>
0.941;1.000;0.729;0.916;0.893;0.999;1.000;0.588;0.0;0.0;0.729;0.729;0.214

>  <similarity-descriptor-smiles>
c1ccc(cc1)CN;N1CCOCC1;C=1NC=NN1;C1=CN=CS1;CC1=COcc1;c1ccccc1;S(=O)=O;N;;;C=1NC=NN1;C=1NC=NN1;C.C.C

>  <reaction-name>
m_273170

>  <reagent1-name>
10758172

>  <reagent1-smiles>
[R2*]=C([R1*])N([R3*])CC=1c2c(OC1)cccc2

>  <reagent2-name>
10760336

>  <reagent2-smiles>
[R1*]N(C(c1ccc(S(=O)(=O)N)cc1)C)C

>  <reagent3-name>
10766636

>  <reagent3-smiles>
[R2*]=NN=C([R3*])C=1SC(=NC1C)N2CCOCC2

$$$$
s_2____821402____8992042____5126092
          04022017313D 1   1.00000     0.00000     0
            
 69 74  0  0  0  0            999 V2000
    7.7291   -0.1642    1.6606 S   0  0  0  0  0  0  0  0  0  0  0  0
    7.4377   -0.3353    3.3300 C   0  0  0  0  0  0  0  0  0  0  0  0
    8.1875   -0.9149    4.1795 N   0  0  0  0  0  0  0  0  0  0  0  0
    9.1490   -1.8372    3.7501 C   0  0  0  0  0  0  0  0  0  0  0  0
   10.4451   -1.4013    3.4949 C   0  0  0  0  0  0  0  0  0  0  0  0
   11.4004   -2.3186    3.0684 C   0  0  0  0  0  0  0  0  0  0  0  0
   11.0529   -3.6558    2.9025 C   0  0  0  0  0  0  0  0  0  0  0  0
    9.7544   -4.0831    3.1602 C   0  0  0  0  0  0  0  0  0  0  0  0
    8.7932   -3.1719    3.5865 C   0  0  0  0  0  0  0  0  0  0  0  0
   12.0031   -4.5785    2.4775 C   0  0  0  0  0  0  0  0  0  0  0  0
   13.2994   -4.1443    2.2219 C   0  0  0  0  0  0  0  0  0  0  0  0
   13.6497   -2.8083    2.3872 C   0  0  0  0  0  0  0  0  0  0  0  0
   12.6978   -1.8880    2.8123 C   0  0  0  0  0  0  0  0  0  0  0  0
    6.2458    0.2737    3.5698 N   0  0  0  0  0  0  0  0  0  0  0  0
    5.6599    0.8215    2.4637 C   0  0  0  0  0  0  0  0  0  0  0  0
    4.3934    1.5238    2.4792 C   0  0  0  0  0  0  0  0  0  0  0  0
    4.3898    2.9144    2.4850 C   0  0  0  0  0  0  0  0  0  0  0  0
    3.1783    3.5981    2.5011 C   0  0  0  0  0  0  0  0  0  0  0  0
    1.9856    2.8824    2.5103 C   0  0  0  0  0  0  0  0  0  0  0  0
    0.8052    3.5371    2.5243 O   0  0  0  0  0  0  0  0  0  0  0  0
    0.7807    4.9569    2.5297 C   0  0  0  0  0  0  0  0  0  0  0  0
   -0.6608    5.4387    2.5457 C   0  0  0  0  0  0  0  0  0  0  0  0
   -1.5593    4.6433    2.5517 O   0  0  0  0  0  0  0  0  0  0  0  0
   -0.9343    6.7811    2.5533 N   0  0  0  0  0  0  0  0  0  0  0  0
    1.9898    1.4913    2.5046 C   0  0  0  0  0  0  0  0  0  0  0  0
    3.2009    0.8075    2.4890 C   0  0  0  0  0  0  0  0  0  0  0  0
    6.3094    0.6985    1.2732 C   0  0  0  0  0  0  0  0  0  0  0  0
    5.6795    0.3205    4.9253 C   0  0  0  0  0  0  0  0  0  0  0  0
    6.2621    1.5080    5.6779 C   0  0  0  0  0  0  0  0  0  0  0  0
    5.6922    2.7262    5.6592 N   0  0  0  0  0  0  0  0  0  0  0  0
    6.1993    3.7830    6.3193 C   0  0  0  0  0  0  0  0  0  0  0  0
    5.5954    5.0457    6.2915 N   0  0  0  0  0  0  0  0  0  0  0  0
    6.2108    6.1529    7.0400 C   0  0  0  0  0  0  0  0  0  0  0  0
    5.9860    7.4803    6.3325 C   0  0  0  0  0  0  0  0  0  0  0  0
    4.6355    7.6233    5.9116 O   0  0  0  0  0  0  0  0  0  0  0  0
    4.3090    6.6496    4.9287 C   0  0  0  0  0  0  0  0  0  0  0  0
    4.3740    5.2395    5.4955 C   0  0  0  0  0  0  0  0  0  0  0  0
    7.3658    3.6319    7.0621 C   0  0  0  0  0  0  0  0  0  0  0  0
    7.9817    2.3849    7.1032 C   0  0  0  0  0  0  0  0  0  0  0  0
    7.4302    1.3135    6.4081 C   0  0  0  0  0  0  0  0  0  0  0  0
   10.6876   -0.4388    3.6167 H   0  0  0  0  0  0  0  0  0  0  0  0
    9.5117   -5.0455    3.0389 H   0  0  0  0  0  0  0  0  0  0  0  0
    7.8580   -3.4729    3.7731 H   0  0  0  0  0  0  0  0  0  0  0  0
   11.7575   -5.5404    2.3574 H   0  0  0  0  0  0  0  0  0  0  0  0
   13.9885   -4.8010    1.9154 H   0  0  0  0  0  0  0  0  0  0  0  0
   14.5857   -2.5098    2.2005 H   0  0  0  0  0  0  0  0  0  0  0  0
   12.9437   -0.9262    2.9326 H   0  0  0  0  0  0  0  0  0  0  0  0
    5.2527    3.4198    2.4778 H   0  0  0  0  0  0  0  0  0  0  0  0
    3.1650    4.5980    2.5060 H   0  0  0  0  0  0  0  0  0  0  0  0
    1.2382    5.3012    1.7099 H   0  0  0  0  0  0  0  0  0  0  0  0
    1.2543    5.2953    3.3428 H   0  0  0  0  0  0  0  0  0  0  0  0
   -0.1856    7.4440    2.5482 H   0  0  0  0  0  0  0  0  0  0  0  0
   -1.8827    7.0981    2.5638 H   0  0  0  0  0  0  0  0  0  0  0  0
    1.1270    0.9859    2.5117 H   0  0  0  0  0  0  0  0  0  0  0  0
    3.2144   -0.1924    2.4849 H   0  0  0  0  0  0  0  0  0  0  0  0
    6.0205    1.0362    0.3775 H   0  0  0  0  0  0  0  0  0  0  0  0
    5.9050   -0.5246    5.4101 H   0  0  0  0  0  0  0  0  0  0  0  0
    4.6858    0.4170    4.8683 H   0  0  0  0  0  0  0  0  0  0  0  0
    7.1938    5.9872    7.1198 H   0  0  0  0  0  0  0  0  0  0  0  0
    5.8049    6.1960    7.9529 H   0  0  0  0  0  0  0  0  0  0  0  0
    6.2116    8.2255    6.9601 H   0  0  0  0  0  0  0  0  0  0  0  0
    6.5829    7.5270    5.5315 H   0  0  0  0  0  0  0  0  0  0  0  0
    4.9560    6.7246    4.1699 H   0  0  0  0  0  0  0  0  0  0  0  0
    3.3824    6.8230    4.5950 H   0  0  0  0  0  0  0  0  0  0  0  0
    3.5762    5.0845    6.0782 H   0  0  0  0  0  0  0  0  0  0  0  0
    4.3682    4.5834    4.7409 H   0  0  0  0  0  0  0  0  0  0  0  0
    7.7555    4.4074    7.5588 H   0  0  0  0  0  0  0  0  0  0  0  0
    8.8208    2.2588    7.6324 H   0  0  0  0  0  0  0  0  0  0  0  0
    7.8680    0.4147    6.4330 H   0  0  0  0  0  0  0  0  0  0  0  0
  1  2  1  0  0  0  0
  2  3  2  0  0  0  0
  3  4  1  0  0  0  0
  4  5  1  0  0  0  0
  5  6  2  0  0  0  0
  6  7  1  0  0  0  0
  7  8  2  0  0  0  0
  8  9  1  0  0  0  0
  9  4  2  0  0  0  0
  7 10  1  0  0  0  0
 10 11  2  0  0  0  0
 11 12  1  0  0  0  0
 12 13  2  0  0  0  0
 13  6  1  0  0  0  0
  2 14  1  0  0  0  0
 14 15  1  0  0  0  0
 15 16  1  0  0  0  0
 16 17  1  0  0  0  0
 17 18  2  0  0  0  0
 18 19  1  0  0  0  0
 19 20  1  0  0  0  0
 20 21  1  0  0  0  0
 21 22  1  0  0  0  0
 22 23  2  0  0  0  0
 22 24  1  0  0  0  0
 19 25  2  0  0  0  0
 25 26  1  0  0  0  0
 26 16  2  0  0  0  0
 15 27  2  0  0  0  0
 27  1  1  0  0  0  0
 14 28  1  0  0  0  0
 28 29  1  0  0  0  0
 29 30  1  0  0  0  0
 30 31  2  0  0  0  0
 31 32  1  0  0  0  0
 32 33  1  0  0  0  0
 33 34  1  0  0  0  0
 34 35  1  0  0  0  0
 35 36  1  0  0  0  0
 36 37  1  0  0  0  0
 37 32  1  0  0  0  0
 31 38  1  0  0  0  0
 38 39  2  0  0  0  0
 39 40  1  0  0  0  0
 40 29  2  0  0  0  0
  5 41  1  0  0  0  0
  8 42  1  0  0  0  0
  9 43  1  0  0  0  0
 10 44  1  0  0  0  0
 11 45  1  0  0  0  0
 12 46  1  0  0  0  0
 13 47  1  0  0  0  0
 17 48  1  0  0  0  0
 18 49  1  0  0  0  0
 21 50  1  0  0  0  0
 21 51  1  0  0  0  0
 24 52  1  0  0  0  0
 24 53  1  0  0  0  0
 25 54  1  0  0  0  0
 26 55  1  0  0  0  0
 27 56  1  0  0  0  0
 28 57  1  0  0  0  0
 28 58  1  0  0  0  0
 33 59  1  0  0  0  0
 33 60  1  0  0  0  0
 34 61  1  0  0  0  0
 34 62  1  0  0  0  0
 36 63  1  0  0  0  0
 36 64  1  0  0  0  0
 37 65  1  0  0  0  0
 37 66  1  0  0  0  0
 38 67  1  0  0  0  0
 39 68  1  0  0  0  0
 40 69  1  0  0  0  0
M  END
>  <result-rank>
8

>  <similarity>
0.890

>  <query-name>


>  <query-smiles>
S(=O)(=O)(NC(=O)C)c1ccc(cc1)C=2N3N=CC=C(N4CCOCC4)C3=NC2/C=C/c5nc6c(cc5)cccc6

>  <source>
REALspace_2019-12

>  <similarity-descriptor>
0.999;1.000;0.779;0.842;0.910;0.999;0.747;0.717;0.0;0.0;0.779;0.779;0.0

>  <similarity-descriptor-smiles>
c1ccccc1;N1CCOCC1;S1C=CNC1;Cc1ccccn1;Nc1ccccc1;c1ccccc1;OCC=O;N;;;S1C=CNC1;S1C=CNC1;

>  <reaction-name>
s_2

>  <reagent1-name>
821402

>  <reagent1-smiles>
[R1*]SC([R3*])=Nc1cc2c(cc1)cccc2

>  <reagent2-name>
8992042

>  <reagent2-smiles>
[R2*]N([R3*])Cc1nc(N2CCOCC2)ccc1

>  <reagent3-name>
5126092

>  <reagent3-smiles>
[R2*]C(c1ccc(OCC(=O)N)cc1)=C[R1*]

$$$$
m_273170____10756154____10764092____10755784
          04022017313D 1   1.00000     0.00000     0
            
 74 78  0  0  0  0            999 V2000
    1.9641    5.9495   -1.2092 S   0  0  0  0  0  0  0  0  0  0  0  0
    1.4070    6.8964   -2.1402 O   0  0  0  0  0  0  0  0  0  0  0  0
    0.9860    5.6367   -0.1997 O   0  0  0  0  0  0  0  0  0  0  0  0
    3.2854    6.5934   -0.5045 N   0  0  0  0  0  0  0  0  0  0  0  0
    4.2838    6.9128   -1.5350 C   0  0  0  0  0  0  0  0  0  0  0  0
    2.9098    7.8213    0.2111 C   0  0  0  0  0  0  0  0  0  0  0  0
    2.4087    4.4959   -2.0564 C   0  0  0  0  0  0  0  0  0  0  0  0
    2.7795    3.3446   -1.3681 C   0  0  0  0  0  0  0  0  0  0  0  0
    3.1307    2.1965   -2.0709 C   0  0  0  0  0  0  0  0  0  0  0  0
    3.1109    2.1994   -3.4619 C   0  0  0  0  0  0  0  0  0  0  0  0
    2.7384    3.3555   -4.1399 C   0  0  0  0  0  0  0  0  0  0  0  0
    2.3856    4.5092   -3.4470 C   0  0  0  0  0  0  0  0  0  0  0  0
    2.8010    3.3415    0.1519 C   0  0  0  0  0  0  0  0  0  0  0  0
    3.2232    2.0176    0.6335 N   0  0  0  0  0  0  0  0  0  0  0  0
    2.4017    1.0000    1.0000 C   0  0  0  0  0  0  0  0  0  0  0  0
    3.1912    0.0177    1.3579 N   0  0  0  0  0  0  0  0  0  0  0  0
    4.4560    0.3552    1.2392 N   0  0  0  0  0  0  0  0  0  0  0  0
    4.5040    1.5898    0.7919 C   0  0  0  0  0  0  0  0  0  0  0  0
    5.7075    2.3525    0.5187 C   0  0  0  0  0  0  0  0  0  0  0  0
    6.1195    2.6099   -0.7343 N   0  0  0  0  0  0  0  0  0  0  0  0
    7.2326    3.3154   -0.9992 C   0  0  0  0  0  0  0  0  0  0  0  0
    8.0079    3.8099    0.0454 C   0  0  0  0  0  0  0  0  0  0  0  0
    7.6058    3.5582    1.3528 C   0  0  0  0  0  0  0  0  0  0  0  0
    6.4489    2.8253    1.5960 C   0  0  0  0  0  0  0  0  0  0  0  0
    9.1657    4.5459   -0.1835 C   0  0  0  0  0  0  0  0  0  0  0  0
    9.5606    4.7943   -1.4941 C   0  0  0  0  0  0  0  0  0  0  0  0
    8.8005    4.3087   -2.5531 C   0  0  0  0  0  0  0  0  0  0  0  0
    7.6455    3.5753   -2.3016 C   0  0  0  0  0  0  0  0  0  0  0  0
    1.0000    1.0000    1.0000 N   0  0  0  0  0  0  0  0  0  0  0  0
    0.2650   -0.2731    1.0004 C   0  0  0  0  0  0  0  0  0  0  0  0
    0.2274   -0.8333   -0.4021 C   0  0  0  0  0  0  0  0  0  0  0  0
    1.1819   -1.6750   -0.9042 N   0  0  0  0  0  0  0  0  0  0  0  0
    0.9991   -2.0569   -2.1418 C   0  0  0  0  0  0  0  0  0  0  0  0
   -0.4494   -1.3278   -2.6625 S   0  0  0  0  0  0  0  0  0  0  0  0
   -0.8052   -0.4959   -1.2171 C   0  0  0  0  0  0  0  0  0  0  0  0
    1.8513   -2.9682   -3.0109 C   0  0  3  0  0  0  0  0  0  0  0  0
    2.0879   -2.3424   -4.2633 O   0  0  0  0  0  0  0  0  0  0  0  0
    2.8837   -3.1935   -5.0749 C   0  0  0  0  0  0  0  0  0  0  0  0
    3.1370   -2.5236   -6.4156 C   0  0  0  0  0  0  0  0  0  0  0  0
    3.1781   -3.2334   -2.3183 C   0  0  0  0  0  0  0  0  0  0  0  0
    0.2650    2.2731    0.9996 C   0  0  0  0  0  0  0  0  0  0  0  0
    5.0944    7.3078   -1.1027 H   0  0  0  0  0  0  0  0  0  0  0  0
    4.5393    6.0775   -2.0219 H   0  0  0  0  0  0  0  0  0  0  0  0
    3.8970    7.5704   -2.1816 H   0  0  0  0  0  0  0  0  0  0  0  0
    3.7204    8.2164    0.6434 H   0  0  0  0  0  0  0  0  0  0  0  0
    2.5229    8.4789   -0.4354 H   0  0  0  0  0  0  0  0  0  0  0  0
    2.2306    7.6041    0.9121 H   0  0  0  0  0  0  0  0  0  0  0  0
    3.3972    1.3693   -1.5762 H   0  0  0  0  0  0  0  0  0  0  0  0
    3.3627    1.3763   -3.9708 H   0  0  0  0  0  0  0  0  0  0  0  0
    2.7240    3.3574   -5.1398 H   0  0  0  0  0  0  0  0  0  0  0  0
    2.1192    5.3363   -3.9418 H   0  0  0  0  0  0  0  0  0  0  0  0
    3.4435    4.0351    0.4776 H   0  0  0  0  0  0  0  0  0  0  0  0
    1.8856    3.5460    0.4986 H   0  0  0  0  0  0  0  0  0  0  0  0
    8.1485    3.9041    2.1182 H   0  0  0  0  0  0  0  0  0  0  0  0
    6.1540    2.6408    2.5336 H   0  0  0  0  0  0  0  0  0  0  0  0
    9.7066    4.8916    0.5832 H   0  0  0  0  0  0  0  0  0  0  0  0
   10.3907    5.3218   -1.6749 H   0  0  0  0  0  0  0  0  0  0  0  0
    9.0843    4.4868   -3.4953 H   0  0  0  0  0  0  0  0  0  0  0  0
    7.1043    3.2299   -3.0683 H   0  0  0  0  0  0  0  0  0  0  0  0
   -0.6689   -0.1186    1.3228 H   0  0  0  0  0  0  0  0  0  0  0  0
    0.7238   -0.9226    1.6067 H   0  0  0  0  0  0  0  0  0  0  0  0
   -1.5854    0.0971   -1.0178 H   0  0  0  0  0  0  0  0  0  0  0  0
    1.3721   -3.8339   -3.1560 H   0  0  0  0  0  0  0  0  0  0  0  0
    2.4045   -4.0592   -5.2201 H   0  0  0  0  0  0  0  0  0  0  0  0
    3.7566   -3.3680   -4.6193 H   0  0  0  0  0  0  0  0  0  0  0  0
    3.6974   -3.1230   -6.9872 H   0  0  0  0  0  0  0  0  0  0  0  0
    2.2641   -2.3491   -6.8713 H   0  0  0  0  0  0  0  0  0  0  0  0
    3.6161   -1.6579   -6.2705 H   0  0  0  0  0  0  0  0  0  0  0  0
    3.0114   -3.6742   -1.4363 H   0  0  0  0  0  0  0  0  0  0  0  0
    3.7385   -3.8328   -2.8898 H   0  0  0  0  0  0  0  0  0  0  0  0
    3.6572   -2.3678   -2.1731 H   0  0  0  0  0  0  0  0  0  0  0  0
   -0.7182    2.0903    0.9996 H   0  0  0  0  0  0  0  0  0  0  0  0
    0.5066    2.7977    1.8159 H   0  0  0  0  0  0  0  0  0  0  0  0
    0.5066    2.7972    0.1829 H   0  0  0  0  0  0  0  0  0  0  0  0
  1  2  2  0  0  0  0
  1  3  2  0  0  0  0
  1  4  1  0  0  0  0
  4  5  1  0  0  0  0
  4  6  1  0  0  0  0
  1  7  1  0  0  0  0
  7  8  1  0  0  0  0
  8  9  2  0  0  0  0
  9 10  1  0  0  0  0
 10 11  2  0  0  0  0
 11 12  1  0  0  0  0
 12  7  2  0  0  0  0
  8 13  1  0  0  0  0
 13 14  1  0  0  0  0
 14 15  1  0  0  0  0
 15 16  2  0  0  0  0
 16 17  1  0  0  0  0
 17 18  2  0  0  0  0
 18 14  1  0  0  0  0
 18 19  1  0  0  0  0
 19 20  1  0  0  0  0
 20 21  2  0  0  0  0
 21 22  1  0  0  0  0
 22 23  2  0  0  0  0
 23 24  1  0  0  0  0
 24 19  2  0  0  0  0
 22 25  1  0  0  0  0
 25 26  2  0  0  0  0
 26 27  1  0  0  0  0
 27 28  2  0  0  0  0
 28 21  1  0  0  0  0
 15 29  1  0  0  0  0
 29 30  1  0  0  0  0
 30 31  1  0  0  0  0
 31 32  1  0  0  0  0
 32 33  2  0  0  0  0
 33 34  1  0  0  0  0
 34 35  1  0  0  0  0
 31 35  2  0  0  0  0
 33 36  1  0  0  0  0
 36 37  1  0  0  0  0
 37 38  1  0  0  0  0
 38 39  1  0  0  0  0
 36 40  1  0  0  0  0
 29 41  1  0  0  0  0
  5 42  1  0  0  0  0
  5 43  1  0  0  0  0
  5 44  1  0  0  0  0
  6 45  1  0  0  0  0
  6 46  1  0  0  0  0
  6 47  1  0  0  0  0
  9 48  1  0  0  0  0
 10 49  1  0  0  0  0
 11 50  1  0  0  0  0
 12 51  1  0  0  0  0
 13 52  1  0  0  0  0
 13 53  1  0  0  0  0
 23 54  1  0  0  0  0
 24 55  1  0  0  0  0
 25 56  1  0  0  0  0
 26 57  1  0  0  0  0
 27 58  1  0  0  0  0
 28 59  1  0  0  0  0
 30 60  1  0  0  0  0
 30 61  1  0  0  0  0
 35 62  1  0  0  0  0
 36 63  1  0  0  0  0
 38 64  1  0  0  0  0
 38 65  1  0  0  0  0
 39 66  1  0  0  0  0
 39 67  1  0  0  0  0
 39 68  1  0  0  0  0
 40 69  1  0  0  0  0
 40 70  1  0  0  0  0
 40 71  1  0  0  0  0
 41 72  1  0  0  0  0
 41 73  1  0  0  0  0
 41 74  1  0  0  0  0
M  END
>  <result-rank>
9

>  <similarity>
0.890

>  <query-name>


>  <query-smiles>
S(=O)(=O)(NC(=O)C)c1ccc(cc1)C=2N3N=CC=C(N4CCOCC4)C3=NC2/C=C/c5nc6c(cc5)cccc6

>  <source>
REALspace_2019-12

>  <similarity-descriptor>
0.936;0.897;0.797;0.878;0.935;1.000;1.000;0.528;0.528;0.995;0.797;0.935;0.056

>  <similarity-descriptor-smiles>
c1ccccc1C;C(OCC)C;N1C=NN=C1;NCC1=CSC=N1;c1ccccn1;c1ccccc1;S(=O)=O;NC;NC;C;N1C=NN=C1;c1ccccn1;C

>  <reaction-name>
m_273170

>  <reagent1-name>
10756154

>  <reagent1-smiles>
[R2*]=C([R1*])N([R3*])Cc1c(S(=O)(=O)N(C)C)cccc1

>  <reagent2-name>
10764092

>  <reagent2-smiles>
[R1*]N(CC=1N=C(SC1)C(OCC)C)C

>  <reagent3-name>
10755784

>  <reagent3-smiles>
[R2*]=NN=C([R3*])c1nc2c(cc1)cccc2

$$$$
m_273170____10756154____10760760____10766638
          04022017313D 1   1.00000     0.00000     0
            
 75 80  0  0  0  0            999 V2000
    3.9585    0.2458    1.1826 S   0  0  0  0  0  0  0  0  0  0  0  0
    5.2980    0.0463    1.6720 O   0  0  0  0  0  0  0  0  0  0  0  0
    3.1778   -0.9400    1.4236 O   0  0  0  0  0  0  0  0  0  0  0  0
    4.0045    0.5500   -0.4181 N   0  0  0  0  0  0  0  0  0  0  0  0
    4.8015    1.7604   -0.6641 C   0  0  0  0  0  0  0  0  0  0  0  0
    4.6165   -0.5899   -1.1161 C   0  0  0  0  0  0  0  0  0  0  0  0
    3.2341    1.5952    2.0089 C   0  0  0  0  0  0  0  0  0  0  0  0
    1.8777    1.8777    1.8777 C   0  0  0  0  0  0  0  0  0  0  0  0
    1.3249    2.9632    2.5494 C   0  0  0  0  0  0  0  0  0  0  0  0
    2.1281    3.7663    3.3526 C   0  0  0  0  0  0  0  0  0  0  0  0
    3.4825    3.4748    3.4770 C   0  0  0  0  0  0  0  0  0  0  0  0
    4.0457    2.3919    2.8095 C   0  0  0  0  0  0  0  0  0  0  0  0
    1.0000    1.0000    1.0000 C   0  0  0  0  0  0  0  0  0  0  0  0
   -0.3812    1.5041    1.0281 N   0  0  0  0  0  0  0  0  0  0  0  0
   -1.4425    0.8978    1.6207 C   0  0  0  0  0  0  0  0  0  0  0  0
   -2.4671    1.6852    1.4050 N   0  0  0  0  0  0  0  0  0  0  0  0
   -2.1154    2.7469    0.7144 N   0  0  0  0  0  0  0  0  0  0  0  0
   -0.8277    2.6596    0.4678 C   0  0  0  0  0  0  0  0  0  0  0  0
   -0.0324    3.6239   -0.2687 C   0  0  0  0  0  0  0  0  0  0  0  0
    0.3561    4.8457    0.2128 N   0  0  0  0  0  0  0  0  0  0  0  0
    1.0719    5.5763   -0.6047 C   0  0  0  0  0  0  0  0  0  0  0  0
    1.2410    4.6681   -2.0341 S   0  0  0  0  0  0  0  0  0  0  0  0
    0.3564    3.3028   -1.5300 C   0  0  0  0  0  0  0  0  0  0  0  0
    1.5925    6.8540   -0.3675 N   0  0  0  0  0  0  0  0  0  0  0  0
    2.3691    7.5208   -1.4244 C   0  0  0  0  0  0  0  0  0  0  0  0
    2.1684    9.0278   -1.3797 C   0  0  0  0  0  0  0  0  0  0  0  0
    2.2733    9.5275   -0.0527 O   0  0  0  0  0  0  0  0  0  0  0  0
    1.2261    9.0163    0.7616 C   0  0  0  0  0  0  0  0  0  0  0  0
    1.3299    7.5075    0.9238 C   0  0  0  0  0  0  0  0  0  0  0  0
   -1.4441   -0.3195    2.3155 N   0  0  0  0  0  0  0  0  0  0  0  0
   -1.1977   -0.3390    3.7646 C   0  0  3  0  0  0  0  0  0  0  0  0
   -2.4815   -0.7023    4.4918 C   0  0  0  0  0  0  0  0  0  0  0  0
   -3.6503   -0.1431    4.3015 O   0  0  0  0  0  0  0  0  0  0  0  0
   -4.5581   -0.6809    5.0923 C   0  0  0  0  0  0  0  0  0  0  0  0
   -3.9698   -1.6590    5.8507 C   0  0  0  0  0  0  0  0  0  0  0  0
   -4.7393   -2.3896    6.7557 C   0  0  0  0  0  0  0  0  0  0  0  0
   -6.0996   -2.1389    6.9118 C   0  0  0  0  0  0  0  0  0  0  0  0
   -6.6922   -1.1417    6.1447 C   0  0  0  0  0  0  0  0  0  0  0  0
   -5.9170   -0.4223    5.2417 C   0  0  0  0  0  0  0  0  0  0  0  0
   -2.6135   -1.6642    5.4504 C   0  0  0  0  0  0  0  0  0  0  0  0
   -0.1263   -1.3692    4.0826 C   0  0  0  0  0  0  0  0  0  0  0  0
   -1.6923   -1.5767    1.5952 C   0  0  0  0  0  0  0  0  0  0  0  0
    4.8297    1.9471   -1.6462 H   0  0  0  0  0  0  0  0  0  0  0  0
    4.3852    2.5358   -0.1893 H   0  0  0  0  0  0  0  0  0  0  0  0
    5.7317    1.6219   -0.3243 H   0  0  0  0  0  0  0  0  0  0  0  0
    4.6447   -0.4033   -2.0981 H   0  0  0  0  0  0  0  0  0  0  0  0
    5.5467   -0.7284   -0.7762 H   0  0  0  0  0  0  0  0  0  0  0  0
    4.0744   -1.4133   -0.9487 H   0  0  0  0  0  0  0  0  0  0  0  0
    0.3503    3.1662    2.4549 H   0  0  0  0  0  0  0  0  0  0  0  0
    1.7346    4.5476    3.8371 H   0  0  0  0  0  0  0  0  0  0  0  0
    4.0598    4.0520    4.0546 H   0  0  0  0  0  0  0  0  0  0  0  0
    5.0203    2.1891    2.9040 H   0  0  0  0  0  0  0  0  0  0  0  0
    1.3428    1.0191    0.0608 H   0  0  0  0  0  0  0  0  0  0  0  0
    1.0191    0.0608    1.3428 H   0  0  0  0  0  0  0  0  0  0  0  0
    0.1680    2.4642   -2.0411 H   0  0  0  0  0  0  0  0  0  0  0  0
    2.0712    7.1775   -2.3151 H   0  0  0  0  0  0  0  0  0  0  0  0
    3.3394    7.3162   -1.2958 H   0  0  0  0  0  0  0  0  0  0  0  0
    2.8652    9.4655   -1.9480 H   0  0  0  0  0  0  0  0  0  0  0  0
    1.2607    9.2456   -1.7384 H   0  0  0  0  0  0  0  0  0  0  0  0
    0.3478    9.2377    0.3380 H   0  0  0  0  0  0  0  0  0  0  0  0
    1.2782    9.4442    1.6640 H   0  0  0  0  0  0  0  0  0  0  0  0
    2.0770    7.2972    1.5543 H   0  0  0  0  0  0  0  0  0  0  0  0
    0.4703    7.1591    1.2975 H   0  0  0  0  0  0  0  0  0  0  0  0
   -0.8901    0.5647    4.0626 H   0  0  0  0  0  0  0  0  0  0  0  0
   -4.3061   -3.1063    7.3022 H   0  0  0  0  0  0  0  0  0  0  0  0
   -6.6420   -2.6673    7.5649 H   0  0  0  0  0  0  0  0  0  0  0  0
   -7.6675   -0.9435    6.2417 H   0  0  0  0  0  0  0  0  0  0  0  0
   -6.3440    0.2938    4.6896 H   0  0  0  0  0  0  0  0  0  0  0  0
   -1.8903   -2.2585    5.8023 H   0  0  0  0  0  0  0  0  0  0  0  0
    0.0413   -1.3824    5.0683 H   0  0  0  0  0  0  0  0  0  0  0  0
   -0.4339   -2.2729    3.7846 H   0  0  0  0  0  0  0  0  0  0  0  0
    0.7185   -1.1301    3.6040 H   0  0  0  0  0  0  0  0  0  0  0  0
   -1.6579   -2.3417    2.2383 H   0  0  0  0  0  0  0  0  0  0  0  0
   -2.5948   -1.5423    1.1659 H   0  0  0  0  0  0  0  0  0  0  0  0
   -0.9929   -1.7012    0.8914 H   0  0  0  0  0  0  0  0  0  0  0  0
  1  2  2  0  0  0  0
  1  3  2  0  0  0  0
  1  4  1  0  0  0  0
  4  5  1  0  0  0  0
  4  6  1  0  0  0  0
  1  7  1  0  0  0  0
  7  8  1  0  0  0  0
  8  9  2  0  0  0  0
  9 10  1  0  0  0  0
 10 11  2  0  0  0  0
 11 12  1  0  0  0  0
 12  7  2  0  0  0  0
  8 13  1  0  0  0  0
 13 14  1  0  0  0  0
 14 15  1  0  0  0  0
 15 16  2  0  0  0  0
 16 17  1  0  0  0  0
 17 18  2  0  0  0  0
 18 14  1  0  0  0  0
 18 19  1  0  0  0  0
 19 20  1  0  0  0  0
 20 21  2  0  0  0  0
 21 22  1  0  0  0  0
 22 23  1  0  0  0  0
 19 23  2  0  0  0  0
 21 24  1  0  0  0  0
 24 25  1  0  0  0  0
 25 26  1  0  0  0  0
 26 27  1  0  0  0  0
 27 28  1  0  0  0  0
 28 29  1  0  0  0  0
 29 24  1  0  0  0  0
 15 30  1  0  0  0  0
 30 31  1  0  0  0  0
 31 32  1  0  0  0  0
 32 33  1  0  0  0  0
 33 34  1  0  0  0  0
 34 35  1  0  0  0  0
 35 36  2  0  0  0  0
 36 37  1  0  0  0  0
 37 38  2  0  0  0  0
 38 39  1  0  0  0  0
 39 34  2  0  0  0  0
 35 40  1  0  0  0  0
 32 40  2  0  0  0  0
 31 41  1  0  0  0  0
 30 42  1  0  0  0  0
  5 43  1  0  0  0  0
  5 44  1  0  0  0  0
  5 45  1  0  0  0  0
  6 46  1  0  0  0  0
  6 47  1  0  0  0  0
  6 48  1  0  0  0  0
  9 49  1  0  0  0  0
 10 50  1  0  0  0  0
 11 51  1  0  0  0  0
 12 52  1  0  0  0  0
 13 53  1  0  0  0  0
 13 54  1  0  0  0  0
 23 55  1  0  0  0  0
 25 56  1  0  0  0  0
 25 57  1  0  0  0  0
 26 58  1  0  0  0  0
 26 59  1  0  0  0  0
 28 60  1  0  0  0  0
 28 61  1  0  0  0  0
 29 62  1  0  0  0  0
 29 63  1  0  0  0  0
 31 64  1  0  0  0  0
 36 65  1  0  0  0  0
 37 66  1  0  0  0  0
 38 67  1  0  0  0  0
 39 68  1  0  0  0  0
 40 69  1  0  0  0  0
 41 70  1  0  0  0  0
 41 71  1  0  0  0  0
 41 72  1  0  0  0  0
 42 73  1  0  0  0  0
 42 74  1  0  0  0  0
 42 75  1  0  0  0  0
M  END
>  <result-rank>
10

>  <similarity>
0.889

>  <query-name>


>  <query-smiles>
S(=O)(=O)(NC(=O)C)c1ccc(cc1)C=2N3N=CC=C(N4CCOCC4)C3=NC2/C=C/c5nc6c(cc5)cccc6

>  <source>
REALspace_2019-12

>  <similarity-descriptor>
0.936;1.000;0.797;0.961;0.904;0.999;1.000;0.528;0.528;0.995;0.797;0.132;0.133

>  <similarity-descriptor-smiles>
c1ccccc1C;N1CCOCC1;N1C=NN=C1;C1=CSC=N1;CC1=CccO1;c1ccccc1;S(=O)=O;NC;NC;C;N1C=NN=C1;N;C.C

>  <reaction-name>
m_273170

>  <reagent1-name>
10756154

>  <reagent1-smiles>
[R2*]=C([R1*])N([R3*])Cc1c(S(=O)(=O)N(C)C)cccc1

>  <reagent2-name>
10760760

>  <reagent2-smiles>
[R1*]N(C(C=1Oc2c(cccc2)C1)C)C

>  <reagent3-name>
10766638

>  <reagent3-smiles>
[R2*]=NN=C([R3*])C=1N=C(SC1)N2CCOCC2

$$$$
m_273170____10756572____10764022____10766732
          04022017313D 1   1.00000     0.00000     0
            
 70 74  0  0  0  0            999 V2000
    0.4476   -3.8023    5.1611 S   0  0  0  0  0  0  0  0  0  0  0  0
    0.4175   -4.3263    3.8201 O   0  0  0  0  0  0  0  0  0  0  0  0
    1.5625   -4.3706    5.8736 O   0  0  0  0  0  0  0  0  0  0  0  0
   -0.9393   -4.1871    5.9260 N   0  0  0  0  0  0  0  0  0  0  0  0
   -2.0774   -3.6070    5.1986 C   0  0  0  0  0  0  0  0  0  0  0  0
    0.6174   -2.0713    5.1038 C   0  0  0  0  0  0  0  0  0  0  0  0
    0.6996   -1.4266    3.8736 C   0  0  0  0  0  0  0  0  0  0  0  0
    0.8353   -0.0428    3.8429 C   0  0  0  0  0  0  0  0  0  0  0  0
    0.8883    0.6970    5.0195 C   0  0  0  0  0  0  0  0  0  0  0  0
    0.8044    0.0330    6.2389 C   0  0  0  0  0  0  0  0  0  0  0  0
    0.6689   -1.3505    6.2923 C   0  0  0  0  0  0  0  0  0  0  0  0
    0.9245    0.6605    2.4981 C   0  0  0  0  0  0  0  0  0  0  0  0
    2.0806    1.5694    2.4959 N   0  0  0  0  0  0  0  0  0  0  0  0
    2.0315    2.9267    2.5008 C   0  0  0  0  0  0  0  0  0  0  0  0
    3.2789    3.3271    2.4974 N   0  0  0  0  0  0  0  0  0  0  0  0
    4.1071    2.3065    2.4903 N   0  0  0  0  0  0  0  0  0  0  0  0
    3.3905    1.2051    2.4893 C   0  0  0  0  0  0  0  0  0  0  0  0
    3.9082   -0.1501    2.4826 C   0  0  0  0  0  0  0  0  0  0  0  0
    3.9830   -0.9257    1.3256 C   0  0  0  0  0  0  0  0  0  0  0  0
    4.4878   -2.2224    1.3727 C   0  0  0  0  0  0  0  0  0  0  0  0
    4.9185   -2.7380    2.5902 C   0  0  0  0  0  0  0  0  0  0  0  0
    4.8476   -1.9710    3.7478 C   0  0  0  0  0  0  0  0  0  0  0  0
    4.3419   -0.6768    3.6937 C   0  0  0  0  0  0  0  0  0  0  0  0
    4.5668   -3.0066    0.2265 C   0  0  0  0  0  0  0  0  0  0  0  0
    4.1372   -2.4982   -0.9948 C   0  0  0  0  0  0  0  0  0  0  0  0
    3.6290   -1.2057   -1.0701 C   0  0  0  0  0  0  0  0  0  0  0  0
    3.5599   -0.4414    0.0899 C   0  0  0  0  0  0  0  0  0  0  0  0
    0.8853    3.7336    2.5048 N   0  0  0  0  0  0  0  0  0  0  0  0
    0.2805    4.1574    1.2338 C   0  0  0  0  0  0  0  0  0  0  0  0
    1.0603    5.3336    0.6689 C   0  0  0  0  0  0  0  0  0  0  0  0
    2.0861    5.2463   -0.1412 O   0  0  0  0  0  0  0  0  0  0  0  0
    2.5314    6.4436   -0.4431 C   0  0  0  0  0  0  0  0  0  0  0  0
    1.7683    7.3713    0.1971 C   0  0  0  0  0  0  0  0  0  0  0  0
    0.8031    6.6454    0.9275 C   0  0  0  0  0  0  0  0  0  0  0  0
    3.7065    6.7445   -1.3593 C   0  0  0  0  0  0  0  0  0  0  0  0
    0.2881    4.1559    3.7799 C   0  0  0  0  0  0  0  0  0  0  0  0
   -1.1406    3.6441    3.8643 C   0  0  0  0  0  0  0  0  0  0  0  0
   -1.7175    4.0521    5.0961 O   0  0  0  0  0  0  0  0  0  0  0  0
   -3.0522    3.5739    5.1750 C   0  0  0  0  0  0  0  0  0  0  0  0
   -0.9184   -3.8233    6.8572 H   0  0  0  0  0  0  0  0  0  0  0  0
   -2.9283   -3.8431    5.6679 H   0  0  0  0  0  0  0  0  0  0  0  0
   -1.9798   -2.6123    5.1657 H   0  0  0  0  0  0  0  0  0  0  0  0
   -2.0983   -3.9708    4.2674 H   0  0  0  0  0  0  0  0  0  0  0  0
    0.6617   -1.9512    3.0231 H   0  0  0  0  0  0  0  0  0  0  0  0
    0.9854    1.6918    4.9893 H   0  0  0  0  0  0  0  0  0  0  0  0
    0.8419    0.5576    7.0894 H   0  0  0  0  0  0  0  0  0  0  0  0
    0.6094   -1.8204    7.1730 H   0  0  0  0  0  0  0  0  0  0  0  0
    1.0336   -0.0194    1.7729 H   0  0  0  0  0  0  0  0  0  0  0  0
    0.0878    1.1850    2.3401 H   0  0  0  0  0  0  0  0  0  0  0  0
    5.2823   -3.6685    2.6336 H   0  0  0  0  0  0  0  0  0  0  0  0
    5.1603   -2.3499    4.6188 H   0  0  0  0  0  0  0  0  0  0  0  0
    4.2901   -0.1250    4.5261 H   0  0  0  0  0  0  0  0  0  0  0  0
    4.9325   -3.9358    0.2806 H   0  0  0  0  0  0  0  0  0  0  0  0
    4.1937   -3.0620   -1.8188 H   0  0  0  0  0  0  0  0  0  0  0  0
    3.3183   -0.8320   -1.9440 H   0  0  0  0  0  0  0  0  0  0  0  0
    3.1939    0.4876    0.0349 H   0  0  0  0  0  0  0  0  0  0  0  0
   -0.6683    4.4313    1.3911 H   0  0  0  0  0  0  0  0  0  0  0  0
    0.3049    3.3982    0.5834 H   0  0  0  0  0  0  0  0  0  0  0  0
    1.8708    8.3652    0.1578 H   0  0  0  0  0  0  0  0  0  0  0  0
    0.0817    7.0166    1.5122 H   0  0  0  0  0  0  0  0  0  0  0  0
    3.8365    7.7341   -1.4206 H   0  0  0  0  0  0  0  0  0  0  0  0
    4.5340    6.3219   -0.9898 H   0  0  0  0  0  0  0  0  0  0  0  0
    3.5220    6.3755   -2.2702 H   0  0  0  0  0  0  0  0  0  0  0  0
    0.2882    5.1545    3.8334 H   0  0  0  0  0  0  0  0  0  0  0  0
    0.8218    3.7814    4.5381 H   0  0  0  0  0  0  0  0  0  0  0  0
   -1.6742    4.0186    3.1061 H   0  0  0  0  0  0  0  0  0  0  0  0
   -1.1407    2.6455    3.8108 H   0  0  0  0  0  0  0  0  0  0  0  0
   -3.4585    3.8612    6.0424 H   0  0  0  0  0  0  0  0  0  0  0  0
   -3.5859    3.9484    4.4167 H   0  0  0  0  0  0  0  0  0  0  0  0
   -3.0523    2.5753    5.1214 H   0  0  0  0  0  0  0  0  0  0  0  0
  1  2  2  0  0  0  0
  1  3  2  0  0  0  0
  1  4  1  0  0  0  0
  4  5  1  0  0  0  0
  1  6  1  0  0  0  0
  6  7  1  0  0  0  0
  7  8  2  0  0  0  0
  8  9  1  0  0  0  0
  9 10  2  0  0  0  0
 10 11  1  0  0  0  0
 11  6  2  0  0  0  0
  8 12  1  0  0  0  0
 12 13  1  0  0  0  0
 13 14  1  0  0  0  0
 14 15  2  0  0  0  0
 15 16  1  0  0  0  0
 16 17  2  0  0  0  0
 17 13  1  0  0  0  0
 17 18  1  0  0  0  0
 18 19  1  0  0  0  0
 19 20  2  0  0  0  0
 20 21  1  0  0  0  0
 21 22  2  0  0  0  0
 22 23  1  0  0  0  0
 23 18  2  0  0  0  0
 20 24  1  0  0  0  0
 24 25  2  0  0  0  0
 25 26  1  0  0  0  0
 26 27  2  0  0  0  0
 27 19  1  0  0  0  0
 14 28  1  0  0  0  0
 28 29  1  0  0  0  0
 29 30  1  0  0  0  0
 30 31  1  0  0  0  0
 31 32  1  0  0  0  0
 32 33  2  0  0  0  0
 33 34  1  0  0  0  0
 30 34  2  0  0  0  0
 32 35  1  0  0  0  0
 28 36  1  0  0  0  0
 36 37  1  0  0  0  0
 37 38  1  0  0  0  0
 38 39  1  0  0  0  0
  4 40  1  0  0  0  0
  5 41  1  0  0  0  0
  5 42  1  0  0  0  0
  5 43  1  0  0  0  0
  7 44  1  0  0  0  0
  9 45  1  0  0  0  0
 10 46  1  0  0  0  0
 11 47  1  0  0  0  0
 12 48  1  0  0  0  0
 12 49  1  0  0  0  0
 21 50  1  0  0  0  0
 22 51  1  0  0  0  0
 23 52  1  0  0  0  0
 24 53  1  0  0  0  0
 25 54  1  0  0  0  0
 26 55  1  0  0  0  0
 27 56  1  0  0  0  0
 29 57  1  0  0  0  0
 29 58  1  0  0  0  0
 33 59  1  0  0  0  0
 34 60  1  0  0  0  0
 35 61  1  0  0  0  0
 35 62  1  0  0  0  0
 35 63  1  0  0  0  0
 36 64  1  0  0  0  0
 36 65  1  0  0  0  0
 37 66  1  0  0  0  0
 37 67  1  0  0  0  0
 39 68  1  0  0  0  0
 39 69  1  0  0  0  0
 39 70  1  0  0  0  0
M  END
>  <result-rank>
11

>  <similarity>
0.887

>  <query-name>


>  <query-smiles>
S(=O)(=O)(NC(=O)C)c1ccc(cc1)C=2N3N=CC=C(N4CCOCC4)C3=NC2/C=C/c5nc6c(cc5)cccc6

>  <source>
REALspace_2019-12

>  <similarity-descriptor>
0.936;0.843;0.797;0.917;0.863;0.999;1.000;0.733;0.733;0.733;0.797;0.863;0.063

>  <similarity-descriptor-smiles>
c1cccc(c1)C;CCOC;N1C=NN=C1;NCC1=CC=CO1;c1ccccc1;c1ccccc1;S(=O)=O;NC;NC;NC;N1C=NN=C1;c1ccccc1;C

>  <reaction-name>
m_273170

>  <reagent1-name>
10756572

>  <reagent1-smiles>
[R2*]=C([R1*])N([R3*])Cc1cc(S(=O)(=O)NC)ccc1

>  <reagent2-name>
10764022

>  <reagent2-smiles>
[R1*]N(CC=1OC(=CC1)C)CCOC

>  <reagent3-name>
10766732

>  <reagent3-smiles>
[R2*]=NN=C([R3*])c1c2c(ccc1)cccc2

$$$$
s_46____548782____5531510____12122144
          04022017313D 1   1.00000     0.00000     0
            
 58 62  0  0  0  0            999 V2000
    4.4740    4.4816    4.4796 S   0  0  0  0  0  0  0  0  0  0  0  0
    3.9843    4.4463    5.8334 O   0  0  0  0  0  0  0  0  0  0  0  0
    5.8290    3.9954    4.4466 O   0  0  0  0  0  0  0  0  0  0  0  0
    4.4330    6.0144    3.9267 N   0  0  0  0  0  0  0  0  0  0  0  0
    4.9330    6.0503    2.5448 C   0  0  0  0  0  0  0  0  0  0  0  0
    3.4722    3.4754    3.4742 C   0  0  0  0  0  0  0  0  0  0  0  0
    4.0202    2.8440    2.3629 C   0  0  0  0  0  0  0  0  0  0  0  0
    3.2212    2.0390    1.5574 C   0  0  0  0  0  0  0  0  0  0  0  0
    1.8774    1.8774    1.8774 C   0  0  0  0  0  0  0  0  0  0  0  0
    1.3299    2.5098    2.9889 C   0  0  0  0  0  0  0  0  0  0  0  0
    2.1282    3.3140    3.7948 C   0  0  0  0  0  0  0  0  0  0  0  0
    1.0000    1.0000    1.0000 C   0  0  0  0  0  0  0  0  0  0  0  0
    1.0354   -0.3817    1.4981 N   0  0  0  0  0  0  0  0  0  0  0  0
    0.2593   -0.7737    2.5865 C   0  0  0  0  0  0  0  0  0  0  0  0
    0.5675   -2.4553    2.8679 S   0  0  0  0  0  0  0  0  0  0  0  0
    1.7155   -2.6608    1.5830 C   0  0  0  0  0  0  0  0  0  0  0  0
    1.8295   -1.3769    0.9280 C   0  0  0  0  0  0  0  0  0  0  0  0
    2.5563   -1.1869   -0.0342 O   0  0  0  0  0  0  0  0  0  0  0  0
    2.3541   -3.7759    1.2704 C   0  0  0  0  0  0  0  0  0  0  0  0
    3.7241   -3.9742    1.7066 C   0  0  0  0  0  0  0  0  0  0  0  0
    4.2919   -2.9930    2.4239 N   0  0  0  0  0  0  0  0  0  0  0  0
    5.5530   -3.0835    2.8723 C   0  0  0  0  0  0  0  0  0  0  0  0
    6.3215   -4.2119    2.6039 C   0  0  0  0  0  0  0  0  0  0  0  0
    5.7581   -5.2454    1.8619 C   0  0  0  0  0  0  0  0  0  0  0  0
    4.4484   -5.1293    1.4071 C   0  0  0  0  0  0  0  0  0  0  0  0
    3.9173   -6.1835    0.6676 C   0  0  0  0  0  0  0  0  0  0  0  0
    4.6536   -7.3283    0.3812 C   0  0  0  0  0  0  0  0  0  0  0  0
    5.9613   -7.4226    0.8461 C   0  0  0  0  0  0  0  0  0  0  0  0
    6.5131   -6.3815    1.5860 C   0  0  0  0  0  0  0  0  0  0  0  0
   -0.5653   -0.0089    3.2763 C   0  0  0  0  0  0  0  0  0  0  0  0
   -1.3500   -0.5931    4.4395 C   0  0  0  0  0  0  0  0  0  0  0  0
   -2.4980   -0.9092    4.2904 O   0  0  0  0  0  0  0  0  0  0  0  0
   -0.6804   -0.7771    5.7924 C   0  0  0  0  0  0  0  0  0  0  0  0
   -1.3890    0.0118    6.8545 C   0  0  0  0  0  0  0  0  0  0  0  0
   -0.0754    0.4958    6.3107 C   0  0  0  0  0  0  0  0  0  0  0  0
    5.0088    6.5927    4.5047 H   0  0  0  0  0  0  0  0  0  0  0  0
    4.9078    6.9907    2.2056 H   0  0  0  0  0  0  0  0  0  0  0  0
    5.8740    5.7127    2.5219 H   0  0  0  0  0  0  0  0  0  0  0  0
    4.3571    5.4720    1.9669 H   0  0  0  0  0  0  0  0  0  0  0  0
    4.9878    2.9685    2.1431 H   0  0  0  0  0  0  0  0  0  0  0  0
    3.6088    1.5815    0.7570 H   0  0  0  0  0  0  0  0  0  0  0  0
    0.3622    2.3860    3.2083 H   0  0  0  0  0  0  0  0  0  0  0  0
    1.7407    3.7710    4.5955 H   0  0  0  0  0  0  0  0  0  0  0  0
    0.0595    1.3390    1.0241 H   0  0  0  0  0  0  0  0  0  0  0  0
    1.3390    1.0241    0.0595 H   0  0  0  0  0  0  0  0  0  0  0  0
    1.8930   -4.4824    0.7335 H   0  0  0  0  0  0  0  0  0  0  0  0
    5.9445   -2.3329    3.4045 H   0  0  0  0  0  0  0  0  0  0  0  0
    7.2616   -4.2788    2.9382 H   0  0  0  0  0  0  0  0  0  0  0  0
    2.9777   -6.1153    0.3323 H   0  0  0  0  0  0  0  0  0  0  0  0
    4.2491   -8.0721   -0.1509 H   0  0  0  0  0  0  0  0  0  0  0  0
    6.5046   -8.2385    0.6486 H   0  0  0  0  0  0  0  0  0  0  0  0
    7.4532   -6.4497    1.9200 H   0  0  0  0  0  0  0  0  0  0  0  0
   -0.6740    0.9551    3.0337 H   0  0  0  0  0  0  0  0  0  0  0  0
   -0.2616   -1.6553    6.0232 H   0  0  0  0  0  0  0  0  0  0  0  0
   -1.4436   -0.3427    7.7879 H   0  0  0  0  0  0  0  0  0  0  0  0
   -2.2324    0.5019    6.6342 H   0  0  0  0  0  0  0  0  0  0  0  0
   -0.0441    1.3081    5.7282 H   0  0  0  0  0  0  0  0  0  0  0  0
    0.7447    0.4634    6.8819 H   0  0  0  0  0  0  0  0  0  0  0  0
  1  2  2  0  0  0  0
  1  3  2  0  0  0  0
  1  4  1  0  0  0  0
  4  5  1  0  0  0  0
  1  6  1  0  0  0  0
  6  7  1  0  0  0  0
  7  8  2  0  0  0  0
  8  9  1  0  0  0  0
  9 10  2  0  0  0  0
 10 11  1  0  0  0  0
 11  6  2  0  0  0  0
  9 12  1  0  0  0  0
 12 13  1  0  0  0  0
 13 14  1  0  0  0  0
 14 15  1  0  0  0  0
 15 16  1  0  0  0  0
 16 17  1  0  0  0  0
 17 13  1  0  0  0  0
 17 18  2  0  0  0  0
 16 19  2  0  0  0  0
 19 20  1  0  0  0  0
 20 21  1  0  0  0  0
 21 22  2  0  0  0  0
 22 23  1  0  0  0  0
 23 24  2  0  0  0  0
 24 25  1  0  0  0  0
 25 20  2  0  0  0  0
 25 26  1  0  0  0  0
 26 27  2  0  0  0  0
 27 28  1  0  0  0  0
 28 29  2  0  0  0  0
 29 24  1  0  0  0  0
 14 30  2  0  0  0  0
 30 31  1  0  0  0  0
 31 32  2  0  0  0  0
 31 33  1  0  0  0  0
 33 34  1  0  0  0  0
 34 35  1  0  0  0  0
 35 33  1  0  0  0  0
  4 36  1  0  0  0  0
  5 37  1  0  0  0  0
  5 38  1  0  0  0  0
  5 39  1  0  0  0  0
  7 40  1  0  0  0  0
  8 41  1  0  0  0  0
 10 42  1  0  0  0  0
 11 43  1  0  0  0  0
 12 44  1  0  0  0  0
 12 45  1  0  0  0  0
 19 46  1  0  0  0  0
 22 47  1  0  0  0  0
 23 48  1  0  0  0  0
 26 49  1  0  0  0  0
 27 50  1  0  0  0  0
 28 51  1  0  0  0  0
 29 52  1  0  0  0  0
 30 53  1  0  0  0  0
 33 54  1  0  0  0  0
 34 55  1  0  0  0  0
 34 56  1  0  0  0  0
 35 57  1  0  0  0  0
 35 58  1  0  0  0  0
M  END
>  <result-rank>
12

>  <similarity>
0.886

>  <query-name>


>  <query-smiles>
S(=O)(=O)(NC(=O)C)c1ccc(cc1)C=2N3N=CC=C(N4CCOCC4)C3=NC2/C=C/c5nc6c(cc5)cccc6

>  <source>
REALspace_2019-12

>  <similarity-descriptor>
0.936;0.885;0.732;0.732;0.936;0.999;1.000;0.733;0.733;0.733;0.998;0.936;0.0

>  <similarity-descriptor-smiles>
c1ccc(cc1)C;CC(=O)C1CC1;N1C(CSC1)=O;N1C(CSC1)=O;c1ccccn1;c1ccccc1;S(=O)=O;NC;NC;NC;C;c1ccccn1;

>  <reaction-name>
s_46

>  <reagent1-name>
548782

>  <reagent1-smiles>
[R3*]=C1SC(N([R1*])C1=O)=CC(=O)C2CC2

>  <reagent2-name>
5531510

>  <reagent2-smiles>
[R3*]=Cc1nccc2c1cccc2

>  <reagent3-name>
12122144

>  <reagent3-smiles>
[R1*]Cc1ccc(S(=O)(=O)NC)cc1

$$$$
m_273170____10756668____10761108____10766638
          04022017313D 1   1.00000     0.00000     0
            
 67 73  0  0  0  0            999 V2000
   -4.0004    2.6311    0.4362 S   0  0  0  0  0  0  0  0  0  0  0  0
   -4.5337    1.2841   -0.4603 C   0  0  0  0  0  0  0  0  0  0  0  0
   -3.7278    0.2317   -0.0846 C   0  0  0  0  0  0  0  0  0  0  0  0
   -4.0184   -0.9689   -0.7236 C   0  0  0  0  0  0  0  0  0  0  0  0
   -5.0421   -1.0737   -1.6595 C   0  0  0  0  0  0  0  0  0  0  0  0
   -5.8166    0.0342   -1.9897 C   0  0  0  0  0  0  0  0  0  0  0  0
   -5.5684    1.2563   -1.3833 C   0  0  0  0  0  0  0  0  0  0  0  0
   -2.7512    0.5863    0.8891 C   0  0  0  0  0  0  0  0  0  0  0  0
   -2.7439    1.8799    1.3077 C   0  0  0  0  0  0  0  0  0  0  0  0
   -1.7201   -0.3369    1.5092 C   0  0  0  0  0  0  0  0  0  0  0  0
   -0.9010    0.4177    2.4696 N   0  0  0  0  0  0  0  0  0  0  0  0
    0.2992    1.0000    2.2139 C   0  0  0  0  0  0  0  0  0  0  0  0
    0.6692    1.5596    3.3392 N   0  0  0  0  0  0  0  0  0  0  0  0
   -0.2231    1.3648    4.2845 N   0  0  0  0  0  0  0  0  0  0  0  0
   -1.2065    0.6599    3.7721 C   0  0  0  0  0  0  0  0  0  0  0  0
   -2.3989    0.2225    4.4734 C   0  0  0  0  0  0  0  0  0  0  0  0
   -3.2367    1.0462    5.1772 N   0  0  0  0  0  0  0  0  0  0  0  0
   -4.2634    0.4622    5.7426 C   0  0  0  0  0  0  0  0  0  0  0  0
   -4.1403   -1.1925    5.3641 S   0  0  0  0  0  0  0  0  0  0  0  0
   -2.7134   -1.0984    4.4391 C   0  0  0  0  0  0  0  0  0  0  0  0
   -5.2642    1.0642    6.5144 N   0  0  0  0  0  0  0  0  0  0  0  0
   -5.2179    2.5167    6.7443 C   0  0  0  0  0  0  0  0  0  0  0  0
   -6.6200    3.0972    6.8465 C   0  0  0  0  0  0  0  0  0  0  0  0
   -7.4488    2.3097    7.6918 O   0  0  0  0  0  0  0  0  0  0  0  0
   -7.6509    1.0171    7.1357 C   0  0  0  0  0  0  0  0  0  0  0  0
   -6.3499    0.2331    7.0563 C   0  0  0  0  0  0  0  0  0  0  0  0
    1.0000    1.0000    1.0000 N   0  0  0  0  0  0  0  0  0  0  0  0
    0.2658    1.0000   -0.2717 C   0  0  0  0  0  0  0  0  0  0  0  0
    0.5941   -0.2091   -1.0992 C   0  0  0  0  0  0  0  0  0  0  0  0
    1.1857    1.1258   -1.4518 C   0  0  0  0  0  0  0  0  0  0  0  0
    2.4700    1.0000    1.0000 C   0  0  0  0  0  0  0  0  0  0  0  0
    2.9767    2.3843    1.3709 C   0  0  0  0  0  0  0  0  0  0  0  0
    4.2757    2.5466    1.8409 C   0  0  0  0  0  0  0  0  0  0  0  0
    5.1335    1.4487    1.9812 N   0  3  0  0  0  0  0  0  0  0  0  0
    5.7355    1.2748    3.0280 O   0  5  0  0  0  0  0  0  0  0  0  0
    5.2777    0.6725    1.0642 O   0  0  0  0  0  0  0  0  0  0  0  0
    4.7391    3.8130    2.1802 C   0  0  0  0  0  0  0  0  0  0  0  0
    3.9038    4.9174    2.0494 C   0  0  0  0  0  0  0  0  0  0  0  0
    2.6051    4.7550    1.5796 C   0  0  0  0  0  0  0  0  0  0  0  0
    2.1413    3.4884    1.2410 C   0  0  0  0  0  0  0  0  0  0  0  0
   -3.4760   -1.7798   -0.5040 H   0  0  0  0  0  0  0  0  0  0  0  0
   -5.2232   -1.9534   -2.0991 H   0  0  0  0  0  0  0  0  0  0  0  0
   -6.5509   -0.0508   -2.6631 H   0  0  0  0  0  0  0  0  0  0  0  0
   -6.1053    2.0718   -1.5994 H   0  0  0  0  0  0  0  0  0  0  0  0
   -2.1340    2.2990    1.9803 H   0  0  0  0  0  0  0  0  0  0  0  0
   -2.1846   -1.0851    1.9829 H   0  0  0  0  0  0  0  0  0  0  0  0
   -1.1327   -0.7106    0.7913 H   0  0  0  0  0  0  0  0  0  0  0  0
   -2.2236   -1.8395    3.9799 H   0  0  0  0  0  0  0  0  0  0  0  0
   -4.7379    2.9532    5.9834 H   0  0  0  0  0  0  0  0  0  0  0  0
   -4.7263    2.6975    7.5962 H   0  0  0  0  0  0  0  0  0  0  0  0
   -6.5620    4.0233    7.2193 H   0  0  0  0  0  0  0  0  0  0  0  0
   -7.0254    3.1304    5.9330 H   0  0  0  0  0  0  0  0  0  0  0  0
   -8.0276    1.1152    6.2145 H   0  0  0  0  0  0  0  0  0  0  0  0
   -8.2983    0.5147    7.7088 H   0  0  0  0  0  0  0  0  0  0  0  0
   -6.0982   -0.0761    7.9734 H   0  0  0  0  0  0  0  0  0  0  0  0
   -6.4821   -0.5601    6.4618 H   0  0  0  0  0  0  0  0  0  0  0  0
   -0.6517    1.3954   -0.3142 H   0  0  0  0  0  0  0  0  0  0  0  0
   -0.1043   -0.6175   -1.6869 H   0  0  0  0  0  0  0  0  0  0  0  0
    1.1758   -0.9300   -0.7223 H   0  0  0  0  0  0  0  0  0  0  0  0
    2.1613    1.2937   -1.3098 H   0  0  0  0  0  0  0  0  0  0  0  0
    0.8811    1.6062   -2.2743 H   0  0  0  0  0  0  0  0  0  0  0  0
    2.8033    0.7560    0.0893 H   0  0  0  0  0  0  0  0  0  0  0  0
    2.8033    0.3333    1.6667 H   0  0  0  0  0  0  0  0  0  0  0  0
    5.6730    3.9298    2.5183 H   0  0  0  0  0  0  0  0  0  0  0  0
    4.2371    5.8281    2.2931 H   0  0  0  0  0  0  0  0  0  0  0  0
    2.0046    5.5491    1.4853 H   0  0  0  0  0  0  0  0  0  0  0  0
    1.2070    3.3715    0.9042 H   0  0  0  0  0  0  0  0  0  0  0  0
  1  2  1  0  0  0  0
  2  3  1  0  0  0  0
  3  4  2  0  0  0  0
  4  5  1  0  0  0  0
  5  6  2  0  0  0  0
  6  7  1  0  0  0  0
  7  2  2  0  0  0  0
  3  8  1  0  0  0  0
  8  9  2  0  0  0  0
  9  1  1  0  0  0  0
  8 10  1  0  0  0  0
 10 11  1  0  0  0  0
 11 12  1  0  0  0  0
 12 13  2  0  0  0  0
 13 14  1  0  0  0  0
 14 15  2  0  0  0  0
 15 11  1  0  0  0  0
 15 16  1  0  0  0  0
 16 17  1  0  0  0  0
 17 18  2  0  0  0  0
 18 19  1  0  0  0  0
 19 20  1  0  0  0  0
 16 20  2  0  0  0  0
 18 21  1  0  0  0  0
 21 22  1  0  0  0  0
 22 23  1  0  0  0  0
 23 24  1  0  0  0  0
 24 25  1  0  0  0  0
 25 26  1  0  0  0  0
 26 21  1  0  0  0  0
 12 27  1  0  0  0  0
 27 28  1  0  0  0  0
 28 29  1  0  0  0  0
 29 30  1  0  0  0  0
 30 28  1  0  0  0  0
 27 31  1  0  0  0  0
 31 32  1  0  0  0  0
 32 33  1  0  0  0  0
 33 34  1  0  0  0  0
 34 35  1  0  0  0  0
 34 36  2  0  0  0  0
 33 37  2  0  0  0  0
 37 38  1  0  0  0  0
 38 39  2  0  0  0  0
 39 40  1  0  0  0  0
 40 32  2  0  0  0  0
  4 41  1  0  0  0  0
  5 42  1  0  0  0  0
  6 43  1  0  0  0  0
  7 44  1  0  0  0  0
  9 45  1  0  0  0  0
 10 46  1  0  0  0  0
 10 47  1  0  0  0  0
 20 48  1  0  0  0  0
 22 49  1  0  0  0  0
 22 50  1  0  0  0  0
 23 51  1  0  0  0  0
 23 52  1  0  0  0  0
 25 53  1  0  0  0  0
 25 54  1  0  0  0  0
 26 55  1  0  0  0  0
 26 56  1  0  0  0  0
 28 57  1  0  0  0  0
 29 58  1  0  0  0  0
 29 59  1  0  0  0  0
 30 60  1  0  0  0  0
 30 61  1  0  0  0  0
 31 62  1  0  0  0  0
 31 63  1  0  0  0  0
 37 64  1  0  0  0  0
 38 65  1  0  0  0  0
 39 66  1  0  0  0  0
 40 67  1  0  0  0  0
M  CHG  2  34   1  35  -1
M  END
>  <result-rank>
13

>  <similarity>
0.886

>  <query-name>


>  <query-smiles>
S(=O)(=O)(NC(=O)C)c1ccc(cc1)C=2N3N=CC=C(N4CCOCC4)C3=NC2/C=C/c5nc6c(cc5)cccc6

>  <source>
REALspace_2019-12

>  <similarity-descriptor>
0.928;1.000;0.797;0.961;0.845;1.000;0.975;0.0;0.0;0.0;0.797;0.253;0.091

>  <similarity-descriptor-smiles>
NCc1ccccc1;N1CCOCC1;N1C=NN=C1;C1=CSC=N1;S1C=Ccc1;c1ccccc1;[N+]([O-])=O;;;;N1C=NN=C1;C;C1CC1

>  <reaction-name>
m_273170

>  <reagent1-name>
10756668

>  <reagent1-smiles>
[R2*]=C([R1*])N([R3*])CC=1c2c(SC1)cccc2

>  <reagent2-name>
10761108

>  <reagent2-smiles>
[R1*]N(C1CC1)Cc2c([N+]([O-])=O)cccc2

>  <reagent3-name>
10766638

>  <reagent3-smiles>
[R2*]=NN=C([R3*])C=1N=C(SC1)N2CCOCC2

$$$$
m_271722____10195638____14652800
          04022017313D 1   1.00000     0.00000     0
            
 45 49  0  0  0  0            999 V2000
    7.0358    4.4472    1.0144 S   0  0  0  0  0  0  0  0  0  0  0  0
    7.8478    2.9514    1.0037 C   0  0  0  0  0  0  0  0  0  0  0  0
    6.9188    2.0286    1.0025 N   0  0  0  0  0  0  0  0  0  0  0  0
    5.6279    2.4860    1.0031 C   0  0  0  0  0  0  0  0  0  0  0  0
    4.4578    1.6439    1.0023 C   0  0  0  0  0  0  0  0  0  0  0  0
    3.2149    2.0656    1.0028 O   0  0  0  0  0  0  0  0  0  0  0  0
    2.4498    1.0000    1.0000 C   0  0  0  0  0  0  0  0  0  0  0  0
    3.2131   -0.0686    0.9990 N   0  0  0  0  0  0  0  0  0  0  0  0
    4.4646    0.3319    0.9996 N   0  0  0  0  0  0  0  0  0  0  0  0
    1.0000    1.0000    1.0000 C   0  0  0  0  0  0  0  0  0  0  0  0
    0.3500   -0.1258    0.9970 C   0  0  0  0  0  0  0  0  0  0  0  0
   -1.1018   -0.1258    0.9970 C   0  0  0  0  0  0  0  0  0  0  0  0
   -1.8546   -1.2990    0.9939 C   0  0  0  0  0  0  0  0  0  0  0  0
   -3.2419   -1.2032    0.9946 C   0  0  0  0  0  0  0  0  0  0  0  0
   -3.8405   -0.0038    0.9980 N   0  0  0  0  0  0  0  0  0  0  0  0
   -3.1324    1.1352    1.0004 C   0  0  0  0  0  0  0  0  0  0  0  0
   -1.7424    1.1081    0.9999 C   0  0  0  0  0  0  0  0  0  0  0  0
   -4.0194   -2.3562    0.9928 C   0  0  0  0  0  0  0  0  0  0  0  0
   -3.4263   -3.6141    0.9893 C   0  0  0  0  0  0  0  0  0  0  0  0
   -2.0408   -3.7293    0.9878 C   0  0  0  0  0  0  0  0  0  0  0  0
   -1.2774   -2.5673    0.9900 C   0  0  0  0  0  0  0  0  0  0  0  0
    5.4476    3.8323    1.0092 C   0  0  0  0  0  0  0  0  0  0  0  0
    9.2346    2.7607    1.0053 N   0  0  0  0  0  0  0  0  0  0  0  0
    9.7713    1.3908    0.9950 C   0  0  0  0  0  0  0  0  0  0  0  0
   11.0838    1.3254    0.2294 C   0  0  0  0  0  0  0  0  0  0  0  0
   11.9559    2.3853    0.6004 O   0  0  0  0  0  0  0  0  0  0  0  0
   11.4046    3.6428    0.2321 C   0  0  0  0  0  0  0  0  0  0  0  0
   10.1204    3.9347    0.9933 C   0  0  0  0  0  0  0  0  0  0  0  0
    0.5000    1.8660    1.0023 H   0  0  0  0  0  0  0  0  0  0  0  0
    0.8500   -0.9919    0.9947 H   0  0  0  0  0  0  0  0  0  0  0  0
   -3.6096    2.0140    1.0027 H   0  0  0  0  0  0  0  0  0  0  0  0
   -1.2148    1.9576    1.0015 H   0  0  0  0  0  0  0  0  0  0  0  0
   -5.0165   -2.2799    0.9940 H   0  0  0  0  0  0  0  0  0  0  0  0
   -3.9964   -4.4357    0.9878 H   0  0  0  0  0  0  0  0  0  0  0  0
   -1.6029   -4.6284    0.9852 H   0  0  0  0  0  0  0  0  0  0  0  0
   -0.2804   -2.6443    0.9888 H   0  0  0  0  0  0  0  0  0  0  0  0
    4.5869    4.3414    1.0103 H   0  0  0  0  0  0  0  0  0  0  0  0
    9.1077    0.7829    0.5589 H   0  0  0  0  0  0  0  0  0  0  0  0
    9.9270    1.0934    1.9370 H   0  0  0  0  0  0  0  0  0  0  0  0
   11.5312    0.4527    0.4251 H   0  0  0  0  0  0  0  0  0  0  0  0
   10.8924    1.3896   -0.7500 H   0  0  0  0  0  0  0  0  0  0  0  0
   11.2065    3.6359   -0.7481 H   0  0  0  0  0  0  0  0  0  0  0  0
   12.0711    4.3608    0.4324 H   0  0  0  0  0  0  0  0  0  0  0  0
   10.3479    4.1821    1.9351 H   0  0  0  0  0  0  0  0  0  0  0  0
    9.6461    4.6975    0.5536 H   0  0  0  0  0  0  0  0  0  0  0  0
  1  2  1  0  0  0  0
  2  3  2  0  0  0  0
  3  4  1  0  0  0  0
  4  5  1  0  0  0  0
  5  6  1  0  0  0  0
  6  7  1  0  0  0  0
  7  8  2  0  0  0  0
  8  9  1  0  0  0  0
  5  9  2  0  0  0  0
  7 10  1  0  0  0  0
 10 11  2  0  0  0  0
 11 12  1  0  0  0  0
 12 13  1  0  0  0  0
 13 14  2  0  0  0  0
 14 15  1  0  0  0  0
 15 16  2  0  0  0  0
 16 17  1  0  0  0  0
 17 12  2  0  0  0  0
 14 18  1  0  0  0  0
 18 19  2  0  0  0  0
 19 20  1  0  0  0  0
 20 21  2  0  0  0  0
 21 13  1  0  0  0  0
  4 22  2  0  0  0  0
 22  1  1  0  0  0  0
  2 23  1  0  0  0  0
 23 24  1  0  0  0  0
 24 25  1  0  0  0  0
 25 26  1  0  0  0  0
 26 27  1  0  0  0  0
 27 28  1  0  0  0  0
 28 23  1  0  0  0  0
 10 29  1  0  0  0  0
 11 30  1  0  0  0  0
 16 31  1  0  0  0  0
 17 32  1  0  0  0  0
 18 33  1  0  0  0  0
 19 34  1  0  0  0  0
 20 35  1  0  0  0  0
 21 36  1  0  0  0  0
 22 37  1  0  0  0  0
 24 38  1  0  0  0  0
 24 39  1  0  0  0  0
 25 40  1  0  0  0  0
 25 41  1  0  0  0  0
 27 42  1  0  0  0  0
 27 43  1  0  0  0  0
 28 44  1  0  0  0  0
 28 45  1  0  0  0  0
M  END
>  <result-rank>
14

>  <similarity>
0.885

>  <query-name>


>  <query-smiles>
S(=O)(=O)(NC(=O)C)c1ccc(cc1)C=2N3N=CC=C(N4CCOCC4)C3=NC2/C=C/c5nc6c(cc5)cccc6

>  <source>
REALspace_2019-12

>  <similarity-descriptor>
0.0;1.000;0.724;0.961;1.000;1.000;0.0;0.0;0.0;0.0;1.000;1.000;0.0

>  <similarity-descriptor-smiles>
;N1CCOCC1;C1=NN=CO1;S1C=CN=C1;c1ccncc1;c1ccccc1;;;;;C;C;

>  <reaction-name>
m_271722

>  <reagent1-name>
10195638

>  <reagent1-smiles>
[R1*]=NN=C(O[R2*])C=1N=C(SC1)N2CCOCC2

>  <reagent2-name>
14652800

>  <reagent2-smiles>
[R1*]C([R2*])C=Cc1c2c(ncc1)cccc2

$$$$
s_270196____10855104____14652798
          04022017313D 1   1.00000     0.00000     0
            
 47 50  0  0  0  0            999 V2000
    0.4036    3.7617    2.5293 S   0  0  0  0  0  0  0  0  0  0  0  0
   -0.5826    2.9678    3.2153 O   0  0  0  0  0  0  0  0  0  0  0  0
    0.5651    5.0202    3.2103 O   0  0  0  0  0  0  0  0  0  0  0  0
   -0.0853    4.0313    0.9979 N   0  0  0  0  0  0  0  0  0  0  0  0
   -1.3682    4.7488    1.0123 C   0  0  0  0  0  0  0  0  0  0  0  0
   -1.8241    5.0003   -0.4157 C   0  0  0  0  0  0  0  0  0  0  0  0
    1.9833    2.8783    2.5116 C   0  0  0  0  0  0  0  0  0  0  0  0
    3.1735    3.5977    2.5023 C   0  0  0  0  0  0  0  0  0  0  0  0
    4.3802    2.9056    2.4882 C   0  0  0  0  0  0  0  0  0  0  0  0
    4.4059    1.5148    2.4827 C   0  0  0  0  0  0  0  0  0  0  0  0
    3.2042    0.8141    2.4925 C   0  0  0  0  0  0  0  0  0  0  0  0
    1.9869    1.4870    2.5070 C   0  0  0  0  0  0  0  0  0  0  0  0
    5.6232    3.6528    2.4786 C   0  0  0  0  0  0  0  0  0  0  0  0
    6.8335    3.1456    2.4651 N   0  0  0  0  0  0  0  0  0  0  0  0
    7.6722    4.0959    2.4574 O   0  0  0  0  0  0  0  0  0  0  0  0
    7.0362    5.2421    2.4670 C   0  0  0  0  0  0  0  0  0  0  0  0
    5.7489    5.0058    2.4790 N   0  0  0  0  0  0  0  0  0  0  0  0
    7.6853    6.6165    2.4633 C   0  0  0  0  0  0  0  0  0  0  0  0
    6.9450    7.6851    2.4738 C   0  0  0  0  0  0  0  0  0  0  0  0
    7.5650    8.9978    2.4703 C   0  0  0  0  0  0  0  0  0  0  0  0
    6.8258   10.1795    2.4811 C   0  0  0  0  0  0  0  0  0  0  0  0
    7.5049   11.3930    2.4771 C   0  0  0  0  0  0  0  0  0  0  0  0
    8.8450   11.4221    2.4630 N   0  0  0  0  0  0  0  0  0  0  0  0
    9.5724   10.2953    2.4518 C   0  0  0  0  0  0  0  0  0  0  0  0
    8.9542    9.0500    2.4550 C   0  0  0  0  0  0  0  0  0  0  0  0
    6.7944   12.5885    2.4889 C   0  0  0  0  0  0  0  0  0  0  0  0
    5.4038   12.5895    2.5037 C   0  0  0  0  0  0  0  0  0  0  0  0
    4.7079   11.3859    2.5072 C   0  0  0  0  0  0  0  0  0  0  0  0
    5.4325   10.1993    2.4957 C   0  0  0  0  0  0  0  0  0  0  0  0
   -0.1974    3.1574    0.5250 H   0  0  0  0  0  0  0  0  0  0  0  0
   -1.2561    5.6228    1.4852 H   0  0  0  0  0  0  0  0  0  0  0  0
   -2.0531    4.1975    1.4887 H   0  0  0  0  0  0  0  0  0  0  0  0
   -2.6969    5.4883   -0.4059 H   0  0  0  0  0  0  0  0  0  0  0  0
   -1.1392    5.5516   -0.8921 H   0  0  0  0  0  0  0  0  0  0  0  0
   -1.9363    4.1263   -0.8886 H   0  0  0  0  0  0  0  0  0  0  0  0
    3.1621    4.5976    2.5056 H   0  0  0  0  0  0  0  0  0  0  0  0
    5.2775    1.0247    2.4718 H   0  0  0  0  0  0  0  0  0  0  0  0
    3.2157   -0.1859    2.4890 H   0  0  0  0  0  0  0  0  0  0  0  0
    1.1263    0.9778    2.5141 H   0  0  0  0  0  0  0  0  0  0  0  0
    8.6819    6.6988    2.4527 H   0  0  0  0  0  0  0  0  0  0  0  0
    5.9484    7.6028    2.4844 H   0  0  0  0  0  0  0  0  0  0  0  0
   10.5707   10.3516    2.4411 H   0  0  0  0  0  0  0  0  0  0  0  0
    9.4970    8.2102    2.4466 H   0  0  0  0  0  0  0  0  0  0  0  0
    7.2893   13.4575    2.4867 H   0  0  0  0  0  0  0  0  0  0  0  0
    4.9045   13.4558    2.5119 H   0  0  0  0  0  0  0  0  0  0  0  0
    3.7080   11.3739    2.5177 H   0  0  0  0  0  0  0  0  0  0  0  0
    4.9371    9.3306    2.4979 H   0  0  0  0  0  0  0  0  0  0  0  0
  1  2  2  0  0  0  0
  1  3  2  0  0  0  0
  1  4  1  0  0  0  0
  4  5  1  0  0  0  0
  5  6  1  0  0  0  0
  1  7  1  0  0  0  0
  7  8  1  0  0  0  0
  8  9  2  0  0  0  0
  9 10  1  0  0  0  0
 10 11  2  0  0  0  0
 11 12  1  0  0  0  0
 12  7  2  0  0  0  0
  9 13  1  0  0  0  0
 13 14  2  0  0  0  0
 14 15  1  0  0  0  0
 15 16  1  0  0  0  0
 16 17  2  0  0  0  0
 17 13  1  0  0  0  0
 16 18  1  0  0  0  0
 18 19  2  0  0  0  0
 19 20  1  0  0  0  0
 20 21  1  0  0  0  0
 21 22  2  0  0  0  0
 22 23  1  0  0  0  0
 23 24  2  0  0  0  0
 24 25  1  0  0  0  0
 25 20  2  0  0  0  0
 22 26  1  0  0  0  0
 26 27  2  0  0  0  0
 27 28  1  0  0  0  0
 28 29  2  0  0  0  0
 29 21  1  0  0  0  0
  4 30  1  0  0  0  0
  5 31  1  0  0  0  0
  5 32  1  0  0  0  0
  6 33  1  0  0  0  0
  6 34  1  0  0  0  0
  6 35  1  0  0  0  0
  8 36  1  0  0  0  0
 10 37  1  0  0  0  0
 11 38  1  0  0  0  0
 12 39  1  0  0  0  0
 18 40  1  0  0  0  0
 19 41  1  0  0  0  0
 24 42  1  0  0  0  0
 25 43  1  0  0  0  0
 26 44  1  0  0  0  0
 27 45  1  0  0  0  0
 28 46  1  0  0  0  0
 29 47  1  0  0  0  0
M  END
>  <result-rank>
15

>  <similarity>
0.884

>  <query-name>


>  <query-smiles>
S(=O)(=O)(NC(=O)C)c1ccc(cc1)C=2N3N=CC=C(N4CCOCC4)C3=NC2/C=C/c5nc6c(cc5)cccc6

>  <source>
REALspace_2019-12

>  <similarity-descriptor>
1.000;0.0;0.728;0.0;1.000;1.000;1.000;0.730;0.730;1.000;1.000;1.000;0.0

>  <similarity-descriptor-smiles>
c1ccccc1;;C=1N=CON1;;c1ccncc1;c1ccccc1;S(=O)=O;NC;NC;C;C;C;

>  <reaction-name>
s_270196

>  <reagent1-name>
10855104

>  <reagent1-smiles>
[R1*]=NC(=NO[R2*])c1cc(S(=O)(=O)NCC)ccc1

>  <reagent2-name>
14652798

>  <reagent2-smiles>
[R1*]C([R2*])C=Cc1c2c(ncc1)cccc2

$$$$
m_273170____10759492____10762538____10766638
          04022017313D 1   1.00000     0.00000     0
            
 71 76  0  0  0  0            999 V2000
    4.6058   -2.3295    1.7131 S   0  0  0  0  0  0  0  0  0  0  0  0
    4.8011   -2.0333    3.3777 C   0  0  0  0  0  0  0  0  0  0  0  0
    4.3737   -0.8133    3.5868 N   0  0  0  0  0  0  0  0  0  0  0  0
    3.9082   -0.1501    2.4826 C   0  0  0  0  0  0  0  0  0  0  0  0
    3.3905    1.2051    2.4893 C   0  0  0  0  0  0  0  0  0  0  0  0
    4.1071    2.3065    2.4903 N   0  0  0  0  0  0  0  0  0  0  0  0
    3.2789    3.3271    2.4974 N   0  0  0  0  0  0  0  0  0  0  0  0
    2.0315    2.9267    2.5008 C   0  0  0  0  0  0  0  0  0  0  0  0
    2.0806    1.5694    2.4959 N   0  0  0  0  0  0  0  0  0  0  0  0
    0.9245    0.6605    2.4981 C   0  0  0  0  0  0  0  0  0  0  0  0
    0.6865    0.1469    3.9085 C   0  0  0  0  0  0  0  0  0  0  0  0
    1.3778    0.4594    4.9762 O   0  0  0  0  0  0  0  0  0  0  0  0
    0.9059   -0.1657    6.0427 C   0  0  0  0  0  0  0  0  0  0  0  0
   -0.1756   -0.9396    5.6872 C   0  0  0  0  0  0  0  0  0  0  0  0
   -0.8522   -1.6975    6.6386 C   0  0  0  0  0  0  0  0  0  0  0  0
   -0.4537   -1.6929    7.9705 C   0  0  0  0  0  0  0  0  0  0  0  0
    0.6367   -0.9149    8.3449 C   0  0  0  0  0  0  0  0  0  0  0  0
    1.3007   -0.1643    7.3786 C   0  0  0  0  0  0  0  0  0  0  0  0
   -0.2916   -0.7120    4.2983 C   0  0  0  0  0  0  0  0  0  0  0  0
   -1.2216   -1.2610    3.4886 O   0  0  0  0  0  0  0  0  0  0  0  0
   -2.4613   -0.6004    3.2809 C   0  0  0  0  0  0  0  0  0  0  0  0
    0.8853    3.7336    2.5048 N   0  0  0  0  0  0  0  0  0  0  0  0
    0.9743    5.1346    2.9407 C   0  0  0  0  0  0  0  0  0  0  0  0
    1.5226    5.9848    1.8058 C   0  0  0  0  0  0  0  0  0  0  0  0
    0.7291    6.2082    0.6859 C   0  0  0  0  0  0  0  0  0  0  0  0
    1.2333    6.9860   -0.3511 C   0  0  0  0  0  0  0  0  0  0  0  0
    0.4508    7.2233   -1.4869 N   0  3  0  0  0  0  0  0  0  0  0  0
   -0.6970    7.6184   -1.3652 O   0  5  0  0  0  0  0  0  0  0  0  0
    0.9127    7.0367   -2.5896 O   0  0  0  0  0  0  0  0  0  0  0  0
    2.5111    7.5285   -0.2631 C   0  0  0  0  0  0  0  0  0  0  0  0
    2.9886    8.2818   -1.2769 O   0  0  0  0  0  0  0  0  0  0  0  0
    4.3882    8.4738   -1.4206 C   0  0  0  0  0  0  0  0  0  0  0  0
    3.3027    7.3041    0.8587 C   0  0  0  0  0  0  0  0  0  0  0  0
    2.8008    6.5263    1.8971 C   0  0  0  0  0  0  0  0  0  0  0  0
   -0.4056    3.1787    2.0729 C   0  0  0  0  0  0  0  0  0  0  0  0
    3.9421   -0.8166    1.2996 C   0  0  0  0  0  0  0  0  0  0  0  0
    5.3251   -2.9234    4.3226 N   0  0  0  0  0  0  0  0  0  0  0  0
    5.4234   -2.5024    5.7289 C   0  0  0  0  0  0  0  0  0  0  0  0
    5.2224   -3.6829    6.6665 C   0  0  0  0  0  0  0  0  0  0  0  0
    5.9779   -4.8130    6.2496 O   0  0  0  0  0  0  0  0  0  0  0  0
    5.5176   -5.2898    4.9919 C   0  0  0  0  0  0  0  0  0  0  0  0
    5.7420   -4.2658    3.8897 C   0  0  0  0  0  0  0  0  0  0  0  0
    1.1060   -0.1112    1.8885 H   0  0  0  0  0  0  0  0  0  0  0  0
    0.1134    1.1521    2.1811 H   0  0  0  0  0  0  0  0  0  0  0  0
   -1.6358   -2.2530    6.3603 H   0  0  0  0  0  0  0  0  0  0  0  0
   -0.9435   -2.2405    8.6489 H   0  0  0  0  0  0  0  0  0  0  0  0
    0.9403   -0.8950    9.2974 H   0  0  0  0  0  0  0  0  0  0  0  0
    2.0849    0.3928    7.6518 H   0  0  0  0  0  0  0  0  0  0  0  0
   -3.0271   -1.1413    2.6586 H   0  0  0  0  0  0  0  0  0  0  0  0
   -2.9341   -0.4961    4.1559 H   0  0  0  0  0  0  0  0  0  0  0  0
   -2.2957    0.3015    2.8820 H   0  0  0  0  0  0  0  0  0  0  0  0
    1.5840    5.1998    3.7307 H   0  0  0  0  0  0  0  0  0  0  0  0
    0.0644    5.4633    3.1939 H   0  0  0  0  0  0  0  0  0  0  0  0
   -0.1890    5.8162    0.6271 H   0  0  0  0  0  0  0  0  0  0  0  0
    4.5653    9.0526   -2.2166 H   0  0  0  0  0  0  0  0  0  0  0  0
    4.7500    8.9159   -0.5999 H   0  0  0  0  0  0  0  0  0  0  0  0
    4.8350    7.5880   -1.5466 H   0  0  0  0  0  0  0  0  0  0  0  0
    4.2205    7.6967    0.9178 H   0  0  0  0  0  0  0  0  0  0  0  0
    3.3589    6.3564    2.7093 H   0  0  0  0  0  0  0  0  0  0  0  0
   -1.1105    3.8851    2.1379 H   0  0  0  0  0  0  0  0  0  0  0  0
   -0.3338    2.8657    1.1259 H   0  0  0  0  0  0  0  0  0  0  0  0
   -0.6507    2.4081    2.6611 H   0  0  0  0  0  0  0  0  0  0  0  0
    3.6473   -0.4952    0.3996 H   0  0  0  0  0  0  0  0  0  0  0  0
    4.7217   -1.8145    5.9142 H   0  0  0  0  0  0  0  0  0  0  0  0
    6.3280   -2.1075    5.8895 H   0  0  0  0  0  0  0  0  0  0  0  0
    5.5118   -3.4200    7.5869 H   0  0  0  0  0  0  0  0  0  0  0  0
    4.2527   -3.9268    6.6790 H   0  0  0  0  0  0  0  0  0  0  0  0
    4.5394   -5.4869    5.0577 H   0  0  0  0  0  0  0  0  0  0  0  0
    6.0118   -6.1281    4.7618 H   0  0  0  0  0  0  0  0  0  0  0  0
    6.7139   -4.2463    3.6548 H   0  0  0  0  0  0  0  0  0  0  0  0
    5.2099   -4.5297    3.0852 H   0  0  0  0  0  0  0  0  0  0  0  0
  1  2  1  0  0  0  0
  2  3  2  0  0  0  0
  3  4  1  0  0  0  0
  4  5  1  0  0  0  0
  5  6  2  0  0  0  0
  6  7  1  0  0  0  0
  7  8  2  0  0  0  0
  8  9  1  0  0  0  0
  9  5  1  0  0  0  0
  9 10  1  0  0  0  0
 10 11  1  0  0  0  0
 11 12  1  0  0  0  0
 12 13  1  0  0  0  0
 13 14  1  0  0  0  0
 14 15  2  0  0  0  0
 15 16  1  0  0  0  0
 16 17  2  0  0  0  0
 17 18  1  0  0  0  0
 18 13  2  0  0  0  0
 14 19  1  0  0  0  0
 11 19  2  0  0  0  0
 19 20  1  0  0  0  0
 20 21  1  0  0  0  0
  8 22  1  0  0  0  0
 22 23  1  0  0  0  0
 23 24  1  0  0  0  0
 24 25  1  0  0  0  0
 25 26  2  0  0  0  0
 26 27  1  0  0  0  0
 27 28  1  0  0  0  0
 27 29  2  0  0  0  0
 26 30  1  0  0  0  0
 30 31  1  0  0  0  0
 31 32  1  0  0  0  0
 30 33  2  0  0  0  0
 33 34  1  0  0  0  0
 34 24  2  0  0  0  0
 22 35  1  0  0  0  0
  4 36  2  0  0  0  0
 36  1  1  0  0  0  0
  2 37  1  0  0  0  0
 37 38  1  0  0  0  0
 38 39  1  0  0  0  0
 39 40  1  0  0  0  0
 40 41  1  0  0  0  0
 41 42  1  0  0  0  0
 42 37  1  0  0  0  0
 10 43  1  0  0  0  0
 10 44  1  0  0  0  0
 15 45  1  0  0  0  0
 16 46  1  0  0  0  0
 17 47  1  0  0  0  0
 18 48  1  0  0  0  0
 21 49  1  0  0  0  0
 21 50  1  0  0  0  0
 21 51  1  0  0  0  0
 23 52  1  0  0  0  0
 23 53  1  0  0  0  0
 25 54  1  0  0  0  0
 32 55  1  0  0  0  0
 32 56  1  0  0  0  0
 32 57  1  0  0  0  0
 33 58  1  0  0  0  0
 34 59  1  0  0  0  0
 35 60  1  0  0  0  0
 35 61  1  0  0  0  0
 35 62  1  0  0  0  0
 36 63  1  0  0  0  0
 38 64  1  0  0  0  0
 38 65  1  0  0  0  0
 39 66  1  0  0  0  0
 39 67  1  0  0  0  0
 41 68  1  0  0  0  0
 41 69  1  0  0  0  0
 42 70  1  0  0  0  0
 42 71  1  0  0  0  0
M  CHG  2  27   1  28  -1
M  END
>  <result-rank>
16

>  <similarity>
0.884

>  <query-name>


>  <query-smiles>
S(=O)(=O)(NC(=O)C)c1ccc(cc1)C=2N3N=CC=C(N4CCOCC4)C3=NC2/C=C/c5nc6c(cc5)cccc6

>  <source>
REALspace_2019-12

>  <similarity-descriptor>
0.908;1.000;0.729;0.961;0.872;0.999;0.975;0.0;0.0;0.0;0.729;0.729;0.333

>  <similarity-descriptor-smiles>
NCc1ccccc1;N1CCOCC1;C=1NC=NN1;S1C=CN=C1;CC1=CccO1;c1ccccc1;[N+]([O-])=O;;;;C=1NC=NN1;C=1NC=NN1;O.C.O.C.C

>  <reaction-name>
m_273170

>  <reagent1-name>
10759492

>  <reagent1-smiles>
[R2*]=C([R1*])N([R3*])CC=1Oc2c(cccc2)C1OC

>  <reagent2-name>
10762538

>  <reagent2-smiles>
[R1*]N(Cc1cc([N+]([O-])=O)c(OC)cc1)C

>  <reagent3-name>
10766638

>  <reagent3-smiles>
[R2*]=NN=C([R3*])C=1N=C(SC1)N2CCOCC2

$$$$
m_273170____17619788____10761004____10766638
          04022017313D 1   1.00000     0.00000     0
            
 70 75  0  0  0  0            999 V2000
    5.3989   -2.0192    2.2162 S   0  0  0  0  0  0  0  0  0  0  0  0
    3.8395   -2.3879    2.7898 C   0  0  0  0  0  0  0  0  0  0  0  0
    3.1971   -1.2494    2.8665 N   0  0  0  0  0  0  0  0  0  0  0  0
    3.9050   -0.1416    2.4827 C   0  0  0  0  0  0  0  0  0  0  0  0
    3.3905    1.2051    2.4893 C   0  0  0  0  0  0  0  0  0  0  0  0
    4.1071    2.3065    2.4903 N   0  0  0  0  0  0  0  0  0  0  0  0
    3.2789    3.3271    2.4974 N   0  0  0  0  0  0  0  0  0  0  0  0
    2.0315    2.9267    2.5008 C   0  0  0  0  0  0  0  0  0  0  0  0
    2.0806    1.5694    2.4959 N   0  0  0  0  0  0  0  0  0  0  0  0
    0.9245    0.6605    2.4981 C   0  0  0  0  0  0  0  0  0  0  0  0
    0.6734    0.1567    1.0862 C   0  0  0  0  0  0  0  0  0  0  0  0
    0.5227   -1.2083    0.8678 C   0  0  0  0  0  0  0  0  0  0  0  0
    0.2933   -1.6573   -0.4281 C   0  0  0  0  0  0  0  0  0  0  0  0
    0.1471   -2.9605   -0.6541 F   0  0  0  0  0  0  0  0  0  0  0  0
    0.2170   -0.7546   -1.4841 C   0  0  0  0  0  0  0  0  0  0  0  0
   -0.0150   -1.2278   -2.7809 N   0  3  0  0  0  0  0  0  0  0  0  0
    0.7027   -0.8676   -3.6992 O   0  5  0  0  0  0  0  0  0  0  0  0
   -0.9276   -1.9942   -2.9910 O   0  0  0  0  0  0  0  0  0  0  0  0
    0.3695    0.6095   -1.2610 C   0  0  0  0  0  0  0  0  0  0  0  0
    0.5992    1.0637    0.0336 C   0  0  0  0  0  0  0  0  0  0  0  0
    0.8853    3.7336    2.5048 N   0  0  0  0  0  0  0  0  0  0  0  0
   -0.4030    3.1782    2.9437 C   0  0  0  0  0  0  0  0  0  0  0  0
   -0.6743    3.6005    4.3787 C   0  0  0  0  0  0  0  0  0  0  0  0
   -1.6853    4.5179    4.6448 C   0  0  0  0  0  0  0  0  0  0  0  0
   -1.9245    4.8959    5.9620 C   0  0  0  0  0  0  0  0  0  0  0  0
   -1.1699    4.3712    7.0061 C   0  0  0  0  0  0  0  0  0  0  0  0
   -0.1635    3.4552    6.7182 C   0  0  0  0  0  0  0  0  0  0  0  0
    0.0918    3.0635    5.4079 C   0  0  0  0  0  0  0  0  0  0  0  0
   -3.0282    5.8989    6.2569 C   0  0  0  0  0  0  0  0  0  0  0  0
    0.9717    5.1351    2.0699 C   0  0  0  0  0  0  0  0  0  0  0  0
    0.7147    5.2184    0.5706 C   0  0  0  0  0  0  0  0  0  0  0  0
   -0.4538    5.3820   -0.0072 O   0  0  0  0  0  0  0  0  0  0  0  0
   -0.3241    5.4098   -1.3159 C   0  0  0  0  0  0  0  0  0  0  0  0
    0.9964    5.2514   -1.6115 C   0  0  0  0  0  0  0  0  0  0  0  0
    1.6822    5.1239   -0.3813 C   0  0  0  0  0  0  0  0  0  0  0  0
    5.1849   -0.3358    2.0717 C   0  0  0  0  0  0  0  0  0  0  0  0
    3.3567   -3.6583    3.1188 N   0  0  0  0  0  0  0  0  0  0  0  0
    1.9086   -3.8545    3.2892 C   0  0  0  0  0  0  0  0  0  0  0  0
    1.4923   -5.2500    2.8504 C   0  0  0  0  0  0  0  0  0  0  0  0
    2.3698   -6.2417    3.3685 O   0  0  0  0  0  0  0  0  0  0  0  0
    3.6769   -6.0872    2.8312 C   0  0  0  0  0  0  0  0  0  0  0  0
    4.3069   -4.7717    3.2630 C   0  0  0  0  0  0  0  0  0  0  0  0
    0.1164    1.1498    2.8260 H   0  0  0  0  0  0  0  0  0  0  0  0
    1.1116   -0.1154    3.1005 H   0  0  0  0  0  0  0  0  0  0  0  0
    0.5783   -1.8550    1.6285 H   0  0  0  0  0  0  0  0  0  0  0  0
    0.3147    1.2560   -2.0219 H   0  0  0  0  0  0  0  0  0  0  0  0
    0.7109    2.0420    0.2078 H   0  0  0  0  0  0  0  0  0  0  0  0
   -0.3713    2.1802    2.8902 H   0  0  0  0  0  0  0  0  0  0  0  0
   -1.1326    3.5207    2.3518 H   0  0  0  0  0  0  0  0  0  0  0  0
   -2.2323    4.9003    3.9001 H   0  0  0  0  0  0  0  0  0  0  0  0
   -1.3483    4.6486    7.9502 H   0  0  0  0  0  0  0  0  0  0  0  0
    0.3837    3.0731    7.4629 H   0  0  0  0  0  0  0  0  0  0  0  0
    0.8169    2.4043    5.2086 H   0  0  0  0  0  0  0  0  0  0  0  0
   -3.0734    6.0648    7.2420 H   0  0  0  0  0  0  0  0  0  0  0  0
   -2.8336    6.7577    5.7829 H   0  0  0  0  0  0  0  0  0  0  0  0
   -3.9036    5.5341    5.9398 H   0  0  0  0  0  0  0  0  0  0  0  0
    1.8840    5.4913    2.2720 H   0  0  0  0  0  0  0  0  0  0  0  0
    0.2868    5.6778    2.5562 H   0  0  0  0  0  0  0  0  0  0  0  0
   -1.0647    5.5268   -1.9776 H   0  0  0  0  0  0  0  0  0  0  0  0
    1.4034    5.2296   -2.5247 H   0  0  0  0  0  0  0  0  0  0  0  0
    2.6637    4.9928   -0.2416 H   0  0  0  0  0  0  0  0  0  0  0  0
    5.8448    0.3473    1.7587 H   0  0  0  0  0  0  0  0  0  0  0  0
    1.4198   -3.1788    2.7373 H   0  0  0  0  0  0  0  0  0  0  0  0
    1.6730   -3.7310    4.2532 H   0  0  0  0  0  0  0  0  0  0  0  0
    0.5658   -5.4316    3.1799 H   0  0  0  0  0  0  0  0  0  0  0  0
    1.5055   -5.2941    1.8514 H   0  0  0  0  0  0  0  0  0  0  0  0
    3.6222   -6.1088    1.8329 H   0  0  0  0  0  0  0  0  0  0  0  0
    4.2502   -6.8419    3.1501 H   0  0  0  0  0  0  0  0  0  0  0  0
    4.5854   -4.8416    4.2208 H   0  0  0  0  0  0  0  0  0  0  0  0
    5.1098   -4.5918    2.6946 H   0  0  0  0  0  0  0  0  0  0  0  0
  1  2  1  0  0  0  0
  2  3  2  0  0  0  0
  3  4  1  0  0  0  0
  4  5  1  0  0  0  0
  5  6  2  0  0  0  0
  6  7  1  0  0  0  0
  7  8  2  0  0  0  0
  8  9  1  0  0  0  0
  9  5  1  0  0  0  0
  9 10  1  0  0  0  0
 10 11  1  0  0  0  0
 11 12  1  0  0  0  0
 12 13  2  0  0  0  0
 13 14  1  0  0  0  0
 13 15  1  0  0  0  0
 15 16  1  0  0  0  0
 16 17  1  0  0  0  0
 16 18  2  0  0  0  0
 15 19  2  0  0  0  0
 19 20  1  0  0  0  0
 20 11  2  0  0  0  0
  8 21  1  0  0  0  0
 21 22  1  0  0  0  0
 22 23  1  0  0  0  0
 23 24  1  0  0  0  0
 24 25  2  0  0  0  0
 25 26  1  0  0  0  0
 26 27  2  0  0  0  0
 27 28  1  0  0  0  0
 28 23  2  0  0  0  0
 25 29  1  0  0  0  0
 21 30  1  0  0  0  0
 30 31  1  0  0  0  0
 31 32  1  0  0  0  0
 32 33  1  0  0  0  0
 33 34  2  0  0  0  0
 34 35  1  0  0  0  0
 31 35  2  0  0  0  0
  4 36  2  0  0  0  0
 36  1  1  0  0  0  0
  2 37  1  0  0  0  0
 37 38  1  0  0  0  0
 38 39  1  0  0  0  0
 39 40  1  0  0  0  0
 40 41  1  0  0  0  0
 41 42  1  0  0  0  0
 42 37  1  0  0  0  0
 10 43  1  0  0  0  0
 10 44  1  0  0  0  0
 12 45  1  0  0  0  0
 19 46  1  0  0  0  0
 20 47  1  0  0  0  0
 22 48  1  0  0  0  0
 22 49  1  0  0  0  0
 24 50  1  0  0  0  0
 26 51  1  0  0  0  0
 27 52  1  0  0  0  0
 28 53  1  0  0  0  0
 29 54  1  0  0  0  0
 29 55  1  0  0  0  0
 29 56  1  0  0  0  0
 30 57  1  0  0  0  0
 30 58  1  0  0  0  0
 33 59  1  0  0  0  0
 34 60  1  0  0  0  0
 35 61  1  0  0  0  0
 36 62  1  0  0  0  0
 38 63  1  0  0  0  0
 38 64  1  0  0  0  0
 39 65  1  0  0  0  0
 39 66  1  0  0  0  0
 41 67  1  0  0  0  0
 41 68  1  0  0  0  0
 42 69  1  0  0  0  0
 42 70  1  0  0  0  0
M  CHG  2  16   1  17  -1
M  END
>  <result-rank>
17

>  <similarity>
0.882

>  <query-name>


>  <query-smiles>
S(=O)(=O)(NC(=O)C)c1ccc(cc1)C=2N3N=CC=C(N4CCOCC4)C3=NC2/C=C/c5nc6c(cc5)cccc6

>  <source>
REALspace_2019-12

>  <similarity-descriptor>
0.900;1.000;0.729;0.961;0.846;0.920;0.975;0.0;0.0;0.0;0.729;0.729;0.083

>  <similarity-descriptor-smiles>
Cc1cccc(c1)F;N1CCOCC1;C=1NC=NN1;S1C=CN=C1;NCC1=CC=CO1;Cc1ccccc1;[N+]([O-])=O;;;;C=1NC=NN1;C=1NC=NN1;C

>  <reaction-name>
m_273170

>  <reagent1-name>
17619788

>  <reagent1-smiles>
[R2*]=C([R1*])N([R3*])Cc1cc(F)c([N+]([O-])=O)cc1

>  <reagent2-name>
10761004

>  <reagent2-smiles>
[R1*]N(Cc1cc(ccc1)C)CC=2OC=CC2

>  <reagent3-name>
10766638

>  <reagent3-smiles>
[R2*]=NN=C([R3*])C=1N=C(SC1)N2CCOCC2

$$$$
m_273170____10759452____10761862____10766558
          04022017313D 1   1.00000     0.00000     0
            
 79 84  0  0  0  0            999 V2000
    3.3425   10.1629   -3.8608 Cl  0  0  0  0  0  0  0  0  0  0  0  0
    2.0536    9.3853   -2.9111 C   0  0  0  0  0  0  0  0  0  0  0  0
    2.3833    8.6182   -1.7985 C   0  0  0  0  0  0  0  0  0  0  0  0
    1.3619    8.0185   -1.0695 C   0  0  0  0  0  0  0  0  0  0  0  0
    1.6898    7.2455    0.0505 N   0  0  0  0  0  0  0  0  0  0  0  0
    2.9079    7.0278    0.4894 N   0  0  0  0  0  0  0  0  0  0  0  0
    2.8842    6.2676    1.5572 C   0  0  0  0  0  0  0  0  0  0  0  0
    1.5225    5.9845    1.8061 C   0  0  0  0  0  0  0  0  0  0  0  0
    0.7891    6.6071    0.8458 C   0  0  0  0  0  0  0  0  0  0  0  0
    0.9743    5.1346    2.9407 C   0  0  0  0  0  0  0  0  0  0  0  0
    0.8853    3.7336    2.5048 N   0  0  0  0  0  0  0  0  0  0  0  0
    2.0315    2.9267    2.5008 C   0  0  0  0  0  0  0  0  0  0  0  0
    3.2789    3.3271    2.4974 N   0  0  0  0  0  0  0  0  0  0  0  0
    4.1071    2.3065    2.4903 N   0  0  0  0  0  0  0  0  0  0  0  0
    3.3905    1.2051    2.4893 C   0  0  0  0  0  0  0  0  0  0  0  0
    2.0806    1.5694    2.4959 N   0  0  0  0  0  0  0  0  0  0  0  0
    0.9245    0.6605    2.4981 C   0  0  0  0  0  0  0  0  0  0  0  0
    0.4554    0.4405    3.9276 C   0  0  0  0  0  0  0  0  0  0  0  0
   -0.8310    0.7810    4.3328 C   0  0  0  0  0  0  0  0  0  0  0  0
   -1.2307    0.5812    5.5976 N   0  0  0  0  0  0  0  0  0  0  0  0
   -0.4110    0.0482    6.5161 C   0  0  0  0  0  0  0  0  0  0  0  0
   -0.8269   -0.1613    7.8366 N   0  0  0  0  0  0  0  0  0  0  0  0
   -1.4906   -1.3985    8.2745 C   0  0  0  0  0  0  0  0  0  0  0  0
   -1.1951   -1.6369    9.7469 C   0  0  0  0  0  0  0  0  0  0  0  0
   -1.6902   -0.5884   10.5764 O   0  0  0  0  0  0  0  0  0  0  0  0
   -1.7310    0.6825    9.9366 C   0  0  0  0  0  0  0  0  0  0  0  0
   -0.6334    0.8396    8.8951 C   0  0  0  0  0  0  0  0  0  0  0  0
    0.8856   -0.3108    6.1657 C   0  0  0  0  0  0  0  0  0  0  0  0
    1.7188   -0.8408    7.0561 F   0  0  0  0  0  0  0  0  0  0  0  0
    1.3247   -0.1140    4.8610 C   0  0  0  0  0  0  0  0  0  0  0  0
    3.9080   -0.1495    2.4826 C   0  0  0  0  0  0  0  0  0  0  0  0
    5.1351   -0.4092    3.0844 C   0  0  0  0  0  0  0  0  0  0  0  0
    5.6287   -1.7094    3.0761 C   0  0  0  0  0  0  0  0  0  0  0  0
    7.1615   -2.0524    3.8245 S   0  0  0  0  0  0  0  0  0  0  0  0
    7.5449   -0.9459    4.6626 O   0  0  0  0  0  0  0  0  0  0  0  0
    7.0489   -3.2442    4.6249 O   0  0  0  0  0  0  0  0  0  0  0  0
    8.2911   -2.2773    2.6711 N   0  0  0  0  0  0  0  0  0  0  0  0
    8.4061   -1.0606    1.8541 C   0  0  0  0  0  0  0  0  0  0  0  0
    9.5862   -2.5671    3.3034 C   0  0  0  0  0  0  0  0  0  0  0  0
    4.9150   -2.7431    2.4781 C   0  0  0  0  0  0  0  0  0  0  0  0
    3.6897   -2.4624    1.8823 C   0  0  0  0  0  0  0  0  0  0  0  0
    3.1781   -1.1688    1.8799 C   0  0  0  0  0  0  0  0  0  0  0  0
   -0.4056    3.1787    2.0729 C   0  0  0  0  0  0  0  0  0  0  0  0
    0.0310    8.1788   -1.4415 C   0  0  0  0  0  0  0  0  0  0  0  0
   -0.2856    8.9484   -2.5561 C   0  0  0  0  0  0  0  0  0  0  0  0
    0.7267    9.5536   -3.2938 C   0  0  0  0  0  0  0  0  0  0  0  0
    3.3386    8.5000   -1.5274 H   0  0  0  0  0  0  0  0  0  0  0  0
    3.6707    5.9520    2.0882 H   0  0  0  0  0  0  0  0  0  0  0  0
   -0.2057    6.5978    0.7449 H   0  0  0  0  0  0  0  0  0  0  0  0
    1.5840    5.1998    3.7307 H   0  0  0  0  0  0  0  0  0  0  0  0
    0.0644    5.4633    3.1939 H   0  0  0  0  0  0  0  0  0  0  0  0
    1.1886   -0.2159    2.0953 H   0  0  0  0  0  0  0  0  0  0  0  0
    0.1826    1.0635    1.9621 H   0  0  0  0  0  0  0  0  0  0  0  0
   -1.4667    1.1803    3.6721 H   0  0  0  0  0  0  0  0  0  0  0  0
   -1.1485   -2.1689    7.7366 H   0  0  0  0  0  0  0  0  0  0  0  0
   -2.4781   -1.3120    8.1423 H   0  0  0  0  0  0  0  0  0  0  0  0
   -1.6235   -2.4965   10.0256 H   0  0  0  0  0  0  0  0  0  0  0  0
   -0.2048   -1.7030    9.8693 H   0  0  0  0  0  0  0  0  0  0  0  0
   -1.6213    1.3951   10.6295 H   0  0  0  0  0  0  0  0  0  0  0  0
   -2.6182    0.7881    9.4874 H   0  0  0  0  0  0  0  0  0  0  0  0
   -0.6758    1.7572    8.4999 H   0  0  0  0  0  0  0  0  0  0  0  0
    0.2587    0.7030    9.3258 H   0  0  0  0  0  0  0  0  0  0  0  0
    2.2551   -0.3683    4.5968 H   0  0  0  0  0  0  0  0  0  0  0  0
    5.6545    0.3281    3.5164 H   0  0  0  0  0  0  0  0  0  0  0  0
    9.0991   -1.1986    1.1465 H   0  0  0  0  0  0  0  0  0  0  0  0
    7.5252   -0.8635    1.4240 H   0  0  0  0  0  0  0  0  0  0  0  0
    8.6723   -0.2922    2.4361 H   0  0  0  0  0  0  0  0  0  0  0  0
   10.2791   -2.7051    2.5958 H   0  0  0  0  0  0  0  0  0  0  0  0
    9.8523   -1.7987    3.8854 H   0  0  0  0  0  0  0  0  0  0  0  0
    9.5079   -3.3948    3.8592 H   0  0  0  0  0  0  0  0  0  0  0  0
    5.2777   -3.6750    2.4766 H   0  0  0  0  0  0  0  0  0  0  0  0
    3.1703   -3.1997    1.4504 H   0  0  0  0  0  0  0  0  0  0  0  0
    2.2964   -0.9741    1.4501 H   0  0  0  0  0  0  0  0  0  0  0  0
   -1.1105    3.8851    2.1379 H   0  0  0  0  0  0  0  0  0  0  0  0
   -0.3338    2.8657    1.1259 H   0  0  0  0  0  0  0  0  0  0  0  0
   -0.6507    2.4081    2.6611 H   0  0  0  0  0  0  0  0  0  0  0  0
   -0.6950    7.7426   -0.9099 H   0  0  0  0  0  0  0  0  0  0  0  0
   -1.2408    9.0666   -2.8272 H   0  0  0  0  0  0  0  0  0  0  0  0
    0.5017   10.1073   -4.0956 H   0  0  0  0  0  0  0  0  0  0  0  0
  1  2  1  0  0  0  0
  2  3  1  0  0  0  0
  3  4  2  0  0  0  0
  4  5  1  0  0  0  0
  5  6  1  0  0  0  0
  6  7  2  0  0  0  0
  7  8  1  0  0  0  0
  8  9  2  0  0  0  0
  9  5  1  0  0  0  0
  8 10  1  0  0  0  0
 10 11  1  0  0  0  0
 11 12  1  0  0  0  0
 12 13  2  0  0  0  0
 13 14  1  0  0  0  0
 14 15  2  0  0  0  0
 15 16  1  0  0  0  0
 16 12  1  0  0  0  0
 16 17  1  0  0  0  0
 17 18  1  0  0  0  0
 18 19  1  0  0  0  0
 19 20  2  0  0  0  0
 20 21  1  0  0  0  0
 21 22  1  0  0  0  0
 22 23  1  0  0  0  0
 23 24  1  0  0  0  0
 24 25  1  0  0  0  0
 25 26  1  0  0  0  0
 26 27  1  0  0  0  0
 27 22  1  0  0  0  0
 21 28  2  0  0  0  0
 28 29  1  0  0  0  0
 28 30  1  0  0  0  0
 30 18  2  0  0  0  0
 15 31  1  0  0  0  0
 31 32  1  0  0  0  0
 32 33  2  0  0  0  0
 33 34  1  0  0  0  0
 34 35  2  0  0  0  0
 34 36  2  0  0  0  0
 34 37  1  0  0  0  0
 37 38  1  0  0  0  0
 37 39  1  0  0  0  0
 33 40  1  0  0  0  0
 40 41  2  0  0  0  0
 41 42  1  0  0  0  0
 42 31  2  0  0  0  0
 11 43  1  0  0  0  0
  4 44  1  0  0  0  0
 44 45  2  0  0  0  0
 45 46  1  0  0  0  0
 46  2  2  0  0  0  0
  3 47  1  0  0  0  0
  7 48  1  0  0  0  0
  9 49  1  0  0  0  0
 10 50  1  0  0  0  0
 10 51  1  0  0  0  0
 17 52  1  0  0  0  0
 17 53  1  0  0  0  0
 19 54  1  0  0  0  0
 23 55  1  0  0  0  0
 23 56  1  0  0  0  0
 24 57  1  0  0  0  0
 24 58  1  0  0  0  0
 26 59  1  0  0  0  0
 26 60  1  0  0  0  0
 27 61  1  0  0  0  0
 27 62  1  0  0  0  0
 30 63  1  0  0  0  0
 32 64  1  0  0  0  0
 38 65  1  0  0  0  0
 38 66  1  0  0  0  0
 38 67  1  0  0  0  0
 39 68  1  0  0  0  0
 39 69  1  0  0  0  0
 39 70  1  0  0  0  0
 40 71  1  0  0  0  0
 41 72  1  0  0  0  0
 42 73  1  0  0  0  0
 43 74  1  0  0  0  0
 43 75  1  0  0  0  0
 43 76  1  0  0  0  0
 44 77  1  0  0  0  0
 45 78  1  0  0  0  0
 46 79  1  0  0  0  0
M  END
>  <result-rank>
18

>  <similarity>
0.882

>  <query-name>


>  <query-smiles>
S(=O)(=O)(NC(=O)C)c1ccc(cc1)C=2N3N=CC=C(N4CCOCC4)C3=NC2/C=C/c5nc6c(cc5)cccc6

>  <source>
REALspace_2019-12

>  <similarity-descriptor>
1.000;1.000;0.797;0.864;0.935;0.949;1.000;0.528;0.528;0.995;0.797;0.226;0.071

>  <similarity-descriptor-smiles>
c1ccccc1;N1CCOCC1;C=1NC=NN1;Cc1cc(cnc1)F;N1C=CC=N1;Clc1ccccc1;S(=O)=O;NC;NC;C;C=1NC=NN1;CN;C

>  <reaction-name>
m_273170

>  <reagent1-name>
10759452

>  <reagent1-smiles>
[R2*]=C([R1*])N([R3*])Cc1cnc(N2CCOCC2)c(F)c1

>  <reagent2-name>
10761862

>  <reagent2-smiles>
[R1*]N(CC=1C=NN(c2cc(Cl)ccc2)C1)C

>  <reagent3-name>
10766558

>  <reagent3-smiles>
[R2*]=NN=C([R3*])c1cc(S(=O)(=O)N(C)C)ccc1

$$$$
m_273170____10756572____10764846____10766638
          04022017313D 1   1.00000     0.00000     0
            
 77 83  0  0  0  0            999 V2000
    4.4060    4.9375    1.3610 S   0  0  0  0  0  0  0  0  0  0  0  0
    5.7656    4.8288    1.8227 O   0  0  0  0  0  0  0  0  0  0  0  0
    4.3732    4.8000   -0.0720 O   0  0  0  0  0  0  0  0  0  0  0  0
    3.8043    6.3931    1.7810 N   0  0  0  0  0  0  0  0  0  0  0  0
    2.4164    6.5041    1.3097 C   0  0  0  0  0  0  0  0  0  0  0  0
    3.4447    3.6813    2.0865 C   0  0  0  0  0  0  0  0  0  0  0  0
    2.6407    2.8778    1.2843 C   0  0  0  0  0  0  0  0  0  0  0  0
    1.8777    1.8777    1.8777 C   0  0  0  0  0  0  0  0  0  0  0  0
    1.9106    1.6740    3.2531 C   0  0  0  0  0  0  0  0  0  0  0  0
    2.7213    2.4884    4.0371 C   0  0  0  0  0  0  0  0  0  0  0  0
    3.4920    3.4948    3.4641 C   0  0  0  0  0  0  0  0  0  0  0  0
    1.0000    1.0000    1.0000 C   0  0  0  0  0  0  0  0  0  0  0  0
    1.7941    0.4801   -0.1233 N   0  0  0  0  0  0  0  0  0  0  0  0
    1.6656    0.8377   -1.4273 C   0  0  0  0  0  0  0  0  0  0  0  0
    2.5624    0.1380   -2.0773 N   0  0  0  0  0  0  0  0  0  0  0  0
    3.2451   -0.6359   -1.2633 N   0  0  0  0  0  0  0  0  0  0  0  0
    2.7891   -0.4433   -0.0461 C   0  0  0  0  0  0  0  0  0  0  0  0
    3.2646   -1.0993    1.1574 C   0  0  0  0  0  0  0  0  0  0  0  0
    4.4505   -0.8190    1.7825 N   0  0  0  0  0  0  0  0  0  0  0  0
    4.7040   -1.5200    2.8591 C   0  0  0  0  0  0  0  0  0  0  0  0
    3.3833   -2.5734    3.0656 S   0  0  0  0  0  0  0  0  0  0  0  0
    2.4865   -2.0661    1.7095 C   0  0  0  0  0  0  0  0  0  0  0  0
    5.8348   -1.4369    3.6801 N   0  0  0  0  0  0  0  0  0  0  0  0
    5.9410   -2.3248    4.8485 C   0  0  0  0  0  0  0  0  0  0  0  0
    7.3904   -2.6967    5.1205 C   0  0  0  0  0  0  0  0  0  0  0  0
    8.2393   -1.5574    5.0636 O   0  0  0  0  0  0  0  0  0  0  0  0
    8.2639   -1.0134    3.7505 C   0  0  0  0  0  0  0  0  0  0  0  0
    6.8994   -0.4806    3.3404 C   0  0  0  0  0  0  0  0  0  0  0  0
    0.7612    1.7587   -1.9671 N   0  0  0  0  0  0  0  0  0  0  0  0
    1.1826    3.1660   -2.0618 C   0  0  0  0  0  0  0  0  0  0  0  0
    0.4189    3.8019   -3.2112 C   0  0  0  0  0  0  0  0  0  0  0  0
    0.7702    4.7327   -4.1432 N   0  0  0  0  0  0  0  0  0  0  0  0
   -0.2434    4.9659   -4.9435 C   0  0  0  0  0  0  0  0  0  0  0  0
   -1.2683    4.1696   -4.5299 N   0  0  0  0  0  0  0  0  0  0  0  0
   -2.5385    4.1140   -5.1162 C   0  0  0  0  0  0  0  0  0  0  0  0
   -2.8712    3.0503   -5.9484 C   0  0  0  0  0  0  0  0  0  0  0  0
   -4.1324    2.9929   -6.5329 C   0  0  0  0  0  0  0  0  0  0  0  0
   -5.0474    4.0080   -6.2724 C   0  0  0  0  0  0  0  0  0  0  0  0
   -4.7173    5.0728   -5.4407 C   0  0  0  0  0  0  0  0  0  0  0  0
   -3.4554    5.1277   -4.8579 C   0  0  0  0  0  0  0  0  0  0  0  0
   -6.4259    3.9475   -6.9099 C   0  0  0  0  0  0  0  0  0  0  0  0
   -0.8583    3.4363   -3.4579 C   0  0  0  0  0  0  0  0  0  0  0  0
   -1.5646    2.3865   -2.6175 C   0  0  0  0  0  0  0  0  0  0  0  0
   -0.5540    1.2702   -2.4162 C   0  0  0  0  0  0  0  0  0  0  0  0
    4.3567    7.1150    1.3641 H   0  0  0  0  0  0  0  0  0  0  0  0
    2.0473    7.3971    1.5674 H   0  0  0  0  0  0  0  0  0  0  0  0
    2.3936    6.4086    0.3145 H   0  0  0  0  0  0  0  0  0  0  0  0
    1.8640    5.7822    1.7266 H   0  0  0  0  0  0  0  0  0  0  0  0
    2.6118    3.0174    0.2945 H   0  0  0  0  0  0  0  0  0  0  0  0
    1.3596    0.9525    3.6724 H   0  0  0  0  0  0  0  0  0  0  0  0
    2.7504    2.3485    5.0269 H   0  0  0  0  0  0  0  0  0  0  0  0
    4.0720    4.0761    4.0347 H   0  0  0  0  0  0  0  0  0  0  0  0
    0.6465    0.2362    1.5400 H   0  0  0  0  0  0  0  0  0  0  0  0
    0.2362    1.5400    0.6465 H   0  0  0  0  0  0  0  0  0  0  0  0
    1.5982   -2.4005    1.3946 H   0  0  0  0  0  0  0  0  0  0  0  0
    5.4166   -3.1583    4.6746 H   0  0  0  0  0  0  0  0  0  0  0  0
    5.5675   -1.8571    5.6496 H   0  0  0  0  0  0  0  0  0  0  0  0
    7.4558   -3.1056    6.0307 H   0  0  0  0  0  0  0  0  0  0  0  0
    7.6901   -3.3599    4.4348 H   0  0  0  0  0  0  0  0  0  0  0  0
    8.5398   -1.7283    3.1080 H   0  0  0  0  0  0  0  0  0  0  0  0
    8.9267   -0.2652    3.7213 H   0  0  0  0  0  0  0  0  0  0  0  0
    6.7285    0.3816    3.8173 H   0  0  0  0  0  0  0  0  0  0  0  0
    6.8937   -0.3223    2.3531 H   0  0  0  0  0  0  0  0  0  0  0  0
    2.1658    3.2159   -2.2375 H   0  0  0  0  0  0  0  0  0  0  0  0
    0.9720    3.6426   -1.2083 H   0  0  0  0  0  0  0  0  0  0  0  0
   -0.2602    5.6065   -5.7111 H   0  0  0  0  0  0  0  0  0  0  0  0
   -2.2040    2.3271   -6.1265 H   0  0  0  0  0  0  0  0  0  0  0  0
   -4.3782    2.2314   -7.1328 H   0  0  0  0  0  0  0  0  0  0  0  0
   -5.3844    5.7961   -5.2623 H   0  0  0  0  0  0  0  0  0  0  0  0
   -3.2095    5.8893   -4.2584 H   0  0  0  0  0  0  0  0  0  0  0  0
   -6.9598    4.7439   -6.6257 H   0  0  0  0  0  0  0  0  0  0  0  0
   -6.3329    3.9466   -7.9056 H   0  0  0  0  0  0  0  0  0  0  0  0
   -6.8919    3.1123   -6.6179 H   0  0  0  0  0  0  0  0  0  0  0  0
   -2.3726    2.0428   -3.0961 H   0  0  0  0  0  0  0  0  0  0  0  0
   -1.8381    2.7719   -1.7362 H   0  0  0  0  0  0  0  0  0  0  0  0
   -0.9107    0.6375   -1.7289 H   0  0  0  0  0  0  0  0  0  0  0  0
   -0.4354    0.7875   -3.2839 H   0  0  0  0  0  0  0  0  0  0  0  0
  1  2  2  0  0  0  0
  1  3  2  0  0  0  0
  1  4  1  0  0  0  0
  4  5  1  0  0  0  0
  1  6  1  0  0  0  0
  6  7  1  0  0  0  0
  7  8  2  0  0  0  0
  8  9  1  0  0  0  0
  9 10  2  0  0  0  0
 10 11  1  0  0  0  0
 11  6  2  0  0  0  0
  8 12  1  0  0  0  0
 12 13  1  0  0  0  0
 13 14  1  0  0  0  0
 14 15  2  0  0  0  0
 15 16  1  0  0  0  0
 16 17  2  0  0  0  0
 17 13  1  0  0  0  0
 17 18  1  0  0  0  0
 18 19  1  0  0  0  0
 19 20  2  0  0  0  0
 20 21  1  0  0  0  0
 21 22  1  0  0  0  0
 18 22  2  0  0  0  0
 20 23  1  0  0  0  0
 23 24  1  0  0  0  0
 24 25  1  0  0  0  0
 25 26  1  0  0  0  0
 26 27  1  0  0  0  0
 27 28  1  0  0  0  0
 28 23  1  0  0  0  0
 14 29  1  0  0  0  0
 29 30  1  0  0  0  0
 30 31  1  0  0  0  0
 31 32  1  0  0  0  0
 32 33  2  0  0  0  0
 33 34  1  0  0  0  0
 34 35  1  0  0  0  0
 35 36  1  0  0  0  0
 36 37  2  0  0  0  0
 37 38  1  0  0  0  0
 38 39  2  0  0  0  0
 39 40  1  0  0  0  0
 40 35  2  0  0  0  0
 38 41  1  0  0  0  0
 34 42  1  0  0  0  0
 31 42  2  0  0  0  0
 42 43  1  0  0  0  0
 43 44  1  0  0  0  0
 44 29  1  0  0  0  0
  4 45  1  0  0  0  0
  5 46  1  0  0  0  0
  5 47  1  0  0  0  0
  5 48  1  0  0  0  0
  7 49  1  0  0  0  0
  9 50  1  0  0  0  0
 10 51  1  0  0  0  0
 11 52  1  0  0  0  0
 12 53  1  0  0  0  0
 12 54  1  0  0  0  0
 22 55  1  0  0  0  0
 24 56  1  0  0  0  0
 24 57  1  0  0  0  0
 25 58  1  0  0  0  0
 25 59  1  0  0  0  0
 27 60  1  0  0  0  0
 27 61  1  0  0  0  0
 28 62  1  0  0  0  0
 28 63  1  0  0  0  0
 30 64  1  0  0  0  0
 30 65  1  0  0  0  0
 33 66  1  0  0  0  0
 36 67  1  0  0  0  0
 37 68  1  0  0  0  0
 39 69  1  0  0  0  0
 40 70  1  0  0  0  0
 41 71  1  0  0  0  0
 41 72  1  0  0  0  0
 41 73  1  0  0  0  0
 43 74  1  0  0  0  0
 43 75  1  0  0  0  0
 44 76  1  0  0  0  0
 44 77  1  0  0  0  0
M  END
>  <result-rank>
19

>  <similarity>
0.882

>  <query-name>


>  <query-smiles>
S(=O)(=O)(NC(=O)C)c1ccc(cc1)C=2N3N=CC=C(N4CCOCC4)C3=NC2/C=C/c5nc6c(cc5)cccc6

>  <source>
REALspace_2019-12

>  <similarity-descriptor>
0.936;1.000;0.729;0.961;0.748;0.982;1.000;0.733;0.733;0.733;0.729;0.729;0.083

>  <similarity-descriptor-smiles>
c1cccc(c1)C;N1CCOCC1;N1C=NN=C1;C1=CSC=N1;N1CCC=2NC=NC2C1;c1ccccc1;S(=O)=O;NC;NC;NC;N1C=NN=C1;N1C=NN=C1;C

>  <reaction-name>
m_273170

>  <reagent1-name>
10756572

>  <reagent1-smiles>
[R2*]=C([R1*])N([R3*])Cc1cc(S(=O)(=O)NC)ccc1

>  <reagent2-name>
10764846

>  <reagent2-smiles>
[R1*]N1CC=2N=CN(c3ccc(cc3)C)C2CC1

>  <reagent3-name>
10766638

>  <reagent3-smiles>
[R2*]=NN=C([R3*])C=1N=C(SC1)N2CCOCC2

$$$$
s_43____4567528____16895040
          04022017313D 1   1.00000     0.00000     0
            
 39 42  0  0  0  0            999 V2000
    1.0000    1.0000    1.0000 S   0  0  0  0  0  0  0  0  0  0  0  0
   -0.2684    1.6482    0.7889 O   0  0  0  0  0  0  0  0  0  0  0  0
    0.7889   -0.2684    1.6482 O   0  0  0  0  0  0  0  0  0  0  0  0
    1.7337    0.7610   -0.4358 N   0  0  0  0  0  0  0  0  0  0  0  0
    0.8850   -0.0877   -1.2845 C   0  0  0  0  0  0  0  0  0  0  0  0
    2.0045    2.0045    2.0045 C   0  0  0  0  0  0  0  0  0  0  0  0
    1.8584    3.3870    1.9602 C   0  0  0  0  0  0  0  0  0  0  0  0
    2.6665    4.1805    2.7676 C   0  0  0  0  0  0  0  0  0  0  0  0
    3.6073    3.5898    3.6054 C   0  0  0  0  0  0  0  0  0  0  0  0
    3.7498    2.2066    3.6463 C   0  0  0  0  0  0  0  0  0  0  0  0
    2.9434    1.4091    2.8407 C   0  0  0  0  0  0  0  0  0  0  0  0
    4.4406    4.4251    4.4377 C   0  0  0  0  0  0  0  0  0  0  0  0
    5.3962    3.9591    5.2975 N   0  0  0  0  0  0  0  0  0  0  0  0
    6.0390    4.8867    5.9712 C   0  0  0  0  0  0  0  0  0  0  0  0
    5.4042    6.3884    5.4879 S   0  0  0  0  0  0  0  0  0  0  0  0
    4.2664    5.7752    4.3785 C   0  0  0  0  0  0  0  0  0  0  0  0
    7.0967    4.6888    6.9435 C   0  0  0  0  0  0  0  0  0  0  0  0
    7.5839    3.5289    7.3139 O   0  0  0  0  0  0  0  0  0  0  0  0
    8.5356    3.6863    8.2108 C   0  0  0  0  0  0  0  0  0  0  0  0
    8.6889    5.0322    8.4465 C   0  0  0  0  0  0  0  0  0  0  0  0
    9.6396    5.4651    9.3655 C   0  0  0  0  0  0  0  0  0  0  0  0
   10.4389    4.5579   10.0539 C   0  0  0  0  0  0  0  0  0  0  0  0
   10.2835    3.1959    9.8166 C   0  0  0  0  0  0  0  0  0  0  0  0
    9.3305    2.7722    8.8960 C   0  0  0  0  0  0  0  0  0  0  0  0
    7.7474    5.6783    7.6154 C   0  0  0  0  0  0  0  0  0  0  0  0
    2.6145    0.3109   -0.2892 H   0  0  0  0  0  0  0  0  0  0  0  0
    1.3351   -0.2343   -2.1654 H   0  0  0  0  0  0  0  0  0  0  0  0
    0.7384   -0.9685   -0.8344 H   0  0  0  0  0  0  0  0  0  0  0  0
    0.0041    0.3624   -1.4311 H   0  0  0  0  0  0  0  0  0  0  0  0
    1.1807    3.8052    1.3553 H   0  0  0  0  0  0  0  0  0  0  0  0
    2.5713    5.1758    2.7459 H   0  0  0  0  0  0  0  0  0  0  0  0
    4.4274    1.7882    4.2511 H   0  0  0  0  0  0  0  0  0  0  0  0
    3.0382    0.4138    2.8624 H   0  0  0  0  0  0  0  0  0  0  0  0
    3.6196    6.2879    3.8139 H   0  0  0  0  0  0  0  0  0  0  0  0
    9.7502    6.4446    9.5340 H   0  0  0  0  0  0  0  0  0  0  0  0
   11.1181    4.8816   10.7126 H   0  0  0  0  0  0  0  0  0  0  0  0
   10.8498    2.5297   10.3018 H   0  0  0  0  0  0  0  0  0  0  0  0
    9.2147    1.7940    8.7235 H   0  0  0  0  0  0  0  0  0  0  0  0
    7.5904    6.6627    7.5364 H   0  0  0  0  0  0  0  0  0  0  0  0
  1  2  2  0  0  0  0
  1  3  2  0  0  0  0
  1  4  1  0  0  0  0
  4  5  1  0  0  0  0
  1  6  1  0  0  0  0
  6  7  1  0  0  0  0
  7  8  2  0  0  0  0
  8  9  1  0  0  0  0
  9 10  2  0  0  0  0
 10 11  1  0  0  0  0
 11  6  2  0  0  0  0
  9 12  1  0  0  0  0
 12 13  1  0  0  0  0
 13 14  2  0  0  0  0
 14 15  1  0  0  0  0
 15 16  1  0  0  0  0
 12 16  2  0  0  0  0
 14 17  1  0  0  0  0
 17 18  1  0  0  0  0
 18 19  1  0  0  0  0
 19 20  1  0  0  0  0
 20 21  2  0  0  0  0
 21 22  1  0  0  0  0
 22 23  2  0  0  0  0
 23 24  1  0  0  0  0
 24 19  2  0  0  0  0
 20 25  1  0  0  0  0
 17 25  2  0  0  0  0
  4 26  1  0  0  0  0
  5 27  1  0  0  0  0
  5 28  1  0  0  0  0
  5 29  1  0  0  0  0
  7 30  1  0  0  0  0
  8 31  1  0  0  0  0
 10 32  1  0  0  0  0
 11 33  1  0  0  0  0
 16 34  1  0  0  0  0
 21 35  1  0  0  0  0
 22 36  1  0  0  0  0
 23 37  1  0  0  0  0
 24 38  1  0  0  0  0
 25 39  1  0  0  0  0
M  END
>  <result-rank>
20

>  <similarity>
0.881

>  <query-name>


>  <query-smiles>
S(=O)(=O)(NC(=O)C)c1ccc(cc1)C=2N3N=CC=C(N4CCOCC4)C3=NC2/C=C/c5nc6c(cc5)cccc6

>  <source>
REALspace_2019-12

>  <similarity-descriptor>
1.000;0.0;0.918;0.0;0.887;0.999;1.000;0.733;0.733;0.733;0.918;0.918;0.0

>  <similarity-descriptor-smiles>
c1ccccc1;;C1=CSC=N1;;C1=CccO1;c1ccccc1;S(=O)=O;NC;NC;NC;C1=CSC=N1;C1=CSC=N1;

>  <reaction-name>
s_43

>  <reagent1-name>
4567528

>  <reagent1-smiles>
[R1*]SC(=N[R2*])C=1Oc2c(cccc2)C1

>  <reagent2-name>
16895040

>  <reagent2-smiles>
[R2*]C(c1ccc(S(=O)(=O)NC)cc1)=C[R1*]

$$$$
m_273170____10757278____10765544____10755784
          04022017323D 1   1.00000     0.00000     0
            
 66 70  0  0  0  0            999 V2000
   -1.1344   -4.0419    0.5507 S   0  0  0  0  0  0  0  0  0  0  0  0
   -1.1716   -3.6108    1.9242 O   0  0  0  0  0  0  0  0  0  0  0  0
   -2.2135   -3.4241   -0.1756 O   0  0  0  0  0  0  0  0  0  0  0  0
    0.4452   -3.5602   -0.1903 C   0  0  0  0  0  0  0  0  0  0  0  0
    0.5934   -2.0485   -0.1294 C   0  0  0  0  0  0  0  0  0  0  0  0
    0.6867   -1.4171    1.1065 C   0  0  0  0  0  0  0  0  0  0  0  0
    0.8228   -0.0334    1.1492 C   0  0  0  0  0  0  0  0  0  0  0  0
    0.8657    0.7187   -0.0202 C   0  0  0  0  0  0  0  0  0  0  0  0
    0.7707    0.0676   -1.2457 C   0  0  0  0  0  0  0  0  0  0  0  0
    0.6344   -1.3154   -1.3107 C   0  0  0  0  0  0  0  0  0  0  0  0
    0.9245    0.6605    2.4981 C   0  0  0  0  0  0  0  0  0  0  0  0
    2.0806    1.5694    2.4959 N   0  0  0  0  0  0  0  0  0  0  0  0
    2.0315    2.9267    2.5008 C   0  0  0  0  0  0  0  0  0  0  0  0
    3.2789    3.3271    2.4974 N   0  0  0  0  0  0  0  0  0  0  0  0
    4.1071    2.3065    2.4903 N   0  0  0  0  0  0  0  0  0  0  0  0
    3.3905    1.2051    2.4893 C   0  0  0  0  0  0  0  0  0  0  0  0
    3.9081   -0.1498    2.4826 C   0  0  0  0  0  0  0  0  0  0  0  0
    3.2433   -1.1699    3.0513 N   0  0  0  0  0  0  0  0  0  0  0  0
    3.7133   -2.4293    3.0510 C   0  0  0  0  0  0  0  0  0  0  0  0
    4.9334   -2.7165    2.4461 C   0  0  0  0  0  0  0  0  0  0  0  0
    5.6437   -1.6797    1.8501 C   0  0  0  0  0  0  0  0  0  0  0  0
    5.1318   -0.3866    1.8659 C   0  0  0  0  0  0  0  0  0  0  0  0
    5.4558   -4.0052    2.4213 C   0  0  0  0  0  0  0  0  0  0  0  0
    4.7388   -5.0369    3.0187 C   0  0  0  0  0  0  0  0  0  0  0  0
    3.5174   -4.7717    3.6294 C   0  0  0  0  0  0  0  0  0  0  0  0
    3.0129   -3.4753    3.6422 C   0  0  0  0  0  0  0  0  0  0  0  0
    0.8853    3.7336    2.5048 N   0  0  0  0  0  0  0  0  0  0  0  0
    0.9717    5.1351    2.0699 C   0  0  0  0  0  0  0  0  0  0  0  0
    0.7157    5.2181    0.5767 C   0  0  0  0  0  0  0  0  0  0  0  0
   -0.8079    5.4304   -0.1483 S   0  0  0  0  0  0  0  0  0  0  0  0
   -0.2418    5.4078   -1.7555 C   0  0  0  0  0  0  0  0  0  0  0  0
    1.0679    5.2448   -1.6893 N   0  0  0  0  0  0  0  0  0  0  0  0
    1.6245    5.1362   -0.4343 C   0  0  0  0  0  0  0  0  0  0  0  0
   -0.4030    3.1782    2.9437 C   0  0  0  0  0  0  0  0  0  0  0  0
   -0.9132    3.9658    4.1395 C   0  0  0  0  0  0  0  0  0  0  0  0
   -2.0977    3.3593    4.6352 O   0  0  0  0  0  0  0  0  0  0  0  0
   -2.5743    4.0951    5.7523 C   0  0  0  0  0  0  0  0  0  0  0  0
   -1.3110   -5.8418    0.4782 C   0  0  0  0  0  0  0  0  0  0  0  0
    0.4710   -3.8595   -1.1441 H   0  0  0  0  0  0  0  0  0  0  0  0
    1.1945   -3.9892    0.3141 H   0  0  0  0  0  0  0  0  0  0  0  0
    0.6564   -1.9501    1.9521 H   0  0  0  0  0  0  0  0  0  0  0  0
    0.9635    1.7131    0.0195 H   0  0  0  0  0  0  0  0  0  0  0  0
    0.8007    0.6006   -2.0913 H   0  0  0  0  0  0  0  0  0  0  0  0
    0.5668   -1.7765   -2.1955 H   0  0  0  0  0  0  0  0  0  0  0  0
    0.0893    1.1838    2.6675 H   0  0  0  0  0  0  0  0  0  0  0  0
    1.0403   -0.0245    3.2174 H   0  0  0  0  0  0  0  0  0  0  0  0
    6.5226   -1.8641    1.4102 H   0  0  0  0  0  0  0  0  0  0  0  0
    5.6373    0.3634    1.4391 H   0  0  0  0  0  0  0  0  0  0  0  0
    6.3345   -4.1877    1.9802 H   0  0  0  0  0  0  0  0  0  0  0  0
    5.1013   -5.9688    3.0091 H   0  0  0  0  0  0  0  0  0  0  0  0
    3.0019   -5.5130    4.0592 H   0  0  0  0  0  0  0  0  0  0  0  0
    2.1340   -3.2929    4.0829 H   0  0  0  0  0  0  0  0  0  0  0  0
    1.8840    5.4913    2.2720 H   0  0  0  0  0  0  0  0  0  0  0  0
    0.2868    5.6778    2.5562 H   0  0  0  0  0  0  0  0  0  0  0  0
   -0.7923    5.4998   -2.5852 H   0  0  0  0  0  0  0  0  0  0  0  0
    2.6043    5.0091   -0.2798 H   0  0  0  0  0  0  0  0  0  0  0  0
   -0.2820    2.2200    3.2027 H   0  0  0  0  0  0  0  0  0  0  0  0
   -1.0647    3.2406    2.1966 H   0  0  0  0  0  0  0  0  0  0  0  0
   -0.2164    3.9715    4.8567 H   0  0  0  0  0  0  0  0  0  0  0  0
   -1.1116    4.9052    3.8598 H   0  0  0  0  0  0  0  0  0  0  0  0
   -3.4084    3.6680    6.1013 H   0  0  0  0  0  0  0  0  0  0  0  0
   -1.8775    4.1009    6.4695 H   0  0  0  0  0  0  0  0  0  0  0  0
   -2.7726    5.0345    5.4726 H   0  0  0  0  0  0  0  0  0  0  0  0
   -1.2852   -6.1411   -0.4756 H   0  0  0  0  0  0  0  0  0  0  0  0
   -0.5616   -6.2708    0.9826 H   0  0  0  0  0  0  0  0  0  0  0  0
   -2.1837   -6.1079    0.8876 H   0  0  0  0  0  0  0  0  0  0  0  0
  1  2  2  0  0  0  0
  1  3  2  0  0  0  0
  1  4  1  0  0  0  0
  4  5  1  0  0  0  0
  5  6  1  0  0  0  0
  6  7  2  0  0  0  0
  7  8  1  0  0  0  0
  8  9  2  0  0  0  0
  9 10  1  0  0  0  0
 10  5  2  0  0  0  0
  7 11  1  0  0  0  0
 11 12  1  0  0  0  0
 12 13  1  0  0  0  0
 13 14  2  0  0  0  0
 14 15  1  0  0  0  0
 15 16  2  0  0  0  0
 16 12  1  0  0  0  0
 16 17  1  0  0  0  0
 17 18  1  0  0  0  0
 18 19  2  0  0  0  0
 19 20  1  0  0  0  0
 20 21  2  0  0  0  0
 21 22  1  0  0  0  0
 22 17  2  0  0  0  0
 20 23  1  0  0  0  0
 23 24  2  0  0  0  0
 24 25  1  0  0  0  0
 25 26  2  0  0  0  0
 26 19  1  0  0  0  0
 13 27  1  0  0  0  0
 27 28  1  0  0  0  0
 28 29  1  0  0  0  0
 29 30  1  0  0  0  0
 30 31  1  0  0  0  0
 31 32  2  0  0  0  0
 32 33  1  0  0  0  0
 29 33  2  0  0  0  0
 27 34  1  0  0  0  0
 34 35  1  0  0  0  0
 35 36  1  0  0  0  0
 36 37  1  0  0  0  0
  1 38  1  0  0  0  0
  4 39  1  0  0  0  0
  4 40  1  0  0  0  0
  6 41  1  0  0  0  0
  8 42  1  0  0  0  0
  9 43  1  0  0  0  0
 10 44  1  0  0  0  0
 11 45  1  0  0  0  0
 11 46  1  0  0  0  0
 21 47  1  0  0  0  0
 22 48  1  0  0  0  0
 23 49  1  0  0  0  0
 24 50  1  0  0  0  0
 25 51  1  0  0  0  0
 26 52  1  0  0  0  0
 28 53  1  0  0  0  0
 28 54  1  0  0  0  0
 31 55  1  0  0  0  0
 33 56  1  0  0  0  0
 34 57  1  0  0  0  0
 34 58  1  0  0  0  0
 35 59  1  0  0  0  0
 35 60  1  0  0  0  0
 37 61  1  0  0  0  0
 37 62  1  0  0  0  0
 37 63  1  0  0  0  0
 38 64  1  0  0  0  0
 38 65  1  0  0  0  0
 38 66  1  0  0  0  0
M  END
>  <result-rank>
21

>  <similarity>
0.880

>  <query-name>


>  <query-smiles>
S(=O)(=O)(NC(=O)C)c1ccc(cc1)C=2N3N=CC=C(N4CCOCC4)C3=NC2/C=C/c5nc6c(cc5)cccc6

>  <source>
REALspace_2019-12

>  <similarity-descriptor>
0.936;0.843;0.797;0.899;0.935;1.000;0.817;0.0;0.0;0.0;0.797;0.935;0.0

>  <similarity-descriptor-smiles>
c1cccc(c1)C;CCOC;N1C=NN=C1;NCC1=CN=CS1;c1ccccn1;c1ccccc1;S(=O)(=O)(C)C;;;;N1C=NN=C1;c1ccccn1;

>  <reaction-name>
m_273170

>  <reagent1-name>
10757278

>  <reagent1-smiles>
[R2*]=C([R1*])N([R3*])Cc1cc(ccc1)CS(=O)(=O)C

>  <reagent2-name>
10765544

>  <reagent2-smiles>
[R1*]N(CC=1SC=NC1)CCOC

>  <reagent3-name>
10755784

>  <reagent3-smiles>
[R2*]=NN=C([R3*])c1nc2c(cc1)cccc2

$$$$
m_273170____10756144____10760336____10766638
          04022017323D 1   1.00000     0.00000     0
            
 76 81  0  0  0  0            999 V2000
   -1.0282    3.9994    8.8794 S   0  0  0  0  0  0  0  0  0  0  0  0
   -0.0020    3.2668    9.5749 O   0  0  0  0  0  0  0  0  0  0  0  0
   -0.9091    5.4012    9.1865 O   0  0  0  0  0  0  0  0  0  0  0  0
   -2.4934    3.4626    9.3507 N   0  0  0  0  0  0  0  0  0  0  0  0
   -0.8482    3.7639    7.1651 C   0  0  0  0  0  0  0  0  0  0  0  0
   -1.4846    4.6251    6.2778 C   0  0  0  0  0  0  0  0  0  0  0  0
   -1.3422    4.4389    4.9065 C   0  0  0  0  0  0  0  0  0  0  0  0
   -0.5609    3.3868    4.4408 C   0  0  0  0  0  0  0  0  0  0  0  0
    0.0750    2.5254    5.3289 C   0  0  0  0  0  0  0  0  0  0  0  0
   -0.0664    2.7115    6.6997 C   0  0  0  0  0  0  0  0  0  0  0  0
   -0.4030    3.1782    2.9437 C   0  0  3  0  0  0  0  0  0  0  0  0
    0.8853    3.7336    2.5048 N   0  0  0  0  0  0  0  0  0  0  0  0
    2.0315    2.9267    2.5008 C   0  0  0  0  0  0  0  0  0  0  0  0
    3.2789    3.3271    2.4974 N   0  0  0  0  0  0  0  0  0  0  0  0
    4.1071    2.3065    2.4903 N   0  0  0  0  0  0  0  0  0  0  0  0
    3.3905    1.2051    2.4893 C   0  0  0  0  0  0  0  0  0  0  0  0
    2.0806    1.5694    2.4959 N   0  0  0  0  0  0  0  0  0  0  0  0
    0.9245    0.6605    2.4981 C   0  0  0  0  0  0  0  0  0  0  0  0
    0.6734    0.1566    1.0861 C   0  0  0  0  0  0  0  0  0  0  0  0
    0.5231   -1.2096    0.8709 C   0  0  0  0  0  0  0  0  0  0  0  0
    0.2946   -1.6726   -0.4212 C   0  0  0  0  0  0  0  0  0  0  0  0
    0.2191   -0.7696   -1.4783 C   0  0  0  0  0  0  0  0  0  0  0  0
   -0.0100   -1.2280   -2.7720 C   0  0  0  0  0  0  0  0  0  0  0  0
   -0.1613   -2.5937   -2.9886 C   0  0  0  0  0  0  0  0  0  0  0  0
   -0.3839   -3.0396   -4.2435 O   0  0  0  0  0  0  0  0  0  0  0  0
    0.3017   -4.1877   -4.7211 C   0  0  0  0  0  0  0  0  0  0  0  0
   -0.0891   -3.5041   -1.9398 C   0  0  0  0  0  0  0  0  0  0  0  0
    0.1406   -3.0358   -0.6502 C   0  0  0  0  0  0  0  0  0  0  0  0
    0.3687    0.5965   -1.2627 C   0  0  0  0  0  0  0  0  0  0  0  0
    0.5973    1.0572    0.0295 C   0  0  0  0  0  0  0  0  0  0  0  0
    3.9050   -0.1416    2.4827 C   0  0  0  0  0  0  0  0  0  0  0  0
    3.1971   -1.2494    2.8665 N   0  0  0  0  0  0  0  0  0  0  0  0
    3.8395   -2.3879    2.7898 C   0  0  0  0  0  0  0  0  0  0  0  0
    5.3989   -2.0192    2.2162 S   0  0  0  0  0  0  0  0  0  0  0  0
    5.1849   -0.3358    2.0717 C   0  0  0  0  0  0  0  0  0  0  0  0
    3.3567   -3.6583    3.1188 N   0  0  0  0  0  0  0  0  0  0  0  0
    1.9086   -3.8545    3.2892 C   0  0  0  0  0  0  0  0  0  0  0  0
    1.4923   -5.2500    2.8504 C   0  0  0  0  0  0  0  0  0  0  0  0
    2.3698   -6.2417    3.3685 O   0  0  0  0  0  0  0  0  0  0  0  0
    3.6769   -6.0872    2.8312 C   0  0  0  0  0  0  0  0  0  0  0  0
    4.3069   -4.7717    3.2630 C   0  0  0  0  0  0  0  0  0  0  0  0
    0.9717    5.1351    2.0699 C   0  0  0  0  0  0  0  0  0  0  0  0
   -1.5340    3.8825    2.2120 C   0  0  0  0  0  0  0  0  0  0  0  0
   -3.2060    3.9713    8.8676 H   0  0  0  0  0  0  0  0  0  0  0  0
   -2.5761    2.4891    9.1374 H   0  0  0  0  0  0  0  0  0  0  0  0
   -2.0440    5.3777    6.6252 H   0  0  0  0  0  0  0  0  0  0  0  0
   -1.7965    5.0546    4.2628 H   0  0  0  0  0  0  0  0  0  0  0  0
    0.6338    1.7724    4.9816 H   0  0  0  0  0  0  0  0  0  0  0  0
    0.3884    2.0960    7.3433 H   0  0  0  0  0  0  0  0  0  0  0  0
   -0.4315    2.1999    2.7386 H   0  0  0  0  0  0  0  0  0  0  0  0
    0.1164    1.1498    2.8260 H   0  0  0  0  0  0  0  0  0  0  0  0
    1.1116   -0.1154    3.1005 H   0  0  0  0  0  0  0  0  0  0  0  0
    0.5786   -1.8513    1.6359 H   0  0  0  0  0  0  0  0  0  0  0  0
   -0.0652   -0.5845   -3.5355 H   0  0  0  0  0  0  0  0  0  0  0  0
    0.0204   -4.3766   -5.6620 H   0  0  0  0  0  0  0  0  0  0  0  0
    1.2876   -4.0221   -4.6949 H   0  0  0  0  0  0  0  0  0  0  0  0
    0.0801   -4.9729   -4.1429 H   0  0  0  0  0  0  0  0  0  0  0  0
   -0.2008   -4.4831   -2.1105 H   0  0  0  0  0  0  0  0  0  0  0  0
    0.1949   -3.6798    0.1129 H   0  0  0  0  0  0  0  0  0  0  0  0
    0.3126    1.2390   -2.0269 H   0  0  0  0  0  0  0  0  0  0  0  0
    0.7070    2.0367    0.1987 H   0  0  0  0  0  0  0  0  0  0  0  0
    5.8448    0.3473    1.7587 H   0  0  0  0  0  0  0  0  0  0  0  0
    1.4198   -3.1788    2.7373 H   0  0  0  0  0  0  0  0  0  0  0  0
    1.6730   -3.7310    4.2532 H   0  0  0  0  0  0  0  0  0  0  0  0
    0.5658   -5.4316    3.1799 H   0  0  0  0  0  0  0  0  0  0  0  0
    1.5055   -5.2941    1.8514 H   0  0  0  0  0  0  0  0  0  0  0  0
    3.6222   -6.1088    1.8329 H   0  0  0  0  0  0  0  0  0  0  0  0
    4.2502   -6.8419    3.1501 H   0  0  0  0  0  0  0  0  0  0  0  0
    4.5854   -4.8416    4.2208 H   0  0  0  0  0  0  0  0  0  0  0  0
    5.1098   -4.5918    2.6946 H   0  0  0  0  0  0  0  0  0  0  0  0
    0.0691    5.5606    2.1354 H   0  0  0  0  0  0  0  0  0  0  0  0
    1.6154    5.6270    2.6562 H   0  0  0  0  0  0  0  0  0  0  0  0
    1.2893    5.1712    1.1224 H   0  0  0  0  0  0  0  0  0  0  0  0
   -2.4104    3.5047    2.5106 H   0  0  0  0  0  0  0  0  0  0  0  0
   -1.5055    4.8608    2.4171 H   0  0  0  0  0  0  0  0  0  0  0  0
   -1.4301    3.7452    1.2269 H   0  0  0  0  0  0  0  0  0  0  0  0
  1  2  2  0  0  0  0
  1  3  2  0  0  0  0
  1  4  1  0  0  0  0
  1  5  1  0  0  0  0
  5  6  1  0  0  0  0
  6  7  2  0  0  0  0
  7  8  1  0  0  0  0
  8  9  2  0  0  0  0
  9 10  1  0  0  0  0
 10  5  2  0  0  0  0
  8 11  1  0  0  0  0
 11 12  1  0  0  0  0
 12 13  1  0  0  0  0
 13 14  2  0  0  0  0
 14 15  1  0  0  0  0
 15 16  2  0  0  0  0
 16 17  1  0  0  0  0
 17 13  1  0  0  0  0
 17 18  1  0  0  0  0
 18 19  1  0  0  0  0
 19 20  1  0  0  0  0
 20 21  2  0  0  0  0
 21 22  1  0  0  0  0
 22 23  1  0  0  0  0
 23 24  2  0  0  0  0
 24 25  1  0  0  0  0
 25 26  1  0  0  0  0
 24 27  1  0  0  0  0
 27 28  2  0  0  0  0
 28 21  1  0  0  0  0
 22 29  2  0  0  0  0
 29 30  1  0  0  0  0
 30 19  2  0  0  0  0
 16 31  1  0  0  0  0
 31 32  1  0  0  0  0
 32 33  2  0  0  0  0
 33 34  1  0  0  0  0
 34 35  1  0  0  0  0
 31 35  2  0  0  0  0
 33 36  1  0  0  0  0
 36 37  1  0  0  0  0
 37 38  1  0  0  0  0
 38 39  1  0  0  0  0
 39 40  1  0  0  0  0
 40 41  1  0  0  0  0
 41 36  1  0  0  0  0
 12 42  1  0  0  0  0
 11 43  1  0  0  0  0
  4 44  1  0  0  0  0
  4 45  1  0  0  0  0
  6 46  1  0  0  0  0
  7 47  1  0  0  0  0
  9 48  1  0  0  0  0
 10 49  1  0  0  0  0
 11 50  1  0  0  0  0
 18 51  1  0  0  0  0
 18 52  1  0  0  0  0
 20 53  1  0  0  0  0
 23 54  1  0  0  0  0
 26 55  1  0  0  0  0
 26 56  1  0  0  0  0
 26 57  1  0  0  0  0
 27 58  1  0  0  0  0
 28 59  1  0  0  0  0
 29 60  1  0  0  0  0
 30 61  1  0  0  0  0
 35 62  1  0  0  0  0
 37 63  1  0  0  0  0
 37 64  1  0  0  0  0
 38 65  1  0  0  0  0
 38 66  1  0  0  0  0
 40 67  1  0  0  0  0
 40 68  1  0  0  0  0
 41 69  1  0  0  0  0
 41 70  1  0  0  0  0
 42 71  1  0  0  0  0
 42 72  1  0  0  0  0
 42 73  1  0  0  0  0
 43 74  1  0  0  0  0
 43 75  1  0  0  0  0
 43 76  1  0  0  0  0
M  END
>  <result-rank>
22

>  <similarity>
0.880

>  <query-name>


>  <query-smiles>
S(=O)(=O)(NC(=O)C)c1ccc(cc1)C=2N3N=CC=C(N4CCOCC4)C3=NC2/C=C/c5nc6c(cc5)cccc6

>  <source>
REALspace_2019-12

>  <similarity-descriptor>
0.941;1.000;0.805;0.961;0.863;0.954;1.000;0.588;0.0;0.0;0.251;0.863;0.267

>  <similarity-descriptor-smiles>
c1ccc(cc1)CN;N1CCOCC1;C=1NC=NN1;C1=CSC=N1;c1ccccc1;c1ccccc1;S(=O)=O;N;;;C;c1ccccc1;O.C.C.C

>  <reaction-name>
m_273170

>  <reagent1-name>
10756144

>  <reagent1-smiles>
[R2*]=C([R1*])N([R3*])Cc1cc2c(cc(OC)cc2)cc1

>  <reagent2-name>
10760336

>  <reagent2-smiles>
[R1*]N(C(c1ccc(S(=O)(=O)N)cc1)C)C

>  <reagent3-name>
10766638

>  <reagent3-smiles>
[R2*]=NN=C([R3*])C=1N=C(SC1)N2CCOCC2

$$$$
m_273170____10756114____10760440____10766732
          04022017323D 1   1.00000     0.00000     0
            
 77 82  0  0  0  0            999 V2000
   -2.6091    4.3456    7.9746 O   0  5  0  0  0  0  0  0  0  0  0  0
   -1.7625    3.9874    7.1725 N   0  3  0  0  0  0  0  0  0  0  0  0
   -0.7625    3.4261    7.5585 O   0  0  0  0  0  0  0  0  0  0  0  0
   -1.9480    4.2257    5.8058 C   0  0  0  0  0  0  0  0  0  0  0  0
   -1.1376    3.5767    4.8802 C   0  0  0  0  0  0  0  0  0  0  0  0
   -1.3312    3.8217    3.5249 C   0  0  0  0  0  0  0  0  0  0  0  0
   -2.3175    4.7011    3.0910 C   0  0  0  0  0  0  0  0  0  0  0  0
   -3.1161    5.3385    4.0353 C   0  0  0  0  0  0  0  0  0  0  0  0
   -2.9407    5.1089    5.3955 C   0  0  0  0  0  0  0  0  0  0  0  0
   -0.4485    3.1157    2.5084 C   0  0  3  0  0  0  0  0  0  0  0  0
    0.8853    3.7336    2.5048 N   0  0  0  0  0  0  0  0  0  0  0  0
    2.0315    2.9267    2.5008 C   0  0  0  0  0  0  0  0  0  0  0  0
    3.2789    3.3271    2.4974 N   0  0  0  0  0  0  0  0  0  0  0  0
    4.1071    2.3065    2.4903 N   0  0  0  0  0  0  0  0  0  0  0  0
    3.3905    1.2051    2.4893 C   0  0  0  0  0  0  0  0  0  0  0  0
    2.0806    1.5694    2.4959 N   0  0  0  0  0  0  0  0  0  0  0  0
    0.9245    0.6605    2.4981 C   0  0  0  0  0  0  0  0  0  0  0  0
    0.6865    0.1468    3.9087 C   0  0  3  0  0  0  0  0  0  0  0  0
    1.4535   -1.0931    4.1155 N   0  3  0  0  0  0  0  0  0  0  0  0
    1.4495   -1.5046    5.5274 C   0  0  0  0  0  0  0  0  0  0  0  0
    2.2523   -2.7834    5.7048 C   0  0  0  0  0  0  0  0  0  0  0  0
    1.7399   -3.8115    4.8690 O   0  0  0  0  0  0  0  0  0  0  0  0
    1.7468   -3.4390    3.4975 C   0  0  0  0  0  0  0  0  0  0  0  0
    0.9276   -2.1777    3.2719 C   0  0  0  0  0  0  0  0  0  0  0  0
   -0.7945   -0.1354    4.1020 C   0  0  0  0  0  0  0  0  0  0  0  0
   -1.6167   -0.5507    3.1706 O   0  0  0  0  0  0  0  0  0  0  0  0
   -2.8248   -0.6985    3.6621 C   0  0  0  0  0  0  0  0  0  0  0  0
   -2.8071   -0.3643    4.9815 C   0  0  0  0  0  0  0  0  0  0  0  0
   -1.4764    0.0059    5.2721 C   0  0  0  0  0  0  0  0  0  0  0  0
   -4.0440   -1.1678    2.8849 C   0  0  0  0  0  0  0  0  0  0  0  0
    3.9087   -0.1514    2.4826 C   0  0  0  0  0  0  0  0  0  0  0  0
    3.9835   -0.9271    1.3256 C   0  0  0  0  0  0  0  0  0  0  0  0
    4.4883   -2.2237    1.3727 C   0  0  0  0  0  0  0  0  0  0  0  0
    4.9190   -2.7393    2.5902 C   0  0  0  0  0  0  0  0  0  0  0  0
    4.8482   -1.9723    3.7478 C   0  0  0  0  0  0  0  0  0  0  0  0
    4.3424   -0.6781    3.6937 C   0  0  0  0  0  0  0  0  0  0  0  0
    4.5673   -3.0080    0.2265 C   0  0  0  0  0  0  0  0  0  0  0  0
    4.1377   -2.4995   -0.9948 C   0  0  0  0  0  0  0  0  0  0  0  0
    3.6295   -1.2071   -1.0701 C   0  0  0  0  0  0  0  0  0  0  0  0
    3.5604   -0.4428    0.0899 C   0  0  0  0  0  0  0  0  0  0  0  0
    1.0172    5.1977    2.5052 C   0  0  0  0  0  0  0  0  0  0  0  0
   -1.0683    3.2401    1.1261 C   0  0  0  0  0  0  0  0  0  0  0  0
    2.4007   -0.9210    3.8450 H   0  0  0  0  0  0  0  0  0  0  0  0
   -0.4263    2.9432    5.1847 H   0  0  0  0  0  0  0  0  0  0  0  0
   -2.4506    4.8728    2.1149 H   0  0  0  0  0  0  0  0  0  0  0  0
   -3.8276    5.9719    3.7310 H   0  0  0  0  0  0  0  0  0  0  0  0
   -3.5189    5.5713    6.0677 H   0  0  0  0  0  0  0  0  0  0  0  0
   -0.3674    2.1491    2.7516 H   0  0  0  0  0  0  0  0  0  0  0  0
    1.1060   -0.1112    1.8885 H   0  0  0  0  0  0  0  0  0  0  0  0
    0.1134    1.1521    2.1811 H   0  0  0  0  0  0  0  0  0  0  0  0
    0.9834    0.8365    4.5691 H   0  0  0  0  0  0  0  0  0  0  0  0
    0.5072   -1.6627    5.8225 H   0  0  0  0  0  0  0  0  0  0  0  0
    1.8559   -0.7797    6.0837 H   0  0  0  0  0  0  0  0  0  0  0  0
    3.2071   -2.6087    5.4642 H   0  0  0  0  0  0  0  0  0  0  0  0
    2.1974   -3.0769    6.6592 H   0  0  0  0  0  0  0  0  0  0  0  0
    1.3578   -4.1832    2.9545 H   0  0  0  0  0  0  0  0  0  0  0  0
    2.6895   -3.2729    3.2084 H   0  0  0  0  0  0  0  0  0  0  0  0
    0.9860   -1.9100    2.3102 H   0  0  0  0  0  0  0  0  0  0  0  0
   -0.0272   -2.3531    3.5117 H   0  0  0  0  0  0  0  0  0  0  0  0
   -3.5798   -0.3783    5.6161 H   0  0  0  0  0  0  0  0  0  0  0  0
   -1.1111    0.3084    6.1524 H   0  0  0  0  0  0  0  0  0  0  0  0
   -4.8375   -1.1932    3.4929 H   0  0  0  0  0  0  0  0  0  0  0  0
   -4.2221   -0.5358    2.1306 H   0  0  0  0  0  0  0  0  0  0  0  0
   -3.8745   -2.0832    2.5197 H   0  0  0  0  0  0  0  0  0  0  0  0
    5.2828   -3.6698    2.6336 H   0  0  0  0  0  0  0  0  0  0  0  0
    5.1608   -2.3512    4.6188 H   0  0  0  0  0  0  0  0  0  0  0  0
    4.2906   -0.1263    4.5261 H   0  0  0  0  0  0  0  0  0  0  0  0
    4.9330   -3.9371    0.2805 H   0  0  0  0  0  0  0  0  0  0  0  0
    4.1942   -3.0633   -1.8188 H   0  0  0  0  0  0  0  0  0  0  0  0
    3.3188   -0.8333   -1.9440 H   0  0  0  0  0  0  0  0  0  0  0  0
    3.1944    0.4862    0.0349 H   0  0  0  0  0  0  0  0  0  0  0  0
    0.1080    5.6142    2.5082 H   0  0  0  0  0  0  0  0  0  0  0  0
    1.5190    5.4869    3.3204 H   0  0  0  0  0  0  0  0  0  0  0  0
    1.5141    5.4879    1.6874 H   0  0  0  0  0  0  0  0  0  0  0  0
   -1.9756    2.8198    1.1285 H   0  0  0  0  0  0  0  0  0  0  0  0
   -1.1493    4.2067    0.8829 H   0  0  0  0  0  0  0  0  0  0  0  0
   -0.4876    2.7757    0.4574 H   0  0  0  0  0  0  0  0  0  0  0  0
  1  2  1  0  0  0  0
  2  3  2  0  0  0  0
  2  4  1  0  0  0  0
  4  5  1  0  0  0  0
  5  6  2  0  0  0  0
  6  7  1  0  0  0  0
  7  8  2  0  0  0  0
  8  9  1  0  0  0  0
  9  4  2  0  0  0  0
  6 10  1  0  0  0  0
 10 11  1  0  0  0  0
 11 12  1  0  0  0  0
 12 13  2  0  0  0  0
 13 14  1  0  0  0  0
 14 15  2  0  0  0  0
 15 16  1  0  0  0  0
 16 12  1  0  0  0  0
 16 17  1  0  0  0  0
 17 18  1  0  0  0  0
 18 19  1  0  0  0  0
 19 20  1  0  0  0  0
 20 21  1  0  0  0  0
 21 22  1  0  0  0  0
 22 23  1  0  0  0  0
 23 24  1  0  0  0  0
 24 19  1  0  0  0  0
 18 25  1  0  0  0  0
 25 26  1  0  0  0  0
 26 27  1  0  0  0  0
 27 28  2  0  0  0  0
 28 29  1  0  0  0  0
 25 29  2  0  0  0  0
 27 30  1  0  0  0  0
 15 31  1  0  0  0  0
 31 32  1  0  0  0  0
 32 33  2  0  0  0  0
 33 34  1  0  0  0  0
 34 35  2  0  0  0  0
 35 36  1  0  0  0  0
 36 31  2  0  0  0  0
 33 37  1  0  0  0  0
 37 38  2  0  0  0  0
 38 39  1  0  0  0  0
 39 40  2  0  0  0  0
 40 32  1  0  0  0  0
 11 41  1  0  0  0  0
 10 42  1  0  0  0  0
 19 43  1  0  0  0  0
  5 44  1  0  0  0  0
  7 45  1  0  0  0  0
  8 46  1  0  0  0  0
  9 47  1  0  0  0  0
 10 48  1  0  0  0  0
 17 49  1  0  0  0  0
 17 50  1  0  0  0  0
 18 51  1  0  0  0  0
 20 52  1  0  0  0  0
 20 53  1  0  0  0  0
 21 54  1  0  0  0  0
 21 55  1  0  0  0  0
 23 56  1  0  0  0  0
 23 57  1  0  0  0  0
 24 58  1  0  0  0  0
 24 59  1  0  0  0  0
 28 60  1  0  0  0  0
 29 61  1  0  0  0  0
 30 62  1  0  0  0  0
 30 63  1  0  0  0  0
 30 64  1  0  0  0  0
 34 65  1  0  0  0  0
 35 66  1  0  0  0  0
 36 67  1  0  0  0  0
 37 68  1  0  0  0  0
 38 69  1  0  0  0  0
 39 70  1  0  0  0  0
 40 71  1  0  0  0  0
 41 72  1  0  0  0  0
 41 73  1  0  0  0  0
 41 74  1  0  0  0  0
 42 75  1  0  0  0  0
 42 76  1  0  0  0  0
 42 77  1  0  0  0  0
M  CHG  3   1  -1   2   1  19   1
M  END
>  <result-rank>
23

>  <similarity>
0.880

>  <query-name>


>  <query-smiles>
S(=O)(=O)(NC(=O)C)c1ccc(cc1)C=2N3N=CC=C(N4CCOCC4)C3=NC2/C=C/c5nc6c(cc5)cccc6

>  <source>
REALspace_2019-12

>  <similarity-descriptor>
0.940;0.909;0.797;0.873;0.863;0.999;0.975;0.0;0.0;0.0;0.797;0.863;0.214

>  <similarity-descriptor-smiles>
c1cccc(c1)CN;[NH+]1CCOCC1;C=1NC=NN1;CCC1=CC=CO1;c1ccccc1;c1ccccc1;[O-][N+]=O;;;;C=1NC=NN1;c1ccccc1;C.C.C

>  <reaction-name>
m_273170

>  <reagent1-name>
10756114

>  <reagent1-smiles>
[R2*]=C([R1*])N([R3*])CC(N1CCOCC1)C=2OC(=CC2)C

>  <reagent2-name>
10760440

>  <reagent2-smiles>
[R1*]N(C(c1cc([N+]([O-])=O)ccc1)C)C

>  <reagent3-name>
10766732

>  <reagent3-smiles>
[R2*]=NN=C([R3*])c1c2c(ccc1)cccc2

$$$$
m_273170____10756572____10761162____10755784
          04022017323D 1   1.00000     0.00000     0
            
 67 71  0  0  0  0            999 V2000
    2.1943   -0.9256   -3.7011 S   0  0  0  0  0  0  0  0  0  0  0  0
    2.6920   -0.4330   -4.9594 O   0  0  0  0  0  0  0  0  0  0  0  0
    3.1773   -1.7904   -3.1015 O   0  0  0  0  0  0  0  0  0  0  0  0
    0.8167   -1.7603   -3.9511 N   0  0  0  0  0  0  0  0  0  0  0  0
    1.0859   -2.8927   -4.8488 C   0  0  0  0  0  0  0  0  0  0  0  0
    1.8756    0.4150   -2.6384 C   0  0  0  0  0  0  0  0  0  0  0  0
    1.5776    0.1786   -1.3001 C   0  0  0  0  0  0  0  0  0  0  0  0
    1.3249    1.2596   -0.4622 C   0  0  0  0  0  0  0  0  0  0  0  0
    1.3675    2.5635   -0.9443 C   0  0  0  0  0  0  0  0  0  0  0  0
    1.6674    2.7780   -2.2857 C   0  0  0  0  0  0  0  0  0  0  0  0
    1.9228    1.7111   -3.1410 C   0  0  0  0  0  0  0  0  0  0  0  0
    1.0000    1.0000    1.0000 C   0  0  0  0  0  0  0  0  0  0  0  0
    1.8491    1.8491    1.8491 N   0  0  0  0  0  0  0  0  0  0  0  0
    1.4341    2.9089    2.5903 C   0  0  0  0  0  0  0  0  0  0  0  0
    2.5076    3.3689    3.1840 N   0  0  0  0  0  0  0  0  0  0  0  0
    3.5695    2.6646    2.8617 N   0  0  0  0  0  0  0  0  0  0  0  0
    3.1893    1.7162    2.0355 C   0  0  0  0  0  0  0  0  0  0  0  0
    4.0482    0.7122    1.4344 C   0  0  0  0  0  0  0  0  0  0  0  0
    5.1684    1.0399    0.7694 N   0  0  0  0  0  0  0  0  0  0  0  0
    5.9696    0.1180    0.2099 C   0  0  0  0  0  0  0  0  0  0  0  0
    5.6496   -1.2335    0.3089 C   0  0  0  0  0  0  0  0  0  0  0  0
    4.4950   -1.6007    0.9923 C   0  0  0  0  0  0  0  0  0  0  0  0
    3.6833   -0.6245    1.5617 C   0  0  0  0  0  0  0  0  0  0  0  0
    6.4585   -2.2122   -0.2590 C   0  0  0  0  0  0  0  0  0  0  0  0
    7.6086   -1.8246   -0.9384 C   0  0  0  0  0  0  0  0  0  0  0  0
    7.9509   -0.4813   -1.0515 C   0  0  0  0  0  0  0  0  0  0  0  0
    7.1258    0.4789   -0.4749 C   0  0  0  0  0  0  0  0  0  0  0  0
    0.1296    3.4105    2.6963 N   0  0  0  0  0  0  0  0  0  0  0  0
   -1.0160    2.5599    2.3425 C   0  0  0  0  0  0  0  0  0  0  0  0
   -1.5587    1.8937    3.5963 C   0  0  0  0  0  0  0  0  0  0  0  0
   -1.1305    0.8275    3.9425 O   0  0  0  0  0  0  0  0  0  0  0  0
   -2.5642    2.5279    4.3518 N   0  0  0  0  0  0  0  0  0  0  0  0
   -2.8339    2.1877    5.7576 C   0  0  0  0  0  0  0  0  0  0  0  0
   -4.2933    2.4787    6.0657 C   0  0  0  0  0  0  0  0  0  0  0  0
   -4.6246    3.8580    5.9288 O   0  0  0  0  0  0  0  0  0  0  0  0
   -3.8721    4.5199    4.9172 C   0  0  0  0  0  0  0  0  0  0  0  0
   -3.4290    3.5820    3.8041 C   0  0  0  0  0  0  0  0  0  0  0  0
   -0.0930    4.7872    3.1612 C   0  0  0  0  0  0  0  0  0  0  0  0
    0.1340   -1.1598   -4.3675 H   0  0  0  0  0  0  0  0  0  0  0  0
    0.2407   -3.4048   -5.0022 H   0  0  0  0  0  0  0  0  0  0  0  0
    1.4315   -2.5506   -5.7226 H   0  0  0  0  0  0  0  0  0  0  0  0
    1.7685   -3.4932   -4.4324 H   0  0  0  0  0  0  0  0  0  0  0  0
    1.5456   -0.7558   -0.9454 H   0  0  0  0  0  0  0  0  0  0  0  0
    1.1852    3.3356   -0.3356 H   0  0  0  0  0  0  0  0  0  0  0  0
    1.6998    3.7125   -2.6401 H   0  0  0  0  0  0  0  0  0  0  0  0
    2.1375    1.8737   -4.1041 H   0  0  0  0  0  0  0  0  0  0  0  0
    0.0381    1.2137    1.1708 H   0  0  0  0  0  0  0  0  0  0  0  0
    1.1708    0.0381    1.2137 H   0  0  0  0  0  0  0  0  0  0  0  0
    4.2484   -2.5664    1.0744 H   0  0  0  0  0  0  0  0  0  0  0  0
    2.8512   -0.8794    2.0543 H   0  0  0  0  0  0  0  0  0  0  0  0
    6.2170   -3.1794   -0.1800 H   0  0  0  0  0  0  0  0  0  0  0  0
    8.1967   -2.5204   -1.3508 H   0  0  0  0  0  0  0  0  0  0  0  0
    8.7794   -0.2092   -1.5410 H   0  0  0  0  0  0  0  0  0  0  0  0
    7.3681    1.4459   -0.5540 H   0  0  0  0  0  0  0  0  0  0  0  0
   -0.7224    1.8587    1.6929 H   0  0  0  0  0  0  0  0  0  0  0  0
   -1.7318    3.1209    1.9266 H   0  0  0  0  0  0  0  0  0  0  0  0
   -2.2492    2.7377    6.3538 H   0  0  0  0  0  0  0  0  0  0  0  0
   -2.6462    1.2173    5.9096 H   0  0  0  0  0  0  0  0  0  0  0  0
   -4.8637    1.9497    5.4375 H   0  0  0  0  0  0  0  0  0  0  0  0
   -4.4832    2.1968    7.0062 H   0  0  0  0  0  0  0  0  0  0  0  0
   -3.0595    4.9247    5.3366 H   0  0  0  0  0  0  0  0  0  0  0  0
   -4.4374    5.2429    4.5199 H   0  0  0  0  0  0  0  0  0  0  0  0
   -4.2339    3.1645    3.3824 H   0  0  0  0  0  0  0  0  0  0  0  0
   -2.9231    4.1011    3.1151 H   0  0  0  0  0  0  0  0  0  0  0  0
   -1.0743    4.9792    3.1768 H   0  0  0  0  0  0  0  0  0  0  0  0
    0.2820    4.8927    4.0822 H   0  0  0  0  0  0  0  0  0  0  0  0
    0.3619    5.4261    2.5409 H   0  0  0  0  0  0  0  0  0  0  0  0
  1  2  2  0  0  0  0
  1  3  2  0  0  0  0
  1  4  1  0  0  0  0
  4  5  1  0  0  0  0
  1  6  1  0  0  0  0
  6  7  1  0  0  0  0
  7  8  2  0  0  0  0
  8  9  1  0  0  0  0
  9 10  2  0  0  0  0
 10 11  1  0  0  0  0
 11  6  2  0  0  0  0
  8 12  1  0  0  0  0
 12 13  1  0  0  0  0
 13 14  1  0  0  0  0
 14 15  2  0  0  0  0
 15 16  1  0  0  0  0
 16 17  2  0  0  0  0
 17 13  1  0  0  0  0
 17 18  1  0  0  0  0
 18 19  1  0  0  0  0
 19 20  2  0  0  0  0
 20 21  1  0  0  0  0
 21 22  2  0  0  0  0
 22 23  1  0  0  0  0
 23 18  2  0  0  0  0
 21 24  1  0  0  0  0
 24 25  2  0  0  0  0
 25 26  1  0  0  0  0
 26 27  2  0  0  0  0
 27 20  1  0  0  0  0
 14 28  1  0  0  0  0
 28 29  1  0  0  0  0
 29 30  1  0  0  0  0
 30 31  2  0  0  0  0
 30 32  1  0  0  0  0
 32 33  1  0  0  0  0
 33 34  1  0  0  0  0
 34 35  1  0  0  0  0
 35 36  1  0  0  0  0
 36 37  1  0  0  0  0
 37 32  1  0  0  0  0
 28 38  1  0  0  0  0
  4 39  1  0  0  0  0
  5 40  1  0  0  0  0
  5 41  1  0  0  0  0
  5 42  1  0  0  0  0
  7 43  1  0  0  0  0
  9 44  1  0  0  0  0
 10 45  1  0  0  0  0
 11 46  1  0  0  0  0
 12 47  1  0  0  0  0
 12 48  1  0  0  0  0
 22 49  1  0  0  0  0
 23 50  1  0  0  0  0
 24 51  1  0  0  0  0
 25 52  1  0  0  0  0
 26 53  1  0  0  0  0
 27 54  1  0  0  0  0
 29 55  1  0  0  0  0
 29 56  1  0  0  0  0
 33 57  1  0  0  0  0
 33 58  1  0  0  0  0
 34 59  1  0  0  0  0
 34 60  1  0  0  0  0
 36 61  1  0  0  0  0
 36 62  1  0  0  0  0
 37 63  1  0  0  0  0
 37 64  1  0  0  0  0
 38 65  1  0  0  0  0
 38 66  1  0  0  0  0
 38 67  1  0  0  0  0
M  END
>  <result-rank>
24

>  <similarity>
0.880

>  <query-name>


>  <query-smiles>
S(=O)(=O)(NC(=O)C)c1ccc(cc1)C=2N3N=CC=C(N4CCOCC4)C3=NC2/C=C/c5nc6c(cc5)cccc6

>  <source>
REALspace_2019-12

>  <similarity-descriptor>
0.936;0.999;0.797;0.578;0.935;1.000;1.000;0.733;0.733;0.733;0.797;0.935;0.077

>  <similarity-descriptor-smiles>
c1cccc(c1)C;N1CCOCC1;N1C=NN=C1;NCC=O;c1ccccn1;c1ccccc1;S(=O)=O;NC;NC;NC;N1C=NN=C1;c1ccccn1;C

>  <reaction-name>
m_273170

>  <reagent1-name>
10756572

>  <reagent1-smiles>
[R2*]=C([R1*])N([R3*])Cc1cc(S(=O)(=O)NC)ccc1

>  <reagent2-name>
10761162

>  <reagent2-smiles>
[R1*]N(CC(=O)N1CCOCC1)C

>  <reagent3-name>
10755784

>  <reagent3-smiles>
[R2*]=NN=C([R3*])c1nc2c(cc1)cccc2

$$$$
s_22____16643718____137563
          04022017323D 1   1.00000     0.00000     0
            
 59 64  0  0  0  0            999 V2000
   -0.3126    5.3711   -1.4563 F   0  0  0  0  0  0  0  0  0  0  0  0
    0.6908    6.0014   -0.8522 C   0  0  0  0  0  0  0  0  0  0  0  0
    1.0320    5.6690    0.4541 C   0  0  0  0  0  0  0  0  0  0  0  0
    2.0855    6.3403    1.0659 C   0  0  0  0  0  0  0  0  0  0  0  0
    2.7950    7.3299    0.3929 C   0  0  0  0  0  0  0  0  0  0  0  0
    2.4449    7.6527   -0.9141 C   0  0  0  0  0  0  0  0  0  0  0  0
    1.3920    6.9890   -1.5365 C   0  0  0  0  0  0  0  0  0  0  0  0
    2.4594    5.9793    2.4937 C   0  0  0  0  0  0  0  0  0  0  0  0
    3.4643    4.9065    2.4807 N   0  0  0  0  0  0  0  0  0  0  0  0
    4.7692    5.0808    2.4544 N   0  0  0  0  0  0  0  0  0  0  0  0
    5.3984    3.9309    2.4464 C   0  0  0  0  0  0  0  0  0  0  0  0
    4.4033    2.9277    2.4670 C   0  0  0  0  0  0  0  0  0  0  0  0
    3.1847    3.5699    2.4880 C   0  0  0  0  0  0  0  0  0  0  0  0
    2.0399    2.8609    2.5011 N   0  0  0  0  0  0  0  0  0  0  0  0
    1.9991    1.5162    2.5002 C   0  0  0  0  0  0  0  0  0  0  0  0
    0.7624    0.7588    2.5100 C   0  0  0  0  0  0  0  0  0  0  0  0
    0.8058   -0.6316    2.5084 C   0  0  0  0  0  0  0  0  0  0  0  0
   -0.3829   -1.3542    2.5169 C   0  0  0  0  0  0  0  0  0  0  0  0
   -1.6029   -0.6862    2.5283 C   0  0  0  0  0  0  0  0  0  0  0  0
   -1.6340    0.7029    2.5303 C   0  0  0  0  0  0  0  0  0  0  0  0
   -0.4524    1.4369    2.5212 C   0  0  0  0  0  0  0  0  0  0  0  0
    3.2069    0.8255    2.4899 C   0  0  0  0  0  0  0  0  0  0  0  0
    4.4023    1.5371    2.4741 C   0  0  0  0  0  0  0  0  0  0  0  0
    5.7019    0.7490    2.4614 C   0  0  0  0  0  0  0  0  0  0  0  0
    6.7537    1.3265    2.4448 O   0  0  0  0  0  0  0  0  0  0  0  0
    5.6726   -0.6207    2.4688 N   0  0  0  0  0  0  0  0  0  0  0  0
    6.8697   -1.3466    2.4570 C   0  0  0  0  0  0  0  0  0  0  0  0
    7.0046   -2.7035    2.4623 N   0  0  0  0  0  0  0  0  0  0  0  0
    8.3454   -2.9587    2.4249 C   0  0  0  0  0  0  0  0  0  0  0  0
    9.0003   -1.8188    2.4284 N   0  0  0  0  0  0  0  0  0  0  0  0
    8.1100   -0.7868    2.4420 C   0  0  0  0  0  0  0  0  0  0  0  0
    9.0223   -4.3239    2.3684 C   0  0  0  0  0  0  0  0  0  0  0  0
    8.2474   -5.3298    1.5308 C   0  0  0  0  0  0  0  0  0  0  0  0
    7.1548   -5.9551    2.2012 O   0  0  0  0  0  0  0  0  0  0  0  0
    6.4202   -5.1057    3.0828 C   0  0  0  0  0  0  0  0  0  0  0  0
    5.9812   -3.7703    2.4872 C   0  0  0  0  0  0  0  0  0  0  0  0
    0.5281    4.9588    0.9458 H   0  0  0  0  0  0  0  0  0  0  0  0
    3.5502    7.8049    0.8447 H   0  0  0  0  0  0  0  0  0  0  0  0
    2.9497    8.3618   -1.4064 H   0  0  0  0  0  0  0  0  0  0  0  0
    1.1395    7.2220   -2.4756 H   0  0  0  0  0  0  0  0  0  0  0  0
    2.8364    6.7836    2.9530 H   0  0  0  0  0  0  0  0  0  0  0  0
    1.6450    5.6672    2.9828 H   0  0  0  0  0  0  0  0  0  0  0  0
    6.3884    3.7910    2.4291 H   0  0  0  0  0  0  0  0  0  0  0  0
    1.6849   -1.1081    2.5012 H   0  0  0  0  0  0  0  0  0  0  0  0
   -0.3603   -2.3539    2.5149 H   0  0  0  0  0  0  0  0  0  0  0  0
   -2.4574   -1.2056    2.5350 H   0  0  0  0  0  0  0  0  0  0  0  0
   -2.5134    1.1790    2.5383 H   0  0  0  0  0  0  0  0  0  0  0  0
   -0.4758    2.4366    2.5226 H   0  0  0  0  0  0  0  0  0  0  0  0
    3.2157   -0.1744    2.4937 H   0  0  0  0  0  0  0  0  0  0  0  0
    4.7961   -1.1019    2.4826 H   0  0  0  0  0  0  0  0  0  0  0  0
    8.3257    0.1896    2.4411 H   0  0  0  0  0  0  0  0  0  0  0  0
    9.1045   -4.6789    3.2996 H   0  0  0  0  0  0  0  0  0  0  0  0
    9.9338   -4.2128    1.9724 H   0  0  0  0  0  0  0  0  0  0  0  0
    7.8879   -4.8540    0.7281 H   0  0  0  0  0  0  0  0  0  0  0  0
    8.8823   -6.0447    1.2380 H   0  0  0  0  0  0  0  0  0  0  0  0
    6.9951   -4.9150    3.8784 H   0  0  0  0  0  0  0  0  0  0  0  0
    5.6002   -5.5983    3.3744 H   0  0  0  0  0  0  0  0  0  0  0  0
    5.6897   -3.9365    1.5452 H   0  0  0  0  0  0  0  0  0  0  0  0
    5.2050   -3.4370    3.0224 H   0  0  0  0  0  0  0  0  0  0  0  0
  1  2  1  0  0  0  0
  2  3  1  0  0  0  0
  3  4  2  0  0  0  0
  4  5  1  0  0  0  0
  5  6  2  0  0  0  0
  6  7  1  0  0  0  0
  7  2  2  0  0  0  0
  4  8  1  0  0  0  0
  8  9  1  0  0  0  0
  9 10  1  0  0  0  0
 10 11  2  0  0  0  0
 11 12  1  0  0  0  0
 12 13  1  0  0  0  0
 13  9  1  0  0  0  0
 13 14  2  0  0  0  0
 14 15  1  0  0  0  0
 15 16  1  0  0  0  0
 16 17  1  0  0  0  0
 17 18  2  0  0  0  0
 18 19  1  0  0  0  0
 19 20  2  0  0  0  0
 20 21  1  0  0  0  0
 21 16  2  0  0  0  0
 15 22  2  0  0  0  0
 22 23  1  0  0  0  0
 23 12  2  0  0  0  0
 23 24  1  0  0  0  0
 24 25  2  0  0  0  0
 24 26  1  0  0  0  0
 26 27  1  0  0  0  0
 27 28  1  0  0  0  0
 28 29  1  0  0  0  0
 29 30  2  0  0  0  0
 30 31  1  0  0  0  0
 27 31  2  0  0  0  0
 29 32  1  0  0  0  0
 32 33  1  0  0  0  0
 33 34  1  0  0  0  0
 34 35  1  0  0  0  0
 35 36  1  0  0  0  0
 36 28  1  0  0  0  0
  3 37  1  0  0  0  0
  5 38  1  0  0  0  0
  6 39  1  0  0  0  0
  7 40  1  0  0  0  0
  8 41  1  0  0  0  0
  8 42  1  0  0  0  0
 11 43  1  0  0  0  0
 17 44  1  0  0  0  0
 18 45  1  0  0  0  0
 19 46  1  0  0  0  0
 20 47  1  0  0  0  0
 21 48  1  0  0  0  0
 22 49  1  0  0  0  0
 26 50  1  0  0  0  0
 31 51  1  0  0  0  0
 32 52  1  0  0  0  0
 32 53  1  0  0  0  0
 33 54  1  0  0  0  0
 33 55  1  0  0  0  0
 35 56  1  0  0  0  0
 35 57  1  0  0  0  0
 36 58  1  0  0  0  0
 36 59  1  0  0  0  0
M  END
>  <result-rank>
25

>  <similarity>
0.879

>  <query-name>


>  <query-smiles>
S(=O)(=O)(NC(=O)C)c1ccc(cc1)C=2N3N=CC=C(N4CCOCC4)C3=NC2/C=C/c5nc6c(cc5)cccc6

>  <source>
REALspace_2019-12

>  <similarity-descriptor>
0.959;0.964;0.927;0.755;0.858;0.966;0.0;0.0;0.0;0.0;0.927;0.927;0.0

>  <similarity-descriptor-smiles>
c1ccccc1;N1CCOCCC1;c1cccnc1;C(=O)NC1=CN=CN1;CN1ccC=N1;Fc1ccccc1;;;;;c1cccnc1;c1cccnc1;

>  <reaction-name>
s_22

>  <reagent1-name>
16643718

>  <reagent1-smiles>
[R1*]NC=1N2C(=NC1)CCOCC2

>  <reagent2-name>
137563

>  <reagent2-smiles>
[R1*]C(=O)c1c2c(nc(c3ccccc3)c1)N(N=C2)Cc4cc(F)ccc4

$$$$
m_273170____10759058____10761548____10766740
          04022017323D 1   1.00000     0.00000     0
            
 64 68  0  0  0  0            999 V2000
   -4.1955    1.5440    1.8086 O   0  5  0  0  0  0  0  0  0  0  0  0
   -3.8764    2.3974    2.6199 N   0  3  0  0  0  0  0  0  0  0  0  0
   -4.2416    3.5412    2.4702 O   0  0  0  0  0  0  0  0  0  0  0  0
   -3.0876    2.0532    3.7245 C   0  0  0  0  0  0  0  0  0  0  0  0
   -1.6994    2.1101    3.6581 C   0  0  0  0  0  0  0  0  0  0  0  0
   -0.9355    1.7655    4.7678 C   0  0  0  0  0  0  0  0  0  0  0  0
   -1.5594    1.3624    5.9435 C   0  0  0  0  0  0  0  0  0  0  0  0
   -2.9472    1.3053    6.0100 C   0  0  0  0  0  0  0  0  0  0  0  0
   -3.7114    1.6510    4.9004 C   0  0  0  0  0  0  0  0  0  0  0  0
   -1.0174    2.5499    2.3727 C   0  0  0  0  0  0  0  0  0  0  0  0
    0.1296    3.4105    2.6963 N   0  0  0  0  0  0  0  0  0  0  0  0
    1.4341    2.9089    2.5903 C   0  0  0  0  0  0  0  0  0  0  0  0
    2.5076    3.3689    3.1840 N   0  0  0  0  0  0  0  0  0  0  0  0
    3.5695    2.6646    2.8617 N   0  0  0  0  0  0  0  0  0  0  0  0
    3.1893    1.7162    2.0355 C   0  0  0  0  0  0  0  0  0  0  0  0
    1.8491    1.8491    1.8491 N   0  0  0  0  0  0  0  0  0  0  0  0
    1.0000    1.0000    1.0000 C   0  0  0  0  0  0  0  0  0  0  0  0
    1.3249    1.2596   -0.4620 C   0  0  0  0  0  0  0  0  0  0  0  0
    1.6044    0.2798   -1.4394 C   0  0  0  0  0  0  0  0  0  0  0  0
    1.8296    0.9267   -2.5582 N   0  0  0  0  0  0  0  0  0  0  0  0
    1.7148    2.2224   -2.3678 N   0  0  0  0  0  0  0  0  0  0  0  0
    1.4024    2.4753   -1.0675 C   0  0  0  0  0  0  0  0  0  0  0  0
    1.9003    3.2510   -3.4018 C   0  0  0  0  0  0  0  0  0  0  0  0
    0.9544    2.9809   -4.5606 C   0  0  0  0  0  0  0  0  0  0  0  0
    1.1335    3.9743   -5.5593 O   0  0  0  0  0  0  0  0  0  0  0  0
    0.2499    3.7220   -6.6418 C   0  0  0  0  0  0  0  0  0  0  0  0
    4.0477    0.7127    1.4348 C   0  0  0  0  0  0  0  0  0  0  0  0
    4.7253    1.0175    0.2593 C   0  0  0  0  0  0  0  0  0  0  0  0
    5.5477    0.0529   -0.3118 C   0  0  0  0  0  0  0  0  0  0  0  0
    5.6946   -1.2000    0.2764 C   0  0  0  0  0  0  0  0  0  0  0  0
    5.0113   -1.4922    1.4528 C   0  0  0  0  0  0  0  0  0  0  0  0
    4.1857   -0.5347    2.0342 C   0  0  0  0  0  0  0  0  0  0  0  0
    6.5228   -2.1570   -0.2985 C   0  0  0  0  0  0  0  0  0  0  0  0
    7.2049   -1.8546   -1.4728 C   0  0  0  0  0  0  0  0  0  0  0  0
    7.0559   -0.6034   -2.0608 C   0  0  0  0  0  0  0  0  0  0  0  0
    6.2294    0.3566   -1.4860 C   0  0  0  0  0  0  0  0  0  0  0  0
   -0.0916    4.7972    3.1309 C   0  0  0  0  0  0  0  0  0  0  0  0
    0.0625    1.8074    4.7203 H   0  0  0  0  0  0  0  0  0  0  0  0
   -1.0100    1.1136    6.7412 H   0  0  0  0  0  0  0  0  0  0  0  0
   -3.3958    1.0157    6.8555 H   0  0  0  0  0  0  0  0  0  0  0  0
   -4.7094    1.6102    4.9484 H   0  0  0  0  0  0  0  0  0  0  0  0
   -0.6993    1.7449    1.8719 H   0  0  0  0  0  0  0  0  0  0  0  0
   -1.6670    3.0586    1.8079 H   0  0  0  0  0  0  0  0  0  0  0  0
    0.0381    1.2137    1.1708 H   0  0  0  0  0  0  0  0  0  0  0  0
    1.1708    0.0381    1.2137 H   0  0  0  0  0  0  0  0  0  0  0  0
    1.6264   -0.7110   -1.3054 H   0  0  0  0  0  0  0  0  0  0  0  0
    1.2594    3.3701   -0.6445 H   0  0  0  0  0  0  0  0  0  0  0  0
    2.8446    3.2274   -3.7299 H   0  0  0  0  0  0  0  0  0  0  0  0
    1.7044    4.1520   -3.0147 H   0  0  0  0  0  0  0  0  0  0  0  0
    1.1503    2.0799   -4.9477 H   0  0  0  0  0  0  0  0  0  0  0  0
    0.0101    3.0045   -4.2325 H   0  0  0  0  0  0  0  0  0  0  0  0
    0.3760    4.4216   -7.3451 H   0  0  0  0  0  0  0  0  0  0  0  0
    0.4458    2.8210   -7.0290 H   0  0  0  0  0  0  0  0  0  0  0  0
   -0.6945    3.7456   -6.3138 H   0  0  0  0  0  0  0  0  0  0  0  0
    4.6228    1.9157   -0.1681 H   0  0  0  0  0  0  0  0  0  0  0  0
    5.1137   -2.3903    1.8806 H   0  0  0  0  0  0  0  0  0  0  0  0
    3.6935   -0.7428    2.8795 H   0  0  0  0  0  0  0  0  0  0  0  0
    6.6274   -3.0552    0.1283 H   0  0  0  0  0  0  0  0  0  0  0  0
    7.8022   -2.5371   -1.8940 H   0  0  0  0  0  0  0  0  0  0  0  0
    7.5478   -0.3916   -2.9053 H   0  0  0  0  0  0  0  0  0  0  0  0
    6.1263    1.2554   -1.9121 H   0  0  0  0  0  0  0  0  0  0  0  0
   -1.0731    4.9878    3.1509 H   0  0  0  0  0  0  0  0  0  0  0  0
    0.2914    4.9249    4.0458 H   0  0  0  0  0  0  0  0  0  0  0  0
    0.3564    5.4224    2.4918 H   0  0  0  0  0  0  0  0  0  0  0  0
  1  2  1  0  0  0  0
  2  3  2  0  0  0  0
  2  4  1  0  0  0  0
  4  5  1  0  0  0  0
  5  6  2  0  0  0  0
  6  7  1  0  0  0  0
  7  8  2  0  0  0  0
  8  9  1  0  0  0  0
  9  4  2  0  0  0  0
  5 10  1  0  0  0  0
 10 11  1  0  0  0  0
 11 12  1  0  0  0  0
 12 13  2  0  0  0  0
 13 14  1  0  0  0  0
 14 15  2  0  0  0  0
 15 16  1  0  0  0  0
 16 12  1  0  0  0  0
 16 17  1  0  0  0  0
 17 18  1  0  0  0  0
 18 19  1  0  0  0  0
 19 20  2  0  0  0  0
 20 21  1  0  0  0  0
 21 22  1  0  0  0  0
 18 22  2  0  0  0  0
 21 23  1  0  0  0  0
 23 24  1  0  0  0  0
 24 25  1  0  0  0  0
 25 26  1  0  0  0  0
 15 27  1  0  0  0  0
 27 28  1  0  0  0  0
 28 29  2  0  0  0  0
 29 30  1  0  0  0  0
 30 31  2  0  0  0  0
 31 32  1  0  0  0  0
 32 27  2  0  0  0  0
 30 33  1  0  0  0  0
 33 34  2  0  0  0  0
 34 35  1  0  0  0  0
 35 36  2  0  0  0  0
 36 29  1  0  0  0  0
 11 37  1  0  0  0  0
  6 38  1  0  0  0  0
  7 39  1  0  0  0  0
  8 40  1  0  0  0  0
  9 41  1  0  0  0  0
 10 42  1  0  0  0  0
 10 43  1  0  0  0  0
 17 44  1  0  0  0  0
 17 45  1  0  0  0  0
 19 46  1  0  0  0  0
 22 47  1  0  0  0  0
 23 48  1  0  0  0  0
 23 49  1  0  0  0  0
 24 50  1  0  0  0  0
 24 51  1  0  0  0  0
 26 52  1  0  0  0  0
 26 53  1  0  0  0  0
 26 54  1  0  0  0  0
 28 55  1  0  0  0  0
 31 56  1  0  0  0  0
 32 57  1  0  0  0  0
 33 58  1  0  0  0  0
 34 59  1  0  0  0  0
 35 60  1  0  0  0  0
 36 61  1  0  0  0  0
 37 62  1  0  0  0  0
 37 63  1  0  0  0  0
 37 64  1  0  0  0  0
M  CHG  2   1  -1   2   1
M  END
>  <result-rank>
26

>  <similarity>
0.878

>  <query-name>


>  <query-smiles>
S(=O)(=O)(NC(=O)C)c1ccc(cc1)C=2N3N=CC=C(N4CCOCC4)C3=NC2/C=C/c5nc6c(cc5)cccc6

>  <source>
REALspace_2019-12

>  <similarity-descriptor>
0.928;0.843;0.797;0.893;0.863;0.999;0.975;0.0;0.0;0.0;0.797;0.863;0.071

>  <similarity-descriptor-smiles>
c1ccccc1CN;CCOC;C=1NC=NN1;CC1=CNN=C1;c1ccccc1;c1ccccc1;[O-][N+]=O;;;;C=1NC=NN1;c1ccccc1;C

>  <reaction-name>
m_273170

>  <reagent1-name>
10759058

>  <reagent1-smiles>
[R2*]=C([R1*])N([R3*])CC=1C=NN(C1)CCOC

>  <reagent2-name>
10761548

>  <reagent2-smiles>
[R1*]N(Cc1c([N+]([O-])=O)cccc1)C

>  <reagent3-name>
10766740

>  <reagent3-smiles>
[R2*]=NN=C([R3*])c1cc2c(cc1)cccc2

$$$$
s_43____3014702____87561
          04022017323D 1   1.00000     0.00000     0
            
 42 45  0  0  0  0            999 V2000
    1.0000    1.0000    1.0000 S   0  0  0  0  0  0  0  0  0  0  0  0
   -0.2684    1.6482    0.7889 O   0  0  0  0  0  0  0  0  0  0  0  0
    0.7889   -0.2684    1.6482 O   0  0  0  0  0  0  0  0  0  0  0  0
    1.7337    0.7610   -0.4358 N   0  0  0  0  0  0  0  0  0  0  0  0
    0.8850   -0.0877   -1.2845 C   0  0  0  0  0  0  0  0  0  0  0  0
    2.0045    2.0045    2.0045 C   0  0  0  0  0  0  0  0  0  0  0  0
    1.8584    3.3870    1.9602 C   0  0  0  0  0  0  0  0  0  0  0  0
    2.6665    4.1805    2.7676 C   0  0  0  0  0  0  0  0  0  0  0  0
    3.6073    3.5898    3.6054 C   0  0  0  0  0  0  0  0  0  0  0  0
    3.7498    2.2066    3.6463 C   0  0  0  0  0  0  0  0  0  0  0  0
    2.9434    1.4091    2.8407 C   0  0  0  0  0  0  0  0  0  0  0  0
    4.4451    4.4296    4.4422 C   0  0  0  0  0  0  0  0  0  0  0  0
    5.6400    3.8786    5.5194 S   0  0  0  0  0  0  0  0  0  0  0  0
    6.1297    5.4128    6.0741 C   0  0  0  0  0  0  0  0  0  0  0  0
    5.3367    6.2821    5.3870 C   0  0  0  0  0  0  0  0  0  0  0  0
    4.4348    5.7419    4.5127 N   0  0  0  0  0  0  0  0  0  0  0  0
    5.4959    7.7017    5.6352 C   0  0  0  0  0  0  0  0  0  0  0  0
    6.4521    8.1255    6.5517 C   0  0  0  0  0  0  0  0  0  0  0  0
    6.6018    9.4878    6.7852 C   0  0  0  0  0  0  0  0  0  0  0  0
    5.8107   10.4184    6.1179 C   0  0  0  0  0  0  0  0  0  0  0  0
    4.8578    9.9812    5.2029 C   0  0  0  0  0  0  0  0  0  0  0  0
    4.6989    8.6203    4.9603 C   0  0  0  0  0  0  0  0  0  0  0  0
    5.9703   11.7790    6.3536 C   0  0  0  0  0  0  0  0  0  0  0  0
    6.9281   12.2070    7.2675 C   0  0  0  0  0  0  0  0  0  0  0  0
    7.7166   11.2765    7.9352 C   0  0  0  0  0  0  0  0  0  0  0  0
    7.5601    9.9145    7.6991 C   0  0  0  0  0  0  0  0  0  0  0  0
    2.6145    0.3109   -0.2892 H   0  0  0  0  0  0  0  0  0  0  0  0
    1.3351   -0.2343   -2.1654 H   0  0  0  0  0  0  0  0  0  0  0  0
    0.7384   -0.9685   -0.8344 H   0  0  0  0  0  0  0  0  0  0  0  0
    0.0041    0.3624   -1.4311 H   0  0  0  0  0  0  0  0  0  0  0  0
    1.1807    3.8052    1.3553 H   0  0  0  0  0  0  0  0  0  0  0  0
    2.5713    5.1758    2.7459 H   0  0  0  0  0  0  0  0  0  0  0  0
    4.4274    1.7882    4.2511 H   0  0  0  0  0  0  0  0  0  0  0  0
    3.0382    0.4138    2.8624 H   0  0  0  0  0  0  0  0  0  0  0  0
    6.8364    5.6263    6.7487 H   0  0  0  0  0  0  0  0  0  0  0  0
    7.0227    7.4613    7.0347 H   0  0  0  0  0  0  0  0  0  0  0  0
    4.2871   10.6452    4.7197 H   0  0  0  0  0  0  0  0  0  0  0  0
    4.0146    8.3039    4.3034 H   0  0  0  0  0  0  0  0  0  0  0  0
    5.4014   12.4445    5.8705 H   0  0  0  0  0  0  0  0  0  0  0  0
    7.0495   13.1837    7.4440 H   0  0  0  0  0  0  0  0  0  0  0  0
    8.4030   11.5895    8.5916 H   0  0  0  0  0  0  0  0  0  0  0  0
    8.1304    9.2492    8.1811 H   0  0  0  0  0  0  0  0  0  0  0  0
  1  2  2  0  0  0  0
  1  3  2  0  0  0  0
  1  4  1  0  0  0  0
  4  5  1  0  0  0  0
  1  6  1  0  0  0  0
  6  7  1  0  0  0  0
  7  8  2  0  0  0  0
  8  9  1  0  0  0  0
  9 10  2  0  0  0  0
 10 11  1  0  0  0  0
 11  6  2  0  0  0  0
  9 12  1  0  0  0  0
 12 13  1  0  0  0  0
 13 14  1  0  0  0  0
 14 15  2  0  0  0  0
 15 16  1  0  0  0  0
 12 16  2  0  0  0  0
 15 17  1  0  0  0  0
 17 18  1  0  0  0  0
 18 19  2  0  0  0  0
 19 20  1  0  0  0  0
 20 21  2  0  0  0  0
 21 22  1  0  0  0  0
 22 17  2  0  0  0  0
 20 23  1  0  0  0  0
 23 24  2  0  0  0  0
 24 25  1  0  0  0  0
 25 26  2  0  0  0  0
 26 19  1  0  0  0  0
  4 27  1  0  0  0  0
  5 28  1  0  0  0  0
  5 29  1  0  0  0  0
  5 30  1  0  0  0  0
  7 31  1  0  0  0  0
  8 32  1  0  0  0  0
 10 33  1  0  0  0  0
 11 34  1  0  0  0  0
 14 35  1  0  0  0  0
 18 36  1  0  0  0  0
 21 37  1  0  0  0  0
 22 38  1  0  0  0  0
 23 39  1  0  0  0  0
 24 40  1  0  0  0  0
 25 41  1  0  0  0  0
 26 42  1  0  0  0  0
M  END
>  <result-rank>
27

>  <similarity>
0.878

>  <query-name>


>  <query-smiles>
S(=O)(=O)(NC(=O)C)c1ccc(cc1)C=2N3N=CC=C(N4CCOCC4)C3=NC2/C=C/c5nc6c(cc5)cccc6

>  <source>
REALspace_2019-12

>  <similarity-descriptor>
1.000;0.0;0.932;0.0;0.863;0.999;1.000;0.733;0.733;0.733;0.932;0.863;0.0

>  <similarity-descriptor-smiles>
c1ccccc1;;C1=NC=CS1;;c1ccccc1;c1ccccc1;S(=O)=O;NC;NC;NC;C1=NC=CS1;c1ccccc1;

>  <reaction-name>
s_43

>  <reagent1-name>
3014702

>  <reagent1-smiles>
[R1*]SC(=N[R2*])c1ccc(S(=O)(=O)NC)cc1

>  <reagent2-name>
87561

>  <reagent2-smiles>
[R2*]C(c1cc2c(cc1)cccc2)=C[R1*]

$$$$
m_273170____10758966____10761548____10766638
          04022017323D 1   1.00000     0.00000     0
            
 63 68  0  0  0  0            999 V2000
    7.5041   -1.7831   -0.0114 S   0  0  0  0  0  0  0  0  0  0  0  0
    7.5554   -1.4753    1.6618 C   0  0  0  0  0  0  0  0  0  0  0  0
    6.5112   -0.7326    1.9312 N   0  0  0  0  0  0  0  0  0  0  0  0
    5.7075   -0.4292    0.8647 C   0  0  0  0  0  0  0  0  0  0  0  0
    4.5040    0.3775    0.9393 C   0  0  0  0  0  0  0  0  0  0  0  0
    4.4560    1.6855    1.0558 N   0  0  0  0  0  0  0  0  0  0  0  0
    3.1912    2.0415    1.0908 N   0  0  0  0  0  0  0  0  0  0  0  0
    2.4017    1.0000    1.0000 C   0  0  0  0  0  0  0  0  0  0  0  0
    3.2232   -0.0772    0.9021 N   0  0  0  0  0  0  0  0  0  0  0  0
    2.8010   -1.4805    0.7791 C   0  0  0  0  0  0  0  0  0  0  0  0
    3.1273   -2.2186    2.0569 C   0  0  0  0  0  0  0  0  0  0  0  0
    2.7829   -1.7615    3.2961 N   0  0  0  0  0  0  0  0  0  0  0  0
    3.1513   -2.5313    4.2962 C   0  0  0  0  0  0  0  0  0  0  0  0
    3.9586   -3.8666    3.6236 S   0  0  0  0  0  0  0  0  0  0  0  0
    3.7993   -3.3988    1.9915 C   0  0  0  0  0  0  0  0  0  0  0  0
    2.9535   -2.3313    5.7141 C   0  0  0  0  0  0  0  0  0  0  0  0
    1.9221   -1.7358    6.2764 O   0  0  0  0  0  0  0  0  0  0  0  0
    2.0568   -1.7107    7.5827 C   0  0  0  0  0  0  0  0  0  0  0  0
    3.2361   -2.3185    7.8939 C   0  0  0  0  0  0  0  0  0  0  0  0
    3.8310   -2.7281    6.6786 C   0  0  0  0  0  0  0  0  0  0  0  0
    1.0000    1.0000    1.0000 N   0  0  0  0  0  0  0  0  0  0  0  0
    0.2650   -0.2731    1.0004 C   0  0  0  0  0  0  0  0  0  0  0  0
   -1.0632   -0.0910    1.7170 C   0  0  0  0  0  0  0  0  0  0  0  0
   -2.2379    0.0354    0.9829 C   0  0  0  0  0  0  0  0  0  0  0  0
   -2.2201   -0.0012   -0.4169 N   0  3  0  0  0  0  0  0  0  0  0  0
   -2.7869    0.8690   -1.0570 O   0  5  0  0  0  0  0  0  0  0  0  0
   -1.6426   -0.8959   -0.9914 O   0  0  0  0  0  0  0  0  0  0  0  0
   -3.4529    0.2019    1.6384 C   0  0  0  0  0  0  0  0  0  0  0  0
   -3.4935    0.2417    3.0281 C   0  0  0  0  0  0  0  0  0  0  0  0
   -2.3191    0.1155    3.7619 C   0  0  0  0  0  0  0  0  0  0  0  0
   -1.1038   -0.0502    3.1063 C   0  0  0  0  0  0  0  0  0  0  0  0
    0.2650    2.2731    0.9996 C   0  0  0  0  0  0  0  0  0  0  0  0
    6.0747   -0.9203   -0.3473 C   0  0  0  0  0  0  0  0  0  0  0  0
    8.5317   -1.9256    2.5583 N   0  0  0  0  0  0  0  0  0  0  0  0
    9.6432   -2.7487    2.0562 C   0  0  0  0  0  0  0  0  0  0  0  0
   10.9164   -2.4848    2.8451 C   0  0  0  0  0  0  0  0  0  0  0  0
   10.6682   -2.4738    4.2451 O   0  0  0  0  0  0  0  0  0  0  0  0
    9.8150   -1.3923    4.5963 C   0  0  0  0  0  0  0  0  0  0  0  0
    8.4347   -1.5448    3.9756 C   0  0  0  0  0  0  0  0  0  0  0  0
    3.2837   -1.9080    0.0147 H   0  0  0  0  0  0  0  0  0  0  0  0
    1.8154   -1.5189    0.6143 H   0  0  0  0  0  0  0  0  0  0  0  0
    4.1240   -3.8798    1.1771 H   0  0  0  0  0  0  0  0  0  0  0  0
    1.4087   -1.3155    8.2337 H   0  0  0  0  0  0  0  0  0  0  0  0
    3.6110   -2.4504    8.8115 H   0  0  0  0  0  0  0  0  0  0  0  0
    4.7021   -3.2032    6.5542 H   0  0  0  0  0  0  0  0  0  0  0  0
    0.8054   -0.9698    1.4721 H   0  0  0  0  0  0  0  0  0  0  0  0
    0.0983   -0.5621    0.0577 H   0  0  0  0  0  0  0  0  0  0  0  0
   -4.2974    0.2929    1.1107 H   0  0  0  0  0  0  0  0  0  0  0  0
   -4.3672    0.3612    3.4996 H   0  0  0  0  0  0  0  0  0  0  0  0
   -2.3484    0.1439    4.7611 H   0  0  0  0  0  0  0  0  0  0  0  0
   -0.2592   -0.1400    3.6341 H   0  0  0  0  0  0  0  0  0  0  0  0
   -0.7182    2.0903    0.9996 H   0  0  0  0  0  0  0  0  0  0  0  0
    0.5066    2.7977    1.8159 H   0  0  0  0  0  0  0  0  0  0  0  0
    0.5066    2.7972    0.1829 H   0  0  0  0  0  0  0  0  0  0  0  0
    5.6151   -0.8031   -1.2277 H   0  0  0  0  0  0  0  0  0  0  0  0
    9.8034   -2.5297    1.0937 H   0  0  0  0  0  0  0  0  0  0  0  0
    9.3995   -3.7147    2.1421 H   0  0  0  0  0  0  0  0  0  0  0  0
   11.5815   -3.2024    2.6384 H   0  0  0  0  0  0  0  0  0  0  0  0
   11.2888   -1.5972    2.5739 H   0  0  0  0  0  0  0  0  0  0  0  0
   10.2236   -0.5384    4.2736 H   0  0  0  0  0  0  0  0  0  0  0  0
    9.7220   -1.3621    5.5915 H   0  0  0  0  0  0  0  0  0  0  0  0
    7.9304   -2.2525    4.4704 H   0  0  0  0  0  0  0  0  0  0  0  0
    7.9462   -0.6752    4.0476 H   0  0  0  0  0  0  0  0  0  0  0  0
  1  2  1  0  0  0  0
  2  3  2  0  0  0  0
  3  4  1  0  0  0  0
  4  5  1  0  0  0  0
  5  6  2  0  0  0  0
  6  7  1  0  0  0  0
  7  8  2  0  0  0  0
  8  9  1  0  0  0  0
  9  5  1  0  0  0  0
  9 10  1  0  0  0  0
 10 11  1  0  0  0  0
 11 12  1  0  0  0  0
 12 13  2  0  0  0  0
 13 14  1  0  0  0  0
 14 15  1  0  0  0  0
 11 15  2  0  0  0  0
 13 16  1  0  0  0  0
 16 17  1  0  0  0  0
 17 18  1  0  0  0  0
 18 19  2  0  0  0  0
 19 20  1  0  0  0  0
 16 20  2  0  0  0  0
  8 21  1  0  0  0  0
 21 22  1  0  0  0  0
 22 23  1  0  0  0  0
 23 24  1  0  0  0  0
 24 25  1  0  0  0  0
 25 26  1  0  0  0  0
 25 27  2  0  0  0  0
 24 28  2  0  0  0  0
 28 29  1  0  0  0  0
 29 30  2  0  0  0  0
 30 31  1  0  0  0  0
 31 23  2  0  0  0  0
 21 32  1  0  0  0  0
  4 33  2  0  0  0  0
 33  1  1  0  0  0  0
  2 34  1  0  0  0  0
 34 35  1  0  0  0  0
 35 36  1  0  0  0  0
 36 37  1  0  0  0  0
 37 38  1  0  0  0  0
 38 39  1  0  0  0  0
 39 34  1  0  0  0  0
 10 40  1  0  0  0  0
 10 41  1  0  0  0  0
 15 42  1  0  0  0  0
 18 43  1  0  0  0  0
 19 44  1  0  0  0  0
 20 45  1  0  0  0  0
 22 46  1  0  0  0  0
 22 47  1  0  0  0  0
 28 48  1  0  0  0  0
 29 49  1  0  0  0  0
 30 50  1  0  0  0  0
 31 51  1  0  0  0  0
 32 52  1  0  0  0  0
 32 53  1  0  0  0  0
 32 54  1  0  0  0  0
 33 55  1  0  0  0  0
 35 56  1  0  0  0  0
 35 57  1  0  0  0  0
 36 58  1  0  0  0  0
 36 59  1  0  0  0  0
 38 60  1  0  0  0  0
 38 61  1  0  0  0  0
 39 62  1  0  0  0  0
 39 63  1  0  0  0  0
M  CHG  2  25   1  26  -1
M  END
>  <result-rank>
28

>  <similarity>
0.878

>  <query-name>


>  <query-smiles>
S(=O)(=O)(NC(=O)C)c1ccc(cc1)C=2N3N=CC=C(N4CCOCC4)C3=NC2/C=C/c5nc6c(cc5)cccc6

>  <source>
REALspace_2019-12

>  <similarity-descriptor>
0.928;1.000;0.797;0.961;0.928;0.809;0.975;0.0;0.0;0.0;0.797;0.253;0.091

>  <similarity-descriptor-smiles>
NCc1ccccc1;N1CCOCC1;C=1NC=NN1;S1C=CN=C1;C1=CSC=N1;C1=CC=CO1;[N+]([O-])=O;;;;C=1NC=NN1;C;C

>  <reaction-name>
m_273170

>  <reagent1-name>
10758966

>  <reagent1-smiles>
[R2*]=C([R1*])N([R3*])CC=1N=C(SC1)C=2OC=CC2

>  <reagent2-name>
10761548

>  <reagent2-smiles>
[R1*]N(Cc1c([N+]([O-])=O)cccc1)C

>  <reagent3-name>
10766638

>  <reagent3-smiles>
[R2*]=NN=C([R3*])C=1N=C(SC1)N2CCOCC2

$$$$
s_2____2757072____14411970____6286554
          04022017323D 1   1.00000     0.00000     0
            
 69 74  0  0  0  0            999 V2000
   -0.7363    3.3686   -4.9788 S   0  0  0  0  0  0  0  0  0  0  0  0
    0.5227    3.4648   -5.6710 O   0  0  0  0  0  0  0  0  0  0  0  0
   -1.5146    2.2973   -5.5445 O   0  0  0  0  0  0  0  0  0  0  0  0
   -1.5503    4.7723   -5.1341 N   0  0  0  0  0  0  0  0  0  0  0  0
   -0.4483    3.0487   -3.2931 C   0  0  0  0  0  0  0  0  0  0  0  0
   -1.3789    2.3226   -2.5579 C   0  0  0  0  0  0  0  0  0  0  0  0
   -1.1509    2.0655   -1.2098 C   0  0  0  0  0  0  0  0  0  0  0  0
    0.0117    2.5423   -0.6138 C   0  0  0  0  0  0  0  0  0  0  0  0
    0.9419    3.2690   -1.3498 C   0  0  0  0  0  0  0  0  0  0  0  0
    0.7149    3.5258   -2.6974 C   0  0  0  0  0  0  0  0  0  0  0  0
    0.2650    2.2652    0.8588 C   0  0  0  0  0  0  0  0  0  0  0  0
    1.0000    1.0000    1.0000 N   0  0  0  0  0  0  0  0  0  0  0  0
    2.2727    1.0000    1.0000 C   0  0  0  0  0  0  0  0  0  0  0  0
    3.2932    2.3553    0.8488 S   0  0  0  0  0  0  0  0  0  0  0  0
    4.7811    1.5254    0.9352 C   0  0  0  0  0  0  0  0  0  0  0  0
    4.4252    0.2189    1.0786 C   0  0  0  0  0  0  0  0  0  0  0  0
    3.0922   -0.0787    1.1180 N   0  0  0  0  0  0  0  0  0  0  0  0
    2.5424   -1.4338    1.2651 C   0  0  0  0  0  0  0  0  0  0  0  0
    2.3539   -2.0560   -0.1089 C   0  0  0  0  0  0  0  0  0  0  0  0
    1.8039   -3.4115    0.0382 N   0  0  0  0  0  0  0  0  0  0  0  0
    0.5242   -3.7112    0.0698 N   0  0  0  0  0  0  0  0  0  0  0  0
    0.3623   -5.0054    0.2098 C   0  0  0  0  0  0  0  0  0  0  0  0
    1.6574   -5.5647    0.2698 C   0  0  0  0  0  0  0  0  0  0  0  0
    2.5495   -4.5439    0.1572 C   0  0  0  0  0  0  0  0  0  0  0  0
    1.9909   -7.0415    0.4286 C   0  0  3  0  0  0  0  0  0  0  0  0
    2.8027   -7.5946   -0.7291 C   0  0  0  0  0  0  0  0  0  0  0  0
    3.4152   -8.7552   -0.1945 O   0  0  0  0  0  0  0  0  0  0  0  0
    3.5194   -8.6205    1.2149 C   0  0  0  0  0  0  0  0  0  0  0  0
    2.9669   -7.2562    1.5664 C   0  0  0  0  0  0  0  0  0  0  0  0
    5.4824   -0.7690    1.1795 C   0  0  0  0  0  0  0  0  0  0  0  0
    5.8167   -1.7338    0.2050 C   0  0  0  0  0  0  0  0  0  0  0  0
    6.8230   -2.4173    0.6950 N   0  0  0  0  0  0  0  0  0  0  0  0
    7.1499   -1.9703    1.8849 N   0  0  0  0  0  0  0  0  0  0  0  0
    8.1805   -2.4778    2.6853 C   0  0  0  0  0  0  0  0  0  0  0  0
    8.9490   -3.5425    2.2254 C   0  0  0  0  0  0  0  0  0  0  0  0
    9.9722   -4.0438    3.0233 C   0  0  0  0  0  0  0  0  0  0  0  0
   10.2204   -3.4811    4.2707 C   0  0  0  0  0  0  0  0  0  0  0  0
    9.4461   -2.4167    4.7201 C   0  0  0  0  0  0  0  0  0  0  0  0
    8.4203   -1.9071    3.9310 C   0  0  0  0  0  0  0  0  0  0  0  0
    6.3325   -0.9360    2.2285 C   0  0  0  0  0  0  0  0  0  0  0  0
   -2.4246    4.7055   -4.6533 H   0  0  0  0  0  0  0  0  0  0  0  0
   -1.0098    5.5163   -4.7412 H   0  0  0  0  0  0  0  0  0  0  0  0
   -2.2113    1.9855   -2.9978 H   0  0  0  0  0  0  0  0  0  0  0  0
   -1.8156    1.5436   -0.6752 H   0  0  0  0  0  0  0  0  0  0  0  0
    1.7739    3.6068   -0.9097 H   0  0  0  0  0  0  0  0  0  0  0  0
    1.3799    4.0472   -3.2321 H   0  0  0  0  0  0  0  0  0  0  0  0
    0.8054    3.0101    1.2501 H   0  0  0  0  0  0  0  0  0  0  0  0
   -0.6088    2.1986    1.3406 H   0  0  0  0  0  0  0  0  0  0  0  0
    5.7030    1.9101    0.8908 H   0  0  0  0  0  0  0  0  0  0  0  0
    1.6601   -1.3866    1.7334 H   0  0  0  0  0  0  0  0  0  0  0  0
    3.1745   -1.9937    1.8006 H   0  0  0  0  0  0  0  0  0  0  0  0
    1.7217   -1.4961   -0.6445 H   0  0  0  0  0  0  0  0  0  0  0  0
    3.2362   -2.1032   -0.5773 H   0  0  0  0  0  0  0  0  0  0  0  0
   -0.5061   -5.4983    0.2633 H   0  0  0  0  0  0  0  0  0  0  0  0
    3.5472   -4.6115    0.1611 H   0  0  0  0  0  0  0  0  0  0  0  0
    1.1597   -7.5797    0.5680 H   0  0  0  0  0  0  0  0  0  0  0  0
    2.2095   -7.8285   -1.4995 H   0  0  0  0  0  0  0  0  0  0  0  0
    3.4919   -6.9344   -1.0275 H   0  0  0  0  0  0  0  0  0  0  0  0
    4.4764   -8.6874    1.4972 H   0  0  0  0  0  0  0  0  0  0  0  0
    2.9871   -9.3348    1.6692 H   0  0  0  0  0  0  0  0  0  0  0  0
    2.5030   -7.2644    2.4522 H   0  0  0  0  0  0  0  0  0  0  0  0
    3.6841   -6.5593    1.5721 H   0  0  0  0  0  0  0  0  0  0  0  0
    5.3746   -1.8690   -0.6817 H   0  0  0  0  0  0  0  0  0  0  0  0
    8.7671   -3.9443    1.3279 H   0  0  0  0  0  0  0  0  0  0  0  0
   10.5292   -4.8088    2.7000 H   0  0  0  0  0  0  0  0  0  0  0  0
   10.9556   -3.8419    4.8445 H   0  0  0  0  0  0  0  0  0  0  0  0
    9.6284   -2.0146    5.6173 H   0  0  0  0  0  0  0  0  0  0  0  0
    7.8635   -1.1420    4.2543 H   0  0  0  0  0  0  0  0  0  0  0  0
    6.3532   -0.4079    3.0774 H   0  0  0  0  0  0  0  0  0  0  0  0
  1  2  2  0  0  0  0
  1  3  2  0  0  0  0
  1  4  1  0  0  0  0
  1  5  1  0  0  0  0
  5  6  1  0  0  0  0
  6  7  2  0  0  0  0
  7  8  1  0  0  0  0
  8  9  2  0  0  0  0
  9 10  1  0  0  0  0
 10  5  2  0  0  0  0
  8 11  1  0  0  0  0
 11 12  1  0  0  0  0
 12 13  2  0  0  0  0
 13 14  1  0  0  0  0
 14 15  1  0  0  0  0
 15 16  2  0  0  0  0
 16 17  1  0  0  0  0
 17 13  1  0  0  0  0
 17 18  1  0  0  0  0
 18 19  1  0  0  0  0
 19 20  1  0  0  0  0
 20 21  1  0  0  0  0
 21 22  2  0  0  0  0
 22 23  1  0  0  0  0
 23 24  2  0  0  0  0
 24 20  1  0  0  0  0
 23 25  1  0  0  0  0
 25 26  1  0  0  0  0
 26 27  1  0  0  0  0
 27 28  1  0  0  0  0
 28 29  1  0  0  0  0
 29 25  1  0  0  0  0
 16 30  1  0  0  0  0
 30 31  1  0  0  0  0
 31 32  2  0  0  0  0
 32 33  1  0  0  0  0
 33 34  1  0  0  0  0
 34 35  1  0  0  0  0
 35 36  2  0  0  0  0
 36 37  1  0  0  0  0
 37 38  2  0  0  0  0
 38 39  1  0  0  0  0
 39 34  2  0  0  0  0
 33 40  1  0  0  0  0
 30 40  2  0  0  0  0
  4 41  1  0  0  0  0
  4 42  1  0  0  0  0
  6 43  1  0  0  0  0
  7 44  1  0  0  0  0
  9 45  1  0  0  0  0
 10 46  1  0  0  0  0
 11 47  1  0  0  0  0
 11 48  1  0  0  0  0
 15 49  1  0  0  0  0
 18 50  1  0  0  0  0
 18 51  1  0  0  0  0
 19 52  1  0  0  0  0
 19 53  1  0  0  0  0
 22 54  1  0  0  0  0
 24 55  1  0  0  0  0
 25 56  1  0  0  0  0
 26 57  1  0  0  0  0
 26 58  1  0  0  0  0
 28 59  1  0  0  0  0
 28 60  1  0  0  0  0
 29 61  1  0  0  0  0
 29 62  1  0  0  0  0
 31 63  1  0  0  0  0
 35 64  1  0  0  0  0
 36 65  1  0  0  0  0
 37 66  1  0  0  0  0
 38 67  1  0  0  0  0
 39 68  1  0  0  0  0
 40 69  1  0  0  0  0
M  END
>  <result-rank>
29

>  <similarity>
0.878

>  <query-name>


>  <query-smiles>
S(=O)(=O)(NC(=O)C)c1ccc(cc1)C=2N3N=CC=C(N4CCOCC4)C3=NC2/C=C/c5nc6c(cc5)cccc6

>  <source>
REALspace_2019-12

>  <similarity-descriptor>
0.936;0.976;0.822;0.829;0.816;0.941;1.000;0.588;0.0;0.0;0.816;0.816;0.0

>  <similarity-descriptor-smiles>
c1ccc(cc1)C;C1CCOC1;N=C1NC=CS1;CCN1C=CC=N1;C1=CNN=C1;c1ccccc1;S(=O)=O;N;;;C1=CNN=C1;C1=CNN=C1;

>  <reaction-name>
s_2

>  <reagent1-name>
2757072

>  <reagent1-smiles>
[R1*]SC([R3*])=NCc1ccc(S(=O)(=O)N)cc1

>  <reagent2-name>
14411970

>  <reagent2-smiles>
[R2*]N([R3*])CCN1N=CC(=C1)C2COCC2

>  <reagent3-name>
6286554

>  <reagent3-smiles>
[R2*]C(C=1C=NN(c2ccccc2)C1)=C[R1*]

$$$$
m_273170____10756572____10760044____10766638
          04022017323D 1   1.00000     0.00000     0
            
 71 76  0  0  0  0            999 V2000
    2.1943   -0.9256   -3.7011 S   0  0  0  0  0  0  0  0  0  0  0  0
    2.6920   -0.4330   -4.9594 O   0  0  0  0  0  0  0  0  0  0  0  0
    3.1773   -1.7904   -3.1015 O   0  0  0  0  0  0  0  0  0  0  0  0
    0.8167   -1.7603   -3.9511 N   0  0  0  0  0  0  0  0  0  0  0  0
    1.0859   -2.8927   -4.8488 C   0  0  0  0  0  0  0  0  0  0  0  0
    1.8756    0.4150   -2.6384 C   0  0  0  0  0  0  0  0  0  0  0  0
    1.5776    0.1786   -1.3001 C   0  0  0  0  0  0  0  0  0  0  0  0
    1.3249    1.2596   -0.4622 C   0  0  0  0  0  0  0  0  0  0  0  0
    1.3675    2.5635   -0.9443 C   0  0  0  0  0  0  0  0  0  0  0  0
    1.6674    2.7780   -2.2857 C   0  0  0  0  0  0  0  0  0  0  0  0
    1.9228    1.7111   -3.1410 C   0  0  0  0  0  0  0  0  0  0  0  0
    1.0000    1.0000    1.0000 C   0  0  0  0  0  0  0  0  0  0  0  0
    1.8491    1.8491    1.8491 N   0  0  0  0  0  0  0  0  0  0  0  0
    1.5116    3.0613    2.3604 C   0  0  0  0  0  0  0  0  0  0  0  0
    2.5527    3.4581    3.0497 N   0  0  0  0  0  0  0  0  0  0  0  0
    3.5217    2.5713    3.0027 N   0  0  0  0  0  0  0  0  0  0  0  0
    3.1118    1.5641    2.2651 C   0  0  0  0  0  0  0  0  0  0  0  0
    3.8675    0.3759    1.9566 C   0  0  0  0  0  0  0  0  0  0  0  0
    3.3230   -0.8075    1.5337 N   0  0  0  0  0  0  0  0  0  0  0  0
    4.1756   -1.7745    1.3041 C   0  0  0  0  0  0  0  0  0  0  0  0
    5.7181   -1.1440    1.6508 S   0  0  0  0  0  0  0  0  0  0  0  0
    5.2177    0.4217    2.0964 C   0  0  0  0  0  0  0  0  0  0  0  0
    3.8897   -3.0726    0.8701 N   0  0  0  0  0  0  0  0  0  0  0  0
    2.5970   -3.3451    0.2225 C   0  0  0  0  0  0  0  0  0  0  0  0
    2.7343   -4.4318   -0.8326 C   0  0  0  0  0  0  0  0  0  0  0  0
    3.4882   -5.5355   -0.3477 O   0  0  0  0  0  0  0  0  0  0  0  0
    4.8287   -5.1484   -0.0754 C   0  0  0  0  0  0  0  0  0  0  0  0
    4.8982   -4.1279    1.0504 C   0  0  0  0  0  0  0  0  0  0  0  0
    0.3027    3.7487    2.1850 N   0  0  0  0  0  0  0  0  0  0  0  0
   -0.9047    3.0187    1.7725 C   0  0  0  0  0  0  0  0  0  0  0  0
   -1.6513    2.5368    3.0053 C   0  0  0  0  0  0  0  0  0  0  0  0
   -2.7055    3.1869    3.4667 N   0  0  0  0  0  0  0  0  0  0  0  0
   -3.3846    2.7596    4.5784 C   0  0  0  0  0  0  0  0  0  0  0  0
   -2.9665    1.6147    5.2479 C   0  0  0  0  0  0  0  0  0  0  0  0
   -3.6651    1.1903    6.3766 C   0  0  0  0  0  0  0  0  0  0  0  0
   -4.7729    1.8783    6.8574 C   0  0  0  0  0  0  0  0  0  0  0  0
   -5.1852    3.0216    6.1836 C   0  0  0  0  0  0  0  0  0  0  0  0
   -4.4932    3.4518    5.0562 C   0  0  0  0  0  0  0  0  0  0  0  0
   -1.8315    0.9211    4.7436 C   0  0  0  0  0  0  0  0  0  0  0  0
   -1.3924   -0.0922    5.2661 O   0  0  0  0  0  0  0  0  0  0  0  0
   -1.1991    1.4034    3.6284 N   0  0  0  0  0  0  0  0  0  0  0  0
    0.2424    5.1995    2.4134 C   0  0  0  0  0  0  0  0  0  0  0  0
    0.1340   -1.1598   -4.3675 H   0  0  0  0  0  0  0  0  0  0  0  0
    0.2407   -3.4048   -5.0022 H   0  0  0  0  0  0  0  0  0  0  0  0
    1.4315   -2.5506   -5.7226 H   0  0  0  0  0  0  0  0  0  0  0  0
    1.7685   -3.4932   -4.4324 H   0  0  0  0  0  0  0  0  0  0  0  0
    1.5456   -0.7558   -0.9454 H   0  0  0  0  0  0  0  0  0  0  0  0
    1.1852    3.3356   -0.3356 H   0  0  0  0  0  0  0  0  0  0  0  0
    1.6998    3.7125   -2.6401 H   0  0  0  0  0  0  0  0  0  0  0  0
    2.1375    1.8737   -4.1041 H   0  0  0  0  0  0  0  0  0  0  0  0
    0.0381    1.2137    1.1708 H   0  0  0  0  0  0  0  0  0  0  0  0
    1.1708    0.0381    1.2137 H   0  0  0  0  0  0  0  0  0  0  0  0
    5.7836    1.1918    2.3911 H   0  0  0  0  0  0  0  0  0  0  0  0
    2.2658   -2.5074   -0.2119 H   0  0  0  0  0  0  0  0  0  0  0  0
    1.9405   -3.6432    0.9155 H   0  0  0  0  0  0  0  0  0  0  0  0
    1.8225   -4.7498   -1.0923 H   0  0  0  0  0  0  0  0  0  0  0  0
    3.1950   -4.0504   -1.6340 H   0  0  0  0  0  0  0  0  0  0  0  0
    5.2252   -4.7479   -0.9015 H   0  0  0  0  0  0  0  0  0  0  0  0
    5.3534   -5.9580    0.1874 H   0  0  0  0  0  0  0  0  0  0  0  0
    4.7346   -4.5908    1.9216 H   0  0  0  0  0  0  0  0  0  0  0  0
    5.8078   -3.7126    1.0593 H   0  0  0  0  0  0  0  0  0  0  0  0
   -0.6438    2.2325    1.2123 H   0  0  0  0  0  0  0  0  0  0  0  0
   -1.4957    3.6254    1.2408 H   0  0  0  0  0  0  0  0  0  0  0  0
   -3.3604    0.3665    6.8546 H   0  0  0  0  0  0  0  0  0  0  0  0
   -5.2616    1.5582    7.6690 H   0  0  0  0  0  0  0  0  0  0  0  0
   -5.9792    3.5350    6.5092 H   0  0  0  0  0  0  0  0  0  0  0  0
   -4.7988    4.2758    4.5790 H   0  0  0  0  0  0  0  0  0  0  0  0
   -0.4001    0.9239    3.2657 H   0  0  0  0  0  0  0  0  0  0  0  0
   -0.6879    5.5252    2.2444 H   0  0  0  0  0  0  0  0  0  0  0  0
    0.4986    5.3990    3.3593 H   0  0  0  0  0  0  0  0  0  0  0  0
    0.8753    5.6615    1.7921 H   0  0  0  0  0  0  0  0  0  0  0  0
  1  2  2  0  0  0  0
  1  3  2  0  0  0  0
  1  4  1  0  0  0  0
  4  5  1  0  0  0  0
  1  6  1  0  0  0  0
  6  7  1  0  0  0  0
  7  8  2  0  0  0  0
  8  9  1  0  0  0  0
  9 10  2  0  0  0  0
 10 11  1  0  0  0  0
 11  6  2  0  0  0  0
  8 12  1  0  0  0  0
 12 13  1  0  0  0  0
 13 14  1  0  0  0  0
 14 15  2  0  0  0  0
 15 16  1  0  0  0  0
 16 17  2  0  0  0  0
 17 13  1  0  0  0  0
 17 18  1  0  0  0  0
 18 19  1  0  0  0  0
 19 20  2  0  0  0  0
 20 21  1  0  0  0  0
 21 22  1  0  0  0  0
 18 22  2  0  0  0  0
 20 23  1  0  0  0  0
 23 24  1  0  0  0  0
 24 25  1  0  0  0  0
 25 26  1  0  0  0  0
 26 27  1  0  0  0  0
 27 28  1  0  0  0  0
 28 23  1  0  0  0  0
 14 29  1  0  0  0  0
 29 30  1  0  0  0  0
 30 31  1  0  0  0  0
 31 32  2  0  0  0  0
 32 33  1  0  0  0  0
 33 34  1  0  0  0  0
 34 35  2  0  0  0  0
 35 36  1  0  0  0  0
 36 37  2  0  0  0  0
 37 38  1  0  0  0  0
 38 33  2  0  0  0  0
 34 39  1  0  0  0  0
 39 40  2  0  0  0  0
 39 41  1  0  0  0  0
 41 31  1  0  0  0  0
 29 42  1  0  0  0  0
  4 43  1  0  0  0  0
  5 44  1  0  0  0  0
  5 45  1  0  0  0  0
  5 46  1  0  0  0  0
  7 47  1  0  0  0  0
  9 48  1  0  0  0  0
 10 49  1  0  0  0  0
 11 50  1  0  0  0  0
 12 51  1  0  0  0  0
 12 52  1  0  0  0  0
 22 53  1  0  0  0  0
 24 54  1  0  0  0  0
 24 55  1  0  0  0  0
 25 56  1  0  0  0  0
 25 57  1  0  0  0  0
 27 58  1  0  0  0  0
 27 59  1  0  0  0  0
 28 60  1  0  0  0  0
 28 61  1  0  0  0  0
 30 62  1  0  0  0  0
 30 63  1  0  0  0  0
 35 64  1  0  0  0  0
 36 65  1  0  0  0  0
 37 66  1  0  0  0  0
 38 67  1  0  0  0  0
 41 68  1  0  0  0  0
 42 69  1  0  0  0  0
 42 70  1  0  0  0  0
 42 71  1  0  0  0  0
M  END
>  <result-rank>
30

>  <similarity>
0.878

>  <query-name>


>  <query-smiles>
S(=O)(=O)(NC(=O)C)c1ccc(cc1)C=2N3N=CC=C(N4CCOCC4)C3=NC2/C=C/c5nc6c(cc5)cccc6

>  <source>
REALspace_2019-12

>  <similarity-descriptor>
0.936;1.000;0.797;0.961;0.778;0.999;1.000;0.733;0.733;0.733;0.797;0.226;0.077

>  <similarity-descriptor-smiles>
c1cccc(c1)C;N1CCOCC1;N1C=NN=C1;C1=CSC=N1;C=1NC(ccN1)=O;c1ccccc1;S(=O)=O;NC;NC;NC;N1C=NN=C1;NC;C

>  <reaction-name>
m_273170

>  <reagent1-name>
10756572

>  <reagent1-smiles>
[R2*]=C([R1*])N([R3*])Cc1cc(S(=O)(=O)NC)ccc1

>  <reagent2-name>
10760044

>  <reagent2-smiles>
[R1*]N(CC1=Nc2c(cccc2)C(=O)N1)C

>  <reagent3-name>
10766638

>  <reagent3-smiles>
[R2*]=NN=C([R3*])C=1N=C(SC1)N2CCOCC2

$$$$
m_273170____10756572____10765700____10766638
          04022017323D 1   1.00000     0.00000     0
            
 71 76  0  0  0  0            999 V2000
    4.4060    4.9375    1.3610 S   0  0  0  0  0  0  0  0  0  0  0  0
    5.7656    4.8288    1.8227 O   0  0  0  0  0  0  0  0  0  0  0  0
    4.3732    4.8000   -0.0720 O   0  0  0  0  0  0  0  0  0  0  0  0
    3.8043    6.3931    1.7810 N   0  0  0  0  0  0  0  0  0  0  0  0
    2.4164    6.5041    1.3097 C   0  0  0  0  0  0  0  0  0  0  0  0
    3.4447    3.6813    2.0865 C   0  0  0  0  0  0  0  0  0  0  0  0
    2.6407    2.8778    1.2843 C   0  0  0  0  0  0  0  0  0  0  0  0
    1.8777    1.8777    1.8777 C   0  0  0  0  0  0  0  0  0  0  0  0
    1.9106    1.6740    3.2531 C   0  0  0  0  0  0  0  0  0  0  0  0
    2.7213    2.4884    4.0371 C   0  0  0  0  0  0  0  0  0  0  0  0
    3.4920    3.4948    3.4641 C   0  0  0  0  0  0  0  0  0  0  0  0
    1.0000    1.0000    1.0000 C   0  0  0  0  0  0  0  0  0  0  0  0
    1.7941    0.4801   -0.1233 N   0  0  0  0  0  0  0  0  0  0  0  0
    1.6656    0.8377   -1.4273 C   0  0  0  0  0  0  0  0  0  0  0  0
    2.5624    0.1380   -2.0773 N   0  0  0  0  0  0  0  0  0  0  0  0
    3.2451   -0.6359   -1.2633 N   0  0  0  0  0  0  0  0  0  0  0  0
    2.7891   -0.4433   -0.0461 C   0  0  0  0  0  0  0  0  0  0  0  0
    3.2646   -1.0993    1.1574 C   0  0  0  0  0  0  0  0  0  0  0  0
    4.4502   -0.8186    1.7828 N   0  0  0  0  0  0  0  0  0  0  0  0
    4.7038   -1.5197    2.8593 C   0  0  0  0  0  0  0  0  0  0  0  0
    3.3835   -2.5737    3.0654 S   0  0  0  0  0  0  0  0  0  0  0  0
    2.4868   -2.0665    1.7092 C   0  0  0  0  0  0  0  0  0  0  0  0
    5.8344   -1.4362    3.6806 N   0  0  0  0  0  0  0  0  0  0  0  0
    5.9406   -2.3242    4.8489 C   0  0  0  0  0  0  0  0  0  0  0  0
    7.3902   -2.6955    5.1213 C   0  0  0  0  0  0  0  0  0  0  0  0
    8.2386   -1.5559    5.0648 O   0  0  0  0  0  0  0  0  0  0  0  0
    8.2632   -1.0116    3.7517 C   0  0  0  0  0  0  0  0  0  0  0  0
    6.8986   -0.4794    3.3414 C   0  0  0  0  0  0  0  0  0  0  0  0
    0.7602    1.7597   -1.9677 N   0  0  0  0  0  0  0  0  0  0  0  0
   -0.5697    1.3211   -2.4234 C   0  0  0  0  0  0  0  0  0  0  0  0
   -0.6331    1.1390   -3.9338 C   0  0  0  0  0  0  0  0  0  0  0  0
    0.0387    1.9670   -4.8402 C   0  0  0  0  0  0  0  0  0  0  0  0
    0.8308    3.0024   -4.4724 O   0  0  0  0  0  0  0  0  0  0  0  0
    0.5799    3.7996   -3.3209 C   0  0  3  0  0  0  0  0  0  0  0  0
    1.1723    3.1680   -2.0721 C   0  0  0  0  0  0  0  0  0  0  0  0
    1.1770    5.1890   -3.4733 C   0  0  0  0  0  0  0  0  0  0  0  0
   -0.0898    1.7361   -6.2056 C   0  0  0  0  0  0  0  0  0  0  0  0
   -0.8724    0.6808   -6.6632 C   0  0  0  0  0  0  0  0  0  0  0  0
   -1.5264   -0.1441   -5.7547 C   0  0  0  0  0  0  0  0  0  0  0  0
   -1.4092    0.0783   -4.3866 C   0  0  0  0  0  0  0  0  0  0  0  0
    4.3567    7.1150    1.3641 H   0  0  0  0  0  0  0  0  0  0  0  0
    2.0473    7.3971    1.5674 H   0  0  0  0  0  0  0  0  0  0  0  0
    2.3936    6.4086    0.3145 H   0  0  0  0  0  0  0  0  0  0  0  0
    1.8640    5.7822    1.7266 H   0  0  0  0  0  0  0  0  0  0  0  0
    2.6118    3.0174    0.2945 H   0  0  0  0  0  0  0  0  0  0  0  0
    1.3596    0.9525    3.6724 H   0  0  0  0  0  0  0  0  0  0  0  0
    2.7504    2.3485    5.0269 H   0  0  0  0  0  0  0  0  0  0  0  0
    4.0720    4.0761    4.0347 H   0  0  0  0  0  0  0  0  0  0  0  0
    0.6465    0.2362    1.5400 H   0  0  0  0  0  0  0  0  0  0  0  0
    0.2362    1.5400    0.6465 H   0  0  0  0  0  0  0  0  0  0  0  0
    1.5988   -2.4013    1.3940 H   0  0  0  0  0  0  0  0  0  0  0  0
    5.4167   -3.1580    4.6747 H   0  0  0  0  0  0  0  0  0  0  0  0
    5.5667   -1.8568    5.6500 H   0  0  0  0  0  0  0  0  0  0  0  0
    7.4555   -3.1046    6.0314 H   0  0  0  0  0  0  0  0  0  0  0  0
    7.6903   -3.3585    4.4354 H   0  0  0  0  0  0  0  0  0  0  0  0
    8.5396   -1.7263    3.1092 H   0  0  0  0  0  0  0  0  0  0  0  0
    8.9257   -0.2631    3.7229 H   0  0  0  0  0  0  0  0  0  0  0  0
    6.7272    0.3827    3.8184 H   0  0  0  0  0  0  0  0  0  0  0  0
    6.8930   -0.3209    2.3541 H   0  0  0  0  0  0  0  0  0  0  0  0
   -1.2445    2.0082   -2.1540 H   0  0  0  0  0  0  0  0  0  0  0  0
   -0.7883    0.4493   -1.9851 H   0  0  0  0  0  0  0  0  0  0  0  0
   -0.4089    3.8863   -3.1992 H   0  0  0  0  0  0  0  0  0  0  0  0
    2.1700    3.2172   -2.1191 H   0  0  0  0  0  0  0  0  0  0  0  0
    0.8516    3.6662   -1.2666 H   0  0  0  0  0  0  0  0  0  0  0  0
    0.9859    5.7259   -2.6516 H   0  0  0  0  0  0  0  0  0  0  0  0
    2.1661    5.1146   -3.6003 H   0  0  0  0  0  0  0  0  0  0  0  0
    0.7719    5.6405   -4.2682 H   0  0  0  0  0  0  0  0  0  0  0  0
    0.3807    2.3292   -6.8590 H   0  0  0  0  0  0  0  0  0  0  0  0
   -0.9645    0.5155   -7.6452 H   0  0  0  0  0  0  0  0  0  0  0  0
   -2.0856   -0.9034   -6.0876 H   0  0  0  0  0  0  0  0  0  0  0  0
   -1.8783   -0.5185   -3.7356 H   0  0  0  0  0  0  0  0  0  0  0  0
  1  2  2  0  0  0  0
  1  3  2  0  0  0  0
  1  4  1  0  0  0  0
  4  5  1  0  0  0  0
  1  6  1  0  0  0  0
  6  7  1  0  0  0  0
  7  8  2  0  0  0  0
  8  9  1  0  0  0  0
  9 10  2  0  0  0  0
 10 11  1  0  0  0  0
 11  6  2  0  0  0  0
  8 12  1  0  0  0  0
 12 13  1  0  0  0  0
 13 14  1  0  0  0  0
 14 15  2  0  0  0  0
 15 16  1  0  0  0  0
 16 17  2  0  0  0  0
 17 13  1  0  0  0  0
 17 18  1  0  0  0  0
 18 19  1  0  0  0  0
 19 20  2  0  0  0  0
 20 21  1  0  0  0  0
 21 22  1  0  0  0  0
 18 22  2  0  0  0  0
 20 23  1  0  0  0  0
 23 24  1  0  0  0  0
 24 25  1  0  0  0  0
 25 26  1  0  0  0  0
 26 27  1  0  0  0  0
 27 28  1  0  0  0  0
 28 23  1  0  0  0  0
 14 29  1  0  0  0  0
 29 30  1  0  0  0  0
 30 31  1  0  0  0  0
 31 32  1  0  0  0  0
 32 33  1  0  0  0  0
 33 34  1  0  0  0  0
 34 35  1  0  0  0  0
 35 29  1  0  0  0  0
 34 36  1  0  0  0  0
 32 37  2  0  0  0  0
 37 38  1  0  0  0  0
 38 39  2  0  0  0  0
 39 40  1  0  0  0  0
 40 31  2  0  0  0  0
  4 41  1  0  0  0  0
  5 42  1  0  0  0  0
  5 43  1  0  0  0  0
  5 44  1  0  0  0  0
  7 45  1  0  0  0  0
  9 46  1  0  0  0  0
 10 47  1  0  0  0  0
 11 48  1  0  0  0  0
 12 49  1  0  0  0  0
 12 50  1  0  0  0  0
 22 51  1  0  0  0  0
 24 52  1  0  0  0  0
 24 53  1  0  0  0  0
 25 54  1  0  0  0  0
 25 55  1  0  0  0  0
 27 56  1  0  0  0  0
 27 57  1  0  0  0  0
 28 58  1  0  0  0  0
 28 59  1  0  0  0  0
 30 60  1  0  0  0  0
 30 61  1  0  0  0  0
 34 62  1  0  0  0  0
 35 63  1  0  0  0  0
 35 64  1  0  0  0  0
 36 65  1  0  0  0  0
 36 66  1  0  0  0  0
 36 67  1  0  0  0  0
 37 68  1  0  0  0  0
 38 69  1  0  0  0  0
 39 70  1  0  0  0  0
 40 71  1  0  0  0  0
M  END
>  <result-rank>
31

>  <similarity>
0.877

>  <query-name>


>  <query-smiles>
S(=O)(=O)(NC(=O)C)c1ccc(cc1)C=2N3N=CC=C(N4CCOCC4)C3=NC2/C=C/c5nc6c(cc5)cccc6

>  <source>
REALspace_2019-12

>  <similarity-descriptor>
0.936;1.000;0.797;0.961;0.621;0.999;1.000;0.733;0.733;0.733;0.797;0.621;0.091

>  <similarity-descriptor-smiles>
c1cccc(c1)C;N1CCOCC1;N1C=NN=C1;C1=CSC=N1;N1CCOccC1;c1ccccc1;S(=O)=O;NC;NC;NC;N1C=NN=C1;N1CCOccC1;C

>  <reaction-name>
m_273170

>  <reagent1-name>
10756572

>  <reagent1-smiles>
[R2*]=C([R1*])N([R3*])Cc1cc(S(=O)(=O)NC)ccc1

>  <reagent2-name>
10765700

>  <reagent2-smiles>
[R1*]N1Cc2c(OC(C1)C)cccc2

>  <reagent3-name>
10766638

>  <reagent3-smiles>
[R2*]=NN=C([R3*])C=1N=C(SC1)N2CCOCC2

$$$$
m_273170____10759042____10761984____10766740
          04022017323D 1   1.00000     0.00000     0
            
 77 82  0  0  0  0            999 V2000
    9.6641    3.9414    6.2867 O   0  0  0  0  0  0  0  0  0  0  0  0
    8.8409    4.9069    5.9462 C   0  0  0  0  0  0  0  0  0  0  0  0
    8.7706    5.8194    6.9531 C   0  0  0  0  0  0  0  0  0  0  0  0
    9.6398    5.3255    7.9533 C   0  0  0  0  0  0  0  0  0  0  0  0
   10.1652    4.1597    7.4831 C   0  0  0  0  0  0  0  0  0  0  0  0
    8.0665    5.0077    4.6381 C   0  0  0  0  0  0  0  0  0  0  0  0
    7.3710    3.7384    4.3813 N   0  0  0  0  0  0  0  0  0  0  0  0
    6.4255    3.2593    5.2985 C   0  0  0  0  0  0  0  0  0  0  0  0
    6.6471    2.4735    6.3231 N   0  0  0  0  0  0  0  0  0  0  0  0
    5.5353    2.2146    6.9746 N   0  0  0  0  0  0  0  0  0  0  0  0
    4.5552    2.8442    6.3666 C   0  0  0  0  0  0  0  0  0  0  0  0
    5.0905    3.5091    5.3082 N   0  0  0  0  0  0  0  0  0  0  0  0
    4.3589    4.3481    4.3471 C   0  0  0  0  0  0  0  0  0  0  0  0
    3.4808    3.4687    3.4713 C   0  0  0  0  0  0  0  0  0  0  0  0
    2.1383    3.7935    3.3040 C   0  0  0  0  0  0  0  0  0  0  0  0
    1.3307    2.9935    2.5029 C   0  0  0  0  0  0  0  0  0  0  0  0
    1.8776    1.8776    1.8776 C   0  0  0  0  0  0  0  0  0  0  0  0
    3.2191    1.5516    2.0450 C   0  0  0  0  0  0  0  0  0  0  0  0
    4.0265    2.3510    2.8474 C   0  0  0  0  0  0  0  0  0  0  0  0
    1.0000    1.0000    1.0000 C   0  0  0  0  0  0  0  0  0  0  0  0
    1.6402    0.7899   -0.2500 O   0  0  0  0  0  0  0  0  0  0  0  0
    0.8204   -0.0299   -1.0698 C   0  0  0  0  0  0  0  0  0  0  0  0
    1.5057   -0.2548   -2.4078 C   0  0  0  0  0  0  0  0  0  0  0  0
    0.6858   -1.0746   -3.2276 O   0  0  0  0  0  0  0  0  0  0  0  0
    1.3260   -1.2847   -4.4776 C   0  0  0  0  0  0  0  0  0  0  0  0
    3.1591    2.8293    6.7577 C   0  0  0  0  0  0  0  0  0  0  0  0
    2.5347    4.0282    7.0839 C   0  0  0  0  0  0  0  0  0  0  0  0
    1.1956    4.0087    7.4571 C   0  0  0  0  0  0  0  0  0  0  0  0
    0.4851    2.8130    7.5072 C   0  0  0  0  0  0  0  0  0  0  0  0
    1.1216    1.6202    7.1779 C   0  0  0  0  0  0  0  0  0  0  0  0
    2.4614    1.6269    6.8024 C   0  0  0  0  0  0  0  0  0  0  0  0
   -0.8549    2.8030    7.8766 C   0  0  0  0  0  0  0  0  0  0  0  0
   -1.4839    4.0009    8.2005 C   0  0  0  0  0  0  0  0  0  0  0  0
   -0.7728    5.1948    8.1522 C   0  0  0  0  0  0  0  0  0  0  0  0
    0.5678    5.2074    7.7806 C   0  0  0  0  0  0  0  0  0  0  0  0
    7.6671    2.9715    3.1627 C   0  0  0  0  0  0  0  0  0  0  0  0
    7.3477    3.8207    1.9378 C   0  0  3  0  0  0  0  0  0  0  0  0
    8.4487    4.5964    1.4921 O   0  0  0  0  0  0  0  0  0  0  0  0
    8.1690    4.9623    0.1538 C   0  0  0  0  0  0  0  0  0  0  0  0
    7.2752    3.8823   -0.4222 C   0  0  0  0  0  0  0  0  0  0  0  0
    7.1627    2.9126    0.7355 C   0  0  0  0  0  0  0  0  0  0  0  0
    8.2239    6.6563    6.9799 H   0  0  0  0  0  0  0  0  0  0  0  0
    9.8322    5.7510    8.8376 H   0  0  0  0  0  0  0  0  0  0  0  0
   10.8173    3.5730    7.9633 H   0  0  0  0  0  0  0  0  0  0  0  0
    7.3968    5.7475    4.7033 H   0  0  0  0  0  0  0  0  0  0  0  0
    8.7010    5.1976    3.8889 H   0  0  0  0  0  0  0  0  0  0  0  0
    5.0111    4.8440    3.7738 H   0  0  0  0  0  0  0  0  0  0  0  0
    3.7869    5.0014    4.8430 H   0  0  0  0  0  0  0  0  0  0  0  0
    1.7559    4.5985    3.7577 H   0  0  0  0  0  0  0  0  0  0  0  0
    0.3645    3.2186    2.3773 H   0  0  0  0  0  0  0  0  0  0  0  0
    3.6013    0.7467    1.5909 H   0  0  0  0  0  0  0  0  0  0  0  0
    4.9920    2.1241    2.9750 H   0  0  0  0  0  0  0  0  0  0  0  0
    0.8521    0.1197    1.4508 H   0  0  0  0  0  0  0  0  0  0  0  0
    0.1197    1.4508    0.8521 H   0  0  0  0  0  0  0  0  0  0  0  0
   -0.0599    0.4209   -1.2177 H   0  0  0  0  0  0  0  0  0  0  0  0
    0.6724   -0.9102   -0.6190 H   0  0  0  0  0  0  0  0  0  0  0  0
    1.6536    0.6255   -2.8586 H   0  0  0  0  0  0  0  0  0  0  0  0
    2.3859   -0.7056   -2.2598 H   0  0  0  0  0  0  0  0  0  0  0  0
    0.7487   -1.8621   -5.0549 H   0  0  0  0  0  0  0  0  0  0  0  0
    1.4740   -0.4045   -4.9284 H   0  0  0  0  0  0  0  0  0  0  0  0
    2.2063   -1.7356   -4.3296 H   0  0  0  0  0  0  0  0  0  0  0  0
    3.0406    4.8902    7.0505 H   0  0  0  0  0  0  0  0  0  0  0  0
    0.6160    0.7580    7.2111 H   0  0  0  0  0  0  0  0  0  0  0  0
    2.9208    0.7708    6.5656 H   0  0  0  0  0  0  0  0  0  0  0  0
   -1.3625    1.9420    7.9092 H   0  0  0  0  0  0  0  0  0  0  0  0
   -2.4475    4.0033    8.4681 H   0  0  0  0  0  0  0  0  0  0  0  0
   -1.2295    6.0529    8.3868 H   0  0  0  0  0  0  0  0  0  0  0  0
    1.0746    6.0687    7.7463 H   0  0  0  0  0  0  0  0  0  0  0  0
    7.1095    2.1415    3.1475 H   0  0  0  0  0  0  0  0  0  0  0  0
    8.6356    2.7226    3.1525 H   0  0  0  0  0  0  0  0  0  0  0  0
    6.5401    4.3902    2.0908 H   0  0  0  0  0  0  0  0  0  0  0  0
    9.0183    5.0214   -0.3709 H   0  0  0  0  0  0  0  0  0  0  0  0
    7.7002    5.8453    0.1298 H   0  0  0  0  0  0  0  0  0  0  0  0
    7.6966    3.4491   -1.2189 H   0  0  0  0  0  0  0  0  0  0  0  0
    6.3804    4.2492   -0.6766 H   0  0  0  0  0  0  0  0  0  0  0  0
    6.2663    2.4696    0.7509 H   0  0  0  0  0  0  0  0  0  0  0  0
    7.8784    2.2155    0.6947 H   0  0  0  0  0  0  0  0  0  0  0  0
  1  2  1  0  0  0  0
  2  3  2  0  0  0  0
  3  4  1  0  0  0  0
  4  5  2  0  0  0  0
  5  1  1  0  0  0  0
  2  6  1  0  0  0  0
  6  7  1  0  0  0  0
  7  8  1  0  0  0  0
  8  9  2  0  0  0  0
  9 10  1  0  0  0  0
 10 11  2  0  0  0  0
 11 12  1  0  0  0  0
 12  8  1  0  0  0  0
 12 13  1  0  0  0  0
 13 14  1  0  0  0  0
 14 15  1  0  0  0  0
 15 16  2  0  0  0  0
 16 17  1  0  0  0  0
 17 18  2  0  0  0  0
 18 19  1  0  0  0  0
 19 14  2  0  0  0  0
 17 20  1  0  0  0  0
 20 21  1  0  0  0  0
 21 22  1  0  0  0  0
 22 23  1  0  0  0  0
 23 24  1  0  0  0  0
 24 25  1  0  0  0  0
 11 26  1  0  0  0  0
 26 27  1  0  0  0  0
 27 28  2  0  0  0  0
 28 29  1  0  0  0  0
 29 30  2  0  0  0  0
 30 31  1  0  0  0  0
 31 26  2  0  0  0  0
 29 32  1  0  0  0  0
 32 33  2  0  0  0  0
 33 34  1  0  0  0  0
 34 35  2  0  0  0  0
 35 28  1  0  0  0  0
  7 36  1  0  0  0  0
 36 37  1  0  0  0  0
 37 38  1  0  0  0  0
 38 39  1  0  0  0  0
 39 40  1  0  0  0  0
 40 41  1  0  0  0  0
 41 37  1  0  0  0  0
  3 42  1  0  0  0  0
  4 43  1  0  0  0  0
  5 44  1  0  0  0  0
  6 45  1  0  0  0  0
  6 46  1  0  0  0  0
 13 47  1  0  0  0  0
 13 48  1  0  0  0  0
 15 49  1  0  0  0  0
 16 50  1  0  0  0  0
 18 51  1  0  0  0  0
 19 52  1  0  0  0  0
 20 53  1  0  0  0  0
 20 54  1  0  0  0  0
 22 55  1  0  0  0  0
 22 56  1  0  0  0  0
 23 57  1  0  0  0  0
 23 58  1  0  0  0  0
 25 59  1  0  0  0  0
 25 60  1  0  0  0  0
 25 61  1  0  0  0  0
 27 62  1  0  0  0  0
 30 63  1  0  0  0  0
 31 64  1  0  0  0  0
 32 65  1  0  0  0  0
 33 66  1  0  0  0  0
 34 67  1  0  0  0  0
 35 68  1  0  0  0  0
 36 69  1  0  0  0  0
 36 70  1  0  0  0  0
 37 71  1  0  0  0  0
 39 72  1  0  0  0  0
 39 73  1  0  0  0  0
 40 74  1  0  0  0  0
 40 75  1  0  0  0  0
 41 76  1  0  0  0  0
 41 77  1  0  0  0  0
M  END
>  <result-rank>
32

>  <similarity>
0.877

>  <query-name>


>  <query-smiles>
S(=O)(=O)(NC(=O)C)c1ccc(cc1)C=2N3N=CC=C(N4CCOCC4)C3=NC2/C=C/c5nc6c(cc5)cccc6

>  <source>
REALspace_2019-12

>  <similarity-descriptor>
0.882;0.956;0.797;0.876;0.863;0.999;0.722;0.737;0.737;0.994;0.797;0.863;0.0

>  <similarity-descriptor-smiles>
Cc1ccc(cc1)C;CC1CCCO1;C=1NC=NN1;O1C=CC=C1CN;c1ccccc1;c1ccccc1;OC;CO;CO;C;C=1NC=NN1;c1ccccc1;

>  <reaction-name>
m_273170

>  <reagent1-name>
10759042

>  <reagent1-smiles>
[R2*]=C([R1*])N([R3*])Cc1ccc(cc1)COCCOC

>  <reagent2-name>
10761984

>  <reagent2-smiles>
[R1*]N(CC=1OC=CC1)CC2OCCC2

>  <reagent3-name>
10766740

>  <reagent3-smiles>
[R2*]=NN=C([R3*])c1cc2c(cc1)cccc2

$$$$
m_274972____15150082____12615770____14260852
          04022017323D 1   1.00000     0.00000     0
            
 43 47  0  0  0  0            999 V2000
    5.4654   -1.9798    2.3750 S   0  0  0  0  0  0  0  0  0  0  0  0
    3.8153   -2.3902    2.3889 C   0  0  0  0  0  0  0  0  0  0  0  0
    3.1362   -1.2653    2.4190 N   0  0  0  0  0  0  0  0  0  0  0  0
    3.8973   -0.1294    2.4325 C   0  0  0  0  0  0  0  0  0  0  0  0
    3.3679    1.2133    2.4745 C   0  0  0  0  0  0  0  0  0  0  0  0
    4.0997    2.3609    2.4928 N   0  0  0  0  0  0  0  0  0  0  0  0
    3.2864    3.3264    2.5304 N   0  0  0  0  0  0  0  0  0  0  0  0
    2.0449    2.9079    2.5406 N   0  0  0  0  0  0  0  0  0  0  0  0
    2.0495    1.5504    2.5067 C   0  0  0  0  0  0  0  0  0  0  0  0
    0.8509    3.7641    2.5836 C   0  0  0  0  0  0  0  0  0  0  0  0
    0.4156    4.0964    1.1686 C   0  0  3  0  0  0  0  0  0  0  0  0
    0.1007    2.9306    0.4280 O   0  0  0  0  0  0  0  0  0  0  0  0
   -1.2840    2.9674    0.1245 C   0  0  0  0  0  0  0  0  0  0  0  0
   -1.5608    4.4454   -0.0179 C   0  0  0  0  0  0  0  0  0  0  0  0
   -2.8668    4.7096   -0.0106 F   0  0  0  0  0  0  0  0  0  0  0  0
   -1.0307    4.9668   -1.1242 F   0  0  0  0  0  0  0  0  0  0  0  0
   -0.8707    4.8786    1.2607 C   0  0  0  0  0  0  0  0  0  0  0  0
    5.2502   -0.2906    2.4139 C   0  0  0  0  0  0  0  0  0  0  0  0
    3.2779   -3.7384    2.3657 C   0  0  0  0  0  0  0  0  0  0  0  0
    1.9561   -3.9778    2.3789 N   0  0  0  0  0  0  0  0  0  0  0  0
    1.4493   -5.2218    2.3575 C   0  0  0  0  0  0  0  0  0  0  0  0
    2.3041   -6.3204    2.3201 C   0  0  0  0  0  0  0  0  0  0  0  0
    3.6776   -6.1009    2.3056 C   0  0  0  0  0  0  0  0  0  0  0  0
    4.1748   -4.8015    2.3289 C   0  0  0  0  0  0  0  0  0  0  0  0
    1.8108   -7.6207    2.2969 C   0  0  0  0  0  0  0  0  0  0  0  0
    0.4342   -7.8192    2.3121 C   0  0  0  0  0  0  0  0  0  0  0  0
   -0.4412   -6.7390    2.3492 C   0  0  0  0  0  0  0  0  0  0  0  0
    0.0765   -5.4480    2.3718 C   0  0  0  0  0  0  0  0  0  0  0  0
    1.2607    0.9357    2.5056 H   0  0  0  0  0  0  0  0  0  0  0  0
    1.0641    4.6092    3.0739 H   0  0  0  0  0  0  0  0  0  0  0  0
    0.1121    3.2825    3.0551 H   0  0  0  0  0  0  0  0  0  0  0  0
    1.1194    4.6309    0.7006 H   0  0  0  0  0  0  0  0  0  0  0  0
   -1.8252    2.5701    0.8656 H   0  0  0  0  0  0  0  0  0  0  0  0
   -1.4783    2.4815   -0.7276 H   0  0  0  0  0  0  0  0  0  0  0  0
   -1.4001    4.6221    2.0694 H   0  0  0  0  0  0  0  0  0  0  0  0
   -0.7019    5.8642    1.2717 H   0  0  0  0  0  0  0  0  0  0  0  0
    5.9544    0.4193    2.4213 H   0  0  0  0  0  0  0  0  0  0  0  0
    4.3077   -6.8769    2.2786 H   0  0  0  0  0  0  0  0  0  0  0  0
    5.1607   -4.6344    2.3192 H   0  0  0  0  0  0  0  0  0  0  0  0
    2.4361   -8.4006    2.2696 H   0  0  0  0  0  0  0  0  0  0  0  0
    0.0694   -8.7501    2.2962 H   0  0  0  0  0  0  0  0  0  0  0  0
   -1.4299   -6.8885    2.3596 H   0  0  0  0  0  0  0  0  0  0  0  0
   -0.5493   -4.6685    2.3987 H   0  0  0  0  0  0  0  0  0  0  0  0
  1  2  1  0  0  0  0
  2  3  2  0  0  0  0
  3  4  1  0  0  0  0
  4  5  1  0  0  0  0
  5  6  1  0  0  0  0
  6  7  2  0  0  0  0
  7  8  1  0  0  0  0
  8  9  1  0  0  0  0
  5  9  2  0  0  0  0
  8 10  1  0  0  0  0
 10 11  1  0  0  0  0
 11 12  1  0  0  0  0
 12 13  1  0  0  0  0
 13 14  1  0  0  0  0
 14 15  1  0  0  0  0
 14 16  1  0  0  0  0
 14 17  1  0  0  0  0
 17 11  1  0  0  0  0
  4 18  2  0  0  0  0
 18  1  1  0  0  0  0
  2 19  1  0  0  0  0
 19 20  1  0  0  0  0
 20 21  2  0  0  0  0
 21 22  1  0  0  0  0
 22 23  2  0  0  0  0
 23 24  1  0  0  0  0
 24 19  2  0  0  0  0
 22 25  1  0  0  0  0
 25 26  2  0  0  0  0
 26 27  1  0  0  0  0
 27 28  2  0  0  0  0
 28 21  1  0  0  0  0
  9 29  1  0  0  0  0
 10 30  1  0  0  0  0
 10 31  1  0  0  0  0
 11 32  1  0  0  0  0
 13 33  1  0  0  0  0
 13 34  1  0  0  0  0
 17 35  1  0  0  0  0
 17 36  1  0  0  0  0
 18 37  1  0  0  0  0
 23 38  1  0  0  0  0
 24 39  1  0  0  0  0
 25 40  1  0  0  0  0
 26 41  1  0  0  0  0
 27 42  1  0  0  0  0
 28 43  1  0  0  0  0
M  END
>  <result-rank>
33

>  <similarity>
0.877

>  <query-name>


>  <query-smiles>
S(=O)(=O)(NC(=O)C)c1ccc(cc1)C=2N3N=CC=C(N4CCOCC4)C3=NC2/C=C/c5nc6c(cc5)cccc6

>  <source>
REALspace_2019-12

>  <similarity-descriptor>
0.0;0.981;0.918;0.782;1.000;1.000;0.0;0.0;0.0;0.0;0.918;0.918;0.0

>  <similarity-descriptor-smiles>
;CC1CC(CO1)(F)F;S1C=CN=C1;C1=CNN=N1;c1ccccn1;c1ccccc1;;;;;S1C=CN=C1;S1C=CN=C1;

>  <reaction-name>
m_274972

>  <reagent1-name>
15150082

>  <reagent1-smiles>
[R1*]SC(=N[R2*])c1nc2c(cc1)cccc2

>  <reagent2-name>
12615770

>  <reagent2-smiles>
[R2*]C(C([R3*])=C[R4*])=C[R1*]

>  <reagent3-name>
14260852

>  <reagent3-smiles>
[R3*]N=NN([R4*])CC1OCC(F)(F)C1

$$$$
m_273170____14419994____10761548____10755784
          04022017323D 1   1.00000     0.00000     0
            
 60 65  0  0  0  0            999 V2000
   -0.1091    0.8727    4.6614 O   0  5  0  0  0  0  0  0  0  0  0  0
   -0.2562    0.0089    3.8124 N   0  3  0  0  0  0  0  0  0  0  0  0
    0.5278   -0.9100    3.7421 O   0  0  0  0  0  0  0  0  0  0  0  0
   -1.3324    0.0810    2.9194 C   0  0  0  0  0  0  0  0  0  0  0  0
   -1.1350   -0.0496    1.5488 C   0  0  0  0  0  0  0  0  0  0  0  0
   -2.2185    0.0234    0.6802 C   0  0  0  0  0  0  0  0  0  0  0  0
   -3.4993    0.2286    1.1818 C   0  0  0  0  0  0  0  0  0  0  0  0
   -3.6967    0.3594    2.5520 C   0  0  0  0  0  0  0  0  0  0  0  0
   -2.6132    0.2853    3.4210 C   0  0  0  0  0  0  0  0  0  0  0  0
    0.2650   -0.2731    1.0004 C   0  0  0  0  0  0  0  0  0  0  0  0
    1.0000    1.0000    1.0000 N   0  0  0  0  0  0  0  0  0  0  0  0
    2.4017    1.0000    1.0000 C   0  0  0  0  0  0  0  0  0  0  0  0
    3.1912    1.9825    1.3572 N   0  0  0  0  0  0  0  0  0  0  0  0
    4.4560    1.6477    1.2313 N   0  0  0  0  0  0  0  0  0  0  0  0
    4.5040    0.4144    0.7803 C   0  0  0  0  0  0  0  0  0  0  0  0
    3.2232   -0.0152    0.6266 N   0  0  0  0  0  0  0  0  0  0  0  0
    2.8010   -1.3388    0.1446 C   0  0  0  0  0  0  0  0  0  0  0  0
    2.5317   -1.2716   -1.3492 C   0  0  0  0  0  0  0  0  0  0  0  0
    1.3383   -0.9742   -1.9356 N   0  0  0  0  0  0  0  0  0  0  0  0
    1.5044   -1.0189   -3.1871 N   0  0  0  0  0  0  0  0  0  0  0  0
    2.7415   -1.3289   -3.4876 N   0  0  0  0  0  0  0  0  0  0  0  0
    3.4397   -1.5008   -2.3344 C   0  0  0  0  0  0  0  0  0  0  0  0
    3.2829   -1.4693   -4.8441 C   0  0  0  0  0  0  0  0  0  0  0  0
    4.4245   -0.5168   -5.1552 C   0  0  0  0  0  0  0  0  0  0  0  0
    5.0537   -1.6111   -5.8132 O   0  0  0  0  0  0  0  0  0  0  0  0
    4.3472   -2.5360   -4.9847 C   0  0  0  0  0  0  0  0  0  0  0  0
    5.7075   -0.3455    0.4994 C   0  0  0  0  0  0  0  0  0  0  0  0
    6.1142   -0.5986   -0.7562 N   0  0  0  0  0  0  0  0  0  0  0  0
    7.2273   -1.3013   -1.0282 C   0  0  0  0  0  0  0  0  0  0  0  0
    8.0076   -1.7986    0.0115 C   0  0  0  0  0  0  0  0  0  0  0  0
    7.6103   -1.5524    1.3214 C   0  0  0  0  0  0  0  0  0  0  0  0
    6.4537   -0.8216    1.5720 C   0  0  0  0  0  0  0  0  0  0  0  0
    9.1674   -2.5290   -0.2249 C   0  0  0  0  0  0  0  0  0  0  0  0
    9.5586   -2.7701   -1.5380 C   0  0  0  0  0  0  0  0  0  0  0  0
    8.7929   -2.2826   -2.5921 C   0  0  0  0  0  0  0  0  0  0  0  0
    7.6366   -1.5538   -2.3332 C   0  0  0  0  0  0  0  0  0  0  0  0
    0.2650    2.2731    0.9996 C   0  0  0  0  0  0  0  0  0  0  0  0
   -2.0767   -0.0715   -0.3051 H   0  0  0  0  0  0  0  0  0  0  0  0
   -4.2783    0.2822    0.5570 H   0  0  0  0  0  0  0  0  0  0  0  0
   -4.6177    0.5067    2.9127 H   0  0  0  0  0  0  0  0  0  0  0  0
   -2.7553    0.3790    4.4064 H   0  0  0  0  0  0  0  0  0  0  0  0
    0.7461   -0.9355    1.5746 H   0  0  0  0  0  0  0  0  0  0  0  0
    0.2049   -0.6236    0.0658 H   0  0  0  0  0  0  0  0  0  0  0  0
    1.9672   -1.6169    0.6215 H   0  0  0  0  0  0  0  0  0  0  0  0
    3.5250   -2.0051    0.3232 H   0  0  0  0  0  0  0  0  0  0  0  0
    4.4049   -1.7418   -2.2333 H   0  0  0  0  0  0  0  0  0  0  0  0
    2.5816   -1.5037   -5.5561 H   0  0  0  0  0  0  0  0  0  0  0  0
    4.1817    0.2480   -5.7519 H   0  0  0  0  0  0  0  0  0  0  0  0
    4.9133   -0.1722   -4.3537 H   0  0  0  0  0  0  0  0  0  0  0  0
    4.8136   -2.7776   -4.1338 H   0  0  0  0  0  0  0  0  0  0  0  0
    4.0467   -3.3695   -5.4484 H   0  0  0  0  0  0  0  0  0  0  0  0
    8.1563   -1.9008    2.0833 H   0  0  0  0  0  0  0  0  0  0  0  0
    6.1624   -0.6408    2.5114 H   0  0  0  0  0  0  0  0  0  0  0  0
    9.7125   -2.8759    0.5384 H   0  0  0  0  0  0  0  0  0  0  0  0
   10.3900   -3.2937   -1.7240 H   0  0  0  0  0  0  0  0  0  0  0  0
    9.0737   -2.4560   -3.5360 H   0  0  0  0  0  0  0  0  0  0  0  0
    7.0918   -1.2065   -3.0964 H   0  0  0  0  0  0  0  0  0  0  0  0
   -0.7182    2.0903    0.9996 H   0  0  0  0  0  0  0  0  0  0  0  0
    0.5066    2.7977    1.8159 H   0  0  0  0  0  0  0  0  0  0  0  0
    0.5066    2.7972    0.1829 H   0  0  0  0  0  0  0  0  0  0  0  0
  1  2  1  0  0  0  0
  2  3  2  0  0  0  0
  2  4  1  0  0  0  0
  4  5  1  0  0  0  0
  5  6  2  0  0  0  0
  6  7  1  0  0  0  0
  7  8  2  0  0  0  0
  8  9  1  0  0  0  0
  9  4  2  0  0  0  0
  5 10  1  0  0  0  0
 10 11  1  0  0  0  0
 11 12  1  0  0  0  0
 12 13  2  0  0  0  0
 13 14  1  0  0  0  0
 14 15  2  0  0  0  0
 15 16  1  0  0  0  0
 16 12  1  0  0  0  0
 16 17  1  0  0  0  0
 17 18  1  0  0  0  0
 18 19  1  0  0  0  0
 19 20  2  0  0  0  0
 20 21  1  0  0  0  0
 21 22  1  0  0  0  0
 18 22  2  0  0  0  0
 21 23  1  0  0  0  0
 23 24  1  0  0  0  0
 24 25  1  0  0  0  0
 25 26  1  0  0  0  0
 26 23  1  0  0  0  0
 15 27  1  0  0  0  0
 27 28  1  0  0  0  0
 28 29  2  0  0  0  0
 29 30  1  0  0  0  0
 30 31  2  0  0  0  0
 31 32  1  0  0  0  0
 32 27  2  0  0  0  0
 30 33  1  0  0  0  0
 33 34  2  0  0  0  0
 34 35  1  0  0  0  0
 35 36  2  0  0  0  0
 36 29  1  0  0  0  0
 11 37  1  0  0  0  0
  6 38  1  0  0  0  0
  7 39  1  0  0  0  0
  8 40  1  0  0  0  0
  9 41  1  0  0  0  0
 10 42  1  0  0  0  0
 10 43  1  0  0  0  0
 17 44  1  0  0  0  0
 17 45  1  0  0  0  0
 22 46  1  0  0  0  0
 23 47  1  0  0  0  0
 24 48  1  0  0  0  0
 24 49  1  0  0  0  0
 26 50  1  0  0  0  0
 26 51  1  0  0  0  0
 31 52  1  0  0  0  0
 32 53  1  0  0  0  0
 33 54  1  0  0  0  0
 34 55  1  0  0  0  0
 35 56  1  0  0  0  0
 36 57  1  0  0  0  0
 37 58  1  0  0  0  0
 37 59  1  0  0  0  0
 37 60  1  0  0  0  0
M  CHG  2   1  -1   2   1
M  END
>  <result-rank>
34

>  <similarity>
0.877

>  <query-name>


>  <query-smiles>
S(=O)(=O)(NC(=O)C)c1ccc(cc1)C=2N3N=CC=C(N4CCOCC4)C3=NC2/C=C/c5nc6c(cc5)cccc6

>  <source>
REALspace_2019-12

>  <similarity-descriptor>
0.928;0.900;0.797;0.758;0.935;1.000;0.975;0.0;0.0;0.0;0.797;0.935;0.091

>  <similarity-descriptor-smiles>
c1ccccc1CN;C1COC1;C=1NC=NN1;CC1=CNN=N1;c1ccccn1;c1ccccc1;[O-][N+]=O;;;;C=1NC=NN1;c1ccccn1;C

>  <reaction-name>
m_273170

>  <reagent1-name>
14419994

>  <reagent1-smiles>
[R2*]=C([R1*])N([R3*])CC=1N=NN(C1)C2COC2

>  <reagent2-name>
10761548

>  <reagent2-smiles>
[R1*]N(Cc1c([N+]([O-])=O)cccc1)C

>  <reagent3-name>
10755784

>  <reagent3-smiles>
[R2*]=NN=C([R3*])c1nc2c(cc1)cccc2

$$$$
s_2____11687950____16506322____86635
          04022017323D 1   1.00000     0.00000     0
            
 59 64  0  0  0  0            999 V2000
    8.7035    4.6112   -1.7892 S   0  0  0  0  0  0  0  0  0  0  0  0
    8.4310    6.0251   -1.8034 O   0  0  0  0  0  0  0  0  0  0  0  0
   10.1044    4.3949   -1.5351 O   0  0  0  0  0  0  0  0  0  0  0  0
    8.3074    3.9669   -3.2332 N   0  0  0  0  0  0  0  0  0  0  0  0
    7.7633    3.8519   -0.5379 C   0  0  0  0  0  0  0  0  0  0  0  0
    8.0337    4.1380    0.7961 C   0  0  0  0  0  0  0  0  0  0  0  0
    7.2790    3.5274    1.7920 C   0  0  0  0  0  0  0  0  0  0  0  0
    6.2650    2.6409    1.4454 C   0  0  0  0  0  0  0  0  0  0  0  0
    5.5094    2.0301    2.4537 N   0  0  0  0  0  0  0  0  0  0  0  0
    4.2406    2.1295    2.4468 C   0  0  0  0  0  0  0  0  0  0  0  0
    3.3299    3.5681    2.4036 S   0  0  0  0  0  0  0  0  0  0  0  0
    1.7813    2.8529    2.4247 C   0  0  0  0  0  0  0  0  0  0  0  0
    2.0334    1.5154    2.4653 C   0  0  0  0  0  0  0  0  0  0  0  0
    3.3388    1.1121    2.4746 N   0  0  0  0  0  0  0  0  0  0  0  0
    3.7804   -0.2891    2.5193 C   0  0  0  0  0  0  0  0  0  0  0  0
    3.8082   -0.7669    3.9655 C   0  0  0  0  0  0  0  0  0  0  0  0
    4.1627   -2.0042    4.4166 C   0  0  0  0  0  0  0  0  0  0  0  0
    4.0261   -1.9736    5.7717 N   0  0  0  0  0  0  0  0  0  0  0  0
    3.5811   -0.7806    6.1329 N   0  0  0  0  0  0  0  0  0  0  0  0
    3.4302    0.0001    5.0905 C   0  0  0  0  0  0  0  0  0  0  0  0
    4.3482   -3.1730    6.5705 C   0  0  0  0  0  0  0  0  0  0  0  0
    4.0795   -4.4875    5.8461 C   0  0  0  0  0  0  0  0  0  0  0  0
    4.5988   -4.4704    4.4735 N   0  0  0  0  0  0  0  0  0  0  0  0
    4.5780   -3.2460    3.7833 C   0  0  0  0  0  0  0  0  0  0  0  0
    4.8915   -3.2843    2.6194 O   0  0  0  0  0  0  0  0  0  0  0  0
    5.0984   -5.7114    3.8508 C   0  0  0  0  0  0  0  0  0  0  0  0
    0.9034    0.6099    2.4960 C   0  0  0  0  0  0  0  0  0  0  0  0
    0.8189   -0.5252    1.8447 O   0  0  0  0  0  0  0  0  0  0  0  0
   -0.3343   -1.1158    2.0823 C   0  0  0  0  0  0  0  0  0  0  0  0
   -1.0555   -0.3244    2.9449 C   0  0  0  0  0  0  0  0  0  0  0  0
   -2.3226   -0.7293    3.3524 C   0  0  0  0  0  0  0  0  0  0  0  0
   -2.8758   -1.9231    2.8999 C   0  0  0  0  0  0  0  0  0  0  0  0
   -2.1469   -2.7238    2.0262 C   0  0  0  0  0  0  0  0  0  0  0  0
   -0.8807   -2.3110    1.6242 C   0  0  0  0  0  0  0  0  0  0  0  0
   -0.2405    0.7982    3.2100 C   0  0  0  0  0  0  0  0  0  0  0  0
    6.0000    2.3590    0.1099 C   0  0  0  0  0  0  0  0  0  0  0  0
    6.7510    2.9659   -0.8909 C   0  0  0  0  0  0  0  0  0  0  0  0
    8.4967    2.9851   -3.2233 H   0  0  0  0  0  0  0  0  0  0  0  0
    7.3347    4.1171   -3.4096 H   0  0  0  0  0  0  0  0  0  0  0  0
    8.7642    4.7770    1.0370 H   0  0  0  0  0  0  0  0  0  0  0  0
    7.4649    3.7253    2.7544 H   0  0  0  0  0  0  0  0  0  0  0  0
    0.8925    3.3109    2.4105 H   0  0  0  0  0  0  0  0  0  0  0  0
    4.6971   -0.3624    2.1263 H   0  0  0  0  0  0  0  0  0  0  0  0
    3.1460   -0.8555    1.9932 H   0  0  0  0  0  0  0  0  0  0  0  0
    3.1116    0.9480    5.0913 H   0  0  0  0  0  0  0  0  0  0  0  0
    3.7958   -3.1540    7.4039 H   0  0  0  0  0  0  0  0  0  0  0  0
    5.3179   -3.1392    6.8125 H   0  0  0  0  0  0  0  0  0  0  0  0
    4.5205   -5.2304    6.3497 H   0  0  0  0  0  0  0  0  0  0  0  0
    3.0924   -4.6447    5.8166 H   0  0  0  0  0  0  0  0  0  0  0  0
    5.0280   -6.4644    4.5051 H   0  0  0  0  0  0  0  0  0  0  0  0
    4.5511   -5.9215    3.0407 H   0  0  0  0  0  0  0  0  0  0  0  0
    6.0545   -5.5893    3.5846 H   0  0  0  0  0  0  0  0  0  0  0  0
   -2.8445   -0.1527    3.9811 H   0  0  0  0  0  0  0  0  0  0  0  0
   -3.7879   -2.2027    3.1995 H   0  0  0  0  0  0  0  0  0  0  0  0
   -2.5285   -3.5853    1.6914 H   0  0  0  0  0  0  0  0  0  0  0  0
   -0.3541   -2.8829    0.9952 H   0  0  0  0  0  0  0  0  0  0  0  0
   -0.4593    1.5739    3.8020 H   0  0  0  0  0  0  0  0  0  0  0  0
    5.2694    1.7200   -0.1309 H   0  0  0  0  0  0  0  0  0  0  0  0
    6.5653    2.7676   -1.8533 H   0  0  0  0  0  0  0  0  0  0  0  0
  1  2  2  0  0  0  0
  1  3  2  0  0  0  0
  1  4  1  0  0  0  0
  1  5  1  0  0  0  0
  5  6  1  0  0  0  0
  6  7  2  0  0  0  0
  7  8  1  0  0  0  0
  8  9  1  0  0  0  0
  9 10  2  0  0  0  0
 10 11  1  0  0  0  0
 11 12  1  0  0  0  0
 12 13  2  0  0  0  0
 13 14  1  0  0  0  0
 14 10  1  0  0  0  0
 14 15  1  0  0  0  0
 15 16  1  0  0  0  0
 16 17  2  0  0  0  0
 17 18  1  0  0  0  0
 18 19  1  0  0  0  0
 19 20  2  0  0  0  0
 20 16  1  0  0  0  0
 18 21  1  0  0  0  0
 21 22  1  0  0  0  0
 22 23  1  0  0  0  0
 23 24  1  0  0  0  0
 24 17  1  0  0  0  0
 24 25  2  0  0  0  0
 23 26  1  0  0  0  0
 13 27  1  0  0  0  0
 27 28  1  0  0  0  0
 28 29  1  0  0  0  0
 29 30  1  0  0  0  0
 30 31  2  0  0  0  0
 31 32  1  0  0  0  0
 32 33  2  0  0  0  0
 33 34  1  0  0  0  0
 34 29  2  0  0  0  0
 30 35  1  0  0  0  0
 27 35  2  0  0  0  0
  8 36  2  0  0  0  0
 36 37  1  0  0  0  0
 37  5  2  0  0  0  0
  4 38  1  0  0  0  0
  4 39  1  0  0  0  0
  6 40  1  0  0  0  0
  7 41  1  0  0  0  0
 12 42  1  0  0  0  0
 15 43  1  0  0  0  0
 15 44  1  0  0  0  0
 20 45  1  0  0  0  0
 21 46  1  0  0  0  0
 21 47  1  0  0  0  0
 22 48  1  0  0  0  0
 22 49  1  0  0  0  0
 26 50  1  0  0  0  0
 26 51  1  0  0  0  0
 26 52  1  0  0  0  0
 31 53  1  0  0  0  0
 32 54  1  0  0  0  0
 33 55  1  0  0  0  0
 34 56  1  0  0  0  0
 35 57  1  0  0  0  0
 36 58  1  0  0  0  0
 37 59  1  0  0  0  0
M  END
>  <result-rank>
35

>  <similarity>
0.877

>  <query-name>


>  <query-smiles>
S(=O)(=O)(NC(=O)C)c1ccc(cc1)C=2N3N=CC=C(N4CCOCC4)C3=NC2/C=C/c5nc6c(cc5)cccc6

>  <source>
REALspace_2019-12

>  <similarity-descriptor>
0.998;0.839;0.822;0.889;0.772;0.999;1.000;0.588;0.0;0.0;0.772;0.772;0.0

>  <similarity-descriptor-smiles>
c1ccccc1;C1C(N(CCN1)C)=O;N=C1NC=CS1;CC=1C=NNC1;C1=CccO1;c1ccccc1;S(=O)=O;N;;;C1=CccO1;C1=CccO1;

>  <reaction-name>
s_2

>  <reagent1-name>
11687950

>  <reagent1-smiles>
[R1*]SC([R3*])=Nc1ccc(S(=O)(=O)N)cc1

>  <reagent2-name>
16506322

>  <reagent2-smiles>
[R2*]N([R3*])CC1=C2N(N=C1)CCN(C2=O)C

>  <reagent3-name>
86635

>  <reagent3-smiles>
[R2*]C(C=1Oc2c(cccc2)C1)=C[R1*]

$$$$
s_22____9105540____135464
          04022017323D 1   1.00000     0.00000     0
            
 58 62  0  0  0  0            999 V2000
    4.9514   -5.2455    1.5652 F   0  0  0  0  0  0  0  0  0  0  0  0
    4.3258   -4.1508    1.9885 C   0  0  0  0  0  0  0  0  0  0  0  0
    4.5514   -3.9862    3.2888 F   0  0  0  0  0  0  0  0  0  0  0  0
    4.8126   -3.0224    1.2771 O   0  0  0  0  0  0  0  0  0  0  0  0
    4.1440   -1.8524    1.7295 C   0  0  3  0  0  0  0  0  0  0  0  0
    4.6283   -0.6171    1.0000 C   0  0  0  0  0  0  0  0  0  0  0  0
    3.2209   -0.2141    1.0000 N   0  0  0  0  0  0  0  0  0  0  0  0
    2.5200    1.0000    1.0000 C   0  0  0  0  0  0  0  0  0  0  0  0
    3.1200    2.0392    1.0000 O   0  0  0  0  0  0  0  0  0  0  0  0
    1.0000    1.0000    1.0000 C   0  0  0  0  0  0  0  0  0  0  0  0
    0.3500    2.1258    1.0000 C   0  0  0  0  0  0  0  0  0  0  0  0
   -1.1013    2.1258    1.0000 C   0  0  0  0  0  0  0  0  0  0  0  0
   -1.9357    3.2646    1.0000 C   0  0  0  0  0  0  0  0  0  0  0  0
   -3.1675    2.8055    1.0035 N   0  0  0  0  0  0  0  0  0  0  0  0
   -3.1893    1.4941    0.9985 N   0  0  0  0  0  0  0  0  0  0  0  0
   -4.3398    0.6962    0.9986 C   0  0  0  0  0  0  0  0  0  0  0  0
   -5.5946    1.2970    1.0043 C   0  0  0  0  0  0  0  0  0  0  0  0
   -6.7353    0.5010    1.0041 C   0  0  0  0  0  0  0  0  0  0  0  0
   -6.6163   -0.8846    0.9985 C   0  0  0  0  0  0  0  0  0  0  0  0
   -5.3566   -1.4745    0.9922 C   0  0  0  0  0  0  0  0  0  0  0  0
   -4.2090   -0.6886    0.9925 C   0  0  0  0  0  0  0  0  0  0  0  0
   -1.9089    1.0304    1.0018 C   0  0  0  0  0  0  0  0  0  0  0  0
   -1.5237    4.6548    0.9976 C   0  0  0  0  0  0  0  0  0  0  0  0
   -0.4380    5.0492    1.7726 C   0  0  0  0  0  0  0  0  0  0  0  0
   -0.0393    6.3819    1.7722 C   0  0  0  0  0  0  0  0  0  0  0  0
   -0.7333    7.3037    0.9948 C   0  0  0  0  0  0  0  0  0  0  0  0
   -0.3194    8.6937    0.9921 C   0  0  0  0  0  0  0  0  0  0  0  0
   -1.0116    9.6173    0.2157 C   0  0  0  0  0  0  0  0  0  0  0  0
   -0.6107   10.9494    0.2153 C   0  0  0  0  0  0  0  0  0  0  0  0
    0.4741   11.3494    0.9885 C   0  0  0  0  0  0  0  0  0  0  0  0
    1.1578   10.4182    1.7605 C   0  0  0  0  0  0  0  0  0  0  0  0
    0.7671    9.0832    1.7689 C   0  0  0  0  0  0  0  0  0  0  0  0
   -1.8193    6.9098    0.2195 C   0  0  0  0  0  0  0  0  0  0  0  0
   -2.2175    5.5765    0.2205 C   0  0  0  0  0  0  0  0  0  0  0  0
    2.8480   -1.6250    0.9885 C   0  0  0  0  0  0  0  0  0  0  0  0
    3.3431   -4.2462    1.8301 H   0  0  0  0  0  0  0  0  0  0  0  0
    4.0836   -1.7588    2.7233 H   0  0  0  0  0  0  0  0  0  0  0  0
    5.2396   -0.0256    1.5257 H   0  0  0  0  0  0  0  0  0  0  0  0
    5.0222   -0.7846    0.0963 H   0  0  0  0  0  0  0  0  0  0  0  0
    0.5000    0.1340    1.0000 H   0  0  0  0  0  0  0  0  0  0  0  0
    0.8500    2.9919    1.0000 H   0  0  0  0  0  0  0  0  0  0  0  0
   -5.6758    2.2937    1.0085 H   0  0  0  0  0  0  0  0  0  0  0  0
   -7.6409    0.9250    1.0081 H   0  0  0  0  0  0  0  0  0  0  0  0
   -7.4363   -1.4569    0.9989 H   0  0  0  0  0  0  0  0  0  0  0  0
   -5.2755   -2.4712    0.9876 H   0  0  0  0  0  0  0  0  0  0  0  0
   -3.3034   -1.1128    0.9883 H   0  0  0  0  0  0  0  0  0  0  0  0
   -1.6191    0.0733    1.0050 H   0  0  0  0  0  0  0  0  0  0  0  0
    0.0536    4.3779    2.3273 H   0  0  0  0  0  0  0  0  0  0  0  0
    0.7399    6.6750    2.3263 H   0  0  0  0  0  0  0  0  0  0  0  0
   -1.7916    9.3259   -0.3381 H   0  0  0  0  0  0  0  0  0  0  0  0
   -1.1024   11.6194   -0.3408 H   0  0  0  0  0  0  0  0  0  0  0  0
    0.7620   12.3071    0.9888 H   0  0  0  0  0  0  0  0  0  0  0  0
    1.9372   10.7102    2.3147 H   0  0  0  0  0  0  0  0  0  0  0  0
    1.2597    8.4136    2.3249 H   0  0  0  0  0  0  0  0  0  0  0  0
   -2.3109    7.5810   -0.3354 H   0  0  0  0  0  0  0  0  0  0  0  0
   -2.9968    5.2832   -0.3333 H   0  0  0  0  0  0  0  0  0  0  0  0
    2.7995   -2.0431    0.0814 H   0  0  0  0  0  0  0  0  0  0  0  0
    2.0205   -1.8488    1.5033 H   0  0  0  0  0  0  0  0  0  0  0  0
  1  2  1  0  0  0  0
  2  3  1  0  0  0  0
  2  4  1  0  0  0  0
  4  5  1  0  0  0  0
  5  6  1  0  0  0  0
  6  7  1  0  0  0  0
  7  8  1  0  0  0  0
  8  9  2  0  0  0  0
  8 10  1  0  0  0  0
 10 11  2  0  0  0  0
 11 12  1  0  0  0  0
 12 13  1  0  0  0  0
 13 14  2  0  0  0  0
 14 15  1  0  0  0  0
 15 16  1  0  0  0  0
 16 17  1  0  0  0  0
 17 18  2  0  0  0  0
 18 19  1  0  0  0  0
 19 20  2  0  0  0  0
 20 21  1  0  0  0  0
 21 16  2  0  0  0  0
 15 22  1  0  0  0  0
 12 22  2  0  0  0  0
 13 23  1  0  0  0  0
 23 24  1  0  0  0  0
 24 25  2  0  0  0  0
 25 26  1  0  0  0  0
 26 27  1  0  0  0  0
 27 28  1  0  0  0  0
 28 29  2  0  0  0  0
 29 30  1  0  0  0  0
 30 31  2  0  0  0  0
 31 32  1  0  0  0  0
 32 27  2  0  0  0  0
 26 33  2  0  0  0  0
 33 34  1  0  0  0  0
 34 23  2  0  0  0  0
  7 35  1  0  0  0  0
 35  5  1  0  0  0  0
  2 36  1  0  0  0  0
  5 37  1  0  0  0  0
  6 38  1  0  0  0  0
  6 39  1  0  0  0  0
 10 40  1  0  0  0  0
 11 41  1  0  0  0  0
 17 42  1  0  0  0  0
 18 43  1  0  0  0  0
 19 44  1  0  0  0  0
 20 45  1  0  0  0  0
 21 46  1  0  0  0  0
 22 47  1  0  0  0  0
 24 48  1  0  0  0  0
 25 49  1  0  0  0  0
 28 50  1  0  0  0  0
 29 51  1  0  0  0  0
 30 52  1  0  0  0  0
 31 53  1  0  0  0  0
 32 54  1  0  0  0  0
 33 55  1  0  0  0  0
 34 56  1  0  0  0  0
 35 57  1  0  0  0  0
 35 58  1  0  0  0  0
M  END
>  <result-rank>
36

>  <similarity>
0.876

>  <query-name>


>  <query-smiles>
S(=O)(=O)(NC(=O)C)c1ccc(cc1)C=2N3N=CC=C(N4CCOCC4)C3=NC2/C=C/c5nc6c(cc5)cccc6

>  <source>
REALspace_2019-12

>  <similarity-descriptor>
0.957;0.993;0.920;0.697;0.846;0.942;0.0;0.0;0.0;0.0;0.920;0.846;0.0

>  <similarity-descriptor-smiles>
c1ccccc1;FC(F)OC1CNC1;C1=CNN=C1;C(=O)C=C;c1ccccc1;c1ccccc1;;;;;C1=CNN=C1;c1ccccc1;

>  <reaction-name>
s_22

>  <reagent1-name>
9105540

>  <reagent1-smiles>
[R1*]N1CC(OC(F)F)C1

>  <reagent2-name>
135464

>  <reagent2-smiles>
[R1*]C(=O)C=CC=1C(=NN(c2ccccc2)C1)c3ccc(c4ccccc4)cc3

$$$$
m_273170____10756572____10760500____10766636
          04022017323D 1   1.00000     0.00000     0
            
 79 84  0  0  0  0            999 V2000
    0.4235   -3.7837   -0.1915 S   0  0  0  0  0  0  0  0  0  0  0  0
    0.4627   -4.2164   -1.5644 O   0  0  0  0  0  0  0  0  0  0  0  0
    1.5010   -4.4012    0.5374 O   0  0  0  0  0  0  0  0  0  0  0  0
   -1.0004   -4.2156    0.4739 N   0  0  0  0  0  0  0  0  0  0  0  0
   -1.1446   -5.6774    0.4167 C   0  0  0  0  0  0  0  0  0  0  0  0
    0.5942   -2.0531   -0.1237 C   0  0  0  0  0  0  0  0  0  0  0  0
    0.6868   -1.4170    1.1101 C   0  0  0  0  0  0  0  0  0  0  0  0
    0.8228   -0.0333    1.1493 C   0  0  0  0  0  0  0  0  0  0  0  0
    0.8675    0.7144   -0.0226 C   0  0  0  0  0  0  0  0  0  0  0  0
    0.7733    0.0587   -1.2459 C   0  0  0  0  0  0  0  0  0  0  0  0
    0.6363   -1.3242   -1.3076 C   0  0  0  0  0  0  0  0  0  0  0  0
    0.9245    0.6605    2.4981 C   0  0  0  0  0  0  0  0  0  0  0  0
    2.0806    1.5694    2.4959 N   0  0  0  0  0  0  0  0  0  0  0  0
    2.0315    2.9267    2.5008 C   0  0  0  0  0  0  0  0  0  0  0  0
    3.2789    3.3271    2.4974 N   0  0  0  0  0  0  0  0  0  0  0  0
    4.1071    2.3065    2.4903 N   0  0  0  0  0  0  0  0  0  0  0  0
    3.3905    1.2051    2.4893 C   0  0  0  0  0  0  0  0  0  0  0  0
    3.9087   -0.1515    2.4826 C   0  0  0  0  0  0  0  0  0  0  0  0
    3.2993   -1.4756    3.3565 S   0  0  0  0  0  0  0  0  0  0  0  0
    4.4400   -2.6008    2.7863 C   0  0  0  0  0  0  0  0  0  0  0  0
    5.2397   -1.9619    1.9663 N   0  0  0  0  0  0  0  0  0  0  0  0
    4.9741   -0.6307    1.7848 C   0  0  0  0  0  0  0  0  0  0  0  0
    5.7823    0.2829    0.8831 C   0  0  0  0  0  0  0  0  0  0  0  0
    4.5034   -3.9559    3.1322 N   0  0  0  0  0  0  0  0  0  0  0  0
    5.8187   -4.5966    3.2883 C   0  0  0  0  0  0  0  0  0  0  0  0
    5.7750   -5.6774    4.3575 C   0  0  0  0  0  0  0  0  0  0  0  0
    4.6347   -6.5132    4.2062 O   0  0  0  0  0  0  0  0  0  0  0  0
    3.4382   -5.7743    4.4142 C   0  0  0  0  0  0  0  0  0  0  0  0
    3.2537   -4.6990    3.3542 C   0  0  0  0  0  0  0  0  0  0  0  0
    0.8853    3.7336    2.5048 N   0  0  0  0  0  0  0  0  0  0  0  0
   -0.4030    3.1782    2.9437 C   0  0  0  0  0  0  0  0  0  0  0  0
   -0.6743    3.6004    4.3785 C   0  0  0  0  0  0  0  0  0  0  0  0
   -1.6604    4.5167    4.8044 C   0  0  0  0  0  0  0  0  0  0  0  0
   -1.5547    4.5941    6.1097 N   0  0  0  0  0  0  0  0  0  0  0  0
   -0.5920    3.8076    6.5375 N   0  0  0  0  0  0  0  0  0  0  0  0
   -0.0118    3.1684    5.4853 C   0  0  0  0  0  0  0  0  0  0  0  0
   -0.1935    3.6428    7.9431 C   0  0  0  0  0  0  0  0  0  0  0  0
   -1.1575    2.6923    8.6350 C   0  0  0  0  0  0  0  0  0  0  0  0
   -0.8937    1.3265    8.6404 C   0  0  0  0  0  0  0  0  0  0  0  0
   -1.7787    0.4603    9.2739 C   0  0  0  0  0  0  0  0  0  0  0  0
   -2.9167    0.9617    9.8970 C   0  0  0  0  0  0  0  0  0  0  0  0
   -3.1697    2.3278    9.8857 C   0  0  0  0  0  0  0  0  0  0  0  0
   -2.2928    3.2044    9.2551 C   0  0  0  0  0  0  0  0  0  0  0  0
    0.9717    5.1351    2.0699 C   0  0  0  0  0  0  0  0  0  0  0  0
   -1.7486   -3.7868   -0.0323 H   0  0  0  0  0  0  0  0  0  0  0  0
   -2.0181   -5.9425    0.8249 H   0  0  0  0  0  0  0  0  0  0  0  0
   -1.1174   -5.9780   -0.5367 H   0  0  0  0  0  0  0  0  0  0  0  0
   -0.3963   -6.1063    0.9228 H   0  0  0  0  0  0  0  0  0  0  0  0
    0.6560   -1.9474    1.9573 H   0  0  0  0  0  0  0  0  0  0  0  0
    0.9660    1.7088    0.0136 H   0  0  0  0  0  0  0  0  0  0  0  0
    0.8045    0.5892   -2.0931 H   0  0  0  0  0  0  0  0  0  0  0  0
    0.5691   -1.7880   -2.1910 H   0  0  0  0  0  0  0  0  0  0  0  0
    0.0893    1.1838    2.6675 H   0  0  0  0  0  0  0  0  0  0  0  0
    1.0403   -0.0245    3.2174 H   0  0  0  0  0  0  0  0  0  0  0  0
    5.3987    1.2059    0.9137 H   0  0  0  0  0  0  0  0  0  0  0  0
    6.7317    0.3059    1.1967 H   0  0  0  0  0  0  0  0  0  0  0  0
    5.7495   -0.0609   -0.0554 H   0  0  0  0  0  0  0  0  0  0  0  0
    6.4907   -3.9041    3.5505 H   0  0  0  0  0  0  0  0  0  0  0  0
    6.0870   -5.0087    2.4176 H   0  0  0  0  0  0  0  0  0  0  0  0
    6.6003   -6.2376    4.2874 H   0  0  0  0  0  0  0  0  0  0  0  0
    5.7425   -5.2430    5.2577 H   0  0  0  0  0  0  0  0  0  0  0  0
    3.4771   -5.3399    5.3140 H   0  0  0  0  0  0  0  0  0  0  0  0
    2.6596   -6.4009    4.3800 H   0  0  0  0  0  0  0  0  0  0  0  0
    2.9732   -5.1302    2.4967 H   0  0  0  0  0  0  0  0  0  0  0  0
    2.5438   -4.0621    3.6549 H   0  0  0  0  0  0  0  0  0  0  0  0
   -0.3713    2.1802    2.8902 H   0  0  0  0  0  0  0  0  0  0  0  0
   -1.1326    3.5207    2.3518 H   0  0  0  0  0  0  0  0  0  0  0  0
   -2.3105    5.0092    4.2257 H   0  0  0  0  0  0  0  0  0  0  0  0
    0.7453    2.5159    5.5189 H   0  0  0  0  0  0  0  0  0  0  0  0
   -0.2144    4.5311    8.4018 H   0  0  0  0  0  0  0  0  0  0  0  0
    0.7324    3.2675    7.9852 H   0  0  0  0  0  0  0  0  0  0  0  0
   -0.0739    0.9701    8.1921 H   0  0  0  0  0  0  0  0  0  0  0  0
   -1.5968   -0.5230    9.2814 H   0  0  0  0  0  0  0  0  0  0  0  0
   -3.5527    0.3390   10.3529 H   0  0  0  0  0  0  0  0  0  0  0  0
   -3.9892    2.6840   10.3348 H   0  0  0  0  0  0  0  0  0  0  0  0
   -2.4757    4.1875    9.2475 H   0  0  0  0  0  0  0  0  0  0  0  0
    0.0691    5.5606    2.1354 H   0  0  0  0  0  0  0  0  0  0  0  0
    1.6154    5.6270    2.6562 H   0  0  0  0  0  0  0  0  0  0  0  0
    1.2893    5.1712    1.1224 H   0  0  0  0  0  0  0  0  0  0  0  0
  1  2  2  0  0  0  0
  1  3  2  0  0  0  0
  1  4  1  0  0  0  0
  4  5  1  0  0  0  0
  1  6  1  0  0  0  0
  6  7  1  0  0  0  0
  7  8  2  0  0  0  0
  8  9  1  0  0  0  0
  9 10  2  0  0  0  0
 10 11  1  0  0  0  0
 11  6  2  0  0  0  0
  8 12  1  0  0  0  0
 12 13  1  0  0  0  0
 13 14  1  0  0  0  0
 14 15  2  0  0  0  0
 15 16  1  0  0  0  0
 16 17  2  0  0  0  0
 17 13  1  0  0  0  0
 17 18  1  0  0  0  0
 18 19  1  0  0  0  0
 19 20  1  0  0  0  0
 20 21  2  0  0  0  0
 21 22  1  0  0  0  0
 18 22  2  0  0  0  0
 22 23  1  0  0  0  0
 20 24  1  0  0  0  0
 24 25  1  0  0  0  0
 25 26  1  0  0  0  0
 26 27  1  0  0  0  0
 27 28  1  0  0  0  0
 28 29  1  0  0  0  0
 29 24  1  0  0  0  0
 14 30  1  0  0  0  0
 30 31  1  0  0  0  0
 31 32  1  0  0  0  0
 32 33  1  0  0  0  0
 33 34  2  0  0  0  0
 34 35  1  0  0  0  0
 35 36  1  0  0  0  0
 32 36  2  0  0  0  0
 35 37  1  0  0  0  0
 37 38  1  0  0  0  0
 38 39  1  0  0  0  0
 39 40  2  0  0  0  0
 40 41  1  0  0  0  0
 41 42  2  0  0  0  0
 42 43  1  0  0  0  0
 43 38  2  0  0  0  0
 30 44  1  0  0  0  0
  4 45  1  0  0  0  0
  5 46  1  0  0  0  0
  5 47  1  0  0  0  0
  5 48  1  0  0  0  0
  7 49  1  0  0  0  0
  9 50  1  0  0  0  0
 10 51  1  0  0  0  0
 11 52  1  0  0  0  0
 12 53  1  0  0  0  0
 12 54  1  0  0  0  0
 23 55  1  0  0  0  0
 23 56  1  0  0  0  0
 23 57  1  0  0  0  0
 25 58  1  0  0  0  0
 25 59  1  0  0  0  0
 26 60  1  0  0  0  0
 26 61  1  0  0  0  0
 28 62  1  0  0  0  0
 28 63  1  0  0  0  0
 29 64  1  0  0  0  0
 29 65  1  0  0  0  0
 31 66  1  0  0  0  0
 31 67  1  0  0  0  0
 33 68  1  0  0  0  0
 36 69  1  0  0  0  0
 37 70  1  0  0  0  0
 37 71  1  0  0  0  0
 39 72  1  0  0  0  0
 40 73  1  0  0  0  0
 41 74  1  0  0  0  0
 42 75  1  0  0  0  0
 43 76  1  0  0  0  0
 44 77  1  0  0  0  0
 44 78  1  0  0  0  0
 44 79  1  0  0  0  0
M  END
>  <result-rank>
37

>  <similarity>
0.875

>  <query-name>


>  <query-smiles>
S(=O)(=O)(NC(=O)C)c1ccc(cc1)C=2N3N=CC=C(N4CCOCC4)C3=NC2/C=C/c5nc6c(cc5)cccc6

>  <source>
REALspace_2019-12

>  <similarity-descriptor>
0.936;1.000;0.797;0.916;0.935;0.883;1.000;0.733;0.733;0.733;0.797;0.226;0.133

>  <similarity-descriptor-smiles>
c1cccc(c1)C;N1CCOCC1;N1C=NN=C1;C1=CN=CS1;C1=CNN=C1;Cc1ccccc1;S(=O)=O;NC;NC;NC;N1C=NN=C1;NC;C.C

>  <reaction-name>
m_273170

>  <reagent1-name>
10756572

>  <reagent1-smiles>
[R2*]=C([R1*])N([R3*])Cc1cc(S(=O)(=O)NC)ccc1

>  <reagent2-name>
10760500

>  <reagent2-smiles>
[R1*]N(CC=1C=NN(C1)Cc2ccccc2)C

>  <reagent3-name>
10766636

>  <reagent3-smiles>
[R2*]=NN=C([R3*])C=1SC(=NC1C)N2CCOCC2

$$$$
m_273170____10757054____10763944____10766638
          04022017323D 1   1.00000     0.00000     0
            
 69 74  0  0  0  0            999 V2000
    3.7369    8.2047    4.2984 S   0  0  0  0  0  0  0  0  0  0  0  0
    3.6360    7.3322    2.8405 C   0  0  0  0  0  0  0  0  0  0  0  0
    4.3580    6.2526    3.0073 N   0  0  0  0  0  0  0  0  0  0  0  0
    4.9552    6.1215    4.2328 C   0  0  0  0  0  0  0  0  0  0  0  0
    5.7901    5.0138    4.6256 C   0  0  0  0  0  0  0  0  0  0  0  0
    6.3749    4.8621    5.7925 N   0  0  0  0  0  0  0  0  0  0  0  0
    7.0456    3.7321    5.7641 N   0  0  0  0  0  0  0  0  0  0  0  0
    6.9180    3.1327    4.6062 C   0  0  0  0  0  0  0  0  0  0  0  0
    6.1169    3.9379    3.8613 N   0  0  0  0  0  0  0  0  0  0  0  0
    5.6836    3.6889    2.4782 C   0  0  0  0  0  0  0  0  0  0  0  0
    4.3809    2.9058    2.4886 C   0  0  0  0  0  0  0  0  0  0  0  0
    3.1760    3.6008    2.5018 C   0  0  0  0  0  0  0  0  0  0  0  0
    1.9854    2.8827    2.5104 C   0  0  0  0  0  0  0  0  0  0  0  0
    0.7436    3.5712    2.5251 O   0  0  0  0  0  0  0  0  0  0  0  0
   -0.4736    2.8400    2.5339 C   0  0  0  0  0  0  0  0  0  0  0  0
   -0.8941    2.5733    3.9700 C   0  0  0  0  0  0  0  0  0  0  0  0
   -0.5250    1.5772    4.5282 O   0  0  0  0  0  0  0  0  0  0  0  0
   -1.6945    3.4702    4.6272 N   0  0  0  0  0  0  0  0  0  0  0  0
    1.9989    1.4916    2.5063 C   0  0  0  0  0  0  0  0  0  0  0  0
    3.2106    0.8076    2.4943 C   0  0  0  0  0  0  0  0  0  0  0  0
    4.4085    1.5148    2.4845 C   0  0  0  0  0  0  0  0  0  0  0  0
    7.5155    1.8523    4.2008 N   0  0  0  0  0  0  0  0  0  0  0  0
    7.2682    1.3197    2.8532 C   0  0  0  0  0  0  0  0  0  0  0  0
    8.3386    1.8293    1.9028 C   0  0  0  0  0  0  0  0  0  0  0  0
    9.4790    1.2370    1.6503 O   0  0  0  0  0  0  0  0  0  0  0  0
   10.1863    1.9377    0.7857 C   0  0  0  0  0  0  0  0  0  0  0  0
    9.4810    3.0583    0.4326 C   0  0  0  0  0  0  0  0  0  0  0  0
   10.0195    3.9519   -0.4928 C   0  0  0  0  0  0  0  0  0  0  0  0
   11.2703    3.7322   -1.0629 C   0  0  0  0  0  0  0  0  0  0  0  0
   11.9858    2.5969   -0.6979 C   0  0  0  0  0  0  0  0  0  0  0  0
   11.4377    1.7097    0.2220 C   0  0  0  0  0  0  0  0  0  0  0  0
    8.2759    2.9774    1.1683 C   0  0  0  0  0  0  0  0  0  0  0  0
    8.3604    1.1044    5.1431 C   0  0  0  0  0  0  0  0  0  0  0  0
    4.7429    7.1144    5.1350 C   0  0  0  0  0  0  0  0  0  0  0  0
    2.9258    7.7106    1.6951 N   0  0  0  0  0  0  0  0  0  0  0  0
    2.9459    6.8325    0.5147 C   0  0  0  0  0  0  0  0  0  0  0  0
    1.6294    6.9077   -0.2431 C   0  0  0  0  0  0  0  0  0  0  0  0
    1.2039    8.2536   -0.4146 O   0  0  0  0  0  0  0  0  0  0  0  0
    0.9134    8.8533    0.8411 C   0  0  0  0  0  0  0  0  0  0  0  0
    2.1579    8.9649    1.7086 C   0  0  0  0  0  0  0  0  0  0  0  0
    6.3855    3.1620    1.9988 H   0  0  0  0  0  0  0  0  0  0  0  0
    5.5442    4.5616    2.0103 H   0  0  0  0  0  0  0  0  0  0  0  0
    3.1663    4.6008    2.5050 H   0  0  0  0  0  0  0  0  0  0  0  0
   -0.3435    1.9703    2.0577 H   0  0  0  0  0  0  0  0  0  0  0  0
   -1.1843    3.3701    2.0714 H   0  0  0  0  0  0  0  0  0  0  0  0
   -2.0021    4.3002    4.1620 H   0  0  0  0  0  0  0  0  0  0  0  0
   -1.9712    3.2947    5.5720 H   0  0  0  0  0  0  0  0  0  0  0  0
    1.1378    0.9832    2.5121 H   0  0  0  0  0  0  0  0  0  0  0  0
    3.2203   -0.1923    2.4926 H   0  0  0  0  0  0  0  0  0  0  0  0
    5.2817    1.0277    2.4746 H   0  0  0  0  0  0  0  0  0  0  0  0
    6.3693    1.6213    2.5354 H   0  0  0  0  0  0  0  0  0  0  0  0
    7.2943    0.3203    2.8798 H   0  0  0  0  0  0  0  0  0  0  0  0
    9.4979    4.7649   -0.7514 H   0  0  0  0  0  0  0  0  0  0  0  0
   11.6481    4.3802   -1.7241 H   0  0  0  0  0  0  0  0  0  0  0  0
   12.8870    2.4201   -1.0936 H   0  0  0  0  0  0  0  0  0  0  0  0
   11.9523    0.8930    0.4831 H   0  0  0  0  0  0  0  0  0  0  0  0
    7.5228    3.6351    1.1532 H   0  0  0  0  0  0  0  0  0  0  0  0
    8.6816    0.2634    4.7076 H   0  0  0  0  0  0  0  0  0  0  0  0
    9.1458    1.6655    5.4043 H   0  0  0  0  0  0  0  0  0  0  0  0
    7.8284    0.8755    5.9583 H   0  0  0  0  0  0  0  0  0  0  0  0
    5.0938    7.1879    6.0685 H   0  0  0  0  0  0  0  0  0  0  0  0
    3.0994    5.8898    0.8109 H   0  0  0  0  0  0  0  0  0  0  0  0
    3.6888    7.1165   -0.0915 H   0  0  0  0  0  0  0  0  0  0  0  0
    1.7475    6.4870   -1.1425 H   0  0  0  0  0  0  0  0  0  0  0  0
    0.9305    6.4086    0.2692 H   0  0  0  0  0  0  0  0  0  0  0  0
    0.2342    8.2954    1.3180 H   0  0  0  0  0  0  0  0  0  0  0  0
    0.5428    9.7690    0.6856 H   0  0  0  0  0  0  0  0  0  0  0  0
    2.7338    9.7044    1.3602 H   0  0  0  0  0  0  0  0  0  0  0  0
    1.8839    9.1702    2.6482 H   0  0  0  0  0  0  0  0  0  0  0  0
  1  2  1  0  0  0  0
  2  3  2  0  0  0  0
  3  4  1  0  0  0  0
  4  5  1  0  0  0  0
  5  6  2  0  0  0  0
  6  7  1  0  0  0  0
  7  8  2  0  0  0  0
  8  9  1  0  0  0  0
  9  5  1  0  0  0  0
  9 10  1  0  0  0  0
 10 11  1  0  0  0  0
 11 12  1  0  0  0  0
 12 13  2  0  0  0  0
 13 14  1  0  0  0  0
 14 15  1  0  0  0  0
 15 16  1  0  0  0  0
 16 17  2  0  0  0  0
 16 18  1  0  0  0  0
 13 19  1  0  0  0  0
 19 20  2  0  0  0  0
 20 21  1  0  0  0  0
 21 11  2  0  0  0  0
  8 22  1  0  0  0  0
 22 23  1  0  0  0  0
 23 24  1  0  0  0  0
 24 25  1  0  0  0  0
 25 26  1  0  0  0  0
 26 27  1  0  0  0  0
 27 28  2  0  0  0  0
 28 29  1  0  0  0  0
 29 30  2  0  0  0  0
 30 31  1  0  0  0  0
 31 26  2  0  0  0  0
 27 32  1  0  0  0  0
 24 32  2  0  0  0  0
 22 33  1  0  0  0  0
  4 34  2  0  0  0  0
 34  1  1  0  0  0  0
  2 35  1  0  0  0  0
 35 36  1  0  0  0  0
 36 37  1  0  0  0  0
 37 38  1  0  0  0  0
 38 39  1  0  0  0  0
 39 40  1  0  0  0  0
 40 35  1  0  0  0  0
 10 41  1  0  0  0  0
 10 42  1  0  0  0  0
 12 43  1  0  0  0  0
 15 44  1  0  0  0  0
 15 45  1  0  0  0  0
 18 46  1  0  0  0  0
 18 47  1  0  0  0  0
 19 48  1  0  0  0  0
 20 49  1  0  0  0  0
 21 50  1  0  0  0  0
 23 51  1  0  0  0  0
 23 52  1  0  0  0  0
 28 53  1  0  0  0  0
 29 54  1  0  0  0  0
 30 55  1  0  0  0  0
 31 56  1  0  0  0  0
 32 57  1  0  0  0  0
 33 58  1  0  0  0  0
 33 59  1  0  0  0  0
 33 60  1  0  0  0  0
 34 61  1  0  0  0  0
 36 62  1  0  0  0  0
 36 63  1  0  0  0  0
 37 64  1  0  0  0  0
 37 65  1  0  0  0  0
 39 66  1  0  0  0  0
 39 67  1  0  0  0  0
 40 68  1  0  0  0  0
 40 69  1  0  0  0  0
M  END
>  <result-rank>
38

>  <similarity>
0.875

>  <query-name>


>  <query-smiles>
S(=O)(=O)(NC(=O)C)c1ccc(cc1)C=2N3N=CC=C(N4CCOCC4)C3=NC2/C=C/c5nc6c(cc5)cccc6

>  <source>
REALspace_2019-12

>  <similarity-descriptor>
0.935;1.000;0.797;0.961;0.893;0.999;0.747;0.717;0.0;0.0;0.797;0.132;0.071

>  <similarity-descriptor-smiles>
Cc1ccccc1;N1CCOCC1;C=1NC=NN1;S1C=CN=C1;CC1=CccO1;c1ccccc1;OCC=O;N;;;C=1NC=NN1;N;C

>  <reaction-name>
m_273170

>  <reagent1-name>
10757054

>  <reagent1-smiles>
[R2*]=C([R1*])N([R3*])Cc1cc(OCC(=O)N)ccc1

>  <reagent2-name>
10763944

>  <reagent2-smiles>
[R1*]N(CC=1Oc2c(cccc2)C1)C

>  <reagent3-name>
10766638

>  <reagent3-smiles>
[R2*]=NN=C([R3*])C=1N=C(SC1)N2CCOCC2

$$$$
m_273170____10756572____14482586____10766638
          04022017323D 1   1.00000     0.00000     0
            
 65 69  0  0  0  0            999 V2000
   -1.8354    0.0841    6.0277 Cl  0  0  0  0  0  0  0  0  0  0  0  0
   -2.2303    1.4353    4.9382 C   0  0  0  0  0  0  0  0  0  0  0  0
   -1.4411    1.6896    3.8215 C   0  0  0  0  0  0  0  0  0  0  0  0
   -1.7761    2.7525    2.9889 C   0  0  0  0  0  0  0  0  0  0  0  0
   -2.8430    3.5188    3.2607 N   0  0  0  0  0  0  0  0  0  0  0  0
   -3.6154    3.2899    4.3323 C   0  0  0  0  0  0  0  0  0  0  0  0
   -3.3320    2.2424    5.2021 C   0  0  0  0  0  0  0  0  0  0  0  0
   -0.9047    3.0187    1.7725 C   0  0  0  0  0  0  0  0  0  0  0  0
    0.3027    3.7487    2.1850 N   0  0  0  0  0  0  0  0  0  0  0  0
    1.5116    3.0613    2.3604 C   0  0  0  0  0  0  0  0  0  0  0  0
    2.5527    3.4581    3.0497 N   0  0  0  0  0  0  0  0  0  0  0  0
    3.5217    2.5713    3.0027 N   0  0  0  0  0  0  0  0  0  0  0  0
    3.1118    1.5641    2.2651 C   0  0  0  0  0  0  0  0  0  0  0  0
    1.8491    1.8491    1.8491 N   0  0  0  0  0  0  0  0  0  0  0  0
    1.0000    1.0000    1.0000 C   0  0  0  0  0  0  0  0  0  0  0  0
    1.3249    1.2596   -0.4622 C   0  0  0  0  0  0  0  0  0  0  0  0
    1.5776    0.1786   -1.3001 C   0  0  0  0  0  0  0  0  0  0  0  0
    1.8756    0.4150   -2.6384 C   0  0  0  0  0  0  0  0  0  0  0  0
    2.1943   -0.9256   -3.7011 S   0  0  0  0  0  0  0  0  0  0  0  0
    2.6920   -0.4330   -4.9594 O   0  0  0  0  0  0  0  0  0  0  0  0
    3.1773   -1.7904   -3.1015 O   0  0  0  0  0  0  0  0  0  0  0  0
    0.8167   -1.7603   -3.9511 N   0  0  0  0  0  0  0  0  0  0  0  0
    1.0859   -2.8927   -4.8488 C   0  0  0  0  0  0  0  0  0  0  0  0
    1.9228    1.7111   -3.1410 C   0  0  0  0  0  0  0  0  0  0  0  0
    1.6674    2.7780   -2.2857 C   0  0  0  0  0  0  0  0  0  0  0  0
    1.3675    2.5635   -0.9443 C   0  0  0  0  0  0  0  0  0  0  0  0
    3.8675    0.3759    1.9566 C   0  0  0  0  0  0  0  0  0  0  0  0
    3.3230   -0.8075    1.5337 N   0  0  0  0  0  0  0  0  0  0  0  0
    4.1756   -1.7745    1.3041 C   0  0  0  0  0  0  0  0  0  0  0  0
    5.7181   -1.1440    1.6508 S   0  0  0  0  0  0  0  0  0  0  0  0
    5.2177    0.4217    2.0964 C   0  0  0  0  0  0  0  0  0  0  0  0
    3.8897   -3.0726    0.8701 N   0  0  0  0  0  0  0  0  0  0  0  0
    2.5970   -3.3451    0.2225 C   0  0  0  0  0  0  0  0  0  0  0  0
    2.7343   -4.4318   -0.8326 C   0  0  0  0  0  0  0  0  0  0  0  0
    3.4882   -5.5355   -0.3477 O   0  0  0  0  0  0  0  0  0  0  0  0
    4.8287   -5.1484   -0.0754 C   0  0  0  0  0  0  0  0  0  0  0  0
    4.8982   -4.1279    1.0504 C   0  0  0  0  0  0  0  0  0  0  0  0
    0.2424    5.1995    2.4134 C   0  0  0  0  0  0  0  0  0  0  0  0
   -0.6458    1.1177    3.6204 H   0  0  0  0  0  0  0  0  0  0  0  0
   -4.4041    3.8790    4.5082 H   0  0  0  0  0  0  0  0  0  0  0  0
   -3.9087    2.0729    6.0012 H   0  0  0  0  0  0  0  0  0  0  0  0
   -0.6420    2.1493    1.3540 H   0  0  0  0  0  0  0  0  0  0  0  0
   -1.4155    3.5666    1.1100 H   0  0  0  0  0  0  0  0  0  0  0  0
    0.0381    1.2137    1.1708 H   0  0  0  0  0  0  0  0  0  0  0  0
    1.1708    0.0381    1.2137 H   0  0  0  0  0  0  0  0  0  0  0  0
    1.5456   -0.7558   -0.9454 H   0  0  0  0  0  0  0  0  0  0  0  0
    0.1340   -1.1598   -4.3675 H   0  0  0  0  0  0  0  0  0  0  0  0
    0.2407   -3.4048   -5.0022 H   0  0  0  0  0  0  0  0  0  0  0  0
    1.4315   -2.5506   -5.7226 H   0  0  0  0  0  0  0  0  0  0  0  0
    1.7685   -3.4932   -4.4324 H   0  0  0  0  0  0  0  0  0  0  0  0
    2.1375    1.8737   -4.1041 H   0  0  0  0  0  0  0  0  0  0  0  0
    1.6998    3.7125   -2.6401 H   0  0  0  0  0  0  0  0  0  0  0  0
    1.1852    3.3356   -0.3356 H   0  0  0  0  0  0  0  0  0  0  0  0
    5.7836    1.1918    2.3911 H   0  0  0  0  0  0  0  0  0  0  0  0
    2.2658   -2.5074   -0.2119 H   0  0  0  0  0  0  0  0  0  0  0  0
    1.9405   -3.6432    0.9155 H   0  0  0  0  0  0  0  0  0  0  0  0
    1.8225   -4.7498   -1.0923 H   0  0  0  0  0  0  0  0  0  0  0  0
    3.1950   -4.0504   -1.6340 H   0  0  0  0  0  0  0  0  0  0  0  0
    5.2252   -4.7479   -0.9015 H   0  0  0  0  0  0  0  0  0  0  0  0
    5.3534   -5.9580    0.1874 H   0  0  0  0  0  0  0  0  0  0  0  0
    4.7346   -4.5908    1.9216 H   0  0  0  0  0  0  0  0  0  0  0  0
    5.8078   -3.7126    1.0593 H   0  0  0  0  0  0  0  0  0  0  0  0
   -0.6879    5.5252    2.2444 H   0  0  0  0  0  0  0  0  0  0  0  0
    0.4986    5.3990    3.3593 H   0  0  0  0  0  0  0  0  0  0  0  0
    0.8753    5.6615    1.7921 H   0  0  0  0  0  0  0  0  0  0  0  0
  1  2  1  0  0  0  0
  2  3  1  0  0  0  0
  3  4  2  0  0  0  0
  4  5  1  0  0  0  0
  5  6  2  0  0  0  0
  6  7  1  0  0  0  0
  7  2  2  0  0  0  0
  4  8  1  0  0  0  0
  8  9  1  0  0  0  0
  9 10  1  0  0  0  0
 10 11  2  0  0  0  0
 11 12  1  0  0  0  0
 12 13  2  0  0  0  0
 13 14  1  0  0  0  0
 14 10  1  0  0  0  0
 14 15  1  0  0  0  0
 15 16  1  0  0  0  0
 16 17  1  0  0  0  0
 17 18  2  0  0  0  0
 18 19  1  0  0  0  0
 19 20  2  0  0  0  0
 19 21  2  0  0  0  0
 19 22  1  0  0  0  0
 22 23  1  0  0  0  0
 18 24  1  0  0  0  0
 24 25  2  0  0  0  0
 25 26  1  0  0  0  0
 26 16  2  0  0  0  0
 13 27  1  0  0  0  0
 27 28  1  0  0  0  0
 28 29  2  0  0  0  0
 29 30  1  0  0  0  0
 30 31  1  0  0  0  0
 27 31  2  0  0  0  0
 29 32  1  0  0  0  0
 32 33  1  0  0  0  0
 33 34  1  0  0  0  0
 34 35  1  0  0  0  0
 35 36  1  0  0  0  0
 36 37  1  0  0  0  0
 37 32  1  0  0  0  0
  9 38  1  0  0  0  0
  3 39  1  0  0  0  0
  6 40  1  0  0  0  0
  7 41  1  0  0  0  0
  8 42  1  0  0  0  0
  8 43  1  0  0  0  0
 15 44  1  0  0  0  0
 15 45  1  0  0  0  0
 17 46  1  0  0  0  0
 22 47  1  0  0  0  0
 23 48  1  0  0  0  0
 23 49  1  0  0  0  0
 23 50  1  0  0  0  0
 24 51  1  0  0  0  0
 25 52  1  0  0  0  0
 26 53  1  0  0  0  0
 31 54  1  0  0  0  0
 33 55  1  0  0  0  0
 33 56  1  0  0  0  0
 34 57  1  0  0  0  0
 34 58  1  0  0  0  0
 36 59  1  0  0  0  0
 36 60  1  0  0  0  0
 37 61  1  0  0  0  0
 37 62  1  0  0  0  0
 38 63  1  0  0  0  0
 38 64  1  0  0  0  0
 38 65  1  0  0  0  0
M  END
>  <result-rank>
39

>  <similarity>
0.875

>  <query-name>


>  <query-smiles>
S(=O)(=O)(NC(=O)C)c1ccc(cc1)C=2N3N=CC=C(N4CCOCC4)C3=NC2/C=C/c5nc6c(cc5)cccc6

>  <source>
REALspace_2019-12

>  <similarity-descriptor>
1.000;1.000;0.649;0.961;0.914;0.0;1.000;0.733;0.733;0.733;0.914;0.914;0.083

>  <similarity-descriptor-smiles>
c1ccccc1;N1CCOCC1;CNC=1N(C=NN1)C;C1=CSC=N1;Clc1ccncc1;;S(=O)=O;NC;NC;NC;Clc1ccncc1;Clc1ccncc1;C

>  <reaction-name>
m_273170

>  <reagent1-name>
10756572

>  <reagent1-smiles>
[R2*]=C([R1*])N([R3*])Cc1cc(S(=O)(=O)NC)ccc1

>  <reagent2-name>
14482586

>  <reagent2-smiles>
[R1*]N(Cc1nccc(Cl)c1)C

>  <reagent3-name>
10766638

>  <reagent3-smiles>
[R2*]=NN=C([R3*])C=1N=C(SC1)N2CCOCC2

$$$$
s_2____821402____16506322____236124
          04022017323D 1   1.00000     0.00000     0
            
 65 70  0  0  0  0            999 V2000
   -2.1114   -3.5801    2.8995 S   0  0  0  0  0  0  0  0  0  0  0  0
   -3.3333   -4.2998    2.6492 O   0  0  0  0  0  0  0  0  0  0  0  0
   -1.0738   -4.0808    2.0355 O   0  0  0  0  0  0  0  0  0  0  0  0
   -2.3450   -1.9940    2.6054 N   0  0  0  0  0  0  0  0  0  0  0  0
   -1.2533   -1.1189    2.5749 C   0  0  0  0  0  0  0  0  0  0  0  0
   -0.7081   -0.6462    3.7642 C   0  0  0  0  0  0  0  0  0  0  0  0
    0.3771    0.2230    3.7244 C   0  0  0  0  0  0  0  0  0  0  0  0
    0.9034    0.6099    2.4960 C   0  0  0  0  0  0  0  0  0  0  0  0
    0.3587    0.1379    1.3068 C   0  0  0  0  0  0  0  0  0  0  0  0
   -0.7263   -0.7316    1.3466 C   0  0  0  0  0  0  0  0  0  0  0  0
    2.0334    1.5154    2.4653 C   0  0  0  0  0  0  0  0  0  0  0  0
    3.3388    1.1121    2.4746 N   0  0  0  0  0  0  0  0  0  0  0  0
    4.2406    2.1295    2.4468 C   0  0  0  0  0  0  0  0  0  0  0  0
    3.3299    3.5681    2.4036 S   0  0  0  0  0  0  0  0  0  0  0  0
    1.7813    2.8529    2.4247 C   0  0  0  0  0  0  0  0  0  0  0  0
    5.5094    2.0301    2.4537 N   0  0  0  0  0  0  0  0  0  0  0  0
    6.2648    2.6407    1.4456 C   0  0  0  0  0  0  0  0  0  0  0  0
    6.3555    4.0283    1.4080 C   0  0  0  0  0  0  0  0  0  0  0  0
    7.1066    4.6346    0.4059 C   0  0  0  0  0  0  0  0  0  0  0  0
    7.7569    3.8521   -0.5434 C   0  0  0  0  0  0  0  0  0  0  0  0
    7.6609    2.4652   -0.4982 C   0  0  0  0  0  0  0  0  0  0  0  0
    6.9113    1.8513    0.5004 C   0  0  0  0  0  0  0  0  0  0  0  0
    8.5105    4.4514   -1.5474 C   0  0  0  0  0  0  0  0  0  0  0  0
    8.6022    5.8387   -1.5865 C   0  0  0  0  0  0  0  0  0  0  0  0
    7.9536    6.6233   -0.6385 C   0  0  0  0  0  0  0  0  0  0  0  0
    7.2009    6.0215    0.3641 C   0  0  0  0  0  0  0  0  0  0  0  0
    3.7804   -0.2891    2.5193 C   0  0  0  0  0  0  0  0  0  0  0  0
    4.0469   -0.6917    3.9641 C   0  0  0  0  0  0  0  0  0  0  0  0
    4.4702   -1.9074    4.4148 C   0  0  0  0  0  0  0  0  0  0  0  0
    4.5601   -1.8054    5.7703 N   0  0  0  0  0  0  0  0  0  0  0  0
    4.1821   -0.5911    6.1369 N   0  0  0  0  0  0  0  0  0  0  0  0
    3.8613    0.1361    5.0941 C   0  0  0  0  0  0  0  0  0  0  0  0
    5.0089   -2.9649    6.5668 C   0  0  0  0  0  0  0  0  0  0  0  0
    4.6227   -4.3124    5.9670 C   0  0  0  0  0  0  0  0  0  0  0  0
    4.9074   -4.3714    4.5285 N   0  0  0  0  0  0  0  0  0  0  0  0
    4.7737   -3.1842    3.7878 C   0  0  0  0  0  0  0  0  0  0  0  0
    4.8899   -3.2857    2.5917 O   0  0  0  0  0  0  0  0  0  0  0  0
    5.2957   -5.6477    3.8978 C   0  0  0  0  0  0  0  0  0  0  0  0
   -1.6202   -3.8076    4.6267 C   0  0  0  0  0  0  0  0  0  0  0  0
   -3.2690   -1.6460    2.4466 H   0  0  0  0  0  0  0  0  0  0  0  0
   -1.0939   -0.9296    4.6422 H   0  0  0  0  0  0  0  0  0  0  0  0
    0.7766    0.5679    4.5738 H   0  0  0  0  0  0  0  0  0  0  0  0
    0.7445    0.4216    0.4289 H   0  0  0  0  0  0  0  0  0  0  0  0
   -1.1255   -1.0765    0.4971 H   0  0  0  0  0  0  0  0  0  0  0  0
    0.8925    3.3109    2.4105 H   0  0  0  0  0  0  0  0  0  0  0  0
    5.8858    4.5841    2.0938 H   0  0  0  0  0  0  0  0  0  0  0  0
    8.1308    1.9090   -1.1837 H   0  0  0  0  0  0  0  0  0  0  0  0
    6.8382    0.8546    0.5381 H   0  0  0  0  0  0  0  0  0  0  0  0
    8.9796    3.8927   -2.2313 H   0  0  0  0  0  0  0  0  0  0  0  0
    9.1414    6.2776   -2.3052 H   0  0  0  0  0  0  0  0  0  0  0  0
    8.0285    7.6197   -0.6780 H   0  0  0  0  0  0  0  0  0  0  0  0
    6.7322    6.5804    1.0481 H   0  0  0  0  0  0  0  0  0  0  0  0
    4.6192   -0.3915    1.9845 H   0  0  0  0  0  0  0  0  0  0  0  0
    3.0671   -0.8758    2.1359 H   0  0  0  0  0  0  0  0  0  0  0  0
    3.5481    1.0858    5.0978 H   0  0  0  0  0  0  0  0  0  0  0  0
    4.6023   -2.8976    7.4779 H   0  0  0  0  0  0  0  0  0  0  0  0
    6.0053   -2.9280    6.6430 H   0  0  0  0  0  0  0  0  0  0  0  0
    5.1403   -5.0325    6.4291 H   0  0  0  0  0  0  0  0  0  0  0  0
    3.6442   -4.4615    6.1095 H   0  0  0  0  0  0  0  0  0  0  0  0
    5.3341   -6.3651    4.5934 H   0  0  0  0  0  0  0  0  0  0  0  0
    4.6216   -5.8941    3.2016 H   0  0  0  0  0  0  0  0  0  0  0  0
    6.1947   -5.5487    3.4712 H   0  0  0  0  0  0  0  0  0  0  0  0
   -0.7717   -3.3078    4.8005 H   0  0  0  0  0  0  0  0  0  0  0  0
   -2.3407   -3.4599    5.2266 H   0  0  0  0  0  0  0  0  0  0  0  0
   -1.4769   -4.7806    4.8071 H   0  0  0  0  0  0  0  0  0  0  0  0
  1  2  2  0  0  0  0
  1  3  2  0  0  0  0
  1  4  1  0  0  0  0
  4  5  1  0  0  0  0
  5  6  1  0  0  0  0
  6  7  2  0  0  0  0
  7  8  1  0  0  0  0
  8  9  2  0  0  0  0
  9 10  1  0  0  0  0
 10  5  2  0  0  0  0
  8 11  1  0  0  0  0
 11 12  1  0  0  0  0
 12 13  1  0  0  0  0
 13 14  1  0  0  0  0
 14 15  1  0  0  0  0
 11 15  2  0  0  0  0
 13 16  2  0  0  0  0
 16 17  1  0  0  0  0
 17 18  1  0  0  0  0
 18 19  2  0  0  0  0
 19 20  1  0  0  0  0
 20 21  2  0  0  0  0
 21 22  1  0  0  0  0
 22 17  2  0  0  0  0
 20 23  1  0  0  0  0
 23 24  2  0  0  0  0
 24 25  1  0  0  0  0
 25 26  2  0  0  0  0
 26 19  1  0  0  0  0
 12 27  1  0  0  0  0
 27 28  1  0  0  0  0
 28 29  2  0  0  0  0
 29 30  1  0  0  0  0
 30 31  1  0  0  0  0
 31 32  2  0  0  0  0
 32 28  1  0  0  0  0
 30 33  1  0  0  0  0
 33 34  1  0  0  0  0
 34 35  1  0  0  0  0
 35 36  1  0  0  0  0
 36 29  1  0  0  0  0
 36 37  2  0  0  0  0
 35 38  1  0  0  0  0
  1 39  1  0  0  0  0
  4 40  1  0  0  0  0
  6 41  1  0  0  0  0
  7 42  1  0  0  0  0
  9 43  1  0  0  0  0
 10 44  1  0  0  0  0
 15 45  1  0  0  0  0
 18 46  1  0  0  0  0
 21 47  1  0  0  0  0
 22 48  1  0  0  0  0
 23 49  1  0  0  0  0
 24 50  1  0  0  0  0
 25 51  1  0  0  0  0
 26 52  1  0  0  0  0
 27 53  1  0  0  0  0
 27 54  1  0  0  0  0
 32 55  1  0  0  0  0
 33 56  1  0  0  0  0
 33 57  1  0  0  0  0
 34 58  1  0  0  0  0
 34 59  1  0  0  0  0
 38 60  1  0  0  0  0
 38 61  1  0  0  0  0
 38 62  1  0  0  0  0
 39 63  1  0  0  0  0
 39 64  1  0  0  0  0
 39 65  1  0  0  0  0
M  END
>  <result-rank>
40

>  <similarity>
0.875

>  <query-name>


>  <query-smiles>
S(=O)(=O)(NC(=O)C)c1ccc(cc1)C=2N3N=CC=C(N4CCOCC4)C3=NC2/C=C/c5nc6c(cc5)cccc6

>  <source>
REALspace_2019-12

>  <similarity-descriptor>
0.999;0.839;0.779;0.889;0.910;0.999;0.790;0.0;0.0;0.0;0.779;0.779;0.0

>  <similarity-descriptor-smiles>
c1ccccc1;C1C(N(CCN1)C)=O;C1=CSCN1;CC=1C=NNC1;Nc1ccccc1;c1ccccc1;S(=O)(=O)(N)C;;;;C1=CSCN1;C1=CSCN1;

>  <reaction-name>
s_2

>  <reagent1-name>
821402

>  <reagent1-smiles>
[R1*]SC([R3*])=Nc1cc2c(cc1)cccc2

>  <reagent2-name>
16506322

>  <reagent2-smiles>
[R2*]N([R3*])CC1=C2N(N=C1)CCN(C2=O)C

>  <reagent3-name>
236124

>  <reagent3-smiles>
[R2*]C(c1ccc(NS(=O)(=O)C)cc1)=C[R1*]

$$$$
s_27a____903498____802690
          04022017323D 1   1.00000     0.00000     0
            
 59 64  0  0  0  0            999 V2000
    5.2446    3.4629    0.7532 S   0  0  0  0  0  0  0  0  0  0  0  0
    4.4944    1.9435    0.9060 C   0  0  0  0  0  0  0  0  0  0  0  0
    5.1138    0.7659    1.0256 N   0  0  0  0  0  0  0  0  0  0  0  0
    4.3332   -0.3124    1.1347 C   0  0  0  0  0  0  0  0  0  0  0  0
    2.9964   -0.1961    1.1220 N   0  0  0  0  0  0  0  0  0  0  0  0
    2.4004    1.0000    1.0000 C   0  0  0  0  0  0  0  0  0  0  0  0
    1.0000    1.0000    1.0000 N   0  0  0  0  0  0  0  0  0  0  0  0
    0.3000   -0.2089    0.9073 C   0  0  0  0  0  0  0  0  0  0  0  0
   -0.6094   -0.7178    1.8589 C   0  0  0  0  0  0  0  0  0  0  0  0
   -1.0337   -1.8644    1.3836 N   0  0  0  0  0  0  0  0  0  0  0  0
   -0.4732   -2.1190    0.2221 N   0  0  0  0  0  0  0  0  0  0  0  0
    0.3710   -1.1058   -0.1136 C   0  0  0  0  0  0  0  0  0  0  0  0
   -0.7145   -3.3155   -0.5972 C   0  0  0  0  0  0  0  0  0  0  0  0
   -0.7909   -2.9193   -2.0619 C   0  0  3  0  0  0  0  0  0  0  0  0
   -1.8442   -1.9989   -2.2699 O   0  0  0  0  0  0  0  0  0  0  0  0
   -2.1142   -2.0191   -3.6651 C   0  0  0  0  0  0  0  0  0  0  0  0
   -1.7021   -3.3932   -4.1558 C   0  0  0  0  0  0  0  0  0  0  0  0
   -1.2178   -4.0998   -2.9044 C   0  0  0  0  0  0  0  0  0  0  0  0
    3.1397    2.1753    0.8844 C   0  0  0  0  0  0  0  0  0  0  0  0
    2.7981    3.5571    0.7452 C   0  0  0  0  0  0  0  0  0  0  0  0
    1.4450    4.0814    0.6926 C   0  0  0  0  0  0  0  0  0  0  0  0
    0.9615    4.5974   -0.5052 C   0  0  0  0  0  0  0  0  0  0  0  0
   -0.3327    5.1033   -0.5726 C   0  0  0  0  0  0  0  0  0  0  0  0
   -1.1279    5.0861    0.5681 C   0  0  0  0  0  0  0  0  0  0  0  0
   -2.3667    5.5665    0.5171 F   0  0  0  0  0  0  0  0  0  0  0  0
   -0.6445    4.5707    1.7657 C   0  0  0  0  0  0  0  0  0  0  0  0
    0.6491    4.0648    1.8337 C   0  0  0  0  0  0  0  0  0  0  0  0
    3.8441    4.4269    0.6606 C   0  0  0  0  0  0  0  0  0  0  0  0
    5.0371   -1.6515    1.2710 C   0  0  0  0  0  0  0  0  0  0  0  0
    5.1685   -2.0074    2.7427 C   0  0  0  0  0  0  0  0  0  0  0  0
    4.1575   -2.7340    3.3625 C   0  0  0  0  0  0  0  0  0  0  0  0
    4.2722   -3.0629    4.7093 C   0  0  0  0  0  0  0  0  0  0  0  0
    5.3986   -2.6601    5.4193 C   0  0  0  0  0  0  0  0  0  0  0  0
    5.5154   -2.9718    6.7073 F   0  0  0  0  0  0  0  0  0  0  0  0
    6.4122   -1.9324    4.8044 C   0  0  0  0  0  0  0  0  0  0  0  0
    6.2921   -1.6068    3.4576 C   0  0  0  0  0  0  0  0  0  0  0  0
    0.5000    1.8635    1.0662 H   0  0  0  0  0  0  0  0  0  0  0  0
   -0.8768   -0.2900    2.7224 H   0  0  0  0  0  0  0  0  0  0  0  0
    0.9289   -1.0350   -0.9405 H   0  0  0  0  0  0  0  0  0  0  0  0
   -1.5769   -3.7400   -0.3213 H   0  0  0  0  0  0  0  0  0  0  0  0
    0.0339   -3.9657   -0.4664 H   0  0  0  0  0  0  0  0  0  0  0  0
    0.0809   -2.5466   -2.3799 H   0  0  0  0  0  0  0  0  0  0  0  0
   -1.5836   -1.3111   -4.1311 H   0  0  0  0  0  0  0  0  0  0  0  0
   -3.0887   -1.8694   -3.8318 H   0  0  0  0  0  0  0  0  0  0  0  0
   -0.9681   -3.3239   -4.8315 H   0  0  0  0  0  0  0  0  0  0  0  0
   -2.4806   -3.8754   -4.5576 H   0  0  0  0  0  0  0  0  0  0  0  0
   -1.9524   -4.6182   -2.4666 H   0  0  0  0  0  0  0  0  0  0  0  0
   -0.4499   -4.7098   -3.0997 H   0  0  0  0  0  0  0  0  0  0  0  0
    1.5442    4.6047   -1.3179 H   0  0  0  0  0  0  0  0  0  0  0  0
   -0.6869    5.4747   -1.4309 H   0  0  0  0  0  0  0  0  0  0  0  0
   -1.2272    4.5638    2.5784 H   0  0  0  0  0  0  0  0  0  0  0  0
    1.0029    3.6936    2.6922 H   0  0  0  0  0  0  0  0  0  0  0  0
    3.7986    5.4212    0.5644 H   0  0  0  0  0  0  0  0  0  0  0  0
    5.9467   -1.5933    0.8596 H   0  0  0  0  0  0  0  0  0  0  0  0
    4.5045   -2.3571    0.8036 H   0  0  0  0  0  0  0  0  0  0  0  0
    3.3521   -3.0187    2.8425 H   0  0  0  0  0  0  0  0  0  0  0  0
    3.5503   -3.5850    5.1636 H   0  0  0  0  0  0  0  0  0  0  0  0
    7.2172   -1.6469    5.3244 H   0  0  0  0  0  0  0  0  0  0  0  0
    7.0139   -1.0846    3.0032 H   0  0  0  0  0  0  0  0  0  0  0  0
  1  2  1  0  0  0  0
  2  3  1  0  0  0  0
  3  4  2  0  0  0  0
  4  5  1  0  0  0  0
  5  6  2  0  0  0  0
  6  7  1  0  0  0  0
  7  8  1  0  0  0  0
  8  9  1  0  0  0  0
  9 10  2  0  0  0  0
 10 11  1  0  0  0  0
 11 12  1  0  0  0  0
  8 12  2  0  0  0  0
 11 13  1  0  0  0  0
 13 14  1  0  0  0  0
 14 15  1  0  0  0  0
 15 16  1  0  0  0  0
 16 17  1  0  0  0  0
 17 18  1  0  0  0  0
 18 14  1  0  0  0  0
  6 19  1  0  0  0  0
 19  2  2  0  0  0  0
 19 20  1  0  0  0  0
 20 21  1  0  0  0  0
 21 22  1  0  0  0  0
 22 23  2  0  0  0  0
 23 24  1  0  0  0  0
 24 25  1  0  0  0  0
 24 26  2  0  0  0  0
 26 27  1  0  0  0  0
 27 21  2  0  0  0  0
 20 28  2  0  0  0  0
 28  1  1  0  0  0  0
  4 29  1  0  0  0  0
 29 30  1  0  0  0  0
 30 31  1  0  0  0  0
 31 32  2  0  0  0  0
 32 33  1  0  0  0  0
 33 34  1  0  0  0  0
 33 35  2  0  0  0  0
 35 36  1  0  0  0  0
 36 30  2  0  0  0  0
  7 37  1  0  0  0  0
  9 38  1  0  0  0  0
 12 39  1  0  0  0  0
 13 40  1  0  0  0  0
 13 41  1  0  0  0  0
 14 42  1  0  0  0  0
 16 43  1  0  0  0  0
 16 44  1  0  0  0  0
 17 45  1  0  0  0  0
 17 46  1  0  0  0  0
 18 47  1  0  0  0  0
 18 48  1  0  0  0  0
 22 49  1  0  0  0  0
 23 50  1  0  0  0  0
 26 51  1  0  0  0  0
 27 52  1  0  0  0  0
 28 53  1  0  0  0  0
 29 54  1  0  0  0  0
 29 55  1  0  0  0  0
 31 56  1  0  0  0  0
 32 57  1  0  0  0  0
 35 58  1  0  0  0  0
 36 59  1  0  0  0  0
M  END
>  <result-rank>
41

>  <similarity>
0.875

>  <query-name>


>  <query-smiles>
S(=O)(=O)(NC(=O)C)c1ccc(cc1)C=2N3N=CC=C(N4CCOCC4)C3=NC2/C=C/c5nc6c(cc5)cccc6

>  <source>
REALspace_2019-12

>  <similarity-descriptor>
0.923;0.956;0.884;0.867;0.783;0.966;0.0;0.0;0.0;0.0;0.884;0.783;0.0

>  <similarity-descriptor-smiles>
Cc1ccc(cc1)F;CC1CCCO1;c1ccncn1;NC1=CNN=C1;S1C=Ccc1;c1ccc(cc1)F;;;;;c1ccncn1;S1C=Ccc1;

>  <reaction-name>
s_27a

>  <reagent1-name>
903498

>  <reagent1-smiles>
[R1*]NC=1C=NN(C1)CC2OCCC2

>  <reagent2-name>
802690

>  <reagent2-smiles>
[R1*]c1nc(nc2SC=C(c12)c3ccc(F)cc3)Cc4ccc(F)cc4

$$$$
s_2____821402____14411970____3082104
          04022017323D 1   1.00000     0.00000     0
            
 69 75  0  0  0  0            999 V2000
    2.6090    3.5373    3.4632 S   0  0  0  0  0  0  0  0  0  0  0  0
    1.3028    2.7818    2.6733 C   0  0  0  0  0  0  0  0  0  0  0  0
    0.0662    3.0420    2.8251 N   0  0  0  0  0  0  0  0  0  0  0  0
   -0.3493    3.8867    3.8611 C   0  0  0  0  0  0  0  0  0  0  0  0
   -0.5655    5.2350    3.5956 C   0  0  0  0  0  0  0  0  0  0  0  0
   -0.9787    6.0740    4.6258 C   0  0  0  0  0  0  0  0  0  0  0  0
   -1.1713    5.5598    5.9044 C   0  0  0  0  0  0  0  0  0  0  0  0
   -0.9529    4.2102    6.1610 C   0  0  0  0  0  0  0  0  0  0  0  0
   -0.5391    3.3647    5.1363 C   0  0  0  0  0  0  0  0  0  0  0  0
   -1.5854    6.3926    6.9388 C   0  0  0  0  0  0  0  0  0  0  0  0
   -1.8021    7.7409    6.6751 C   0  0  0  0  0  0  0  0  0  0  0  0
   -1.6106    8.2576    5.3978 C   0  0  0  0  0  0  0  0  0  0  0  0
   -1.1967    7.4227    4.3656 C   0  0  0  0  0  0  0  0  0  0  0  0
    1.8486    1.8486    1.8486 N   0  0  0  0  0  0  0  0  0  0  0  0
    3.2133    1.7925    1.8857 C   0  0  0  0  0  0  0  0  0  0  0  0
    4.0121    0.8800    1.0888 C   0  0  0  0  0  0  0  0  0  0  0  0
    4.6913   -0.1783    1.6847 C   0  0  0  0  0  0  0  0  0  0  0  0
    5.4769   -1.0530    0.9401 C   0  0  0  0  0  0  0  0  0  0  0  0
    6.1437   -2.1262    1.5444 N   0  0  0  0  0  0  0  0  0  0  0  0
    7.1991   -2.7552    0.8774 C   0  0  0  0  0  0  0  0  0  0  0  0
    7.8172   -3.6705    1.3980 O   0  0  0  0  0  0  0  0  0  0  0  0
    7.5431   -2.2489   -0.5148 C   0  0  3  0  0  0  0  0  0  0  0  0
    6.3964   -1.6734   -1.1255 O   0  0  0  0  0  0  0  0  0  0  0  0
    5.5900   -0.8492   -0.4266 C   0  0  0  0  0  0  0  0  0  0  0  0
    4.9002    0.1930   -1.0352 C   0  0  0  0  0  0  0  0  0  0  0  0
    4.1119    1.0625   -0.2858 C   0  0  0  0  0  0  0  0  0  0  0  0
    8.0746   -3.4171   -1.3294 C   0  0  0  0  0  0  0  0  0  0  0  0
    3.8623    2.6474    2.7236 C   0  0  0  0  0  0  0  0  0  0  0  0
    1.0000    1.0000    1.0000 C   0  0  0  0  0  0  0  0  0  0  0  0
    0.5290   -0.2048    1.7982 C   0  0  0  0  0  0  0  0  0  0  0  0
   -0.3198   -1.0536    0.9493 N   0  0  0  0  0  0  0  0  0  0  0  0
    0.1092   -2.0405    0.1941 N   0  0  0  0  0  0  0  0  0  0  0  0
   -0.8947   -2.6008   -0.4377 C   0  0  0  0  0  0  0  0  0  0  0  0
   -2.0553   -1.9017   -0.0406 C   0  0  0  0  0  0  0  0  0  0  0  0
   -1.6707   -0.9339    0.8347 C   0  0  0  0  0  0  0  0  0  0  0  0
   -3.4768   -2.1841   -0.5064 C   0  0  3  0  0  0  0  0  0  0  0  0
   -4.4149   -2.5418    0.6325 C   0  0  0  0  0  0  0  0  0  0  0  0
   -5.7051   -2.2777    0.1095 O   0  0  0  0  0  0  0  0  0  0  0  0
   -5.6004   -1.3103   -0.9241 C   0  0  0  0  0  0  0  0  0  0  0  0
   -4.1407   -0.9210   -1.0133 C   0  0  0  0  0  0  0  0  0  0  0  0
   -0.4253    5.5973    2.6742 H   0  0  0  0  0  0  0  0  0  0  0  0
   -1.0933    3.8475    7.0822 H   0  0  0  0  0  0  0  0  0  0  0  0
   -0.3801    2.3937    5.3145 H   0  0  0  0  0  0  0  0  0  0  0  0
   -1.7254    6.0270    7.8590 H   0  0  0  0  0  0  0  0  0  0  0  0
   -2.0992    8.3467    7.4132 H   0  0  0  0  0  0  0  0  0  0  0  0
   -1.7706    9.2289    5.2220 H   0  0  0  0  0  0  0  0  0  0  0  0
   -1.0571    7.7885    3.4454 H   0  0  0  0  0  0  0  0  0  0  0  0
    4.6130   -0.3136    2.6724 H   0  0  0  0  0  0  0  0  0  0  0  0
    5.8653   -2.4421    2.4515 H   0  0  0  0  0  0  0  0  0  0  0  0
    8.2567   -1.5523   -0.4408 H   0  0  0  0  0  0  0  0  0  0  0  0
    4.9711    0.3201   -2.0246 H   0  0  0  0  0  0  0  0  0  0  0  0
    3.6220    1.8112   -0.7324 H   0  0  0  0  0  0  0  0  0  0  0  0
    8.8793   -3.8007   -0.8762 H   0  0  0  0  0  0  0  0  0  0  0  0
    7.3675   -4.1202   -1.4045 H   0  0  0  0  0  0  0  0  0  0  0  0
    8.3268   -3.0989   -2.2432 H   0  0  0  0  0  0  0  0  0  0  0  0
    4.8476    2.7337    2.8714 H   0  0  0  0  0  0  0  0  0  0  0  0
    1.5251    0.6902    0.2074 H   0  0  0  0  0  0  0  0  0  0  0  0
    0.2074    1.5251    0.6902 H   0  0  0  0  0  0  0  0  0  0  0  0
    1.3217   -0.7299    2.1080 H   0  0  0  0  0  0  0  0  0  0  0  0
    0.0039    0.1050    2.5908 H   0  0  0  0  0  0  0  0  0  0  0  0
   -0.8473   -3.3704   -1.0744 H   0  0  0  0  0  0  0  0  0  0  0  0
   -2.2590   -0.2713    1.2981 H   0  0  0  0  0  0  0  0  0  0  0  0
   -3.4849   -2.8955   -1.2092 H   0  0  0  0  0  0  0  0  0  0  0  0
   -4.3221   -3.5062    0.8799 H   0  0  0  0  0  0  0  0  0  0  0  0
   -4.2332   -1.9729    1.4347 H   0  0  0  0  0  0  0  0  0  0  0  0
   -6.1573   -0.5095   -0.7037 H   0  0  0  0  0  0  0  0  0  0  0  0
   -5.9063   -1.7002   -1.7927 H   0  0  0  0  0  0  0  0  0  0  0  0
   -3.8716   -0.7163   -1.9544 H   0  0  0  0  0  0  0  0  0  0  0  0
   -3.9330   -0.1365   -0.4290 H   0  0  0  0  0  0  0  0  0  0  0  0
  1  2  1  0  0  0  0
  2  3  2  0  0  0  0
  3  4  1  0  0  0  0
  4  5  1  0  0  0  0
  5  6  2  0  0  0  0
  6  7  1  0  0  0  0
  7  8  2  0  0  0  0
  8  9  1  0  0  0  0
  9  4  2  0  0  0  0
  7 10  1  0  0  0  0
 10 11  2  0  0  0  0
 11 12  1  0  0  0  0
 12 13  2  0  0  0  0
 13  6  1  0  0  0  0
  2 14  1  0  0  0  0
 14 15  1  0  0  0  0
 15 16  1  0  0  0  0
 16 17  1  0  0  0  0
 17 18  2  0  0  0  0
 18 19  1  0  0  0  0
 19 20  1  0  0  0  0
 20 21  2  0  0  0  0
 20 22  1  0  0  0  0
 22 23  1  0  0  0  0
 23 24  1  0  0  0  0
 24 18  1  0  0  0  0
 24 25  2  0  0  0  0
 25 26  1  0  0  0  0
 26 16  2  0  0  0  0
 22 27  1  0  0  0  0
 15 28  2  0  0  0  0
 28  1  1  0  0  0  0
 14 29  1  0  0  0  0
 29 30  1  0  0  0  0
 30 31  1  0  0  0  0
 31 32  1  0  0  0  0
 32 33  2  0  0  0  0
 33 34  1  0  0  0  0
 34 35  2  0  0  0  0
 35 31  1  0  0  0  0
 34 36  1  0  0  0  0
 36 37  1  0  0  0  0
 37 38  1  0  0  0  0
 38 39  1  0  0  0  0
 39 40  1  0  0  0  0
 40 36  1  0  0  0  0
  5 41  1  0  0  0  0
  8 42  1  0  0  0  0
  9 43  1  0  0  0  0
 10 44  1  0  0  0  0
 11 45  1  0  0  0  0
 12 46  1  0  0  0  0
 13 47  1  0  0  0  0
 17 48  1  0  0  0  0
 19 49  1  0  0  0  0
 22 50  1  0  0  0  0
 25 51  1  0  0  0  0
 26 52  1  0  0  0  0
 27 53  1  0  0  0  0
 27 54  1  0  0  0  0
 27 55  1  0  0  0  0
 28 56  1  0  0  0  0
 29 57  1  0  0  0  0
 29 58  1  0  0  0  0
 30 59  1  0  0  0  0
 30 60  1  0  0  0  0
 33 61  1  0  0  0  0
 35 62  1  0  0  0  0
 36 63  1  0  0  0  0
 37 64  1  0  0  0  0
 37 65  1  0  0  0  0
 39 66  1  0  0  0  0
 39 67  1  0  0  0  0
 40 68  1  0  0  0  0
 40 69  1  0  0  0  0
M  END
>  <result-rank>
42

>  <similarity>
0.874

>  <query-name>


>  <query-smiles>
S(=O)(=O)(NC(=O)C)c1ccc(cc1)C=2N3N=CC=C(N4CCOCC4)C3=NC2/C=C/c5nc6c(cc5)cccc6

>  <source>
REALspace_2019-12

>  <similarity-descriptor>
0.938;0.976;0.779;0.829;0.910;0.999;0.694;0.694;0.694;1.000;0.779;0.779;0.0

>  <similarity-descriptor-smiles>
c1ccccc1;C1CCOC1;S1C=CNC1;CCN1C=CC=N1;Nc1ccccc1;c1ccccc1;c1cOCC(N1)=O;c1cOCC(N1)=O;c1cOCC(N1)=O;C;S1C=CNC1;S1C=CNC1;

>  <reaction-name>
s_2

>  <reagent1-name>
821402

>  <reagent1-smiles>
[R1*]SC([R3*])=Nc1cc2c(cc1)cccc2

>  <reagent2-name>
14411970

>  <reagent2-smiles>
[R2*]N([R3*])CCN1N=CC(=C1)C2COCC2

>  <reagent3-name>
3082104

>  <reagent3-smiles>
[R2*]C(c1cc2NC(=O)C(Oc2cc1)C)=C[R1*]

$$$$
s_11a____16643716____53734
          04022017323D 1   1.00000     0.00000     0
            
 59 64  0  0  0  0            999 V2000
    6.7289    1.2323    2.4904 O   0  0  0  0  0  0  0  0  0  0  0  0
    5.6674    0.6727    2.4940 C   0  0  0  0  0  0  0  0  0  0  0  0
    5.6148   -0.6963    2.4943 N   0  0  0  0  0  0  0  0  0  0  0  0
    6.7996   -1.4424    2.4904 C   0  0  0  0  0  0  0  0  0  0  0  0
    6.9114   -2.8014    2.4902 N   0  0  0  0  0  0  0  0  0  0  0  0
    8.2480   -3.0791    2.4644 C   0  0  0  0  0  0  0  0  0  0  0  0
    8.9220   -1.9505    2.4797 N   0  0  0  0  0  0  0  0  0  0  0  0
    8.0492   -0.9037    2.4900 C   0  0  0  0  0  0  0  0  0  0  0  0
    8.9022   -4.4553    2.4075 C   0  0  0  0  0  0  0  0  0  0  0  0
    8.1185   -5.4439    1.5576 C   0  0  0  0  0  0  0  0  0  0  0  0
    7.0091   -6.0538    2.2144 O   0  0  0  0  0  0  0  0  0  0  0  0
    6.2804   -5.1963    3.0931 C   0  0  0  0  0  0  0  0  0  0  0  0
    5.8699   -3.8507    2.5000 C   0  0  0  0  0  0  0  0  0  0  0  0
    4.3812    1.4826    2.4982 C   0  0  0  0  0  0  0  0  0  0  0  0
    4.3698    2.8769    2.4981 C   0  0  0  0  0  0  0  0  0  0  0  0
    3.1472    3.5433    2.5017 C   0  0  0  0  0  0  0  0  0  0  0  0
    2.0021    2.8437    2.5053 N   0  0  0  0  0  0  0  0  0  0  0  0
    1.9969    1.5018    2.5051 C   0  0  0  0  0  0  0  0  0  0  0  0
    0.7548    0.7529    2.5084 C   0  0  0  0  0  0  0  0  0  0  0  0
    0.7913   -0.6380    2.5081 C   0  0  0  0  0  0  0  0  0  0  0  0
   -0.4015   -1.3537    2.5107 C   0  0  0  0  0  0  0  0  0  0  0  0
   -1.6140   -0.6720    2.5138 C   0  0  0  0  0  0  0  0  0  0  0  0
   -2.8554   -1.4218    2.5156 C   0  0  0  0  0  0  0  0  0  0  0  0
   -4.0700   -0.7438    2.5188 C   0  0  0  0  0  0  0  0  0  0  0  0
   -5.2583   -1.4669    2.5214 C   0  0  0  0  0  0  0  0  0  0  0  0
   -5.2264   -2.8575    2.5196 C   0  0  0  0  0  0  0  0  0  0  0  0
   -4.0073   -3.5241    2.5160 C   0  0  0  0  0  0  0  0  0  0  0  0
   -2.8121   -2.8125    2.5140 C   0  0  0  0  0  0  0  0  0  0  0  0
   -1.6503    0.7185    2.5142 C   0  0  0  0  0  0  0  0  0  0  0  0
   -0.4576    1.4353    2.5115 C   0  0  0  0  0  0  0  0  0  0  0  0
    3.1833    0.7780    2.5015 C   0  0  0  0  0  0  0  0  0  0  0  0
    3.1251    4.9345    2.5024 C   0  0  0  0  0  0  0  0  0  0  0  0
    4.3041    5.6719    2.4991 C   0  0  0  0  0  0  0  0  0  0  0  0
    5.5319    5.0200    2.4952 C   0  0  0  0  0  0  0  0  0  0  0  0
    5.5429    3.6294    2.4950 C   0  0  0  0  0  0  0  0  0  0  0  0
    4.7302   -1.1627    2.4973 H   0  0  0  0  0  0  0  0  0  0  0  0
    8.2814    0.0690    2.4960 H   0  0  0  0  0  0  0  0  0  0  0  0
    8.9694   -4.8162    3.3377 H   0  0  0  0  0  0  0  0  0  0  0  0
    9.8193   -4.3577    2.0208 H   0  0  0  0  0  0  0  0  0  0  0  0
    7.7748   -4.9582    0.7538 H   0  0  0  0  0  0  0  0  0  0  0  0
    8.7440   -6.1681    1.2673 H   0  0  0  0  0  0  0  0  0  0  0  0
    6.8509   -5.0192    3.8952 H   0  0  0  0  0  0  0  0  0  0  0  0
    5.4495   -5.6763    3.3744 H   0  0  0  0  0  0  0  0  0  0  0  0
    5.5847   -4.0075    1.5545 H   0  0  0  0  0  0  0  0  0  0  0  0
    5.0943   -3.5070    3.0295 H   0  0  0  0  0  0  0  0  0  0  0  0
    1.6679   -1.1192    2.5061 H   0  0  0  0  0  0  0  0  0  0  0  0
   -0.3874   -2.3536    2.5103 H   0  0  0  0  0  0  0  0  0  0  0  0
   -4.0887    0.2560    2.5191 H   0  0  0  0  0  0  0  0  0  0  0  0
   -6.1356   -0.9870    2.5246 H   0  0  0  0  0  0  0  0  0  0  0  0
   -6.0806   -3.3774    2.5209 H   0  0  0  0  0  0  0  0  0  0  0  0
   -3.9889   -4.5239    2.5148 H   0  0  0  0  0  0  0  0  0  0  0  0
   -1.9351   -3.2930    2.5113 H   0  0  0  0  0  0  0  0  0  0  0  0
   -2.5270    1.1995    2.5163 H   0  0  0  0  0  0  0  0  0  0  0  0
   -0.4719    2.4352    2.5118 H   0  0  0  0  0  0  0  0  0  0  0  0
    3.1752   -0.2220    2.5012 H   0  0  0  0  0  0  0  0  0  0  0  0
    2.2466    5.4122    2.5053 H   0  0  0  0  0  0  0  0  0  0  0  0
    4.2687    6.6713    2.4994 H   0  0  0  0  0  0  0  0  0  0  0  0
    6.3868    5.5387    2.4927 H   0  0  0  0  0  0  0  0  0  0  0  0
    6.4222    3.1533    2.4925 H   0  0  0  0  0  0  0  0  0  0  0  0
  1  2  2  0  0  0  0
  2  3  1  0  0  0  0
  3  4  1  0  0  0  0
  4  5  1  0  0  0  0
  5  6  1  0  0  0  0
  6  7  2  0  0  0  0
  7  8  1  0  0  0  0
  4  8  2  0  0  0  0
  6  9  1  0  0  0  0
  9 10  1  0  0  0  0
 10 11  1  0  0  0  0
 11 12  1  0  0  0  0
 12 13  1  0  0  0  0
 13  5  1  0  0  0  0
  2 14  1  0  0  0  0
 14 15  1  0  0  0  0
 15 16  2  0  0  0  0
 16 17  1  0  0  0  0
 17 18  2  0  0  0  0
 18 19  1  0  0  0  0
 19 20  1  0  0  0  0
 20 21  2  0  0  0  0
 21 22  1  0  0  0  0
 22 23  1  0  0  0  0
 23 24  1  0  0  0  0
 24 25  2  0  0  0  0
 25 26  1  0  0  0  0
 26 27  2  0  0  0  0
 27 28  1  0  0  0  0
 28 23  2  0  0  0  0
 22 29  2  0  0  0  0
 29 30  1  0  0  0  0
 30 19  2  0  0  0  0
 18 31  1  0  0  0  0
 31 14  2  0  0  0  0
 16 32  1  0  0  0  0
 32 33  2  0  0  0  0
 33 34  1  0  0  0  0
 34 35  2  0  0  0  0
 35 15  1  0  0  0  0
  3 36  1  0  0  0  0
  8 37  1  0  0  0  0
  9 38  1  0  0  0  0
  9 39  1  0  0  0  0
 10 40  1  0  0  0  0
 10 41  1  0  0  0  0
 12 42  1  0  0  0  0
 12 43  1  0  0  0  0
 13 44  1  0  0  0  0
 13 45  1  0  0  0  0
 20 46  1  0  0  0  0
 21 47  1  0  0  0  0
 24 48  1  0  0  0  0
 25 49  1  0  0  0  0
 26 50  1  0  0  0  0
 27 51  1  0  0  0  0
 28 52  1  0  0  0  0
 29 53  1  0  0  0  0
 30 54  1  0  0  0  0
 31 55  1  0  0  0  0
 32 56  1  0  0  0  0
 33 57  1  0  0  0  0
 34 58  1  0  0  0  0
 35 59  1  0  0  0  0
M  END
>  <result-rank>
43

>  <similarity>
0.874

>  <query-name>


>  <query-smiles>
S(=O)(=O)(NC(=O)C)c1ccc(cc1)C=2N3N=CC=C(N4CCOCC4)C3=NC2/C=C/c5nc6c(cc5)cccc6

>  <source>
REALspace_2019-12

>  <similarity-descriptor>
0.983;0.964;0.930;0.755;0.846;0.942;0.0;0.0;0.0;0.0;0.930;0.846;0.0

>  <similarity-descriptor-smiles>
c1ccccc1;N1CCOCCC1;c1ccncc1;O=CNC1=CN=CN1;c1ccccc1;c1ccccc1;;;;;c1ccncc1;c1ccccc1;

>  <reaction-name>
s_11a

>  <reagent1-name>
16643716

>  <reagent1-smiles>
[R1*]NC=1N2C(=NC1)CCOCC2

>  <reagent2-name>
53734

>  <reagent2-smiles>
[R1*]C(=O)c1c2c(nc(c3ccc(c4ccccc4)cc3)c1)cccc2

$$$$
m_273170____14188226____10762266____10766638
          04022017323D 1   1.00000     0.00000     0
            
 67 72  0  0  0  0            999 V2000
   -0.3194    2.3941   -4.4978 Cl  0  0  0  0  0  0  0  0  0  0  0  0
    1.3732    2.9273   -4.6035 C   0  0  0  0  0  0  0  0  0  0  0  0
    2.0836    3.1388   -3.3956 C   0  0  0  0  0  0  0  0  0  0  0  0
    1.7088    3.0135   -2.1443 N   0  0  0  0  0  0  0  0  0  0  0  0
    2.7795    3.3446   -1.3678 C   0  0  0  0  0  0  0  0  0  0  0  0
    3.8215    3.6765   -2.1789 C   0  0  0  0  0  0  0  0  0  0  0  0
    3.3750    3.5431   -3.4604 N   0  0  0  0  0  0  0  0  0  0  0  0
    3.9945    3.7510   -4.6659 C   0  0  0  0  0  0  0  0  0  0  0  0
    3.3265    3.5526   -5.8471 C   0  0  0  0  0  0  0  0  0  0  0  0
    4.0832    3.8057   -7.4381 Cl  0  0  0  0  0  0  0  0  0  0  0  0
    1.9735    3.1280   -5.8155 C   0  0  0  0  0  0  0  0  0  0  0  0
    2.8010    3.3415    0.1519 C   0  0  0  0  0  0  0  0  0  0  0  0
    3.2232    2.0176    0.6335 N   0  0  0  0  0  0  0  0  0  0  0  0
    2.4017    1.0000    1.0000 C   0  0  0  0  0  0  0  0  0  0  0  0
    3.1912    0.0177    1.3579 N   0  0  0  0  0  0  0  0  0  0  0  0
    4.4560    0.3552    1.2392 N   0  0  0  0  0  0  0  0  0  0  0  0
    4.5040    1.5898    0.7919 C   0  0  0  0  0  0  0  0  0  0  0  0
    5.7075    2.3525    0.5187 C   0  0  0  0  0  0  0  0  0  0  0  0
    6.2850    2.4835   -0.7163 N   0  0  0  0  0  0  0  0  0  0  0  0
    7.3707    3.2143   -0.7603 C   0  0  0  0  0  0  0  0  0  0  0  0
    7.6589    3.7387    0.8329 S   0  0  0  0  0  0  0  0  0  0  0  0
    6.3157    2.9825    1.5570 C   0  0  0  0  0  0  0  0  0  0  0  0
    8.1530    3.5063   -1.8839 N   0  0  0  0  0  0  0  0  0  0  0  0
    9.3520    4.3443   -1.7262 C   0  0  0  0  0  0  0  0  0  0  0  0
   10.4384    3.9313   -2.7072 C   0  0  0  0  0  0  0  0  0  0  0  0
    9.9149    3.7480   -4.0164 O   0  0  0  0  0  0  0  0  0  0  0  0
    8.9960    2.6636   -4.0435 C   0  0  0  0  0  0  0  0  0  0  0  0
    7.7697    2.9485   -3.1897 C   0  0  0  0  0  0  0  0  0  0  0  0
    1.0000    1.0000    1.0000 N   0  0  0  0  0  0  0  0  0  0  0  0
    0.2650   -0.2731    1.0004 C   0  0  0  0  0  0  0  0  0  0  0  0
    0.2272   -0.8368   -0.4108 C   0  0  0  0  0  0  0  0  0  0  0  0
   -0.8245   -0.4917   -1.2530 C   0  0  0  0  0  0  0  0  0  0  0  0
   -0.8537   -1.0102   -2.5434 C   0  0  0  0  0  0  0  0  0  0  0  0
   -1.9068   -0.6700   -3.4003 N   0  3  0  0  0  0  0  0  0  0  0  0
   -1.9406   -1.1199   -4.5338 O   0  5  0  0  0  0  0  0  0  0  0  0
   -2.7837    0.0704   -3.0168 O   0  0  0  0  0  0  0  0  0  0  0  0
    0.1474   -1.8621   -2.9971 C   0  0  0  0  0  0  0  0  0  0  0  0
    1.1891   -2.1934   -2.1376 C   0  0  0  0  0  0  0  0  0  0  0  0
    1.2398   -1.6868   -0.8427 C   0  0  0  0  0  0  0  0  0  0  0  0
    0.2650    2.2731    0.9996 C   0  0  0  0  0  0  0  0  0  0  0  0
   -0.0965    2.6499    2.4270 C   0  0  0  0  0  0  0  0  0  0  0  0
   -1.3434    2.7931    2.7656 C   0  0  0  0  0  0  0  0  0  0  0  0
    4.7355    3.9624   -1.8910 H   0  0  0  0  0  0  0  0  0  0  0  0
    4.9480    4.0519   -4.6841 H   0  0  0  0  0  0  0  0  0  0  0  0
    1.4675    2.9781   -6.6649 H   0  0  0  0  0  0  0  0  0  0  0  0
    3.4435    4.0351    0.4776 H   0  0  0  0  0  0  0  0  0  0  0  0
    1.8856    3.5460    0.4986 H   0  0  0  0  0  0  0  0  0  0  0  0
    6.0402    2.9984    2.5182 H   0  0  0  0  0  0  0  0  0  0  0  0
    9.6991    4.2463   -0.7935 H   0  0  0  0  0  0  0  0  0  0  0  0
    9.1075    5.2996   -1.8922 H   0  0  0  0  0  0  0  0  0  0  0  0
   11.1398    4.6436   -2.7343 H   0  0  0  0  0  0  0  0  0  0  0  0
   10.8470    3.0728   -2.3973 H   0  0  0  0  0  0  0  0  0  0  0  0
    9.4507    1.8439   -3.6953 H   0  0  0  0  0  0  0  0  0  0  0  0
    8.7053    2.5080   -4.9876 H   0  0  0  0  0  0  0  0  0  0  0  0
    7.1849    3.6048   -3.6665 H   0  0  0  0  0  0  0  0  0  0  0  0
    7.2664    2.0964   -3.0461 H   0  0  0  0  0  0  0  0  0  0  0  0
   -0.6689   -0.1186    1.3228 H   0  0  0  0  0  0  0  0  0  0  0  0
    0.7238   -0.9226    1.6067 H   0  0  0  0  0  0  0  0  0  0  0  0
   -1.5489    0.1202   -0.9356 H   0  0  0  0  0  0  0  0  0  0  0  0
    0.1186   -2.2305   -3.9263 H   0  0  0  0  0  0  0  0  0  0  0  0
    1.9133   -2.8054   -2.4552 H   0  0  0  0  0  0  0  0  0  0  0  0
    1.9931   -1.9301   -0.2318 H   0  0  0  0  0  0  0  0  0  0  0  0
   -0.5705    2.1754    0.4588 H   0  0  0  0  0  0  0  0  0  0  0  0
    0.8383    2.9888    0.6009 H   0  0  0  0  0  0  0  0  0  0  0  0
    0.6249    2.7876    3.1058 H   0  0  0  0  0  0  0  0  0  0  0  0
   -1.5813    3.0410    3.7047 H   0  0  0  0  0  0  0  0  0  0  0  0
   -2.0648    2.6553    2.0869 H   0  0  0  0  0  0  0  0  0  0  0  0
  1  2  1  0  0  0  0
  2  3  1  0  0  0  0
  3  4  2  0  0  0  0
  4  5  1  0  0  0  0
  5  6  2  0  0  0  0
  6  7  1  0  0  0  0
  7  3  1  0  0  0  0
  7  8  1  0  0  0  0
  8  9  2  0  0  0  0
  9 10  1  0  0  0  0
  9 11  1  0  0  0  0
  2 11  2  0  0  0  0
  5 12  1  0  0  0  0
 12 13  1  0  0  0  0
 13 14  1  0  0  0  0
 14 15  2  0  0  0  0
 15 16  1  0  0  0  0
 16 17  2  0  0  0  0
 17 13  1  0  0  0  0
 17 18  1  0  0  0  0
 18 19  1  0  0  0  0
 19 20  2  0  0  0  0
 20 21  1  0  0  0  0
 21 22  1  0  0  0  0
 18 22  2  0  0  0  0
 20 23  1  0  0  0  0
 23 24  1  0  0  0  0
 24 25  1  0  0  0  0
 25 26  1  0  0  0  0
 26 27  1  0  0  0  0
 27 28  1  0  0  0  0
 28 23  1  0  0  0  0
 14 29  1  0  0  0  0
 29 30  1  0  0  0  0
 30 31  1  0  0  0  0
 31 32  1  0  0  0  0
 32 33  2  0  0  0  0
 33 34  1  0  0  0  0
 34 35  1  0  0  0  0
 34 36  2  0  0  0  0
 33 37  1  0  0  0  0
 37 38  2  0  0  0  0
 38 39  1  0  0  0  0
 39 31  2  0  0  0  0
 29 40  1  0  0  0  0
 40 41  1  0  0  0  0
 41 42  2  0  0  0  0
  6 43  1  0  0  0  0
  8 44  1  0  0  0  0
 11 45  1  0  0  0  0
 12 46  1  0  0  0  0
 12 47  1  0  0  0  0
 22 48  1  0  0  0  0
 24 49  1  0  0  0  0
 24 50  1  0  0  0  0
 25 51  1  0  0  0  0
 25 52  1  0  0  0  0
 27 53  1  0  0  0  0
 27 54  1  0  0  0  0
 28 55  1  0  0  0  0
 28 56  1  0  0  0  0
 30 57  1  0  0  0  0
 30 58  1  0  0  0  0
 32 59  1  0  0  0  0
 37 60  1  0  0  0  0
 38 61  1  0  0  0  0
 39 62  1  0  0  0  0
 40 63  1  0  0  0  0
 40 64  1  0  0  0  0
 41 65  1  0  0  0  0
 42 66  1  0  0  0  0
 42 67  1  0  0  0  0
M  CHG  2  34   1  35  -1
M  END
>  <result-rank>
44

>  <similarity>
0.873

>  <query-name>


>  <query-smiles>
S(=O)(=O)(NC(=O)C)c1ccc(cc1)C=2N3N=CC=C(N4CCOCC4)C3=NC2/C=C/c5nc6c(cc5)cccc6

>  <source>
REALspace_2019-12

>  <similarity-descriptor>
0.928;1.000;0.729;0.961;0.858;0.856;0.975;0.0;0.0;0.0;0.729;0.729;0.231

>  <similarity-descriptor-smiles>
NCc1ccccc1;N1CCOCC1;N1C=NN=C1;C1=CSC=N1;C=1NC=C(N1)C;ClC1=CC(=CNC1)Cl;[N+]([O-])=O;;;;N1C=NN=C1;N1C=NN=C1;C.C.C

>  <reaction-name>
m_273170

>  <reagent1-name>
14188226

>  <reagent1-smiles>
[R2*]=C([R1*])N([R3*])CC=1N=C2N(C=C(Cl)C=C2Cl)C1

>  <reagent2-name>
10762266

>  <reagent2-smiles>
[R1*]N(Cc1cc([N+]([O-])=O)ccc1)CC=C

>  <reagent3-name>
10766638

>  <reagent3-smiles>
[R2*]=NN=C([R3*])C=1N=C(SC1)N2CCOCC2

$$$$
m_273170____10758976____10761990____10766638
          04022017323D 1   1.00000     0.00000     0
            
 78 83  0  0  0  0            999 V2000
    4.5942   -2.3414    3.2283 S   0  0  0  0  0  0  0  0  0  0  0  0
    4.7934   -2.0272    1.5675 C   0  0  0  0  0  0  0  0  0  0  0  0
    4.3649   -0.8057    1.3703 N   0  0  0  0  0  0  0  0  0  0  0  0
    3.9082   -0.1501    2.4826 C   0  0  0  0  0  0  0  0  0  0  0  0
    3.3905    1.2051    2.4893 C   0  0  0  0  0  0  0  0  0  0  0  0
    4.1071    2.3065    2.4903 N   0  0  0  0  0  0  0  0  0  0  0  0
    3.2789    3.3271    2.4974 N   0  0  0  0  0  0  0  0  0  0  0  0
    2.0315    2.9267    2.5008 C   0  0  0  0  0  0  0  0  0  0  0  0
    2.0806    1.5694    2.4959 N   0  0  0  0  0  0  0  0  0  0  0  0
    0.9245    0.6605    2.4981 C   0  0  0  0  0  0  0  0  0  0  0  0
    0.5987    0.2566    1.0792 C   0  0  0  0  0  0  0  0  0  0  0  0
    0.4532    1.1513    0.0546 N   0  0  0  0  0  0  0  0  0  0  0  0
    0.1608    0.6301   -1.1089 C   0  0  0  0  0  0  0  0  0  0  0  0
    0.0919   -1.0560   -0.8784 S   0  0  0  0  0  0  0  0  0  0  0  0
    0.4440   -1.0613    0.7901 C   0  0  0  0  0  0  0  0  0  0  0  0
   -0.0780    1.3148   -2.4454 C   0  0  0  0  0  0  0  0  0  0  0  0
   -1.4756    0.9828   -2.9422 C   0  0  0  0  0  0  0  0  0  0  0  0
   -1.7144    1.6674   -4.2784 C   0  0  0  0  0  0  0  0  0  0  0  0
   -1.3879    1.0077   -5.4588 C   0  0  0  0  0  0  0  0  0  0  0  0
   -1.6073    1.6382   -6.6792 C   0  0  0  0  0  0  0  0  0  0  0  0
   -2.1506    2.9182   -6.7132 C   0  0  0  0  0  0  0  0  0  0  0  0
   -2.4733    3.5673   -5.5279 C   0  0  0  0  0  0  0  0  0  0  0  0
   -2.2582    2.9479   -4.3011 C   0  0  0  0  0  0  0  0  0  0  0  0
    0.8853    3.7336    2.5048 N   0  0  0  0  0  0  0  0  0  0  0  0
   -0.4030    3.1782    2.9437 C   0  0  0  0  0  0  0  0  0  0  0  0
   -0.7332    3.7006    4.3324 C   0  0  0  0  0  0  0  0  0  0  0  0
   -1.4934    3.5986    1.9718 C   0  0  0  0  0  0  0  0  0  0  0  0
    0.9717    5.1351    2.0699 C   0  0  0  0  0  0  0  0  0  0  0  0
    2.0722    5.2765    1.0311 C   0  0  0  0  0  0  0  0  0  0  0  0
    1.8902    4.7231   -0.2323 C   0  0  0  0  0  0  0  0  0  0  0  0
    2.8988    4.8538   -1.1816 C   0  0  0  0  0  0  0  0  0  0  0  0
    4.0704    5.5319   -0.8622 C   0  0  0  0  0  0  0  0  0  0  0  0
    5.0836    5.6626   -1.8198 N   0  3  0  0  0  0  0  0  0  0  0  0
    6.2343    5.8621   -1.4671 O   0  5  0  0  0  0  0  0  0  0  0  0
    4.8178    5.5776   -2.9972 O   0  0  0  0  0  0  0  0  0  0  0  0
    4.2494    6.0844    0.4018 C   0  0  0  0  0  0  0  0  0  0  0  0
    3.2428    5.9552    1.3531 C   0  0  0  0  0  0  0  0  0  0  0  0
    3.9425   -0.8281    3.6591 C   0  0  0  0  0  0  0  0  0  0  0  0
    5.3063   -2.9122    0.6117 N   0  0  0  0  0  0  0  0  0  0  0  0
    5.4101   -2.4752   -0.7893 C   0  0  0  0  0  0  0  0  0  0  0  0
    6.6111   -3.1121   -1.4714 C   0  0  0  0  0  0  0  0  0  0  0  0
    6.6883   -4.5047   -1.1950 O   0  0  0  0  0  0  0  0  0  0  0  0
    6.9185   -4.7308    0.1896 C   0  0  0  0  0  0  0  0  0  0  0  0
    5.7507   -4.2484    1.0365 C   0  0  0  0  0  0  0  0  0  0  0  0
    0.1362    1.1248    2.9018 H   0  0  0  0  0  0  0  0  0  0  0  0
    1.1422   -0.1546    3.0350 H   0  0  0  0  0  0  0  0  0  0  0  0
    0.5186   -1.8452    1.4066 H   0  0  0  0  0  0  0  0  0  0  0  0
    0.5969    0.9938   -3.1097 H   0  0  0  0  0  0  0  0  0  0  0  0
    0.0094    2.3047   -2.3331 H   0  0  0  0  0  0  0  0  0  0  0  0
   -1.5631   -0.0070   -3.0545 H   0  0  0  0  0  0  0  0  0  0  0  0
   -2.1506    1.3038   -2.2778 H   0  0  0  0  0  0  0  0  0  0  0  0
   -0.9984    0.0872   -5.4301 H   0  0  0  0  0  0  0  0  0  0  0  0
   -1.3744    1.1711   -7.5322 H   0  0  0  0  0  0  0  0  0  0  0  0
   -2.3088    3.3711   -7.5906 H   0  0  0  0  0  0  0  0  0  0  0  0
   -2.8635    4.4875   -5.5570 H   0  0  0  0  0  0  0  0  0  0  0  0
   -2.4908    3.4158   -3.4484 H   0  0  0  0  0  0  0  0  0  0  0  0
   -0.3448    2.1802    2.9681 H   0  0  0  0  0  0  0  0  0  0  0  0
   -1.6096    3.3228    4.6310 H   0  0  0  0  0  0  0  0  0  0  0  0
   -0.0158    3.4241    4.9718 H   0  0  0  0  0  0  0  0  0  0  0  0
   -0.7913    4.6986    4.3080 H   0  0  0  0  0  0  0  0  0  0  0  0
   -2.3699    3.2208    2.2704 H   0  0  0  0  0  0  0  0  0  0  0  0
   -1.5516    4.5966    1.9474 H   0  0  0  0  0  0  0  0  0  0  0  0
   -1.2762    3.2549    1.0581 H   0  0  0  0  0  0  0  0  0  0  0  0
    1.1795    5.7161    2.8569 H   0  0  0  0  0  0  0  0  0  0  0  0
    0.0985    5.4146    1.6706 H   0  0  0  0  0  0  0  0  0  0  0  0
    1.0449    4.2374   -0.4552 H   0  0  0  0  0  0  0  0  0  0  0  0
    2.7814    4.4603   -2.0934 H   0  0  0  0  0  0  0  0  0  0  0  0
    5.0944    6.5705    0.6246 H   0  0  0  0  0  0  0  0  0  0  0  0
    3.3604    6.3486    2.2650 H   0  0  0  0  0  0  0  0  0  0  0  0
    3.6538   -0.5134    4.5633 H   0  0  0  0  0  0  0  0  0  0  0  0
    5.5089   -1.4804   -0.8152 H   0  0  0  0  0  0  0  0  0  0  0  0
    4.5784   -2.7403   -1.2771 H   0  0  0  0  0  0  0  0  0  0  0  0
    6.5313   -2.9808   -2.4595 H   0  0  0  0  0  0  0  0  0  0  0  0
    7.4448   -2.6687   -1.1424 H   0  0  0  0  0  0  0  0  0  0  0  0
    7.7446   -4.2397    0.4658 H   0  0  0  0  0  0  0  0  0  0  0  0
    7.0467   -5.7109    0.3416 H   0  0  0  0  0  0  0  0  0  0  0  0
    4.9905   -4.8911    0.9413 H   0  0  0  0  0  0  0  0  0  0  0  0
    6.0359   -4.2088    1.9941 H   0  0  0  0  0  0  0  0  0  0  0  0
  1  2  1  0  0  0  0
  2  3  2  0  0  0  0
  3  4  1  0  0  0  0
  4  5  1  0  0  0  0
  5  6  2  0  0  0  0
  6  7  1  0  0  0  0
  7  8  2  0  0  0  0
  8  9  1  0  0  0  0
  9  5  1  0  0  0  0
  9 10  1  0  0  0  0
 10 11  1  0  0  0  0
 11 12  1  0  0  0  0
 12 13  2  0  0  0  0
 13 14  1  0  0  0  0
 14 15  1  0  0  0  0
 11 15  2  0  0  0  0
 13 16  1  0  0  0  0
 16 17  1  0  0  0  0
 17 18  1  0  0  0  0
 18 19  1  0  0  0  0
 19 20  2  0  0  0  0
 20 21  1  0  0  0  0
 21 22  2  0  0  0  0
 22 23  1  0  0  0  0
 23 18  2  0  0  0  0
  8 24  1  0  0  0  0
 24 25  1  0  0  0  0
 25 26  1  0  0  0  0
 25 27  1  0  0  0  0
 24 28  1  0  0  0  0
 28 29  1  0  0  0  0
 29 30  1  0  0  0  0
 30 31  2  0  0  0  0
 31 32  1  0  0  0  0
 32 33  1  0  0  0  0
 33 34  1  0  0  0  0
 33 35  2  0  0  0  0
 32 36  2  0  0  0  0
 36 37  1  0  0  0  0
 37 29  2  0  0  0  0
  4 38  2  0  0  0  0
 38  1  1  0  0  0  0
  2 39  1  0  0  0  0
 39 40  1  0  0  0  0
 40 41  1  0  0  0  0
 41 42  1  0  0  0  0
 42 43  1  0  0  0  0
 43 44  1  0  0  0  0
 44 39  1  0  0  0  0
 10 45  1  0  0  0  0
 10 46  1  0  0  0  0
 15 47  1  0  0  0  0
 16 48  1  0  0  0  0
 16 49  1  0  0  0  0
 17 50  1  0  0  0  0
 17 51  1  0  0  0  0
 19 52  1  0  0  0  0
 20 53  1  0  0  0  0
 21 54  1  0  0  0  0
 22 55  1  0  0  0  0
 23 56  1  0  0  0  0
 25 57  1  0  0  0  0
 26 58  1  0  0  0  0
 26 59  1  0  0  0  0
 26 60  1  0  0  0  0
 27 61  1  0  0  0  0
 27 62  1  0  0  0  0
 27 63  1  0  0  0  0
 28 64  1  0  0  0  0
 28 65  1  0  0  0  0
 30 66  1  0  0  0  0
 31 67  1  0  0  0  0
 36 68  1  0  0  0  0
 37 69  1  0  0  0  0
 38 70  1  0  0  0  0
 40 71  1  0  0  0  0
 40 72  1  0  0  0  0
 41 73  1  0  0  0  0
 41 74  1  0  0  0  0
 43 75  1  0  0  0  0
 43 76  1  0  0  0  0
 44 77  1  0  0  0  0
 44 78  1  0  0  0  0
M  CHG  2  33   1  34  -1
M  END
>  <result-rank>
45

>  <similarity>
0.873

>  <query-name>


>  <query-smiles>
S(=O)(=O)(NC(=O)C)c1ccc(cc1)C=2N3N=CC=C(N4CCOCC4)C3=NC2/C=C/c5nc6c(cc5)cccc6

>  <source>
REALspace_2019-12

>  <similarity-descriptor>
0.928;1.000;0.797;0.961;0.928;0.836;0.975;0.0;0.0;0.0;0.797;0.253;0.200

>  <similarity-descriptor-smiles>
NCc1ccccc1;N1CCOCC1;C=1NC=NN1;S1C=CN=C1;C1=CSC=N1;CCc1ccccc1;[N+]([O-])=O;;;;C=1NC=NN1;C;C.C.C

>  <reaction-name>
m_273170

>  <reagent1-name>
10758976

>  <reagent1-smiles>
[R2*]=C([R1*])N([R3*])CC=1N=C(SC1)CCc2ccccc2

>  <reagent2-name>
10761990

>  <reagent2-smiles>
[R1*]N(C(C)C)Cc1ccc([N+]([O-])=O)cc1

>  <reagent3-name>
10766638

>  <reagent3-smiles>
[R2*]=NN=C([R3*])C=1N=C(SC1)N2CCOCC2

$$$$
m_273170____10756154____10763080____10755784
          04022017323D 1   1.00000     0.00000     0
            
 78 83  0  0  0  0            999 V2000
   -0.5841   -0.6014   -1.0691 S   0  0  0  0  0  0  0  0  0  0  0  0
   -0.9518   -1.3266   -2.2576 O   0  0  0  0  0  0  0  0  0  0  0  0
   -0.0763   -1.5205   -0.0837 O   0  0  0  0  0  0  0  0  0  0  0  0
   -1.8936    0.1650   -0.4734 N   0  0  0  0  0  0  0  0  0  0  0  0
   -2.4120    1.1033   -1.4792 C   0  0  0  0  0  0  0  0  0  0  0  0
   -2.9314   -0.8224   -0.1435 C   0  0  0  0  0  0  0  0  0  0  0  0
    0.6445    0.5676   -1.4596 C   0  0  0  0  0  0  0  0  0  0  0  0
    1.3249    1.2596   -0.4622 C   0  0  0  0  0  0  0  0  0  0  0  0
    2.3022    2.1890   -0.8030 C   0  0  0  0  0  0  0  0  0  0  0  0
    2.5995    2.4265   -2.1411 C   0  0  0  0  0  0  0  0  0  0  0  0
    1.9137    1.7291   -3.1300 C   0  0  0  0  0  0  0  0  0  0  0  0
    0.9343    0.7976   -2.8003 C   0  0  0  0  0  0  0  0  0  0  0  0
    1.0000    1.0000    1.0000 C   0  0  0  0  0  0  0  0  0  0  0  0
    1.8491    1.8491    1.8491 N   0  0  0  0  0  0  0  0  0  0  0  0
    3.1106    1.5609    2.2618 C   0  0  0  0  0  0  0  0  0  0  0  0
    3.4876    2.5822    2.9906 N   0  0  0  0  0  0  0  0  0  0  0  0
    2.5421    3.4925    3.0611 N   0  0  0  0  0  0  0  0  0  0  0  0
    1.5156    3.0632    2.3622 C   0  0  0  0  0  0  0  0  0  0  0  0
    0.2578    3.7618    2.1755 C   0  0  0  0  0  0  0  0  0  0  0  0
    0.0512    4.5901    1.1383 N   0  0  0  0  0  0  0  0  0  0  0  0
   -1.1098    5.2412    0.9568 C   0  0  0  0  0  0  0  0  0  0  0  0
   -2.1530    5.0684    1.8628 C   0  0  0  0  0  0  0  0  0  0  0  0
   -1.9658    4.2161    2.9461 C   0  0  0  0  0  0  0  0  0  0  0  0
   -0.7524    3.5548    3.1095 C   0  0  0  0  0  0  0  0  0  0  0  0
   -3.3672    5.7278    1.7028 C   0  0  0  0  0  0  0  0  0  0  0  0
   -3.5345    6.5759    0.6132 C   0  0  0  0  0  0  0  0  0  0  0  0
   -2.5084    6.7658   -0.3063 C   0  0  0  0  0  0  0  0  0  0  0  0
   -1.3033    6.0950   -0.1247 C   0  0  0  0  0  0  0  0  0  0  0  0
    3.8548    0.4089    1.9726 N   0  0  0  0  0  0  0  0  0  0  0  0
    3.1722   -0.8149    1.5283 C   0  0  0  0  0  0  0  0  0  0  0  0
    4.0941   -1.6060    0.6146 C   0  0  0  0  0  0  0  0  0  0  0  0
    4.5533   -2.8592    1.0059 C   0  0  0  0  0  0  0  0  0  0  0  0
    4.1778   -3.4142    2.2448 N   0  0  0  0  0  0  0  0  0  0  0  0
    2.9814   -4.2548    2.4077 C   0  0  0  0  0  0  0  0  0  0  0  0
    2.4747   -4.1233    3.8343 C   0  0  0  0  0  0  0  0  0  0  0  0
    3.4122   -4.5895    4.8010 O   0  0  0  0  0  0  0  0  0  0  0  0
    4.7676   -4.3930    4.4111 C   0  0  0  0  0  0  0  0  0  0  0  0
    4.9459   -3.2033    3.4796 C   0  0  0  0  0  0  0  0  0  0  0  0
    5.3967   -3.5828    0.1699 C   0  0  0  0  0  0  0  0  0  0  0  0
    5.7807   -3.0535   -1.0576 C   0  0  0  0  0  0  0  0  0  0  0  0
    5.3216   -1.8005   -1.4487 C   0  0  0  0  0  0  0  0  0  0  0  0
    4.4789   -1.0764   -0.6123 C   0  0  0  0  0  0  0  0  0  0  0  0
    5.3180    0.4245    2.1136 C   0  0  0  0  0  0  0  0  0  0  0  0
   -3.2153    1.5735   -1.1137 H   0  0  0  0  0  0  0  0  0  0  0  0
   -1.7060    1.7750   -1.7036 H   0  0  0  0  0  0  0  0  0  0  0  0
   -2.6673    0.5997   -2.3046 H   0  0  0  0  0  0  0  0  0  0  0  0
   -3.7347   -0.3522    0.2220 H   0  0  0  0  0  0  0  0  0  0  0  0
   -3.1867   -1.3261   -0.9688 H   0  0  0  0  0  0  0  0  0  0  0  0
   -2.5787   -1.4607    0.5408 H   0  0  0  0  0  0  0  0  0  0  0  0
    2.7910    2.6863   -0.0862 H   0  0  0  0  0  0  0  0  0  0  0  0
    3.3014    3.0939   -2.3902 H   0  0  0  0  0  0  0  0  0  0  0  0
    2.1276    1.8997   -4.0918 H   0  0  0  0  0  0  0  0  0  0  0  0
    0.4455    0.3005   -3.5173 H   0  0  0  0  0  0  0  0  0  0  0  0
    0.0381    1.2137    1.1708 H   0  0  0  0  0  0  0  0  0  0  0  0
    1.1708    0.0381    1.2137 H   0  0  0  0  0  0  0  0  0  0  0  0
   -2.7031    4.0788    3.6075 H   0  0  0  0  0  0  0  0  0  0  0  0
   -0.6089    2.9407    3.8856 H   0  0  0  0  0  0  0  0  0  0  0  0
   -4.1082    5.5942    2.3608 H   0  0  0  0  0  0  0  0  0  0  0  0
   -4.4034    7.0551    0.4893 H   0  0  0  0  0  0  0  0  0  0  0  0
   -2.6353    7.3766   -1.0878 H   0  0  0  0  0  0  0  0  0  0  0  0
   -0.5628    6.2287   -0.7833 H   0  0  0  0  0  0  0  0  0  0  0  0
    2.3397   -0.5704    1.0313 H   0  0  0  0  0  0  0  0  0  0  0  0
    2.9340   -1.3714    2.3243 H   0  0  0  0  0  0  0  0  0  0  0  0
    3.2143   -5.2093    2.2213 H   0  0  0  0  0  0  0  0  0  0  0  0
    2.2714   -3.9545    1.7707 H   0  0  0  0  0  0  0  0  0  0  0  0
    2.2812   -3.1592    4.0165 H   0  0  0  0  0  0  0  0  0  0  0  0
    1.6326   -4.6551    3.9241 H   0  0  0  0  0  0  0  0  0  0  0  0
    5.0880   -5.2165    3.9428 H   0  0  0  0  0  0  0  0  0  0  0  0
    5.3176   -4.2413    5.2323 H   0  0  0  0  0  0  0  0  0  0  0  0
    4.6207   -2.3744    3.9347 H   0  0  0  0  0  0  0  0  0  0  0  0
    5.9148   -3.1014    3.2539 H   0  0  0  0  0  0  0  0  0  0  0  0
    5.7270   -4.4838    0.4513 H   0  0  0  0  0  0  0  0  0  0  0  0
    6.3869   -3.5740   -1.6590 H   0  0  0  0  0  0  0  0  0  0  0  0
    5.5975   -1.4201   -2.3314 H   0  0  0  0  0  0  0  0  0  0  0  0
    4.1496   -0.1749   -0.8932 H   0  0  0  0  0  0  0  0  0  0  0  0
    5.6860   -0.4725    1.8688 H   0  0  0  0  0  0  0  0  0  0  0  0
    5.7039    1.1199    1.5074 H   0  0  0  0  0  0  0  0  0  0  0  0
    5.5594    0.6367    3.0606 H   0  0  0  0  0  0  0  0  0  0  0  0
  1  2  2  0  0  0  0
  1  3  2  0  0  0  0
  1  4  1  0  0  0  0
  4  5  1  0  0  0  0
  4  6  1  0  0  0  0
  1  7  1  0  0  0  0
  7  8  1  0  0  0  0
  8  9  2  0  0  0  0
  9 10  1  0  0  0  0
 10 11  2  0  0  0  0
 11 12  1  0  0  0  0
 12  7  2  0  0  0  0
  8 13  1  0  0  0  0
 13 14  1  0  0  0  0
 14 15  1  0  0  0  0
 15 16  2  0  0  0  0
 16 17  1  0  0  0  0
 17 18  2  0  0  0  0
 18 14  1  0  0  0  0
 18 19  1  0  0  0  0
 19 20  1  0  0  0  0
 20 21  2  0  0  0  0
 21 22  1  0  0  0  0
 22 23  2  0  0  0  0
 23 24  1  0  0  0  0
 24 19  2  0  0  0  0
 22 25  1  0  0  0  0
 25 26  2  0  0  0  0
 26 27  1  0  0  0  0
 27 28  2  0  0  0  0
 28 21  1  0  0  0  0
 15 29  1  0  0  0  0
 29 30  1  0  0  0  0
 30 31  1  0  0  0  0
 31 32  1  0  0  0  0
 32 33  1  0  0  0  0
 33 34  1  0  0  0  0
 34 35  1  0  0  0  0
 35 36  1  0  0  0  0
 36 37  1  0  0  0  0
 37 38  1  0  0  0  0
 38 33  1  0  0  0  0
 32 39  2  0  0  0  0
 39 40  1  0  0  0  0
 40 41  2  0  0  0  0
 41 42  1  0  0  0  0
 42 31  2  0  0  0  0
 29 43  1  0  0  0  0
  5 44  1  0  0  0  0
  5 45  1  0  0  0  0
  5 46  1  0  0  0  0
  6 47  1  0  0  0  0
  6 48  1  0  0  0  0
  6 49  1  0  0  0  0
  9 50  1  0  0  0  0
 10 51  1  0  0  0  0
 11 52  1  0  0  0  0
 12 53  1  0  0  0  0
 13 54  1  0  0  0  0
 13 55  1  0  0  0  0
 23 56  1  0  0  0  0
 24 57  1  0  0  0  0
 25 58  1  0  0  0  0
 26 59  1  0  0  0  0
 27 60  1  0  0  0  0
 28 61  1  0  0  0  0
 30 62  1  0  0  0  0
 30 63  1  0  0  0  0
 34 64  1  0  0  0  0
 34 65  1  0  0  0  0
 35 66  1  0  0  0  0
 35 67  1  0  0  0  0
 37 68  1  0  0  0  0
 37 69  1  0  0  0  0
 38 70  1  0  0  0  0
 38 71  1  0  0  0  0
 39 72  1  0  0  0  0
 40 73  1  0  0  0  0
 41 74  1  0  0  0  0
 42 75  1  0  0  0  0
 43 76  1  0  0  0  0
 43 77  1  0  0  0  0
 43 78  1  0  0  0  0
M  END
>  <result-rank>
46

>  <similarity>
0.873

>  <query-name>


>  <query-smiles>
S(=O)(=O)(NC(=O)C)c1ccc(cc1)C=2N3N=CC=C(N4CCOCC4)C3=NC2/C=C/c5nc6c(cc5)cccc6

>  <source>
REALspace_2019-12

>  <similarity-descriptor>
0.936;1.000;0.797;0.678;0.935;1.000;1.000;0.528;0.528;0.995;0.797;0.935;0.071

>  <similarity-descriptor-smiles>
c1ccccc1C;N1CCOCC1;N1C=NN=C1;NCc1ccccc1;c1ccccn1;c1ccccc1;S(=O)=O;NC;NC;C;N1C=NN=C1;c1ccccn1;C

>  <reaction-name>
m_273170

>  <reagent1-name>
10756154

>  <reagent1-smiles>
[R2*]=C([R1*])N([R3*])Cc1c(S(=O)(=O)N(C)C)cccc1

>  <reagent2-name>
10763080

>  <reagent2-smiles>
[R1*]N(Cc1c(N2CCOCC2)cccc1)C

>  <reagent3-name>
10755784

>  <reagent3-smiles>
[R2*]=NN=C([R3*])c1nc2c(cc1)cccc2

$$$$
m_273170____14419910____10761862____10766638
          04022017323D 1   1.00000     0.00000     0
            
 74 80  0  0  0  0            999 V2000
    3.8879   -3.4255    7.1312 Cl  0  0  0  0  0  0  0  0  0  0  0  0
    2.2662   -2.6988    7.0289 C   0  0  0  0  0  0  0  0  0  0  0  0
    1.7772   -2.2735    5.7981 C   0  0  0  0  0  0  0  0  0  0  0  0
    0.5078   -1.7081    5.7388 C   0  0  0  0  0  0  0  0  0  0  0  0
    0.0116   -1.2777    4.5001 N   0  0  0  0  0  0  0  0  0  0  0  0
   -1.2508   -1.0343    4.2339 N   0  0  0  0  0  0  0  0  0  0  0  0
   -1.3930   -0.6460    2.9898 C   0  0  0  0  0  0  0  0  0  0  0  0
   -0.0965   -0.6489    2.4282 C   0  0  0  0  0  0  0  0  0  0  0  0
    0.7710   -1.0513    3.3940 C   0  0  0  0  0  0  0  0  0  0  0  0
    0.2650   -0.2731    1.0004 C   0  0  0  0  0  0  0  0  0  0  0  0
    1.0000    1.0000    1.0000 N   0  0  0  0  0  0  0  0  0  0  0  0
    2.4017    1.0000    1.0000 C   0  0  0  0  0  0  0  0  0  0  0  0
    3.1912    1.9825    1.3572 N   0  0  0  0  0  0  0  0  0  0  0  0
    4.4560    1.6477    1.2313 N   0  0  0  0  0  0  0  0  0  0  0  0
    4.5040    0.4144    0.7803 C   0  0  0  0  0  0  0  0  0  0  0  0
    3.2232   -0.0152    0.6266 N   0  0  0  0  0  0  0  0  0  0  0  0
    2.8010   -1.3388    0.1446 C   0  0  0  0  0  0  0  0  0  0  0  0
    2.5316   -1.2716   -1.3501 C   0  0  0  0  0  0  0  0  0  0  0  0
    3.4875   -0.7054   -2.1870 C   0  0  0  0  0  0  0  0  0  0  0  0
    3.2378   -0.6461   -3.5541 C   0  0  0  0  0  0  0  0  0  0  0  0
    2.0526   -1.1433   -4.0858 C   0  0  0  0  0  0  0  0  0  0  0  0
    1.1099   -1.7058   -3.2313 C   0  0  0  0  0  0  0  0  0  0  0  0
    1.3397   -1.7749   -1.8612 C   0  0  0  0  0  0  0  0  0  0  0  0
    4.2738   -0.0291   -4.4800 C   0  0  0  0  0  0  0  0  0  0  0  0
    5.1468   -1.0088   -5.0003 O   0  0  0  0  0  0  0  0  0  0  0  0
    6.2629   -0.2734   -5.4755 C   0  0  0  0  0  0  0  0  0  0  0  0
    6.2939    0.9480   -4.5784 C   0  0  0  0  0  0  0  0  0  0  0  0
    5.1562    0.8098   -3.7519 O   0  0  0  0  0  0  0  0  0  0  0  0
    5.6999   -0.3407    0.5011 C   0  0  0  0  0  0  0  0  0  0  0  0
    5.7578   -1.7061    0.4116 N   0  0  0  0  0  0  0  0  0  0  0  0
    6.9386   -2.2081    0.1502 C   0  0  0  0  0  0  0  0  0  0  0  0
    8.0031   -0.8860    0.0253 S   0  0  0  0  0  0  0  0  0  0  0  0
    6.8595    0.3421    0.3163 C   0  0  0  0  0  0  0  0  0  0  0  0
    7.2742   -3.5581    0.0087 N   0  0  0  0  0  0  0  0  0  0  0  0
    6.2004   -4.5605   -0.0729 C   0  0  0  0  0  0  0  0  0  0  0  0
    6.6052   -5.7211   -0.9687 C   0  0  0  0  0  0  0  0  0  0  0  0
    7.9220   -6.1701   -0.6752 O   0  0  0  0  0  0  0  0  0  0  0  0
    8.8760   -5.1583   -0.9701 C   0  0  0  0  0  0  0  0  0  0  0  0
    8.6920   -3.9395   -0.0787 C   0  0  0  0  0  0  0  0  0  0  0  0
    0.2650    2.2731    0.9996 C   0  0  0  0  0  0  0  0  0  0  0  0
   -0.2646   -1.5671    6.8872 C   0  0  0  0  0  0  0  0  0  0  0  0
    0.2359   -1.9965    8.1119 C   0  0  0  0  0  0  0  0  0  0  0  0
    1.5040   -2.5638    8.1848 C   0  0  0  0  0  0  0  0  0  0  0  0
    2.3289   -2.3726    4.9700 H   0  0  0  0  0  0  0  0  0  0  0  0
   -2.2463   -0.3979    2.5312 H   0  0  0  0  0  0  0  0  0  0  0  0
    1.7616   -1.1587    3.3093 H   0  0  0  0  0  0  0  0  0  0  0  0
    0.8383   -0.9891    0.6022 H   0  0  0  0  0  0  0  0  0  0  0  0
   -0.5705   -0.1758    0.4596 H   0  0  0  0  0  0  0  0  0  0  0  0
    1.9672   -1.6169    0.6215 H   0  0  0  0  0  0  0  0  0  0  0  0
    3.5250   -2.0051    0.3232 H   0  0  0  0  0  0  0  0  0  0  0  0
    4.3418   -0.3462   -1.8114 H   0  0  0  0  0  0  0  0  0  0  0  0
    1.8803   -1.0970   -5.0698 H   0  0  0  0  0  0  0  0  0  0  0  0
    0.2557   -2.0653   -3.6070 H   0  0  0  0  0  0  0  0  0  0  0  0
    0.6580   -2.1806   -1.2523 H   0  0  0  0  0  0  0  0  0  0  0  0
    3.8309    0.4789   -5.2187 H   0  0  0  0  0  0  0  0  0  0  0  0
    6.1362   -0.0106   -6.4320 H   0  0  0  0  0  0  0  0  0  0  0  0
    7.1053   -0.8046   -5.3845 H   0  0  0  0  0  0  0  0  0  0  0  0
    7.1297    0.9621   -4.0295 H   0  0  0  0  0  0  0  0  0  0  0  0
    6.2370    1.7862   -5.1207 H   0  0  0  0  0  0  0  0  0  0  0  0
    7.0067    1.3308    0.3444 H   0  0  0  0  0  0  0  0  0  0  0  0
    5.3789   -4.1300   -0.4467 H   0  0  0  0  0  0  0  0  0  0  0  0
    6.0067   -4.9077    0.8446 H   0  0  0  0  0  0  0  0  0  0  0  0
    5.9655   -6.4771   -0.8302 H   0  0  0  0  0  0  0  0  0  0  0  0
    6.5683   -5.4236   -1.9227 H   0  0  0  0  0  0  0  0  0  0  0  0
    8.7706   -4.8811   -1.9251 H   0  0  0  0  0  0  0  0  0  0  0  0
    9.7947   -5.5275   -0.8297 H   0  0  0  0  0  0  0  0  0  0  0  0
    9.0307   -4.1511    0.8381 H   0  0  0  0  0  0  0  0  0  0  0  0
    9.2132   -3.1753   -0.4585 H   0  0  0  0  0  0  0  0  0  0  0  0
   -0.7182    2.0903    0.9996 H   0  0  0  0  0  0  0  0  0  0  0  0
    0.5066    2.7977    1.8159 H   0  0  0  0  0  0  0  0  0  0  0  0
    0.5066    2.7972    0.1829 H   0  0  0  0  0  0  0  0  0  0  0  0
   -1.1758   -1.1588    6.8325 H   0  0  0  0  0  0  0  0  0  0  0  0
   -0.3159   -1.8974    8.9400 H   0  0  0  0  0  0  0  0  0  0  0  0
    1.8661   -2.8731    9.0642 H   0  0  0  0  0  0  0  0  0  0  0  0
  1  2  1  0  0  0  0
  2  3  1  0  0  0  0
  3  4  2  0  0  0  0
  4  5  1  0  0  0  0
  5  6  1  0  0  0  0
  6  7  2  0  0  0  0
  7  8  1  0  0  0  0
  8  9  2  0  0  0  0
  9  5  1  0  0  0  0
  8 10  1  0  0  0  0
 10 11  1  0  0  0  0
 11 12  1  0  0  0  0
 12 13  2  0  0  0  0
 13 14  1  0  0  0  0
 14 15  2  0  0  0  0
 15 16  1  0  0  0  0
 16 12  1  0  0  0  0
 16 17  1  0  0  0  0
 17 18  1  0  0  0  0
 18 19  1  0  0  0  0
 19 20  2  0  0  0  0
 20 21  1  0  0  0  0
 21 22  2  0  0  0  0
 22 23  1  0  0  0  0
 23 18  2  0  0  0  0
 20 24  1  0  0  0  0
 24 25  1  0  0  0  0
 25 26  1  0  0  0  0
 26 27  1  0  0  0  0
 27 28  1  0  0  0  0
 28 24  1  0  0  0  0
 15 29  1  0  0  0  0
 29 30  1  0  0  0  0
 30 31  2  0  0  0  0
 31 32  1  0  0  0  0
 32 33  1  0  0  0  0
 29 33  2  0  0  0  0
 31 34  1  0  0  0  0
 34 35  1  0  0  0  0
 35 36  1  0  0  0  0
 36 37  1  0  0  0  0
 37 38  1  0  0  0  0
 38 39  1  0  0  0  0
 39 34  1  0  0  0  0
 11 40  1  0  0  0  0
  4 41  1  0  0  0  0
 41 42  2  0  0  0  0
 42 43  1  0  0  0  0
 43  2  2  0  0  0  0
  3 44  1  0  0  0  0
  7 45  1  0  0  0  0
  9 46  1  0  0  0  0
 10 47  1  0  0  0  0
 10 48  1  0  0  0  0
 17 49  1  0  0  0  0
 17 50  1  0  0  0  0
 19 51  1  0  0  0  0
 21 52  1  0  0  0  0
 22 53  1  0  0  0  0
 23 54  1  0  0  0  0
 24 55  1  0  0  0  0
 26 56  1  0  0  0  0
 26 57  1  0  0  0  0
 27 58  1  0  0  0  0
 27 59  1  0  0  0  0
 33 60  1  0  0  0  0
 35 61  1  0  0  0  0
 35 62  1  0  0  0  0
 36 63  1  0  0  0  0
 36 64  1  0  0  0  0
 38 65  1  0  0  0  0
 38 66  1  0  0  0  0
 39 67  1  0  0  0  0
 39 68  1  0  0  0  0
 40 69  1  0  0  0  0
 40 70  1  0  0  0  0
 40 71  1  0  0  0  0
 41 72  1  0  0  0  0
 42 73  1  0  0  0  0
 43 74  1  0  0  0  0
M  END
>  <result-rank>
47

>  <similarity>
0.873

>  <query-name>


>  <query-smiles>
S(=O)(=O)(NC(=O)C)c1ccc(cc1)C=2N3N=CC=C(N4CCOCC4)C3=NC2/C=C/c5nc6c(cc5)cccc6

>  <source>
REALspace_2019-12

>  <similarity-descriptor>
0.936;1.000;0.729;0.961;0.852;0.949;0.747;0.0;0.0;0.0;0.729;0.729;0.091

>  <similarity-descriptor-smiles>
Cc1ccccc1;N1CCOCC1;C=1NC=NN1;C1=CSC=N1;N1C=C(C=N1)CN;Clc1ccccc1;C1OCCO1;;;;C=1NC=NN1;C=1NC=NN1;C

>  <reaction-name>
m_273170

>  <reagent1-name>
14419910

>  <reagent1-smiles>
[R2*]=C([R1*])N([R3*])Cc1cc(ccc1)C2OCCO2

>  <reagent2-name>
10761862

>  <reagent2-smiles>
[R1*]N(CC=1C=NN(c2cc(Cl)ccc2)C1)C

>  <reagent3-name>
10766638

>  <reagent3-smiles>
[R2*]=NN=C([R3*])C=1N=C(SC1)N2CCOCC2

$$$$
m_273170____10756154____10761984____10766770
          04022017323D 1   1.00000     0.00000     0
            
 73 78  0  0  0  0            999 V2000
    3.9585    0.2458    1.1826 S   0  0  0  0  0  0  0  0  0  0  0  0
    5.2980    0.0463    1.6720 O   0  0  0  0  0  0  0  0  0  0  0  0
    3.1778   -0.9400    1.4236 O   0  0  0  0  0  0  0  0  0  0  0  0
    4.0045    0.5500   -0.4181 N   0  0  0  0  0  0  0  0  0  0  0  0
    4.8015    1.7604   -0.6641 C   0  0  0  0  0  0  0  0  0  0  0  0
    4.6165   -0.5899   -1.1161 C   0  0  0  0  0  0  0  0  0  0  0  0
    3.2341    1.5952    2.0089 C   0  0  0  0  0  0  0  0  0  0  0  0
    1.8777    1.8777    1.8777 C   0  0  0  0  0  0  0  0  0  0  0  0
    1.3249    2.9632    2.5494 C   0  0  0  0  0  0  0  0  0  0  0  0
    2.1281    3.7663    3.3526 C   0  0  0  0  0  0  0  0  0  0  0  0
    3.4825    3.4748    3.4770 C   0  0  0  0  0  0  0  0  0  0  0  0
    4.0457    2.3919    2.8095 C   0  0  0  0  0  0  0  0  0  0  0  0
    1.0000    1.0000    1.0000 C   0  0  0  0  0  0  0  0  0  0  0  0
   -0.3812    1.5041    1.0281 N   0  0  0  0  0  0  0  0  0  0  0  0
   -1.4425    0.8978    1.6207 C   0  0  0  0  0  0  0  0  0  0  0  0
   -2.4671    1.6852    1.4050 N   0  0  0  0  0  0  0  0  0  0  0  0
   -2.1154    2.7469    0.7144 N   0  0  0  0  0  0  0  0  0  0  0  0
   -0.8277    2.6596    0.4678 C   0  0  0  0  0  0  0  0  0  0  0  0
   -0.0324    3.6239   -0.2687 C   0  0  0  0  0  0  0  0  0  0  0  0
    0.7488    3.2476   -1.3596 C   0  0  0  0  0  0  0  0  0  0  0  0
    0.8125    1.9764   -1.7981 N   0  0  0  0  0  0  0  0  0  0  0  0
    1.5644    1.6084   -2.8464 C   0  0  0  0  0  0  0  0  0  0  0  0
    2.3176    2.5573   -3.5305 C   0  0  0  0  0  0  0  0  0  0  0  0
    2.2724    3.8801   -3.1027 C   0  0  0  0  0  0  0  0  0  0  0  0
    1.4849    4.2314   -2.0123 C   0  0  0  0  0  0  0  0  0  0  0  0
    1.4527    5.5593   -1.5990 C   0  0  0  0  0  0  0  0  0  0  0  0
    0.6668    5.9144   -0.5080 C   0  0  0  0  0  0  0  0  0  0  0  0
   -0.0766    4.9459    0.1583 C   0  0  0  0  0  0  0  0  0  0  0  0
   -1.4441   -0.3195    2.3155 N   0  0  0  0  0  0  0  0  0  0  0  0
   -1.1977   -0.3390    3.7646 C   0  0  0  0  0  0  0  0  0  0  0  0
   -0.5302   -1.6535    4.1486 C   0  0  0  0  0  0  0  0  0  0  0  0
   -1.1442   -2.7604    4.5001 O   0  0  0  0  0  0  0  0  0  0  0  0
   -0.2730   -3.7085    4.7691 C   0  0  0  0  0  0  0  0  0  0  0  0
    0.9764   -3.1955    4.5896 C   0  0  0  0  0  0  0  0  0  0  0  0
    0.8157   -1.8500    4.1850 C   0  0  0  0  0  0  0  0  0  0  0  0
   -1.6923   -1.5767    1.5952 C   0  0  0  0  0  0  0  0  0  0  0  0
   -3.1424   -2.0006    1.7976 C   0  0  3  0  0  0  0  0  0  0  0  0
   -4.0765   -1.0440    1.3233 O   0  0  0  0  0  0  0  0  0  0  0  0
   -5.3059   -1.7262    1.1617 C   0  0  0  0  0  0  0  0  0  0  0  0
   -4.9723   -3.1772    0.8782 C   0  0  0  0  0  0  0  0  0  0  0  0
   -3.4581   -3.1587    0.8685 C   0  0  0  0  0  0  0  0  0  0  0  0
    4.8297    1.9471   -1.6462 H   0  0  0  0  0  0  0  0  0  0  0  0
    4.3852    2.5358   -0.1893 H   0  0  0  0  0  0  0  0  0  0  0  0
    5.7317    1.6219   -0.3243 H   0  0  0  0  0  0  0  0  0  0  0  0
    4.6447   -0.4033   -2.0981 H   0  0  0  0  0  0  0  0  0  0  0  0
    5.5467   -0.7284   -0.7762 H   0  0  0  0  0  0  0  0  0  0  0  0
    4.0744   -1.4133   -0.9487 H   0  0  0  0  0  0  0  0  0  0  0  0
    0.3503    3.1662    2.4549 H   0  0  0  0  0  0  0  0  0  0  0  0
    1.7346    4.5476    3.8371 H   0  0  0  0  0  0  0  0  0  0  0  0
    4.0598    4.0520    4.0546 H   0  0  0  0  0  0  0  0  0  0  0  0
    5.0203    2.1891    2.9040 H   0  0  0  0  0  0  0  0  0  0  0  0
    1.3428    1.0191    0.0608 H   0  0  0  0  0  0  0  0  0  0  0  0
    1.0191    0.0608    1.3428 H   0  0  0  0  0  0  0  0  0  0  0  0
    1.5835    0.6515   -3.1362 H   0  0  0  0  0  0  0  0  0  0  0  0
    2.8802    2.2936   -4.3140 H   0  0  0  0  0  0  0  0  0  0  0  0
    2.8064    4.5784   -3.5795 H   0  0  0  0  0  0  0  0  0  0  0  0
    1.9892    6.2515   -2.0816 H   0  0  0  0  0  0  0  0  0  0  0  0
    0.6363    6.8661   -0.2024 H   0  0  0  0  0  0  0  0  0  0  0  0
   -0.6419    5.2002    0.9430 H   0  0  0  0  0  0  0  0  0  0  0  0
   -2.0667   -0.2516    4.2517 H   0  0  0  0  0  0  0  0  0  0  0  0
   -0.5993    0.4233    4.0112 H   0  0  0  0  0  0  0  0  0  0  0  0
   -0.4896   -4.6420    5.0551 H   0  0  0  0  0  0  0  0  0  0  0  0
    1.8423   -3.6785    4.7194 H   0  0  0  0  0  0  0  0  0  0  0  0
    1.5341   -1.1878    3.9722 H   0  0  0  0  0  0  0  0  0  0  0  0
   -1.0847   -2.2884    1.9478 H   0  0  0  0  0  0  0  0  0  0  0  0
   -1.5173   -1.4421    0.6199 H   0  0  0  0  0  0  0  0  0  0  0  0
   -3.3211   -2.2409    2.7517 H   0  0  0  0  0  0  0  0  0  0  0  0
   -5.8177   -1.3355    0.3965 H   0  0  0  0  0  0  0  0  0  0  0  0
   -5.8504   -1.6558    1.9975 H   0  0  0  0  0  0  0  0  0  0  0  0
   -5.3374   -3.4675   -0.0064 H   0  0  0  0  0  0  0  0  0  0  0  0
   -5.3233   -3.7775    1.5968 H   0  0  0  0  0  0  0  0  0  0  0  0
   -3.0832   -4.0169    1.2193 H   0  0  0  0  0  0  0  0  0  0  0  0
   -3.1039   -2.9917   -0.0516 H   0  0  0  0  0  0  0  0  0  0  0  0
  1  2  2  0  0  0  0
  1  3  2  0  0  0  0
  1  4  1  0  0  0  0
  4  5  1  0  0  0  0
  4  6  1  0  0  0  0
  1  7  1  0  0  0  0
  7  8  1  0  0  0  0
  8  9  2  0  0  0  0
  9 10  1  0  0  0  0
 10 11  2  0  0  0  0
 11 12  1  0  0  0  0
 12  7  2  0  0  0  0
  8 13  1  0  0  0  0
 13 14  1  0  0  0  0
 14 15  1  0  0  0  0
 15 16  2  0  0  0  0
 16 17  1  0  0  0  0
 17 18  2  0  0  0  0
 18 14  1  0  0  0  0
 18 19  1  0  0  0  0
 19 20  1  0  0  0  0
 20 21  2  0  0  0  0
 21 22  1  0  0  0  0
 22 23  2  0  0  0  0
 23 24  1  0  0  0  0
 24 25  2  0  0  0  0
 25 20  1  0  0  0  0
 25 26  1  0  0  0  0
 26 27  2  0  0  0  0
 27 28  1  0  0  0  0
 28 19  2  0  0  0  0
 15 29  1  0  0  0  0
 29 30  1  0  0  0  0
 30 31  1  0  0  0  0
 31 32  1  0  0  0  0
 32 33  1  0  0  0  0
 33 34  2  0  0  0  0
 34 35  1  0  0  0  0
 31 35  2  0  0  0  0
 29 36  1  0  0  0  0
 36 37  1  0  0  0  0
 37 38  1  0  0  0  0
 38 39  1  0  0  0  0
 39 40  1  0  0  0  0
 40 41  1  0  0  0  0
 41 37  1  0  0  0  0
  5 42  1  0  0  0  0
  5 43  1  0  0  0  0
  5 44  1  0  0  0  0
  6 45  1  0  0  0  0
  6 46  1  0  0  0  0
  6 47  1  0  0  0  0
  9 48  1  0  0  0  0
 10 49  1  0  0  0  0
 11 50  1  0  0  0  0
 12 51  1  0  0  0  0
 13 52  1  0  0  0  0
 13 53  1  0  0  0  0
 22 54  1  0  0  0  0
 23 55  1  0  0  0  0
 24 56  1  0  0  0  0
 26 57  1  0  0  0  0
 27 58  1  0  0  0  0
 28 59  1  0  0  0  0
 30 60  1  0  0  0  0
 30 61  1  0  0  0  0
 33 62  1  0  0  0  0
 34 63  1  0  0  0  0
 35 64  1  0  0  0  0
 36 65  1  0  0  0  0
 36 66  1  0  0  0  0
 37 67  1  0  0  0  0
 39 68  1  0  0  0  0
 39 69  1  0  0  0  0
 40 70  1  0  0  0  0
 40 71  1  0  0  0  0
 41 72  1  0  0  0  0
 41 73  1  0  0  0  0
M  END
>  <result-rank>
48

>  <similarity>
0.873

>  <query-name>


>  <query-smiles>
S(=O)(=O)(NC(=O)C)c1ccc(cc1)C=2N3N=CC=C(N4CCOCC4)C3=NC2/C=C/c5nc6c(cc5)cccc6

>  <source>
REALspace_2019-12

>  <similarity-descriptor>
0.936;0.956;0.797;0.876;0.865;0.843;1.000;0.528;0.528;0.995;0.797;0.865;0.0

>  <similarity-descriptor-smiles>
c1ccccc1C;CC1CCCO1;N1C=NN=C1;NCC1=CC=CO1;c1ccccc1;c1ccccn1;S(=O)=O;NC;NC;C;N1C=NN=C1;c1ccccc1;

>  <reaction-name>
m_273170

>  <reagent1-name>
10756154

>  <reagent1-smiles>
[R2*]=C([R1*])N([R3*])Cc1c(S(=O)(=O)N(C)C)cccc1

>  <reagent2-name>
10761984

>  <reagent2-smiles>
[R1*]N(CC=1OC=CC1)CC2OCCC2

>  <reagent3-name>
10766770

>  <reagent3-smiles>
[R2*]=NN=C([R3*])c1c2ncccc2ccc1

$$$$
s_270196____12890970____8772094
          04022017323D 1   1.00000     0.00000     0
            
 62 67  0  0  0  0            999 V2000
    3.2897    3.3251    2.4953 O   0  0  0  0  0  0  0  0  0  0  0  0
    4.0828    2.3380    2.4895 N   0  0  0  0  0  0  0  0  0  0  0  0
    3.3784    1.2345    2.4974 C   0  0  0  0  0  0  0  0  0  0  0  0
    2.0616    1.5822    2.5110 N   0  0  0  0  0  0  0  0  0  0  0  0
    2.0505    2.8931    2.5095 C   0  0  0  0  0  0  0  0  0  0  0  0
    0.8640    3.7278    2.5208 C   0  0  0  0  0  0  0  0  0  0  0  0
   -0.3153    3.1810    2.5345 C   0  0  0  0  0  0  0  0  0  0  0  0
   -1.5023    4.0160    2.5458 C   0  0  0  0  0  0  0  0  0  0  0  0
   -2.8398    3.5647    2.5610 C   0  0  0  0  0  0  0  0  0  0  0  0
   -3.5832    4.6489    2.5635 N   0  0  0  0  0  0  0  0  0  0  0  0
   -2.8465    5.7340    2.5585 N   0  0  0  0  0  0  0  0  0  0  0  0
   -3.3284    7.0486    2.5612 C   0  0  0  0  0  0  0  0  0  0  0  0
   -2.4305    8.1112    2.5552 C   0  0  0  0  0  0  0  0  0  0  0  0
   -2.9131    9.4159    2.5577 C   0  0  0  0  0  0  0  0  0  0  0  0
   -4.2839    9.6502    2.5663 C   0  0  0  0  0  0  0  0  0  0  0  0
   -5.1724    8.5801    2.5717 C   0  0  0  0  0  0  0  0  0  0  0  0
   -4.7014    7.2713    2.5694 C   0  0  0  0  0  0  0  0  0  0  0  0
   -1.5326    5.3766    2.5417 C   0  0  0  0  0  0  0  0  0  0  0  0
   -3.3026    2.1906    2.5710 C   0  0  0  0  0  0  0  0  0  0  0  0
   -2.6354    1.2483    3.3467 C   0  0  0  0  0  0  0  0  0  0  0  0
   -3.0769   -0.0708    3.3594 C   0  0  0  0  0  0  0  0  0  0  0  0
   -4.1823   -0.4300    2.5945 C   0  0  0  0  0  0  0  0  0  0  0  0
   -4.6452   -1.8044    2.6064 C   0  0  0  0  0  0  0  0  0  0  0  0
   -5.2681   -2.3314    1.4799 C   0  0  0  0  0  0  0  0  0  0  0  0
   -5.7114   -3.6499    1.4958 C   0  0  0  0  0  0  0  0  0  0  0  0
   -5.5291   -4.4313    2.6320 C   0  0  0  0  0  0  0  0  0  0  0  0
   -4.9050   -3.8943    3.7513 C   0  0  0  0  0  0  0  0  0  0  0  0
   -4.4580   -2.5771    3.7481 C   0  0  0  0  0  0  0  0  0  0  0  0
   -4.8501    0.5121    1.8185 C   0  0  0  0  0  0  0  0  0  0  0  0
   -4.4077    1.8313    1.8063 C   0  0  0  0  0  0  0  0  0  0  0  0
    3.9320   -0.1807    2.4921 C   0  0  0  0  0  0  0  0  0  0  0  0
    3.5695   -1.1107    1.3448 C   0  0  0  0  0  0  0  0  0  0  0  0
    4.0181   -0.5489    0.1202 O   0  0  0  0  0  0  0  0  0  0  0  0
    3.6797   -1.4173   -0.9511 C   0  0  0  0  0  0  0  0  0  0  0  0
    4.0816   -0.8276    3.8397 C   0  0  0  0  0  0  0  0  0  0  0  0
    5.2978   -0.3655    3.0896 C   0  0  0  0  0  0  0  0  0  0  0  0
    0.9533    4.7238    2.5179 H   0  0  0  0  0  0  0  0  0  0  0  0
   -0.4046    2.1850    2.5373 H   0  0  0  0  0  0  0  0  0  0  0  0
   -1.4456    7.9385    2.5491 H   0  0  0  0  0  0  0  0  0  0  0  0
   -2.2743   10.1853    2.5532 H   0  0  0  0  0  0  0  0  0  0  0  0
   -4.6308   10.5881    2.5686 H   0  0  0  0  0  0  0  0  0  0  0  0
   -6.1573    8.7530    2.5773 H   0  0  0  0  0  0  0  0  0  0  0  0
   -5.3404    6.5020    2.5736 H   0  0  0  0  0  0  0  0  0  0  0  0
   -0.7450    5.9926    2.5289 H   0  0  0  0  0  0  0  0  0  0  0  0
   -1.8421    1.5178    3.8927 H   0  0  0  0  0  0  0  0  0  0  0  0
   -2.6036   -0.7555    3.9137 H   0  0  0  0  0  0  0  0  0  0  0  0
   -5.3965   -1.7667    0.6646 H   0  0  0  0  0  0  0  0  0  0  0  0
   -6.1610   -4.0360    0.6904 H   0  0  0  0  0  0  0  0  0  0  0  0
   -5.8471   -5.3793    2.6433 H   0  0  0  0  0  0  0  0  0  0  0  0
   -4.7762   -4.4596    4.5660 H   0  0  0  0  0  0  0  0  0  0  0  0
   -4.0089   -2.1915    4.5541 H   0  0  0  0  0  0  0  0  0  0  0  0
   -5.6434    0.2427    1.2726 H   0  0  0  0  0  0  0  0  0  0  0  0
   -4.8807    2.5161    1.2519 H   0  0  0  0  0  0  0  0  0  0  0  0
    4.0076   -1.9987    1.4844 H   0  0  0  0  0  0  0  0  0  0  0  0
    2.5772   -1.2299    1.3131 H   0  0  0  0  0  0  0  0  0  0  0  0
    3.9956   -1.0216   -1.8134 H   0  0  0  0  0  0  0  0  0  0  0  0
    4.1178   -2.3053   -0.8115 H   0  0  0  0  0  0  0  0  0  0  0  0
    2.6874   -1.5365   -0.9828 H   0  0  0  0  0  0  0  0  0  0  0  0
    3.9023   -1.8055    3.9476 H   0  0  0  0  0  0  0  0  0  0  0  0
    3.7874   -0.3420    4.6628 H   0  0  0  0  0  0  0  0  0  0  0  0
    5.8134    0.4278    3.4133 H   0  0  0  0  0  0  0  0  0  0  0  0
    5.9284   -1.0357    2.6980 H   0  0  0  0  0  0  0  0  0  0  0  0
  1  2  1  0  0  0  0
  2  3  2  0  0  0  0
  3  4  1  0  0  0  0
  4  5  2  0  0  0  0
  5  1  1  0  0  0  0
  5  6  1  0  0  0  0
  6  7  2  0  0  0  0
  7  8  1  0  0  0  0
  8  9  1  0  0  0  0
  9 10  2  0  0  0  0
 10 11  1  0  0  0  0
 11 12  1  0  0  0  0
 12 13  1  0  0  0  0
 13 14  2  0  0  0  0
 14 15  1  0  0  0  0
 15 16  2  0  0  0  0
 16 17  1  0  0  0  0
 17 12  2  0  0  0  0
 11 18  1  0  0  0  0
  8 18  2  0  0  0  0
  9 19  1  0  0  0  0
 19 20  1  0  0  0  0
 20 21  2  0  0  0  0
 21 22  1  0  0  0  0
 22 23  1  0  0  0  0
 23 24  1  0  0  0  0
 24 25  2  0  0  0  0
 25 26  1  0  0  0  0
 26 27  2  0  0  0  0
 27 28  1  0  0  0  0
 28 23  2  0  0  0  0
 22 29  2  0  0  0  0
 29 30  1  0  0  0  0
 30 19  2  0  0  0  0
  3 31  1  0  0  0  0
 31 32  1  0  0  0  0
 32 33  1  0  0  0  0
 33 34  1  0  0  0  0
 31 35  1  0  0  0  0
 35 36  1  0  0  0  0
 36 31  1  0  0  0  0
  6 37  1  0  0  0  0
  7 38  1  0  0  0  0
 13 39  1  0  0  0  0
 14 40  1  0  0  0  0
 15 41  1  0  0  0  0
 16 42  1  0  0  0  0
 17 43  1  0  0  0  0
 18 44  1  0  0  0  0
 20 45  1  0  0  0  0
 21 46  1  0  0  0  0
 24 47  1  0  0  0  0
 25 48  1  0  0  0  0
 26 49  1  0  0  0  0
 27 50  1  0  0  0  0
 28 51  1  0  0  0  0
 29 52  1  0  0  0  0
 30 53  1  0  0  0  0
 32 54  1  0  0  0  0
 32 55  1  0  0  0  0
 34 56  1  0  0  0  0
 34 57  1  0  0  0  0
 34 58  1  0  0  0  0
 35 59  1  0  0  0  0
 35 60  1  0  0  0  0
 36 61  1  0  0  0  0
 36 62  1  0  0  0  0
M  END
>  <result-rank>
49

>  <similarity>
0.873

>  <query-name>


>  <query-smiles>
S(=O)(=O)(NC(=O)C)c1ccc(cc1)C=2N3N=CC=C(N4CCOCC4)C3=NC2/C=C/c5nc6c(cc5)cccc6

>  <source>
REALspace_2019-12

>  <similarity-descriptor>
0.957;0.989;0.920;0.748;0.846;0.942;0.0;0.0;0.0;0.0;0.920;0.846;0.0

>  <similarity-descriptor-smiles>
c1ccccc1;C1(CC1)COC;C1=CNN=C1;O1C(=NC=N1)C=C;c1ccccc1;c1ccccc1;;;;;C1=CNN=C1;c1ccccc1;

>  <reaction-name>
s_270196

>  <reagent1-name>
12890970

>  <reagent1-smiles>
[R1*]=NC(=NO[R2*])C1(COC)CC1

>  <reagent2-name>
8772094

>  <reagent2-smiles>
[R1*]C([R2*])C=CC=1C(=NN(c2ccccc2)C1)c3ccc(c4ccccc4)cc3

$$$$
s_2____1137266____8992042____6286554
          04022017323D 1   1.00000     0.00000     0
            
 65 70  0  0  0  0            999 V2000
    3.3299    3.5681    2.4036 S   0  0  0  0  0  0  0  0  0  0  0  0
    4.2406    2.1295    2.4468 C   0  0  0  0  0  0  0  0  0  0  0  0
    5.5094    2.0301    2.4537 N   0  0  0  0  0  0  0  0  0  0  0  0
    6.2979    3.0995    2.0115 C   0  0  0  0  0  0  0  0  0  0  0  0
    6.7163    4.0712    2.9144 C   0  0  0  0  0  0  0  0  0  0  0  0
    7.4992    5.1352    2.4777 C   0  0  0  0  0  0  0  0  0  0  0  0
    7.8539    5.2096    1.1345 C   0  0  0  0  0  0  0  0  0  0  0  0
    7.4366    4.2393    0.2294 C   0  0  0  0  0  0  0  0  0  0  0  0
    6.6538    3.1768    0.6690 C   0  0  0  0  0  0  0  0  0  0  0  0
    8.7089    6.3711    0.6549 C   0  0  0  0  0  0  0  0  0  0  0  0
    9.1688    7.0475    1.7036 F   0  0  0  0  0  0  0  0  0  0  0  0
    9.7321    5.9034   -0.0544 F   0  0  0  0  0  0  0  0  0  0  0  0
    7.9743    7.1780   -0.1056 F   0  0  0  0  0  0  0  0  0  0  0  0
    3.3388    1.1121    2.4746 N   0  0  0  0  0  0  0  0  0  0  0  0
    2.0334    1.5154    2.4653 C   0  0  0  0  0  0  0  0  0  0  0  0
    0.9034    0.6099    2.4960 C   0  0  0  0  0  0  0  0  0  0  0  0
    0.5002   -0.1817    3.5927 C   0  0  0  0  0  0  0  0  0  0  0  0
   -0.5590   -0.8458    3.1965 N   0  0  0  0  0  0  0  0  0  0  0  0
   -0.8565   -0.5435    1.9544 N   0  0  0  0  0  0  0  0  0  0  0  0
   -1.9279   -1.0748    1.2263 C   0  0  0  0  0  0  0  0  0  0  0  0
   -2.7746   -2.0023    1.8248 C   0  0  0  0  0  0  0  0  0  0  0  0
   -3.8382   -2.5278    1.0983 C   0  0  0  0  0  0  0  0  0  0  0  0
   -4.0485   -2.1253   -0.2162 C   0  0  0  0  0  0  0  0  0  0  0  0
   -3.1960   -1.1969   -0.8042 C   0  0  0  0  0  0  0  0  0  0  0  0
   -2.1292   -0.6648   -0.0876 C   0  0  0  0  0  0  0  0  0  0  0  0
    0.0372    0.3664    1.4757 C   0  0  0  0  0  0  0  0  0  0  0  0
    1.7813    2.8529    2.4247 C   0  0  0  0  0  0  0  0  0  0  0  0
    3.7804   -0.2891    2.5193 C   0  0  0  0  0  0  0  0  0  0  0  0
    3.9383   -0.8167    1.1005 C   0  0  0  0  0  0  0  0  0  0  0  0
    5.0950   -0.7268    0.4200 N   0  0  0  0  0  0  0  0  0  0  0  0
    5.2452   -1.1884   -0.8346 C   0  0  0  0  0  0  0  0  0  0  0  0
    6.4554   -1.0886   -1.5313 N   0  0  0  0  0  0  0  0  0  0  0  0
    6.5411   -1.6175   -2.9016 C   0  0  0  0  0  0  0  0  0  0  0  0
    7.5009   -0.7927   -3.7451 C   0  0  0  0  0  0  0  0  0  0  0  0
    8.7130   -0.5319   -3.0490 O   0  0  0  0  0  0  0  0  0  0  0  0
    8.4728    0.2802   -1.9072 C   0  0  0  0  0  0  0  0  0  0  0  0
    7.6039   -0.4361   -0.8845 C   0  0  0  0  0  0  0  0  0  0  0  0
    4.1682   -1.7903   -1.4771 C   0  0  0  0  0  0  0  0  0  0  0  0
    2.9563   -1.8999   -0.8021 C   0  0  0  0  0  0  0  0  0  0  0  0
    2.8359   -1.4112    0.4948 C   0  0  0  0  0  0  0  0  0  0  0  0
    6.4546    4.0050    3.8773 H   0  0  0  0  0  0  0  0  0  0  0  0
    7.8031    5.8377    3.1212 H   0  0  0  0  0  0  0  0  0  0  0  0
    7.6984    4.3053   -0.7335 H   0  0  0  0  0  0  0  0  0  0  0  0
    6.3495    2.4745    0.0254 H   0  0  0  0  0  0  0  0  0  0  0  0
    0.9351   -0.2272    4.4920 H   0  0  0  0  0  0  0  0  0  0  0  0
   -2.6198   -2.2892    2.7702 H   0  0  0  0  0  0  0  0  0  0  0  0
   -4.4515   -3.1949    1.5212 H   0  0  0  0  0  0  0  0  0  0  0  0
   -4.8127   -2.5034   -0.7386 H   0  0  0  0  0  0  0  0  0  0  0  0
   -3.3511   -0.9097   -1.7494 H   0  0  0  0  0  0  0  0  0  0  0  0
   -1.5161    0.0025   -0.5105 H   0  0  0  0  0  0  0  0  0  0  0  0
    0.0532    0.7721    0.5618 H   0  0  0  0  0  0  0  0  0  0  0  0
    0.8925    3.3109    2.4105 H   0  0  0  0  0  0  0  0  0  0  0  0
    3.1000   -0.8377    3.0051 H   0  0  0  0  0  0  0  0  0  0  0  0
    4.6575   -0.3471    2.9960 H   0  0  0  0  0  0  0  0  0  0  0  0
    5.6330   -1.5913   -3.3196 H   0  0  0  0  0  0  0  0  0  0  0  0
    6.8653   -2.5629   -2.8675 H   0  0  0  0  0  0  0  0  0  0  0  0
    7.7096   -1.2945   -4.5845 H   0  0  0  0  0  0  0  0  0  0  0  0
    7.0653    0.0772   -3.9763 H   0  0  0  0  0  0  0  0  0  0  0  0
    8.0100    1.1182   -2.1963 H   0  0  0  0  0  0  0  0  0  0  0  0
    9.3485    0.5121   -1.4837 H   0  0  0  0  0  0  0  0  0  0  0  0
    8.1530   -1.1291   -0.4174 H   0  0  0  0  0  0  0  0  0  0  0  0
    7.2688    0.2291   -0.2173 H   0  0  0  0  0  0  0  0  0  0  0  0
    4.2633   -2.1389   -2.4096 H   0  0  0  0  0  0  0  0  0  0  0  0
    2.1720   -2.3299   -1.2493 H   0  0  0  0  0  0  0  0  0  0  0  0
    1.9678   -1.4863    0.9855 H   0  0  0  0  0  0  0  0  0  0  0  0
  1  2  1  0  0  0  0
  2  3  2  0  0  0  0
  3  4  1  0  0  0  0
  4  5  1  0  0  0  0
  5  6  2  0  0  0  0
  6  7  1  0  0  0  0
  7  8  2  0  0  0  0
  8  9  1  0  0  0  0
  9  4  2  0  0  0  0
  7 10  1  0  0  0  0
 10 11  1  0  0  0  0
 10 12  1  0  0  0  0
 10 13  1  0  0  0  0
  2 14  1  0  0  0  0
 14 15  1  0  0  0  0
 15 16  1  0  0  0  0
 16 17  1  0  0  0  0
 17 18  2  0  0  0  0
 18 19  1  0  0  0  0
 19 20  1  0  0  0  0
 20 21  1  0  0  0  0
 21 22  2  0  0  0  0
 22 23  1  0  0  0  0
 23 24  2  0  0  0  0
 24 25  1  0  0  0  0
 25 20  2  0  0  0  0
 19 26  1  0  0  0  0
 16 26  2  0  0  0  0
 15 27  2  0  0  0  0
 27  1  1  0  0  0  0
 14 28  1  0  0  0  0
 28 29  1  0  0  0  0
 29 30  1  0  0  0  0
 30 31  2  0  0  0  0
 31 32  1  0  0  0  0
 32 33  1  0  0  0  0
 33 34  1  0  0  0  0
 34 35  1  0  0  0  0
 35 36  1  0  0  0  0
 36 37  1  0  0  0  0
 37 32  1  0  0  0  0
 31 38  1  0  0  0  0
 38 39  2  0  0  0  0
 39 40  1  0  0  0  0
 40 29  2  0  0  0  0
  5 41  1  0  0  0  0
  6 42  1  0  0  0  0
  8 43  1  0  0  0  0
  9 44  1  0  0  0  0
 17 45  1  0  0  0  0
 21 46  1  0  0  0  0
 22 47  1  0  0  0  0
 23 48  1  0  0  0  0
 24 49  1  0  0  0  0
 25 50  1  0  0  0  0
 26 51  1  0  0  0  0
 27 52  1  0  0  0  0
 28 53  1  0  0  0  0
 28 54  1  0  0  0  0
 33 55  1  0  0  0  0
 33 56  1  0  0  0  0
 34 57  1  0  0  0  0
 34 58  1  0  0  0  0
 36 59  1  0  0  0  0
 36 60  1  0  0  0  0
 37 61  1  0  0  0  0
 37 62  1  0  0  0  0
 38 63  1  0  0  0  0
 39 64  1  0  0  0  0
 40 65  1  0  0  0  0
M  END
>  <result-rank>
50

>  <similarity>
0.873

>  <query-name>


>  <query-smiles>
S(=O)(=O)(NC(=O)C)c1ccc(cc1)C=2N3N=CC=C(N4CCOCC4)C3=NC2/C=C/c5nc6c(cc5)cccc6

>  <source>
REALspace_2019-12

>  <similarity-descriptor>
0.942;1.000;0.822;0.842;0.816;0.941;0.0;0.0;0.0;0.0;0.816;0.816;0.0

>  <similarity-descriptor-smiles>
c1ccc(cc1)C(F)(F)F;N1CCOCC1;S1C=CNC1=N;Cc1ccccn1;C1=CNN=C1;c1ccccc1;;;;;C1=CNN=C1;C1=CNN=C1;

>  <reaction-name>
s_2

>  <reagent1-name>
1137266

>  <reagent1-smiles>
[R1*]SC([R3*])=Nc1ccc(cc1)C(F)(F)F

>  <reagent2-name>
8992042

>  <reagent2-smiles>
[R2*]N([R3*])Cc1nc(N2CCOCC2)ccc1

>  <reagent3-name>
6286554

>  <reagent3-smiles>
[R2*]C(C=1C=NN(c2ccccc2)C1)=C[R1*]

$$$$
m_273170____10756572____10765544____10766652
          04022017323D 1   1.00000     0.00000     0
            
 69 73  0  0  0  0            999 V2000
   -0.0754   -3.1508   -0.9238 S   0  0  0  0  0  0  0  0  0  0  0  0
   -0.2080   -3.3001   -2.3499 O   0  0  0  0  0  0  0  0  0  0  0  0
    1.0701   -3.8949   -0.4678 O   0  0  0  0  0  0  0  0  0  0  0  0
   -1.4173   -3.7161   -0.1912 N   0  0  0  0  0  0  0  0  0  0  0  0
   -1.5935   -5.1378   -0.5209 C   0  0  0  0  0  0  0  0  0  0  0  0
    0.1333   -1.4678   -0.5336 C   0  0  0  0  0  0  0  0  0  0  0  0
    0.4328   -1.0946    0.7728 C   0  0  0  0  0  0  0  0  0  0  0  0
    0.5967    0.2541    1.0704 C   0  0  0  0  0  0  0  0  0  0  0  0
    0.4661    1.2253    0.0833 C   0  0  0  0  0  0  0  0  0  0  0  0
    0.1664    0.8309   -1.2166 C   0  0  0  0  0  0  0  0  0  0  0  0
   -0.0021   -0.5126   -1.5356 C   0  0  0  0  0  0  0  0  0  0  0  0
    0.9245    0.6605    2.4981 C   0  0  0  0  0  0  0  0  0  0  0  0
    2.0806    1.5694    2.4959 N   0  0  0  0  0  0  0  0  0  0  0  0
    2.0315    2.9267    2.5008 C   0  0  0  0  0  0  0  0  0  0  0  0
    3.2789    3.3271    2.4974 N   0  0  0  0  0  0  0  0  0  0  0  0
    4.1071    2.3065    2.4903 N   0  0  0  0  0  0  0  0  0  0  0  0
    3.3905    1.2051    2.4893 C   0  0  0  0  0  0  0  0  0  0  0  0
    3.9084   -0.1505    2.4826 C   0  0  0  0  0  0  0  0  0  0  0  0
    3.0678   -1.5549    2.9497 S   0  0  0  0  0  0  0  0  0  0  0  0
    4.3586   -2.6230    2.6476 C   0  0  0  0  0  0  0  0  0  0  0  0
    5.3744   -1.9154    2.2134 N   0  0  0  0  0  0  0  0  0  0  0  0
    5.1499   -0.5668    2.1183 C   0  0  0  0  0  0  0  0  0  0  0  0
    6.1917    0.4300    1.6391 C   0  0  0  0  0  0  0  0  0  0  0  0
    4.3149   -4.0583    2.8549 C   0  0  0  0  0  0  0  0  0  0  0  0
    5.5018   -4.7778    2.9461 C   0  0  0  0  0  0  0  0  0  0  0  0
    5.4553   -6.1540    3.1441 C   0  0  0  0  0  0  0  0  0  0  0  0
    4.2283   -6.8003    3.2506 C   0  0  0  0  0  0  0  0  0  0  0  0
    3.0491   -6.0712    3.1584 C   0  0  0  0  0  0  0  0  0  0  0  0
    3.0822   -4.6948    2.9599 C   0  0  0  0  0  0  0  0  0  0  0  0
    0.8853    3.7336    2.5048 N   0  0  0  0  0  0  0  0  0  0  0  0
    0.9717    5.1351    2.0699 C   0  0  0  0  0  0  0  0  0  0  0  0
    0.7157    5.2181    0.5767 C   0  0  0  0  0  0  0  0  0  0  0  0
   -0.8079    5.4304   -0.1483 S   0  0  0  0  0  0  0  0  0  0  0  0
   -0.2418    5.4078   -1.7555 C   0  0  0  0  0  0  0  0  0  0  0  0
    1.0679    5.2448   -1.6893 N   0  0  0  0  0  0  0  0  0  0  0  0
    1.6245    5.1362   -0.4343 C   0  0  0  0  0  0  0  0  0  0  0  0
   -0.4030    3.1782    2.9437 C   0  0  0  0  0  0  0  0  0  0  0  0
   -0.7332    3.7006    4.3324 C   0  0  0  0  0  0  0  0  0  0  0  0
   -1.9179    3.0757    4.8039 O   0  0  0  0  0  0  0  0  0  0  0  0
   -2.2264    3.5637    6.1012 C   0  0  0  0  0  0  0  0  0  0  0  0
   -2.2127   -3.1994   -0.5079 H   0  0  0  0  0  0  0  0  0  0  0  0
   -2.4167   -5.4846   -0.0714 H   0  0  0  0  0  0  0  0  0  0  0  0
   -1.6856   -5.2414   -1.5112 H   0  0  0  0  0  0  0  0  0  0  0  0
   -0.7980   -5.6545   -0.2042 H   0  0  0  0  0  0  0  0  0  0  0  0
    0.5289   -1.7867    1.4882 H   0  0  0  0  0  0  0  0  0  0  0  0
    0.5859    2.1930    0.3049 H   0  0  0  0  0  0  0  0  0  0  0  0
    0.0707    1.5230   -1.9319 H   0  0  0  0  0  0  0  0  0  0  0  0
   -0.2177   -0.7879   -2.4725 H   0  0  0  0  0  0  0  0  0  0  0  0
    0.1362    1.1248    2.9018 H   0  0  0  0  0  0  0  0  0  0  0  0
    1.1422   -0.1546    3.0350 H   0  0  0  0  0  0  0  0  0  0  0  0
    5.8032    1.3513    1.6538 H   0  0  0  0  0  0  0  0  0  0  0  0
    6.9889    0.3947    2.2419 H   0  0  0  0  0  0  0  0  0  0  0  0
    6.4688    0.1999    0.7062 H   0  0  0  0  0  0  0  0  0  0  0  0
    6.3820   -4.3094    2.8700 H   0  0  0  0  0  0  0  0  0  0  0  0
    6.3041   -6.6786    3.2098 H   0  0  0  0  0  0  0  0  0  0  0  0
    4.1948   -7.7894    3.3935 H   0  0  0  0  0  0  0  0  0  0  0  0
    2.1691   -6.5400    3.2354 H   0  0  0  0  0  0  0  0  0  0  0  0
    2.2330   -4.1709    2.8937 H   0  0  0  0  0  0  0  0  0  0  0  0
    1.8840    5.4913    2.2720 H   0  0  0  0  0  0  0  0  0  0  0  0
    0.2868    5.6778    2.5562 H   0  0  0  0  0  0  0  0  0  0  0  0
   -0.7923    5.4998   -2.5852 H   0  0  0  0  0  0  0  0  0  0  0  0
    2.6043    5.0091   -0.2798 H   0  0  0  0  0  0  0  0  0  0  0  0
   -0.3448    2.1802    2.9681 H   0  0  0  0  0  0  0  0  0  0  0  0
   -1.1204    3.4548    2.3043 H   0  0  0  0  0  0  0  0  0  0  0  0
    0.0224    3.4948    4.9543 H   0  0  0  0  0  0  0  0  0  0  0  0
   -0.8716    4.6901    4.2921 H   0  0  0  0  0  0  0  0  0  0  0  0
   -3.0607    3.1237    6.4332 H   0  0  0  0  0  0  0  0  0  0  0  0
   -1.4708    3.3579    6.7231 H   0  0  0  0  0  0  0  0  0  0  0  0
   -2.3648    4.5533    6.0609 H   0  0  0  0  0  0  0  0  0  0  0  0
  1  2  2  0  0  0  0
  1  3  2  0  0  0  0
  1  4  1  0  0  0  0
  4  5  1  0  0  0  0
  1  6  1  0  0  0  0
  6  7  1  0  0  0  0
  7  8  2  0  0  0  0
  8  9  1  0  0  0  0
  9 10  2  0  0  0  0
 10 11  1  0  0  0  0
 11  6  2  0  0  0  0
  8 12  1  0  0  0  0
 12 13  1  0  0  0  0
 13 14  1  0  0  0  0
 14 15  2  0  0  0  0
 15 16  1  0  0  0  0
 16 17  2  0  0  0  0
 17 13  1  0  0  0  0
 17 18  1  0  0  0  0
 18 19  1  0  0  0  0
 19 20  1  0  0  0  0
 20 21  2  0  0  0  0
 21 22  1  0  0  0  0
 18 22  2  0  0  0  0
 22 23  1  0  0  0  0
 20 24  1  0  0  0  0
 24 25  1  0  0  0  0
 25 26  2  0  0  0  0
 26 27  1  0  0  0  0
 27 28  2  0  0  0  0
 28 29  1  0  0  0  0
 29 24  2  0  0  0  0
 14 30  1  0  0  0  0
 30 31  1  0  0  0  0
 31 32  1  0  0  0  0
 32 33  1  0  0  0  0
 33 34  1  0  0  0  0
 34 35  2  0  0  0  0
 35 36  1  0  0  0  0
 32 36  2  0  0  0  0
 30 37  1  0  0  0  0
 37 38  1  0  0  0  0
 38 39  1  0  0  0  0
 39 40  1  0  0  0  0
  4 41  1  0  0  0  0
  5 42  1  0  0  0  0
  5 43  1  0  0  0  0
  5 44  1  0  0  0  0
  7 45  1  0  0  0  0
  9 46  1  0  0  0  0
 10 47  1  0  0  0  0
 11 48  1  0  0  0  0
 12 49  1  0  0  0  0
 12 50  1  0  0  0  0
 23 51  1  0  0  0  0
 23 52  1  0  0  0  0
 23 53  1  0  0  0  0
 25 54  1  0  0  0  0
 26 55  1  0  0  0  0
 27 56  1  0  0  0  0
 28 57  1  0  0  0  0
 29 58  1  0  0  0  0
 31 59  1  0  0  0  0
 31 60  1  0  0  0  0
 34 61  1  0  0  0  0
 36 62  1  0  0  0  0
 37 63  1  0  0  0  0
 37 64  1  0  0  0  0
 38 65  1  0  0  0  0
 38 66  1  0  0  0  0
 40 67  1  0  0  0  0
 40 68  1  0  0  0  0
 40 69  1  0  0  0  0
M  END
>  <result-rank>
51

>  <similarity>
0.872

>  <query-name>


>  <query-smiles>
S(=O)(=O)(NC(=O)C)c1ccc(cc1)C=2N3N=CC=C(N4CCOCC4)C3=NC2/C=C/c5nc6c(cc5)cccc6

>  <source>
REALspace_2019-12

>  <similarity-descriptor>
0.936;0.843;0.797;0.899;0.823;0.942;1.000;0.733;0.733;0.733;0.797;0.823;0.063

>  <similarity-descriptor-smiles>
c1cccc(c1)C;CCOC;N1C=NN=C1;NCC1=CN=CS1;C1=CN=CS1;c1ccccc1;S(=O)=O;NC;NC;NC;N1C=NN=C1;C1=CN=CS1;C

>  <reaction-name>
m_273170

>  <reagent1-name>
10756572

>  <reagent1-smiles>
[R2*]=C([R1*])N([R3*])Cc1cc(S(=O)(=O)NC)ccc1

>  <reagent2-name>
10765544

>  <reagent2-smiles>
[R1*]N(CC=1SC=NC1)CCOC

>  <reagent3-name>
10766652

>  <reagent3-smiles>
[R2*]=NN=C([R3*])C=1SC(=NC1C)c2ccccc2

$$$$
m_276910____14484388____14486608
          04022017323D 1   1.00000     0.00000     0
            
 48 51  0  0  0  0            999 V2000
    1.0000    1.0000    1.0000 S   0  0  0  0  0  0  0  0  0  0  0  0
   -0.2666    1.6504    0.7848 O   0  0  0  0  0  0  0  0  0  0  0  0
    0.7848   -0.2666    1.6504 O   0  0  0  0  0  0  0  0  0  0  0  0
    1.7363    0.7563   -0.4337 N   0  0  0  0  0  0  0  0  0  0  0  0
    0.8876   -0.0924   -1.2824 C   0  0  0  0  0  0  0  0  0  0  0  0
    1.5741   -0.3196   -2.6193 C   0  0  0  0  0  0  0  0  0  0  0  0
    2.0045    2.0045    2.0045 C   0  0  0  0  0  0  0  0  0  0  0  0
    1.8611    3.3871    1.9566 C   0  0  0  0  0  0  0  0  0  0  0  0
    2.6713    4.1779    2.7649 C   0  0  0  0  0  0  0  0  0  0  0  0
    3.6142    3.6035    3.6112 C   0  0  0  0  0  0  0  0  0  0  0  0
    3.7415    2.2187    3.6444 C   0  0  0  0  0  0  0  0  0  0  0  0
    2.9408    1.4099    2.8445 C   0  0  0  0  0  0  0  0  0  0  0  0
    2.5242    5.6198    2.7174 C   0  0  0  0  0  0  0  0  0  0  0  0
    3.2199    6.4774    3.4226 N   0  0  0  0  0  0  0  0  0  0  0  0
    2.7632    7.7111    3.0741 C   0  0  0  0  0  0  0  0  0  0  0  0
    1.8142    7.5769    2.1794 N   0  0  0  0  0  0  0  0  0  0  0  0
    1.6394    6.2990    1.9361 N   0  0  0  0  0  0  0  0  0  0  0  0
    3.2449    8.9635    3.6012 C   0  0  0  0  0  0  0  0  0  0  0  0
    4.2380    9.0864    4.5362 N   0  0  0  0  0  0  0  0  0  0  0  0
    4.5357   10.3115    4.8902 C   0  0  0  0  0  0  0  0  0  0  0  0
    3.5025   11.3304    4.0008 S   0  0  0  0  0  0  0  0  0  0  0  0
    2.6760   10.1103    3.1471 C   0  0  0  0  0  0  0  0  0  0  0  0
    5.5012   10.7164    5.8195 N   0  0  0  0  0  0  0  0  0  0  0  0
    6.3129    9.6969    6.5024 C   0  0  0  0  0  0  0  0  0  0  0  0
    7.7117   10.2186    6.7926 C   0  0  0  0  0  0  0  0  0  0  0  0
    7.6744   11.5280    7.3454 O   0  0  0  0  0  0  0  0  0  0  0  0
    7.1488   12.4561    6.4055 C   0  0  0  0  0  0  0  0  0  0  0  0
    5.6961   12.1521    6.0722 C   0  0  0  0  0  0  0  0  0  0  0  0
    2.6158    0.3047   -0.2842 H   0  0  0  0  0  0  0  0  0  0  0  0
    0.0080    0.3593   -1.4319 H   0  0  0  0  0  0  0  0  0  0  0  0
    0.7381   -0.9719   -0.8307 H   0  0  0  0  0  0  0  0  0  0  0  0
    0.9968   -0.8969   -3.1967 H   0  0  0  0  0  0  0  0  0  0  0  0
    1.7236    0.5600   -3.0710 H   0  0  0  0  0  0  0  0  0  0  0  0
    2.4537   -0.7713   -2.4698 H   0  0  0  0  0  0  0  0  0  0  0  0
    1.1857    3.8064    1.3500 H   0  0  0  0  0  0  0  0  0  0  0  0
    4.1933    4.1790    4.1886 H   0  0  0  0  0  0  0  0  0  0  0  0
    4.4170    1.7993    4.2508 H   0  0  0  0  0  0  0  0  0  0  0  0
    3.0369    0.4149    2.8728 H   0  0  0  0  0  0  0  0  0  0  0  0
    0.9812    5.8997    1.2979 H   0  0  0  0  0  0  0  0  0  0  0  0
    1.9455   10.2136    2.4721 H   0  0  0  0  0  0  0  0  0  0  0  0
    6.3802    8.8876    5.9189 H   0  0  0  0  0  0  0  0  0  0  0  0
    5.8704    9.4503    7.3646 H   0  0  0  0  0  0  0  0  0  0  0  0
    8.1596    9.6041    7.4422 H   0  0  0  0  0  0  0  0  0  0  0  0
    8.2339   10.2403    5.9401 H   0  0  0  0  0  0  0  0  0  0  0  0
    7.6908   12.4106    5.5664 H   0  0  0  0  0  0  0  0  0  0  0  0
    7.2077   13.3770    6.7908 H   0  0  0  0  0  0  0  0  0  0  0  0
    5.1195   12.4299    6.8406 H   0  0  0  0  0  0  0  0  0  0  0  0
    5.4337   12.6663    5.2556 H   0  0  0  0  0  0  0  0  0  0  0  0
  1  2  2  0  0  0  0
  1  3  2  0  0  0  0
  1  4  1  0  0  0  0
  4  5  1  0  0  0  0
  5  6  1  0  0  0  0
  1  7  1  0  0  0  0
  7  8  1  0  0  0  0
  8  9  2  0  0  0  0
  9 10  1  0  0  0  0
 10 11  2  0  0  0  0
 11 12  1  0  0  0  0
 12  7  2  0  0  0  0
  9 13  1  0  0  0  0
 13 14  2  0  0  0  0
 14 15  1  0  0  0  0
 15 16  2  0  0  0  0
 16 17  1  0  0  0  0
 17 13  1  0  0  0  0
 15 18  1  0  0  0  0
 18 19  1  0  0  0  0
 19 20  2  0  0  0  0
 20 21  1  0  0  0  0
 21 22  1  0  0  0  0
 18 22  2  0  0  0  0
 20 23  1  0  0  0  0
 23 24  1  0  0  0  0
 24 25  1  0  0  0  0
 25 26  1  0  0  0  0
 26 27  1  0  0  0  0
 27 28  1  0  0  0  0
 28 23  1  0  0  0  0
  4 29  1  0  0  0  0
  5 30  1  0  0  0  0
  5 31  1  0  0  0  0
  6 32  1  0  0  0  0
  6 33  1  0  0  0  0
  6 34  1  0  0  0  0
  8 35  1  0  0  0  0
 10 36  1  0  0  0  0
 11 37  1  0  0  0  0
 12 38  1  0  0  0  0
 17 39  1  0  0  0  0
 22 40  1  0  0  0  0
 24 41  1  0  0  0  0
 24 42  1  0  0  0  0
 25 43  1  0  0  0  0
 25 44  1  0  0  0  0
 27 45  1  0  0  0  0
 27 46  1  0  0  0  0
 28 47  1  0  0  0  0
 28 48  1  0  0  0  0
M  END
>  <result-rank>
52

>  <similarity>
0.872

>  <query-name>


>  <query-smiles>
S(=O)(=O)(NC(=O)C)c1ccc(cc1)C=2N3N=CC=C(N4CCOCC4)C3=NC2/C=C/c5nc6c(cc5)cccc6

>  <source>
REALspace_2019-12

>  <similarity-descriptor>
1.000;1.000;0.733;0.961;0.0;0.0;1.000;0.730;0.730;1.000;0.733;0.0;0.0

>  <similarity-descriptor-smiles>
c1ccccc1;N1CCOCC1;C=1NN=CN1;C1=CSC=N1;;;S(=O)=O;NC;NC;C;C=1NN=CN1;;

>  <reaction-name>
m_276910

>  <reagent1-name>
14484388

>  <reagent1-smiles>
[R2*]=NN=C([R1*])C=1N=C(SC1)N2CCOCC2

>  <reagent2-name>
14486608

>  <reagent2-smiles>
[R2*]=C(N[R1*])c1cc(S(=O)(=O)NCC)ccc1

$$$$
m_273170____14412036____10761502____10755784
          04022017323D 1   1.00000     0.00000     0
            
 73 78  0  0  0  0            999 V2000
   -1.8061    0.3250    2.8595 O   0  0  0  0  0  0  0  0  0  0  0  0
   -0.8179   -0.5000    3.2673 C   0  0  0  0  0  0  0  0  0  0  0  0
    0.2272   -0.8359    2.4124 C   0  0  0  0  0  0  0  0  0  0  0  0
    1.2365   -1.6877    2.8488 C   0  0  0  0  0  0  0  0  0  0  0  0
    1.2023   -2.2024    4.1407 C   0  0  0  0  0  0  0  0  0  0  0  0
    0.1578   -1.8662    4.9962 C   0  0  0  0  0  0  0  0  0  0  0  0
   -0.8525   -1.0149    4.5594 C   0  0  0  0  0  0  0  0  0  0  0  0
    0.2650   -0.2731    1.0004 C   0  0  0  0  0  0  0  0  0  0  0  0
    1.0000    1.0000    1.0000 N   0  0  0  0  0  0  0  0  0  0  0  0
    2.4017    1.0000    1.0000 C   0  0  0  0  0  0  0  0  0  0  0  0
    3.1912    0.0175    0.6428 N   0  0  0  0  0  0  0  0  0  0  0  0
    4.4560    0.3523    0.7687 N   0  0  0  0  0  0  0  0  0  0  0  0
    4.5040    1.5856    1.2197 C   0  0  0  0  0  0  0  0  0  0  0  0
    3.2232    2.0152    1.3734 N   0  0  0  0  0  0  0  0  0  0  0  0
    2.8010    3.3388    1.8554 C   0  0  0  0  0  0  0  0  0  0  0  0
    2.8897    3.3776    3.3723 C   0  0  0  0  0  0  0  0  0  0  0  0
    2.4676    4.7010    3.8542 N   0  0  0  0  0  0  0  0  0  0  0  0
    1.2362    5.0352    4.1709 N   0  0  0  0  0  0  0  0  0  0  0  0
    1.1903    6.2853    4.5658 C   0  0  0  0  0  0  0  0  0  0  0  0
    2.5121    6.7758    4.4900 C   0  0  0  0  0  0  0  0  0  0  0  0
    3.3000    5.7612    4.0424 C   0  0  0  0  0  0  0  0  0  0  0  0
    2.9693    8.1830    4.8478 C   0  0  3  0  0  0  0  0  0  0  0  0
    4.0009    8.2071    5.9615 C   0  0  0  0  0  0  0  0  0  0  0  0
    4.6421    9.4613    5.8076 O   0  0  0  0  0  0  0  0  0  0  0  0
    4.5159    9.8874    4.4594 C   0  0  0  0  0  0  0  0  0  0  0  0
    3.7775    8.7919    3.7213 C   0  0  0  0  0  0  0  0  0  0  0  0
    5.7075    2.3455    1.5006 C   0  0  0  0  0  0  0  0  0  0  0  0
    6.1128    2.5977    2.7563 N   0  0  0  0  0  0  0  0  0  0  0  0
    7.2257    3.3002    3.0265 C   0  0  0  0  0  0  0  0  0  0  0  0
    8.0051    3.7959    1.9846 C   0  0  0  0  0  0  0  0  0  0  0  0
    7.6083    3.5492    0.6744 C   0  0  0  0  0  0  0  0  0  0  0  0
    6.4507    2.8188    0.4238 C   0  0  0  0  0  0  0  0  0  0  0  0
    9.1628    4.5264    2.2311 C   0  0  0  0  0  0  0  0  0  0  0  0
    9.5425    4.7626    3.5482 C   0  0  0  0  0  0  0  0  0  0  0  0
    8.7816    4.2784    4.6070 C   0  0  0  0  0  0  0  0  0  0  0  0
    7.6279    3.5503    4.3348 C   0  0  0  0  0  0  0  0  0  0  0  0
    0.2650    2.2731    0.9996 C   0  0  0  0  0  0  0  0  0  0  0  0
   -0.3095    2.5259   -0.3848 C   0  0  0  0  0  0  0  0  0  0  0  0
   -1.0195    3.7557   -0.3852 O   0  0  0  0  0  0  0  0  0  0  0  0
   -2.8649    0.6570    3.7456 C   0  0  0  0  0  0  0  0  0  0  0  0
    1.9868   -1.9300    2.2338 H   0  0  0  0  0  0  0  0  0  0  0  0
    1.9285   -2.8141    4.4545 H   0  0  0  0  0  0  0  0  0  0  0  0
    0.1332   -2.2363    5.9248 H   0  0  0  0  0  0  0  0  0  0  0  0
   -1.6033   -0.7731    5.1741 H   0  0  0  0  0  0  0  0  0  0  0  0
    0.7238   -0.9231    0.3946 H   0  0  0  0  0  0  0  0  0  0  0  0
   -0.6689   -0.1189    0.6779 H   0  0  0  0  0  0  0  0  0  0  0  0
    1.8576    3.5115    1.5721 H   0  0  0  0  0  0  0  0  0  0  0  0
    3.3990    4.0408    1.4685 H   0  0  0  0  0  0  0  0  0  0  0  0
    2.2917    2.6757    3.7592 H   0  0  0  0  0  0  0  0  0  0  0  0
    3.8331    3.2050    3.6556 H   0  0  0  0  0  0  0  0  0  0  0  0
    0.3798    6.7907    4.8618 H   0  0  0  0  0  0  0  0  0  0  0  0
    4.2871    5.7886    3.8843 H   0  0  0  0  0  0  0  0  0  0  0  0
    2.1871    8.7626    5.0765 H   0  0  0  0  0  0  0  0  0  0  0  0
    3.5596    8.1409    6.8564 H   0  0  0  0  0  0  0  0  0  0  0  0
    4.6551    7.4581    5.8563 H   0  0  0  0  0  0  0  0  0  0  0  0
    5.4205   10.0250    4.0558 H   0  0  0  0  0  0  0  0  0  0  0  0
    3.9978   10.7416    4.4154 H   0  0  0  0  0  0  0  0  0  0  0  0
    3.1875    9.1642    3.0049 H   0  0  0  0  0  0  0  0  0  0  0  0
    4.4091    8.1278    3.3212 H   0  0  0  0  0  0  0  0  0  0  0  0
    8.1550    3.8967   -0.0874 H   0  0  0  0  0  0  0  0  0  0  0  0
    6.1577    2.6372   -0.5148 H   0  0  0  0  0  0  0  0  0  0  0  0
    9.7135    4.8763    1.4733 H   0  0  0  0  0  0  0  0  0  0  0  0
   10.3728    5.2871    3.7362 H   0  0  0  0  0  0  0  0  0  0  0  0
    9.0603    4.4513    5.5516 H   0  0  0  0  0  0  0  0  0  0  0  0
    7.0778    3.2004    5.0930 H   0  0  0  0  0  0  0  0  0  0  0  0
    0.8870    3.0172    1.2433 H   0  0  0  0  0  0  0  0  0  0  0  0
   -0.4790    2.2286    1.6662 H   0  0  0  0  0  0  0  0  0  0  0  0
    0.4345    2.5703   -1.0515 H   0  0  0  0  0  0  0  0  0  0  0  0
   -0.9316    1.7818   -0.6285 H   0  0  0  0  0  0  0  0  0  0  0  0
   -1.3975    3.9220   -1.2959 H   0  0  0  0  0  0  0  0  0  0  0  0
   -3.5043    1.2727    3.2852 H   0  0  0  0  0  0  0  0  0  0  0  0
   -3.3440   -0.1769    4.0197 H   0  0  0  0  0  0  0  0  0  0  0  0
   -2.4920    1.1089    4.5560 H   0  0  0  0  0  0  0  0  0  0  0  0
  1  2  1  0  0  0  0
  2  3  1  0  0  0  0
  3  4  2  0  0  0  0
  4  5  1  0  0  0  0
  5  6  2  0  0  0  0
  6  7  1  0  0  0  0
  7  2  2  0  0  0  0
  3  8  1  0  0  0  0
  8  9  1  0  0  0  0
  9 10  1  0  0  0  0
 10 11  2  0  0  0  0
 11 12  1  0  0  0  0
 12 13  2  0  0  0  0
 13 14  1  0  0  0  0
 14 10  1  0  0  0  0
 14 15  1  0  0  0  0
 15 16  1  0  0  0  0
 16 17  1  0  0  0  0
 17 18  1  0  0  0  0
 18 19  2  0  0  0  0
 19 20  1  0  0  0  0
 20 21  2  0  0  0  0
 21 17  1  0  0  0  0
 20 22  1  0  0  0  0
 22 23  1  0  0  0  0
 23 24  1  0  0  0  0
 24 25  1  0  0  0  0
 25 26  1  0  0  0  0
 26 22  1  0  0  0  0
 13 27  1  0  0  0  0
 27 28  1  0  0  0  0
 28 29  2  0  0  0  0
 29 30  1  0  0  0  0
 30 31  2  0  0  0  0
 31 32  1  0  0  0  0
 32 27  2  0  0  0  0
 30 33  1  0  0  0  0
 33 34  2  0  0  0  0
 34 35  1  0  0  0  0
 35 36  2  0  0  0  0
 36 29  1  0  0  0  0
  9 37  1  0  0  0  0
 37 38  1  0  0  0  0
 38 39  1  0  0  0  0
  1 40  1  0  0  0  0
  4 41  1  0  0  0  0
  5 42  1  0  0  0  0
  6 43  1  0  0  0  0
  7 44  1  0  0  0  0
  8 45  1  0  0  0  0
  8 46  1  0  0  0  0
 15 47  1  0  0  0  0
 15 48  1  0  0  0  0
 16 49  1  0  0  0  0
 16 50  1  0  0  0  0
 19 51  1  0  0  0  0
 21 52  1  0  0  0  0
 22 53  1  0  0  0  0
 23 54  1  0  0  0  0
 23 55  1  0  0  0  0
 25 56  1  0  0  0  0
 25 57  1  0  0  0  0
 26 58  1  0  0  0  0
 26 59  1  0  0  0  0
 31 60  1  0  0  0  0
 32 61  1  0  0  0  0
 33 62  1  0  0  0  0
 34 63  1  0  0  0  0
 35 64  1  0  0  0  0
 36 65  1  0  0  0  0
 37 66  1  0  0  0  0
 37 67  1  0  0  0  0
 38 68  1  0  0  0  0
 38 69  1  0  0  0  0
 39 70  1  0  0  0  0
 40 71  1  0  0  0  0
 40 72  1  0  0  0  0
 40 73  1  0  0  0  0
M  END
>  <result-rank>
53

>  <similarity>
0.872

>  <query-name>


>  <query-smiles>
S(=O)(=O)(NC(=O)C)c1ccc(cc1)C=2N3N=CC=C(N4CCOCC4)C3=NC2/C=C/c5nc6c(cc5)cccc6

>  <source>
REALspace_2019-12

>  <similarity-descriptor>
0.875;0.976;0.797;0.829;0.935;1.000;0.769;0.769;0.0;0.0;0.797;0.935;0.133

>  <similarity-descriptor-smiles>
c1ccccc1CNC;C1CCOC1;C=1NC=NN1;CCN1C=CC=N1;c1ccccn1;c1ccccc1;CO;CO;;;C=1NC=NN1;c1ccccn1;O.C

>  <reaction-name>
m_273170

>  <reagent1-name>
14412036

>  <reagent1-smiles>
[R2*]=C([R1*])N([R3*])CCN1N=CC(=C1)C2COCC2

>  <reagent2-name>
10761502

>  <reagent2-smiles>
[R1*]N(Cc1c(OC)cccc1)CCO

>  <reagent3-name>
10755784

>  <reagent3-smiles>
[R2*]=NN=C([R3*])c1nc2c(cc1)cccc2

$$$$
m_274972____12934192____12615770____14260852
          04022017323D 1   1.00000     0.00000     0
            
 46 49  0  0  0  0            999 V2000
   10.2247    1.6719    2.3661 S   0  0  0  0  0  0  0  0  0  0  0  0
   10.8020    2.8102    3.0328 O   0  0  0  0  0  0  0  0  0  0  0  0
   10.6267    0.4653    3.0415 O   0  0  0  0  0  0  0  0  0  0  0  0
   10.7414    1.6275    0.8208 N   0  0  0  0  0  0  0  0  0  0  0  0
   12.2071    1.5178    0.7972 C   0  0  0  0  0  0  0  0  0  0  0  0
    8.4200    1.8069    2.3952 C   0  0  0  0  0  0  0  0  0  0  0  0
    7.6437    0.6529    2.4108 C   0  0  0  0  0  0  0  0  0  0  0  0
    6.2577    0.7683    2.4333 C   0  0  0  0  0  0  0  0  0  0  0  0
    5.6642    2.0267    2.4390 C   0  0  0  0  0  0  0  0  0  0  0  0
    6.4448    3.1781    2.4235 C   0  0  0  0  0  0  0  0  0  0  0  0
    7.8313    3.0673    2.4012 C   0  0  0  0  0  0  0  0  0  0  0  0
    4.2182    2.1329    2.4615 C   0  0  0  0  0  0  0  0  0  0  0  0
    3.3303    3.5831    2.4714 S   0  0  0  0  0  0  0  0  0  0  0  0
    1.7841    2.8690    2.4950 C   0  0  0  0  0  0  0  0  0  0  0  0
    2.0375    1.5302    2.4908 C   0  0  0  0  0  0  0  0  0  0  0  0
    3.3498    1.1464    2.4729 N   0  0  0  0  0  0  0  0  0  0  0  0
    0.9118    0.6170    2.5150 C   0  0  0  0  0  0  0  0  0  0  0  0
   -0.4029    0.9692    2.5332 N   0  0  0  0  0  0  0  0  0  0  0  0
   -1.0790   -0.0974    2.5525 N   0  0  0  0  0  0  0  0  0  0  0  0
   -0.3062   -1.1554    2.5502 N   0  0  0  0  0  0  0  0  0  0  0  0
    0.9871   -0.7420    2.5276 C   0  0  0  0  0  0  0  0  0  0  0  0
   -0.7634   -2.5524    2.5709 C   0  0  0  0  0  0  0  0  0  0  0  0
   -0.9436   -3.0464    1.1486 C   0  0  3  0  0  0  0  0  0  0  0  0
    0.2689   -2.9799    0.4275 O   0  0  0  0  0  0  0  0  0  0  0  0
    0.3263   -4.1018   -0.4465 C   0  0  0  0  0  0  0  0  0  0  0  0
   -0.9891   -4.8556   -0.3259 C   0  0  0  0  0  0  0  0  0  0  0  0
   -0.8272   -6.1630   -0.5085 F   0  0  0  0  0  0  0  0  0  0  0  0
   -1.9348   -4.4178   -1.1524 F   0  0  0  0  0  0  0  0  0  0  0  0
   -1.2724   -4.5267    1.1185 C   0  0  0  0  0  0  0  0  0  0  0  0
   10.4622    2.4654    0.3518 H   0  0  0  0  0  0  0  0  0  0  0  0
   12.5241    1.4906   -0.1508 H   0  0  0  0  0  0  0  0  0  0  0  0
   12.6080    2.3083    1.2602 H   0  0  0  0  0  0  0  0  0  0  0  0
   12.4863    0.6799    1.2662 H   0  0  0  0  0  0  0  0  0  0  0  0
    8.0766   -0.2485    2.4058 H   0  0  0  0  0  0  0  0  0  0  0  0
    5.6878   -0.0533    2.4453 H   0  0  0  0  0  0  0  0  0  0  0  0
    6.0120    4.0795    2.4284 H   0  0  0  0  0  0  0  0  0  0  0  0
    8.4014    3.8888    2.3896 H   0  0  0  0  0  0  0  0  0  0  0  0
    0.8951    3.3268    2.5089 H   0  0  0  0  0  0  0  0  0  0  0  0
    1.8107   -1.3092    2.5215 H   0  0  0  0  0  0  0  0  0  0  0  0
   -1.6355   -2.6105    3.0569 H   0  0  0  0  0  0  0  0  0  0  0  0
   -0.0837   -3.1187    3.0369 H   0  0  0  0  0  0  0  0  0  0  0  0
   -1.6559   -2.5206    0.6837 H   0  0  0  0  0  0  0  0  0  0  0  0
    1.0850   -4.6983   -0.1844 H   0  0  0  0  0  0  0  0  0  0  0  0
    0.4556   -3.7924   -1.3886 H   0  0  0  0  0  0  0  0  0  0  0  0
   -0.6822   -5.0465    1.7360 H   0  0  0  0  0  0  0  0  0  0  0  0
   -2.2300   -4.6948    1.3523 H   0  0  0  0  0  0  0  0  0  0  0  0
  1  2  2  0  0  0  0
  1  3  2  0  0  0  0
  1  4  1  0  0  0  0
  4  5  1  0  0  0  0
  1  6  1  0  0  0  0
  6  7  1  0  0  0  0
  7  8  2  0  0  0  0
  8  9  1  0  0  0  0
  9 10  2  0  0  0  0
 10 11  1  0  0  0  0
 11  6  2  0  0  0  0
  9 12  1  0  0  0  0
 12 13  1  0  0  0  0
 13 14  1  0  0  0  0
 14 15  2  0  0  0  0
 15 16  1  0  0  0  0
 12 16  2  0  0  0  0
 15 17  1  0  0  0  0
 17 18  1  0  0  0  0
 18 19  2  0  0  0  0
 19 20  1  0  0  0  0
 20 21  1  0  0  0  0
 17 21  2  0  0  0  0
 20 22  1  0  0  0  0
 22 23  1  0  0  0  0
 23 24  1  0  0  0  0
 24 25  1  0  0  0  0
 25 26  1  0  0  0  0
 26 27  1  0  0  0  0
 26 28  1  0  0  0  0
 26 29  1  0  0  0  0
 29 23  1  0  0  0  0
  4 30  1  0  0  0  0
  5 31  1  0  0  0  0
  5 32  1  0  0  0  0
  5 33  1  0  0  0  0
  7 34  1  0  0  0  0
  8 35  1  0  0  0  0
 10 36  1  0  0  0  0
 11 37  1  0  0  0  0
 14 38  1  0  0  0  0
 21 39  1  0  0  0  0
 22 40  1  0  0  0  0
 22 41  1  0  0  0  0
 23 42  1  0  0  0  0
 25 43  1  0  0  0  0
 25 44  1  0  0  0  0
 29 45  1  0  0  0  0
 29 46  1  0  0  0  0
M  END
>  <result-rank>
54

>  <similarity>
0.872

>  <query-name>


>  <query-smiles>
S(=O)(=O)(NC(=O)C)c1ccc(cc1)C=2N3N=CC=C(N4CCOCC4)C3=NC2/C=C/c5nc6c(cc5)cccc6

>  <source>
REALspace_2019-12

>  <similarity-descriptor>
1.000;0.981;0.918;0.782;0.0;0.0;1.000;0.733;0.733;0.733;0.918;0.918;0.0

>  <similarity-descriptor-smiles>
c1ccccc1;CC1CC(CO1)(F)F;C1=NC=CS1;C1=CNN=N1;;;S(=O)=O;NC;NC;NC;C1=NC=CS1;C1=NC=CS1;

>  <reaction-name>
m_274972

>  <reagent1-name>
12934192

>  <reagent1-smiles>
[R1*]SC(=N[R2*])c1ccc(S(=O)(=O)NC)cc1

>  <reagent2-name>
12615770

>  <reagent2-smiles>
[R2*]C(C([R3*])=C[R4*])=C[R1*]

>  <reagent3-name>
14260852

>  <reagent3-smiles>
[R3*]N=NN([R4*])CC1OCC(F)(F)C1

$$$$
s_270196____10336828____8774752
          04022017323D 1   1.00000     0.00000     0
            
 59 64  0  0  0  0            999 V2000
   -4.5017    6.4409    6.5578 F   0  0  0  0  0  0  0  0  0  0  0  0
   -4.6825    5.2799    5.9356 C   0  0  0  0  0  0  0  0  0  0  0  0
   -4.2535    5.1231    4.6223 C   0  0  0  0  0  0  0  0  0  0  0  0
   -4.4518    3.8994    3.9913 C   0  0  0  0  0  0  0  0  0  0  0  0
   -5.0675    2.8411    4.6521 C   0  0  0  0  0  0  0  0  0  0  0  0
   -5.4913    3.0100    5.9662 C   0  0  0  0  0  0  0  0  0  0  0  0
   -5.2995    4.2298    6.6078 C   0  0  0  0  0  0  0  0  0  0  0  0
   -3.9847    3.7262    2.5558 C   0  0  0  0  0  0  0  0  0  0  0  0
   -2.5986    3.2358    2.5473 N   0  0  0  0  0  0  0  0  0  0  0  0
   -2.2349    1.9703    2.5543 N   0  0  0  0  0  0  0  0  0  0  0  0
   -0.9292    1.8550    2.5462 C   0  0  0  0  0  0  0  0  0  0  0  0
   -0.4094    3.1692    2.5355 C   0  0  0  0  0  0  0  0  0  0  0  0
   -1.4865    4.0281    2.5369 C   0  0  0  0  0  0  0  0  0  0  0  0
   -1.2961    5.3611    2.5378 N   0  0  0  0  0  0  0  0  0  0  0  0
   -0.0807    5.9378    2.5319 C   0  0  0  0  0  0  0  0  0  0  0  0
    0.1172    7.3745    2.5371 C   0  0  0  0  0  0  0  0  0  0  0  0
   -0.9858    8.2220    2.5489 C   0  0  0  0  0  0  0  0  0  0  0  0
   -0.7915    9.5994    2.5530 C   0  0  0  0  0  0  0  0  0  0  0  0
    0.4984   10.1199    2.5468 C   0  0  0  0  0  0  0  0  0  0  0  0
    1.5927    9.2638    2.5355 C   0  0  0  0  0  0  0  0  0  0  0  0
    1.4116    7.8846    2.5306 C   0  0  0  0  0  0  0  0  0  0  0  0
    1.0363    5.1084    2.5196 C   0  0  0  0  0  0  0  0  0  0  0  0
    0.8640    3.7279    2.5208 C   0  0  0  0  0  0  0  0  0  0  0  0
    2.0505    2.8931    2.5095 C   0  0  0  0  0  0  0  0  0  0  0  0
    3.2897    3.3251    2.4953 O   0  0  0  0  0  0  0  0  0  0  0  0
    4.0828    2.3380    2.4895 N   0  0  0  0  0  0  0  0  0  0  0  0
    3.3784    1.2345    2.4974 C   0  0  0  0  0  0  0  0  0  0  0  0
    2.0616    1.5822    2.5110 N   0  0  0  0  0  0  0  0  0  0  0  0
    3.9317   -0.1800    2.4921 C   0  0  3  0  0  0  0  0  0  0  0  0
    3.4931   -0.8642    3.6565 O   0  0  0  0  0  0  0  0  0  0  0  0
    3.9563   -0.1791    4.8108 C   0  0  0  0  0  0  0  0  0  0  0  0
    3.4356   -0.9137    1.2560 C   0  0  0  0  0  0  0  0  0  0  0  0
    3.9633   -2.3181    1.2166 C   0  0  0  0  0  0  0  0  0  0  0  0
    4.5500   -1.2703    0.3148 C   0  0  0  0  0  0  0  0  0  0  0  0
    5.4508   -0.1298    2.4759 C   0  0  0  0  0  0  0  0  0  0  0  0
   -3.8095    5.8778    4.1393 H   0  0  0  0  0  0  0  0  0  0  0  0
   -5.2041    1.9668    4.1865 H   0  0  0  0  0  0  0  0  0  0  0  0
   -5.9337    2.2548    6.4498 H   0  0  0  0  0  0  0  0  0  0  0  0
   -5.6053    4.3515    7.5521 H   0  0  0  0  0  0  0  0  0  0  0  0
   -4.5746    3.0663    2.0906 H   0  0  0  0  0  0  0  0  0  0  0  0
   -4.0299    4.6057    2.0821 H   0  0  0  0  0  0  0  0  0  0  0  0
   -0.4039    1.0041    2.5473 H   0  0  0  0  0  0  0  0  0  0  0  0
   -1.9115    7.8439    2.5543 H   0  0  0  0  0  0  0  0  0  0  0  0
   -1.5792   10.2155    2.5605 H   0  0  0  0  0  0  0  0  0  0  0  0
    0.6381   11.1101    2.5504 H   0  0  0  0  0  0  0  0  0  0  0  0
    2.5183    9.6423    2.5309 H   0  0  0  0  0  0  0  0  0  0  0  0
    2.1997    7.2691    2.5226 H   0  0  0  0  0  0  0  0  0  0  0  0
    1.9558    5.5014    2.5102 H   0  0  0  0  0  0  0  0  0  0  0  0
    3.6475   -0.6610    5.6308 H   0  0  0  0  0  0  0  0  0  0  0  0
    4.9557   -0.1461    4.8001 H   0  0  0  0  0  0  0  0  0  0  0  0
    3.5921    0.7522    4.8143 H   0  0  0  0  0  0  0  0  0  0  0  0
    2.5247   -0.7157    0.8938 H   0  0  0  0  0  0  0  0  0  0  0  0
    3.4033   -3.0520    0.8321 H   0  0  0  0  0  0  0  0  0  0  0  0
    4.4972   -2.6733    1.9839 H   0  0  0  0  0  0  0  0  0  0  0  0
    5.4745   -0.9275    0.4817 H   0  0  0  0  0  0  0  0  0  0  0  0
    4.3806   -1.3062   -0.6701 H   0  0  0  0  0  0  0  0  0  0  0  0
    5.7597    0.3520    1.6559 H   0  0  0  0  0  0  0  0  0  0  0  0
    5.7770    0.3526    3.2888 H   0  0  0  0  0  0  0  0  0  0  0  0
    5.8150   -1.0611    2.4724 H   0  0  0  0  0  0  0  0  0  0  0  0
  1  2  1  0  0  0  0
  2  3  1  0  0  0  0
  3  4  2  0  0  0  0
  4  5  1  0  0  0  0
  5  6  2  0  0  0  0
  6  7  1  0  0  0  0
  7  2  2  0  0  0  0
  4  8  1  0  0  0  0
  8  9  1  0  0  0  0
  9 10  1  0  0  0  0
 10 11  2  0  0  0  0
 11 12  1  0  0  0  0
 12 13  1  0  0  0  0
 13  9  1  0  0  0  0
 13 14  2  0  0  0  0
 14 15  1  0  0  0  0
 15 16  1  0  0  0  0
 16 17  1  0  0  0  0
 17 18  2  0  0  0  0
 18 19  1  0  0  0  0
 19 20  2  0  0  0  0
 20 21  1  0  0  0  0
 21 16  2  0  0  0  0
 15 22  2  0  0  0  0
 22 23  1  0  0  0  0
 23 12  2  0  0  0  0
 23 24  1  0  0  0  0
 24 25  1  0  0  0  0
 25 26  1  0  0  0  0
 26 27  2  0  0  0  0
 27 28  1  0  0  0  0
 24 28  2  0  0  0  0
 27 29  1  0  0  0  0
 29 30  1  0  0  0  0
 30 31  1  0  0  0  0
 29 32  1  0  0  0  0
 32 33  1  0  0  0  0
 33 34  1  0  0  0  0
 34 32  1  0  0  0  0
 29 35  1  0  0  0  0
  3 36  1  0  0  0  0
  5 37  1  0  0  0  0
  6 38  1  0  0  0  0
  7 39  1  0  0  0  0
  8 40  1  0  0  0  0
  8 41  1  0  0  0  0
 11 42  1  0  0  0  0
 17 43  1  0  0  0  0
 18 44  1  0  0  0  0
 19 45  1  0  0  0  0
 20 46  1  0  0  0  0
 21 47  1  0  0  0  0
 22 48  1  0  0  0  0
 31 49  1  0  0  0  0
 31 50  1  0  0  0  0
 31 51  1  0  0  0  0
 32 52  1  0  0  0  0
 33 53  1  0  0  0  0
 33 54  1  0  0  0  0
 34 55  1  0  0  0  0
 34 56  1  0  0  0  0
 35 57  1  0  0  0  0
 35 58  1  0  0  0  0
 35 59  1  0  0  0  0
M  END
>  <result-rank>
55

>  <similarity>
0.871

>  <query-name>


>  <query-smiles>
S(=O)(=O)(NC(=O)C)c1ccc(cc1)C=2N3N=CC=C(N4CCOCC4)C3=NC2/C=C/c5nc6c(cc5)cccc6

>  <source>
REALspace_2019-12

>  <similarity-descriptor>
0.959;0.999;0.927;0.663;0.858;0.966;0.0;0.0;0.0;0.0;0.927;0.927;0.091

>  <similarity-descriptor-smiles>
c1ccccc1;C(OC)C1CC1;c1cccnc1;C1=NC=NO1;CN1ccC=N1;Fc1ccccc1;;;;;c1cccnc1;c1cccnc1;C

>  <reaction-name>
s_270196

>  <reagent1-name>
10336828

>  <reagent1-smiles>
[R1*]=NC(=NO[R2*])C(OC)(C1CC1)C

>  <reagent2-name>
8774752

>  <reagent2-smiles>
[R1*]C([R2*])c1c2c(nc(c3ccccc3)c1)N(N=C2)Cc4cc(F)ccc4

$$$$
s_2____821402____16506322____5126092
          04022017323D 1   1.00000     0.00000     0
            
 65 70  0  0  0  0            999 V2000
    7.6624   -0.2842    1.6479 S   0  0  0  0  0  0  0  0  0  0  0  0
    7.5138   -0.1983    3.3425 C   0  0  0  0  0  0  0  0  0  0  0  0
    8.3371   -0.6456    4.2038 N   0  0  0  0  0  0  0  0  0  0  0  0
    9.5568   -1.1926    3.7882 C   0  0  0  0  0  0  0  0  0  0  0  0
   10.6517   -0.3546    3.6038 C   0  0  0  0  0  0  0  0  0  0  0  0
   11.8638   -0.8989    3.1908 C   0  0  0  0  0  0  0  0  0  0  0  0
   11.9693   -2.2684    2.9679 C   0  0  0  0  0  0  0  0  0  0  0  0
   10.8693   -3.0991    3.1549 C   0  0  0  0  0  0  0  0  0  0  0  0
    9.6536   -2.5624    3.5672 C   0  0  0  0  0  0  0  0  0  0  0  0
   13.1782   -2.8196    2.5561 C   0  0  0  0  0  0  0  0  0  0  0  0
   14.2739   -1.9832    2.3713 C   0  0  0  0  0  0  0  0  0  0  0  0
   14.1715   -0.6139    2.5937 C   0  0  0  0  0  0  0  0  0  0  0  0
   12.9616   -0.0656    3.0055 C   0  0  0  0  0  0  0  0  0  0  0  0
    6.3413    0.4454    3.5867 N   0  0  0  0  0  0  0  0  0  0  0  0
    5.6599    0.8215    2.4637 C   0  0  0  0  0  0  0  0  0  0  0  0
    4.3934    1.5238    2.4792 C   0  0  0  0  0  0  0  0  0  0  0  0
    4.3898    2.9144    2.4850 C   0  0  0  0  0  0  0  0  0  0  0  0
    3.1783    3.5981    2.5011 C   0  0  0  0  0  0  0  0  0  0  0  0
    1.9856    2.8824    2.5103 C   0  0  0  0  0  0  0  0  0  0  0  0
    0.8052    3.5371    2.5243 O   0  0  0  0  0  0  0  0  0  0  0  0
    0.7807    4.9569    2.5297 C   0  0  0  0  0  0  0  0  0  0  0  0
   -0.6608    5.4387    2.5457 C   0  0  0  0  0  0  0  0  0  0  0  0
   -1.5593    4.6433    2.5517 O   0  0  0  0  0  0  0  0  0  0  0  0
   -0.9343    6.7811    2.5533 N   0  0  0  0  0  0  0  0  0  0  0  0
    1.9898    1.4913    2.5046 C   0  0  0  0  0  0  0  0  0  0  0  0
    3.2009    0.8075    2.4890 C   0  0  0  0  0  0  0  0  0  0  0  0
    6.2081    0.5160    1.2552 C   0  0  0  0  0  0  0  0  0  0  0  0
    5.8905    0.7002    4.9623 C   0  0  0  0  0  0  0  0  0  0  0  0
    6.5251    1.9869    5.4746 C   0  0  0  0  0  0  0  0  0  0  0  0
    6.3538    2.5570    6.7017 C   0  0  0  0  0  0  0  0  0  0  0  0
    7.1044    3.6939    6.7061 N   0  0  0  0  0  0  0  0  0  0  0  0
    7.6872    3.8298    5.5256 N   0  0  0  0  0  0  0  0  0  0  0  0
    7.3825    2.8306    4.7332 C   0  0  0  0  0  0  0  0  0  0  0  0
    7.1431    4.5448    7.9123 C   0  0  0  0  0  0  0  0  0  0  0  0
    5.8505    4.5284    8.7209 C   0  0  0  0  0  0  0  0  0  0  0  0
    5.3434    3.1645    8.9121 N   0  0  0  0  0  0  0  0  0  0  0  0
    5.5634    2.2361    7.8798 C   0  0  0  0  0  0  0  0  0  0  0  0
    5.0296    1.1620    8.0056 O   0  0  0  0  0  0  0  0  0  0  0  0
    4.6102    2.8081   10.1420 C   0  0  0  0  0  0  0  0  0  0  0  0
   10.5685    0.6286    3.7662 H   0  0  0  0  0  0  0  0  0  0  0  0
   10.9523   -4.0824    2.9929 H   0  0  0  0  0  0  0  0  0  0  0  0
    8.8591   -3.1544    3.7031 H   0  0  0  0  0  0  0  0  0  0  0  0
   13.2583   -3.8033    2.3952 H   0  0  0  0  0  0  0  0  0  0  0  0
   15.1466   -2.3711    2.0747 H   0  0  0  0  0  0  0  0  0  0  0  0
   14.9674   -0.0240    2.4576 H   0  0  0  0  0  0  0  0  0  0  0  0
   12.8819    0.9181    3.1666 H   0  0  0  0  0  0  0  0  0  0  0  0
    5.2527    3.4198    2.4778 H   0  0  0  0  0  0  0  0  0  0  0  0
    3.1650    4.5980    2.5060 H   0  0  0  0  0  0  0  0  0  0  0  0
    1.2382    5.3012    1.7099 H   0  0  0  0  0  0  0  0  0  0  0  0
    1.2543    5.2953    3.3428 H   0  0  0  0  0  0  0  0  0  0  0  0
   -0.1856    7.4440    2.5482 H   0  0  0  0  0  0  0  0  0  0  0  0
   -1.8827    7.0981    2.5638 H   0  0  0  0  0  0  0  0  0  0  0  0
    1.1270    0.9859    2.5117 H   0  0  0  0  0  0  0  0  0  0  0  0
    3.2144   -0.1924    2.4849 H   0  0  0  0  0  0  0  0  0  0  0  0
    5.8421    0.7151    0.3461 H   0  0  0  0  0  0  0  0  0  0  0  0
    6.1630   -0.0624    5.5490 H   0  0  0  0  0  0  0  0  0  0  0  0
    4.8948    0.7915    4.9753 H   0  0  0  0  0  0  0  0  0  0  0  0
    7.6943    2.6932    3.7931 H   0  0  0  0  0  0  0  0  0  0  0  0
    7.3248    5.4861    7.6279 H   0  0  0  0  0  0  0  0  0  0  0  0
    7.8862    4.2247    8.4998 H   0  0  0  0  0  0  0  0  0  0  0  0
    6.0242    4.9376    9.6167 H   0  0  0  0  0  0  0  0  0  0  0  0
    5.1595    5.0657    8.2373 H   0  0  0  0  0  0  0  0  0  0  0  0
    4.5636    3.6046   10.7449 H   0  0  0  0  0  0  0  0  0  0  0  0
    3.6840    2.5150    9.9048 H   0  0  0  0  0  0  0  0  0  0  0  0
    5.0861    2.0633   10.6098 H   0  0  0  0  0  0  0  0  0  0  0  0
  1  2  1  0  0  0  0
  2  3  2  0  0  0  0
  3  4  1  0  0  0  0
  4  5  1  0  0  0  0
  5  6  2  0  0  0  0
  6  7  1  0  0  0  0
  7  8  2  0  0  0  0
  8  9  1  0  0  0  0
  9  4  2  0  0  0  0
  7 10  1  0  0  0  0
 10 11  2  0  0  0  0
 11 12  1  0  0  0  0
 12 13  2  0  0  0  0
 13  6  1  0  0  0  0
  2 14  1  0  0  0  0
 14 15  1  0  0  0  0
 15 16  1  0  0  0  0
 16 17  1  0  0  0  0
 17 18  2  0  0  0  0
 18 19  1  0  0  0  0
 19 20  1  0  0  0  0
 20 21  1  0  0  0  0
 21 22  1  0  0  0  0
 22 23  2  0  0  0  0
 22 24  1  0  0  0  0
 19 25  2  0  0  0  0
 25 26  1  0  0  0  0
 26 16  2  0  0  0  0
 15 27  2  0  0  0  0
 27  1  1  0  0  0  0
 14 28  1  0  0  0  0
 28 29  1  0  0  0  0
 29 30  2  0  0  0  0
 30 31  1  0  0  0  0
 31 32  1  0  0  0  0
 32 33  2  0  0  0  0
 33 29  1  0  0  0  0
 31 34  1  0  0  0  0
 34 35  1  0  0  0  0
 35 36  1  0  0  0  0
 36 37  1  0  0  0  0
 37 30  1  0  0  0  0
 37 38  2  0  0  0  0
 36 39  1  0  0  0  0
  5 40  1  0  0  0  0
  8 41  1  0  0  0  0
  9 42  1  0  0  0  0
 10 43  1  0  0  0  0
 11 44  1  0  0  0  0
 12 45  1  0  0  0  0
 13 46  1  0  0  0  0
 17 47  1  0  0  0  0
 18 48  1  0  0  0  0
 21 49  1  0  0  0  0
 21 50  1  0  0  0  0
 24 51  1  0  0  0  0
 24 52  1  0  0  0  0
 25 53  1  0  0  0  0
 26 54  1  0  0  0  0
 27 55  1  0  0  0  0
 28 56  1  0  0  0  0
 28 57  1  0  0  0  0
 33 58  1  0  0  0  0
 34 59  1  0  0  0  0
 34 60  1  0  0  0  0
 35 61  1  0  0  0  0
 35 62  1  0  0  0  0
 39 63  1  0  0  0  0
 39 64  1  0  0  0  0
 39 65  1  0  0  0  0
M  END
>  <result-rank>
56

>  <similarity>
0.871

>  <query-name>


>  <query-smiles>
S(=O)(=O)(NC(=O)C)c1ccc(cc1)C=2N3N=CC=C(N4CCOCC4)C3=NC2/C=C/c5nc6c(cc5)cccc6

>  <source>
REALspace_2019-12

>  <similarity-descriptor>
0.999;0.839;0.779;0.889;0.910;0.999;0.747;0.717;0.0;0.0;0.779;0.779;0.0

>  <similarity-descriptor-smiles>
c1ccccc1;C1C(N(CCN1)C)=O;S1C=CNC1;CC=1C=NNC1;Nc1ccccc1;c1ccccc1;OCC=O;N;;;S1C=CNC1;S1C=CNC1;

>  <reaction-name>
s_2

>  <reagent1-name>
821402

>  <reagent1-smiles>
[R1*]SC([R3*])=Nc1cc2c(cc1)cccc2

>  <reagent2-name>
16506322

>  <reagent2-smiles>
[R2*]N([R3*])CC1=C2N(N=C1)CCN(C2=O)C

>  <reagent3-name>
5126092

>  <reagent3-smiles>
[R2*]C(c1ccc(OCC(=O)N)cc1)=C[R1*]

$$$$
s_1458____472432____10860122
          04022017323D 1   1.00000     0.00000     0
            
 60 64  0  0  0  0            999 V2000
    0.4000   -0.0392    1.0000 O   0  0  0  0  0  0  0  0  0  0  0  0
    1.0000    1.0000    1.0000 C   0  0  0  0  0  0  0  0  0  0  0  0
    0.3450    2.1345    1.0000 O   0  0  0  0  0  0  0  0  0  0  0  0
   -1.0750    2.1345    1.0000 C   0  0  0  0  0  0  0  0  0  0  0  0
   -1.5814    3.5669    1.0000 C   0  0  0  0  0  0  0  0  0  0  0  0
   -1.0935    4.3165    2.2297 C   0  0  0  0  0  0  0  0  0  0  0  0
   -0.7276    4.8786    3.1515 N   0  0  0  0  0  0  0  0  0  0  0  0
   -1.4067    4.3387   -0.2960 C   0  0  0  0  0  0  0  0  0  0  0  0
   -2.7430    3.7859   -0.7268 C   0  0  0  0  0  0  0  0  0  0  0  0
   -3.0607    3.7354    0.7502 C   0  0  0  0  0  0  0  0  0  0  0  0
    2.5200    1.0000    1.0000 C   0  0  0  0  0  0  0  0  0  0  0  0
    3.1700   -0.1258    1.0000 C   0  0  0  0  0  0  0  0  0  0  0  0
    4.6213   -0.1258    1.0000 C   0  0  0  0  0  0  0  0  0  0  0  0
    5.4557   -1.2646    1.0000 C   0  0  0  0  0  0  0  0  0  0  0  0
    6.6875   -0.8055    1.0035 N   0  0  0  0  0  0  0  0  0  0  0  0
    6.7093    0.5059    0.9985 N   0  0  0  0  0  0  0  0  0  0  0  0
    7.8598    1.3038    0.9986 C   0  0  0  0  0  0  0  0  0  0  0  0
    9.1146    0.7030    1.0043 C   0  0  0  0  0  0  0  0  0  0  0  0
   10.2553    1.4990    1.0041 C   0  0  0  0  0  0  0  0  0  0  0  0
   10.1363    2.8846    0.9985 C   0  0  0  0  0  0  0  0  0  0  0  0
    8.8766    3.4745    0.9922 C   0  0  0  0  0  0  0  0  0  0  0  0
    7.7290    2.6886    0.9925 C   0  0  0  0  0  0  0  0  0  0  0  0
    5.4289    0.9696    1.0018 C   0  0  0  0  0  0  0  0  0  0  0  0
    5.0437   -2.6548    0.9976 C   0  0  0  0  0  0  0  0  0  0  0  0
    3.9619   -3.0476    0.2165 C   0  0  0  0  0  0  0  0  0  0  0  0
    3.5641   -4.3806    0.2110 C   0  0  0  0  0  0  0  0  0  0  0  0
    4.2556   -5.3044    0.9884 C   0  0  0  0  0  0  0  0  0  0  0  0
    3.8435   -6.6949    0.9841 C   0  0  0  0  0  0  0  0  0  0  0  0
    4.0411   -7.4757    2.1183 C   0  0  0  0  0  0  0  0  0  0  0  0
    3.6451   -8.8092    2.1095 C   0  0  0  0  0  0  0  0  0  0  0  0
    3.0552   -9.3522    0.9729 C   0  0  0  0  0  0  0  0  0  0  0  0
    2.8624   -8.5627   -0.1540 C   0  0  0  0  0  0  0  0  0  0  0  0
    3.2547   -7.2281   -0.1581 C   0  0  0  0  0  0  0  0  0  0  0  0
    5.3378   -4.9120    1.7699 C   0  0  0  0  0  0  0  0  0  0  0  0
    5.7349   -3.5784    1.7748 C   0  0  0  0  0  0  0  0  0  0  0  0
   -1.4083    1.6631    1.8165 H   0  0  0  0  0  0  0  0  0  0  0  0
   -1.4083    1.6631    0.1835 H   0  0  0  0  0  0  0  0  0  0  0  0
   -0.6328    4.0436   -0.8563 H   0  0  0  0  0  0  0  0  0  0  0  0
   -1.3812    5.3327   -0.1894 H   0  0  0  0  0  0  0  0  0  0  0  0
   -2.7072    2.8972   -1.1838 H   0  0  0  0  0  0  0  0  0  0  0  0
   -3.3093    4.4131   -1.2615 H   0  0  0  0  0  0  0  0  0  0  0  0
   -3.4524    4.5776    1.1210 H   0  0  0  0  0  0  0  0  0  0  0  0
   -3.6216    2.9560    1.0291 H   0  0  0  0  0  0  0  0  0  0  0  0
    3.0200    1.8660    1.0000 H   0  0  0  0  0  0  0  0  0  0  0  0
    2.6700   -0.9919    1.0000 H   0  0  0  0  0  0  0  0  0  0  0  0
    9.1958   -0.2937    1.0085 H   0  0  0  0  0  0  0  0  0  0  0  0
   11.1609    1.0750    1.0081 H   0  0  0  0  0  0  0  0  0  0  0  0
   10.9563    3.4569    0.9989 H   0  0  0  0  0  0  0  0  0  0  0  0
    8.7955    4.4712    0.9876 H   0  0  0  0  0  0  0  0  0  0  0  0
    6.8234    3.1128    0.9883 H   0  0  0  0  0  0  0  0  0  0  0  0
    5.1391    1.9267    1.0050 H   0  0  0  0  0  0  0  0  0  0  0  0
    3.4724   -2.3750   -0.3385 H   0  0  0  0  0  0  0  0  0  0  0  0
    2.7874   -4.6726   -0.3471 H   0  0  0  0  0  0  0  0  0  0  0  0
    4.4646   -7.0813    2.9338 H   0  0  0  0  0  0  0  0  0  0  0  0
    3.7845   -9.3775    2.9205 H   0  0  0  0  0  0  0  0  0  0  0  0
    2.7700  -10.3106    0.9668 H   0  0  0  0  0  0  0  0  0  0  0  0
    2.4381   -8.9572   -0.9691 H   0  0  0  0  0  0  0  0  0  0  0  0
    3.1155   -6.6605   -0.9696 H   0  0  0  0  0  0  0  0  0  0  0  0
    5.8274   -5.5846    2.3248 H   0  0  0  0  0  0  0  0  0  0  0  0
    6.5114   -3.2862    2.3330 H   0  0  0  0  0  0  0  0  0  0  0  0
  1  2  2  0  0  0  0
  2  3  1  0  0  0  0
  3  4  1  0  0  0  0
  4  5  1  0  0  0  0
  5  6  1  0  0  0  0
  6  7  3  0  0  0  0
  5  8  1  0  0  0  0
  8  9  1  0  0  0  0
  9 10  1  0  0  0  0
 10  5  1  0  0  0  0
  2 11  1  0  0  0  0
 11 12  2  0  0  0  0
 12 13  1  0  0  0  0
 13 14  1  0  0  0  0
 14 15  2  0  0  0  0
 15 16  1  0  0  0  0
 16 17  1  0  0  0  0
 17 18  1  0  0  0  0
 18 19  2  0  0  0  0
 19 20  1  0  0  0  0
 20 21  2  0  0  0  0
 21 22  1  0  0  0  0
 22 17  2  0  0  0  0
 16 23  1  0  0  0  0
 13 23  2  0  0  0  0
 14 24  1  0  0  0  0
 24 25  1  0  0  0  0
 25 26  2  0  0  0  0
 26 27  1  0  0  0  0
 27 28  1  0  0  0  0
 28 29  1  0  0  0  0
 29 30  2  0  0  0  0
 30 31  1  0  0  0  0
 31 32  2  0  0  0  0
 32 33  1  0  0  0  0
 33 28  2  0  0  0  0
 27 34  2  0  0  0  0
 34 35  1  0  0  0  0
 35 24  2  0  0  0  0
  4 36  1  0  0  0  0
  4 37  1  0  0  0  0
  8 38  1  0  0  0  0
  8 39  1  0  0  0  0
  9 40  1  0  0  0  0
  9 41  1  0  0  0  0
 10 42  1  0  0  0  0
 10 43  1  0  0  0  0
 11 44  1  0  0  0  0
 12 45  1  0  0  0  0
 18 46  1  0  0  0  0
 19 47  1  0  0  0  0
 20 48  1  0  0  0  0
 21 49  1  0  0  0  0
 22 50  1  0  0  0  0
 23 51  1  0  0  0  0
 25 52  1  0  0  0  0
 26 53  1  0  0  0  0
 29 54  1  0  0  0  0
 30 55  1  0  0  0  0
 31 56  1  0  0  0  0
 32 57  1  0  0  0  0
 33 58  1  0  0  0  0
 34 59  1  0  0  0  0
 35 60  1  0  0  0  0
M  END
>  <result-rank>
57

>  <similarity>
0.871

>  <query-name>


>  <query-smiles>
S(=O)(=O)(NC(=O)C)c1ccc(cc1)C=2N3N=CC=C(N4CCOCC4)C3=NC2/C=C/c5nc6c(cc5)cccc6

>  <source>
REALspace_2019-12

>  <similarity-descriptor>
0.957;0.972;0.920;0.698;0.846;0.942;0.0;0.0;0.0;0.0;0.920;0.846;0.0

>  <similarity-descriptor-smiles>
c1ccccc1;OCC1(CCC1)C#N;C1=CNN=C1;O=CC=C;c1ccccc1;c1ccccc1;;;;;C1=CNN=C1;c1ccccc1;

>  <reaction-name>
s_1458

>  <reagent1-name>
472432

>  <reagent1-smiles>
[R1*]OC(=O)C=CC=1C(=NN(c2ccccc2)C1)c3ccc(c4ccccc4)cc3

>  <reagent2-name>
10860122

>  <reagent2-smiles>
[R1*]CC1(C#N)CCC1

$$$$
s_270196____8771312____8772102
          04022017323D 1   1.00000     0.00000     0
            
 57 62  0  0  0  0            999 V2000
   -1.6232    3.2823    2.4603 O   0  0  0  0  0  0  0  0  0  0  0  0
   -1.5503    3.3599    1.2441 C   0  0  0  0  0  0  0  0  0  0  0  0
   -1.3119    4.5184    0.6528 O   0  0  0  0  0  0  0  0  0  0  0  0
   -1.2275    4.6319   -0.6620 C   0  0  0  0  0  0  0  0  0  0  0  0
   -1.3884    3.5219   -1.4860 C   0  0  0  0  0  0  0  0  0  0  0  0
   -1.3046    3.6154   -2.8715 C   0  0  0  0  0  0  0  0  0  0  0  0
   -1.0525    4.8547   -3.4501 C   0  0  0  0  0  0  0  0  0  0  0  0
   -0.8881    5.9779   -2.6453 C   0  0  0  0  0  0  0  0  0  0  0  0
   -0.9761    5.8613   -1.2620 C   0  0  0  0  0  0  0  0  0  0  0  0
   -1.6465    2.2586   -0.8922 C   0  0  0  0  0  0  0  0  0  0  0  0
   -1.7273    2.1783    0.4735 C   0  0  0  0  0  0  0  0  0  0  0  0
   -1.9904    0.8924    1.0906 C   0  0  0  0  0  0  0  0  0  0  0  0
   -3.1444    0.4540    1.5424 N   0  0  0  0  0  0  0  0  0  0  0  0
   -3.0364   -0.7564    2.0356 N   0  0  0  0  0  0  0  0  0  0  0  0
   -4.0786   -1.5075    2.5936 C   0  0  0  0  0  0  0  0  0  0  0  0
   -5.2961   -0.8949    2.8726 C   0  0  0  0  0  0  0  0  0  0  0  0
   -6.3289   -1.6441    3.4266 C   0  0  0  0  0  0  0  0  0  0  0  0
   -6.1400   -2.9950    3.6976 C   0  0  0  0  0  0  0  0  0  0  0  0
   -4.9187   -3.5972    3.4141 C   0  0  0  0  0  0  0  0  0  0  0  0
   -3.8787   -2.8580    2.8602 C   0  0  0  0  0  0  0  0  0  0  0  0
   -1.7420   -1.1651    1.9257 C   0  0  0  0  0  0  0  0  0  0  0  0
   -1.0642   -0.1455    1.3313 C   0  0  0  0  0  0  0  0  0  0  0  0
    0.3500   -0.1258    1.0059 C   0  0  0  0  0  0  0  0  0  0  0  0
    1.0000    1.0000    1.0000 C   0  0  0  0  0  0  0  0  0  0  0  0
    2.4507    1.0000    1.0000 C   0  0  0  0  0  0  0  0  0  0  0  0
    3.2158    2.0664    0.9944 O   0  0  0  0  0  0  0  0  0  0  0  0
    4.4324    1.7153    0.9971 N   0  0  0  0  0  0  0  0  0  0  0  0
    4.4911    0.4074    1.0023 C   0  0  0  0  0  0  0  0  0  0  0  0
    3.2140   -0.0658    1.0048 N   0  0  0  0  0  0  0  0  0  0  0  0
    5.7568   -0.4307    1.0047 C   0  0  0  0  0  0  0  0  0  0  0  0
    6.0174   -1.0759   -0.2322 O   0  0  0  0  0  0  0  0  0  0  0  0
    6.1591   -0.1004   -1.2543 C   0  0  0  0  0  0  0  0  0  0  0  0
    5.8358   -1.3184    2.2225 C   0  0  0  0  0  0  0  0  0  0  0  0
    7.3095   -0.9836    2.2803 C   0  0  0  0  0  0  0  0  0  0  0  0
    6.9215    0.3184    1.6142 C   0  0  0  0  0  0  0  0  0  0  0  0
   -1.4238    2.8035   -3.4429 H   0  0  0  0  0  0  0  0  0  0  0  0
   -0.9894    4.9386   -4.4446 H   0  0  0  0  0  0  0  0  0  0  0  0
   -0.7066    6.8690   -3.0614 H   0  0  0  0  0  0  0  0  0  0  0  0
   -0.8569    6.6732   -0.6905 H   0  0  0  0  0  0  0  0  0  0  0  0
   -1.7670    1.4437   -1.4591 H   0  0  0  0  0  0  0  0  0  0  0  0
   -5.4278    0.0768    2.6763 H   0  0  0  0  0  0  0  0  0  0  0  0
   -7.2072   -1.2114    3.6299 H   0  0  0  0  0  0  0  0  0  0  0  0
   -6.8823   -3.5335    4.0964 H   0  0  0  0  0  0  0  0  0  0  0  0
   -4.7873   -4.5689    3.6099 H   0  0  0  0  0  0  0  0  0  0  0  0
   -3.0006   -3.2909    2.6566 H   0  0  0  0  0  0  0  0  0  0  0  0
   -1.3639   -2.0417    2.2232 H   0  0  0  0  0  0  0  0  0  0  0  0
    0.8244   -0.9783    0.7863 H   0  0  0  0  0  0  0  0  0  0  0  0
    0.5000    1.8660    0.9954 H   0  0  0  0  0  0  0  0  0  0  0  0
    6.3427   -0.5551   -2.1259 H   0  0  0  0  0  0  0  0  0  0  0  0
    5.3152    0.4312   -1.3270 H   0  0  0  0  0  0  0  0  0  0  0  0
    6.9191    0.5095   -1.0299 H   0  0  0  0  0  0  0  0  0  0  0  0
    5.6325   -2.2824    2.0509 H   0  0  0  0  0  0  0  0  0  0  0  0
    5.3037   -1.0001    3.0070 H   0  0  0  0  0  0  0  0  0  0  0  0
    7.9007   -1.5784    1.7355 H   0  0  0  0  0  0  0  0  0  0  0  0
    7.6872   -0.8919    3.2017 H   0  0  0  0  0  0  0  0  0  0  0  0
    6.6643    1.0507    2.2446 H   0  0  0  0  0  0  0  0  0  0  0  0
    7.5875    0.6655    0.9539 H   0  0  0  0  0  0  0  0  0  0  0  0
  1  2  2  0  0  0  0
  2  3  1  0  0  0  0
  3  4  1  0  0  0  0
  4  5  1  0  0  0  0
  5  6  2  0  0  0  0
  6  7  1  0  0  0  0
  7  8  2  0  0  0  0
  8  9  1  0  0  0  0
  9  4  2  0  0  0  0
  5 10  1  0  0  0  0
 10 11  2  0  0  0  0
 11  2  1  0  0  0  0
 11 12  1  0  0  0  0
 12 13  2  0  0  0  0
 13 14  1  0  0  0  0
 14 15  1  0  0  0  0
 15 16  1  0  0  0  0
 16 17  2  0  0  0  0
 17 18  1  0  0  0  0
 18 19  2  0  0  0  0
 19 20  1  0  0  0  0
 20 15  2  0  0  0  0
 14 21  1  0  0  0  0
 21 22  2  0  0  0  0
 22 12  1  0  0  0  0
 22 23  1  0  0  0  0
 23 24  2  0  0  0  0
 24 25  1  0  0  0  0
 25 26  1  0  0  0  0
 26 27  1  0  0  0  0
 27 28  2  0  0  0  0
 28 29  1  0  0  0  0
 25 29  2  0  0  0  0
 28 30  1  0  0  0  0
 30 31  1  0  0  0  0
 31 32  1  0  0  0  0
 30 33  1  0  0  0  0
 33 34  1  0  0  0  0
 34 35  1  0  0  0  0
 35 30  1  0  0  0  0
  6 36  1  0  0  0  0
  7 37  1  0  0  0  0
  8 38  1  0  0  0  0
  9 39  1  0  0  0  0
 10 40  1  0  0  0  0
 16 41  1  0  0  0  0
 17 42  1  0  0  0  0
 18 43  1  0  0  0  0
 19 44  1  0  0  0  0
 20 45  1  0  0  0  0
 21 46  1  0  0  0  0
 23 47  1  0  0  0  0
 24 48  1  0  0  0  0
 32 49  1  0  0  0  0
 32 50  1  0  0  0  0
 32 51  1  0  0  0  0
 33 52  1  0  0  0  0
 33 53  1  0  0  0  0
 34 54  1  0  0  0  0
 34 55  1  0  0  0  0
 35 56  1  0  0  0  0
 35 57  1  0  0  0  0
M  END
>  <result-rank>
58

>  <similarity>
0.871

>  <query-name>


>  <query-smiles>
S(=O)(=O)(NC(=O)C)c1ccc(cc1)C=2N3N=CC=C(N4CCOCC4)C3=NC2/C=C/c5nc6c(cc5)cccc6

>  <source>
REALspace_2019-12

>  <similarity-descriptor>
0.957;0.989;0.919;0.748;0.797;0.999;0.0;0.0;0.0;0.0;0.919;0.797;0.0

>  <similarity-descriptor-smiles>
c1ccccc1;C1(CCC1)OC;C=1C=CNN1;C=CC1=NC=NO1;O=C1C=CccO1;c1ccccc1;;;;;C=1C=CNN1;O=C1C=CccO1;

>  <reaction-name>
s_270196

>  <reagent1-name>
8771312

>  <reagent1-smiles>
[R1*]=NC(=NO[R2*])C1(OC)CCC1

>  <reagent2-name>
8772102

>  <reagent2-smiles>
[R1*]C([R2*])C=CC=1C(=NN(c2ccccc2)C1)C=3C(=O)Oc4c(cccc4)C3

$$$$
m_273170____10756424____10764916____10755784
          04022017323D 1   1.00000     0.00000     0
            
 78 84  0  0  0  0            999 V2000
   -0.1848   -2.4596    6.2298 O   0  0  0  0  0  0  0  0  0  0  0  0
   -0.1518   -1.2964    6.6034 C   0  0  0  0  0  0  0  0  0  0  0  0
    0.3062   -0.8804    7.7985 O   0  0  0  0  0  0  0  0  0  0  0  0
    0.2896    0.5267    7.8886 C   0  0  0  0  0  0  0  0  0  0  0  0
   -0.4487    1.0060    6.6524 C   0  0  0  0  0  0  0  0  0  0  0  0
   -0.5911   -0.2090    5.8485 N   0  0  0  0  0  0  0  0  0  0  0  0
   -1.0853   -0.2673    4.5403 C   0  0  0  0  0  0  0  0  0  0  0  0
   -0.1974   -0.2422    3.4699 C   0  0  0  0  0  0  0  0  0  0  0  0
   -0.7003   -0.3005    2.1745 C   0  0  0  0  0  0  0  0  0  0  0  0
   -2.0691   -0.3823    1.9419 C   0  0  0  0  0  0  0  0  0  0  0  0
   -2.9379   -0.4062    3.0283 C   0  0  0  0  0  0  0  0  0  0  0  0
   -2.4578   -0.3491    4.3321 C   0  0  0  0  0  0  0  0  0  0  0  0
    0.2650   -0.2731    1.0004 C   0  0  3  0  0  0  0  0  0  0  0  0
    1.0000    1.0000    1.0000 N   0  0  0  0  0  0  0  0  0  0  0  0
    2.4017    1.0000    1.0000 C   0  0  0  0  0  0  0  0  0  0  0  0
    3.1912    2.0415    1.0908 N   0  0  0  0  0  0  0  0  0  0  0  0
    4.4560    1.6855    1.0558 N   0  0  0  0  0  0  0  0  0  0  0  0
    4.5040    0.3775    0.9393 C   0  0  0  0  0  0  0  0  0  0  0  0
    3.2232   -0.0772    0.9021 N   0  0  0  0  0  0  0  0  0  0  0  0
    2.8010   -1.4805    0.7791 C   0  0  0  0  0  0  0  0  0  0  0  0
    2.7795   -2.1257    2.1554 C   0  0  0  0  0  0  0  0  0  0  0  0
    2.3172   -3.4244    2.3457 C   0  0  0  0  0  0  0  0  0  0  0  0
    2.3119   -3.9640    3.5740 N   0  0  0  0  0  0  0  0  0  0  0  0
    2.7455   -3.2797    4.6426 C   0  0  0  0  0  0  0  0  0  0  0  0
    3.2182   -1.9783    4.5112 C   0  0  0  0  0  0  0  0  0  0  0  0
    3.2342   -1.3958    3.2483 C   0  0  0  0  0  0  0  0  0  0  0  0
    1.8577   -4.1613    1.2367 N   0  0  0  0  0  0  0  0  0  0  0  0
    2.7440   -5.0112    0.4264 C   0  0  0  0  0  0  0  0  0  0  0  0
    2.1907   -5.0979   -0.9863 C   0  0  0  0  0  0  0  0  0  0  0  0
    0.9057   -5.7115   -1.0419 O   0  0  0  0  0  0  0  0  0  0  0  0
    0.1132   -5.4639    0.1149 C   0  0  0  0  0  0  0  0  0  0  0  0
    0.4568   -4.1461    0.7934 C   0  0  0  0  0  0  0  0  0  0  0  0
    5.7075   -0.4292    0.8647 C   0  0  0  0  0  0  0  0  0  0  0  0
    6.3465   -0.8574    1.9660 N   0  0  0  0  0  0  0  0  0  0  0  0
    7.4613   -1.6049    1.9071 C   0  0  0  0  0  0  0  0  0  0  0  0
    7.9941   -1.9625    0.6714 C   0  0  0  0  0  0  0  0  0  0  0  0
    7.3522   -1.5324   -0.4853 C   0  0  0  0  0  0  0  0  0  0  0  0
    6.1991   -0.7588   -0.3945 C   0  0  0  0  0  0  0  0  0  0  0  0
    9.1465   -2.7356    0.5766 C   0  0  0  0  0  0  0  0  0  0  0  0
    9.7737   -3.1555    1.7448 C   0  0  0  0  0  0  0  0  0  0  0  0
    9.2618   -2.8121    2.9916 C   0  0  0  0  0  0  0  0  0  0  0  0
    8.1079   -2.0382    3.0603 C   0  0  0  0  0  0  0  0  0  0  0  0
    0.2650    2.2731    0.9996 C   0  0  0  0  0  0  0  0  0  0  0  0
   -0.5128   -0.4095   -0.2983 C   0  0  0  0  0  0  0  0  0  0  0  0
    1.2224    0.8868    7.8997 H   0  0  0  0  0  0  0  0  0  0  0  0
   -0.1899    0.8179    8.7164 H   0  0  0  0  0  0  0  0  0  0  0  0
   -1.3433    1.3822    6.8935 H   0  0  0  0  0  0  0  0  0  0  0  0
    0.0832    1.6978    6.1639 H   0  0  0  0  0  0  0  0  0  0  0  0
    0.7881   -0.1833    3.6294 H   0  0  0  0  0  0  0  0  0  0  0  0
   -2.4235   -0.4233    1.0077 H   0  0  0  0  0  0  0  0  0  0  0  0
   -3.9234   -0.4653    2.8690 H   0  0  0  0  0  0  0  0  0  0  0  0
   -3.0892   -0.3666    5.1074 H   0  0  0  0  0  0  0  0  0  0  0  0
    0.9117   -1.0313    1.0829 H   0  0  0  0  0  0  0  0  0  0  0  0
    3.4435   -1.9715    0.1908 H   0  0  0  0  0  0  0  0  0  0  0  0
    1.8856   -1.5193    0.3784 H   0  0  0  0  0  0  0  0  0  0  0  0
    2.7289   -3.7103    5.5450 H   0  0  0  0  0  0  0  0  0  0  0  0
    3.5406   -1.4706    5.3102 H   0  0  0  0  0  0  0  0  0  0  0  0
    3.5694   -0.4614    3.1274 H   0  0  0  0  0  0  0  0  0  0  0  0
    2.7879   -5.9268    0.8260 H   0  0  0  0  0  0  0  0  0  0  0  0
    3.6612   -4.6133    0.4034 H   0  0  0  0  0  0  0  0  0  0  0  0
    2.1187   -4.1723   -1.3581 H   0  0  0  0  0  0  0  0  0  0  0  0
    2.8244   -5.6331   -1.5449 H   0  0  0  0  0  0  0  0  0  0  0  0
    0.2596   -6.2072    0.7677 H   0  0  0  0  0  0  0  0  0  0  0  0
   -0.8493   -5.4427   -0.1556 H   0  0  0  0  0  0  0  0  0  0  0  0
    0.3220   -3.3954    0.1467 H   0  0  0  0  0  0  0  0  0  0  0  0
   -0.1399   -4.0154    1.5850 H   0  0  0  0  0  0  0  0  0  0  0  0
    7.7194   -1.7792   -1.3822 H   0  0  0  0  0  0  0  0  0  0  0  0
    5.7315   -0.4449   -1.2208 H   0  0  0  0  0  0  0  0  0  0  0  0
    9.5182   -2.9856   -0.3175 H   0  0  0  0  0  0  0  0  0  0  0  0
   10.6031   -3.7113    1.6876 H   0  0  0  0  0  0  0  0  0  0  0  0
    9.7174   -3.1176    3.8277 H   0  0  0  0  0  0  0  0  0  0  0  0
    7.7365   -1.7888    3.9547 H   0  0  0  0  0  0  0  0  0  0  0  0
   -0.7182    2.0903    0.9996 H   0  0  0  0  0  0  0  0  0  0  0  0
    0.5066    2.7977    1.8159 H   0  0  0  0  0  0  0  0  0  0  0  0
    0.5066    2.7972    0.1829 H   0  0  0  0  0  0  0  0  0  0  0  0
   -1.0128   -1.2755   -0.2980 H   0  0  0  0  0  0  0  0  0  0  0  0
   -1.1596    0.3488   -0.3807 H   0  0  0  0  0  0  0  0  0  0  0  0
    0.1222   -0.3915   -1.0706 H   0  0  0  0  0  0  0  0  0  0  0  0
  1  2  2  0  0  0  0
  2  3  1  0  0  0  0
  3  4  1  0  0  0  0
  4  5  1  0  0  0  0
  5  6  1  0  0  0  0
  6  2  1  0  0  0  0
  6  7  1  0  0  0  0
  7  8  1  0  0  0  0
  8  9  2  0  0  0  0
  9 10  1  0  0  0  0
 10 11  2  0  0  0  0
 11 12  1  0  0  0  0
 12  7  2  0  0  0  0
  9 13  1  0  0  0  0
 13 14  1  0  0  0  0
 14 15  1  0  0  0  0
 15 16  2  0  0  0  0
 16 17  1  0  0  0  0
 17 18  2  0  0  0  0
 18 19  1  0  0  0  0
 19 15  1  0  0  0  0
 19 20  1  0  0  0  0
 20 21  1  0  0  0  0
 21 22  1  0  0  0  0
 22 23  2  0  0  0  0
 23 24  1  0  0  0  0
 24 25  2  0  0  0  0
 25 26  1  0  0  0  0
 26 21  2  0  0  0  0
 22 27  1  0  0  0  0
 27 28  1  0  0  0  0
 28 29  1  0  0  0  0
 29 30  1  0  0  0  0
 30 31  1  0  0  0  0
 31 32  1  0  0  0  0
 32 27  1  0  0  0  0
 18 33  1  0  0  0  0
 33 34  1  0  0  0  0
 34 35  2  0  0  0  0
 35 36  1  0  0  0  0
 36 37  2  0  0  0  0
 37 38  1  0  0  0  0
 38 33  2  0  0  0  0
 36 39  1  0  0  0  0
 39 40  2  0  0  0  0
 40 41  1  0  0  0  0
 41 42  2  0  0  0  0
 42 35  1  0  0  0  0
 14 43  1  0  0  0  0
 13 44  1  0  0  0  0
  4 45  1  0  0  0  0
  4 46  1  0  0  0  0
  5 47  1  0  0  0  0
  5 48  1  0  0  0  0
  8 49  1  0  0  0  0
 10 50  1  0  0  0  0
 11 51  1  0  0  0  0
 12 52  1  0  0  0  0
 13 53  1  0  0  0  0
 20 54  1  0  0  0  0
 20 55  1  0  0  0  0
 24 56  1  0  0  0  0
 25 57  1  0  0  0  0
 26 58  1  0  0  0  0
 28 59  1  0  0  0  0
 28 60  1  0  0  0  0
 29 61  1  0  0  0  0
 29 62  1  0  0  0  0
 31 63  1  0  0  0  0
 31 64  1  0  0  0  0
 32 65  1  0  0  0  0
 32 66  1  0  0  0  0
 37 67  1  0  0  0  0
 38 68  1  0  0  0  0
 39 69  1  0  0  0  0
 40 70  1  0  0  0  0
 41 71  1  0  0  0  0
 42 72  1  0  0  0  0
 43 73  1  0  0  0  0
 43 74  1  0  0  0  0
 43 75  1  0  0  0  0
 44 76  1  0  0  0  0
 44 77  1  0  0  0  0
 44 78  1  0  0  0  0
M  END
>  <result-rank>
59

>  <similarity>
0.871

>  <query-name>


>  <query-smiles>
S(=O)(=O)(NC(=O)C)c1ccc(cc1)C=2N3N=CC=C(N4CCOCC4)C3=NC2/C=C/c5nc6c(cc5)cccc6

>  <source>
REALspace_2019-12

>  <similarity-descriptor>
0.940;1.000;0.797;0.842;0.935;1.000;0.648;0.648;0.648;0.648;0.797;0.935;0.167

>  <similarity-descriptor-smiles>
c1cccc(c1)CN;N1CCOCC1;C=1NC=NN1;Cc1cccnc1;c1ccccn1;c1ccccc1;O=C1NCCO1;O=C1NCCO1;O=C1NCCO1;O=C1NCCO1;C=1NC=NN1;c1ccccn1;C.C

>  <reaction-name>
m_273170

>  <reagent1-name>
10756424

>  <reagent1-smiles>
[R2*]=C([R1*])N([R3*])Cc1c(nccc1)N2CCOCC2

>  <reagent2-name>
10764916

>  <reagent2-smiles>
[R1*]N(C(c1cc(N2C(=O)OCC2)ccc1)C)C

>  <reagent3-name>
10755784

>  <reagent3-smiles>
[R2*]=NN=C([R3*])c1nc2c(cc1)cccc2

$$$$
m_273170____10758782____10761548____10766740
          04022017323D 1   1.00000     0.00000     0
            
 73 78  0  0  0  0            999 V2000
    1.3267   -3.0955    2.5292 O   0  5  0  0  0  0  0  0  0  0  0  0
    0.1564   -2.8274    2.3128 N   0  3  0  0  0  0  0  0  0  0  0  0
   -0.4918   -3.5144    1.5565 O   0  0  0  0  0  0  0  0  0  0  0  0
   -0.4368   -1.7246    2.9396 C   0  0  0  0  0  0  0  0  0  0  0  0
   -0.4128   -0.4663    2.3472 C   0  0  0  0  0  0  0  0  0  0  0  0
   -1.0097    0.6147    2.9867 C   0  0  0  0  0  0  0  0  0  0  0  0
   -1.6291    0.4381    4.2193 C   0  0  0  0  0  0  0  0  0  0  0  0
   -1.6529   -0.8198    4.8116 C   0  0  0  0  0  0  0  0  0  0  0  0
   -1.0569   -1.9013    4.1717 C   0  0  0  0  0  0  0  0  0  0  0  0
    0.2650   -0.2731    1.0004 C   0  0  0  0  0  0  0  0  0  0  0  0
    1.0000    1.0000    1.0000 N   0  0  0  0  0  0  0  0  0  0  0  0
    2.4017    1.0000    1.0000 C   0  0  0  0  0  0  0  0  0  0  0  0
    3.1912    1.0004    2.0455 N   0  0  0  0  0  0  0  0  0  0  0  0
    4.4560    1.0042    1.6877 N   0  0  0  0  0  0  0  0  0  0  0  0
    4.5040    1.0062    0.3746 C   0  0  0  0  0  0  0  0  0  0  0  0
    3.2232    1.0036   -0.0816 N   0  0  0  0  0  0  0  0  0  0  0  0
    2.8010    1.0039   -1.4903 C   0  0  0  0  0  0  0  0  0  0  0  0
    3.1211    2.3524   -2.1151 C   0  0  0  0  0  0  0  0  0  0  0  0
    2.5442    2.7371   -3.3206 C   0  0  0  0  0  0  0  0  0  0  0  0
    1.6489    1.8728   -3.9805 N   0  0  0  0  0  0  0  0  0  0  0  0
    2.0910    0.8757   -4.9679 C   0  0  0  0  0  0  0  0  0  0  0  0
    0.9600    0.6156   -5.9489 C   0  0  0  0  0  0  0  0  0  0  0  0
   -0.1966    0.0615   -5.3275 O   0  0  0  0  0  0  0  0  0  0  0  0
   -0.3846    0.5077   -3.9884 C   0  0  0  0  0  0  0  0  0  0  0  0
    0.1993    1.8908   -3.7411 C   0  0  0  0  0  0  0  0  0  0  0  0
    2.8451    3.9735   -3.8826 C   0  0  0  0  0  0  0  0  0  0  0  0
    3.7303    4.8201   -3.2235 C   0  0  0  0  0  0  0  0  0  0  0  0
    4.3128    4.4449   -2.0173 C   0  0  0  0  0  0  0  0  0  0  0  0
    4.0058    3.2063   -1.4631 C   0  0  0  0  0  0  0  0  0  0  0  0
    4.0629    6.1731   -3.8319 C   0  0  0  0  0  0  0  0  0  0  0  0
    5.7068    1.0103   -0.4351 C   0  0  0  0  0  0  0  0  0  0  0  0
    6.6048    2.0643   -0.3077 C   0  0  0  0  0  0  0  0  0  0  0  0
    7.7573    2.0630   -1.0854 C   0  0  0  0  0  0  0  0  0  0  0  0
    8.0145    1.0282   -1.9799 C   0  0  0  0  0  0  0  0  0  0  0  0
    7.1079   -0.0209   -2.0975 C   0  0  0  0  0  0  0  0  0  0  0  0
    5.9511   -0.0310   -1.3242 C   0  0  0  0  0  0  0  0  0  0  0  0
    9.1716    1.0321   -2.7502 C   0  0  0  0  0  0  0  0  0  0  0  0
   10.0741    2.0833   -2.6232 C   0  0  0  0  0  0  0  0  0  0  0  0
    9.8153    3.1177   -1.7307 C   0  0  0  0  0  0  0  0  0  0  0  0
    8.6590    3.1147   -0.9573 C   0  0  0  0  0  0  0  0  0  0  0  0
    0.2650    2.2731    0.9996 C   0  0  0  0  0  0  0  0  0  0  0  0
   -0.9934    1.5191    2.5603 H   0  0  0  0  0  0  0  0  0  0  0  0
   -2.0575    1.2157    4.6796 H   0  0  0  0  0  0  0  0  0  0  0  0
   -2.0986   -0.9467    5.6978 H   0  0  0  0  0  0  0  0  0  0  0  0
   -1.0743   -2.8059    4.5975 H   0  0  0  0  0  0  0  0  0  0  0  0
    0.9024   -1.0260    0.8370 H   0  0  0  0  0  0  0  0  0  0  0  0
   -0.4265   -0.2590    0.2782 H   0  0  0  0  0  0  0  0  0  0  0  0
    1.8164    0.8372   -1.5433 H   0  0  0  0  0  0  0  0  0  0  0  0
    3.2880    0.2836   -1.9844 H   0  0  0  0  0  0  0  0  0  0  0  0
    2.3318    0.0250   -4.5006 H   0  0  0  0  0  0  0  0  0  0  0  0
    2.8890    1.2228   -5.4606 H   0  0  0  0  0  0  0  0  0  0  0  0
    0.7065    1.4814   -6.3805 H   0  0  0  0  0  0  0  0  0  0  0  0
    1.2838   -0.0227   -6.6473 H   0  0  0  0  0  0  0  0  0  0  0  0
    0.0584   -0.1415   -3.3701 H   0  0  0  0  0  0  0  0  0  0  0  0
   -1.3654    0.5356   -3.7955 H   0  0  0  0  0  0  0  0  0  0  0  0
   -0.2308    2.5477   -4.3603 H   0  0  0  0  0  0  0  0  0  0  0  0
    0.0231    2.1605   -2.7944 H   0  0  0  0  0  0  0  0  0  0  0  0
    2.4304    4.2502   -4.7494 H   0  0  0  0  0  0  0  0  0  0  0  0
    4.9479    5.0612   -1.5518 H   0  0  0  0  0  0  0  0  0  0  0  0
    4.4208    2.9296   -0.5964 H   0  0  0  0  0  0  0  0  0  0  0  0
    4.7084    6.6553   -3.2396 H   0  0  0  0  0  0  0  0  0  0  0  0
    4.4733    6.0410   -4.7342 H   0  0  0  0  0  0  0  0  0  0  0  0
    3.2260    6.7129   -3.9221 H   0  0  0  0  0  0  0  0  0  0  0  0
    6.4247    2.8109    0.3328 H   0  0  0  0  0  0  0  0  0  0  0  0
    7.2877   -0.7677   -2.7379 H   0  0  0  0  0  0  0  0  0  0  0  0
    5.2982   -0.7838   -1.4073 H   0  0  0  0  0  0  0  0  0  0  0  0
    9.3538    0.2857   -3.3901 H   0  0  0  0  0  0  0  0  0  0  0  0
   10.9088    2.0950   -3.1737 H   0  0  0  0  0  0  0  0  0  0  0  0
   10.4669    3.8713   -1.6440 H   0  0  0  0  0  0  0  0  0  0  0  0
    8.4779    3.8604   -0.3161 H   0  0  0  0  0  0  0  0  0  0  0  0
   -0.7182    2.0903    0.9996 H   0  0  0  0  0  0  0  0  0  0  0  0
    0.5066    2.7977    1.8159 H   0  0  0  0  0  0  0  0  0  0  0  0
    0.5066    2.7972    0.1829 H   0  0  0  0  0  0  0  0  0  0  0  0
  1  2  1  0  0  0  0
  2  3  2  0  0  0  0
  2  4  1  0  0  0  0
  4  5  1  0  0  0  0
  5  6  2  0  0  0  0
  6  7  1  0  0  0  0
  7  8  2  0  0  0  0
  8  9  1  0  0  0  0
  9  4  2  0  0  0  0
  5 10  1  0  0  0  0
 10 11  1  0  0  0  0
 11 12  1  0  0  0  0
 12 13  2  0  0  0  0
 13 14  1  0  0  0  0
 14 15  2  0  0  0  0
 15 16  1  0  0  0  0
 16 12  1  0  0  0  0
 16 17  1  0  0  0  0
 17 18  1  0  0  0  0
 18 19  1  0  0  0  0
 19 20  1  0  0  0  0
 20 21  1  0  0  0  0
 21 22  1  0  0  0  0
 22 23  1  0  0  0  0
 23 24  1  0  0  0  0
 24 25  1  0  0  0  0
 25 20  1  0  0  0  0
 19 26  2  0  0  0  0
 26 27  1  0  0  0  0
 27 28  2  0  0  0  0
 28 29  1  0  0  0  0
 29 18  2  0  0  0  0
 27 30  1  0  0  0  0
 15 31  1  0  0  0  0
 31 32  1  0  0  0  0
 32 33  2  0  0  0  0
 33 34  1  0  0  0  0
 34 35  2  0  0  0  0
 35 36  1  0  0  0  0
 36 31  2  0  0  0  0
 34 37  1  0  0  0  0
 37 38  2  0  0  0  0
 38 39  1  0  0  0  0
 39 40  2  0  0  0  0
 40 33  1  0  0  0  0
 11 41  1  0  0  0  0
  6 42  1  0  0  0  0
  7 43  1  0  0  0  0
  8 44  1  0  0  0  0
  9 45  1  0  0  0  0
 10 46  1  0  0  0  0
 10 47  1  0  0  0  0
 17 48  1  0  0  0  0
 17 49  1  0  0  0  0
 21 50  1  0  0  0  0
 21 51  1  0  0  0  0
 22 52  1  0  0  0  0
 22 53  1  0  0  0  0
 24 54  1  0  0  0  0
 24 55  1  0  0  0  0
 25 56  1  0  0  0  0
 25 57  1  0  0  0  0
 26 58  1  0  0  0  0
 28 59  1  0  0  0  0
 29 60  1  0  0  0  0
 30 61  1  0  0  0  0
 30 62  1  0  0  0  0
 30 63  1  0  0  0  0
 32 64  1  0  0  0  0
 35 65  1  0  0  0  0
 36 66  1  0  0  0  0
 37 67  1  0  0  0  0
 38 68  1  0  0  0  0
 39 69  1  0  0  0  0
 40 70  1  0  0  0  0
 41 71  1  0  0  0  0
 41 72  1  0  0  0  0
 41 73  1  0  0  0  0
M  CHG  2   1  -1   2   1
M  END
>  <result-rank>
60

>  <similarity>
0.871

>  <query-name>


>  <query-smiles>
S(=O)(=O)(NC(=O)C)c1ccc(cc1)C=2N3N=CC=C(N4CCOCC4)C3=NC2/C=C/c5nc6c(cc5)cccc6

>  <source>
REALspace_2019-12

>  <similarity-descriptor>
0.928;1.000;0.797;0.715;0.863;0.999;0.975;0.0;0.0;0.0;0.797;0.863;0.167

>  <similarity-descriptor-smiles>
c1ccccc1CN;N1CCOCC1;C=1NC=NN1;Cc1ccccc1;c1ccccc1;c1ccccc1;[O-][N+]=O;;;;C=1NC=NN1;c1ccccc1;C.C

>  <reaction-name>
m_273170

>  <reagent1-name>
10758782

>  <reagent1-smiles>
[R2*]=C([R1*])N([R3*])Cc1c(N2CCOCC2)cc(cc1)C

>  <reagent2-name>
10761548

>  <reagent2-smiles>
[R1*]N(Cc1c([N+]([O-])=O)cccc1)C

>  <reagent3-name>
10766740

>  <reagent3-smiles>
[R2*]=NN=C([R3*])c1cc2c(cc1)cccc2

$$$$
s_43____3014702____87588
          04022017323D 1   1.00000     0.00000     0
            
 41 44  0  0  0  0            999 V2000
    0.4648    3.7275    2.5286 S   0  0  0  0  0  0  0  0  0  0  0  0
   -0.5203    2.9301    3.2123 O   0  0  0  0  0  0  0  0  0  0  0  0
    0.6237    4.9846    3.2127 O   0  0  0  0  0  0  0  0  0  0  0  0
   -0.0241    4.0000    0.9977 N   0  0  0  0  0  0  0  0  0  0  0  0
    0.9815    4.8140    0.2998 C   0  0  0  0  0  0  0  0  0  0  0  0
    1.9848    2.8811    2.5100 C   0  0  0  0  0  0  0  0  0  0  0  0
    3.1740    3.6024    2.5029 C   0  0  0  0  0  0  0  0  0  0  0  0
    4.3836    2.9156    2.4883 C   0  0  0  0  0  0  0  0  0  0  0  0
    4.3937    1.5243    2.4800 C   0  0  0  0  0  0  0  0  0  0  0  0
    3.2017    0.8072    2.4872 C   0  0  0  0  0  0  0  0  0  0  0  0
    1.9898    1.4900    2.5021 C   0  0  0  0  0  0  0  0  0  0  0  0
    5.6630    0.8199    2.4636 C   0  0  0  0  0  0  0  0  0  0  0  0
    5.8598   -0.8692    2.4518 S   0  0  0  0  0  0  0  0  0  0  0  0
    7.5630   -0.8704    2.4327 C   0  0  0  0  0  0  0  0  0  0  0  0
    7.8952    0.4511    2.4332 C   0  0  0  0  0  0  0  0  0  0  0  0
    6.8653    1.3505    2.4501 N   0  0  0  0  0  0  0  0  0  0  0  0
    9.3011    0.8072    2.4258 C   0  0  0  0  0  0  0  0  0  0  0  0
   10.1862    0.3966    3.4599 C   0  0  0  0  0  0  0  0  0  0  0  0
    9.7428   -0.2753    4.3778 O   0  0  0  0  0  0  0  0  0  0  0  0
   11.4635    0.7370    3.4258 O   0  0  0  0  0  0  0  0  0  0  0  0
   11.9710    1.4636    2.4444 C   0  0  0  0  0  0  0  0  0  0  0  0
   11.1702    1.9042    1.3948 C   0  0  0  0  0  0  0  0  0  0  0  0
   11.6802    2.6697    0.3511 C   0  0  0  0  0  0  0  0  0  0  0  0
   13.0300    3.0045    0.3567 C   0  0  0  0  0  0  0  0  0  0  0  0
   13.8492    2.5745    1.3962 C   0  0  0  0  0  0  0  0  0  0  0  0
   13.3180    1.8099    2.4297 C   0  0  0  0  0  0  0  0  0  0  0  0
    9.7927    1.5614    1.3925 C   0  0  0  0  0  0  0  0  0  0  0  0
   -0.8977    4.4864    1.0084 H   0  0  0  0  0  0  0  0  0  0  0  0
    0.6816    4.9812   -0.6394 H   0  0  0  0  0  0  0  0  0  0  0  0
    1.0919    5.6870    0.7749 H   0  0  0  0  0  0  0  0  0  0  0  0
    1.8552    4.3276    0.2891 H   0  0  0  0  0  0  0  0  0  0  0  0
    3.1597    4.6022    2.5083 H   0  0  0  0  0  0  0  0  0  0  0  0
    5.2459    3.4219    2.4837 H   0  0  0  0  0  0  0  0  0  0  0  0
    3.2159   -0.1927    2.4818 H   0  0  0  0  0  0  0  0  0  0  0  0
    1.1273    0.9839    2.5071 H   0  0  0  0  0  0  0  0  0  0  0  0
    8.1776   -1.6592    2.4233 H   0  0  0  0  0  0  0  0  0  0  0  0
   11.0849    2.9747   -0.3923 H   0  0  0  0  0  0  0  0  0  0  0  0
   13.4118    3.5543   -0.3862 H   0  0  0  0  0  0  0  0  0  0  0  0
   14.8198    2.8151    1.4001 H   0  0  0  0  0  0  0  0  0  0  0  0
   13.9132    1.5049    3.1731 H   0  0  0  0  0  0  0  0  0  0  0  0
    9.1930    1.8643    0.6518 H   0  0  0  0  0  0  0  0  0  0  0  0
  1  2  2  0  0  0  0
  1  3  2  0  0  0  0
  1  4  1  0  0  0  0
  4  5  1  0  0  0  0
  1  6  1  0  0  0  0
  6  7  1  0  0  0  0
  7  8  2  0  0  0  0
  8  9  1  0  0  0  0
  9 10  2  0  0  0  0
 10 11  1  0  0  0  0
 11  6  2  0  0  0  0
  9 12  1  0  0  0  0
 12 13  1  0  0  0  0
 13 14  1  0  0  0  0
 14 15  2  0  0  0  0
 15 16  1  0  0  0  0
 12 16  2  0  0  0  0
 15 17  1  0  0  0  0
 17 18  1  0  0  0  0
 18 19  2  0  0  0  0
 18 20  1  0  0  0  0
 20 21  1  0  0  0  0
 21 22  1  0  0  0  0
 22 23  2  0  0  0  0
 23 24  1  0  0  0  0
 24 25  2  0  0  0  0
 25 26  1  0  0  0  0
 26 21  2  0  0  0  0
 22 27  1  0  0  0  0
 17 27  2  0  0  0  0
  4 28  1  0  0  0  0
  5 29  1  0  0  0  0
  5 30  1  0  0  0  0
  5 31  1  0  0  0  0
  7 32  1  0  0  0  0
  8 33  1  0  0  0  0
 10 34  1  0  0  0  0
 11 35  1  0  0  0  0
 14 36  1  0  0  0  0
 23 37  1  0  0  0  0
 24 38  1  0  0  0  0
 25 39  1  0  0  0  0
 26 40  1  0  0  0  0
 27 41  1  0  0  0  0
M  END
>  <result-rank>
61

>  <similarity>
0.871

>  <query-name>


>  <query-smiles>
S(=O)(=O)(NC(=O)C)c1ccc(cc1)C=2N3N=CC=C(N4CCOCC4)C3=NC2/C=C/c5nc6c(cc5)cccc6

>  <source>
REALspace_2019-12

>  <similarity-descriptor>
1.000;0.0;0.918;0.0;0.833;0.999;1.000;0.733;0.733;0.733;0.918;0.918;0.0

>  <similarity-descriptor-smiles>
c1ccccc1;;C1=NC=CS1;;C1=CccOC1=O;c1ccccc1;S(=O)=O;NC;NC;NC;C1=NC=CS1;C1=NC=CS1;

>  <reaction-name>
s_43

>  <reagent1-name>
3014702

>  <reagent1-smiles>
[R1*]SC(=N[R2*])c1ccc(S(=O)(=O)NC)cc1

>  <reagent2-name>
87588

>  <reagent2-smiles>
[R2*]C(C=1C(=O)Oc2c(cccc2)C1)=C[R1*]

$$$$
m_273170____10756136____10765408____10755784
          04022017323D 1   1.00000     0.00000     0
            
 71 76  0  0  0  0            999 V2000
   -2.8508   -1.5629    2.1881 O   0  0  0  0  0  0  0  0  0  0  0  0
   -1.6370   -1.4877    1.6023 C   0  0  0  0  0  0  0  0  0  0  0  0
   -1.0920   -2.6195    1.0045 C   0  0  0  0  0  0  0  0  0  0  0  0
    0.1598   -2.5257    0.4058 C   0  0  0  0  0  0  0  0  0  0  0  0
    0.6959   -3.6188   -0.1765 O   0  0  0  0  0  0  0  0  0  0  0  0
    2.0784   -3.6453   -0.4995 C   0  0  0  0  0  0  0  0  0  0  0  0
    0.8673   -1.3288    0.3963 C   0  0  0  0  0  0  0  0  0  0  0  0
    0.3002   -0.2121    1.0004 C   0  0  0  0  0  0  0  0  0  0  0  0
    1.0000    1.0000    1.0000 N   0  0  0  0  0  0  0  0  0  0  0  0
    2.4017    1.0000    1.0000 C   0  0  0  0  0  0  0  0  0  0  0  0
    3.1912    0.0177    1.3579 N   0  0  0  0  0  0  0  0  0  0  0  0
    4.4560    0.3552    1.2392 N   0  0  0  0  0  0  0  0  0  0  0  0
    4.5040    1.5898    0.7919 C   0  0  0  0  0  0  0  0  0  0  0  0
    3.2232    2.0176    0.6335 N   0  0  0  0  0  0  0  0  0  0  0  0
    2.8010    3.3415    0.1519 C   0  0  0  0  0  0  0  0  0  0  0  0
    2.8983    3.3837   -1.3656 C   0  0  0  0  0  0  0  0  0  0  0  0
    2.3418    2.3937   -2.1698 C   0  0  0  0  0  0  0  0  0  0  0  0
    2.4420    2.4538   -3.5055 N   0  0  0  0  0  0  0  0  0  0  0  0
    3.0778    3.4631   -4.1194 C   0  0  0  0  0  0  0  0  0  0  0  0
    3.1812    3.5258   -5.5138 N   0  0  0  0  0  0  0  0  0  0  0  0
    4.4666    3.9026   -6.1224 C   0  0  0  0  0  0  0  0  0  0  0  0
    4.6685    3.1933   -7.4526 C   0  0  0  0  0  0  0  0  0  0  0  0
    3.4993    3.2575   -8.2591 O   0  0  0  0  0  0  0  0  0  0  0  0
    2.4282    2.5486   -7.6498 C   0  0  0  0  0  0  0  0  0  0  0  0
    2.0088    3.1904   -6.3361 C   0  0  0  0  0  0  0  0  0  0  0  0
    3.6557    4.4848   -3.3720 C   0  0  0  0  0  0  0  0  0  0  0  0
    3.5613    4.4377   -1.9850 C   0  0  0  0  0  0  0  0  0  0  0  0
    5.7075    2.3525    0.5187 C   0  0  0  0  0  0  0  0  0  0  0  0
    6.1181    2.6090   -0.7344 N   0  0  0  0  0  0  0  0  0  0  0  0
    7.2308    3.3144   -0.9975 C   0  0  0  0  0  0  0  0  0  0  0  0
    8.0044    3.8089    0.0493 C   0  0  0  0  0  0  0  0  0  0  0  0
    7.6020    3.5578    1.3570 C   0  0  0  0  0  0  0  0  0  0  0  0
    6.4451    2.8238    1.6002 C   0  0  0  0  0  0  0  0  0  0  0  0
    9.1615    4.5428   -0.1898 C   0  0  0  0  0  0  0  0  0  0  0  0
    9.5471    4.7829   -1.5045 C   0  0  0  0  0  0  0  0  0  0  0  0
    8.7919    4.3003   -2.5681 C   0  0  0  0  0  0  0  0  0  0  0  0
    7.6386    3.5689   -2.3033 C   0  0  0  0  0  0  0  0  0  0  0  0
    0.2650    2.2731    0.9996 C   0  0  0  0  0  0  0  0  0  0  0  0
   -0.9499   -0.2785    1.6063 C   0  0  0  0  0  0  0  0  0  0  0  0
   -3.5582   -0.3748    2.5111 C   0  0  0  0  0  0  0  0  0  0  0  0
   -1.5918   -3.4857    1.0053 H   0  0  0  0  0  0  0  0  0  0  0  0
    2.3055   -4.5231   -0.9212 H   0  0  0  0  0  0  0  0  0  0  0  0
    2.2856   -2.9048   -1.1390 H   0  0  0  0  0  0  0  0  0  0  0  0
    2.6179   -3.5265    0.3341 H   0  0  0  0  0  0  0  0  0  0  0  0
    1.7669   -1.2721   -0.0367 H   0  0  0  0  0  0  0  0  0  0  0  0
    3.3953    4.0438    0.5437 H   0  0  0  0  0  0  0  0  0  0  0  0
    1.8557    3.5115    0.4302 H   0  0  0  0  0  0  0  0  0  0  0  0
    1.8605    1.6266   -1.7455 H   0  0  0  0  0  0  0  0  0  0  0  0
    5.2089    3.6506   -5.5015 H   0  0  0  0  0  0  0  0  0  0  0  0
    4.4796    4.8910   -6.2736 H   0  0  0  0  0  0  0  0  0  0  0  0
    5.4248    3.6281   -7.9414 H   0  0  0  0  0  0  0  0  0  0  0  0
    4.8914    2.2340   -7.2790 H   0  0  0  0  0  0  0  0  0  0  0  0
    2.7199    1.6085   -7.4733 H   0  0  0  0  0  0  0  0  0  0  0  0
    1.6461    2.5435   -8.2729 H   0  0  0  0  0  0  0  0  0  0  0  0
    1.4957    4.0265   -6.5300 H   0  0  0  0  0  0  0  0  0  0  0  0
    1.4276    2.5520   -5.8314 H   0  0  0  0  0  0  0  0  0  0  0  0
    4.1306    5.2397   -3.8242 H   0  0  0  0  0  0  0  0  0  0  0  0
    3.9710    5.1632   -1.4321 H   0  0  0  0  0  0  0  0  0  0  0  0
    8.1442    3.9047    2.1223 H   0  0  0  0  0  0  0  0  0  0  0  0
    6.1486    2.6382    2.5370 H   0  0  0  0  0  0  0  0  0  0  0  0
    9.7075    4.8924    0.5715 H   0  0  0  0  0  0  0  0  0  0  0  0
   10.3776    5.3090   -1.6872 H   0  0  0  0  0  0  0  0  0  0  0  0
    9.0744    4.4767   -3.5110 H   0  0  0  0  0  0  0  0  0  0  0  0
    7.0928    3.2198   -3.0650 H   0  0  0  0  0  0  0  0  0  0  0  0
    0.9148    3.0331    0.9993 H   0  0  0  0  0  0  0  0  0  0  0  0
   -0.3099    2.3257    0.1830 H   0  0  0  0  0  0  0  0  0  0  0  0
   -0.3099    2.3263    1.8160 H   0  0  0  0  0  0  0  0  0  0  0  0
   -1.3485    0.5306    2.0380 H   0  0  0  0  0  0  0  0  0  0  0  0
   -4.4320   -0.6120    2.9356 H   0  0  0  0  0  0  0  0  0  0  0  0
   -3.0160    0.1732    3.1481 H   0  0  0  0  0  0  0  0  0  0  0  0
   -3.7246    0.1512    1.6770 H   0  0  0  0  0  0  0  0  0  0  0  0
  1  2  1  0  0  0  0
  2  3  1  0  0  0  0
  3  4  2  0  0  0  0
  4  5  1  0  0  0  0
  5  6  1  0  0  0  0
  4  7  1  0  0  0  0
  7  8  2  0  0  0  0
  8  9  1  0  0  0  0
  9 10  1  0  0  0  0
 10 11  2  0  0  0  0
 11 12  1  0  0  0  0
 12 13  2  0  0  0  0
 13 14  1  0  0  0  0
 14 10  1  0  0  0  0
 14 15  1  0  0  0  0
 15 16  1  0  0  0  0
 16 17  1  0  0  0  0
 17 18  2  0  0  0  0
 18 19  1  0  0  0  0
 19 20  1  0  0  0  0
 20 21  1  0  0  0  0
 21 22  1  0  0  0  0
 22 23  1  0  0  0  0
 23 24  1  0  0  0  0
 24 25  1  0  0  0  0
 25 20  1  0  0  0  0
 19 26  2  0  0  0  0
 26 27  1  0  0  0  0
 27 16  2  0  0  0  0
 13 28  1  0  0  0  0
 28 29  1  0  0  0  0
 29 30  2  0  0  0  0
 30 31  1  0  0  0  0
 31 32  2  0  0  0  0
 32 33  1  0  0  0  0
 33 28  2  0  0  0  0
 31 34  1  0  0  0  0
 34 35  2  0  0  0  0
 35 36  1  0  0  0  0
 36 37  2  0  0  0  0
 37 30  1  0  0  0  0
  9 38  1  0  0  0  0
  8 39  1  0  0  0  0
 39  2  2  0  0  0  0
  1 40  1  0  0  0  0
  3 41  1  0  0  0  0
  6 42  1  0  0  0  0
  6 43  1  0  0  0  0
  6 44  1  0  0  0  0
  7 45  1  0  0  0  0
 15 46  1  0  0  0  0
 15 47  1  0  0  0  0
 17 48  1  0  0  0  0
 21 49  1  0  0  0  0
 21 50  1  0  0  0  0
 22 51  1  0  0  0  0
 22 52  1  0  0  0  0
 24 53  1  0  0  0  0
 24 54  1  0  0  0  0
 25 55  1  0  0  0  0
 25 56  1  0  0  0  0
 26 57  1  0  0  0  0
 27 58  1  0  0  0  0
 32 59  1  0  0  0  0
 33 60  1  0  0  0  0
 34 61  1  0  0  0  0
 35 62  1  0  0  0  0
 36 63  1  0  0  0  0
 37 64  1  0  0  0  0
 38 65  1  0  0  0  0
 38 66  1  0  0  0  0
 38 67  1  0  0  0  0
 39 68  1  0  0  0  0
 40 69  1  0  0  0  0
 40 70  1  0  0  0  0
 40 71  1  0  0  0  0
M  END
>  <result-rank>
62

>  <similarity>
0.871

>  <query-name>


>  <query-smiles>
S(=O)(=O)(NC(=O)C)c1ccc(cc1)C=2N3N=CC=C(N4CCOCC4)C3=NC2/C=C/c5nc6c(cc5)cccc6

>  <source>
REALspace_2019-12

>  <similarity-descriptor>
0.969;1.000;0.797;0.842;0.935;1.000;0.506;0.506;0.0;0.0;0.797;0.935;0.231

>  <similarity-descriptor-smiles>
c1cc(ccc1)N;N1CCOCC1;C=1NC=NN1;Cc1cccnc1;c1ccccn1;c1ccccc1;OC;OC;;;C=1NC=NN1;c1ccccn1;O.C.C

>  <reaction-name>
m_273170

>  <reagent1-name>
10756136

>  <reagent1-smiles>
[R2*]=C([R1*])N([R3*])Cc1cnc(N2CCOCC2)cc1

>  <reagent2-name>
10765408

>  <reagent2-smiles>
[R1*]N(c1cc(OC)cc(OC)c1)C

>  <reagent3-name>
10755784

>  <reagent3-smiles>
[R2*]=NN=C([R3*])c1nc2c(cc1)cccc2

$$$$
m_273170____10756380____10764522____10755784
          04022017323D 1   1.00000     0.00000     0
            
 83 88  0  0  0  0            999 V2000
   -6.9824   -2.6437   -3.6627 O   0  0  0  0  0  0  0  0  0  0  0  0
   -6.3558   -3.7592   -3.0434 C   0  0  3  0  0  0  0  0  0  0  0  0
   -5.7522   -3.3753   -1.7014 C   0  0  0  0  0  0  0  0  0  0  0  0
   -4.9826   -2.1264   -1.8091 N   0  0  0  0  0  0  0  0  0  0  0  0
   -3.8490   -1.9444   -1.0087 C   0  0  0  0  0  0  0  0  0  0  0  0
   -2.7249   -1.3966   -1.4947 N   0  0  0  0  0  0  0  0  0  0  0  0
   -1.6383   -1.2228   -0.7286 C   0  0  0  0  0  0  0  0  0  0  0  0
   -1.6374   -1.6071    0.6089 C   0  0  0  0  0  0  0  0  0  0  0  0
   -2.7943   -2.1766    1.1297 C   0  0  0  0  0  0  0  0  0  0  0  0
   -3.9126   -2.3500    0.3209 C   0  0  0  0  0  0  0  0  0  0  0  0
   -0.4200   -1.4215    1.5020 C   0  0  0  0  0  0  0  0  0  0  0  0
    0.7689   -1.9667    0.8298 N   0  0  0  0  0  0  0  0  0  0  0  0
    1.7578   -1.2444    0.2422 C   0  0  0  0  0  0  0  0  0  0  0  0
    2.6089   -2.1233   -0.2263 N   0  0  0  0  0  0  0  0  0  0  0  0
    2.2161   -3.3511    0.0302 N   0  0  0  0  0  0  0  0  0  0  0  0
    1.0784   -3.2827    0.6840 C   0  0  0  0  0  0  0  0  0  0  0  0
    0.2988   -4.4094    1.1610 C   0  0  0  0  0  0  0  0  0  0  0  0
   -0.7921   -4.8463    0.5102 N   0  0  0  0  0  0  0  0  0  0  0  0
   -1.5203   -5.8887    0.9439 C   0  0  0  0  0  0  0  0  0  0  0  0
   -1.1518   -6.5579    2.1080 C   0  0  0  0  0  0  0  0  0  0  0  0
   -0.0260   -6.1261    2.8017 C   0  0  0  0  0  0  0  0  0  0  0  0
    0.7093   -5.0432    2.3296 C   0  0  0  0  0  0  0  0  0  0  0  0
   -1.8843   -7.6406    2.5831 C   0  0  0  0  0  0  0  0  0  0  0  0
   -3.0069   -8.0568    1.8753 C   0  0  0  0  0  0  0  0  0  0  0  0
   -3.3963   -7.4057    0.7096 C   0  0  0  0  0  0  0  0  0  0  0  0
   -2.6472   -6.3254    0.2545 C   0  0  0  0  0  0  0  0  0  0  0  0
    1.8487    0.1513    0.1513 N   0  0  0  0  0  0  0  0  0  0  0  0
    2.7928    0.7664   -0.7928 C   0  0  0  0  0  0  0  0  0  0  0  0
    2.1937    0.7524   -2.1900 C   0  0  0  0  0  0  0  0  0  0  0  0
    2.4227   -0.3348   -3.0270 C   0  0  0  0  0  0  0  0  0  0  0  0
    1.8734   -0.3432   -4.3050 C   0  0  0  0  0  0  0  0  0  0  0  0
    1.1007    0.7296   -4.7370 C   0  0  0  0  0  0  0  0  0  0  0  0
    0.8782    1.8100   -3.8921 C   0  0  0  0  0  0  0  0  0  0  0  0
    1.4225    1.8306   -2.6122 C   0  0  0  0  0  0  0  0  0  0  0  0
    1.0000    1.0000    1.0000 C   0  0  0  0  0  0  0  0  0  0  0  0
    1.8776    1.8776    1.8776 C   0  0  0  0  0  0  0  0  0  0  0  0
    1.0577    2.6974    2.6974 O   0  0  0  0  0  0  0  0  0  0  0  0
    1.8776    3.5172    3.5172 C   0  0  0  0  0  0  0  0  0  0  0  0
    1.0000    4.3948    4.3948 C   0  0  0  0  0  0  0  0  0  0  0  0
    0.3529    5.3707    3.5916 O   0  0  0  0  0  0  0  0  0  0  0  0
    1.1643    6.5334    3.5137 C   0  0  0  0  0  0  0  0  0  0  0  0
   -5.3751   -1.0633   -2.7470 C   0  0  0  0  0  0  0  0  0  0  0  0
   -6.0260   -1.6445   -3.9928 C   0  0  0  0  0  0  0  0  0  0  0  0
   -7.3568   -4.8788   -2.8090 C   0  0  0  0  0  0  0  0  0  0  0  0
   -5.6282   -4.0953   -3.6415 H   0  0  0  0  0  0  0  0  0  0  0  0
   -6.4877   -3.2501   -1.0356 H   0  0  0  0  0  0  0  0  0  0  0  0
   -5.1453   -4.1081   -1.3938 H   0  0  0  0  0  0  0  0  0  0  0  0
   -0.8171   -0.8112   -1.1238 H   0  0  0  0  0  0  0  0  0  0  0  0
   -2.8223   -2.4621    2.0877 H   0  0  0  0  0  0  0  0  0  0  0  0
   -4.7478   -2.7591    0.6885 H   0  0  0  0  0  0  0  0  0  0  0  0
   -0.2839   -0.4473    1.6818 H   0  0  0  0  0  0  0  0  0  0  0  0
   -0.5643   -1.9030    2.3665 H   0  0  0  0  0  0  0  0  0  0  0  0
    0.2548   -6.5939    3.6398 H   0  0  0  0  0  0  0  0  0  0  0  0
    1.5197   -4.7258    2.8221 H   0  0  0  0  0  0  0  0  0  0  0  0
   -1.6082   -8.1124    3.4204 H   0  0  0  0  0  0  0  0  0  0  0  0
   -3.5408   -8.8339    2.2086 H   0  0  0  0  0  0  0  0  0  0  0  0
   -4.2042   -7.7102    0.2051 H   0  0  0  0  0  0  0  0  0  0  0  0
   -2.9237   -5.8542   -0.5831 H   0  0  0  0  0  0  0  0  0  0  0  0
    3.6491    0.2499   -0.7920 H   0  0  0  0  0  0  0  0  0  0  0  0
    2.9727    1.7105   -0.5167 H   0  0  0  0  0  0  0  0  0  0  0  0
    2.9780   -1.1046   -2.7124 H   0  0  0  0  0  0  0  0  0  0  0  0
    2.0341   -1.1206   -4.9132 H   0  0  0  0  0  0  0  0  0  0  0  0
    0.7053    0.7233   -5.6555 H   0  0  0  0  0  0  0  0  0  0  0  0
    0.3222    2.5792   -4.2069 H   0  0  0  0  0  0  0  0  0  0  0  0
    1.2619    2.6086   -2.0047 H   0  0  0  0  0  0  0  0  0  0  0  0
    0.4226    0.4226    1.5774 H   0  0  0  0  0  0  0  0  0  0  0  0
    0.4226    1.5774    0.4226 H   0  0  0  0  0  0  0  0  0  0  0  0
    2.4549    1.3002    2.4549 H   0  0  0  0  0  0  0  0  0  0  0  0
    2.4549    2.4549    1.3002 H   0  0  0  0  0  0  0  0  0  0  0  0
    2.4549    4.0946    2.9399 H   0  0  0  0  0  0  0  0  0  0  0  0
    2.4549    2.9399    4.0946 H   0  0  0  0  0  0  0  0  0  0  0  0
    0.3127    3.8292    4.8506 H   0  0  0  0  0  0  0  0  0  0  0  0
    1.5657    4.8506    5.0821 H   0  0  0  0  0  0  0  0  0  0  0  0
    0.7086    7.2207    2.9480 H   0  0  0  0  0  0  0  0  0  0  0  0
    1.3095    6.9008    4.4323 H   0  0  0  0  0  0  0  0  0  0  0  0
    2.0464    6.2976    3.1058 H   0  0  0  0  0  0  0  0  0  0  0  0
   -4.5616   -0.5470   -3.0143 H   0  0  0  0  0  0  0  0  0  0  0  0
   -6.0243   -0.4519   -2.2945 H   0  0  0  0  0  0  0  0  0  0  0  0
   -6.4833   -0.9096   -4.4936 H   0  0  0  0  0  0  0  0  0  0  0  0
   -5.3177   -2.0507   -4.5702 H   0  0  0  0  0  0  0  0  0  0  0  0
   -6.8961   -5.6521   -2.3734 H   0  0  0  0  0  0  0  0  0  0  0  0
   -8.0911   -4.5505   -2.2147 H   0  0  0  0  0  0  0  0  0  0  0  0
   -7.7419   -5.1704   -3.6846 H   0  0  0  0  0  0  0  0  0  0  0  0
  1  2  1  0  0  0  0
  2  3  1  0  0  0  0
  3  4  1  0  0  0  0
  4  5  1  0  0  0  0
  5  6  1  0  0  0  0
  6  7  2  0  0  0  0
  7  8  1  0  0  0  0
  8  9  2  0  0  0  0
  9 10  1  0  0  0  0
 10  5  2  0  0  0  0
  8 11  1  0  0  0  0
 11 12  1  0  0  0  0
 12 13  1  0  0  0  0
 13 14  2  0  0  0  0
 14 15  1  0  0  0  0
 15 16  2  0  0  0  0
 16 12  1  0  0  0  0
 16 17  1  0  0  0  0
 17 18  1  0  0  0  0
 18 19  2  0  0  0  0
 19 20  1  0  0  0  0
 20 21  2  0  0  0  0
 21 22  1  0  0  0  0
 22 17  2  0  0  0  0
 20 23  1  0  0  0  0
 23 24  2  0  0  0  0
 24 25  1  0  0  0  0
 25 26  2  0  0  0  0
 26 19  1  0  0  0  0
 13 27  1  0  0  0  0
 27 28  1  0  0  0  0
 28 29  1  0  0  0  0
 29 30  1  0  0  0  0
 30 31  2  0  0  0  0
 31 32  1  0  0  0  0
 32 33  2  0  0  0  0
 33 34  1  0  0  0  0
 34 29  2  0  0  0  0
 27 35  1  0  0  0  0
 35 36  1  0  0  0  0
 36 37  1  0  0  0  0
 37 38  1  0  0  0  0
 38 39  1  0  0  0  0
 39 40  1  0  0  0  0
 40 41  1  0  0  0  0
  4 42  1  0  0  0  0
 42 43  1  0  0  0  0
 43  1  1  0  0  0  0
  2 44  1  0  0  0  0
  2 45  1  0  0  0  0
  3 46  1  0  0  0  0
  3 47  1  0  0  0  0
  7 48  1  0  0  0  0
  9 49  1  0  0  0  0
 10 50  1  0  0  0  0
 11 51  1  0  0  0  0
 11 52  1  0  0  0  0
 21 53  1  0  0  0  0
 22 54  1  0  0  0  0
 23 55  1  0  0  0  0
 24 56  1  0  0  0  0
 25 57  1  0  0  0  0
 26 58  1  0  0  0  0
 28 59  1  0  0  0  0
 28 60  1  0  0  0  0
 30 61  1  0  0  0  0
 31 62  1  0  0  0  0
 32 63  1  0  0  0  0
 33 64  1  0  0  0  0
 34 65  1  0  0  0  0
 35 66  1  0  0  0  0
 35 67  1  0  0  0  0
 36 68  1  0  0  0  0
 36 69  1  0  0  0  0
 38 70  1  0  0  0  0
 38 71  1  0  0  0  0
 39 72  1  0  0  0  0
 39 73  1  0  0  0  0
 41 74  1  0  0  0  0
 41 75  1  0  0  0  0
 41 76  1  0  0  0  0
 42 77  1  0  0  0  0
 42 78  1  0  0  0  0
 43 79  1  0  0  0  0
 43 80  1  0  0  0  0
 44 81  1  0  0  0  0
 44 82  1  0  0  0  0
 44 83  1  0  0  0  0
M  END
>  <result-rank>
63

>  <similarity>
0.870

>  <query-name>


>  <query-smiles>
S(=O)(=O)(NC(=O)C)c1ccc(cc1)C=2N3N=CC=C(N4CCOCC4)C3=NC2/C=C/c5nc6c(cc5)cccc6

>  <source>
REALspace_2019-12

>  <similarity-descriptor>
0.894;0.987;0.797;0.842;0.935;1.000;0.588;0.737;0.737;0.994;0.797;0.935;0.059

>  <similarity-descriptor-smiles>
NCc1ccccc1;O1CCNCC1;N1C=NN=C1;c1ccc(cn1)C;c1ccccn1;c1ccccc1;CCOC;CO;CO;C;N1C=NN=C1;c1ccccn1;C

>  <reaction-name>
m_273170

>  <reagent1-name>
10756380

>  <reagent1-smiles>
[R2*]=C([R1*])N([R3*])Cc1cnc(N2CC(OCC2)C)cc1

>  <reagent2-name>
10764522

>  <reagent2-smiles>
[R1*]N(Cc1ccccc1)CCOCCOC

>  <reagent3-name>
10755784

>  <reagent3-smiles>
[R2*]=NN=C([R3*])c1nc2c(cc1)cccc2

$$$$
s_1458____472438____10860122
          04022017323D 1   1.00000     0.00000     0
            
 55 59  0  0  0  0            999 V2000
    5.4013    3.4312    1.1006 O   0  0  0  0  0  0  0  0  0  0  0  0
    4.9694    3.1608    2.2101 C   0  0  0  0  0  0  0  0  0  0  0  0
    4.5381    4.1136    3.0193 O   0  0  0  0  0  0  0  0  0  0  0  0
    4.0651    3.8499    4.2257 C   0  0  0  0  0  0  0  0  0  0  0  0
    4.0018    2.5421    4.6974 C   0  0  0  0  0  0  0  0  0  0  0  0
    3.5089    2.2391    5.9625 C   0  0  0  0  0  0  0  0  0  0  0  0
    3.0663    3.2735    6.7799 C   0  0  0  0  0  0  0  0  0  0  0  0
    3.1202    4.5887    6.3286 C   0  0  0  0  0  0  0  0  0  0  0  0
    3.6171    4.8688    5.0598 C   0  0  0  0  0  0  0  0  0  0  0  0
    4.4552    1.4887    3.8610 C   0  0  0  0  0  0  0  0  0  0  0  0
    4.9390    1.7988    2.6168 C   0  0  0  0  0  0  0  0  0  0  0  0
    5.4046    0.7301    1.7539 C   0  0  0  0  0  0  0  0  0  0  0  0
    6.6511    0.3665    1.5487 N   0  0  0  0  0  0  0  0  0  0  0  0
    6.7238   -0.6418    0.7131 N   0  0  0  0  0  0  0  0  0  0  0  0
    7.9027   -1.2666    0.2870 C   0  0  0  0  0  0  0  0  0  0  0  0
    9.0528   -0.5082    0.0935 C   0  0  0  0  0  0  0  0  0  0  0  0
   10.2218   -1.1323   -0.3295 C   0  0  0  0  0  0  0  0  0  0  0  0
   10.2347   -2.5044   -0.5559 C   0  0  0  0  0  0  0  0  0  0  0  0
    9.0790   -3.2528   -0.3586 C   0  0  0  0  0  0  0  0  0  0  0  0
    7.9043   -2.6396    0.0641 C   0  0  0  0  0  0  0  0  0  0  0  0
    5.4654   -0.9803    0.3177 C   0  0  0  0  0  0  0  0  0  0  0  0
    4.6172   -0.1329    0.9613 C   0  0  0  0  0  0  0  0  0  0  0  0
    3.1700   -0.1162    0.8530 C   0  0  0  0  0  0  0  0  0  0  0  0
    2.5200    1.0000    1.0000 C   0  0  0  0  0  0  0  0  0  0  0  0
    1.0000    1.0000    1.0000 C   0  0  0  0  0  0  0  0  0  0  0  0
    0.4000   -0.0392    1.0000 O   0  0  0  0  0  0  0  0  0  0  0  0
    0.3450    2.1345    1.0000 O   0  0  0  0  0  0  0  0  0  0  0  0
   -1.0750    2.1345    1.0000 C   0  0  0  0  0  0  0  0  0  0  0  0
   -1.5814    3.5669    1.0000 C   0  0  0  0  0  0  0  0  0  0  0  0
   -1.0935    4.3165    2.2297 C   0  0  0  0  0  0  0  0  0  0  0  0
   -0.7276    4.8786    3.1515 N   0  0  0  0  0  0  0  0  0  0  0  0
   -1.4067    4.3387   -0.2960 C   0  0  0  0  0  0  0  0  0  0  0  0
   -2.7430    3.7859   -0.7268 C   0  0  0  0  0  0  0  0  0  0  0  0
   -3.0607    3.7354    0.7502 C   0  0  0  0  0  0  0  0  0  0  0  0
    3.4733    1.2913    6.2795 H   0  0  0  0  0  0  0  0  0  0  0  0
    2.7093    3.0722    7.6921 H   0  0  0  0  0  0  0  0  0  0  0  0
    2.8018    5.3325    6.9163 H   0  0  0  0  0  0  0  0  0  0  0  0
    3.6527    5.8166    4.7428 H   0  0  0  0  0  0  0  0  0  0  0  0
    4.4222    0.5392    4.1733 H   0  0  0  0  0  0  0  0  0  0  0  0
    9.0393    0.4782    0.2573 H   0  0  0  0  0  0  0  0  0  0  0  0
   11.0529   -0.5944   -0.4708 H   0  0  0  0  0  0  0  0  0  0  0  0
   11.0749   -2.9530   -0.8605 H   0  0  0  0  0  0  0  0  0  0  0  0
    9.0928   -4.2393   -0.5220 H   0  0  0  0  0  0  0  0  0  0  0  0
    7.0734   -3.1777    0.2056 H   0  0  0  0  0  0  0  0  0  0  0  0
    5.2142   -1.7083   -0.3202 H   0  0  0  0  0  0  0  0  0  0  0  0
    2.6729   -0.9633    0.6654 H   0  0  0  0  0  0  0  0  0  0  0  0
    3.0200    1.8586    1.1130 H   0  0  0  0  0  0  0  0  0  0  0  0
   -1.4083    1.6631    1.8165 H   0  0  0  0  0  0  0  0  0  0  0  0
   -1.4083    1.6631    0.1835 H   0  0  0  0  0  0  0  0  0  0  0  0
   -0.6328    4.0436   -0.8563 H   0  0  0  0  0  0  0  0  0  0  0  0
   -1.3812    5.3327   -0.1894 H   0  0  0  0  0  0  0  0  0  0  0  0
   -2.7072    2.8972   -1.1838 H   0  0  0  0  0  0  0  0  0  0  0  0
   -3.3093    4.4131   -1.2615 H   0  0  0  0  0  0  0  0  0  0  0  0
   -3.4524    4.5776    1.1210 H   0  0  0  0  0  0  0  0  0  0  0  0
   -3.6216    2.9560    1.0291 H   0  0  0  0  0  0  0  0  0  0  0  0
  1  2  2  0  0  0  0
  2  3  1  0  0  0  0
  3  4  1  0  0  0  0
  4  5  1  0  0  0  0
  5  6  2  0  0  0  0
  6  7  1  0  0  0  0
  7  8  2  0  0  0  0
  8  9  1  0  0  0  0
  9  4  2  0  0  0  0
  5 10  1  0  0  0  0
 10 11  2  0  0  0  0
 11  2  1  0  0  0  0
 11 12  1  0  0  0  0
 12 13  2  0  0  0  0
 13 14  1  0  0  0  0
 14 15  1  0  0  0  0
 15 16  1  0  0  0  0
 16 17  2  0  0  0  0
 17 18  1  0  0  0  0
 18 19  2  0  0  0  0
 19 20  1  0  0  0  0
 20 15  2  0  0  0  0
 14 21  1  0  0  0  0
 21 22  2  0  0  0  0
 22 12  1  0  0  0  0
 22 23  1  0  0  0  0
 23 24  2  0  0  0  0
 24 25  1  0  0  0  0
 25 26  2  0  0  0  0
 25 27  1  0  0  0  0
 27 28  1  0  0  0  0
 28 29  1  0  0  0  0
 29 30  1  0  0  0  0
 30 31  3  0  0  0  0
 29 32  1  0  0  0  0
 32 33  1  0  0  0  0
 33 34  1  0  0  0  0
 34 29  1  0  0  0  0
  6 35  1  0  0  0  0
  7 36  1  0  0  0  0
  8 37  1  0  0  0  0
  9 38  1  0  0  0  0
 10 39  1  0  0  0  0
 16 40  1  0  0  0  0
 17 41  1  0  0  0  0
 18 42  1  0  0  0  0
 19 43  1  0  0  0  0
 20 44  1  0  0  0  0
 21 45  1  0  0  0  0
 23 46  1  0  0  0  0
 24 47  1  0  0  0  0
 28 48  1  0  0  0  0
 28 49  1  0  0  0  0
 32 50  1  0  0  0  0
 32 51  1  0  0  0  0
 33 52  1  0  0  0  0
 33 53  1  0  0  0  0
 34 54  1  0  0  0  0
 34 55  1  0  0  0  0
M  END
>  <result-rank>
64

>  <similarity>
0.870

>  <query-name>


>  <query-smiles>
S(=O)(=O)(NC(=O)C)c1ccc(cc1)C=2N3N=CC=C(N4CCOCC4)C3=NC2/C=C/c5nc6c(cc5)cccc6

>  <source>
REALspace_2019-12

>  <similarity-descriptor>
0.957;0.972;0.919;0.698;0.797;0.999;0.0;0.0;0.0;0.0;0.919;0.797;0.0

>  <similarity-descriptor-smiles>
c1ccccc1;OCC1(CCC1)C#N;C=1C=CNN1;C=CC=O;O=C1C=CccO1;c1ccccc1;;;;;C=1C=CNN1;O=C1C=CccO1;

>  <reaction-name>
s_1458

>  <reagent1-name>
472438

>  <reagent1-smiles>
[R1*]OC(=O)C=CC=1C(=NN(c2ccccc2)C1)C=3C(=O)Oc4c(cccc4)C3

>  <reagent2-name>
10860122

>  <reagent2-smiles>
[R1*]CC1(C#N)CCC1

$$$$
s_270196____8770700____14652798
          04022017323D 1   1.00000     0.00000     0
            
 50 54  0  0  0  0            999 V2000
    0.4648    3.7275    2.5286 S   0  0  0  0  0  0  0  0  0  0  0  0
   -0.5215    2.9336    3.2146 O   0  0  0  0  0  0  0  0  0  0  0  0
    0.6262    4.9859    3.2096 O   0  0  0  0  0  0  0  0  0  0  0  0
   -0.0241    3.9971    0.9972 N   0  0  0  0  0  0  0  0  0  0  0  0
   -0.4508    2.9268    0.1989 C   0  0  0  0  0  0  0  0  0  0  0  0
   -0.5120    1.6640    0.5416 N   0  0  0  0  0  0  0  0  0  0  0  0
   -0.9477    0.9458   -0.4159 O   0  0  0  0  0  0  0  0  0  0  0  0
   -1.1963    1.6979   -1.4596 C   0  0  0  0  0  0  0  0  0  0  0  0
   -0.8999    2.9833   -1.1343 C   0  0  0  0  0  0  0  0  0  0  0  0
   -1.7282    1.2136   -2.7986 C   0  0  0  0  0  0  0  0  0  0  0  0
    1.9833    2.8783    2.5116 C   0  0  0  0  0  0  0  0  0  0  0  0
    3.1735    3.5977    2.5023 C   0  0  0  0  0  0  0  0  0  0  0  0
    4.3802    2.9056    2.4882 C   0  0  0  0  0  0  0  0  0  0  0  0
    4.4059    1.5148    2.4827 C   0  0  0  0  0  0  0  0  0  0  0  0
    3.2042    0.8141    2.4925 C   0  0  0  0  0  0  0  0  0  0  0  0
    1.9869    1.4870    2.5070 C   0  0  0  0  0  0  0  0  0  0  0  0
    5.6232    3.6528    2.4786 C   0  0  0  0  0  0  0  0  0  0  0  0
    5.7430    4.9598    2.4818 N   0  0  0  0  0  0  0  0  0  0  0  0
    6.9757    5.2547    2.4736 O   0  0  0  0  0  0  0  0  0  0  0  0
    7.6895    4.1553    2.4634 C   0  0  0  0  0  0  0  0  0  0  0  0
    6.8769    3.1292    2.4676 N   0  0  0  0  0  0  0  0  0  0  0  0
    9.1383    4.0872    2.4510 C   0  0  0  0  0  0  0  0  0  0  0  0
    9.7346    2.9321    2.4415 C   0  0  0  0  0  0  0  0  0  0  0  0
   11.1848    2.8639    2.4291 C   0  0  0  0  0  0  0  0  0  0  0  0
   11.8815    1.6567    2.4186 C   0  0  0  0  0  0  0  0  0  0  0  0
   13.2718    1.6872    2.4066 C   0  0  0  0  0  0  0  0  0  0  0  0
   13.9261    2.8572    2.4054 N   0  0  0  0  0  0  0  0  0  0  0  0
   13.2723    4.0282    2.4159 C   0  0  0  0  0  0  0  0  0  0  0  0
   11.8826    4.0664    2.4282 C   0  0  0  0  0  0  0  0  0  0  0  0
   13.9942    0.4990    2.3947 C   0  0  0  0  0  0  0  0  0  0  0  0
   13.3427   -0.7297    2.3957 C   0  0  0  0  0  0  0  0  0  0  0  0
   11.9534   -0.7797    2.4083 C   0  0  0  0  0  0  0  0  0  0  0  0
   11.2454    0.4169    2.4197 C   0  0  0  0  0  0  0  0  0  0  0  0
   -0.0197    4.9262    0.6272 H   0  0  0  0  0  0  0  0  0  0  0  0
   -0.9826    3.7930   -1.7152 H   0  0  0  0  0  0  0  0  0  0  0  0
   -1.8274    1.9917   -3.4189 H   0  0  0  0  0  0  0  0  0  0  0  0
   -1.0888    0.5530   -3.1920 H   0  0  0  0  0  0  0  0  0  0  0  0
   -2.6183    0.7777   -2.6657 H   0  0  0  0  0  0  0  0  0  0  0  0
    3.1621    4.5976    2.5056 H   0  0  0  0  0  0  0  0  0  0  0  0
    5.2775    1.0247    2.4718 H   0  0  0  0  0  0  0  0  0  0  0  0
    3.2157   -0.1859    2.4890 H   0  0  0  0  0  0  0  0  0  0  0  0
    1.1263    0.9778    2.5141 H   0  0  0  0  0  0  0  0  0  0  0  0
    9.6784    4.9288    2.4496 H   0  0  0  0  0  0  0  0  0  0  0  0
    9.1945    2.0905    2.4428 H   0  0  0  0  0  0  0  0  0  0  0  0
   13.7903    4.8835    2.4150 H   0  0  0  0  0  0  0  0  0  0  0  0
   11.3955    4.9397    2.4363 H   0  0  0  0  0  0  0  0  0  0  0  0
   14.9937    0.5284    2.3854 H   0  0  0  0  0  0  0  0  0  0  0  0
   13.8735   -1.5771    2.3873 H   0  0  0  0  0  0  0  0  0  0  0  0
   11.4737   -1.6572    2.4092 H   0  0  0  0  0  0  0  0  0  0  0  0
   10.2459    0.3868    2.4290 H   0  0  0  0  0  0  0  0  0  0  0  0
  1  2  2  0  0  0  0
  1  3  2  0  0  0  0
  1  4  1  0  0  0  0
  4  5  1  0  0  0  0
  5  6  2  0  0  0  0
  6  7  1  0  0  0  0
  7  8  1  0  0  0  0
  8  9  2  0  0  0  0
  9  5  1  0  0  0  0
  8 10  1  0  0  0  0
  1 11  1  0  0  0  0
 11 12  1  0  0  0  0
 12 13  2  0  0  0  0
 13 14  1  0  0  0  0
 14 15  2  0  0  0  0
 15 16  1  0  0  0  0
 16 11  2  0  0  0  0
 13 17  1  0  0  0  0
 17 18  2  0  0  0  0
 18 19  1  0  0  0  0
 19 20  1  0  0  0  0
 20 21  2  0  0  0  0
 21 17  1  0  0  0  0
 20 22  1  0  0  0  0
 22 23  2  0  0  0  0
 23 24  1  0  0  0  0
 24 25  1  0  0  0  0
 25 26  2  0  0  0  0
 26 27  1  0  0  0  0
 27 28  2  0  0  0  0
 28 29  1  0  0  0  0
 29 24  2  0  0  0  0
 26 30  1  0  0  0  0
 30 31  2  0  0  0  0
 31 32  1  0  0  0  0
 32 33  2  0  0  0  0
 33 25  1  0  0  0  0
  4 34  1  0  0  0  0
  9 35  1  0  0  0  0
 10 36  1  0  0  0  0
 10 37  1  0  0  0  0
 10 38  1  0  0  0  0
 12 39  1  0  0  0  0
 14 40  1  0  0  0  0
 15 41  1  0  0  0  0
 16 42  1  0  0  0  0
 22 43  1  0  0  0  0
 23 44  1  0  0  0  0
 28 45  1  0  0  0  0
 29 46  1  0  0  0  0
 30 47  1  0  0  0  0
 31 48  1  0  0  0  0
 32 49  1  0  0  0  0
 33 50  1  0  0  0  0
M  END
>  <result-rank>
65

>  <similarity>
0.870

>  <query-name>


>  <query-smiles>
S(=O)(=O)(NC(=O)C)c1ccc(cc1)C=2N3N=CC=C(N4CCOCC4)C3=NC2/C=C/c5nc6c(cc5)cccc6

>  <source>
REALspace_2019-12

>  <similarity-descriptor>
1.000;0.0;0.728;0.0;1.000;1.000;1.000;0.991;0.708;0.708;1.000;1.000;0.100

>  <similarity-descriptor-smiles>
c1ccccc1;;C=1N=CON1;;c1ccncc1;c1ccccc1;S(=O)=O;N;C=1C=CON1;C=1C=CON1;C;C;C

>  <reaction-name>
s_270196

>  <reagent1-name>
8770700

>  <reagent1-smiles>
[R1*]=NC(=NO[R2*])c1cc(S(=O)(=O)NC2=NOC(=C2)C)ccc1

>  <reagent2-name>
14652798

>  <reagent2-smiles>
[R1*]C([R2*])C=Cc1c2c(ncc1)cccc2

$$$$
m_273170____10756154____10761984____10766526
          04022017323D 1   1.00000     0.00000     0
            
 82 87  0  0  0  0            999 V2000
   -0.5856   -0.5999   -1.0691 S   0  0  0  0  0  0  0  0  0  0  0  0
   -0.9547   -1.3225   -2.2587 O   0  0  0  0  0  0  0  0  0  0  0  0
   -0.0718   -1.5205   -0.0883 O   0  0  0  0  0  0  0  0  0  0  0  0
   -1.8956    0.1605   -0.4669 N   0  0  0  0  0  0  0  0  0  0  0  0
   -2.4201    1.1003   -1.4682 C   0  0  0  0  0  0  0  0  0  0  0  0
   -2.9292   -0.8312   -0.1368 C   0  0  0  0  0  0  0  0  0  0  0  0
    0.6381    0.5742   -1.4599 C   0  0  0  0  0  0  0  0  0  0  0  0
    1.3195    1.2652   -0.4624 C   0  0  0  0  0  0  0  0  0  0  0  0
    2.2928    2.1988   -0.8033 C   0  0  0  0  0  0  0  0  0  0  0  0
    2.5852    2.4414   -2.1416 C   0  0  0  0  0  0  0  0  0  0  0  0
    1.8983    1.7449   -3.1306 C   0  0  0  0  0  0  0  0  0  0  0  0
    0.9229    0.8093   -2.8007 C   0  0  0  0  0  0  0  0  0  0  0  0
    1.0000    1.0000    1.0000 C   0  0  0  0  0  0  0  0  0  0  0  0
    1.8481    1.8481    1.8481 N   0  0  0  0  0  0  0  0  0  0  0  0
    1.5169    3.0567    2.3676 C   0  0  0  0  0  0  0  0  0  0  0  0
    2.5576    3.4637    3.0523 N   0  0  0  0  0  0  0  0  0  0  0  0
    3.5256    2.5769    3.0030 N   0  0  0  0  0  0  0  0  0  0  0  0
    3.1121    1.5700    2.2672 C   0  0  0  0  0  0  0  0  0  0  0  0
    3.9113    0.3175    1.9432 C   0  0  0  0  0  0  0  0  0  0  0  0
    3.6417   -0.6808    2.9163 O   0  0  0  0  0  0  0  0  0  0  0  0
    4.2439   -1.8864    2.8313 C   0  0  0  0  0  0  0  0  0  0  0  0
    3.9996   -2.8843    3.7699 C   0  0  0  0  0  0  0  0  0  0  0  0
    3.0833   -2.6390    4.8670 C   0  0  0  0  0  0  0  0  0  0  0  0
    3.2239   -1.4901    5.6385 C   0  0  0  0  0  0  0  0  0  0  0  0
    2.3434   -1.2592    6.6904 C   0  0  0  0  0  0  0  0  0  0  0  0
    1.3310   -2.1730    6.9634 C   0  0  0  0  0  0  0  0  0  0  0  0
    1.1998   -3.3170    6.1858 C   0  0  0  0  0  0  0  0  0  0  0  0
    2.0743   -3.5597    5.1316 C   0  0  0  0  0  0  0  0  0  0  0  0
    4.6354   -4.1169    3.6563 C   0  0  0  0  0  0  0  0  0  0  0  0
    5.5150   -4.3515    2.6046 C   0  0  0  0  0  0  0  0  0  0  0  0
    5.7585   -3.3542    1.6660 C   0  0  0  0  0  0  0  0  0  0  0  0
    5.1231   -2.1218    1.7792 C   0  0  0  0  0  0  0  0  0  0  0  0
    0.3082    3.7410    2.2023 N   0  0  0  0  0  0  0  0  0  0  0  0
   -0.7808    3.1323    1.4249 C   0  0  0  0  0  0  0  0  0  0  0  0
   -1.9758    4.0768    1.3990 C   0  0  0  0  0  0  0  0  0  0  0  0
   -2.9604    4.1045    2.2683 O   0  0  0  0  0  0  0  0  0  0  0  0
   -3.8305    5.0395    1.9537 C   0  0  0  0  0  0  0  0  0  0  0  0
   -3.3968    5.6530    0.8172 C   0  0  0  0  0  0  0  0  0  0  0  0
   -2.1839    5.0268    0.4474 C   0  0  0  0  0  0  0  0  0  0  0  0
    0.1270    5.0690    2.8061 C   0  0  0  0  0  0  0  0  0  0  0  0
   -0.6697    4.9350    4.0988 C   0  0  3  0  0  0  0  0  0  0  0  0
   -0.0369    4.1091    5.0632 O   0  0  0  0  0  0  0  0  0  0  0  0
   -0.6236    4.4245    6.3119 C   0  0  0  0  0  0  0  0  0  0  0  0
   -1.0929    5.8633    6.2289 C   0  0  0  0  0  0  0  0  0  0  0  0
   -0.6508    6.2615    4.8364 C   0  0  0  0  0  0  0  0  0  0  0  0
   -3.2237    1.5668   -1.0987 H   0  0  0  0  0  0  0  0  0  0  0  0
   -1.7169    1.7750   -1.6927 H   0  0  0  0  0  0  0  0  0  0  0  0
   -2.6764    0.5985   -2.2943 H   0  0  0  0  0  0  0  0  0  0  0  0
   -3.7329   -0.3647    0.2326 H   0  0  0  0  0  0  0  0  0  0  0  0
   -3.1855   -1.3330   -0.9629 H   0  0  0  0  0  0  0  0  0  0  0  0
   -2.5724   -1.4705    0.5443 H   0  0  0  0  0  0  0  0  0  0  0  0
    2.7823    2.6954   -0.0865 H   0  0  0  0  0  0  0  0  0  0  0  0
    3.2841    3.1118   -2.3908 H   0  0  0  0  0  0  0  0  0  0  0  0
    2.1087    1.9192   -4.0925 H   0  0  0  0  0  0  0  0  0  0  0  0
    0.4335    0.3129   -3.5177 H   0  0  0  0  0  0  0  0  0  0  0  0
    0.0380    1.2102    1.1745 H   0  0  0  0  0  0  0  0  0  0  0  0
    1.1745    0.0380    1.2102 H   0  0  0  0  0  0  0  0  0  0  0  0
    3.6503   -0.0196    1.0386 H   0  0  0  0  0  0  0  0  0  0  0  0
    4.8875    0.5341    1.9493 H   0  0  0  0  0  0  0  0  0  0  0  0
    3.9524   -0.8350    5.4384 H   0  0  0  0  0  0  0  0  0  0  0  0
    2.4383   -0.4361    7.2503 H   0  0  0  0  0  0  0  0  0  0  0  0
    0.6976   -2.0068    7.7192 H   0  0  0  0  0  0  0  0  0  0  0  0
    0.4706   -3.9714    6.3857 H   0  0  0  0  0  0  0  0  0  0  0  0
    1.9792   -4.3832    4.5724 H   0  0  0  0  0  0  0  0  0  0  0  0
    4.4599   -4.8341    4.3308 H   0  0  0  0  0  0  0  0  0  0  0  0
    5.9722   -5.2371    2.5233 H   0  0  0  0  0  0  0  0  0  0  0  0
    6.3905   -3.5232    0.9097 H   0  0  0  0  0  0  0  0  0  0  0  0
    5.2983   -1.4051    1.1042 H   0  0  0  0  0  0  0  0  0  0  0  0
   -1.0490    2.2668    1.8481 H   0  0  0  0  0  0  0  0  0  0  0  0
   -0.4689    2.9636    0.4899 H   0  0  0  0  0  0  0  0  0  0  0  0
   -4.6640    5.2610    2.4599 H   0  0  0  0  0  0  0  0  0  0  0  0
   -3.8499    6.4034    0.3360 H   0  0  0  0  0  0  0  0  0  0  0  0
   -1.6057    5.2364   -0.3411 H   0  0  0  0  0  0  0  0  0  0  0  0
   -0.3680    5.6600    2.1692 H   0  0  0  0  0  0  0  0  0  0  0  0
    1.0214    5.4693    3.0058 H   0  0  0  0  0  0  0  0  0  0  0  0
   -1.6057    4.6323    3.9191 H   0  0  0  0  0  0  0  0  0  0  0  0
    0.0508    4.3247    7.0434 H   0  0  0  0  0  0  0  0  0  0  0  0
   -1.3999    3.8196    6.4893 H   0  0  0  0  0  0  0  0  0  0  0  0
   -0.6522    6.4295    6.9255 H   0  0  0  0  0  0  0  0  0  0  0  0
   -2.0861    5.9273    6.3266 H   0  0  0  0  0  0  0  0  0  0  0  0
   -1.2891    6.9130    4.4263 H   0  0  0  0  0  0  0  0  0  0  0  0
    0.2677    6.6567    4.8473 H   0  0  0  0  0  0  0  0  0  0  0  0
  1  2  2  0  0  0  0
  1  3  2  0  0  0  0
  1  4  1  0  0  0  0
  4  5  1  0  0  0  0
  4  6  1  0  0  0  0
  1  7  1  0  0  0  0
  7  8  1  0  0  0  0
  8  9  2  0  0  0  0
  9 10  1  0  0  0  0
 10 11  2  0  0  0  0
 11 12  1  0  0  0  0
 12  7  2  0  0  0  0
  8 13  1  0  0  0  0
 13 14  1  0  0  0  0
 14 15  1  0  0  0  0
 15 16  2  0  0  0  0
 16 17  1  0  0  0  0
 17 18  2  0  0  0  0
 18 14  1  0  0  0  0
 18 19  1  0  0  0  0
 19 20  1  0  0  0  0
 20 21  1  0  0  0  0
 21 22  1  0  0  0  0
 22 23  1  0  0  0  0
 23 24  1  0  0  0  0
 24 25  2  0  0  0  0
 25 26  1  0  0  0  0
 26 27  2  0  0  0  0
 27 28  1  0  0  0  0
 28 23  2  0  0  0  0
 22 29  2  0  0  0  0
 29 30  1  0  0  0  0
 30 31  2  0  0  0  0
 31 32  1  0  0  0  0
 32 21  2  0  0  0  0
 15 33  1  0  0  0  0
 33 34  1  0  0  0  0
 34 35  1  0  0  0  0
 35 36  1  0  0  0  0
 36 37  1  0  0  0  0
 37 38  2  0  0  0  0
 38 39  1  0  0  0  0
 35 39  2  0  0  0  0
 33 40  1  0  0  0  0
 40 41  1  0  0  0  0
 41 42  1  0  0  0  0
 42 43  1  0  0  0  0
 43 44  1  0  0  0  0
 44 45  1  0  0  0  0
 45 41  1  0  0  0  0
  5 46  1  0  0  0  0
  5 47  1  0  0  0  0
  5 48  1  0  0  0  0
  6 49  1  0  0  0  0
  6 50  1  0  0  0  0
  6 51  1  0  0  0  0
  9 52  1  0  0  0  0
 10 53  1  0  0  0  0
 11 54  1  0  0  0  0
 12 55  1  0  0  0  0
 13 56  1  0  0  0  0
 13 57  1  0  0  0  0
 19 58  1  0  0  0  0
 19 59  1  0  0  0  0
 24 60  1  0  0  0  0
 25 61  1  0  0  0  0
 26 62  1  0  0  0  0
 27 63  1  0  0  0  0
 28 64  1  0  0  0  0
 29 65  1  0  0  0  0
 30 66  1  0  0  0  0
 31 67  1  0  0  0  0
 32 68  1  0  0  0  0
 34 69  1  0  0  0  0
 34 70  1  0  0  0  0
 37 71  1  0  0  0  0
 38 72  1  0  0  0  0
 39 73  1  0  0  0  0
 40 74  1  0  0  0  0
 40 75  1  0  0  0  0
 41 76  1  0  0  0  0
 43 77  1  0  0  0  0
 43 78  1  0  0  0  0
 44 79  1  0  0  0  0
 44 80  1  0  0  0  0
 45 81  1  0  0  0  0
 45 82  1  0  0  0  0
M  END
>  <result-rank>
66

>  <similarity>
0.869

>  <query-name>


>  <query-smiles>
S(=O)(=O)(NC(=O)C)c1ccc(cc1)C=2N3N=CC=C(N4CCOCC4)C3=NC2/C=C/c5nc6c(cc5)cccc6

>  <source>
REALspace_2019-12

>  <similarity-descriptor>
0.936;0.956;0.797;0.876;0.857;0.942;1.000;0.528;0.528;0.995;0.797;0.252;0.0

>  <similarity-descriptor-smiles>
c1ccccc1C;CC1CCCO1;N1C=NN=C1;NCC1=CC=CO1;Oc1ccccc1;c1ccccc1;S(=O)=O;NC;NC;C;N1C=NN=C1;C;

>  <reaction-name>
m_273170

>  <reagent1-name>
10756154

>  <reagent1-smiles>
[R2*]=C([R1*])N([R3*])Cc1c(S(=O)(=O)N(C)C)cccc1

>  <reagent2-name>
10761984

>  <reagent2-smiles>
[R1*]N(CC=1OC=CC1)CC2OCCC2

>  <reagent3-name>
10766526

>  <reagent3-smiles>
[R2*]=NN=C([R3*])COc1c(c2ccccc2)cccc1

$$$$
s_43____2503812____17055450
          04022017323D 1   1.00000     0.00000     0
            
 46 49  0  0  0  0            999 V2000
    0.4036    3.7617    2.5293 S   0  0  0  0  0  0  0  0  0  0  0  0
   -0.5826    2.9678    3.2153 O   0  0  0  0  0  0  0  0  0  0  0  0
    0.5651    5.0202    3.2103 O   0  0  0  0  0  0  0  0  0  0  0  0
   -0.0853    4.0313    0.9979 N   0  0  0  0  0  0  0  0  0  0  0  0
   -1.3682    4.7488    1.0123 C   0  0  0  0  0  0  0  0  0  0  0  0
    0.9215    4.8418    0.2976 C   0  0  0  0  0  0  0  0  0  0  0  0
    1.9833    2.8783    2.5116 C   0  0  0  0  0  0  0  0  0  0  0  0
    3.1735    3.5977    2.5023 C   0  0  0  0  0  0  0  0  0  0  0  0
    4.3802    2.9056    2.4882 C   0  0  0  0  0  0  0  0  0  0  0  0
    4.4059    1.5148    2.4827 C   0  0  0  0  0  0  0  0  0  0  0  0
    3.2042    0.8141    2.4925 C   0  0  0  0  0  0  0  0  0  0  0  0
    1.9869    1.4870    2.5070 C   0  0  0  0  0  0  0  0  0  0  0  0
    5.6177    3.6495    2.4786 C   0  0  0  0  0  0  0  0  0  0  0  0
    6.8635    3.0862    2.4646 N   0  0  0  0  0  0  0  0  0  0  0  0
    7.8614    3.9417    2.4672 C   0  0  0  0  0  0  0  0  0  0  0  0
    7.1848    5.5017    2.4854 S   0  0  0  0  0  0  0  0  0  0  0  0
    5.5538    5.0106    2.4938 C   0  0  0  0  0  0  0  0  0  0  0  0
    9.2789    3.6344    2.4519 C   0  0  0  0  0  0  0  0  0  0  0  0
    9.8513    2.3444    2.4368 C   0  0  0  0  0  0  0  0  0  0  0  0
   11.1510    2.5194    2.4253 N   0  0  0  0  0  0  0  0  0  0  0  0
   11.4453    3.7985    2.4316 N   0  0  0  0  0  0  0  0  0  0  0  0
   12.7402    4.3312    2.4234 C   0  0  0  0  0  0  0  0  0  0  0  0
   12.9172    5.7111    2.4315 C   0  0  0  0  0  0  0  0  0  0  0  0
   14.2051    6.2366    2.4236 C   0  0  0  0  0  0  0  0  0  0  0  0
   15.3038    5.3841    2.4076 C   0  0  0  0  0  0  0  0  0  0  0  0
   15.1150    4.0061    2.4003 C   0  0  0  0  0  0  0  0  0  0  0  0
   13.8318    3.4693    2.4079 C   0  0  0  0  0  0  0  0  0  0  0  0
   10.2991    4.5344    2.4494 C   0  0  0  0  0  0  0  0  0  0  0  0
   -1.6682    4.9142    0.0728 H   0  0  0  0  0  0  0  0  0  0  0  0
   -2.0531    4.1975    1.4887 H   0  0  0  0  0  0  0  0  0  0  0  0
   -1.2561    5.6228    1.4852 H   0  0  0  0  0  0  0  0  0  0  0  0
    0.6216    5.0072   -0.6419 H   0  0  0  0  0  0  0  0  0  0  0  0
    1.0337    5.7157    0.7705 H   0  0  0  0  0  0  0  0  0  0  0  0
    1.7943    4.3537    0.2878 H   0  0  0  0  0  0  0  0  0  0  0  0
    3.1621    4.5976    2.5056 H   0  0  0  0  0  0  0  0  0  0  0  0
    5.2775    1.0247    2.4718 H   0  0  0  0  0  0  0  0  0  0  0  0
    3.2157   -0.1859    2.4890 H   0  0  0  0  0  0  0  0  0  0  0  0
    1.1263    0.9778    2.5141 H   0  0  0  0  0  0  0  0  0  0  0  0
    4.7375    5.5880    2.5068 H   0  0  0  0  0  0  0  0  0  0  0  0
    9.3635    1.4714    2.4352 H   0  0  0  0  0  0  0  0  0  0  0  0
   12.1245    6.3206    2.4428 H   0  0  0  0  0  0  0  0  0  0  0  0
   14.3409    7.2273    2.4294 H   0  0  0  0  0  0  0  0  0  0  0  0
   16.2297    5.7619    2.4014 H   0  0  0  0  0  0  0  0  0  0  0  0
   15.9077    3.3967    2.3894 H   0  0  0  0  0  0  0  0  0  0  0  0
   13.6962    2.4785    2.4023 H   0  0  0  0  0  0  0  0  0  0  0  0
   10.2232    5.5314    2.4588 H   0  0  0  0  0  0  0  0  0  0  0  0
  1  2  2  0  0  0  0
  1  3  2  0  0  0  0
  1  4  1  0  0  0  0
  4  5  1  0  0  0  0
  4  6  1  0  0  0  0
  1  7  1  0  0  0  0
  7  8  1  0  0  0  0
  8  9  2  0  0  0  0
  9 10  1  0  0  0  0
 10 11  2  0  0  0  0
 11 12  1  0  0  0  0
 12  7  2  0  0  0  0
  9 13  1  0  0  0  0
 13 14  1  0  0  0  0
 14 15  2  0  0  0  0
 15 16  1  0  0  0  0
 16 17  1  0  0  0  0
 13 17  2  0  0  0  0
 15 18  1  0  0  0  0
 18 19  1  0  0  0  0
 19 20  2  0  0  0  0
 20 21  1  0  0  0  0
 21 22  1  0  0  0  0
 22 23  1  0  0  0  0
 23 24  2  0  0  0  0
 24 25  1  0  0  0  0
 25 26  2  0  0  0  0
 26 27  1  0  0  0  0
 27 22  2  0  0  0  0
 21 28  1  0  0  0  0
 18 28  2  0  0  0  0
  5 29  1  0  0  0  0
  5 30  1  0  0  0  0
  5 31  1  0  0  0  0
  6 32  1  0  0  0  0
  6 33  1  0  0  0  0
  6 34  1  0  0  0  0
  8 35  1  0  0  0  0
 10 36  1  0  0  0  0
 11 37  1  0  0  0  0
 12 38  1  0  0  0  0
 17 39  1  0  0  0  0
 19 40  1  0  0  0  0
 23 41  1  0  0  0  0
 24 42  1  0  0  0  0
 25 43  1  0  0  0  0
 26 44  1  0  0  0  0
 27 45  1  0  0  0  0
 28 46  1  0  0  0  0
M  END
>  <result-rank>
67

>  <similarity>
0.869

>  <query-name>


>  <query-smiles>
S(=O)(=O)(NC(=O)C)c1ccc(cc1)C=2N3N=CC=C(N4CCOCC4)C3=NC2/C=C/c5nc6c(cc5)cccc6

>  <source>
REALspace_2019-12

>  <similarity-descriptor>
1.000;0.0;0.918;0.0;0.935;0.941;1.000;0.528;0.528;0.995;0.918;0.918;0.0

>  <similarity-descriptor-smiles>
c1ccccc1;;C1=CSC=N1;;C1=CNN=C1;c1ccccc1;S(=O)=O;NC;NC;C;C1=CSC=N1;C1=CSC=N1;

>  <reaction-name>
s_43

>  <reagent1-name>
2503812

>  <reagent1-smiles>
[R1*]SC(=N[R2*])C=1C=NN(c2ccccc2)C1

>  <reagent2-name>
17055450

>  <reagent2-smiles>
[R2*]C(c1cc(S(=O)(=O)N(C)C)ccc1)=C[R1*]

$$$$
m_273170____17619788____10761984____10766684
          04022017323D 1   1.00000     0.00000     0
            
 70 75  0  0  0  0            999 V2000
    0.1471   -2.9605   -0.6541 F   0  0  0  0  0  0  0  0  0  0  0  0
    0.2933   -1.6573   -0.4281 C   0  0  0  0  0  0  0  0  0  0  0  0
    0.2170   -0.7546   -1.4841 C   0  0  0  0  0  0  0  0  0  0  0  0
   -0.0150   -1.2278   -2.7809 N   0  3  0  0  0  0  0  0  0  0  0  0
    0.7027   -0.8676   -3.6992 O   0  5  0  0  0  0  0  0  0  0  0  0
   -0.9276   -1.9942   -2.9910 O   0  0  0  0  0  0  0  0  0  0  0  0
    0.3695    0.6095   -1.2610 C   0  0  0  0  0  0  0  0  0  0  0  0
    0.5992    1.0637    0.0336 C   0  0  0  0  0  0  0  0  0  0  0  0
    0.6734    0.1567    1.0862 C   0  0  0  0  0  0  0  0  0  0  0  0
    0.5227   -1.2083    0.8678 C   0  0  0  0  0  0  0  0  0  0  0  0
    0.9245    0.6605    2.4981 C   0  0  0  0  0  0  0  0  0  0  0  0
    2.0806    1.5694    2.4959 N   0  0  0  0  0  0  0  0  0  0  0  0
    2.0315    2.9267    2.5008 C   0  0  0  0  0  0  0  0  0  0  0  0
    3.2789    3.3271    2.4974 N   0  0  0  0  0  0  0  0  0  0  0  0
    4.1071    2.3065    2.4903 N   0  0  0  0  0  0  0  0  0  0  0  0
    3.3905    1.2051    2.4893 C   0  0  0  0  0  0  0  0  0  0  0  0
    3.9082   -0.1501    2.4826 C   0  0  0  0  0  0  0  0  0  0  0  0
    3.1775   -1.2411    2.4818 O   0  0  0  0  0  0  0  0  0  0  0  0
    3.9566   -2.2970    2.4757 C   0  0  0  0  0  0  0  0  0  0  0  0
    5.2584   -1.8938    2.4698 C   0  0  0  0  0  0  0  0  0  0  0  0
    5.2271   -0.4831    2.4742 C   0  0  0  0  0  0  0  0  0  0  0  0
    3.4828   -3.7413    2.4738 C   0  0  0  0  0  0  0  0  0  0  0  0
    3.3296   -4.1875    1.1344 O   0  0  0  0  0  0  0  0  0  0  0  0
    4.3677   -4.7641    0.4921 C   0  0  0  0  0  0  0  0  0  0  0  0
    4.2110   -5.1989   -0.8198 C   0  0  0  0  0  0  0  0  0  0  0  0
    5.2843   -5.7934   -1.4768 C   0  0  0  0  0  0  0  0  0  0  0  0
    6.5022   -5.9482   -0.8222 C   0  0  0  0  0  0  0  0  0  0  0  0
    6.6514   -5.5120    0.4902 C   0  0  0  0  0  0  0  0  0  0  0  0
    5.5825   -4.9169    1.1527 C   0  0  0  0  0  0  0  0  0  0  0  0
    0.8853    3.7336    2.5048 N   0  0  0  0  0  0  0  0  0  0  0  0
   -0.4030    3.1782    2.9437 C   0  0  0  0  0  0  0  0  0  0  0  0
   -0.5612    3.3873    4.4444 C   0  0  0  0  0  0  0  0  0  0  0  0
   -0.5707    4.5431    5.0689 O   0  0  0  0  0  0  0  0  0  0  0  0
   -0.7246    4.3693    6.3636 C   0  0  0  0  0  0  0  0  0  0  0  0
   -0.8157    3.0308    6.6009 C   0  0  0  0  0  0  0  0  0  0  0  0
   -0.7079    2.3816    5.3491 C   0  0  0  0  0  0  0  0  0  0  0  0
    0.9717    5.1351    2.0699 C   0  0  0  0  0  0  0  0  0  0  0  0
    0.8381    5.2057    0.5531 C   0  0  3  0  0  0  0  0  0  0  0  0
   -0.5053    5.1212    0.1050 O   0  0  0  0  0  0  0  0  0  0  0  0
   -0.5236    5.6341   -1.2140 C   0  0  0  0  0  0  0  0  0  0  0  0
    0.6129    6.6315   -1.3163 C   0  0  0  0  0  0  0  0  0  0  0  0
    1.1827    6.6085    0.0865 C   0  0  0  0  0  0  0  0  0  0  0  0
    0.3147    1.2560   -2.0219 H   0  0  0  0  0  0  0  0  0  0  0  0
    0.7109    2.0420    0.2078 H   0  0  0  0  0  0  0  0  0  0  0  0
    0.5783   -1.8550    1.6285 H   0  0  0  0  0  0  0  0  0  0  0  0
    0.1164    1.1498    2.8260 H   0  0  0  0  0  0  0  0  0  0  0  0
    1.1116   -0.1154    3.1005 H   0  0  0  0  0  0  0  0  0  0  0  0
    6.0698   -2.4781    2.4636 H   0  0  0  0  0  0  0  0  0  0  0  0
    6.0092    0.1400    2.4718 H   0  0  0  0  0  0  0  0  0  0  0  0
    4.1566   -4.3138    2.9408 H   0  0  0  0  0  0  0  0  0  0  0  0
    2.6050   -3.8047    2.9487 H   0  0  0  0  0  0  0  0  0  0  0  0
    3.3342   -5.0853   -1.2871 H   0  0  0  0  0  0  0  0  0  0  0  0
    5.1801   -6.1095   -2.4198 H   0  0  0  0  0  0  0  0  0  0  0  0
    7.2725   -6.3744   -1.2966 H   0  0  0  0  0  0  0  0  0  0  0  0
    7.5279   -5.6261    0.9579 H   0  0  0  0  0  0  0  0  0  0  0  0
    5.6865   -4.6017    2.0960 H   0  0  0  0  0  0  0  0  0  0  0  0
   -0.4315    2.1999    2.7386 H   0  0  0  0  0  0  0  0  0  0  0  0
   -1.1471    3.6415    2.4623 H   0  0  0  0  0  0  0  0  0  0  0  0
   -0.7672    5.0927    7.0528 H   0  0  0  0  0  0  0  0  0  0  0  0
   -0.9360    2.5910    7.4909 H   0  0  0  0  0  0  0  0  0  0  0  0
   -0.7338    1.3984    5.1684 H   0  0  0  0  0  0  0  0  0  0  0  0
    1.8546    5.5157    2.3449 H   0  0  0  0  0  0  0  0  0  0  0  0
    0.2350    5.6618    2.4943 H   0  0  0  0  0  0  0  0  0  0  0  0
    1.4143    4.5220    0.1053 H   0  0  0  0  0  0  0  0  0  0  0  0
   -1.3964    6.0879   -1.3941 H   0  0  0  0  0  0  0  0  0  0  0  0
   -0.3910    4.8933   -1.8725 H   0  0  0  0  0  0  0  0  0  0  0  0
    0.2762    7.5420   -1.5564 H   0  0  0  0  0  0  0  0  0  0  0  0
    1.2927    6.3394   -1.9890 H   0  0  0  0  0  0  0  0  0  0  0  0
    2.1719    6.7545    0.0780 H   0  0  0  0  0  0  0  0  0  0  0  0
    0.7487    7.2993    0.6650 H   0  0  0  0  0  0  0  0  0  0  0  0
  1  2  1  0  0  0  0
  2  3  1  0  0  0  0
  3  4  1  0  0  0  0
  4  5  1  0  0  0  0
  4  6  2  0  0  0  0
  3  7  2  0  0  0  0
  7  8  1  0  0  0  0
  8  9  2  0  0  0  0
  9 10  1  0  0  0  0
 10  2  2  0  0  0  0
  9 11  1  0  0  0  0
 11 12  1  0  0  0  0
 12 13  1  0  0  0  0
 13 14  2  0  0  0  0
 14 15  1  0  0  0  0
 15 16  2  0  0  0  0
 16 12  1  0  0  0  0
 16 17  1  0  0  0  0
 17 18  1  0  0  0  0
 18 19  1  0  0  0  0
 19 20  2  0  0  0  0
 20 21  1  0  0  0  0
 17 21  2  0  0  0  0
 19 22  1  0  0  0  0
 22 23  1  0  0  0  0
 23 24  1  0  0  0  0
 24 25  1  0  0  0  0
 25 26  2  0  0  0  0
 26 27  1  0  0  0  0
 27 28  2  0  0  0  0
 28 29  1  0  0  0  0
 29 24  2  0  0  0  0
 13 30  1  0  0  0  0
 30 31  1  0  0  0  0
 31 32  1  0  0  0  0
 32 33  1  0  0  0  0
 33 34  1  0  0  0  0
 34 35  2  0  0  0  0
 35 36  1  0  0  0  0
 32 36  2  0  0  0  0
 30 37  1  0  0  0  0
 37 38  1  0  0  0  0
 38 39  1  0  0  0  0
 39 40  1  0  0  0  0
 40 41  1  0  0  0  0
 41 42  1  0  0  0  0
 42 38  1  0  0  0  0
  7 43  1  0  0  0  0
  8 44  1  0  0  0  0
 10 45  1  0  0  0  0
 11 46  1  0  0  0  0
 11 47  1  0  0  0  0
 20 48  1  0  0  0  0
 21 49  1  0  0  0  0
 22 50  1  0  0  0  0
 22 51  1  0  0  0  0
 25 52  1  0  0  0  0
 26 53  1  0  0  0  0
 27 54  1  0  0  0  0
 28 55  1  0  0  0  0
 29 56  1  0  0  0  0
 31 57  1  0  0  0  0
 31 58  1  0  0  0  0
 34 59  1  0  0  0  0
 35 60  1  0  0  0  0
 36 61  1  0  0  0  0
 37 62  1  0  0  0  0
 37 63  1  0  0  0  0
 38 64  1  0  0  0  0
 40 65  1  0  0  0  0
 40 66  1  0  0  0  0
 41 67  1  0  0  0  0
 41 68  1  0  0  0  0
 42 69  1  0  0  0  0
 42 70  1  0  0  0  0
M  CHG  2   4   1   5  -1
M  END
>  <result-rank>
68

>  <similarity>
0.869

>  <query-name>


>  <query-smiles>
S(=O)(=O)(NC(=O)C)c1ccc(cc1)C=2N3N=CC=C(N4CCOCC4)C3=NC2/C=C/c5nc6c(cc5)cccc6

>  <source>
REALspace_2019-12

>  <similarity-descriptor>
0.900;0.956;0.797;0.876;0.905;0.806;0.975;0.0;0.0;0.0;0.797;0.905;0.0

>  <similarity-descriptor-smiles>
Fc1cc(ccc1)C;CC1CCCO1;N1C=NN=C1;NCC1=CC=CO1;C1=CC=CO1;COc1ccccc1;[N+]([O-])=O;;;;N1C=NN=C1;C1=CC=CO1;

>  <reaction-name>
m_273170

>  <reagent1-name>
17619788

>  <reagent1-smiles>
[R2*]=C([R1*])N([R3*])Cc1cc(F)c([N+]([O-])=O)cc1

>  <reagent2-name>
10761984

>  <reagent2-smiles>
[R1*]N(CC=1OC=CC1)CC2OCCC2

>  <reagent3-name>
10766684

>  <reagent3-smiles>
[R2*]=NN=C([R3*])C=1OC(=CC1)COc2ccccc2

$$$$
s_2____2757072____16506322____12433048
          04022017323D 1   1.00000     0.00000     0
            
 70 75  0  0  0  0            999 V2000
    7.4654   -8.1467   -3.5614 Cl  0  0  0  0  0  0  0  0  0  0  0  0
    7.7720   -6.7279   -2.5318 C   0  0  0  0  0  0  0  0  0  0  0  0
    8.2389   -5.5496   -3.1046 C   0  0  0  0  0  0  0  0  0  0  0  0
    8.4773   -4.4444   -2.2947 C   0  0  0  0  0  0  0  0  0  0  0  0
    8.2466   -4.5279   -0.9257 C   0  0  0  0  0  0  0  0  0  0  0  0
    8.4803   -3.4508   -0.1459 O   0  0  0  0  0  0  0  0  0  0  0  0
    7.4961   -2.5550    0.0803 C   0  0  0  0  0  0  0  0  0  0  0  0
    6.9823   -1.8049   -0.9724 C   0  0  0  0  0  0  0  0  0  0  0  0
    5.9692   -0.8830   -0.7290 C   0  0  0  0  0  0  0  0  0  0  0  0
    5.4821   -0.7235    0.5637 C   0  0  0  0  0  0  0  0  0  0  0  0
    5.9951   -1.4738    1.6168 C   0  0  0  0  0  0  0  0  0  0  0  0
    7.0083   -2.3951    1.3733 C   0  0  0  0  0  0  0  0  0  0  0  0
    4.4252    0.2391    0.8067 C   0  0  0  0  0  0  0  0  0  0  0  0
    3.0922   -0.0540    0.7420 N   0  0  0  0  0  0  0  0  0  0  0  0
    2.2727    1.0000    1.0000 C   0  0  0  0  0  0  0  0  0  0  0  0
    3.2932    2.3253    1.3214 S   0  0  0  0  0  0  0  0  0  0  0  0
    4.7811    1.5159    1.1188 C   0  0  0  0  0  0  0  0  0  0  0  0
    1.0000    1.0000    1.0000 N   0  0  0  0  0  0  0  0  0  0  0  0
    0.2650    2.2652    0.8588 C   0  0  0  0  0  0  0  0  0  0  0  0
   -1.0629    2.0052    0.1670 C   0  0  0  0  0  0  0  0  0  0  0  0
   -2.1851    1.7035    0.9311 C   0  0  0  0  0  0  0  0  0  0  0  0
   -3.3988    1.4673    0.2934 C   0  0  0  0  0  0  0  0  0  0  0  0
   -3.4787    1.5337   -1.0934 C   0  0  0  0  0  0  0  0  0  0  0  0
   -4.9978    1.2378   -1.8880 S   0  0  0  0  0  0  0  0  0  0  0  0
   -4.7562    0.6747   -3.1911 O   0  0  0  0  0  0  0  0  0  0  0  0
   -5.7781    0.3159   -1.1039 O   0  0  0  0  0  0  0  0  0  0  0  0
   -5.8113    2.6415   -2.0450 N   0  0  0  0  0  0  0  0  0  0  0  0
   -2.3564    1.8352   -1.8581 C   0  0  0  0  0  0  0  0  0  0  0  0
   -1.1438    2.0719   -1.2201 C   0  0  0  0  0  0  0  0  0  0  0  0
    2.5424   -1.3777    0.4166 C   0  0  0  0  0  0  0  0  0  0  0  0
    2.2374   -1.4485   -1.0742 C   0  0  0  0  0  0  0  0  0  0  0  0
    1.7181   -2.5079   -1.7584 C   0  0  0  0  0  0  0  0  0  0  0  0
    1.6291   -2.1186   -3.0609 N   0  0  0  0  0  0  0  0  0  0  0  0
    2.0987   -0.8865   -3.1752 N   0  0  0  0  0  0  0  0  0  0  0  0
    2.4809   -0.4193   -2.0113 C   0  0  0  0  0  0  0  0  0  0  0  0
    1.0868   -3.0492   -4.0711 C   0  0  0  0  0  0  0  0  0  0  0  0
    1.3699   -4.5174   -3.7728 C   0  0  0  0  0  0  0  0  0  0  0  0
    1.0893   -4.8539   -2.3721 N   0  0  0  0  0  0  0  0  0  0  0  0
    1.3193   -3.8610   -1.4040 C   0  0  0  0  0  0  0  0  0  0  0  0
    1.2020   -4.2009   -0.2529 O   0  0  0  0  0  0  0  0  0  0  0  0
    0.6060   -6.2008   -2.0122 C   0  0  0  0  0  0  0  0  0  0  0  0
    7.7802   -5.7089   -0.3594 C   0  0  0  0  0  0  0  0  0  0  0  0
    7.5400   -6.8179   -1.1634 C   0  0  0  0  0  0  0  0  0  0  0  0
    8.4017   -5.4976   -4.0899 H   0  0  0  0  0  0  0  0  0  0  0  0
    8.8135   -3.5922   -2.6956 H   0  0  0  0  0  0  0  0  0  0  0  0
    7.3390   -1.9275   -1.8985 H   0  0  0  0  0  0  0  0  0  0  0  0
    5.5935   -0.3386   -1.4789 H   0  0  0  0  0  0  0  0  0  0  0  0
    5.6378   -1.3516    2.5428 H   0  0  0  0  0  0  0  0  0  0  0  0
    7.3840   -2.9394    2.1233 H   0  0  0  0  0  0  0  0  0  0  0  0
    5.7030    1.8926    1.2086 H   0  0  0  0  0  0  0  0  0  0  0  0
    0.8054    2.9056    0.3131 H   0  0  0  0  0  0  0  0  0  0  0  0
    0.0983    2.6566    1.7638 H   0  0  0  0  0  0  0  0  0  0  0  0
   -2.1204    1.6569    1.9279 H   0  0  0  0  0  0  0  0  0  0  0  0
   -4.2130    1.2499    0.8317 H   0  0  0  0  0  0  0  0  0  0  0  0
   -5.9791    3.0326   -1.1400 H   0  0  0  0  0  0  0  0  0  0  0  0
   -5.2695    3.2818   -2.5895 H   0  0  0  0  0  0  0  0  0  0  0  0
   -2.4210    1.8813   -2.8550 H   0  0  0  0  0  0  0  0  0  0  0  0
   -0.3298    2.2900   -1.7584 H   0  0  0  0  0  0  0  0  0  0  0  0
    1.7010   -1.5261    0.9364 H   0  0  0  0  0  0  0  0  0  0  0  0
    3.2098   -2.0834    0.6542 H   0  0  0  0  0  0  0  0  0  0  0  0
    2.8672    0.4839   -1.8244 H   0  0  0  0  0  0  0  0  0  0  0  0
    1.4925   -2.8238   -4.9569 H   0  0  0  0  0  0  0  0  0  0  0  0
    0.0959   -2.9223   -4.1163 H   0  0  0  0  0  0  0  0  0  0  0  0
    0.7951   -5.0841   -4.3631 H   0  0  0  0  0  0  0  0  0  0  0  0
    2.3330   -4.7065   -3.9643 H   0  0  0  0  0  0  0  0  0  0  0  0
    0.5080   -6.7522   -2.8407 H   0  0  0  0  0  0  0  0  0  0  0  0
    1.2626   -6.6372   -1.3971 H   0  0  0  0  0  0  0  0  0  0  0  0
   -0.2802   -6.1258   -1.5550 H   0  0  0  0  0  0  0  0  0  0  0  0
    7.6174   -5.7609    0.6259 H   0  0  0  0  0  0  0  0  0  0  0  0
    7.2043   -7.6702   -0.7624 H   0  0  0  0  0  0  0  0  0  0  0  0
  1  2  1  0  0  0  0
  2  3  1  0  0  0  0
  3  4  2  0  0  0  0
  4  5  1  0  0  0  0
  5  6  1  0  0  0  0
  6  7  1  0  0  0  0
  7  8  1  0  0  0  0
  8  9  2  0  0  0  0
  9 10  1  0  0  0  0
 10 11  2  0  0  0  0
 11 12  1  0  0  0  0
 12  7  2  0  0  0  0
 10 13  1  0  0  0  0
 13 14  1  0  0  0  0
 14 15  1  0  0  0  0
 15 16  1  0  0  0  0
 16 17  1  0  0  0  0
 13 17  2  0  0  0  0
 15 18  2  0  0  0  0
 18 19  1  0  0  0  0
 19 20  1  0  0  0  0
 20 21  1  0  0  0  0
 21 22  2  0  0  0  0
 22 23  1  0  0  0  0
 23 24  1  0  0  0  0
 24 25  2  0  0  0  0
 24 26  2  0  0  0  0
 24 27  1  0  0  0  0
 23 28  2  0  0  0  0
 28 29  1  0  0  0  0
 29 20  2  0  0  0  0
 14 30  1  0  0  0  0
 30 31  1  0  0  0  0
 31 32  2  0  0  0  0
 32 33  1  0  0  0  0
 33 34  1  0  0  0  0
 34 35  2  0  0  0  0
 35 31  1  0  0  0  0
 33 36  1  0  0  0  0
 36 37  1  0  0  0  0
 37 38  1  0  0  0  0
 38 39  1  0  0  0  0
 39 32  1  0  0  0  0
 39 40  2  0  0  0  0
 38 41  1  0  0  0  0
  5 42  2  0  0  0  0
 42 43  1  0  0  0  0
 43  2  2  0  0  0  0
  3 44  1  0  0  0  0
  4 45  1  0  0  0  0
  8 46  1  0  0  0  0
  9 47  1  0  0  0  0
 11 48  1  0  0  0  0
 12 49  1  0  0  0  0
 17 50  1  0  0  0  0
 19 51  1  0  0  0  0
 19 52  1  0  0  0  0
 21 53  1  0  0  0  0
 22 54  1  0  0  0  0
 27 55  1  0  0  0  0
 27 56  1  0  0  0  0
 28 57  1  0  0  0  0
 29 58  1  0  0  0  0
 30 59  1  0  0  0  0
 30 60  1  0  0  0  0
 35 61  1  0  0  0  0
 36 62  1  0  0  0  0
 36 63  1  0  0  0  0
 37 64  1  0  0  0  0
 37 65  1  0  0  0  0
 41 66  1  0  0  0  0
 41 67  1  0  0  0  0
 41 68  1  0  0  0  0
 42 69  1  0  0  0  0
 43 70  1  0  0  0  0
M  END
>  <result-rank>
69

>  <similarity>
0.869

>  <query-name>


>  <query-smiles>
S(=O)(=O)(NC(=O)C)c1ccc(cc1)C=2N3N=CC=C(N4CCOCC4)C3=NC2/C=C/c5nc6c(cc5)cccc6

>  <source>
REALspace_2019-12

>  <similarity-descriptor>
0.936;0.839;0.822;0.889;0.825;0.939;1.000;0.588;0.0;0.0;0.825;0.825;0.0

>  <similarity-descriptor-smiles>
Cc1ccccc1;C1C(N(CCN1)C)=O;C1=CSC(N1)=N;CC=1C=NNC1;c1ccccc1;Clc1ccc(cc1)O;S(=O)=O;N;;;c1ccccc1;c1ccccc1;

>  <reaction-name>
s_2

>  <reagent1-name>
2757072

>  <reagent1-smiles>
[R1*]SC([R3*])=NCc1ccc(S(=O)(=O)N)cc1

>  <reagent2-name>
16506322

>  <reagent2-smiles>
[R2*]N([R3*])CC1=C2N(N=C1)CCN(C2=O)C

>  <reagent3-name>
12433048

>  <reagent3-smiles>
[R2*]C(c1ccc(Oc2ccc(Cl)cc2)cc1)=C[R1*]

$$$$
m_273170____10756572____10763508____10766638
          04022017323D 1   1.00000     0.00000     0
            
 72 77  0  0  0  0            999 V2000
    4.4060    4.9375    1.3610 S   0  0  0  0  0  0  0  0  0  0  0  0
    5.7656    4.8288    1.8227 O   0  0  0  0  0  0  0  0  0  0  0  0
    4.3732    4.8000   -0.0720 O   0  0  0  0  0  0  0  0  0  0  0  0
    3.8043    6.3931    1.7810 N   0  0  0  0  0  0  0  0  0  0  0  0
    2.4164    6.5041    1.3097 C   0  0  0  0  0  0  0  0  0  0  0  0
    3.4447    3.6813    2.0865 C   0  0  0  0  0  0  0  0  0  0  0  0
    2.6407    2.8778    1.2843 C   0  0  0  0  0  0  0  0  0  0  0  0
    1.8777    1.8777    1.8777 C   0  0  0  0  0  0  0  0  0  0  0  0
    1.9106    1.6740    3.2531 C   0  0  0  0  0  0  0  0  0  0  0  0
    2.7213    2.4884    4.0371 C   0  0  0  0  0  0  0  0  0  0  0  0
    3.4920    3.4948    3.4641 C   0  0  0  0  0  0  0  0  0  0  0  0
    1.0000    1.0000    1.0000 C   0  0  0  0  0  0  0  0  0  0  0  0
    1.7941    0.4801   -0.1233 N   0  0  0  0  0  0  0  0  0  0  0  0
    1.6656    0.8377   -1.4273 C   0  0  0  0  0  0  0  0  0  0  0  0
    2.5624    0.1380   -2.0773 N   0  0  0  0  0  0  0  0  0  0  0  0
    3.2451   -0.6359   -1.2633 N   0  0  0  0  0  0  0  0  0  0  0  0
    2.7891   -0.4433   -0.0461 C   0  0  0  0  0  0  0  0  0  0  0  0
    3.2646   -1.0993    1.1574 C   0  0  0  0  0  0  0  0  0  0  0  0
    4.4502   -0.8186    1.7828 N   0  0  0  0  0  0  0  0  0  0  0  0
    4.7038   -1.5197    2.8593 C   0  0  0  0  0  0  0  0  0  0  0  0
    3.3835   -2.5737    3.0654 S   0  0  0  0  0  0  0  0  0  0  0  0
    2.4868   -2.0665    1.7092 C   0  0  0  0  0  0  0  0  0  0  0  0
    5.8344   -1.4362    3.6806 N   0  0  0  0  0  0  0  0  0  0  0  0
    5.9406   -2.3242    4.8489 C   0  0  0  0  0  0  0  0  0  0  0  0
    7.3902   -2.6955    5.1213 C   0  0  0  0  0  0  0  0  0  0  0  0
    8.2386   -1.5559    5.0648 O   0  0  0  0  0  0  0  0  0  0  0  0
    8.2632   -1.0116    3.7517 C   0  0  0  0  0  0  0  0  0  0  0  0
    6.8986   -0.4794    3.3414 C   0  0  0  0  0  0  0  0  0  0  0  0
    0.7595    1.7605   -1.9681 N   0  0  0  0  0  0  0  0  0  0  0  0
   -0.5239    1.4937   -2.4374 C   0  0  0  0  0  0  0  0  0  0  0  0
   -1.2668    2.6482   -2.4631 C   0  0  0  0  0  0  0  0  0  0  0  0
   -2.5774    2.6705   -2.9319 C   0  0  0  0  0  0  0  0  0  0  0  0
   -3.1566    1.4771   -3.3482 C   0  0  0  0  0  0  0  0  0  0  0  0
   -4.4323    1.4901   -3.7906 O   0  0  0  0  0  0  0  0  0  0  0  0
   -5.4996    1.6850   -2.8744 C   0  0  0  0  0  0  0  0  0  0  0  0
   -2.4457    0.2825   -3.3114 C   0  0  0  0  0  0  0  0  0  0  0  0
   -3.0397   -0.8620   -3.7121 O   0  0  0  0  0  0  0  0  0  0  0  0
   -2.8849   -2.0480   -2.9467 C   0  0  0  0  0  0  0  0  0  0  0  0
   -1.1301    0.3137   -2.8609 C   0  0  0  0  0  0  0  0  0  0  0  0
   -0.4065    3.7585   -1.9105 C   0  0  0  0  0  0  0  0  0  0  0  0
    0.9905    3.1993   -2.0951 C   0  0  0  0  0  0  0  0  0  0  0  0
    4.3567    7.1150    1.3641 H   0  0  0  0  0  0  0  0  0  0  0  0
    2.0473    7.3971    1.5674 H   0  0  0  0  0  0  0  0  0  0  0  0
    2.3936    6.4086    0.3145 H   0  0  0  0  0  0  0  0  0  0  0  0
    1.8640    5.7822    1.7266 H   0  0  0  0  0  0  0  0  0  0  0  0
    2.6118    3.0174    0.2945 H   0  0  0  0  0  0  0  0  0  0  0  0
    1.3596    0.9525    3.6724 H   0  0  0  0  0  0  0  0  0  0  0  0
    2.7504    2.3485    5.0269 H   0  0  0  0  0  0  0  0  0  0  0  0
    4.0720    4.0761    4.0347 H   0  0  0  0  0  0  0  0  0  0  0  0
    0.6465    0.2362    1.5400 H   0  0  0  0  0  0  0  0  0  0  0  0
    0.2362    1.5400    0.6465 H   0  0  0  0  0  0  0  0  0  0  0  0
    1.5988   -2.4013    1.3940 H   0  0  0  0  0  0  0  0  0  0  0  0
    5.4167   -3.1580    4.6747 H   0  0  0  0  0  0  0  0  0  0  0  0
    5.5667   -1.8568    5.6500 H   0  0  0  0  0  0  0  0  0  0  0  0
    7.4555   -3.1046    6.0314 H   0  0  0  0  0  0  0  0  0  0  0  0
    7.6903   -3.3585    4.4354 H   0  0  0  0  0  0  0  0  0  0  0  0
    8.5396   -1.7263    3.1092 H   0  0  0  0  0  0  0  0  0  0  0  0
    8.9257   -0.2631    3.7229 H   0  0  0  0  0  0  0  0  0  0  0  0
    6.7272    0.3827    3.8184 H   0  0  0  0  0  0  0  0  0  0  0  0
    6.8930   -0.3209    2.3541 H   0  0  0  0  0  0  0  0  0  0  0  0
   -3.0917    3.5273   -2.9685 H   0  0  0  0  0  0  0  0  0  0  0  0
   -6.3695    1.6666   -3.3673 H   0  0  0  0  0  0  0  0  0  0  0  0
   -5.4887    0.9559   -2.1901 H   0  0  0  0  0  0  0  0  0  0  0  0
   -5.3921    2.5697   -2.4208 H   0  0  0  0  0  0  0  0  0  0  0  0
   -3.3868   -2.7945   -3.3835 H   0  0  0  0  0  0  0  0  0  0  0  0
   -1.9150   -2.2854   -2.8923 H   0  0  0  0  0  0  0  0  0  0  0  0
   -3.2438   -1.8993   -2.0253 H   0  0  0  0  0  0  0  0  0  0  0  0
   -0.6040   -0.5365   -2.8404 H   0  0  0  0  0  0  0  0  0  0  0  0
   -0.6059    3.9259   -0.9449 H   0  0  0  0  0  0  0  0  0  0  0  0
   -0.5300    4.6052   -2.4280 H   0  0  0  0  0  0  0  0  0  0  0  0
    1.3585    3.4304   -2.9957 H   0  0  0  0  0  0  0  0  0  0  0  0
    1.6119    3.5318   -1.3857 H   0  0  0  0  0  0  0  0  0  0  0  0
  1  2  2  0  0  0  0
  1  3  2  0  0  0  0
  1  4  1  0  0  0  0
  4  5  1  0  0  0  0
  1  6  1  0  0  0  0
  6  7  1  0  0  0  0
  7  8  2  0  0  0  0
  8  9  1  0  0  0  0
  9 10  2  0  0  0  0
 10 11  1  0  0  0  0
 11  6  2  0  0  0  0
  8 12  1  0  0  0  0
 12 13  1  0  0  0  0
 13 14  1  0  0  0  0
 14 15  2  0  0  0  0
 15 16  1  0  0  0  0
 16 17  2  0  0  0  0
 17 13  1  0  0  0  0
 17 18  1  0  0  0  0
 18 19  1  0  0  0  0
 19 20  2  0  0  0  0
 20 21  1  0  0  0  0
 21 22  1  0  0  0  0
 18 22  2  0  0  0  0
 20 23  1  0  0  0  0
 23 24  1  0  0  0  0
 24 25  1  0  0  0  0
 25 26  1  0  0  0  0
 26 27  1  0  0  0  0
 27 28  1  0  0  0  0
 28 23  1  0  0  0  0
 14 29  1  0  0  0  0
 29 30  1  0  0  0  0
 30 31  1  0  0  0  0
 31 32  2  0  0  0  0
 32 33  1  0  0  0  0
 33 34  1  0  0  0  0
 34 35  1  0  0  0  0
 33 36  2  0  0  0  0
 36 37  1  0  0  0  0
 37 38  1  0  0  0  0
 36 39  1  0  0  0  0
 39 30  2  0  0  0  0
 31 40  1  0  0  0  0
 40 41  1  0  0  0  0
 41 29  1  0  0  0  0
  4 42  1  0  0  0  0
  5 43  1  0  0  0  0
  5 44  1  0  0  0  0
  5 45  1  0  0  0  0
  7 46  1  0  0  0  0
  9 47  1  0  0  0  0
 10 48  1  0  0  0  0
 11 49  1  0  0  0  0
 12 50  1  0  0  0  0
 12 51  1  0  0  0  0
 22 52  1  0  0  0  0
 24 53  1  0  0  0  0
 24 54  1  0  0  0  0
 25 55  1  0  0  0  0
 25 56  1  0  0  0  0
 27 57  1  0  0  0  0
 27 58  1  0  0  0  0
 28 59  1  0  0  0  0
 28 60  1  0  0  0  0
 32 61  1  0  0  0  0
 35 62  1  0  0  0  0
 35 63  1  0  0  0  0
 35 64  1  0  0  0  0
 38 65  1  0  0  0  0
 38 66  1  0  0  0  0
 38 67  1  0  0  0  0
 39 68  1  0  0  0  0
 40 69  1  0  0  0  0
 40 70  1  0  0  0  0
 41 71  1  0  0  0  0
 41 72  1  0  0  0  0
M  END
>  <result-rank>
70

>  <similarity>
0.869

>  <query-name>


>  <query-smiles>
S(=O)(=O)(NC(=O)C)c1ccc(cc1)C=2N3N=CC=C(N4CCOCC4)C3=NC2/C=C/c5nc6c(cc5)cccc6

>  <source>
REALspace_2019-12

>  <similarity-descriptor>
0.936;1.000;0.805;0.961;0.949;0.0;1.000;0.733;0.733;0.733;0.611;0.611;0.214

>  <similarity-descriptor-smiles>
c1cccc(c1)C;N1CCOCC1;N1C=NN=C1;C1=CSC=N1;c1ccc(cc1)O;;S(=O)=O;NC;NC;NC;N1CCcc1;N1CCcc1;C.O.C

>  <reaction-name>
m_273170

>  <reagent1-name>
10756572

>  <reagent1-smiles>
[R2*]=C([R1*])N([R3*])Cc1cc(S(=O)(=O)NC)ccc1

>  <reagent2-name>
10763508

>  <reagent2-smiles>
[R1*]N1c2c(cc(OC)c(OC)c2)CC1

>  <reagent3-name>
10766638

>  <reagent3-smiles>
[R2*]=NN=C([R3*])C=1N=C(SC1)N2CCOCC2

$$$$
m_273170____17619788____10762102____10766740
          04022017323D 1   1.00000     0.00000     0
            
 72 77  0  0  0  0            999 V2000
    4.7641    3.6678    7.0485 F   0  0  0  0  0  0  0  0  0  0  0  0
    4.1091    3.6147    5.8914 C   0  0  0  0  0  0  0  0  0  0  0  0
    3.7234    4.7903    5.2550 C   0  0  0  0  0  0  0  0  0  0  0  0
    4.0304    6.0243    5.8402 N   0  3  0  0  0  0  0  0  0  0  0  0
    3.1598    6.8679    5.9773 O   0  5  0  0  0  0  0  0  0  0  0  0
    5.1593    6.2544    6.2099 O   0  0  0  0  0  0  0  0  0  0  0  0
    3.0372    4.7479    4.0462 C   0  0  0  0  0  0  0  0  0  0  0  0
    2.7400    3.5137    3.4777 C   0  0  0  0  0  0  0  0  0  0  0  0
    3.1291    2.3411    4.1178 C   0  0  0  0  0  0  0  0  0  0  0  0
    3.8144    2.3784    5.3272 C   0  0  0  0  0  0  0  0  0  0  0  0
    2.8010    0.9961    3.4903 C   0  0  0  0  0  0  0  0  0  0  0  0
    3.2232    0.9964    2.0816 N   0  0  0  0  0  0  0  0  0  0  0  0
    2.4017    1.0000    1.0000 C   0  0  0  0  0  0  0  0  0  0  0  0
    3.1912    0.9996   -0.0455 N   0  0  0  0  0  0  0  0  0  0  0  0
    4.4560    0.9958    0.3123 N   0  0  0  0  0  0  0  0  0  0  0  0
    4.5040    0.9938    1.6254 C   0  0  0  0  0  0  0  0  0  0  0  0
    5.7068    0.9897    2.4351 C   0  0  0  0  0  0  0  0  0  0  0  0
    6.6100    2.0397    2.3107 C   0  0  0  0  0  0  0  0  0  0  0  0
    7.7612    2.0319    3.0902 C   0  0  0  0  0  0  0  0  0  0  0  0
    8.0134    0.9932    3.9816 C   0  0  0  0  0  0  0  0  0  0  0  0
    7.1013   -0.0513    4.0969 C   0  0  0  0  0  0  0  0  0  0  0  0
    5.9452   -0.0544    3.3224 C   0  0  0  0  0  0  0  0  0  0  0  0
    9.1645    0.9956    4.7609 C   0  0  0  0  0  0  0  0  0  0  0  0
   10.0689    2.0460    4.6416 C   0  0  0  0  0  0  0  0  0  0  0  0
    9.8171    3.0822    3.7492 C   0  0  0  0  0  0  0  0  0  0  0  0
    8.6647    3.0830    2.9700 C   0  0  0  0  0  0  0  0  0  0  0  0
    1.0000    1.0000    1.0000 N   0  0  0  0  0  0  0  0  0  0  0  0
    0.2650   -0.2731    1.0004 C   0  0  0  0  0  0  0  0  0  0  0  0
    0.2272   -0.8365   -0.4101 C   0  0  0  0  0  0  0  0  0  0  0  0
   -0.8271   -0.4878   -1.2479 C   0  0  0  0  0  0  0  0  0  0  0  0
   -0.8594   -1.0039   -2.5387 C   0  0  0  0  0  0  0  0  0  0  0  0
   -1.8737   -0.6794   -3.3677 O   0  0  0  0  0  0  0  0  0  0  0  0
   -1.9089   -1.2051   -4.6863 C   0  0  0  0  0  0  0  0  0  0  0  0
    0.1460   -1.8555   -2.9849 C   0  0  0  0  0  0  0  0  0  0  0  0
    1.1949   -2.1979   -2.1370 C   0  0  0  0  0  0  0  0  0  0  0  0
    1.2390   -1.6873   -0.8438 C   0  0  0  0  0  0  0  0  0  0  0  0
    0.2650    2.2731    0.9996 C   0  0  0  0  0  0  0  0  0  0  0  0
   -0.8691    2.2053    2.0158 C   0  0  3  0  0  0  0  0  0  0  0  0
   -0.4200    1.9709    3.3409 O   0  0  0  0  0  0  0  0  0  0  0  0
   -1.4722    2.3686    4.1999 C   0  0  0  0  0  0  0  0  0  0  0  0
   -2.2523    3.4462    3.4737 C   0  0  0  0  0  0  0  0  0  0  0  0
   -1.4719    3.5884    2.1838 C   0  0  0  0  0  0  0  0  0  0  0  0
    2.7607    5.5945    3.5913 H   0  0  0  0  0  0  0  0  0  0  0  0
    2.2468    3.4691    2.6090 H   0  0  0  0  0  0  0  0  0  0  0  0
    4.0902    1.5320    5.7826 H   0  0  0  0  0  0  0  0  0  0  0  0
    3.2837    0.2719    3.9828 H   0  0  0  0  0  0  0  0  0  0  0  0
    1.8154    0.8353    3.5429 H   0  0  0  0  0  0  0  0  0  0  0  0
    6.4343    2.7882    1.6711 H   0  0  0  0  0  0  0  0  0  0  0  0
    7.2766   -0.7999    4.7364 H   0  0  0  0  0  0  0  0  0  0  0  0
    5.2886   -0.8042    3.4035 H   0  0  0  0  0  0  0  0  0  0  0  0
    9.3410    0.2486    5.4018 H   0  0  0  0  0  0  0  0  0  0  0  0
   10.9001    2.0558    5.1975 H   0  0  0  0  0  0  0  0  0  0  0  0
   10.4709    3.8343    3.6668 H   0  0  0  0  0  0  0  0  0  0  0  0
    8.4876    3.8310    2.3304 H   0  0  0  0  0  0  0  0  0  0  0  0
   -0.6689   -0.1186    1.3228 H   0  0  0  0  0  0  0  0  0  0  0  0
    0.7238   -0.9226    1.6067 H   0  0  0  0  0  0  0  0  0  0  0  0
   -1.5500    0.1241   -0.9271 H   0  0  0  0  0  0  0  0  0  0  0  0
   -2.7219   -0.8652   -5.1591 H   0  0  0  0  0  0  0  0  0  0  0  0
   -1.0899   -0.9165   -5.1822 H   0  0  0  0  0  0  0  0  0  0  0  0
   -1.9397   -2.2038   -4.6462 H   0  0  0  0  0  0  0  0  0  0  0  0
    0.1150   -2.2216   -3.9149 H   0  0  0  0  0  0  0  0  0  0  0  0
    1.9170   -2.8111   -2.4574 H   0  0  0  0  0  0  0  0  0  0  0  0
    1.9913   -1.9296   -0.2312 H   0  0  0  0  0  0  0  0  0  0  0  0
   -0.1130    2.4394    0.0888 H   0  0  0  0  0  0  0  0  0  0  0  0
    0.8870    3.0172    1.2433 H   0  0  0  0  0  0  0  0  0  0  0  0
   -1.5619    1.5376    1.7434 H   0  0  0  0  0  0  0  0  0  0  0  0
   -1.0999    2.7307    5.0544 H   0  0  0  0  0  0  0  0  0  0  0  0
   -2.0664    1.5893    4.3989 H   0  0  0  0  0  0  0  0  0  0  0  0
   -2.2571    4.3019    3.9912 H   0  0  0  0  0  0  0  0  0  0  0  0
   -3.1935    3.1573    3.2986 H   0  0  0  0  0  0  0  0  0  0  0  0
   -2.0747    3.8160    1.4191 H   0  0  0  0  0  0  0  0  0  0  0  0
   -0.7601    4.2859    2.2662 H   0  0  0  0  0  0  0  0  0  0  0  0
  1  2  1  0  0  0  0
  2  3  1  0  0  0  0
  3  4  1  0  0  0  0
  4  5  1  0  0  0  0
  4  6  2  0  0  0  0
  3  7  2  0  0  0  0
  7  8  1  0  0  0  0
  8  9  2  0  0  0  0
  9 10  1  0  0  0  0
 10  2  2  0  0  0  0
  9 11  1  0  0  0  0
 11 12  1  0  0  0  0
 12 13  1  0  0  0  0
 13 14  2  0  0  0  0
 14 15  1  0  0  0  0
 15 16  2  0  0  0  0
 16 12  1  0  0  0  0
 16 17  1  0  0  0  0
 17 18  1  0  0  0  0
 18 19  2  0  0  0  0
 19 20  1  0  0  0  0
 20 21  2  0  0  0  0
 21 22  1  0  0  0  0
 22 17  2  0  0  0  0
 20 23  1  0  0  0  0
 23 24  2  0  0  0  0
 24 25  1  0  0  0  0
 25 26  2  0  0  0  0
 26 19  1  0  0  0  0
 13 27  1  0  0  0  0
 27 28  1  0  0  0  0
 28 29  1  0  0  0  0
 29 30  1  0  0  0  0
 30 31  2  0  0  0  0
 31 32  1  0  0  0  0
 32 33  1  0  0  0  0
 31 34  1  0  0  0  0
 34 35  2  0  0  0  0
 35 36  1  0  0  0  0
 36 29  2  0  0  0  0
 27 37  1  0  0  0  0
 37 38  1  0  0  0  0
 38 39  1  0  0  0  0
 39 40  1  0  0  0  0
 40 41  1  0  0  0  0
 41 42  1  0  0  0  0
 42 38  1  0  0  0  0
  7 43  1  0  0  0  0
  8 44  1  0  0  0  0
 10 45  1  0  0  0  0
 11 46  1  0  0  0  0
 11 47  1  0  0  0  0
 18 48  1  0  0  0  0
 21 49  1  0  0  0  0
 22 50  1  0  0  0  0
 23 51  1  0  0  0  0
 24 52  1  0  0  0  0
 25 53  1  0  0  0  0
 26 54  1  0  0  0  0
 28 55  1  0  0  0  0
 28 56  1  0  0  0  0
 30 57  1  0  0  0  0
 33 58  1  0  0  0  0
 33 59  1  0  0  0  0
 33 60  1  0  0  0  0
 34 61  1  0  0  0  0
 35 62  1  0  0  0  0
 36 63  1  0  0  0  0
 37 64  1  0  0  0  0
 37 65  1  0  0  0  0
 38 66  1  0  0  0  0
 40 67  1  0  0  0  0
 40 68  1  0  0  0  0
 41 69  1  0  0  0  0
 41 70  1  0  0  0  0
 42 71  1  0  0  0  0
 42 72  1  0  0  0  0
M  CHG  2   4   1   5  -1
M  END
>  <result-rank>
71

>  <similarity>
0.869

>  <query-name>


>  <query-smiles>
S(=O)(=O)(NC(=O)C)c1ccc(cc1)C=2N3N=CC=C(N4CCOCC4)C3=NC2/C=C/c5nc6c(cc5)cccc6

>  <source>
REALspace_2019-12

>  <similarity-descriptor>
0.900;0.956;0.797;0.773;0.863;0.999;0.975;0.0;0.0;0.0;0.797;0.863;0.077

>  <similarity-descriptor-smiles>
Fc1cc(ccc1)C;CC1CCCO1;N1C=NN=C1;NCc1cccc(c1)O;c1ccccc1;c1ccccc1;[N+]([O-])=O;;;;N1C=NN=C1;c1ccccc1;C

>  <reaction-name>
m_273170

>  <reagent1-name>
17619788

>  <reagent1-smiles>
[R2*]=C([R1*])N([R3*])Cc1cc(F)c([N+]([O-])=O)cc1

>  <reagent2-name>
10762102

>  <reagent2-smiles>
[R1*]N(Cc1cc(OC)ccc1)CC2OCCC2

>  <reagent3-name>
10766740

>  <reagent3-smiles>
[R2*]=NN=C([R3*])c1cc2c(cc1)cccc2

$$$$
m_273170____10756572____10764092____10766770
          04022017323D 1   1.00000     0.00000     0
            
 71 75  0  0  0  0            999 V2000
    5.1287    5.6921   -3.8844 S   0  0  0  0  0  0  0  0  0  0  0  0
    6.4780    5.4264   -3.4574 O   0  0  0  0  0  0  0  0  0  0  0  0
    5.0660    5.6631   -5.3227 O   0  0  0  0  0  0  0  0  0  0  0  0
    4.6692    7.1618   -3.3500 N   0  0  0  0  0  0  0  0  0  0  0  0
    4.7332    7.1914   -1.8817 C   0  0  0  0  0  0  0  0  0  0  0  0
    4.0645    4.4791   -3.2328 C   0  0  0  0  0  0  0  0  0  0  0  0
    3.8683    4.4005   -1.8577 C   0  0  0  0  0  0  0  0  0  0  0  0
    3.0151    3.4260   -1.3508 C   0  0  0  0  0  0  0  0  0  0  0  0
    2.3610    2.5374   -2.1976 C   0  0  0  0  0  0  0  0  0  0  0  0
    2.5711    2.6331   -3.5694 C   0  0  0  0  0  0  0  0  0  0  0  0
    3.4206    3.6000   -4.0972 C   0  0  0  0  0  0  0  0  0  0  0  0
    2.8010    3.3415    0.1519 C   0  0  0  0  0  0  0  0  0  0  0  0
    3.2232    2.0176    0.6335 N   0  0  0  0  0  0  0  0  0  0  0  0
    2.4017    1.0000    1.0000 C   0  0  0  0  0  0  0  0  0  0  0  0
    3.1912    0.0177    1.3579 N   0  0  0  0  0  0  0  0  0  0  0  0
    4.4560    0.3552    1.2392 N   0  0  0  0  0  0  0  0  0  0  0  0
    4.5040    1.5898    0.7919 C   0  0  0  0  0  0  0  0  0  0  0  0
    5.7075    2.3525    0.5187 C   0  0  0  0  0  0  0  0  0  0  0  0
    6.1576    3.3455    1.3865 C   0  0  0  0  0  0  0  0  0  0  0  0
    5.5116    3.6559    2.5261 N   0  0  0  0  0  0  0  0  0  0  0  0
    5.9394    4.6122    3.3640 C   0  0  0  0  0  0  0  0  0  0  0  0
    7.0966    5.3274    3.0720 C   0  0  0  0  0  0  0  0  0  0  0  0
    7.7879    5.0297    1.9022 C   0  0  0  0  0  0  0  0  0  0  0  0
    7.3196    4.0340    1.0525 C   0  0  0  0  0  0  0  0  0  0  0  0
    8.0243    3.7506   -0.1129 C   0  0  0  0  0  0  0  0  0  0  0  0
    7.5584    2.7559   -0.9660 C   0  0  0  0  0  0  0  0  0  0  0  0
    6.3987    2.0559   -0.6502 C   0  0  0  0  0  0  0  0  0  0  0  0
    1.0000    1.0000    1.0000 N   0  0  0  0  0  0  0  0  0  0  0  0
    0.2650   -0.2731    1.0004 C   0  0  0  0  0  0  0  0  0  0  0  0
    0.2274   -0.8333   -0.4021 C   0  0  0  0  0  0  0  0  0  0  0  0
    1.1819   -1.6750   -0.9042 N   0  0  0  0  0  0  0  0  0  0  0  0
    0.9991   -2.0569   -2.1418 C   0  0  0  0  0  0  0  0  0  0  0  0
   -0.4494   -1.3278   -2.6625 S   0  0  0  0  0  0  0  0  0  0  0  0
   -0.8052   -0.4959   -1.2171 C   0  0  0  0  0  0  0  0  0  0  0  0
    1.8513   -2.9682   -3.0109 C   0  0  3  0  0  0  0  0  0  0  0  0
    2.0879   -2.3424   -4.2633 O   0  0  0  0  0  0  0  0  0  0  0  0
    2.8837   -3.1935   -5.0749 C   0  0  0  0  0  0  0  0  0  0  0  0
    3.1370   -2.5236   -6.4156 C   0  0  0  0  0  0  0  0  0  0  0  0
    3.1781   -3.2334   -2.3183 C   0  0  0  0  0  0  0  0  0  0  0  0
    0.2650    2.2731    0.9996 C   0  0  0  0  0  0  0  0  0  0  0  0
    3.7322    7.3464   -3.6466 H   0  0  0  0  0  0  0  0  0  0  0  0
    4.4513    8.0931   -1.5539 H   0  0  0  0  0  0  0  0  0  0  0  0
    4.1217    6.4944   -1.5073 H   0  0  0  0  0  0  0  0  0  0  0  0
    5.6703    7.0069   -1.5852 H   0  0  0  0  0  0  0  0  0  0  0  0
    4.3343    5.0360   -1.2421 H   0  0  0  0  0  0  0  0  0  0  0  0
    1.7487    1.8397   -1.8257 H   0  0  0  0  0  0  0  0  0  0  0  0
    2.1046    1.9978   -4.1849 H   0  0  0  0  0  0  0  0  0  0  0  0
    3.5664    3.6621   -5.0846 H   0  0  0  0  0  0  0  0  0  0  0  0
    3.3419    4.0494    0.6060 H   0  0  0  0  0  0  0  0  0  0  0  0
    1.8322    3.4781    0.3588 H   0  0  0  0  0  0  0  0  0  0  0  0
    5.4264    4.8111    4.1989 H   0  0  0  0  0  0  0  0  0  0  0  0
    7.4248    6.0412    3.6907 H   0  0  0  0  0  0  0  0  0  0  0  0
    8.6216    5.5318    1.6725 H   0  0  0  0  0  0  0  0  0  0  0  0
    8.8575    4.2570   -0.3351 H   0  0  0  0  0  0  0  0  0  0  0  0
    8.0572    2.5440   -1.8064 H   0  0  0  0  0  0  0  0  0  0  0  0
    6.0628    1.3406   -1.2630 H   0  0  0  0  0  0  0  0  0  0  0  0
   -0.6689   -0.1186    1.3228 H   0  0  0  0  0  0  0  0  0  0  0  0
    0.7238   -0.9226    1.6067 H   0  0  0  0  0  0  0  0  0  0  0  0
   -1.5854    0.0971   -1.0178 H   0  0  0  0  0  0  0  0  0  0  0  0
    1.3721   -3.8339   -3.1560 H   0  0  0  0  0  0  0  0  0  0  0  0
    2.4045   -4.0592   -5.2201 H   0  0  0  0  0  0  0  0  0  0  0  0
    3.7566   -3.3680   -4.6193 H   0  0  0  0  0  0  0  0  0  0  0  0
    3.6974   -3.1230   -6.9872 H   0  0  0  0  0  0  0  0  0  0  0  0
    2.2641   -2.3491   -6.8713 H   0  0  0  0  0  0  0  0  0  0  0  0
    3.6161   -1.6579   -6.2705 H   0  0  0  0  0  0  0  0  0  0  0  0
    3.0114   -3.6742   -1.4363 H   0  0  0  0  0  0  0  0  0  0  0  0
    3.7385   -3.8328   -2.8898 H   0  0  0  0  0  0  0  0  0  0  0  0
    3.6572   -2.3678   -2.1731 H   0  0  0  0  0  0  0  0  0  0  0  0
   -0.7182    2.0903    0.9996 H   0  0  0  0  0  0  0  0  0  0  0  0
    0.5066    2.7977    1.8159 H   0  0  0  0  0  0  0  0  0  0  0  0
    0.5066    2.7972    0.1829 H   0  0  0  0  0  0  0  0  0  0  0  0
  1  2  2  0  0  0  0
  1  3  2  0  0  0  0
  1  4  1  0  0  0  0
  4  5  1  0  0  0  0
  1  6  1  0  0  0  0
  6  7  1  0  0  0  0
  7  8  2  0  0  0  0
  8  9  1  0  0  0  0
  9 10  2  0  0  0  0
 10 11  1  0  0  0  0
 11  6  2  0  0  0  0
  8 12  1  0  0  0  0
 12 13  1  0  0  0  0
 13 14  1  0  0  0  0
 14 15  2  0  0  0  0
 15 16  1  0  0  0  0
 16 17  2  0  0  0  0
 17 13  1  0  0  0  0
 17 18  1  0  0  0  0
 18 19  1  0  0  0  0
 19 20  2  0  0  0  0
 20 21  1  0  0  0  0
 21 22  2  0  0  0  0
 22 23  1  0  0  0  0
 23 24  2  0  0  0  0
 24 19  1  0  0  0  0
 24 25  1  0  0  0  0
 25 26  2  0  0  0  0
 26 27  1  0  0  0  0
 27 18  2  0  0  0  0
 14 28  1  0  0  0  0
 28 29  1  0  0  0  0
 29 30  1  0  0  0  0
 30 31  1  0  0  0  0
 31 32  2  0  0  0  0
 32 33  1  0  0  0  0
 33 34  1  0  0  0  0
 30 34  2  0  0  0  0
 32 35  1  0  0  0  0
 35 36  1  0  0  0  0
 36 37  1  0  0  0  0
 37 38  1  0  0  0  0
 35 39  1  0  0  0  0
 28 40  1  0  0  0  0
  4 41  1  0  0  0  0
  5 42  1  0  0  0  0
  5 43  1  0  0  0  0
  5 44  1  0  0  0  0
  7 45  1  0  0  0  0
  9 46  1  0  0  0  0
 10 47  1  0  0  0  0
 11 48  1  0  0  0  0
 12 49  1  0  0  0  0
 12 50  1  0  0  0  0
 21 51  1  0  0  0  0
 22 52  1  0  0  0  0
 23 53  1  0  0  0  0
 25 54  1  0  0  0  0
 26 55  1  0  0  0  0
 27 56  1  0  0  0  0
 29 57  1  0  0  0  0
 29 58  1  0  0  0  0
 34 59  1  0  0  0  0
 35 60  1  0  0  0  0
 37 61  1  0  0  0  0
 37 62  1  0  0  0  0
 38 63  1  0  0  0  0
 38 64  1  0  0  0  0
 38 65  1  0  0  0  0
 39 66  1  0  0  0  0
 39 67  1  0  0  0  0
 39 68  1  0  0  0  0
 40 69  1  0  0  0  0
 40 70  1  0  0  0  0
 40 71  1  0  0  0  0
M  END
>  <result-rank>
72

>  <similarity>
0.869

>  <query-name>


>  <query-smiles>
S(=O)(=O)(NC(=O)C)c1ccc(cc1)C=2N3N=CC=C(N4CCOCC4)C3=NC2/C=C/c5nc6c(cc5)cccc6

>  <source>
REALspace_2019-12

>  <similarity-descriptor>
0.936;0.897;0.797;0.878;0.865;0.843;1.000;0.733;0.733;0.733;0.797;0.865;0.059

>  <similarity-descriptor-smiles>
c1cccc(c1)C;C(OCC)C;N1C=NN=C1;NCC1=CSC=N1;c1ccccc1;c1ccccn1;S(=O)=O;NC;NC;NC;N1C=NN=C1;c1ccccc1;C

>  <reaction-name>
m_273170

>  <reagent1-name>
10756572

>  <reagent1-smiles>
[R2*]=C([R1*])N([R3*])Cc1cc(S(=O)(=O)NC)ccc1

>  <reagent2-name>
10764092

>  <reagent2-smiles>
[R1*]N(CC=1N=C(SC1)C(OCC)C)C

>  <reagent3-name>
10766770

>  <reagent3-smiles>
[R2*]=NN=C([R3*])c1c2ncccc2ccc1

$$$$
m_273170____10755986____10760756____10766638
          04022017323D 1   1.00000     0.00000     0
            
 77 82  0  0  0  0            999 V2000
   -4.2209   -0.0004    5.0130 S   0  0  0  0  0  0  0  0  0  0  0  0
   -5.2219   -0.9806    4.6802 O   0  0  0  0  0  0  0  0  0  0  0  0
   -3.7053   -0.2690    6.3304 O   0  0  0  0  0  0  0  0  0  0  0  0
   -2.9244   -0.0795    3.8556 C   0  0  0  0  0  0  0  0  0  0  0  0
   -1.6062    0.0318    4.2845 C   0  0  0  0  0  0  0  0  0  0  0  0
   -0.5678   -0.0311    3.3609 C   0  0  0  0  0  0  0  0  0  0  0  0
   -0.8657   -0.2048    2.0136 C   0  0  0  0  0  0  0  0  0  0  0  0
   -2.1845   -0.3156    1.5852 C   0  0  0  0  0  0  0  0  0  0  0  0
   -3.2229   -0.2534    2.5080 C   0  0  0  0  0  0  0  0  0  0  0  0
    0.2650   -0.2731    1.0004 C   0  0  3  0  0  0  0  0  0  0  0  0
    1.0000    1.0000    1.0000 N   0  0  0  0  0  0  0  0  0  0  0  0
    2.4017    1.0000    1.0000 C   0  0  0  0  0  0  0  0  0  0  0  0
    3.1912    1.9823    0.6421 N   0  0  0  0  0  0  0  0  0  0  0  0
    4.4560    1.6448    0.7608 N   0  0  0  0  0  0  0  0  0  0  0  0
    4.5040    0.4102    1.2081 C   0  0  0  0  0  0  0  0  0  0  0  0
    3.2232   -0.0176    1.3665 N   0  0  0  0  0  0  0  0  0  0  0  0
    2.8010   -1.3415    1.8481 C   0  0  0  0  0  0  0  0  0  0  0  0
    2.8982   -1.3837    3.3644 C   0  0  0  0  0  0  0  0  0  0  0  0
    2.4619   -2.7520    3.8622 C   0  0  0  0  0  0  0  0  0  0  0  0
    2.5558   -2.7928    5.3281 N   0  0  0  0  0  0  0  0  0  0  0  0
    3.6500   -3.1756    6.0462 C   0  0  0  0  0  0  0  0  0  0  0  0
    3.3716   -3.0838    7.3888 C   0  0  0  0  0  0  0  0  0  0  0  0
    4.3390   -3.4335    8.3361 C   0  0  0  0  0  0  0  0  0  0  0  0
    5.5944   -3.8702    7.9219 C   0  0  0  0  0  0  0  0  0  0  0  0
    5.8850   -3.9633    6.5660 C   0  0  0  0  0  0  0  0  0  0  0  0
    4.9062   -3.6134    5.6415 C   0  0  0  0  0  0  0  0  0  0  0  0
    2.0306   -2.6318    7.4332 C   0  0  0  0  0  0  0  0  0  0  0  0
    1.5426   -2.4554    6.1748 C   0  0  0  0  0  0  0  0  0  0  0  0
    5.7075   -0.3525    1.4813 C   0  0  0  0  0  0  0  0  0  0  0  0
    6.2850   -0.4835    2.7163 N   0  0  0  0  0  0  0  0  0  0  0  0
    7.3707   -1.2143    2.7603 C   0  0  0  0  0  0  0  0  0  0  0  0
    7.6589   -1.7387    1.1671 S   0  0  0  0  0  0  0  0  0  0  0  0
    6.3157   -0.9825    0.4430 C   0  0  0  0  0  0  0  0  0  0  0  0
    8.1530   -1.5063    3.8839 N   0  0  0  0  0  0  0  0  0  0  0  0
    9.3520   -2.3443    3.7262 C   0  0  0  0  0  0  0  0  0  0  0  0
   10.4384   -1.9313    4.7072 C   0  0  0  0  0  0  0  0  0  0  0  0
    9.9149   -1.7480    6.0164 O   0  0  0  0  0  0  0  0  0  0  0  0
    8.9960   -0.6636    6.0435 C   0  0  0  0  0  0  0  0  0  0  0  0
    7.7697   -0.9485    5.1897 C   0  0  0  0  0  0  0  0  0  0  0  0
    0.2650    2.2731    0.9996 C   0  0  0  0  0  0  0  0  0  0  0  0
   -0.3095   -0.5269   -0.3837 C   0  0  0  0  0  0  0  0  0  0  0  0
   -4.9595    1.6517    4.9795 C   0  0  0  0  0  0  0  0  0  0  0  0
   -1.4050    0.1569    5.2561 H   0  0  0  0  0  0  0  0  0  0  0  0
    0.3824    0.0477    3.6625 H   0  0  0  0  0  0  0  0  0  0  0  0
   -2.3859   -0.4399    0.6136 H   0  0  0  0  0  0  0  0  0  0  0  0
   -4.1730   -0.3328    2.2065 H   0  0  0  0  0  0  0  0  0  0  0  0
    0.8870   -1.0170    1.2447 H   0  0  0  0  0  0  0  0  0  0  0  0
    3.3953   -2.0438    1.4563 H   0  0  0  0  0  0  0  0  0  0  0  0
    1.8557   -1.5115    1.5698 H   0  0  0  0  0  0  0  0  0  0  0  0
    3.8435   -1.2136    3.6427 H   0  0  0  0  0  0  0  0  0  0  0  0
    2.3039   -0.6814    3.7562 H   0  0  0  0  0  0  0  0  0  0  0  0
    1.5165   -2.9221    3.5839 H   0  0  0  0  0  0  0  0  0  0  0  0
    3.0562   -3.4543    3.4704 H   0  0  0  0  0  0  0  0  0  0  0  0
    4.1290   -3.3699    9.3117 H   0  0  0  0  0  0  0  0  0  0  0  0
    6.2869   -4.1168    8.5999 H   0  0  0  0  0  0  0  0  0  0  0  0
    6.7838   -4.2769    6.2597 H   0  0  0  0  0  0  0  0  0  0  0  0
    5.1104   -3.6781    4.6647 H   0  0  0  0  0  0  0  0  0  0  0  0
    1.5135   -2.4653    8.2728 H   0  0  0  0  0  0  0  0  0  0  0  0
    0.6270   -2.1420    5.9229 H   0  0  0  0  0  0  0  0  0  0  0  0
    6.0402   -0.9984   -0.5182 H   0  0  0  0  0  0  0  0  0  0  0  0
    9.6991   -2.2463    2.7935 H   0  0  0  0  0  0  0  0  0  0  0  0
    9.1075   -3.2996    3.8922 H   0  0  0  0  0  0  0  0  0  0  0  0
   11.1398   -2.6436    4.7343 H   0  0  0  0  0  0  0  0  0  0  0  0
   10.8470   -1.0728    4.3973 H   0  0  0  0  0  0  0  0  0  0  0  0
    9.4507    0.1561    5.6953 H   0  0  0  0  0  0  0  0  0  0  0  0
    8.7053   -0.5080    6.9876 H   0  0  0  0  0  0  0  0  0  0  0  0
    7.1849   -1.6048    5.6665 H   0  0  0  0  0  0  0  0  0  0  0  0
    7.2664   -0.0964    5.0461 H   0  0  0  0  0  0  0  0  0  0  0  0
   -0.7182    2.0903    0.9996 H   0  0  0  0  0  0  0  0  0  0  0  0
    0.5066    2.7977    1.8159 H   0  0  0  0  0  0  0  0  0  0  0  0
    0.5066    2.7972    0.1829 H   0  0  0  0  0  0  0  0  0  0  0  0
   -0.8095   -1.3929   -0.3834 H   0  0  0  0  0  0  0  0  0  0  0  0
   -0.9316    0.2171   -0.6280 H   0  0  0  0  0  0  0  0  0  0  0  0
    0.4345   -0.5718   -1.0504 H   0  0  0  0  0  0  0  0  0  0  0  0
   -4.2644    2.3324    5.2106 H   0  0  0  0  0  0  0  0  0  0  0  0
   -5.3176    1.8383    4.0646 H   0  0  0  0  0  0  0  0  0  0  0  0
   -5.7048    1.6972    5.6448 H   0  0  0  0  0  0  0  0  0  0  0  0
  1  2  2  0  0  0  0
  1  3  2  0  0  0  0
  1  4  1  0  0  0  0
  4  5  1  0  0  0  0
  5  6  2  0  0  0  0
  6  7  1  0  0  0  0
  7  8  2  0  0  0  0
  8  9  1  0  0  0  0
  9  4  2  0  0  0  0
  7 10  1  0  0  0  0
 10 11  1  0  0  0  0
 11 12  1  0  0  0  0
 12 13  2  0  0  0  0
 13 14  1  0  0  0  0
 14 15  2  0  0  0  0
 15 16  1  0  0  0  0
 16 12  1  0  0  0  0
 16 17  1  0  0  0  0
 17 18  1  0  0  0  0
 18 19  1  0  0  0  0
 19 20  1  0  0  0  0
 20 21  1  0  0  0  0
 21 22  1  0  0  0  0
 22 23  2  0  0  0  0
 23 24  1  0  0  0  0
 24 25  2  0  0  0  0
 25 26  1  0  0  0  0
 26 21  2  0  0  0  0
 22 27  1  0  0  0  0
 27 28  2  0  0  0  0
 28 20  1  0  0  0  0
 15 29  1  0  0  0  0
 29 30  1  0  0  0  0
 30 31  2  0  0  0  0
 31 32  1  0  0  0  0
 32 33  1  0  0  0  0
 29 33  2  0  0  0  0
 31 34  1  0  0  0  0
 34 35  1  0  0  0  0
 35 36  1  0  0  0  0
 36 37  1  0  0  0  0
 37 38  1  0  0  0  0
 38 39  1  0  0  0  0
 39 34  1  0  0  0  0
 11 40  1  0  0  0  0
 10 41  1  0  0  0  0
  1 42  1  0  0  0  0
  5 43  1  0  0  0  0
  6 44  1  0  0  0  0
  8 45  1  0  0  0  0
  9 46  1  0  0  0  0
 10 47  1  0  0  0  0
 17 48  1  0  0  0  0
 17 49  1  0  0  0  0
 18 50  1  0  0  0  0
 18 51  1  0  0  0  0
 19 52  1  0  0  0  0
 19 53  1  0  0  0  0
 23 54  1  0  0  0  0
 24 55  1  0  0  0  0
 25 56  1  0  0  0  0
 26 57  1  0  0  0  0
 27 58  1  0  0  0  0
 28 59  1  0  0  0  0
 33 60  1  0  0  0  0
 35 61  1  0  0  0  0
 35 62  1  0  0  0  0
 36 63  1  0  0  0  0
 36 64  1  0  0  0  0
 38 65  1  0  0  0  0
 38 66  1  0  0  0  0
 39 67  1  0  0  0  0
 39 68  1  0  0  0  0
 40 69  1  0  0  0  0
 40 70  1  0  0  0  0
 40 71  1  0  0  0  0
 41 72  1  0  0  0  0
 41 73  1  0  0  0  0
 41 74  1  0  0  0  0
 42 75  1  0  0  0  0
 42 76  1  0  0  0  0
 42 77  1  0  0  0  0
M  END
>  <result-rank>
73

>  <similarity>
0.868

>  <query-name>


>  <query-smiles>
S(=O)(=O)(NC(=O)C)c1ccc(cc1)C=2N3N=CC=C(N4CCOCC4)C3=NC2/C=C/c5nc6c(cc5)cccc6

>  <source>
REALspace_2019-12

>  <similarity-descriptor>
0.941;1.000;0.797;0.961;0.741;0.999;0.881;0.0;0.0;0.0;0.797;0.252;0.133

>  <similarity-descriptor-smiles>
c1ccc(cc1)CN;N1CCOCC1;C=1NC=NN1;C1=CSC=N1;CCN1C=Ccc1;c1ccccc1;S(=O)(=O)C;;;;C=1NC=NN1;C;C.C

>  <reaction-name>
m_273170

>  <reagent1-name>
10755986

>  <reagent1-smiles>
[R2*]=C([R1*])N([R3*])CCCN1c2c(cccc2)C=C1

>  <reagent2-name>
10760756

>  <reagent2-smiles>
[R1*]N(C(c1ccc(S(=O)(=O)C)cc1)C)C

>  <reagent3-name>
10766638

>  <reagent3-smiles>
[R2*]=NN=C([R3*])C=1N=C(SC1)N2CCOCC2

$$$$
m_273170____10756572____14045910____10755784
          04022017323D 1   1.00000     0.00000     0
            
 66 71  0  0  0  0            999 V2000
    0.0575    3.7241   -3.3504 S   0  0  0  0  0  0  0  0  0  0  0  0
   -0.0265    3.3635   -4.7420 O   0  0  0  0  0  0  0  0  0  0  0  0
   -1.2698    3.8533   -2.8070 O   0  0  0  0  0  0  0  0  0  0  0  0
    0.8452    5.1436   -3.2036 N   0  0  0  0  0  0  0  0  0  0  0  0
    0.9310    5.5117   -1.7830 C   0  0  0  0  0  0  0  0  0  0  0  0
    0.9221    2.4884   -2.4821 C   0  0  0  0  0  0  0  0  0  0  0  0
    0.6259    2.2502   -1.1438 C   0  0  0  0  0  0  0  0  0  0  0  0
    1.3249    1.2596   -0.4622 C   0  0  0  0  0  0  0  0  0  0  0  0
    2.3081    0.5104   -1.0999 C   0  0  0  0  0  0  0  0  0  0  0  0
    2.5887    0.7645   -2.4385 C   0  0  0  0  0  0  0  0  0  0  0  0
    1.9018    1.7510   -3.1386 C   0  0  0  0  0  0  0  0  0  0  0  0
    1.0000    1.0000    1.0000 C   0  0  0  0  0  0  0  0  0  0  0  0
    1.8491    1.8491    1.8491 N   0  0  0  0  0  0  0  0  0  0  0  0
    1.5940    3.1350    2.2043 C   0  0  0  0  0  0  0  0  0  0  0  0
    2.6007    3.5013    2.9585 N   0  0  0  0  0  0  0  0  0  0  0  0
    3.4710    2.5263    3.0984 N   0  0  0  0  0  0  0  0  0  0  0  0
    3.0294    1.4906    2.4210 C   0  0  0  0  0  0  0  0  0  0  0  0
    3.6858    0.2018    2.3076 C   0  0  0  0  0  0  0  0  0  0  0  0
    4.5441   -0.0743    1.3117 N   0  0  0  0  0  0  0  0  0  0  0  0
    5.1569   -1.2644    1.1984 C   0  0  0  0  0  0  0  0  0  0  0  0
    4.9105   -2.2654    2.1344 C   0  0  0  0  0  0  0  0  0  0  0  0
    4.0258   -2.0061    3.1761 C   0  0  0  0  0  0  0  0  0  0  0  0
    3.4048   -0.7642    3.2687 C   0  0  0  0  0  0  0  0  0  0  0  0
    5.5292   -3.5079    2.0451 C   0  0  0  0  0  0  0  0  0  0  0  0
    6.4103   -3.7477    0.9960 C   0  0  0  0  0  0  0  0  0  0  0  0
    6.6739   -2.7648    0.0479 C   0  0  0  0  0  0  0  0  0  0  0  0
    6.0428   -1.5300    0.1588 C   0  0  0  0  0  0  0  0  0  0  0  0
    0.4865    3.9120    1.8379 N   0  0  0  0  0  0  0  0  0  0  0  0
   -0.1096    4.7663    2.7733 C   0  0  0  0  0  0  0  0  0  0  0  0
   -0.3296    4.4808    4.1377 C   0  0  0  0  0  0  0  0  0  0  0  0
   -0.9067    5.5435    4.6459 N   0  0  0  0  0  0  0  0  0  0  0  0
   -1.0674    6.4673    3.7245 N   0  0  0  0  0  0  0  0  0  0  0  0
   -0.5812    6.0203    2.5347 C   0  0  0  0  0  0  0  0  0  0  0  0
   -1.6800    7.7866    3.9375 C   0  0  0  0  0  0  0  0  0  0  0  0
   -1.2372    8.7348    2.8348 C   0  0  0  0  0  0  0  0  0  0  0  0
   -1.8260   10.1266    2.9777 C   0  0  0  0  0  0  0  0  0  0  0  0
   -0.4893   10.6520    2.4873 C   0  0  0  0  0  0  0  0  0  0  0  0
    0.0972    9.4023    3.0916 C   0  0  0  0  0  0  0  0  0  0  0  0
    0.3484    5.8537   -3.7025 H   0  0  0  0  0  0  0  0  0  0  0  0
    1.4143    6.3825   -1.6929 H   0  0  0  0  0  0  0  0  0  0  0  0
    0.0093    5.6014   -1.4056 H   0  0  0  0  0  0  0  0  0  0  0  0
    1.4278    4.8016   -1.2840 H   0  0  0  0  0  0  0  0  0  0  0  0
   -0.0799    2.7841   -0.6781 H   0  0  0  0  0  0  0  0  0  0  0  0
    2.8060   -0.2005   -0.6033 H   0  0  0  0  0  0  0  0  0  0  0  0
    3.2943    0.2303   -2.9041 H   0  0  0  0  0  0  0  0  0  0  0  0
    2.1097    1.9276   -4.1007 H   0  0  0  0  0  0  0  0  0  0  0  0
    0.0381    1.2137    1.1708 H   0  0  0  0  0  0  0  0  0  0  0  0
    1.1708    0.0381    1.2137 H   0  0  0  0  0  0  0  0  0  0  0  0
    3.8360   -2.7121    3.8583 H   0  0  0  0  0  0  0  0  0  0  0  0
    2.7671   -0.5693    4.0138 H   0  0  0  0  0  0  0  0  0  0  0  0
    5.3434   -4.2177    2.7246 H   0  0  0  0  0  0  0  0  0  0  0  0
    6.8599   -4.6379    0.9225 H   0  0  0  0  0  0  0  0  0  0  0  0
    7.3088   -2.9434   -0.7037 H   0  0  0  0  0  0  0  0  0  0  0  0
    6.2293   -0.8205   -0.5207 H   0  0  0  0  0  0  0  0  0  0  0  0
    0.1221    3.8562    0.9083 H   0  0  0  0  0  0  0  0  0  0  0  0
   -0.0931    3.6375    4.6203 H   0  0  0  0  0  0  0  0  0  0  0  0
   -0.5723    6.5121    1.6641 H   0  0  0  0  0  0  0  0  0  0  0  0
   -1.3919    8.1487    4.8240 H   0  0  0  0  0  0  0  0  0  0  0  0
   -2.6759    7.6983    3.9212 H   0  0  0  0  0  0  0  0  0  0  0  0
   -1.3260    8.3524    1.9151 H   0  0  0  0  0  0  0  0  0  0  0  0
   -2.0614   10.3882    3.9138 H   0  0  0  0  0  0  0  0  0  0  0  0
   -2.5993   10.3189    2.3735 H   0  0  0  0  0  0  0  0  0  0  0  0
   -0.1899   11.5073    2.9103 H   0  0  0  0  0  0  0  0  0  0  0  0
   -0.4014   10.7229    1.4937 H   0  0  0  0  0  0  0  0  0  0  0  0
    0.8640    9.0123    2.5818 H   0  0  0  0  0  0  0  0  0  0  0  0
    0.3451    9.4822    4.0571 H   0  0  0  0  0  0  0  0  0  0  0  0
  1  2  2  0  0  0  0
  1  3  2  0  0  0  0
  1  4  1  0  0  0  0
  4  5  1  0  0  0  0
  1  6  1  0  0  0  0
  6  7  1  0  0  0  0
  7  8  2  0  0  0  0
  8  9  1  0  0  0  0
  9 10  2  0  0  0  0
 10 11  1  0  0  0  0
 11  6  2  0  0  0  0
  8 12  1  0  0  0  0
 12 13  1  0  0  0  0
 13 14  1  0  0  0  0
 14 15  2  0  0  0  0
 15 16  1  0  0  0  0
 16 17  2  0  0  0  0
 17 13  1  0  0  0  0
 17 18  1  0  0  0  0
 18 19  1  0  0  0  0
 19 20  2  0  0  0  0
 20 21  1  0  0  0  0
 21 22  2  0  0  0  0
 22 23  1  0  0  0  0
 23 18  2  0  0  0  0
 21 24  1  0  0  0  0
 24 25  2  0  0  0  0
 25 26  1  0  0  0  0
 26 27  2  0  0  0  0
 27 20  1  0  0  0  0
 14 28  1  0  0  0  0
 28 29  1  0  0  0  0
 29 30  1  0  0  0  0
 30 31  2  0  0  0  0
 31 32  1  0  0  0  0
 32 33  1  0  0  0  0
 29 33  2  0  0  0  0
 32 34  1  0  0  0  0
 34 35  1  0  0  0  0
 35 36  1  0  0  0  0
 36 37  1  0  0  0  0
 37 38  1  0  0  0  0
 38 35  1  0  0  0  0
  4 39  1  0  0  0  0
  5 40  1  0  0  0  0
  5 41  1  0  0  0  0
  5 42  1  0  0  0  0
  7 43  1  0  0  0  0
  9 44  1  0  0  0  0
 10 45  1  0  0  0  0
 11 46  1  0  0  0  0
 12 47  1  0  0  0  0
 12 48  1  0  0  0  0
 22 49  1  0  0  0  0
 23 50  1  0  0  0  0
 24 51  1  0  0  0  0
 25 52  1  0  0  0  0
 26 53  1  0  0  0  0
 27 54  1  0  0  0  0
 28 55  1  0  0  0  0
 30 56  1  0  0  0  0
 33 57  1  0  0  0  0
 34 58  1  0  0  0  0
 34 59  1  0  0  0  0
 35 60  1  0  0  0  0
 36 61  1  0  0  0  0
 36 62  1  0  0  0  0
 37 63  1  0  0  0  0
 37 64  1  0  0  0  0
 38 65  1  0  0  0  0
 38 66  1  0  0  0  0
M  END
>  <result-rank>
74

>  <similarity>
0.868

>  <query-name>


>  <query-smiles>
S(=O)(=O)(NC(=O)C)c1ccc(cc1)C=2N3N=CC=C(N4CCOCC4)C3=NC2/C=C/c5nc6c(cc5)cccc6

>  <source>
REALspace_2019-12

>  <similarity-descriptor>
0.936;0.671;0.797;0.867;0.935;1.000;1.000;0.733;0.733;0.733;0.797;0.935;0.0

>  <similarity-descriptor-smiles>
c1cccc(c1)C;CC1CCC1;N1C=NN=C1;NC1=CNN=C1;c1ccccn1;c1ccccc1;S(=O)=O;NC;NC;NC;N1C=NN=C1;c1ccccn1;

>  <reaction-name>
m_273170

>  <reagent1-name>
10756572

>  <reagent1-smiles>
[R2*]=C([R1*])N([R3*])Cc1cc(S(=O)(=O)NC)ccc1

>  <reagent2-name>
14045910

>  <reagent2-smiles>
[R1*]NC=1C=NN(C1)CC2CCC2

>  <reagent3-name>
10755784

>  <reagent3-smiles>
[R2*]=NN=C([R3*])c1nc2c(cc1)cccc2

$$$$
s_2____152259____15775474____236124
          04022017323D 1   1.00000     0.00000     0
            
 62 67  0  0  0  0            999 V2000
   -0.2810    3.3352    3.7573 S   0  0  0  0  0  0  0  0  0  0  0  0
   -1.5443    3.9470    3.4359 O   0  0  0  0  0  0  0  0  0  0  0  0
   -0.4718    1.9241    3.9717 O   0  0  0  0  0  0  0  0  0  0  0  0
    0.7615    3.5615    2.5249 N   0  0  0  0  0  0  0  0  0  0  0  0
    1.9850    2.8822    2.5096 C   0  0  0  0  0  0  0  0  0  0  0  0
    3.1774    3.5986    2.4996 C   0  0  0  0  0  0  0  0  0  0  0  0
    4.3889    2.9151    2.4847 C   0  0  0  0  0  0  0  0  0  0  0  0
    4.3934    1.5238    2.4792 C   0  0  0  0  0  0  0  0  0  0  0  0
    3.2017    0.8073    2.4891 C   0  0  0  0  0  0  0  0  0  0  0  0
    1.9902    1.4907    2.5042 C   0  0  0  0  0  0  0  0  0  0  0  0
    5.6599    0.8215    2.4637 C   0  0  0  0  0  0  0  0  0  0  0  0
    6.3185    0.4543    1.3242 N   0  0  0  0  0  0  0  0  0  0  0  0
    7.4899   -0.2015    1.5397 C   0  0  0  0  0  0  0  0  0  0  0  0
    7.6735   -0.2993    3.2302 S   0  0  0  0  0  0  0  0  0  0  0  0
    6.2321    0.5062    3.6584 C   0  0  0  0  0  0  0  0  0  0  0  0
    8.2890   -0.6541    0.6585 N   0  0  0  0  0  0  0  0  0  0  0  0
    9.4056   -1.4113    1.0462 C   0  0  0  0  0  0  0  0  0  0  0  0
   10.6364   -0.8204    1.3261 C   0  0  0  0  0  0  0  0  0  0  0  0
   11.7501   -1.5651    1.7035 C   0  0  0  0  0  0  0  0  0  0  0  0
   12.9460   -0.9887    1.9515 O   0  0  0  0  0  0  0  0  0  0  0  0
   13.9893   -1.6539    2.6411 C   0  0  0  0  0  0  0  0  0  0  0  0
   14.0293   -3.0827    2.1294 C   0  0  0  0  0  0  0  0  0  0  0  0
   12.7257   -3.6375    2.2300 O   0  0  0  0  0  0  0  0  0  0  0  0
   11.6399   -2.9437    1.8240 C   0  0  0  0  0  0  0  0  0  0  0  0
   10.4095   -3.5390    1.5406 C   0  0  0  0  0  0  0  0  0  0  0  0
    9.2991   -2.7959    1.1550 C   0  0  0  0  0  0  0  0  0  0  0  0
    5.8378    0.7156   -0.0400 C   0  0  0  0  0  0  0  0  0  0  0  0
    6.6040    1.8874   -0.6314 C   0  0  0  0  0  0  0  0  0  0  0  0
    6.1517    3.1944   -0.4807 C   0  0  0  0  0  0  0  0  0  0  0  0
    6.8471    4.2105   -1.0131 N   0  0  0  0  0  0  0  0  0  0  0  0
    7.9858    4.0173   -1.6993 C   0  0  0  0  0  0  0  0  0  0  0  0
    8.6995    5.0811   -2.2464 C   0  0  0  0  0  0  0  0  0  0  0  0
    8.2818    6.3377   -2.1124 F   0  0  0  0  0  0  0  0  0  0  0  0
    9.8766    4.8581   -2.9530 C   0  0  0  0  0  0  0  0  0  0  0  0
   10.3522    3.5616   -3.1197 C   0  0  0  0  0  0  0  0  0  0  0  0
    9.6512    2.4891   -2.5791 C   0  0  0  0  0  0  0  0  0  0  0  0
    8.4759    2.7264   -1.8741 C   0  0  0  0  0  0  0  0  0  0  0  0
    7.7795    1.6497   -1.3358 C   0  0  0  0  0  0  0  0  0  0  0  0
    0.3891    4.0886    5.2605 C   0  0  0  0  0  0  0  0  0  0  0  0
    0.5269    4.1857    1.7797 H   0  0  0  0  0  0  0  0  0  0  0  0
    3.1638    4.5985    2.5030 H   0  0  0  0  0  0  0  0  0  0  0  0
    5.2515    3.4208    2.4781 H   0  0  0  0  0  0  0  0  0  0  0  0
    3.2155   -0.1926    2.4853 H   0  0  0  0  0  0  0  0  0  0  0  0
    1.1277    0.9848    2.5111 H   0  0  0  0  0  0  0  0  0  0  0  0
    5.8866    0.7020    4.5762 H   0  0  0  0  0  0  0  0  0  0  0  0
   10.7224    0.1732    1.2532 H   0  0  0  0  0  0  0  0  0  0  0  0
   13.8079   -1.6475    3.6245 H   0  0  0  0  0  0  0  0  0  0  0  0
   14.8623   -1.2010    2.4602 H   0  0  0  0  0  0  0  0  0  0  0  0
   14.3258   -3.0903    1.1744 H   0  0  0  0  0  0  0  0  0  0  0  0
   14.6675   -3.6201    2.6808 H   0  0  0  0  0  0  0  0  0  0  0  0
   10.3238   -4.5324    1.6173 H   0  0  0  0  0  0  0  0  0  0  0  0
    8.4313   -3.2518    0.9574 H   0  0  0  0  0  0  0  0  0  0  0  0
    4.8624    0.9345   -0.0135 H   0  0  0  0  0  0  0  0  0  0  0  0
    5.9819   -0.0964   -0.6055 H   0  0  0  0  0  0  0  0  0  0  0  0
    5.3082    3.3764    0.0246 H   0  0  0  0  0  0  0  0  0  0  0  0
   10.3809    5.6296   -3.3411 H   0  0  0  0  0  0  0  0  0  0  0  0
   11.1981    3.4008   -3.6281 H   0  0  0  0  0  0  0  0  0  0  0  0
    9.9892    1.5552   -2.6963 H   0  0  0  0  0  0  0  0  0  0  0  0
    8.1195    0.7166   -1.4537 H   0  0  0  0  0  0  0  0  0  0  0  0
    1.2664    3.6637    5.4837 H   0  0  0  0  0  0  0  0  0  0  0  0
    0.5216    5.0685    5.1116 H   0  0  0  0  0  0  0  0  0  0  0  0
   -0.2505    3.9498    6.0166 H   0  0  0  0  0  0  0  0  0  0  0  0
  1  2  2  0  0  0  0
  1  3  2  0  0  0  0
  1  4  1  0  0  0  0
  4  5  1  0  0  0  0
  5  6  1  0  0  0  0
  6  7  2  0  0  0  0
  7  8  1  0  0  0  0
  8  9  2  0  0  0  0
  9 10  1  0  0  0  0
 10  5  2  0  0  0  0
  8 11  1  0  0  0  0
 11 12  1  0  0  0  0
 12 13  1  0  0  0  0
 13 14  1  0  0  0  0
 14 15  1  0  0  0  0
 11 15  2  0  0  0  0
 13 16  2  0  0  0  0
 16 17  1  0  0  0  0
 17 18  1  0  0  0  0
 18 19  2  0  0  0  0
 19 20  1  0  0  0  0
 20 21  1  0  0  0  0
 21 22  1  0  0  0  0
 22 23  1  0  0  0  0
 23 24  1  0  0  0  0
 24 19  1  0  0  0  0
 24 25  2  0  0  0  0
 25 26  1  0  0  0  0
 26 17  2  0  0  0  0
 12 27  1  0  0  0  0
 27 28  1  0  0  0  0
 28 29  1  0  0  0  0
 29 30  2  0  0  0  0
 30 31  1  0  0  0  0
 31 32  2  0  0  0  0
 32 33  1  0  0  0  0
 32 34  1  0  0  0  0
 34 35  2  0  0  0  0
 35 36  1  0  0  0  0
 36 37  2  0  0  0  0
 37 31  1  0  0  0  0
 37 38  1  0  0  0  0
 38 28  2  0  0  0  0
  1 39  1  0  0  0  0
  4 40  1  0  0  0  0
  6 41  1  0  0  0  0
  7 42  1  0  0  0  0
  9 43  1  0  0  0  0
 10 44  1  0  0  0  0
 15 45  1  0  0  0  0
 18 46  1  0  0  0  0
 21 47  1  0  0  0  0
 21 48  1  0  0  0  0
 22 49  1  0  0  0  0
 22 50  1  0  0  0  0
 25 51  1  0  0  0  0
 26 52  1  0  0  0  0
 27 53  1  0  0  0  0
 27 54  1  0  0  0  0
 29 55  1  0  0  0  0
 34 56  1  0  0  0  0
 35 57  1  0  0  0  0
 36 58  1  0  0  0  0
 38 59  1  0  0  0  0
 39 60  1  0  0  0  0
 39 61  1  0  0  0  0
 39 62  1  0  0  0  0
M  END
>  <result-rank>
75

>  <similarity>
0.868

>  <query-name>


>  <query-smiles>
S(=O)(=O)(NC(=O)C)c1ccc(cc1)C=2N3N=CC=C(N4CCOCC4)C3=NC2/C=C/c5nc6c(cc5)cccc6

>  <source>
REALspace_2019-12

>  <similarity-descriptor>
0.999;0.802;0.779;0.882;0.923;0.964;0.790;0.0;0.0;0.0;0.779;0.779;0.0

>  <similarity-descriptor-smiles>
c1ccccc1;c1cOCCO1;C1=CSCN1;Nc1ccccc1;Cc1cccnc1;c1ccccc1F;S(=O)(=O)(N)C;;;;C1=CSCN1;C1=CSCN1;

>  <reaction-name>
s_2

>  <reagent1-name>
152259

>  <reagent1-smiles>
[R1*]SC([R3*])=Nc1cc2OCCOc2cc1

>  <reagent2-name>
15775474

>  <reagent2-smiles>
[R2*]N([R3*])Cc1cnc2c(F)cccc2c1

>  <reagent3-name>
236124

>  <reagent3-smiles>
[R2*]C(c1ccc(NS(=O)(=O)C)cc1)=C[R1*]

$$$$
s_46____548782____15738290____12634624
          04022017323D 1   1.00000     0.00000     0
            
 56 60  0  0  0  0            999 V2000
    5.5201   -0.4769   -2.6218 Br  0  0  0  0  0  0  0  0  0  0  0  0
    4.3843   -1.1697   -1.1817 C   0  0  0  0  0  0  0  0  0  0  0  0
    3.5698   -2.2858   -1.3562 C   0  0  0  0  0  0  0  0  0  0  0  0
    2.7798   -2.7428   -0.3057 C   0  0  0  0  0  0  0  0  0  0  0  0
    2.7983   -2.0908    0.9227 C   0  0  0  0  0  0  0  0  0  0  0  0
    3.6170   -0.9780    1.0824 C   0  0  0  0  0  0  0  0  0  0  0  0
    4.4123   -0.5088    0.0419 C   0  0  0  0  0  0  0  0  0  0  0  0
    3.6456   -0.2893    2.3577 C   0  0  0  0  0  0  0  0  0  0  0  0
    3.2995    0.9851    2.4289 C   0  0  0  0  0  0  0  0  0  0  0  0
    4.3765    2.3441    2.4956 S   0  0  0  0  0  0  0  0  0  0  0  0
    3.1474    3.5639    2.5524 C   0  0  0  0  0  0  0  0  0  0  0  0
    1.9137    2.9173    2.5293 N   0  0  0  0  0  0  0  0  0  0  0  0
    1.9586    1.5243    2.4686 C   0  0  0  0  0  0  0  0  0  0  0  0
    0.9613    0.8205    2.4494 O   0  0  0  0  0  0  0  0  0  0  0  0
    0.6577    3.6785    2.5692 C   0  0  0  0  0  0  0  0  0  0  0  0
    0.3459    4.2148    1.1812 C   0  0  0  0  0  0  0  0  0  0  0  0
    0.8597    3.5626    0.0653 C   0  0  0  0  0  0  0  0  0  0  0  0
    0.5715    4.0585   -1.2020 C   0  0  0  0  0  0  0  0  0  0  0  0
    1.0842    3.4089   -2.3315 N   0  3  0  0  0  0  0  0  0  0  0  0
    0.6862    2.2942   -2.6273 O   0  5  0  0  0  0  0  0  0  0  0  0
    1.9219    3.9531   -3.0143 O   0  0  0  0  0  0  0  0  0  0  0  0
   -0.2204    5.1921   -1.3514 C   0  0  0  0  0  0  0  0  0  0  0  0
   -0.7301    5.8377   -0.2287 C   0  0  0  0  0  0  0  0  0  0  0  0
   -0.4472    5.3492    1.0429 C   0  0  0  0  0  0  0  0  0  0  0  0
   -0.5432    5.7441   -2.7306 C   0  0  0  0  0  0  0  0  0  0  0  0
    3.3477    4.8665    2.6124 C   0  0  0  0  0  0  0  0  0  0  0  0
    4.7642    5.4172    2.6371 C   0  0  0  0  0  0  0  0  0  0  0  0
    5.2574    5.8497    1.6323 O   0  0  0  0  0  0  0  0  0  0  0  0
    5.5563    5.4200    3.9352 C   0  0  0  0  0  0  0  0  0  0  0  0
    5.9462    6.8163    4.3238 C   0  0  0  0  0  0  0  0  0  0  0  0
    6.9711    5.8850    3.7427 C   0  0  0  0  0  0  0  0  0  0  0  0
    1.9584   -3.8556   -0.4570 C   0  0  0  0  0  0  0  0  0  0  0  0
    1.9303   -4.5171   -1.6804 C   0  0  0  0  0  0  0  0  0  0  0  0
    2.7101   -4.0816   -2.7468 C   0  0  0  0  0  0  0  0  0  0  0  0
    3.5224   -2.9674   -2.5695 C   0  0  0  0  0  0  0  0  0  0  0  0
    2.2317   -2.4172    1.6793 H   0  0  0  0  0  0  0  0  0  0  0  0
    4.9962    0.2926    0.1719 H   0  0  0  0  0  0  0  0  0  0  0  0
    3.9270   -0.7779    3.1835 H   0  0  0  0  0  0  0  0  0  0  0  0
    0.7507    4.4419    3.2084 H   0  0  0  0  0  0  0  0  0  0  0  0
   -0.0851    3.0804    2.8700 H   0  0  0  0  0  0  0  0  0  0  0  0
    1.4290    2.7476    0.1727 H   0  0  0  0  0  0  0  0  0  0  0  0
   -1.2996    6.6526   -0.3361 H   0  0  0  0  0  0  0  0  0  0  0  0
   -0.8115    5.8105    1.8519 H   0  0  0  0  0  0  0  0  0  0  0  0
   -1.1199    6.5558   -2.6381 H   0  0  0  0  0  0  0  0  0  0  0  0
    0.3058    5.9898   -3.1984 H   0  0  0  0  0  0  0  0  0  0  0  0
   -1.0279    5.0497   -3.2625 H   0  0  0  0  0  0  0  0  0  0  0  0
    2.5677    5.4915    2.6416 H   0  0  0  0  0  0  0  0  0  0  0  0
    5.3475    4.7475    4.6452 H   0  0  0  0  0  0  0  0  0  0  0  0
    5.9932    7.0717    5.2895 H   0  0  0  0  0  0  0  0  0  0  0  0
    5.6173    7.5944    3.7888 H   0  0  0  0  0  0  0  0  0  0  0  0
    7.3246    6.0429    2.8206 H   0  0  0  0  0  0  0  0  0  0  0  0
    7.7005    5.5202    4.3213 H   0  0  0  0  0  0  0  0  0  0  0  0
    1.3951   -4.1761    0.3045 H   0  0  0  0  0  0  0  0  0  0  0  0
    1.3412   -5.3170   -1.7949 H   0  0  0  0  0  0  0  0  0  0  0  0
    2.6868   -4.5608   -3.6242 H   0  0  0  0  0  0  0  0  0  0  0  0
    4.0860   -2.6479   -3.3313 H   0  0  0  0  0  0  0  0  0  0  0  0
  1  2  1  0  0  0  0
  2  3  1  0  0  0  0
  3  4  2  0  0  0  0
  4  5  1  0  0  0  0
  5  6  2  0  0  0  0
  6  7  1  0  0  0  0
  7  2  2  0  0  0  0
  6  8  1  0  0  0  0
  8  9  2  0  0  0  0
  9 10  1  0  0  0  0
 10 11  1  0  0  0  0
 11 12  1  0  0  0  0
 12 13  1  0  0  0  0
 13  9  1  0  0  0  0
 13 14  2  0  0  0  0
 12 15  1  0  0  0  0
 15 16  1  0  0  0  0
 16 17  1  0  0  0  0
 17 18  2  0  0  0  0
 18 19  1  0  0  0  0
 19 20  1  0  0  0  0
 19 21  2  0  0  0  0
 18 22  1  0  0  0  0
 22 23  2  0  0  0  0
 23 24  1  0  0  0  0
 24 16  2  0  0  0  0
 22 25  1  0  0  0  0
 11 26  2  0  0  0  0
 26 27  1  0  0  0  0
 27 28  2  0  0  0  0
 27 29  1  0  0  0  0
 29 30  1  0  0  0  0
 30 31  1  0  0  0  0
 31 29  1  0  0  0  0
  4 32  1  0  0  0  0
 32 33  2  0  0  0  0
 33 34  1  0  0  0  0
 34 35  2  0  0  0  0
 35  3  1  0  0  0  0
  5 36  1  0  0  0  0
  7 37  1  0  0  0  0
  8 38  1  0  0  0  0
 15 39  1  0  0  0  0
 15 40  1  0  0  0  0
 17 41  1  0  0  0  0
 23 42  1  0  0  0  0
 24 43  1  0  0  0  0
 25 44  1  0  0  0  0
 25 45  1  0  0  0  0
 25 46  1  0  0  0  0
 26 47  1  0  0  0  0
 29 48  1  0  0  0  0
 30 49  1  0  0  0  0
 30 50  1  0  0  0  0
 31 51  1  0  0  0  0
 31 52  1  0  0  0  0
 32 53  1  0  0  0  0
 33 54  1  0  0  0  0
 34 55  1  0  0  0  0
 35 56  1  0  0  0  0
M  CHG  2  19   1  20  -1
M  END
>  <result-rank>
76

>  <similarity>
0.868

>  <query-name>


>  <query-smiles>
S(=O)(=O)(NC(=O)C)c1ccc(cc1)C=2N3N=CC=C(N4CCOCC4)C3=NC2/C=C/c5nc6c(cc5)cccc6

>  <source>
REALspace_2019-12

>  <similarity-descriptor>
0.916;0.885;0.732;0.732;0.894;0.999;0.975;0.0;0.0;0.0;0.998;0.894;0.091

>  <similarity-descriptor-smiles>
Cc1ccccc1;CC(=O)C1CC1;C1C(NCS1)=O;C1C(NCS1)=O;Brc1ccccc1;c1ccccc1;[N+]([O-])=O;;;;C;Brc1ccccc1;C

>  <reaction-name>
s_46

>  <reagent1-name>
548782

>  <reagent1-smiles>
[R3*]=C1SC(N([R1*])C1=O)=CC(=O)C2CC2

>  <reagent2-name>
15738290

>  <reagent2-smiles>
[R3*]=Cc1cc(Br)c2c(c1)cccc2

>  <reagent3-name>
12634624

>  <reagent3-smiles>
[R1*]Cc1cc([N+]([O-])=O)c(cc1)C

$$$$
m_273170____10756572____10762478____10766516
          04022017323D 1   1.00000     0.00000     0
            
 78 82  0  0  0  0            999 V2000
    5.1287   -4.0999    5.4569 S   0  0  0  0  0  0  0  0  0  0  0  0
    6.4634   -3.8414    4.9821 O   0  0  0  0  0  0  0  0  0  0  0  0
    5.1307   -4.1403    6.8963 O   0  0  0  0  0  0  0  0  0  0  0  0
    4.6125   -5.5319    4.8739 N   0  0  0  0  0  0  0  0  0  0  0  0
    4.6105   -5.4908    3.4045 C   0  0  0  0  0  0  0  0  0  0  0  0
    4.0645   -2.8348    4.9134 C   0  0  0  0  0  0  0  0  0  0  0  0
    3.8683   -2.6366    3.5504 C   0  0  0  0  0  0  0  0  0  0  0  0
    3.0151   -1.6217    3.1304 C   0  0  0  0  0  0  0  0  0  0  0  0
    2.3610   -0.8102    4.0514 C   0  0  0  0  0  0  0  0  0  0  0  0
    2.5711   -1.0252    5.4096 C   0  0  0  0  0  0  0  0  0  0  0  0
    3.4206   -2.0343    5.8512 C   0  0  0  0  0  0  0  0  0  0  0  0
    2.8010   -1.4065    1.6408 C   0  0  0  0  0  0  0  0  0  0  0  0
    3.2232   -0.0457    1.2764 N   0  0  0  0  0  0  0  0  0  0  0  0
    2.4017    1.0000    1.0000 C   0  0  0  0  0  0  0  0  0  0  0  0
    3.1912    2.0097    0.7291 N   0  0  0  0  0  0  0  0  0  0  0  0
    4.4560    1.6632    0.8179 N   0  0  0  0  0  0  0  0  0  0  0  0
    4.5040    0.3943    1.1559 C   0  0  0  0  0  0  0  0  0  0  0  0
    5.7081   -0.3897    1.3617 C   0  0  0  0  0  0  0  0  0  0  0  0
    6.2169   -1.2561    0.3948 C   0  0  0  0  0  0  0  0  0  0  0  0
    7.3788   -1.9709    0.6744 C   0  0  0  0  0  0  0  0  0  0  0  0
    7.9900   -1.8202    1.8588 N   0  0  0  0  0  0  0  0  0  0  0  0
    7.5150   -0.9903    2.8007 C   0  0  0  0  0  0  0  0  0  0  0  0
    6.3597   -0.2492    2.5812 C   0  0  0  0  0  0  0  0  0  0  0  0
    8.2119   -0.8241    4.1405 C   0  0  0  0  0  0  0  0  0  0  0  0
    7.8935   -2.8367   -0.2857 C   0  0  0  0  0  0  0  0  0  0  0  0
    7.2681   -3.0011   -1.5169 C   0  0  0  0  0  0  0  0  0  0  0  0
    6.1071   -2.2938   -1.8070 C   0  0  0  0  0  0  0  0  0  0  0  0
    5.5993   -1.4302   -0.8429 C   0  0  0  0  0  0  0  0  0  0  0  0
    1.0000    1.0000    1.0000 N   0  0  0  0  0  0  0  0  0  0  0  0
    0.2650   -0.2731    1.0004 C   0  0  0  0  0  0  0  0  0  0  0  0
   -1.2203   -0.0012    0.8131 C   0  0  0  0  0  0  0  0  0  0  0  0
   -2.1667    0.2231    1.8387 C   0  0  0  0  0  0  0  0  0  0  0  0
   -3.3093    0.4137    1.2382 N   0  0  0  0  0  0  0  0  0  0  0  0
   -3.1832    0.3288   -0.0650 N   0  0  0  0  0  0  0  0  0  0  0  0
   -1.8849    0.0682   -0.3691 C   0  0  0  0  0  0  0  0  0  0  0  0
   -1.2944   -0.1094   -1.7600 C   0  0  0  0  0  0  0  0  0  0  0  0
   -4.2640    0.4889   -1.0472 C   0  0  0  0  0  0  0  0  0  0  0  0
   -4.3696    1.9505   -1.4507 C   0  0  0  0  0  0  0  0  0  0  0  0
   -5.4142    2.1052   -2.4001 O   0  0  0  0  0  0  0  0  0  0  0  0
   -4.8905    1.9455   -3.7103 C   0  0  0  0  0  0  0  0  0  0  0  0
   -1.9097    0.2429    3.3362 C   0  0  0  0  0  0  0  0  0  0  0  0
    0.2650    2.2731    0.9996 C   0  0  0  0  0  0  0  0  0  0  0  0
    3.6856   -5.7114    5.2036 H   0  0  0  0  0  0  0  0  0  0  0  0
    4.2938   -6.3693    3.0468 H   0  0  0  0  0  0  0  0  0  0  0  0
    3.9990   -4.7638    3.0922 H   0  0  0  0  0  0  0  0  0  0  0  0
    5.5374   -5.3112    3.0748 H   0  0  0  0  0  0  0  0  0  0  0  0
    4.3343   -3.2160    2.8818 H   0  0  0  0  0  0  0  0  0  0  0  0
    1.7487   -0.0828    3.7417 H   0  0  0  0  0  0  0  0  0  0  0  0
    2.1046   -0.4459    6.0782 H   0  0  0  0  0  0  0  0  0  0  0  0
    3.5664   -2.1823    6.8294 H   0  0  0  0  0  0  0  0  0  0  0  0
    3.3419   -2.0722    1.1267 H   0  0  0  0  0  0  0  0  0  0  0  0
    1.8322   -1.5246    1.4228 H   0  0  0  0  0  0  0  0  0  0  0  0
    6.0064    0.3694    3.2829 H   0  0  0  0  0  0  0  0  0  0  0  0
    7.7068   -0.1666    4.6996 H   0  0  0  0  0  0  0  0  0  0  0  0
    8.2446   -1.7060    4.6109 H   0  0  0  0  0  0  0  0  0  0  0  0
    9.1429   -0.4903    3.9928 H   0  0  0  0  0  0  0  0  0  0  0  0
    8.7283   -3.3500   -0.0867 H   0  0  0  0  0  0  0  0  0  0  0  0
    7.6536   -3.6282   -2.1936 H   0  0  0  0  0  0  0  0  0  0  0  0
    5.6479   -2.4036   -2.6885 H   0  0  0  0  0  0  0  0  0  0  0  0
    4.7646   -0.9175   -1.0437 H   0  0  0  0  0  0  0  0  0  0  0  0
    0.4108   -0.7418    1.8716 H   0  0  0  0  0  0  0  0  0  0  0  0
    0.5954   -0.8490    0.2527 H   0  0  0  0  0  0  0  0  0  0  0  0
   -0.3140   -0.2918   -1.6850 H   0  0  0  0  0  0  0  0  0  0  0  0
   -1.7425   -0.8780   -2.2167 H   0  0  0  0  0  0  0  0  0  0  0  0
   -1.4385    0.7247   -2.2924 H   0  0  0  0  0  0  0  0  0  0  0  0
   -5.1288    0.1914   -0.6427 H   0  0  0  0  0  0  0  0  0  0  0  0
   -4.0654   -0.0664   -1.8549 H   0  0  0  0  0  0  0  0  0  0  0  0
   -4.5682    2.5058   -0.6431 H   0  0  0  0  0  0  0  0  0  0  0  0
   -3.5048    2.2480   -1.8552 H   0  0  0  0  0  0  0  0  0  0  0  0
   -5.6262    2.0544   -4.3789 H   0  0  0  0  0  0  0  0  0  0  0  0
   -4.1861    2.6361   -3.8742 H   0  0  0  0  0  0  0  0  0  0  0  0
   -4.4905    1.0334   -3.8005 H   0  0  0  0  0  0  0  0  0  0  0  0
   -0.9410    0.0660    3.5105 H   0  0  0  0  0  0  0  0  0  0  0  0
   -2.1565    1.1391    3.7050 H   0  0  0  0  0  0  0  0  0  0  0  0
   -2.4624   -0.4633    3.7787 H   0  0  0  0  0  0  0  0  0  0  0  0
   -0.7182    2.0903    0.9996 H   0  0  0  0  0  0  0  0  0  0  0  0
    0.5066    2.7977    1.8159 H   0  0  0  0  0  0  0  0  0  0  0  0
    0.5066    2.7972    0.1829 H   0  0  0  0  0  0  0  0  0  0  0  0
  1  2  2  0  0  0  0
  1  3  2  0  0  0  0
  1  4  1  0  0  0  0
  4  5  1  0  0  0  0
  1  6  1  0  0  0  0
  6  7  1  0  0  0  0
  7  8  2  0  0  0  0
  8  9  1  0  0  0  0
  9 10  2  0  0  0  0
 10 11  1  0  0  0  0
 11  6  2  0  0  0  0
  8 12  1  0  0  0  0
 12 13  1  0  0  0  0
 13 14  1  0  0  0  0
 14 15  2  0  0  0  0
 15 16  1  0  0  0  0
 16 17  2  0  0  0  0
 17 13  1  0  0  0  0
 17 18  1  0  0  0  0
 18 19  1  0  0  0  0
 19 20  2  0  0  0  0
 20 21  1  0  0  0  0
 21 22  2  0  0  0  0
 22 23  1  0  0  0  0
 23 18  2  0  0  0  0
 22 24  1  0  0  0  0
 20 25  1  0  0  0  0
 25 26  2  0  0  0  0
 26 27  1  0  0  0  0
 27 28  2  0  0  0  0
 28 19  1  0  0  0  0
 14 29  1  0  0  0  0
 29 30  1  0  0  0  0
 30 31  1  0  0  0  0
 31 32  1  0  0  0  0
 32 33  2  0  0  0  0
 33 34  1  0  0  0  0
 34 35  1  0  0  0  0
 31 35  2  0  0  0  0
 35 36  1  0  0  0  0
 34 37  1  0  0  0  0
 37 38  1  0  0  0  0
 38 39  1  0  0  0  0
 39 40  1  0  0  0  0
 32 41  1  0  0  0  0
 29 42  1  0  0  0  0
  4 43  1  0  0  0  0
  5 44  1  0  0  0  0
  5 45  1  0  0  0  0
  5 46  1  0  0  0  0
  7 47  1  0  0  0  0
  9 48  1  0  0  0  0
 10 49  1  0  0  0  0
 11 50  1  0  0  0  0
 12 51  1  0  0  0  0
 12 52  1  0  0  0  0
 23 53  1  0  0  0  0
 24 54  1  0  0  0  0
 24 55  1  0  0  0  0
 24 56  1  0  0  0  0
 25 57  1  0  0  0  0
 26 58  1  0  0  0  0
 27 59  1  0  0  0  0
 28 60  1  0  0  0  0
 30 61  1  0  0  0  0
 30 62  1  0  0  0  0
 36 63  1  0  0  0  0
 36 64  1  0  0  0  0
 36 65  1  0  0  0  0
 37 66  1  0  0  0  0
 37 67  1  0  0  0  0
 38 68  1  0  0  0  0
 38 69  1  0  0  0  0
 40 70  1  0  0  0  0
 40 71  1  0  0  0  0
 40 72  1  0  0  0  0
 41 73  1  0  0  0  0
 41 74  1  0  0  0  0
 41 75  1  0  0  0  0
 42 76  1  0  0  0  0
 42 77  1  0  0  0  0
 42 78  1  0  0  0  0
M  END
>  <result-rank>
77

>  <similarity>
0.868

>  <query-name>


>  <query-smiles>
S(=O)(=O)(NC(=O)C)c1ccc(cc1)C=2N3N=CC=C(N4CCOCC4)C3=NC2/C=C/c5nc6c(cc5)cccc6

>  <source>
REALspace_2019-12

>  <similarity-descriptor>
0.936;0.843;0.797;0.839;0.883;1.000;1.000;0.733;0.733;0.733;0.797;0.883;0.211

>  <similarity-descriptor-smiles>
c1cccc(c1)C;CCOC;N1C=NN=C1;NCC1=CNN=C1;c1ccncc1;c1ccccc1;S(=O)=O;NC;NC;NC;N1C=NN=C1;c1ccncc1;C.C.C.C

>  <reaction-name>
m_273170

>  <reagent1-name>
10756572

>  <reagent1-smiles>
[R2*]=C([R1*])N([R3*])Cc1cc(S(=O)(=O)NC)ccc1

>  <reagent2-name>
10762478

>  <reagent2-smiles>
[R1*]N(CC=1C(=NN(C1C)CCOC)C)C

>  <reagent3-name>
10766516

>  <reagent3-smiles>
[R2*]=NN=C([R3*])c1c2c(nc(c1)C)cccc2

$$$$
m_273170____10756572____10765424____10755784
          04022017323D 1   1.00000     0.00000     0
            
 71 77  0  0  0  0            999 V2000
    0.4648    3.7275    2.5286 S   0  0  0  0  0  0  0  0  0  0  0  0
   -0.5215    2.9336    3.2145 O   0  0  0  0  0  0  0  0  0  0  0  0
    0.6266    4.9857    3.2099 O   0  0  0  0  0  0  0  0  0  0  0  0
   -0.0243    3.9976    0.9974 N   0  0  0  0  0  0  0  0  0  0  0  0
   -0.1894    2.7131    0.3019 C   0  0  0  0  0  0  0  0  0  0  0  0
    1.9834    2.8778    2.5111 C   0  0  0  0  0  0  0  0  0  0  0  0
    3.1753    3.5954    2.5018 C   0  0  0  0  0  0  0  0  0  0  0  0
    4.3816    2.9033    2.4878 C   0  0  0  0  0  0  0  0  0  0  0  0
    4.4082    1.5127    2.4838 C   0  0  0  0  0  0  0  0  0  0  0  0
    3.2052    0.8142    2.4933 C   0  0  0  0  0  0  0  0  0  0  0  0
    1.9876    1.4868    2.5069 C   0  0  0  0  0  0  0  0  0  0  0  0
    5.6831    3.6886    2.4782 C   0  0  0  0  0  0  0  0  0  0  0  0
    5.6323    4.7088    1.4202 N   0  0  0  0  0  0  0  0  0  0  0  0
    5.6610    4.4763    0.0823 C   0  0  0  0  0  0  0  0  0  0  0  0
    5.5943    5.6557   -0.4844 N   0  0  0  0  0  0  0  0  0  0  0  0
    5.5258    6.6130    0.4137 N   0  0  0  0  0  0  0  0  0  0  0  0
    5.5475    6.0535    1.6024 C   0  0  0  0  0  0  0  0  0  0  0  0
    5.4910    6.7490    2.8744 C   0  0  0  0  0  0  0  0  0  0  0  0
    4.3299    6.9725    3.5121 N   0  0  0  0  0  0  0  0  0  0  0  0
    4.2674    7.6153    4.6901 C   0  0  0  0  0  0  0  0  0  0  0  0
    5.4344    8.0768    5.2932 C   0  0  0  0  0  0  0  0  0  0  0  0
    6.6507    7.8588    4.6543 C   0  0  0  0  0  0  0  0  0  0  0  0
    6.6858    7.1902    3.4344 C   0  0  0  0  0  0  0  0  0  0  0  0
    5.4033    8.7455    6.5125 C   0  0  0  0  0  0  0  0  0  0  0  0
    4.1772    8.9539    7.1352 C   0  0  0  0  0  0  0  0  0  0  0  0
    2.9969    8.5028    6.5540 C   0  0  0  0  0  0  0  0  0  0  0  0
    3.0540    7.8365    5.3341 C   0  0  0  0  0  0  0  0  0  0  0  0
    5.7477    3.2374   -0.5588 N   0  0  0  0  0  0  0  0  0  0  0  0
    4.6932    2.5379   -1.1441 C   0  0  0  0  0  0  0  0  0  0  0  0
    5.2220    1.6697   -2.0710 C   0  0  0  0  0  0  0  0  0  0  0  0
    4.4055    0.8163   -2.8081 C   0  0  0  0  0  0  0  0  0  0  0  0
    3.0283    0.8415   -2.6147 C   0  0  0  0  0  0  0  0  0  0  0  0
    2.4773    1.7157   -1.6831 C   0  0  0  0  0  0  0  0  0  0  0  0
    3.3140    2.5549   -0.9557 C   0  0  0  0  0  0  0  0  0  0  0  0
    6.7301    1.7843   -2.0961 C   0  0  0  0  0  0  0  0  0  0  0  0
    6.9689    2.4627   -0.7658 C   0  0  0  0  0  0  0  0  0  0  0  0
    7.1532    2.3327   -3.4515 C   0  0  0  0  0  0  0  0  0  0  0  0
    8.6653    2.4528   -3.5592 C   0  0  0  0  0  0  0  0  0  0  0  0
    9.2921    1.1989   -3.3195 O   0  0  0  0  0  0  0  0  0  0  0  0
    8.9502    0.6154   -2.0698 C   0  0  0  0  0  0  0  0  0  0  0  0
    7.4418    0.4434   -1.9982 C   0  0  0  0  0  0  0  0  0  0  0  0
    0.6607    4.5489    0.5210 H   0  0  0  0  0  0  0  0  0  0  0  0
   -0.4895    2.8789   -0.6375 H   0  0  0  0  0  0  0  0  0  0  0  0
    0.6832    2.2249    0.2918 H   0  0  0  0  0  0  0  0  0  0  0  0
   -0.8744    2.1618    0.7782 H   0  0  0  0  0  0  0  0  0  0  0  0
    3.1648    4.5954    2.5052 H   0  0  0  0  0  0  0  0  0  0  0  0
    5.2795    1.0220    2.4742 H   0  0  0  0  0  0  0  0  0  0  0  0
    3.2159   -0.1857    2.4903 H   0  0  0  0  0  0  0  0  0  0  0  0
    1.1271    0.9773    2.5135 H   0  0  0  0  0  0  0  0  0  0  0  0
    5.8105    4.1336    3.3646 H   0  0  0  0  0  0  0  0  0  0  0  0
    6.4466    3.0664    2.3049 H   0  0  0  0  0  0  0  0  0  0  0  0
    7.4998    8.1824    5.0717 H   0  0  0  0  0  0  0  0  0  0  0  0
    7.5555    7.0295    2.9679 H   0  0  0  0  0  0  0  0  0  0  0  0
    6.2492    9.0713    6.9347 H   0  0  0  0  0  0  0  0  0  0  0  0
    4.1439    9.4340    8.0118 H   0  0  0  0  0  0  0  0  0  0  0  0
    2.1187    8.6555    7.0071 H   0  0  0  0  0  0  0  0  0  0  0  0
    2.2078    7.5107    4.9126 H   0  0  0  0  0  0  0  0  0  0  0  0
    4.8076    0.1877   -3.4739 H   0  0  0  0  0  0  0  0  0  0  0  0
    2.4362    0.2333   -3.1434 H   0  0  0  0  0  0  0  0  0  0  0  0
    1.4882    1.7403   -1.5380 H   0  0  0  0  0  0  0  0  0  0  0  0
    2.9178    3.1820   -0.2851 H   0  0  0  0  0  0  0  0  0  0  0  0
    7.0934    1.7889   -0.0375 H   0  0  0  0  0  0  0  0  0  0  0  0
    7.7695    3.0605   -0.8073 H   0  0  0  0  0  0  0  0  0  0  0  0
    6.7460    3.2373   -3.5772 H   0  0  0  0  0  0  0  0  0  0  0  0
    6.8248    1.7168   -4.1677 H   0  0  0  0  0  0  0  0  0  0  0  0
    8.9041    2.7681   -4.4777 H   0  0  0  0  0  0  0  0  0  0  0  0
    8.9900    3.1156   -2.8844 H   0  0  0  0  0  0  0  0  0  0  0  0
    9.2550    1.2117   -1.3272 H   0  0  0  0  0  0  0  0  0  0  0  0
    9.3935   -0.2768   -1.9842 H   0  0  0  0  0  0  0  0  0  0  0  0
    7.1437   -0.1400   -2.7538 H   0  0  0  0  0  0  0  0  0  0  0  0
    7.2037    0.0104   -1.1289 H   0  0  0  0  0  0  0  0  0  0  0  0
  1  2  2  0  0  0  0
  1  3  2  0  0  0  0
  1  4  1  0  0  0  0
  4  5  1  0  0  0  0
  1  6  1  0  0  0  0
  6  7  1  0  0  0  0
  7  8  2  0  0  0  0
  8  9  1  0  0  0  0
  9 10  2  0  0  0  0
 10 11  1  0  0  0  0
 11  6  2  0  0  0  0
  8 12  1  0  0  0  0
 12 13  1  0  0  0  0
 13 14  1  0  0  0  0
 14 15  2  0  0  0  0
 15 16  1  0  0  0  0
 16 17  2  0  0  0  0
 17 13  1  0  0  0  0
 17 18  1  0  0  0  0
 18 19  1  0  0  0  0
 19 20  2  0  0  0  0
 20 21  1  0  0  0  0
 21 22  2  0  0  0  0
 22 23  1  0  0  0  0
 23 18  2  0  0  0  0
 21 24  1  0  0  0  0
 24 25  2  0  0  0  0
 25 26  1  0  0  0  0
 26 27  2  0  0  0  0
 27 20  1  0  0  0  0
 14 28  1  0  0  0  0
 28 29  1  0  0  0  0
 29 30  1  0  0  0  0
 30 31  2  0  0  0  0
 31 32  1  0  0  0  0
 32 33  2  0  0  0  0
 33 34  1  0  0  0  0
 34 29  2  0  0  0  0
 30 35  1  0  0  0  0
 35 36  1  0  0  0  0
 36 28  1  0  0  0  0
 35 37  1  0  0  0  0
 37 38  1  0  0  0  0
 38 39  1  0  0  0  0
 39 40  1  0  0  0  0
 40 41  1  0  0  0  0
 41 35  1  0  0  0  0
  4 42  1  0  0  0  0
  5 43  1  0  0  0  0
  5 44  1  0  0  0  0
  5 45  1  0  0  0  0
  7 46  1  0  0  0  0
  9 47  1  0  0  0  0
 10 48  1  0  0  0  0
 11 49  1  0  0  0  0
 12 50  1  0  0  0  0
 12 51  1  0  0  0  0
 22 52  1  0  0  0  0
 23 53  1  0  0  0  0
 24 54  1  0  0  0  0
 25 55  1  0  0  0  0
 26 56  1  0  0  0  0
 27 57  1  0  0  0  0
 31 58  1  0  0  0  0
 32 59  1  0  0  0  0
 33 60  1  0  0  0  0
 34 61  1  0  0  0  0
 36 62  1  0  0  0  0
 36 63  1  0  0  0  0
 37 64  1  0  0  0  0
 37 65  1  0  0  0  0
 38 66  1  0  0  0  0
 38 67  1  0  0  0  0
 40 68  1  0  0  0  0
 40 69  1  0  0  0  0
 41 70  1  0  0  0  0
 41 71  1  0  0  0  0
M  END
>  <result-rank>
78

>  <similarity>
0.868

>  <query-name>


>  <query-smiles>
S(=O)(=O)(NC(=O)C)c1ccc(cc1)C=2N3N=CC=C(N4CCOCC4)C3=NC2/C=C/c5nc6c(cc5)cccc6

>  <source>
REALspace_2019-12

>  <similarity-descriptor>
0.936;0.994;0.797;0.597;0.935;1.000;1.000;0.733;0.733;0.733;0.797;0.935;0.0

>  <similarity-descriptor-smiles>
c1cccc(c1)C;C1CCOCC1;N1C=NN=C1;N1CCc2c1cccc2;c1ccccn1;c1ccccc1;S(=O)=O;NC;NC;NC;N1C=NN=C1;c1ccccn1;

>  <reaction-name>
m_273170

>  <reagent1-name>
10756572

>  <reagent1-smiles>
[R2*]=C([R1*])N([R3*])Cc1cc(S(=O)(=O)NC)ccc1

>  <reagent2-name>
10765424

>  <reagent2-smiles>
[R1*]N1c2c(cccc2)C3(C1)CCOCC3

>  <reagent3-name>
10755784

>  <reagent3-smiles>
[R2*]=NN=C([R3*])c1nc2c(cc1)cccc2

$$$$
m_273170____10759452____10766420____10755784
          04022017323D 1   1.00000     0.00000     0
            
 76 81  0  0  0  0            999 V2000
    2.0839    2.8361    5.2845 S   0  0  0  0  0  0  0  0  0  0  0  0
    0.9939    2.6459    3.9903 C   0  0  0  0  0  0  0  0  0  0  0  0
   -0.1510    2.1197    4.5017 C   0  0  0  0  0  0  0  0  0  0  0  0
   -0.1041    1.8858    5.8992 C   0  0  0  0  0  0  0  0  0  0  0  0
    1.0651    2.2288    6.5069 C   0  0  0  0  0  0  0  0  0  0  0  0
    1.4023    2.0936    7.9834 C   0  0  0  0  0  0  0  0  0  0  0  0
    1.2690    3.0081    2.5421 C   0  0  0  0  0  0  0  0  0  0  0  0
    1.8487    1.8487    1.8487 N   0  0  0  0  0  0  0  0  0  0  0  0
    3.2107    1.5525    1.9968 C   0  0  0  0  0  0  0  0  0  0  0  0
    4.1572    2.3669    2.3932 N   0  0  0  0  0  0  0  0  0  0  0  0
    5.3255    1.7649    2.4160 N   0  0  0  0  0  0  0  0  0  0  0  0
    5.1472    0.5230    2.0256 C   0  0  0  0  0  0  0  0  0  0  0  0
    3.8240    0.3648    1.7560 N   0  0  0  0  0  0  0  0  0  0  0  0
    3.1722   -0.8680    1.2889 C   0  0  0  0  0  0  0  0  0  0  0  0
    2.3991   -1.4986    2.4364 C   0  0  0  0  0  0  0  0  0  0  0  0
    1.0247   -1.7008    2.3646 C   0  0  0  0  0  0  0  0  0  0  0  0
    0.3559   -2.2583    3.3851 N   0  0  0  0  0  0  0  0  0  0  0  0
    0.9820   -2.6406    4.5081 C   0  0  0  0  0  0  0  0  0  0  0  0
    0.2853   -3.2229    5.5741 N   0  0  0  0  0  0  0  0  0  0  0  0
   -0.1093   -4.6396    5.5869 C   0  0  0  0  0  0  0  0  0  0  0  0
   -0.1865   -5.1301    7.0241 C   0  0  0  0  0  0  0  0  0  0  0  0
   -1.1626   -4.4240    7.7865 O   0  0  0  0  0  0  0  0  0  0  0  0
   -1.3683   -3.0821    7.3587 C   0  0  0  0  0  0  0  0  0  0  0  0
   -0.1089   -2.4649    6.7697 C   0  0  0  0  0  0  0  0  0  0  0  0
    2.3550   -2.4622    4.6337 C   0  0  0  0  0  0  0  0  0  0  0  0
    3.0006   -2.8320    5.7357 F   0  0  0  0  0  0  0  0  0  0  0  0
    3.0718   -1.8866    3.5902 C   0  0  0  0  0  0  0  0  0  0  0  0
    6.1784   -0.4906    1.9061 C   0  0  0  0  0  0  0  0  0  0  0  0
    6.2888   -1.5003    2.7852 N   0  0  0  0  0  0  0  0  0  0  0  0
    7.2400   -2.4436    2.6828 C   0  0  0  0  0  0  0  0  0  0  0  0
    8.1571   -2.3955    1.6363 C   0  0  0  0  0  0  0  0  0  0  0  0
    8.0655   -1.3603    0.7116 C   0  0  0  0  0  0  0  0  0  0  0  0
    7.0703   -0.3966    0.8423 C   0  0  0  0  0  0  0  0  0  0  0  0
    9.1533   -3.3569    1.5023 C   0  0  0  0  0  0  0  0  0  0  0  0
    9.2283   -4.3838    2.4374 C   0  0  0  0  0  0  0  0  0  0  0  0
    8.3244   -4.4548    3.4920 C   0  0  0  0  0  0  0  0  0  0  0  0
    7.3368   -3.4815    3.6045 C   0  0  0  0  0  0  0  0  0  0  0  0
    1.0000    1.0000    1.0000 C   0  0  0  0  0  0  0  0  0  0  0  0
    0.7075    1.7208   -0.3059 C   0  0  0  0  0  0  0  0  0  0  0  0
   -0.1412    0.8721   -1.1546 N   0  0  0  0  0  0  0  0  0  0  0  0
   -0.5367    1.3156   -2.3890 C   0  0  0  0  0  0  0  0  0  0  0  0
   -0.1903    2.3968   -2.7774 O   0  0  0  0  0  0  0  0  0  0  0  0
   -1.4143    0.4380   -3.2666 C   0  0  0  0  0  0  0  0  0  0  0  0
   -0.9542    1.9158    3.9420 H   0  0  0  0  0  0  0  0  0  0  0  0
   -0.8752    1.4965    6.4031 H   0  0  0  0  0  0  0  0  0  0  0  0
    0.6188    1.7076    8.4703 H   0  0  0  0  0  0  0  0  0  0  0  0
    2.1921    1.4898    8.0910 H   0  0  0  0  0  0  0  0  0  0  0  0
    1.6178    2.9946    8.3599 H   0  0  0  0  0  0  0  0  0  0  0  0
    0.4134    3.2699    2.0956 H   0  0  0  0  0  0  0  0  0  0  0  0
    1.9116    3.7735    2.5062 H   0  0  0  0  0  0  0  0  0  0  0  0
    3.8668   -1.5093    0.9628 H   0  0  0  0  0  0  0  0  0  0  0  0
    2.5430   -0.6503    0.5429 H   0  0  0  0  0  0  0  0  0  0  0  0
    0.5283   -1.4268    1.5408 H   0  0  0  0  0  0  0  0  0  0  0  0
    0.5679   -5.1790    5.0864 H   0  0  0  0  0  0  0  0  0  0  0  0
   -1.0038   -4.7407    5.1515 H   0  0  0  0  0  0  0  0  0  0  0  0
   -0.4233   -6.1016    7.0198 H   0  0  0  0  0  0  0  0  0  0  0  0
    0.7078   -5.0068    7.4542 H   0  0  0  0  0  0  0  0  0  0  0  0
   -1.6577   -2.5349    8.1441 H   0  0  0  0  0  0  0  0  0  0  0  0
   -2.0867   -3.0728    6.6631 H   0  0  0  0  0  0  0  0  0  0  0  0
   -0.2881   -1.5136    6.5189 H   0  0  0  0  0  0  0  0  0  0  0  0
    0.6277   -2.4984    7.4452 H   0  0  0  0  0  0  0  0  0  0  0  0
    4.0598   -1.7531    3.6685 H   0  0  0  0  0  0  0  0  0  0  0  0
    8.7148   -1.3088   -0.0472 H   0  0  0  0  0  0  0  0  0  0  0  0
    6.9973    0.3512    0.1825 H   0  0  0  0  0  0  0  0  0  0  0  0
    9.8053   -3.3106    0.7455 H   0  0  0  0  0  0  0  0  0  0  0  0
    9.9412   -5.0797    2.3504 H   0  0  0  0  0  0  0  0  0  0  0  0
    8.3835   -5.1960    4.1607 H   0  0  0  0  0  0  0  0  0  0  0  0
    6.6849   -3.5285    4.3613 H   0  0  0  0  0  0  0  0  0  0  0  0
    0.1409    0.8075    1.4742 H   0  0  0  0  0  0  0  0  0  0  0  0
    1.4742    0.1409    0.8075 H   0  0  0  0  0  0  0  0  0  0  0  0
    0.2333    2.5799   -0.1134 H   0  0  0  0  0  0  0  0  0  0  0  0
    1.5666    1.9133   -0.7801 H   0  0  0  0  0  0  0  0  0  0  0  0
   -0.4299   -0.0289   -0.8309 H   0  0  0  0  0  0  0  0  0  0  0  0
   -1.6067   -0.4211   -2.7924 H   0  0  0  0  0  0  0  0  0  0  0  0
   -2.2734    0.9122   -3.4590 H   0  0  0  0  0  0  0  0  0  0  0  0
   -0.9401    0.2455   -4.1257 H   0  0  0  0  0  0  0  0  0  0  0  0
  1  2  1  0  0  0  0
  2  3  2  0  0  0  0
  3  4  1  0  0  0  0
  4  5  2  0  0  0  0
  5  1  1  0  0  0  0
  5  6  1  0  0  0  0
  2  7  1  0  0  0  0
  7  8  1  0  0  0  0
  8  9  1  0  0  0  0
  9 10  2  0  0  0  0
 10 11  1  0  0  0  0
 11 12  2  0  0  0  0
 12 13  1  0  0  0  0
 13  9  1  0  0  0  0
 13 14  1  0  0  0  0
 14 15  1  0  0  0  0
 15 16  1  0  0  0  0
 16 17  2  0  0  0  0
 17 18  1  0  0  0  0
 18 19  1  0  0  0  0
 19 20  1  0  0  0  0
 20 21  1  0  0  0  0
 21 22  1  0  0  0  0
 22 23  1  0  0  0  0
 23 24  1  0  0  0  0
 24 19  1  0  0  0  0
 18 25  2  0  0  0  0
 25 26  1  0  0  0  0
 25 27  1  0  0  0  0
 27 15  2  0  0  0  0
 12 28  1  0  0  0  0
 28 29  1  0  0  0  0
 29 30  2  0  0  0  0
 30 31  1  0  0  0  0
 31 32  2  0  0  0  0
 32 33  1  0  0  0  0
 33 28  2  0  0  0  0
 31 34  1  0  0  0  0
 34 35  2  0  0  0  0
 35 36  1  0  0  0  0
 36 37  2  0  0  0  0
 37 30  1  0  0  0  0
  8 38  1  0  0  0  0
 38 39  1  0  0  0  0
 39 40  1  0  0  0  0
 40 41  1  0  0  0  0
 41 42  2  0  0  0  0
 41 43  1  0  0  0  0
  3 44  1  0  0  0  0
  4 45  1  0  0  0  0
  6 46  1  0  0  0  0
  6 47  1  0  0  0  0
  6 48  1  0  0  0  0
  7 49  1  0  0  0  0
  7 50  1  0  0  0  0
 14 51  1  0  0  0  0
 14 52  1  0  0  0  0
 16 53  1  0  0  0  0
 20 54  1  0  0  0  0
 20 55  1  0  0  0  0
 21 56  1  0  0  0  0
 21 57  1  0  0  0  0
 23 58  1  0  0  0  0
 23 59  1  0  0  0  0
 24 60  1  0  0  0  0
 24 61  1  0  0  0  0
 27 62  1  0  0  0  0
 32 63  1  0  0  0  0
 33 64  1  0  0  0  0
 34 65  1  0  0  0  0
 35 66  1  0  0  0  0
 36 67  1  0  0  0  0
 37 68  1  0  0  0  0
 38 69  1  0  0  0  0
 38 70  1  0  0  0  0
 39 71  1  0  0  0  0
 39 72  1  0  0  0  0
 40 73  1  0  0  0  0
 43 74  1  0  0  0  0
 43 75  1  0  0  0  0
 43 76  1  0  0  0  0
M  END
>  <result-rank>
79

>  <similarity>
0.868

>  <query-name>


>  <query-smiles>
S(=O)(=O)(NC(=O)C)c1ccc(cc1)C=2N3N=CC=C(N4CCOCC4)C3=NC2/C=C/c5nc6c(cc5)cccc6

>  <source>
REALspace_2019-12

>  <similarity-descriptor>
0.794;1.000;0.797;0.864;0.935;1.000;0.471;0.471;1.000;1.000;0.797;0.935;0.067

>  <similarity-descriptor-smiles>
S1C=CC=C1CNC;N1CCOCC1;C=1NC=NN1;Cc1cc(cnc1)F;c1ccccn1;c1ccccc1;CN;CN;C=O;C;C=1NC=NN1;c1ccccn1;C

>  <reaction-name>
m_273170

>  <reagent1-name>
10759452

>  <reagent1-smiles>
[R2*]=C([R1*])N([R3*])Cc1cnc(N2CCOCC2)c(F)c1

>  <reagent2-name>
10766420

>  <reagent2-smiles>
[R1*]N(CC=1SC(=CC1)C)CCNC(=O)C

>  <reagent3-name>
10755784

>  <reagent3-smiles>
[R2*]=NN=C([R3*])c1nc2c(cc1)cccc2

$$$$
m_273170____10757336____10763944____10766638
          04022017323D 1   1.00000     0.00000     0
            
 73 78  0  0  0  0            999 V2000
    6.5283    2.9656    7.1408 S   0  0  0  0  0  0  0  0  0  0  0  0
    6.9318    3.4115    5.5486 C   0  0  0  0  0  0  0  0  0  0  0  0
    6.7239    2.3530    4.8063 N   0  0  0  0  0  0  0  0  0  0  0  0
    6.2610    1.2463    5.4671 C   0  0  0  0  0  0  0  0  0  0  0  0
    5.9674   -0.0199    4.8436 C   0  0  0  0  0  0  0  0  0  0  0  0
    5.8822   -1.1807    5.4535 N   0  0  0  0  0  0  0  0  0  0  0  0
    5.6002   -2.0920    4.5493 N   0  0  0  0  0  0  0  0  0  0  0  0
    5.4966   -1.5614    3.3559 C   0  0  0  0  0  0  0  0  0  0  0  0
    5.7285   -0.2335    3.5223 N   0  0  0  0  0  0  0  0  0  0  0  0
    5.7226    0.7865    2.4629 C   0  0  0  0  0  0  0  0  0  0  0  0
    4.3954    1.5271    2.4800 C   0  0  0  0  0  0  0  0  0  0  0  0
    4.3927    2.9183    2.4838 C   0  0  0  0  0  0  0  0  0  0  0  0
    3.1767    3.5941    2.4993 C   0  0  0  0  0  0  0  0  0  0  0  0
    1.9840    2.8787    2.5100 C   0  0  0  0  0  0  0  0  0  0  0  0
    0.7615    3.5615    2.5249 N   0  0  0  0  0  0  0  0  0  0  0  0
   -0.5009    2.8084    2.5362 C   0  0  0  0  0  0  0  0  0  0  0  0
   -0.9208    2.5449    3.9731 C   0  0  0  0  0  0  0  0  0  0  0  0
   -2.1403    1.8174    3.9840 O   0  0  0  0  0  0  0  0  0  0  0  0
   -2.5325    1.5712    5.3263 C   0  0  0  0  0  0  0  0  0  0  0  0
    1.9898    1.4877    2.5058 C   0  0  0  0  0  0  0  0  0  0  0  0
    3.2040    0.8092    2.4905 C   0  0  0  0  0  0  0  0  0  0  0  0
    5.2032   -2.2273    2.1580 N   0  0  0  0  0  0  0  0  0  0  0  0
    5.5450   -1.6072    0.8697 C   0  0  0  0  0  0  0  0  0  0  0  0
    6.8959   -2.1222    0.4022 C   0  0  0  0  0  0  0  0  0  0  0  0
    7.0869   -3.0628   -0.4888 O   0  0  0  0  0  0  0  0  0  0  0  0
    8.3751   -3.2805   -0.6672 C   0  0  0  0  0  0  0  0  0  0  0  0
    9.0892   -2.4364    0.1423 C   0  0  0  0  0  0  0  0  0  0  0  0
   10.4833   -2.4664    0.1151 C   0  0  0  0  0  0  0  0  0  0  0  0
   11.1689   -3.3472   -0.7165 C   0  0  0  0  0  0  0  0  0  0  0  0
   10.4411   -4.2065   -1.5325 C   0  0  0  0  0  0  0  0  0  0  0  0
    9.0514   -4.1652   -1.5014 C   0  0  0  0  0  0  0  0  0  0  0  0
    8.1131   -1.6846    0.8365 C   0  0  0  0  0  0  0  0  0  0  0  0
    4.5538   -3.5456    2.1899 C   0  0  0  0  0  0  0  0  0  0  0  0
    6.0723    1.3589    6.8075 C   0  0  0  0  0  0  0  0  0  0  0  0
    7.4003    4.6613    5.1319 N   0  0  0  0  0  0  0  0  0  0  0  0
    7.0486    5.1491    3.7891 C   0  0  0  0  0  0  0  0  0  0  0  0
    6.9054    6.6632    3.7794 C   0  0  0  0  0  0  0  0  0  0  0  0
    7.9831    7.2921    4.4613 O   0  0  0  0  0  0  0  0  0  0  0  0
    7.9707    6.9538    5.8420 C   0  0  0  0  0  0  0  0  0  0  0  0
    8.2131    5.4674    6.0555 C   0  0  0  0  0  0  0  0  0  0  0  0
    5.8464    0.3449    1.5742 H   0  0  0  0  0  0  0  0  0  0  0  0
    6.4679    1.4345    2.6198 H   0  0  0  0  0  0  0  0  0  0  0  0
    5.2541    3.4262    2.4754 H   0  0  0  0  0  0  0  0  0  0  0  0
    3.1602    4.5940    2.5029 H   0  0  0  0  0  0  0  0  0  0  0  0
    0.7473    4.5614    2.5279 H   0  0  0  0  0  0  0  0  0  0  0  0
   -0.3739    1.9378    2.0609 H   0  0  0  0  0  0  0  0  0  0  0  0
   -1.2104    3.3402    2.0738 H   0  0  0  0  0  0  0  0  0  0  0  0
   -0.2113    2.0131    4.4355 H   0  0  0  0  0  0  0  0  0  0  0  0
   -1.0478    3.4155    4.4483 H   0  0  0  0  0  0  0  0  0  0  0  0
   -3.3913    1.0589    5.3340 H   0  0  0  0  0  0  0  0  0  0  0  0
   -1.8230    1.0394    5.7887 H   0  0  0  0  0  0  0  0  0  0  0  0
   -2.6595    2.4418    5.8015 H   0  0  0  0  0  0  0  0  0  0  0  0
    1.1284    0.9798    2.5138 H   0  0  0  0  0  0  0  0  0  0  0  0
    3.2204   -0.1906    2.4871 H   0  0  0  0  0  0  0  0  0  0  0  0
    5.5863   -0.6140    0.9783 H   0  0  0  0  0  0  0  0  0  0  0  0
    4.8470   -1.8397    0.1923 H   0  0  0  0  0  0  0  0  0  0  0  0
   10.9994   -1.8440    0.7035 H   0  0  0  0  0  0  0  0  0  0  0  0
   12.1688   -3.3619   -0.7270 H   0  0  0  0  0  0  0  0  0  0  0  0
   10.9130   -4.8487   -2.1365 H   0  0  0  0  0  0  0  0  0  0  0  0
    8.5287   -4.7825   -2.0893 H   0  0  0  0  0  0  0  0  0  0  0  0
    8.2824   -0.9698    1.5151 H   0  0  0  0  0  0  0  0  0  0  0  0
    4.4191   -3.8736    1.2548 H   0  0  0  0  0  0  0  0  0  0  0  0
    5.1326   -4.1904    2.6891 H   0  0  0  0  0  0  0  0  0  0  0  0
    3.6678   -3.4698    2.6473 H   0  0  0  0  0  0  0  0  0  0  0  0
    5.7438    0.6635    7.4467 H   0  0  0  0  0  0  0  0  0  0  0  0
    6.1820    4.7368    3.5080 H   0  0  0  0  0  0  0  0  0  0  0  0
    7.7676    4.8845    3.1464 H   0  0  0  0  0  0  0  0  0  0  0  0
    6.8899    6.9822    2.8318 H   0  0  0  0  0  0  0  0  0  0  0  0
    6.0473    6.9115    4.2288 H   0  0  0  0  0  0  0  0  0  0  0  0
    7.0805    7.1963    6.2277 H   0  0  0  0  0  0  0  0  0  0  0  0
    8.6883    7.4702    6.3092 H   0  0  0  0  0  0  0  0  0  0  0  0
    9.1804    5.2681    5.8985 H   0  0  0  0  0  0  0  0  0  0  0  0
    7.9720    5.2288    6.9962 H   0  0  0  0  0  0  0  0  0  0  0  0
  1  2  1  0  0  0  0
  2  3  2  0  0  0  0
  3  4  1  0  0  0  0
  4  5  1  0  0  0  0
  5  6  2  0  0  0  0
  6  7  1  0  0  0  0
  7  8  2  0  0  0  0
  8  9  1  0  0  0  0
  9  5  1  0  0  0  0
  9 10  1  0  0  0  0
 10 11  1  0  0  0  0
 11 12  1  0  0  0  0
 12 13  2  0  0  0  0
 13 14  1  0  0  0  0
 14 15  1  0  0  0  0
 15 16  1  0  0  0  0
 16 17  1  0  0  0  0
 17 18  1  0  0  0  0
 18 19  1  0  0  0  0
 14 20  2  0  0  0  0
 20 21  1  0  0  0  0
 21 11  2  0  0  0  0
  8 22  1  0  0  0  0
 22 23  1  0  0  0  0
 23 24  1  0  0  0  0
 24 25  1  0  0  0  0
 25 26  1  0  0  0  0
 26 27  1  0  0  0  0
 27 28  2  0  0  0  0
 28 29  1  0  0  0  0
 29 30  2  0  0  0  0
 30 31  1  0  0  0  0
 31 26  2  0  0  0  0
 27 32  1  0  0  0  0
 24 32  2  0  0  0  0
 22 33  1  0  0  0  0
  4 34  2  0  0  0  0
 34  1  1  0  0  0  0
  2 35  1  0  0  0  0
 35 36  1  0  0  0  0
 36 37  1  0  0  0  0
 37 38  1  0  0  0  0
 38 39  1  0  0  0  0
 39 40  1  0  0  0  0
 40 35  1  0  0  0  0
 10 41  1  0  0  0  0
 10 42  1  0  0  0  0
 12 43  1  0  0  0  0
 13 44  1  0  0  0  0
 15 45  1  0  0  0  0
 16 46  1  0  0  0  0
 16 47  1  0  0  0  0
 17 48  1  0  0  0  0
 17 49  1  0  0  0  0
 19 50  1  0  0  0  0
 19 51  1  0  0  0  0
 19 52  1  0  0  0  0
 20 53  1  0  0  0  0
 21 54  1  0  0  0  0
 23 55  1  0  0  0  0
 23 56  1  0  0  0  0
 28 57  1  0  0  0  0
 29 58  1  0  0  0  0
 30 59  1  0  0  0  0
 31 60  1  0  0  0  0
 32 61  1  0  0  0  0
 33 62  1  0  0  0  0
 33 63  1  0  0  0  0
 33 64  1  0  0  0  0
 34 65  1  0  0  0  0
 36 66  1  0  0  0  0
 36 67  1  0  0  0  0
 37 68  1  0  0  0  0
 37 69  1  0  0  0  0
 39 70  1  0  0  0  0
 39 71  1  0  0  0  0
 40 72  1  0  0  0  0
 40 73  1  0  0  0  0
M  END
>  <result-rank>
80

>  <similarity>
0.868

>  <query-name>


>  <query-smiles>
S(=O)(=O)(NC(=O)C)c1ccc(cc1)C=2N3N=CC=C(N4CCOCC4)C3=NC2/C=C/c5nc6c(cc5)cccc6

>  <source>
REALspace_2019-12

>  <similarity-descriptor>
0.935;1.000;0.797;0.961;0.893;0.999;0.473;0.473;0.770;0.994;0.797;0.132;0.067

>  <similarity-descriptor-smiles>
Cc1ccccc1;N1CCOCC1;C=1NC=NN1;S1C=CN=C1;CC1=CccO1;c1ccccc1;NC;NC;CO;C;C=1NC=NN1;N;C

>  <reaction-name>
m_273170

>  <reagent1-name>
10757336

>  <reagent1-smiles>
[R2*]=C([R1*])N([R3*])Cc1ccc(NCCOC)cc1

>  <reagent2-name>
10763944

>  <reagent2-smiles>
[R1*]N(CC=1Oc2c(cccc2)C1)C

>  <reagent3-name>
10766638

>  <reagent3-smiles>
[R2*]=NN=C([R3*])C=1N=C(SC1)N2CCOCC2

$$$$
m_273170____10756154____10760394____10766692
          04022017323D 1   1.00000     0.00000     0
            
 75 80  0  0  0  0            999 V2000
    3.9585    0.2458    1.1826 S   0  0  0  0  0  0  0  0  0  0  0  0
    5.2980    0.0463    1.6720 O   0  0  0  0  0  0  0  0  0  0  0  0
    3.1778   -0.9400    1.4236 O   0  0  0  0  0  0  0  0  0  0  0  0
    4.0045    0.5500   -0.4181 N   0  0  0  0  0  0  0  0  0  0  0  0
    4.8015    1.7604   -0.6641 C   0  0  0  0  0  0  0  0  0  0  0  0
    4.6165   -0.5899   -1.1161 C   0  0  0  0  0  0  0  0  0  0  0  0
    3.2341    1.5952    2.0089 C   0  0  0  0  0  0  0  0  0  0  0  0
    1.8777    1.8777    1.8777 C   0  0  0  0  0  0  0  0  0  0  0  0
    1.3249    2.9632    2.5494 C   0  0  0  0  0  0  0  0  0  0  0  0
    2.1281    3.7663    3.3526 C   0  0  0  0  0  0  0  0  0  0  0  0
    3.4825    3.4748    3.4770 C   0  0  0  0  0  0  0  0  0  0  0  0
    4.0457    2.3919    2.8095 C   0  0  0  0  0  0  0  0  0  0  0  0
    1.0000    1.0000    1.0000 C   0  0  0  0  0  0  0  0  0  0  0  0
   -0.3812    1.5041    1.0281 N   0  0  0  0  0  0  0  0  0  0  0  0
   -1.4425    0.8978    1.6207 C   0  0  0  0  0  0  0  0  0  0  0  0
   -2.4671    1.6852    1.4050 N   0  0  0  0  0  0  0  0  0  0  0  0
   -2.1154    2.7469    0.7144 N   0  0  0  0  0  0  0  0  0  0  0  0
   -0.8277    2.6596    0.4678 C   0  0  0  0  0  0  0  0  0  0  0  0
   -0.0324    3.6239   -0.2687 C   0  0  0  0  0  0  0  0  0  0  0  0
    0.4759    5.1495    0.2796 S   0  0  0  0  0  0  0  0  0  0  0  0
    1.3164    5.6164   -1.1230 C   0  0  0  0  0  0  0  0  0  0  0  0
    2.0115    6.8776   -1.2937 C   0  0  0  0  0  0  0  0  0  0  0  0
    2.6628    7.1382   -2.4948 C   0  0  0  0  0  0  0  0  0  0  0  0
    3.3339    8.3434   -2.6750 C   0  0  0  0  0  0  0  0  0  0  0  0
    3.3442    9.2749   -1.6425 C   0  0  0  0  0  0  0  0  0  0  0  0
    3.9820   10.4307   -1.8019 F   0  0  0  0  0  0  0  0  0  0  0  0
    2.6935    9.0143   -0.4415 C   0  0  0  0  0  0  0  0  0  0  0  0
    2.0224    7.8098   -0.2609 C   0  0  0  0  0  0  0  0  0  0  0  0
    1.2006    4.5982   -2.0242 C   0  0  0  0  0  0  0  0  0  0  0  0
    0.4507    3.4933   -1.5358 C   0  0  0  0  0  0  0  0  0  0  0  0
   -1.4441   -0.3195    2.3155 N   0  0  0  0  0  0  0  0  0  0  0  0
   -1.6923   -1.5767    1.5952 C   0  0  0  0  0  0  0  0  0  0  0  0
   -0.9547   -2.7130    2.2890 C   0  0  0  0  0  0  0  0  0  0  0  0
   -1.5868   -3.6858    3.5331 S   0  0  0  0  0  0  0  0  0  0  0  0
   -0.2173   -4.6687    3.7727 C   0  0  0  0  0  0  0  0  0  0  0  0
    0.7054   -4.2275    2.8723 C   0  0  0  0  0  0  0  0  0  0  0  0
    0.3107   -3.1444    2.0389 C   0  0  0  0  0  0  0  0  0  0  0  0
   -1.1977   -0.3390    3.7646 C   0  0  0  0  0  0  0  0  0  0  0  0
   -2.5217   -0.4560    4.5021 C   0  0  3  0  0  0  0  0  0  0  0  0
   -3.3632    0.6430    4.1937 O   0  0  0  0  0  0  0  0  0  0  0  0
   -4.3253    0.6718    5.2273 C   0  0  0  0  0  0  0  0  0  0  0  0
   -3.5246    0.4202    6.4890 C   0  0  0  0  0  0  0  0  0  0  0  0
   -2.2983   -0.3204    5.9950 C   0  0  0  0  0  0  0  0  0  0  0  0
    4.8297    1.9471   -1.6462 H   0  0  0  0  0  0  0  0  0  0  0  0
    4.3852    2.5358   -0.1893 H   0  0  0  0  0  0  0  0  0  0  0  0
    5.7317    1.6219   -0.3243 H   0  0  0  0  0  0  0  0  0  0  0  0
    4.6447   -0.4033   -2.0981 H   0  0  0  0  0  0  0  0  0  0  0  0
    5.5467   -0.7284   -0.7762 H   0  0  0  0  0  0  0  0  0  0  0  0
    4.0744   -1.4133   -0.9487 H   0  0  0  0  0  0  0  0  0  0  0  0
    0.3503    3.1662    2.4549 H   0  0  0  0  0  0  0  0  0  0  0  0
    1.7346    4.5476    3.8371 H   0  0  0  0  0  0  0  0  0  0  0  0
    4.0598    4.0520    4.0546 H   0  0  0  0  0  0  0  0  0  0  0  0
    5.0203    2.1891    2.9040 H   0  0  0  0  0  0  0  0  0  0  0  0
    1.3428    1.0191    0.0608 H   0  0  0  0  0  0  0  0  0  0  0  0
    1.0191    0.0608    1.3428 H   0  0  0  0  0  0  0  0  0  0  0  0
    2.6485    6.4592   -3.2289 H   0  0  0  0  0  0  0  0  0  0  0  0
    3.8033    8.5375   -3.5364 H   0  0  0  0  0  0  0  0  0  0  0  0
    2.7082    9.6933    0.2925 H   0  0  0  0  0  0  0  0  0  0  0  0
    1.5533    7.6161    0.6008 H   0  0  0  0  0  0  0  0  0  0  0  0
    1.6038    4.6265   -2.9388 H   0  0  0  0  0  0  0  0  0  0  0  0
    0.2886    2.6743   -2.0863 H   0  0  0  0  0  0  0  0  0  0  0  0
   -1.3646   -1.4920    0.6542 H   0  0  0  0  0  0  0  0  0  0  0  0
   -2.6734   -1.7700    1.5904 H   0  0  0  0  0  0  0  0  0  0  0  0
   -0.1124   -5.4118    4.4336 H   0  0  0  0  0  0  0  0  0  0  0  0
    1.6122   -4.6431    2.8011 H   0  0  0  0  0  0  0  0  0  0  0  0
    0.9027   -2.7415    1.3409 H   0  0  0  0  0  0  0  0  0  0  0  0
   -0.7386    0.5069    4.0360 H   0  0  0  0  0  0  0  0  0  0  0  0
   -0.6183   -1.1211    3.9937 H   0  0  0  0  0  0  0  0  0  0  0  0
   -2.9736   -1.3217    4.2870 H   0  0  0  0  0  0  0  0  0  0  0  0
   -5.0106   -0.0441    5.0938 H   0  0  0  0  0  0  0  0  0  0  0  0
   -4.7774    1.5629    5.2662 H   0  0  0  0  0  0  0  0  0  0  0  0
   -4.0434   -0.1400    7.1348 H   0  0  0  0  0  0  0  0  0  0  0  0
   -3.2684    1.2822    6.9264 H   0  0  0  0  0  0  0  0  0  0  0  0
   -1.4677    0.2038    6.1831 H   0  0  0  0  0  0  0  0  0  0  0  0
   -2.2295   -1.2199    6.4265 H   0  0  0  0  0  0  0  0  0  0  0  0
  1  2  2  0  0  0  0
  1  3  2  0  0  0  0
  1  4  1  0  0  0  0
  4  5  1  0  0  0  0
  4  6  1  0  0  0  0
  1  7  1  0  0  0  0
  7  8  1  0  0  0  0
  8  9  2  0  0  0  0
  9 10  1  0  0  0  0
 10 11  2  0  0  0  0
 11 12  1  0  0  0  0
 12  7  2  0  0  0  0
  8 13  1  0  0  0  0
 13 14  1  0  0  0  0
 14 15  1  0  0  0  0
 15 16  2  0  0  0  0
 16 17  1  0  0  0  0
 17 18  2  0  0  0  0
 18 14  1  0  0  0  0
 18 19  1  0  0  0  0
 19 20  1  0  0  0  0
 20 21  1  0  0  0  0
 21 22  1  0  0  0  0
 22 23  1  0  0  0  0
 23 24  2  0  0  0  0
 24 25  1  0  0  0  0
 25 26  1  0  0  0  0
 25 27  2  0  0  0  0
 27 28  1  0  0  0  0
 28 22  2  0  0  0  0
 21 29  2  0  0  0  0
 29 30  1  0  0  0  0
 19 30  2  0  0  0  0
 15 31  1  0  0  0  0
 31 32  1  0  0  0  0
 32 33  1  0  0  0  0
 33 34  1  0  0  0  0
 34 35  1  0  0  0  0
 35 36  2  0  0  0  0
 36 37  1  0  0  0  0
 33 37  2  0  0  0  0
 31 38  1  0  0  0  0
 38 39  1  0  0  0  0
 39 40  1  0  0  0  0
 40 41  1  0  0  0  0
 41 42  1  0  0  0  0
 42 43  1  0  0  0  0
 43 39  1  0  0  0  0
  5 44  1  0  0  0  0
  5 45  1  0  0  0  0
  5 46  1  0  0  0  0
  6 47  1  0  0  0  0
  6 48  1  0  0  0  0
  6 49  1  0  0  0  0
  9 50  1  0  0  0  0
 10 51  1  0  0  0  0
 11 52  1  0  0  0  0
 12 53  1  0  0  0  0
 13 54  1  0  0  0  0
 13 55  1  0  0  0  0
 23 56  1  0  0  0  0
 24 57  1  0  0  0  0
 27 58  1  0  0  0  0
 28 59  1  0  0  0  0
 29 60  1  0  0  0  0
 30 61  1  0  0  0  0
 32 62  1  0  0  0  0
 32 63  1  0  0  0  0
 35 64  1  0  0  0  0
 36 65  1  0  0  0  0
 37 66  1  0  0  0  0
 38 67  1  0  0  0  0
 38 68  1  0  0  0  0
 39 69  1  0  0  0  0
 41 70  1  0  0  0  0
 41 71  1  0  0  0  0
 42 72  1  0  0  0  0
 42 73  1  0  0  0  0
 43 74  1  0  0  0  0
 43 75  1  0  0  0  0
M  END
>  <result-rank>
81

>  <similarity>
0.868

>  <query-name>


>  <query-smiles>
S(=O)(=O)(NC(=O)C)c1ccc(cc1)C=2N3N=CC=C(N4CCOCC4)C3=NC2/C=C/c5nc6c(cc5)cccc6

>  <source>
REALspace_2019-12

>  <similarity-descriptor>
0.936;0.956;0.797;0.729;0.860;0.966;1.000;0.528;0.528;0.995;0.797;0.860;0.0

>  <similarity-descriptor-smiles>
c1ccccc1C;CC1CCCO1;N1C=NN=C1;NCC1=CC=CS1;C1=CC=CS1;c1ccc(cc1)F;S(=O)=O;NC;NC;C;N1C=NN=C1;C1=CC=CS1;

>  <reaction-name>
m_273170

>  <reagent1-name>
10756154

>  <reagent1-smiles>
[R2*]=C([R1*])N([R3*])Cc1c(S(=O)(=O)N(C)C)cccc1

>  <reagent2-name>
10760394

>  <reagent2-smiles>
[R1*]N(CC=1SC=CC1)CC2OCCC2

>  <reagent3-name>
10766692

>  <reagent3-smiles>
[R2*]=NN=C([R3*])C=1SC(c2ccc(F)cc2)=CC1

$$$$
s_2____2677704____8992042____6673176
          04022017323D 1   1.00000     0.00000     0
            
 78 83  0  0  0  0            999 V2000
    1.1987    3.7706    7.5169 S   0  0  0  0  0  0  0  0  0  0  0  0
    2.2350    2.4264    7.6596 C   0  0  0  0  0  0  0  0  0  0  0  0
    2.5590    1.8240    8.7329 N   0  0  0  0  0  0  0  0  0  0  0  0
    1.7643    1.9575    9.8780 C   0  0  0  0  0  0  0  0  0  0  0  0
    2.0643    2.8935   10.8629 C   0  0  0  0  0  0  0  0  0  0  0  0
    3.2203    3.7567   10.7154 C   0  0  0  0  0  0  0  0  0  0  0  0
    3.0784    5.0010   10.1099 C   0  0  0  0  0  0  0  0  0  0  0  0
    4.1901    5.8254    9.9696 C   0  0  0  0  0  0  0  0  0  0  0  0
    5.4315    5.4041   10.4343 C   0  0  0  0  0  0  0  0  0  0  0  0
    5.5613    4.1594   11.0378 C   0  0  0  0  0  0  0  0  0  0  0  0
    4.4575    3.3255   11.1835 C   0  0  0  0  0  0  0  0  0  0  0  0
    1.2546    3.0017   11.9891 C   0  0  0  0  0  0  0  0  0  0  0  0
    0.1464    2.1732   12.1311 C   0  0  0  0  0  0  0  0  0  0  0  0
   -0.1532    1.2374   11.1464 C   0  0  0  0  0  0  0  0  0  0  0  0
    0.6560    1.1298   10.0198 C   0  0  0  0  0  0  0  0  0  0  0  0
    2.6422    2.1276    6.3971 N   0  0  0  0  0  0  0  0  0  0  0  0
    2.1271    2.9443    5.4304 C   0  0  0  0  0  0  0  0  0  0  0  0
    2.4157    2.8122    4.0173 C   0  0  0  0  0  0  0  0  0  0  0  0
    1.5988    2.0031    3.2346 C   0  0  0  0  0  0  0  0  0  0  0  0
    1.8778    1.8778    1.8778 C   0  0  0  0  0  0  0  0  0  0  0  0
    2.9566    2.5528    1.3156 C   0  0  0  0  0  0  0  0  0  0  0  0
    3.2171    2.4281    0.0176 F   0  0  0  0  0  0  0  0  0  0  0  0
    3.7687    3.3605    2.1048 C   0  0  0  0  0  0  0  0  0  0  0  0
    3.4961    3.4900    3.4628 C   0  0  0  0  0  0  0  0  0  0  0  0
    1.0000    1.0000    1.0000 C   0  0  0  0  0  0  0  0  0  0  0  0
   -0.4295    1.5152    1.0367 C   0  0  0  0  0  0  0  0  0  0  0  0
   -1.2782    0.6665    0.1880 N   0  0  0  0  0  0  0  0  0  0  0  0
   -2.6151    0.9398    0.0651 C   0  0  0  0  0  0  0  0  0  0  0  0
   -3.0932    1.8720    0.6503 O   0  0  0  0  0  0  0  0  0  0  0  0
   -3.4926    0.0622   -0.8125 C   0  0  0  0  0  0  0  0  0  0  0  0
    1.2901    3.9442    5.8224 C   0  0  0  0  0  0  0  0  0  0  0  0
    3.5551    1.0040    6.1428 C   0  0  0  0  0  0  0  0  0  0  0  0
    2.7994   -0.3081    6.2956 C   0  0  0  0  0  0  0  0  0  0  0  0
    2.1686   -0.9033    5.2675 N   0  0  0  0  0  0  0  0  0  0  0  0
    1.4966   -2.0621    5.3915 C   0  0  0  0  0  0  0  0  0  0  0  0
    0.8447   -2.6710    4.3126 N   0  0  0  0  0  0  0  0  0  0  0  0
    0.1302   -3.9390    4.5279 C   0  0  0  0  0  0  0  0  0  0  0  0
   -1.0879   -4.0387    3.6226 C   0  0  0  0  0  0  0  0  0  0  0  0
   -0.7760   -3.6621    2.2875 O   0  0  0  0  0  0  0  0  0  0  0  0
   -0.4112   -2.2895    2.2241 C   0  0  0  0  0  0  0  0  0  0  0  0
    0.8704   -2.0155    2.9962 C   0  0  0  0  0  0  0  0  0  0  0  0
    1.4386   -2.6916    6.6307 C   0  0  0  0  0  0  0  0  0  0  0  0
    2.0802   -2.1032    7.7162 C   0  0  0  0  0  0  0  0  0  0  0  0
    2.7659   -0.9039    7.5524 C   0  0  0  0  0  0  0  0  0  0  0  0
    2.1840    5.3006    9.7780 H   0  0  0  0  0  0  0  0  0  0  0  0
    4.0966    6.7210    9.5346 H   0  0  0  0  0  0  0  0  0  0  0  0
    6.2306    5.9970   10.3340 H   0  0  0  0  0  0  0  0  0  0  0  0
    6.4558    3.8604   11.3703 H   0  0  0  0  0  0  0  0  0  0  0  0
    4.5518    2.4298   11.6180 H   0  0  0  0  0  0  0  0  0  0  0  0
    1.4693    3.6752   12.6964 H   0  0  0  0  0  0  0  0  0  0  0  0
   -0.4350    2.2502   12.9411 H   0  0  0  0  0  0  0  0  0  0  0  0
   -0.9502    0.6421   11.2483 H   0  0  0  0  0  0  0  0  0  0  0  0
    0.4406    0.4571    9.3120 H   0  0  0  0  0  0  0  0  0  0  0  0
    0.8236    1.5193    3.6408 H   0  0  0  0  0  0  0  0  0  0  0  0
    4.5436    3.8449    1.6986 H   0  0  0  0  0  0  0  0  0  0  0  0
    4.0747    4.0682    4.0380 H   0  0  0  0  0  0  0  0  0  0  0  0
    1.0242    0.0595    1.3390 H   0  0  0  0  0  0  0  0  0  0  0  0
    1.3390    1.0242    0.0595 H   0  0  0  0  0  0  0  0  0  0  0  0
   -0.7685    1.4911    1.9772 H   0  0  0  0  0  0  0  0  0  0  0  0
   -0.4537    2.4557    0.6977 H   0  0  0  0  0  0  0  0  0  0  0  0
   -0.8798   -0.1103   -0.2996 H   0  0  0  0  0  0  0  0  0  0  0  0
   -2.9371   -0.6616   -1.2215 H   0  0  0  0  0  0  0  0  0  0  0  0
   -4.2165   -0.3468   -0.2569 H   0  0  0  0  0  0  0  0  0  0  0  0
   -3.9017    0.6178   -1.5363 H   0  0  0  0  0  0  0  0  0  0  0  0
    0.8337    4.6242    5.2486 H   0  0  0  0  0  0  0  0  0  0  0  0
    4.3095    1.0325    6.7986 H   0  0  0  0  0  0  0  0  0  0  0  0
    3.9182    1.0733    5.2137 H   0  0  0  0  0  0  0  0  0  0  0  0
   -0.1661   -3.9895    5.4816 H   0  0  0  0  0  0  0  0  0  0  0  0
    0.7479   -4.7001    4.3300 H   0  0  0  0  0  0  0  0  0  0  0  0
   -1.4185   -4.9825    3.6254 H   0  0  0  0  0  0  0  0  0  0  0  0
   -1.8032   -3.4338    3.9724 H   0  0  0  0  0  0  0  0  0  0  0  0
   -1.1493   -1.7391    2.6142 H   0  0  0  0  0  0  0  0  0  0  0  0
   -0.2747   -2.0338    1.2671 H   0  0  0  0  0  0  0  0  0  0  0  0
    1.6480   -2.3639    2.4728 H   0  0  0  0  0  0  0  0  0  0  0  0
    0.9701   -1.0288    3.1243 H   0  0  0  0  0  0  0  0  0  0  0  0
    0.9434   -3.5535    6.7397 H   0  0  0  0  0  0  0  0  0  0  0  0
    2.0485   -2.5424    8.6140 H   0  0  0  0  0  0  0  0  0  0  0  0
    3.2288   -0.4754    8.3283 H   0  0  0  0  0  0  0  0  0  0  0  0
  1  2  1  0  0  0  0
  2  3  2  0  0  0  0
  3  4  1  0  0  0  0
  4  5  1  0  0  0  0
  5  6  1  0  0  0  0
  6  7  1  0  0  0  0
  7  8  2  0  0  0  0
  8  9  1  0  0  0  0
  9 10  2  0  0  0  0
 10 11  1  0  0  0  0
 11  6  2  0  0  0  0
  5 12  2  0  0  0  0
 12 13  1  0  0  0  0
 13 14  2  0  0  0  0
 14 15  1  0  0  0  0
 15  4  2  0  0  0  0
  2 16  1  0  0  0  0
 16 17  1  0  0  0  0
 17 18  1  0  0  0  0
 18 19  1  0  0  0  0
 19 20  2  0  0  0  0
 20 21  1  0  0  0  0
 21 22  1  0  0  0  0
 21 23  2  0  0  0  0
 23 24  1  0  0  0  0
 24 18  2  0  0  0  0
 20 25  1  0  0  0  0
 25 26  1  0  0  0  0
 26 27  1  0  0  0  0
 27 28  1  0  0  0  0
 28 29  2  0  0  0  0
 28 30  1  0  0  0  0
 17 31  2  0  0  0  0
 31  1  1  0  0  0  0
 16 32  1  0  0  0  0
 32 33  1  0  0  0  0
 33 34  1  0  0  0  0
 34 35  2  0  0  0  0
 35 36  1  0  0  0  0
 36 37  1  0  0  0  0
 37 38  1  0  0  0  0
 38 39  1  0  0  0  0
 39 40  1  0  0  0  0
 40 41  1  0  0  0  0
 41 36  1  0  0  0  0
 35 42  1  0  0  0  0
 42 43  2  0  0  0  0
 43 44  1  0  0  0  0
 44 33  2  0  0  0  0
  7 45  1  0  0  0  0
  8 46  1  0  0  0  0
  9 47  1  0  0  0  0
 10 48  1  0  0  0  0
 11 49  1  0  0  0  0
 12 50  1  0  0  0  0
 13 51  1  0  0  0  0
 14 52  1  0  0  0  0
 15 53  1  0  0  0  0
 19 54  1  0  0  0  0
 23 55  1  0  0  0  0
 24 56  1  0  0  0  0
 25 57  1  0  0  0  0
 25 58  1  0  0  0  0
 26 59  1  0  0  0  0
 26 60  1  0  0  0  0
 27 61  1  0  0  0  0
 30 62  1  0  0  0  0
 30 63  1  0  0  0  0
 30 64  1  0  0  0  0
 31 65  1  0  0  0  0
 32 66  1  0  0  0  0
 32 67  1  0  0  0  0
 37 68  1  0  0  0  0
 37 69  1  0  0  0  0
 38 70  1  0  0  0  0
 38 71  1  0  0  0  0
 40 72  1  0  0  0  0
 40 73  1  0  0  0  0
 41 74  1  0  0  0  0
 41 75  1  0  0  0  0
 42 76  1  0  0  0  0
 43 77  1  0  0  0  0
 44 78  1  0  0  0  0
M  END
>  <result-rank>
82

>  <similarity>
0.868

>  <query-name>


>  <query-smiles>
S(=O)(=O)(NC(=O)C)c1ccc(cc1)C=2N3N=CC=C(N4CCOCC4)C3=NC2/C=C/c5nc6c(cc5)cccc6

>  <source>
REALspace_2019-12

>  <similarity-descriptor>
0.903;1.000;0.822;0.842;0.825;0.942;0.471;0.471;1.000;1.000;0.825;0.825;0.0

>  <similarity-descriptor-smiles>
c1ccc(c(c1)C)F;N1CCOCC1;S1C=CNC1=N;Cc1ccccn1;c1ccccc1;c1ccccc1;CN;CN;C=O;C;c1ccccc1;c1ccccc1;

>  <reaction-name>
s_2

>  <reagent1-name>
2677704

>  <reagent1-smiles>
[R1*]SC([R3*])=Nc1c(c2ccccc2)cccc1

>  <reagent2-name>
8992042

>  <reagent2-smiles>
[R2*]N([R3*])Cc1nc(N2CCOCC2)ccc1

>  <reagent3-name>
6673176

>  <reagent3-smiles>
[R2*]C(c1cc(c(F)cc1)CCNC(=O)C)=C[R1*]

$$$$
m_273170____10756114____10761964____10755784
          04022017323D 1   1.00000     0.00000     0
            
 75 80  0  0  0  0            999 V2000
   -2.2553    4.5022    7.1169 O   0  0  0  0  0  0  0  0  0  0  0  0
   -2.6200    5.3653    6.3672 C   0  0  0  0  0  0  0  0  0  0  0  0
   -3.1499    6.5264    6.8653 N   0  0  0  0  0  0  0  0  0  0  0  0
   -2.4998    5.1794    4.9341 C   0  0  0  0  0  0  0  0  0  0  0  0
   -1.5691    4.2732    4.4371 C   0  0  0  0  0  0  0  0  0  0  0  0
   -1.4634    4.1041    3.0606 C   0  0  0  0  0  0  0  0  0  0  0  0
   -2.2710    4.8236    2.1859 C   0  0  0  0  0  0  0  0  0  0  0  0
   -3.1945    5.7238    2.7065 C   0  0  0  0  0  0  0  0  0  0  0  0
   -3.3180    5.9105    4.0793 C   0  0  0  0  0  0  0  0  0  0  0  0
   -0.4485    3.1157    2.5084 C   0  0  0  0  0  0  0  0  0  0  0  0
    0.8853    3.7336    2.5048 N   0  0  0  0  0  0  0  0  0  0  0  0
    2.0315    2.9267    2.5008 C   0  0  0  0  0  0  0  0  0  0  0  0
    3.2789    3.3271    2.4974 N   0  0  0  0  0  0  0  0  0  0  0  0
    4.1071    2.3065    2.4903 N   0  0  0  0  0  0  0  0  0  0  0  0
    3.3905    1.2051    2.4893 C   0  0  0  0  0  0  0  0  0  0  0  0
    2.0806    1.5694    2.4959 N   0  0  0  0  0  0  0  0  0  0  0  0
    0.9245    0.6605    2.4981 C   0  0  0  0  0  0  0  0  0  0  0  0
    0.3658    0.5479    1.0889 C   0  0  3  0  0  0  0  0  0  0  0  0
   -0.7899   -0.3607    1.0911 N   0  3  0  0  0  0  0  0  0  0  0  0
   -1.3848   -0.5186   -0.2449 C   0  0  0  0  0  0  0  0  0  0  0  0
   -2.5796   -1.4588   -0.2014 C   0  0  0  0  0  0  0  0  0  0  0  0
   -3.5608   -0.9927    0.7148 O   0  0  0  0  0  0  0  0  0  0  0  0
   -3.0208   -0.8476    2.0214 C   0  0  0  0  0  0  0  0  0  0  0  0
   -1.8361    0.1060    2.0142 C   0  0  0  0  0  0  0  0  0  0  0  0
    1.4383    0.0012    0.1609 C   0  0  0  0  0  0  0  0  0  0  0  0
    2.1772    0.7163   -0.6508 O   0  0  0  0  0  0  0  0  0  0  0  0
    3.0065   -0.0568   -1.3122 C   0  0  0  0  0  0  0  0  0  0  0  0
    2.8098   -1.3466   -0.9247 C   0  0  0  0  0  0  0  0  0  0  0  0
    1.7811   -1.3110    0.0411 C   0  0  0  0  0  0  0  0  0  0  0  0
    4.0219    0.4125   -2.3416 C   0  0  0  0  0  0  0  0  0  0  0  0
    3.9082   -0.1501    2.4826 C   0  0  0  0  0  0  0  0  0  0  0  0
    3.2434   -1.1702    3.0513 N   0  0  0  0  0  0  0  0  0  0  0  0
    3.7134   -2.4296    3.0510 C   0  0  0  0  0  0  0  0  0  0  0  0
    4.9335   -2.7167    2.4461 C   0  0  0  0  0  0  0  0  0  0  0  0
    5.6438   -1.6800    1.8501 C   0  0  0  0  0  0  0  0  0  0  0  0
    5.1319   -0.3868    1.8659 C   0  0  0  0  0  0  0  0  0  0  0  0
    5.4559   -4.0055    2.4213 C   0  0  0  0  0  0  0  0  0  0  0  0
    4.7389   -5.0372    3.0187 C   0  0  0  0  0  0  0  0  0  0  0  0
    3.5175   -4.7720    3.6294 C   0  0  0  0  0  0  0  0  0  0  0  0
    3.0130   -3.4756    3.6422 C   0  0  0  0  0  0  0  0  0  0  0  0
    1.0172    5.1977    2.5052 C   0  0  0  0  0  0  0  0  0  0  0  0
   -0.4790   -1.2590    1.4016 H   0  0  0  0  0  0  0  0  0  0  0  0
   -3.4538    7.2456    6.2406 H   0  0  0  0  0  0  0  0  0  0  0  0
   -3.2327    6.6546    7.8536 H   0  0  0  0  0  0  0  0  0  0  0  0
   -0.9854    3.7517    5.0594 H   0  0  0  0  0  0  0  0  0  0  0  0
   -2.1887    4.6955    1.1975 H   0  0  0  0  0  0  0  0  0  0  0  0
   -3.7788    6.2448    2.0843 H   0  0  0  0  0  0  0  0  0  0  0  0
   -3.9843    6.5599    4.4459 H   0  0  0  0  0  0  0  0  0  0  0  0
   -0.4348    2.2966    3.0818 H   0  0  0  0  0  0  0  0  0  0  0  0
   -0.7020    2.8645    1.5742 H   0  0  0  0  0  0  0  0  0  0  0  0
    0.2189    1.0201    3.1086 H   0  0  0  0  0  0  0  0  0  0  0  0
    1.2114   -0.2431    2.8160 H   0  0  0  0  0  0  0  0  0  0  0  0
    0.0788    1.4515    0.7710 H   0  0  0  0  0  0  0  0  0  0  0  0
   -0.6969   -0.8924   -0.8671 H   0  0  0  0  0  0  0  0  0  0  0  0
   -1.6842    0.3757   -0.5775 H   0  0  0  0  0  0  0  0  0  0  0  0
   -2.9848   -1.5152   -1.1139 H   0  0  0  0  0  0  0  0  0  0  0  0
   -2.2713   -2.3665    0.0832 H   0  0  0  0  0  0  0  0  0  0  0  0
   -2.7198   -1.7418    2.3528 H   0  0  0  0  0  0  0  0  0  0  0  0
   -3.7278   -0.4873    2.6300 H   0  0  0  0  0  0  0  0  0  0  0  0
   -2.1468    1.0115    1.7255 H   0  0  0  0  0  0  0  0  0  0  0  0
   -1.4561    0.1626    2.9374 H   0  0  0  0  0  0  0  0  0  0  0  0
    3.2953   -2.1553   -1.2568 H   0  0  0  0  0  0  0  0  0  0  0  0
    1.3869   -2.0867    0.5340 H   0  0  0  0  0  0  0  0  0  0  0  0
    4.5267   -0.3751   -2.6950 H   0  0  0  0  0  0  0  0  0  0  0  0
    3.5471    0.8691   -3.0940 H   0  0  0  0  0  0  0  0  0  0  0  0
    4.6598    1.0523   -1.9129 H   0  0  0  0  0  0  0  0  0  0  0  0
    6.5227   -1.8644    1.4102 H   0  0  0  0  0  0  0  0  0  0  0  0
    5.6374    0.3631    1.4391 H   0  0  0  0  0  0  0  0  0  0  0  0
    6.3346   -4.1880    1.9802 H   0  0  0  0  0  0  0  0  0  0  0  0
    5.1014   -5.9691    3.0091 H   0  0  0  0  0  0  0  0  0  0  0  0
    3.0020   -5.5133    4.0592 H   0  0  0  0  0  0  0  0  0  0  0  0
    2.1341   -3.2932    4.0829 H   0  0  0  0  0  0  0  0  0  0  0  0
    0.1080    5.6142    2.5082 H   0  0  0  0  0  0  0  0  0  0  0  0
    1.5190    5.4869    3.3204 H   0  0  0  0  0  0  0  0  0  0  0  0
    1.5141    5.4879    1.6874 H   0  0  0  0  0  0  0  0  0  0  0  0
  1  2  2  0  0  0  0
  2  3  1  0  0  0  0
  2  4  1  0  0  0  0
  4  5  1  0  0  0  0
  5  6  2  0  0  0  0
  6  7  1  0  0  0  0
  7  8  2  0  0  0  0
  8  9  1  0  0  0  0
  9  4  2  0  0  0  0
  6 10  1  0  0  0  0
 10 11  1  0  0  0  0
 11 12  1  0  0  0  0
 12 13  2  0  0  0  0
 13 14  1  0  0  0  0
 14 15  2  0  0  0  0
 15 16  1  0  0  0  0
 16 12  1  0  0  0  0
 16 17  1  0  0  0  0
 17 18  1  0  0  0  0
 18 19  1  0  0  0  0
 19 20  1  0  0  0  0
 20 21  1  0  0  0  0
 21 22  1  0  0  0  0
 22 23  1  0  0  0  0
 23 24  1  0  0  0  0
 24 19  1  0  0  0  0
 18 25  1  0  0  0  0
 25 26  1  0  0  0  0
 26 27  1  0  0  0  0
 27 28  2  0  0  0  0
 28 29  1  0  0  0  0
 25 29  2  0  0  0  0
 27 30  1  0  0  0  0
 15 31  1  0  0  0  0
 31 32  1  0  0  0  0
 32 33  2  0  0  0  0
 33 34  1  0  0  0  0
 34 35  2  0  0  0  0
 35 36  1  0  0  0  0
 36 31  2  0  0  0  0
 34 37  1  0  0  0  0
 37 38  2  0  0  0  0
 38 39  1  0  0  0  0
 39 40  2  0  0  0  0
 40 33  1  0  0  0  0
 11 41  1  0  0  0  0
 19 42  1  0  0  0  0
  3 43  1  0  0  0  0
  3 44  1  0  0  0  0
  5 45  1  0  0  0  0
  7 46  1  0  0  0  0
  8 47  1  0  0  0  0
  9 48  1  0  0  0  0
 10 49  1  0  0  0  0
 10 50  1  0  0  0  0
 17 51  1  0  0  0  0
 17 52  1  0  0  0  0
 18 53  1  0  0  0  0
 20 54  1  0  0  0  0
 20 55  1  0  0  0  0
 21 56  1  0  0  0  0
 21 57  1  0  0  0  0
 23 58  1  0  0  0  0
 23 59  1  0  0  0  0
 24 60  1  0  0  0  0
 24 61  1  0  0  0  0
 28 62  1  0  0  0  0
 29 63  1  0  0  0  0
 30 64  1  0  0  0  0
 30 65  1  0  0  0  0
 30 66  1  0  0  0  0
 35 67  1  0  0  0  0
 36 68  1  0  0  0  0
 37 69  1  0  0  0  0
 38 70  1  0  0  0  0
 39 71  1  0  0  0  0
 40 72  1  0  0  0  0
 41 73  1  0  0  0  0
 41 74  1  0  0  0  0
 41 75  1  0  0  0  0
M  CHG  1  19   1
M  END
>  <result-rank>
83

>  <similarity>
0.867

>  <query-name>


>  <query-smiles>
S(=O)(=O)(NC(=O)C)c1ccc(cc1)C=2N3N=CC=C(N4CCOCC4)C3=NC2/C=C/c5nc6c(cc5)cccc6

>  <source>
REALspace_2019-12

>  <similarity-descriptor>
0.930;0.909;0.797;0.873;0.935;1.000;0.626;0.717;0.0;0.0;0.797;0.935;0.143

>  <similarity-descriptor-smiles>
c1cccc(c1)CN;[NH+]1CCOCC1;C=1NC=NN1;CCC1=CC=CO1;c1ccccn1;c1ccccc1;O=C;N;;;C=1NC=NN1;c1ccccn1;C.C

>  <reaction-name>
m_273170

>  <reagent1-name>
10756114

>  <reagent1-smiles>
[R2*]=C([R1*])N([R3*])CC(N1CCOCC1)C=2OC(=CC2)C

>  <reagent2-name>
10761964

>  <reagent2-smiles>
[R1*]N(Cc1cc(ccc1)C(=O)N)C

>  <reagent3-name>
10755784

>  <reagent3-smiles>
[R2*]=NN=C([R3*])c1nc2c(cc1)cccc2

$$$$
m_273170____10756902____10761984____10766652
          04022017323D 1   1.00000     0.00000     0
            
 75 80  0  0  0  0            999 V2000
    4.3047    6.0613    3.7283 S   0  0  0  0  0  0  0  0  0  0  0  0
    4.7913    6.0959    2.3734 O   0  0  0  0  0  0  0  0  0  0  0  0
    2.9497    6.5475    3.7642 O   0  0  0  0  0  0  0  0  0  0  0  0
    4.3516    4.3596    4.3430 C   0  0  0  0  0  0  0  0  0  0  0  0
    3.4755    3.4800    3.4657 C   0  0  0  0  0  0  0  0  0  0  0  0
    3.6239    3.5196    2.0831 C   0  0  0  0  0  0  0  0  0  0  0  0
    2.8192    2.7135    1.2852 C   0  0  0  0  0  0  0  0  0  0  0  0
    1.8778    1.8778    1.8778 C   0  0  0  0  0  0  0  0  0  0  0  0
    1.7317    1.8370    3.2610 C   0  0  0  0  0  0  0  0  0  0  0  0
    2.5355    2.6443    4.0591 C   0  0  0  0  0  0  0  0  0  0  0  0
    1.0000    1.0000    1.0000 C   0  0  0  0  0  0  0  0  0  0  0  0
    1.0378   -0.3836    1.4968 N   0  0  0  0  0  0  0  0  0  0  0  0
    0.0176   -1.0445    2.1028 C   0  0  0  0  0  0  0  0  0  0  0  0
    0.4816   -2.2386    2.3773 N   0  0  0  0  0  0  0  0  0  0  0  0
    1.7283   -2.3682    1.9819 N   0  0  0  0  0  0  0  0  0  0  0  0
    2.0976   -1.2330    1.4326 C   0  0  0  0  0  0  0  0  0  0  0  0
    3.4006   -0.9442    0.8628 C   0  0  0  0  0  0  0  0  0  0  0  0
    3.7075   -0.0624   -0.5604 S   0  0  0  0  0  0  0  0  0  0  0  0
    5.4014   -0.2128   -0.4807 C   0  0  0  0  0  0  0  0  0  0  0  0
    5.6944   -0.9107    0.5908 N   0  0  0  0  0  0  0  0  0  0  0  0
    4.6186   -1.3200    1.3347 C   0  0  0  0  0  0  0  0  0  0  0  0
    4.7370   -2.1376    2.6098 C   0  0  0  0  0  0  0  0  0  0  0  0
    6.3304    0.3369   -1.4501 C   0  0  0  0  0  0  0  0  0  0  0  0
    7.3318   -0.4706   -1.9796 C   0  0  0  0  0  0  0  0  0  0  0  0
    8.2210    0.0607   -2.9081 C   0  0  0  0  0  0  0  0  0  0  0  0
    8.1042    1.3897   -3.3016 C   0  0  0  0  0  0  0  0  0  0  0  0
    7.0998    2.1867   -2.7664 C   0  0  0  0  0  0  0  0  0  0  0  0
    6.2048    1.6675   -1.8366 C   0  0  0  0  0  0  0  0  0  0  0  0
   -1.2647   -0.5519    2.3814 N   0  0  0  0  0  0  0  0  0  0  0  0
   -2.3436   -0.7116    1.3958 C   0  0  0  0  0  0  0  0  0  0  0  0
   -2.5694   -2.1939    1.1259 C   0  0  0  0  0  0  0  0  0  0  0  0
   -2.7348   -3.1301    2.0326 O   0  0  0  0  0  0  0  0  0  0  0  0
   -2.9046   -4.3031    1.4622 C   0  0  0  0  0  0  0  0  0  0  0  0
   -2.8424   -4.1279    0.1125 C   0  0  0  0  0  0  0  0  0  0  0  0
   -2.6215   -2.7498   -0.1149 C   0  0  0  0  0  0  0  0  0  0  0  0
   -1.5307    0.1245    3.6592 C   0  0  0  0  0  0  0  0  0  0  0  0
   -1.9990    1.5502    3.3915 C   0  0  3  0  0  0  0  0  0  0  0  0
   -3.4067    1.6605    3.2548 O   0  0  0  0  0  0  0  0  0  0  0  0
   -3.7263    3.0241    3.4583 C   0  0  0  0  0  0  0  0  0  0  0  0
   -2.6579    3.5976    4.3675 C   0  0  0  0  0  0  0  0  0  0  0  0
   -1.7904    2.3868    4.6409 C   0  0  0  0  0  0  0  0  0  0  0  0
    5.3493    7.1086    4.7713 C   0  0  0  0  0  0  0  0  0  0  0  0
    4.0126    4.3353    5.2835 H   0  0  0  0  0  0  0  0  0  0  0  0
    5.2927    4.0223    4.3190 H   0  0  0  0  0  0  0  0  0  0  0  0
    4.3038    4.1229    1.6663 H   0  0  0  0  0  0  0  0  0  0  0  0
    2.9167    2.7344    0.2902 H   0  0  0  0  0  0  0  0  0  0  0  0
    1.0538    1.2317    3.6782 H   0  0  0  0  0  0  0  0  0  0  0  0
    2.4380    2.6239    5.0541 H   0  0  0  0  0  0  0  0  0  0  0  0
    0.0591    1.3378    1.0257 H   0  0  0  0  0  0  0  0  0  0  0  0
    1.3378    1.0257    0.0591 H   0  0  0  0  0  0  0  0  0  0  0  0
    3.8242   -2.3169    2.9768 H   0  0  0  0  0  0  0  0  0  0  0  0
    5.1916   -3.0053    2.4084 H   0  0  0  0  0  0  0  0  0  0  0  0
    5.2731   -1.6289    3.2834 H   0  0  0  0  0  0  0  0  0  0  0  0
    7.4118   -1.4258   -1.6949 H   0  0  0  0  0  0  0  0  0  0  0  0
    8.9442   -0.5129   -3.2928 H   0  0  0  0  0  0  0  0  0  0  0  0
    8.7430    1.7715   -3.9696 H   0  0  0  0  0  0  0  0  0  0  0  0
    7.0196    3.1417   -3.0520 H   0  0  0  0  0  0  0  0  0  0  0  0
    5.4822    2.2418   -1.4520 H   0  0  0  0  0  0  0  0  0  0  0  0
   -2.0882   -0.2529    0.5447 H   0  0  0  0  0  0  0  0  0  0  0  0
   -3.1847   -0.3061    1.7537 H   0  0  0  0  0  0  0  0  0  0  0  0
   -3.0533   -5.1711    1.9360 H   0  0  0  0  0  0  0  0  0  0  0  0
   -2.9353   -4.8387   -0.5848 H   0  0  0  0  0  0  0  0  0  0  0  0
   -2.5247   -2.2853   -0.9952 H   0  0  0  0  0  0  0  0  0  0  0  0
   -0.6935    0.1458    4.2057 H   0  0  0  0  0  0  0  0  0  0  0  0
   -2.2415   -0.3718    4.1575 H   0  0  0  0  0  0  0  0  0  0  0  0
   -1.5253    1.9469    2.6052 H   0  0  0  0  0  0  0  0  0  0  0  0
   -4.6248    3.1058    3.8898 H   0  0  0  0  0  0  0  0  0  0  0  0
   -3.7309    3.5101    2.5844 H   0  0  0  0  0  0  0  0  0  0  0  0
   -3.0548    3.9578    5.2118 H   0  0  0  0  0  0  0  0  0  0  0  0
   -2.1397    4.3192    3.9085 H   0  0  0  0  0  0  0  0  0  0  0  0
   -0.8304    2.6458    4.7471 H   0  0  0  0  0  0  0  0  0  0  0  0
   -2.0966    1.8992    5.4585 H   0  0  0  0  0  0  0  0  0  0  0  0
    5.0114    7.0846    5.7122 H   0  0  0  0  0  0  0  0  0  0  0  0
    6.2903    6.7710    4.7464 H   0  0  0  0  0  0  0  0  0  0  0  0
    5.3234    8.0488    4.4317 H   0  0  0  0  0  0  0  0  0  0  0  0
  1  2  2  0  0  0  0
  1  3  2  0  0  0  0
  1  4  1  0  0  0  0
  4  5  1  0  0  0  0
  5  6  1  0  0  0  0
  6  7  2  0  0  0  0
  7  8  1  0  0  0  0
  8  9  2  0  0  0  0
  9 10  1  0  0  0  0
 10  5  2  0  0  0  0
  8 11  1  0  0  0  0
 11 12  1  0  0  0  0
 12 13  1  0  0  0  0
 13 14  2  0  0  0  0
 14 15  1  0  0  0  0
 15 16  2  0  0  0  0
 16 12  1  0  0  0  0
 16 17  1  0  0  0  0
 17 18  1  0  0  0  0
 18 19  1  0  0  0  0
 19 20  2  0  0  0  0
 20 21  1  0  0  0  0
 17 21  2  0  0  0  0
 21 22  1  0  0  0  0
 19 23  1  0  0  0  0
 23 24  1  0  0  0  0
 24 25  2  0  0  0  0
 25 26  1  0  0  0  0
 26 27  2  0  0  0  0
 27 28  1  0  0  0  0
 28 23  2  0  0  0  0
 13 29  1  0  0  0  0
 29 30  1  0  0  0  0
 30 31  1  0  0  0  0
 31 32  1  0  0  0  0
 32 33  1  0  0  0  0
 33 34  2  0  0  0  0
 34 35  1  0  0  0  0
 31 35  2  0  0  0  0
 29 36  1  0  0  0  0
 36 37  1  0  0  0  0
 37 38  1  0  0  0  0
 38 39  1  0  0  0  0
 39 40  1  0  0  0  0
 40 41  1  0  0  0  0
 41 37  1  0  0  0  0
  1 42  1  0  0  0  0
  4 43  1  0  0  0  0
  4 44  1  0  0  0  0
  6 45  1  0  0  0  0
  7 46  1  0  0  0  0
  9 47  1  0  0  0  0
 10 48  1  0  0  0  0
 11 49  1  0  0  0  0
 11 50  1  0  0  0  0
 22 51  1  0  0  0  0
 22 52  1  0  0  0  0
 22 53  1  0  0  0  0
 24 54  1  0  0  0  0
 25 55  1  0  0  0  0
 26 56  1  0  0  0  0
 27 57  1  0  0  0  0
 28 58  1  0  0  0  0
 30 59  1  0  0  0  0
 30 60  1  0  0  0  0
 33 61  1  0  0  0  0
 34 62  1  0  0  0  0
 35 63  1  0  0  0  0
 36 64  1  0  0  0  0
 36 65  1  0  0  0  0
 37 66  1  0  0  0  0
 39 67  1  0  0  0  0
 39 68  1  0  0  0  0
 40 69  1  0  0  0  0
 40 70  1  0  0  0  0
 41 71  1  0  0  0  0
 41 72  1  0  0  0  0
 42 73  1  0  0  0  0
 42 74  1  0  0  0  0
 42 75  1  0  0  0  0
M  END
>  <result-rank>
84

>  <similarity>
0.867

>  <query-name>


>  <query-smiles>
S(=O)(=O)(NC(=O)C)c1ccc(cc1)C=2N3N=CC=C(N4CCOCC4)C3=NC2/C=C/c5nc6c(cc5)cccc6

>  <source>
REALspace_2019-12

>  <similarity-descriptor>
0.936;0.956;0.797;0.876;0.823;0.942;0.817;0.0;0.0;0.0;0.797;0.823;0.071

>  <similarity-descriptor-smiles>
c1ccc(cc1)C;CC1CCCO1;N1C=NN=C1;NCC1=CC=CO1;C1=CN=CS1;c1ccccc1;S(=O)(=O)(C)C;;;;N1C=NN=C1;C1=CN=CS1;C

>  <reaction-name>
m_273170

>  <reagent1-name>
10756902

>  <reagent1-smiles>
[R2*]=C([R1*])N([R3*])Cc1ccc(cc1)CS(=O)(=O)C

>  <reagent2-name>
10761984

>  <reagent2-smiles>
[R1*]N(CC=1OC=CC1)CC2OCCC2

>  <reagent3-name>
10766652

>  <reagent3-smiles>
[R2*]=NN=C([R3*])C=1SC(=NC1C)c2ccccc2

$$$$
m_273170____10756954____10760336____10755784
          04022017323D 1   1.00000     0.00000     0
            
 71 76  0  0  0  0            999 V2000
   -0.1645    3.8546   -4.1762 S   0  0  0  0  0  0  0  0  0  0  0  0
   -1.4776    4.4422   -4.1127 O   0  0  0  0  0  0  0  0  0  0  0  0
    0.8148    4.8892   -4.3867 O   0  0  0  0  0  0  0  0  0  0  0  0
   -0.1045    2.7906   -5.4096 N   0  0  0  0  0  0  0  0  0  0  0  0
    0.1735    3.0308   -2.6816 C   0  0  0  0  0  0  0  0  0  0  0  0
    1.4843    2.7016   -2.3540 C   0  0  0  0  0  0  0  0  0  0  0  0
    1.7570    2.0429   -1.1595 C   0  0  0  0  0  0  0  0  0  0  0  0
    0.7075    1.7207   -0.3057 C   0  0  0  0  0  0  0  0  0  0  0  0
   -0.6035    2.0498   -0.6342 C   0  0  0  0  0  0  0  0  0  0  0  0
   -0.8767    2.7089   -1.8278 C   0  0  0  0  0  0  0  0  0  0  0  0
    1.0000    1.0000    1.0000 C   0  0  3  0  0  0  0  0  0  0  0  0
    1.8487    1.8487    1.8487 N   0  0  0  0  0  0  0  0  0  0  0  0
    3.1847    1.4941    2.0812 C   0  0  0  0  0  0  0  0  0  0  0  0
    4.2105    2.3030    2.1806 N   0  0  0  0  0  0  0  0  0  0  0  0
    5.3231    1.6376    2.3974 N   0  0  0  0  0  0  0  0  0  0  0  0
    5.0260    0.3584    2.4425 C   0  0  0  0  0  0  0  0  0  0  0  0
    3.6856    0.2424    2.2462 N   0  0  0  0  0  0  0  0  0  0  0  0
    2.9152   -1.0099    2.2180 C   0  0  0  0  0  0  0  0  0  0  0  0
    3.0701   -1.6698    0.8565 C   0  0  0  0  0  0  0  0  0  0  0  0
    2.4476   -2.8766    0.5414 C   0  0  0  0  0  0  0  0  0  0  0  0
    1.6813   -3.4815    1.4808 O   0  0  0  0  0  0  0  0  0  0  0  0
    1.5969   -4.8942    1.6118 C   0  0  0  0  0  0  0  0  0  0  0  0
    0.5928   -5.4717    0.6245 C   0  0  0  0  0  0  0  0  0  0  0  0
    0.7110   -4.8283   -0.7495 C   0  0  0  0  0  0  0  0  0  0  0  0
    2.0582   -4.5776   -1.1318 O   0  0  0  0  0  0  0  0  0  0  0  0
    2.6328   -3.4244   -0.7289 C   0  0  0  0  0  0  0  0  0  0  0  0
    3.4346   -2.7789   -1.6617 C   0  0  0  0  0  0  0  0  0  0  0  0
    4.0555   -1.5751   -1.3482 C   0  0  0  0  0  0  0  0  0  0  0  0
    3.8662   -1.0259   -0.0843 C   0  0  0  0  0  0  0  0  0  0  0  0
    5.9621   -0.7281    2.6623 C   0  0  0  0  0  0  0  0  0  0  0  0
    7.0139   -0.9357    1.8529 N   0  0  0  0  0  0  0  0  0  0  0  0
    7.8861   -1.9387    2.0483 C   0  0  0  0  0  0  0  0  0  0  0  0
    7.7159   -2.8089    3.1220 C   0  0  0  0  0  0  0  0  0  0  0  0
    6.6348   -2.6166    3.9759 C   0  0  0  0  0  0  0  0  0  0  0  0
    5.7468   -1.5695    3.7493 C   0  0  0  0  0  0  0  0  0  0  0  0
    8.6014   -3.8566    3.3516 C   0  0  0  0  0  0  0  0  0  0  0  0
    9.6760   -4.0323    2.4862 C   0  0  0  0  0  0  0  0  0  0  0  0
    9.8686   -3.1770    1.4065 C   0  0  0  0  0  0  0  0  0  0  0  0
    8.9694   -2.1362    1.1978 C   0  0  0  0  0  0  0  0  0  0  0  0
    1.2963    3.0693    2.4536 C   0  0  0  0  0  0  0  0  0  0  0  0
   -0.3059    0.7075    1.7208 C   0  0  0  0  0  0  0  0  0  0  0  0
    0.8074    2.3825   -5.4538 H   0  0  0  0  0  0  0  0  0  0  0  0
   -0.7845    2.0721   -5.2634 H   0  0  0  0  0  0  0  0  0  0  0  0
    2.2302    2.9383   -2.9766 H   0  0  0  0  0  0  0  0  0  0  0  0
    2.6973    1.8036   -0.9174 H   0  0  0  0  0  0  0  0  0  0  0  0
   -1.3495    1.8125   -0.0121 H   0  0  0  0  0  0  0  0  0  0  0  0
   -1.8169    2.9486   -2.0696 H   0  0  0  0  0  0  0  0  0  0  0  0
    1.4742    0.1409    0.8075 H   0  0  0  0  0  0  0  0  0  0  0  0
    1.9494   -0.8109    2.3840 H   0  0  0  0  0  0  0  0  0  0  0  0
    3.2553   -1.6266    2.9279 H   0  0  0  0  0  0  0  0  0  0  0  0
    1.3085   -5.1202    2.5422 H   0  0  0  0  0  0  0  0  0  0  0  0
    2.4965   -5.2937    1.4354 H   0  0  0  0  0  0  0  0  0  0  0  0
   -0.3308   -5.3168    0.9754 H   0  0  0  0  0  0  0  0  0  0  0  0
    0.7553   -6.4544    0.5361 H   0  0  0  0  0  0  0  0  0  0  0  0
    0.2967   -5.4393   -1.4242 H   0  0  0  0  0  0  0  0  0  0  0  0
    0.2159   -3.9595   -0.7383 H   0  0  0  0  0  0  0  0  0  0  0  0
    3.5665   -3.1837   -2.5665 H   0  0  0  0  0  0  0  0  0  0  0  0
    4.6301   -1.1106   -2.0220 H   0  0  0  0  0  0  0  0  0  0  0  0
    4.3070   -0.1595    0.1501 H   0  0  0  0  0  0  0  0  0  0  0  0
    6.4958   -3.2309    4.7526 H   0  0  0  0  0  0  0  0  0  0  0  0
    4.9667   -1.4242    4.3578 H   0  0  0  0  0  0  0  0  0  0  0  0
    8.4675   -4.4740    4.1268 H   0  0  0  0  0  0  0  0  0  0  0  0
   10.3181   -4.7828    2.6422 H   0  0  0  0  0  0  0  0  0  0  0  0
   10.6435   -3.3084    0.7882 H   0  0  0  0  0  0  0  0  0  0  0  0
    9.1040   -1.5190    0.4226 H   0  0  0  0  0  0  0  0  0  0  0  0
    0.3379    3.1695    2.1861 H   0  0  0  0  0  0  0  0  0  0  0  0
    1.3596    3.0059    3.4495 H   0  0  0  0  0  0  0  0  0  0  0  0
    1.8156    3.8629    2.1365 H   0  0  0  0  0  0  0  0  0  0  0  0
   -0.8832    0.1301    1.1435 H   0  0  0  0  0  0  0  0  0  0  0  0
   -0.1134    0.2333    2.5799 H   0  0  0  0  0  0  0  0  0  0  0  0
   -0.7801    1.5666    1.9133 H   0  0  0  0  0  0  0  0  0  0  0  0
  1  2  2  0  0  0  0
  1  3  2  0  0  0  0
  1  4  1  0  0  0  0
  1  5  1  0  0  0  0
  5  6  1  0  0  0  0
  6  7  2  0  0  0  0
  7  8  1  0  0  0  0
  8  9  2  0  0  0  0
  9 10  1  0  0  0  0
 10  5  2  0  0  0  0
  8 11  1  0  0  0  0
 11 12  1  0  0  0  0
 12 13  1  0  0  0  0
 13 14  2  0  0  0  0
 14 15  1  0  0  0  0
 15 16  2  0  0  0  0
 16 17  1  0  0  0  0
 17 13  1  0  0  0  0
 17 18  1  0  0  0  0
 18 19  1  0  0  0  0
 19 20  1  0  0  0  0
 20 21  1  0  0  0  0
 21 22  1  0  0  0  0
 22 23  1  0  0  0  0
 23 24  1  0  0  0  0
 24 25  1  0  0  0  0
 25 26  1  0  0  0  0
 26 20  2  0  0  0  0
 26 27  1  0  0  0  0
 27 28  2  0  0  0  0
 28 29  1  0  0  0  0
 29 19  2  0  0  0  0
 16 30  1  0  0  0  0
 30 31  1  0  0  0  0
 31 32  2  0  0  0  0
 32 33  1  0  0  0  0
 33 34  2  0  0  0  0
 34 35  1  0  0  0  0
 35 30  2  0  0  0  0
 33 36  1  0  0  0  0
 36 37  2  0  0  0  0
 37 38  1  0  0  0  0
 38 39  2  0  0  0  0
 39 32  1  0  0  0  0
 12 40  1  0  0  0  0
 11 41  1  0  0  0  0
  4 42  1  0  0  0  0
  4 43  1  0  0  0  0
  6 44  1  0  0  0  0
  7 45  1  0  0  0  0
  9 46  1  0  0  0  0
 10 47  1  0  0  0  0
 11 48  1  0  0  0  0
 18 49  1  0  0  0  0
 18 50  1  0  0  0  0
 22 51  1  0  0  0  0
 22 52  1  0  0  0  0
 23 53  1  0  0  0  0
 23 54  1  0  0  0  0
 24 55  1  0  0  0  0
 24 56  1  0  0  0  0
 27 57  1  0  0  0  0
 28 58  1  0  0  0  0
 29 59  1  0  0  0  0
 34 60  1  0  0  0  0
 35 61  1  0  0  0  0
 36 62  1  0  0  0  0
 37 63  1  0  0  0  0
 38 64  1  0  0  0  0
 39 65  1  0  0  0  0
 40 66  1  0  0  0  0
 40 67  1  0  0  0  0
 40 68  1  0  0  0  0
 41 69  1  0  0  0  0
 41 70  1  0  0  0  0
 41 71  1  0  0  0  0
M  END
>  <result-rank>
85

>  <similarity>
0.867

>  <query-name>


>  <query-smiles>
S(=O)(=O)(NC(=O)C)c1ccc(cc1)C=2N3N=CC=C(N4CCOCC4)C3=NC2/C=C/c5nc6c(cc5)cccc6

>  <source>
REALspace_2019-12

>  <similarity-descriptor>
0.941;0.882;0.797;0.728;0.935;1.000;1.000;0.588;0.0;0.0;0.797;0.935;0.154

>  <similarity-descriptor-smiles>
c1ccc(cc1)CN;c1cOCCCO1;C=1NC=NN1;Cc1ccccc1;c1ccccn1;c1ccccc1;S(=O)=O;N;;;C=1NC=NN1;c1ccccn1;C.C

>  <reaction-name>
m_273170

>  <reagent1-name>
10756954

>  <reagent1-smiles>
[R2*]=C([R1*])N([R3*])Cc1c2OCCCOc2ccc1

>  <reagent2-name>
10760336

>  <reagent2-smiles>
[R1*]N(C(c1ccc(S(=O)(=O)N)cc1)C)C

>  <reagent3-name>
10755784

>  <reagent3-smiles>
[R2*]=NN=C([R3*])c1nc2c(cc1)cccc2

$$$$
m_273170____10756154____10764834____10766516
          04022017323D 1   1.00000     0.00000     0
            
 77 81  0  0  0  0            999 V2000
   -1.4376   -1.2427    2.8900 S   0  0  0  0  0  0  0  0  0  0  0  0
   -2.5870   -1.9105    3.4436 O   0  0  0  0  0  0  0  0  0  0  0  0
   -1.8717   -0.1562    2.0506 O   0  0  0  0  0  0  0  0  0  0  0  0
   -0.5692   -2.3002    2.0042 N   0  0  0  0  0  0  0  0  0  0  0  0
   -0.1260   -3.4094    2.8611 C   0  0  0  0  0  0  0  0  0  0  0  0
   -1.4027   -2.8264    0.9136 C   0  0  0  0  0  0  0  0  0  0  0  0
   -0.4509   -0.6198    4.1811 C   0  0  0  0  0  0  0  0  0  0  0  0
    0.6099    0.2441    3.9259 C   0  0  0  0  0  0  0  0  0  0  0  0
    1.3826    0.7266    4.9772 C   0  0  0  0  0  0  0  0  0  0  0  0
    1.0947    0.3456    6.2838 C   0  0  0  0  0  0  0  0  0  0  0  0
    0.0320   -0.5181    6.5277 C   0  0  0  0  0  0  0  0  0  0  0  0
   -0.7471   -1.0068    5.4837 C   0  0  0  0  0  0  0  0  0  0  0  0
    0.9245    0.6605    2.4981 C   0  0  0  0  0  0  0  0  0  0  0  0
    2.0806    1.5694    2.4959 N   0  0  0  0  0  0  0  0  0  0  0  0
    2.0315    2.9267    2.5008 C   0  0  0  0  0  0  0  0  0  0  0  0
    3.2789    3.3271    2.4974 N   0  0  0  0  0  0  0  0  0  0  0  0
    4.1071    2.3065    2.4903 N   0  0  0  0  0  0  0  0  0  0  0  0
    3.3905    1.2051    2.4893 C   0  0  0  0  0  0  0  0  0  0  0  0
    3.9085   -0.1508    2.4826 C   0  0  0  0  0  0  0  0  0  0  0  0
    3.9836   -0.9224    1.3235 C   0  0  0  0  0  0  0  0  0  0  0  0
    4.4948   -2.2150    1.4059 C   0  0  0  0  0  0  0  0  0  0  0  0
    4.9053   -2.6995    2.5875 N   0  0  0  0  0  0  0  0  0  0  0  0
    4.8411   -1.9709    3.7129 C   0  0  0  0  0  0  0  0  0  0  0  0
    4.3411   -0.6741    3.6952 C   0  0  0  0  0  0  0  0  0  0  0  0
    5.3074   -2.5255    5.0483 C   0  0  0  0  0  0  0  0  0  0  0  0
    4.5741   -2.9910    0.2536 C   0  0  0  0  0  0  0  0  0  0  0  0
    4.1513   -2.4991   -0.9765 C   0  0  0  0  0  0  0  0  0  0  0  0
    3.6382   -1.2107   -1.0712 C   0  0  0  0  0  0  0  0  0  0  0  0
    3.5628   -0.4413    0.0845 C   0  0  0  0  0  0  0  0  0  0  0  0
    0.8853    3.7336    2.5048 N   0  0  0  0  0  0  0  0  0  0  0  0
    0.9743    5.1346    2.9407 C   0  0  0  0  0  0  0  0  0  0  0  0
    0.9747    5.1936    4.4601 C   0  0  0  0  0  0  0  0  0  0  0  0
    2.0329    5.1555    5.2319 N   0  0  0  0  0  0  0  0  0  0  0  0
    1.6478    5.2252    6.4852 N   0  0  0  0  0  0  0  0  0  0  0  0
    0.2906    5.3100    6.5626 C   0  0  0  0  0  0  0  0  0  0  0  0
   -0.1705    5.2926    5.2811 C   0  0  0  0  0  0  0  0  0  0  0  0
    2.5528    5.2115    7.6437 C   0  0  0  0  0  0  0  0  0  0  0  0
    2.9532    6.6362    7.9907 C   0  0  0  0  0  0  0  0  0  0  0  0
    3.2667    7.7516    8.2623 C   0  0  0  0  0  0  0  0  0  0  0  0
   -0.4056    3.1787    2.0729 C   0  0  0  0  0  0  0  0  0  0  0  0
   -0.7441    3.7028    0.6868 C   0  0  0  0  0  0  0  0  0  0  0  0
   -1.9911    3.1668    0.2696 O   0  0  0  0  0  0  0  0  0  0  0  0
   -2.3073    3.6564   -1.0253 C   0  0  0  0  0  0  0  0  0  0  0  0
    0.4067   -4.0581    2.3177 H   0  0  0  0  0  0  0  0  0  0  0  0
    0.4410   -3.0514    3.6030 H   0  0  0  0  0  0  0  0  0  0  0  0
   -0.9242   -3.8731    3.2456 H   0  0  0  0  0  0  0  0  0  0  0  0
   -0.8699   -3.4752    0.3702 H   0  0  0  0  0  0  0  0  0  0  0  0
   -2.2009   -3.2901    1.2981 H   0  0  0  0  0  0  0  0  0  0  0  0
   -1.7042   -2.0719    0.3307 H   0  0  0  0  0  0  0  0  0  0  0  0
    2.1449    1.3473    4.7937 H   0  0  0  0  0  0  0  0  0  0  0  0
    1.6478    0.6902    7.0423 H   0  0  0  0  0  0  0  0  0  0  0  0
   -0.1751   -0.7917    7.4670 H   0  0  0  0  0  0  0  0  0  0  0  0
   -1.5093   -1.6275    5.6674 H   0  0  0  0  0  0  0  0  0  0  0  0
    1.1372   -0.1508    1.9535 H   0  0  0  0  0  0  0  0  0  0  0  0
    0.1325    1.1276    2.1049 H   0  0  0  0  0  0  0  0  0  0  0  0
    4.2939   -0.1313    4.5338 H   0  0  0  0  0  0  0  0  0  0  0  0
    5.1787   -1.8345    5.7595 H   0  0  0  0  0  0  0  0  0  0  0  0
    4.7744   -3.3407    5.2752 H   0  0  0  0  0  0  0  0  0  0  0  0
    6.2762   -2.7666    4.9891 H   0  0  0  0  0  0  0  0  0  0  0  0
    4.9418   -3.9191    0.3111 H   0  0  0  0  0  0  0  0  0  0  0  0
    4.2164   -3.0724   -1.7933 H   0  0  0  0  0  0  0  0  0  0  0  0
    3.3305   -0.8457   -1.9499 H   0  0  0  0  0  0  0  0  0  0  0  0
    3.1950    0.4867    0.0251 H   0  0  0  0  0  0  0  0  0  0  0  0
    0.1896    5.6441    2.5876 H   0  0  0  0  0  0  0  0  0  0  0  0
    1.8192    5.5395    2.5912 H   0  0  0  0  0  0  0  0  0  0  0  0
   -0.2588    5.3727    7.3958 H   0  0  0  0  0  0  0  0  0  0  0  0
   -1.1238    5.3402    4.9828 H   0  0  0  0  0  0  0  0  0  0  0  0
    3.3703    4.6802    7.4218 H   0  0  0  0  0  0  0  0  0  0  0  0
    2.0874    4.7963    8.4254 H   0  0  0  0  0  0  0  0  0  0  0  0
    3.5301    8.6888    8.4906 H   0  0  0  0  0  0  0  0  0  0  0  0
   -1.1192    3.4545    2.7169 H   0  0  0  0  0  0  0  0  0  0  0  0
   -0.3476    2.1808    2.0469 H   0  0  0  0  0  0  0  0  0  0  0  0
   -0.8021    4.7008    0.7127 H   0  0  0  0  0  0  0  0  0  0  0  0
   -0.0305    3.4270    0.0427 H   0  0  0  0  0  0  0  0  0  0  0  0
   -3.1855    3.2789   -1.3191 H   0  0  0  0  0  0  0  0  0  0  0  0
   -2.3653    4.6544   -0.9994 H   0  0  0  0  0  0  0  0  0  0  0  0
   -1.5937    3.3806   -1.6693 H   0  0  0  0  0  0  0  0  0  0  0  0
  1  2  2  0  0  0  0
  1  3  2  0  0  0  0
  1  4  1  0  0  0  0
  4  5  1  0  0  0  0
  4  6  1  0  0  0  0
  1  7  1  0  0  0  0
  7  8  1  0  0  0  0
  8  9  2  0  0  0  0
  9 10  1  0  0  0  0
 10 11  2  0  0  0  0
 11 12  1  0  0  0  0
 12  7  2  0  0  0  0
  8 13  1  0  0  0  0
 13 14  1  0  0  0  0
 14 15  1  0  0  0  0
 15 16  2  0  0  0  0
 16 17  1  0  0  0  0
 17 18  2  0  0  0  0
 18 14  1  0  0  0  0
 18 19  1  0  0  0  0
 19 20  1  0  0  0  0
 20 21  2  0  0  0  0
 21 22  1  0  0  0  0
 22 23  2  0  0  0  0
 23 24  1  0  0  0  0
 24 19  2  0  0  0  0
 23 25  1  0  0  0  0
 21 26  1  0  0  0  0
 26 27  2  0  0  0  0
 27 28  1  0  0  0  0
 28 29  2  0  0  0  0
 29 20  1  0  0  0  0
 15 30  1  0  0  0  0
 30 31  1  0  0  0  0
 31 32  1  0  0  0  0
 32 33  2  0  0  0  0
 33 34  1  0  0  0  0
 34 35  1  0  0  0  0
 35 36  2  0  0  0  0
 36 32  1  0  0  0  0
 34 37  1  0  0  0  0
 37 38  1  0  0  0  0
 38 39  3  0  0  0  0
 30 40  1  0  0  0  0
 40 41  1  0  0  0  0
 41 42  1  0  0  0  0
 42 43  1  0  0  0  0
  5 44  1  0  0  0  0
  5 45  1  0  0  0  0
  5 46  1  0  0  0  0
  6 47  1  0  0  0  0
  6 48  1  0  0  0  0
  6 49  1  0  0  0  0
  9 50  1  0  0  0  0
 10 51  1  0  0  0  0
 11 52  1  0  0  0  0
 12 53  1  0  0  0  0
 13 54  1  0  0  0  0
 13 55  1  0  0  0  0
 24 56  1  0  0  0  0
 25 57  1  0  0  0  0
 25 58  1  0  0  0  0
 25 59  1  0  0  0  0
 26 60  1  0  0  0  0
 27 61  1  0  0  0  0
 28 62  1  0  0  0  0
 29 63  1  0  0  0  0
 31 64  1  0  0  0  0
 31 65  1  0  0  0  0
 35 66  1  0  0  0  0
 36 67  1  0  0  0  0
 37 68  1  0  0  0  0
 37 69  1  0  0  0  0
 39 70  1  0  0  0  0
 40 71  1  0  0  0  0
 40 72  1  0  0  0  0
 41 73  1  0  0  0  0
 41 74  1  0  0  0  0
 43 75  1  0  0  0  0
 43 76  1  0  0  0  0
 43 77  1  0  0  0  0
M  END
>  <result-rank>
86

>  <similarity>
0.867

>  <query-name>


>  <query-smiles>
S(=O)(=O)(NC(=O)C)c1ccc(cc1)C=2N3N=CC=C(N4CCOCC4)C3=NC2/C=C/c5nc6c(cc5)cccc6

>  <source>
REALspace_2019-12

>  <similarity-descriptor>
0.936;0.843;0.797;0.885;0.883;1.000;1.000;0.528;0.528;0.995;0.797;0.883;0.200

>  <similarity-descriptor-smiles>
c1ccccc1C;CCOC;N1C=NN=C1;NCC=1C=CNN1;c1ccncc1;c1ccccc1;S(=O)=O;NC;NC;C;N1C=NN=C1;c1ccncc1;C.C.C.C

>  <reaction-name>
m_273170

>  <reagent1-name>
10756154

>  <reagent1-smiles>
[R2*]=C([R1*])N([R3*])Cc1c(S(=O)(=O)N(C)C)cccc1

>  <reagent2-name>
10764834

>  <reagent2-smiles>
[R1*]N(CC1=NN(C=C1)CC#C)CCOC

>  <reagent3-name>
10766516

>  <reagent3-smiles>
[R2*]=NN=C([R3*])c1c2c(nc(c1)C)cccc2

$$$$
m_273170____10756788____10760756____10766638
          04022017323D 1   1.00000     0.00000     0
            
 73 78  0  0  0  0            999 V2000
   -2.4260   -1.0362    6.3365 S   0  0  0  0  0  0  0  0  0  0  0  0
   -3.3864   -2.1049    6.2408 O   0  0  0  0  0  0  0  0  0  0  0  0
   -1.4382   -1.3662    7.3310 O   0  0  0  0  0  0  0  0  0  0  0  0
   -1.6475   -0.8164    4.7963 C   0  0  0  0  0  0  0  0  0  0  0  0
   -0.2604   -0.7451    4.7261 C   0  0  0  0  0  0  0  0  0  0  0  0
    0.3645   -0.5693    3.4957 C   0  0  0  0  0  0  0  0  0  0  0  0
   -0.4127   -0.4663    2.3470 C   0  0  0  0  0  0  0  0  0  0  0  0
   -1.8001   -0.5372    2.4180 C   0  0  0  0  0  0  0  0  0  0  0  0
   -2.4253   -0.7135    3.6475 C   0  0  0  0  0  0  0  0  0  0  0  0
    0.2650   -0.2731    1.0004 C   0  0  3  0  0  0  0  0  0  0  0  0
    1.0000    1.0000    1.0000 N   0  0  0  0  0  0  0  0  0  0  0  0
    2.4017    1.0000    1.0000 C   0  0  0  0  0  0  0  0  0  0  0  0
    3.1912   -0.0415    0.9092 N   0  0  0  0  0  0  0  0  0  0  0  0
    4.4560    0.3145    0.9442 N   0  0  0  0  0  0  0  0  0  0  0  0
    4.5040    1.6225    1.0607 C   0  0  0  0  0  0  0  0  0  0  0  0
    3.2232    2.0772    1.0979 N   0  0  0  0  0  0  0  0  0  0  0  0
    2.8010    3.4805    1.2209 C   0  0  0  0  0  0  0  0  0  0  0  0
    2.7709    3.8737    2.6885 C   0  0  0  0  0  0  0  0  0  0  0  0
    2.1846    3.2119    3.6571 N   0  0  0  0  0  0  0  0  0  0  0  0
    2.3647    3.8476    4.8006 N   0  0  0  0  0  0  0  0  0  0  0  0
    3.0727    4.9322    4.5885 C   0  0  0  0  0  0  0  0  0  0  0  0
    3.3414    4.9682    3.2534 N   0  0  0  0  0  0  0  0  0  0  0  0
    4.0747    5.9586    2.5887 C   0  0  0  0  0  0  0  0  0  0  0  0
    5.4262    6.1233    2.8744 C   0  0  0  0  0  0  0  0  0  0  0  0
    6.1515    7.1081    2.2118 C   0  0  0  0  0  0  0  0  0  0  0  0
    5.5248    7.9192    1.2718 C   0  0  0  0  0  0  0  0  0  0  0  0
    4.1732    7.7453    0.9937 C   0  0  0  0  0  0  0  0  0  0  0  0
    3.4378    6.7639    1.6501 C   0  0  0  0  0  0  0  0  0  0  0  0
    5.6999    2.4241    1.1349 C   0  0  0  0  0  0  0  0  0  0  0  0
    6.2409    3.1178    0.0852 N   0  0  0  0  0  0  0  0  0  0  0  0
    7.3333    3.7890    0.3515 C   0  0  0  0  0  0  0  0  0  0  0  0
    7.6762    3.5114    1.9953 S   0  0  0  0  0  0  0  0  0  0  0  0
    6.3468    2.4998    2.3268 C   0  0  0  0  0  0  0  0  0  0  0  0
    8.0835    4.5732   -0.5303 N   0  0  0  0  0  0  0  0  0  0  0  0
    7.9524    4.4697   -1.9920 C   0  0  0  0  0  0  0  0  0  0  0  0
    9.2685    4.8719   -2.6365 C   0  0  0  0  0  0  0  0  0  0  0  0
    9.6241    6.2265   -2.3727 O   0  0  0  0  0  0  0  0  0  0  0  0
    9.1818    6.6869   -1.0999 C   0  0  0  0  0  0  0  0  0  0  0  0
    9.0658    5.5671   -0.0762 C   0  0  0  0  0  0  0  0  0  0  0  0
    0.2650    2.2731    0.9996 C   0  0  0  0  0  0  0  0  0  0  0  0
   -0.7861   -0.2516   -0.0974 C   0  0  0  0  0  0  0  0  0  0  0  0
   -3.2706    0.4933    6.8094 C   0  0  0  0  0  0  0  0  0  0  0  0
    0.2873   -0.8201    5.5594 H   0  0  0  0  0  0  0  0  0  0  0  0
    1.3615   -0.5177    3.4378 H   0  0  0  0  0  0  0  0  0  0  0  0
   -2.3479   -0.4615    1.5849 H   0  0  0  0  0  0  0  0  0  0  0  0
   -3.4222   -0.7657    3.7052 H   0  0  0  0  0  0  0  0  0  0  0  0
    0.9024   -1.0260    0.8370 H   0  0  0  0  0  0  0  0  0  0  0  0
    1.8880    3.5896    0.8278 H   0  0  0  0  0  0  0  0  0  0  0  0
    3.4468    4.0670    0.7319 H   0  0  0  0  0  0  0  0  0  0  0  0
    3.3592    5.6020    5.2736 H   0  0  0  0  0  0  0  0  0  0  0  0
    5.8730    5.5381    3.5511 H   0  0  0  0  0  0  0  0  0  0  0  0
    7.1234    7.2329    2.4113 H   0  0  0  0  0  0  0  0  0  0  0  0
    6.0461    8.6276    0.7959 H   0  0  0  0  0  0  0  0  0  0  0  0
    3.7266    8.3302    0.3167 H   0  0  0  0  0  0  0  0  0  0  0  0
    2.4660    6.6391    1.4503 H   0  0  0  0  0  0  0  0  0  0  0  0
    6.1010    2.0649    3.1931 H   0  0  0  0  0  0  0  0  0  0  0  0
    7.2247    5.0788   -2.3073 H   0  0  0  0  0  0  0  0  0  0  0  0
    7.7304    3.5274   -2.2428 H   0  0  0  0  0  0  0  0  0  0  0  0
    9.9913    4.2777   -2.2835 H   0  0  0  0  0  0  0  0  0  0  0  0
    9.1899    4.7495   -3.6259 H   0  0  0  0  0  0  0  0  0  0  0  0
    8.2845    7.1146   -1.2088 H   0  0  0  0  0  0  0  0  0  0  0  0
    9.8348    7.3639   -0.7603 H   0  0  0  0  0  0  0  0  0  0  0  0
    9.9564    5.1261    0.0349 H   0  0  0  0  0  0  0  0  0  0  0  0
    8.7709    5.9483    0.8000 H   0  0  0  0  0  0  0  0  0  0  0  0
   -0.7182    2.0903    0.9996 H   0  0  0  0  0  0  0  0  0  0  0  0
    0.5066    2.7977    1.8159 H   0  0  0  0  0  0  0  0  0  0  0  0
    0.5066    2.7972    0.1829 H   0  0  0  0  0  0  0  0  0  0  0  0
   -1.2861   -1.1177   -0.0971 H   0  0  0  0  0  0  0  0  0  0  0  0
   -1.4235    0.5013    0.0661 H   0  0  0  0  0  0  0  0  0  0  0  0
   -0.3402   -0.1245   -0.9834 H   0  0  0  0  0  0  0  0  0  0  0  0
   -2.6037    1.2355    6.8759 H   0  0  0  0  0  0  0  0  0  0  0  0
   -3.9566    0.7225    6.1188 H   0  0  0  0  0  0  0  0  0  0  0  0
   -3.7181    0.3670    7.6947 H   0  0  0  0  0  0  0  0  0  0  0  0
  1  2  2  0  0  0  0
  1  3  2  0  0  0  0
  1  4  1  0  0  0  0
  4  5  1  0  0  0  0
  5  6  2  0  0  0  0
  6  7  1  0  0  0  0
  7  8  2  0  0  0  0
  8  9  1  0  0  0  0
  9  4  2  0  0  0  0
  7 10  1  0  0  0  0
 10 11  1  0  0  0  0
 11 12  1  0  0  0  0
 12 13  2  0  0  0  0
 13 14  1  0  0  0  0
 14 15  2  0  0  0  0
 15 16  1  0  0  0  0
 16 12  1  0  0  0  0
 16 17  1  0  0  0  0
 17 18  1  0  0  0  0
 18 19  2  0  0  0  0
 19 20  1  0  0  0  0
 20 21  2  0  0  0  0
 21 22  1  0  0  0  0
 22 18  1  0  0  0  0
 22 23  1  0  0  0  0
 23 24  1  0  0  0  0
 24 25  2  0  0  0  0
 25 26  1  0  0  0  0
 26 27  2  0  0  0  0
 27 28  1  0  0  0  0
 28 23  2  0  0  0  0
 15 29  1  0  0  0  0
 29 30  1  0  0  0  0
 30 31  2  0  0  0  0
 31 32  1  0  0  0  0
 32 33  1  0  0  0  0
 29 33  2  0  0  0  0
 31 34  1  0  0  0  0
 34 35  1  0  0  0  0
 35 36  1  0  0  0  0
 36 37  1  0  0  0  0
 37 38  1  0  0  0  0
 38 39  1  0  0  0  0
 39 34  1  0  0  0  0
 11 40  1  0  0  0  0
 10 41  1  0  0  0  0
  1 42  1  0  0  0  0
  5 43  1  0  0  0  0
  6 44  1  0  0  0  0
  8 45  1  0  0  0  0
  9 46  1  0  0  0  0
 10 47  1  0  0  0  0
 17 48  1  0  0  0  0
 17 49  1  0  0  0  0
 21 50  1  0  0  0  0
 24 51  1  0  0  0  0
 25 52  1  0  0  0  0
 26 53  1  0  0  0  0
 27 54  1  0  0  0  0
 28 55  1  0  0  0  0
 33 56  1  0  0  0  0
 35 57  1  0  0  0  0
 35 58  1  0  0  0  0
 36 59  1  0  0  0  0
 36 60  1  0  0  0  0
 38 61  1  0  0  0  0
 38 62  1  0  0  0  0
 39 63  1  0  0  0  0
 39 64  1  0  0  0  0
 40 65  1  0  0  0  0
 40 66  1  0  0  0  0
 40 67  1  0  0  0  0
 41 68  1  0  0  0  0
 41 69  1  0  0  0  0
 41 70  1  0  0  0  0
 42 71  1  0  0  0  0
 42 72  1  0  0  0  0
 42 73  1  0  0  0  0
M  END
>  <result-rank>
87

>  <similarity>
0.867

>  <query-name>


>  <query-smiles>
S(=O)(=O)(NC(=O)C)c1ccc(cc1)C=2N3N=CC=C(N4CCOCC4)C3=NC2/C=C/c5nc6c(cc5)cccc6

>  <source>
REALspace_2019-12

>  <similarity-descriptor>
0.941;1.000;0.797;0.961;0.768;0.941;0.881;0.0;0.0;0.0;0.797;0.253;0.154

>  <similarity-descriptor-smiles>
c1ccc(cc1)CN;N1CCOCC1;C=1NC=NN1;C1=CSC=N1;C=1NC=NN1;c1ccccc1;S(=O)(=O)C;;;;C=1NC=NN1;C;C.C

>  <reaction-name>
m_273170

>  <reagent1-name>
10756788

>  <reagent1-smiles>
[R2*]=C([R1*])N([R3*])CC1=NN=CN1c2ccccc2

>  <reagent2-name>
10760756

>  <reagent2-smiles>
[R1*]N(C(c1ccc(S(=O)(=O)C)cc1)C)C

>  <reagent3-name>
10766638

>  <reagent3-smiles>
[R2*]=NN=C([R3*])C=1N=C(SC1)N2CCOCC2

$$$$
m_273170____14050206____10761984____10766484
          04022017323D 1   1.00000     0.00000     0
            
 69 74  0  0  0  0            999 V2000
    6.0742    2.5052    1.0304 Cl  0  0  0  0  0  0  0  0  0  0  0  0
    5.3096    0.8997    0.9552 C   0  0  0  0  0  0  0  0  0  0  0  0
    5.9341   -0.2613    0.4095 C   0  0  0  0  0  0  0  0  0  0  0  0
    5.1137   -1.3617    0.4876 C   0  0  0  0  0  0  0  0  0  0  0  0
    3.6429   -0.9248    1.2123 S   0  0  0  0  0  0  0  0  0  0  0  0
    4.0465    0.7141    1.4356 C   0  0  0  0  0  0  0  0  0  0  0  0
    3.1893    1.7162    2.0355 C   0  0  0  0  0  0  0  0  0  0  0  0
    3.5695    2.6646    2.8617 N   0  0  0  0  0  0  0  0  0  0  0  0
    2.5076    3.3689    3.1840 N   0  0  0  0  0  0  0  0  0  0  0  0
    1.4341    2.9089    2.5903 C   0  0  0  0  0  0  0  0  0  0  0  0
    1.8491    1.8491    1.8491 N   0  0  0  0  0  0  0  0  0  0  0  0
    1.0000    1.0000    1.0000 C   0  0  0  0  0  0  0  0  0  0  0  0
    1.3249    1.2596   -0.4620 C   0  0  0  0  0  0  0  0  0  0  0  0
    0.4474    0.3821   -1.3395 C   0  0  0  0  0  0  0  0  0  0  0  0
   -0.7874    0.8587   -1.7664 C   0  0  0  0  0  0  0  0  0  0  0  0
   -1.5867    0.0523   -2.5703 C   0  0  0  0  0  0  0  0  0  0  0  0
   -1.1472   -1.2151   -2.9371 C   0  0  0  0  0  0  0  0  0  0  0  0
   -2.1894   -2.2618   -3.9832 S   0  0  0  0  0  0  0  0  0  0  0  0
   -1.9420   -3.6465   -3.6747 O   0  0  0  0  0  0  0  0  0  0  0  0
   -3.5752   -1.9559   -3.7392 O   0  0  0  0  0  0  0  0  0  0  0  0
   -1.8007   -1.9527   -5.7237 C   0  0  0  0  0  0  0  0  0  0  0  0
    0.0878   -1.6923   -2.5101 C   0  0  0  0  0  0  0  0  0  0  0  0
    0.8865   -0.8855   -1.7071 C   0  0  0  0  0  0  0  0  0  0  0  0
    0.1296    3.4105    2.6963 N   0  0  0  0  0  0  0  0  0  0  0  0
   -0.7709    2.9019    3.7410 C   0  0  0  0  0  0  0  0  0  0  0  0
   -0.1612    3.1694    5.1113 C   0  0  0  0  0  0  0  0  0  0  0  0
    0.3125    4.3183    5.5375 O   0  0  0  0  0  0  0  0  0  0  0  0
    0.7667    4.2052    6.7668 C   0  0  0  0  0  0  0  0  0  0  0  0
    0.5862    2.9148    7.1652 C   0  0  0  0  0  0  0  0  0  0  0  0
   -0.0193    2.2306    6.0858 C   0  0  0  0  0  0  0  0  0  0  0  0
   -0.3381    4.4452    1.7627 C   0  0  0  0  0  0  0  0  0  0  0  0
   -1.5432    3.9238    0.9884 C   0  0  3  0  0  0  0  0  0  0  0  0
   -2.7803    4.2030    1.6239 O   0  0  0  0  0  0  0  0  0  0  0  0
   -3.7811    4.0795    0.6308 C   0  0  0  0  0  0  0  0  0  0  0  0
   -3.1266    4.3992   -0.6983 C   0  0  0  0  0  0  0  0  0  0  0  0
   -1.7108    4.7383   -0.2816 C   0  0  0  0  0  0  0  0  0  0  0  0
    5.3574   -2.6572    0.0692 C   0  0  0  0  0  0  0  0  0  0  0  0
    6.6005   -2.8675   -0.5048 C   0  0  0  0  0  0  0  0  0  0  0  0
    7.4979   -1.8105   -0.6212 C   0  0  0  0  0  0  0  0  0  0  0  0
    7.1686   -0.5350   -0.1726 C   0  0  0  0  0  0  0  0  0  0  0  0
    0.0381    1.2137    1.1708 H   0  0  0  0  0  0  0  0  0  0  0  0
    1.1708    0.0381    1.2137 H   0  0  0  0  0  0  0  0  0  0  0  0
    1.1541    2.2214   -0.6757 H   0  0  0  0  0  0  0  0  0  0  0  0
    2.2867    1.0458   -0.6328 H   0  0  0  0  0  0  0  0  0  0  0  0
   -1.0974    1.7709   -1.4984 H   0  0  0  0  0  0  0  0  0  0  0  0
   -2.4764    0.3837   -2.8842 H   0  0  0  0  0  0  0  0  0  0  0  0
   -1.9725   -0.9911   -5.9379 H   0  0  0  0  0  0  0  0  0  0  0  0
   -0.8383   -2.1652   -5.8931 H   0  0  0  0  0  0  0  0  0  0  0  0
   -2.3765   -2.5310   -6.3017 H   0  0  0  0  0  0  0  0  0  0  0  0
    0.3976   -2.6047   -2.7776 H   0  0  0  0  0  0  0  0  0  0  0  0
    1.7766   -1.2167   -1.3940 H   0  0  0  0  0  0  0  0  0  0  0  0
   -0.8996    1.9176    3.6198 H   0  0  0  0  0  0  0  0  0  0  0  0
   -1.6548    3.3645    3.6733 H   0  0  0  0  0  0  0  0  0  0  0  0
    1.1732    4.9376    7.3130 H   0  0  0  0  0  0  0  0  0  0  0  0
    0.8346    2.5256    8.0522 H   0  0  0  0  0  0  0  0  0  0  0  0
   -0.2851    1.2673    6.0472 H   0  0  0  0  0  0  0  0  0  0  0  0
    0.3959    4.6734    1.1230 H   0  0  0  0  0  0  0  0  0  0  0  0
   -0.5997    5.2630    2.2753 H   0  0  0  0  0  0  0  0  0  0  0  0
   -1.4507    2.9490    0.7854 H   0  0  0  0  0  0  0  0  0  0  0  0
   -4.5252    4.7229    0.8109 H   0  0  0  0  0  0  0  0  0  0  0  0
   -4.1419    3.1470    0.6206 H   0  0  0  0  0  0  0  0  0  0  0  0
   -3.5701    5.1772   -1.1435 H   0  0  0  0  0  0  0  0  0  0  0  0
   -3.1452    3.6094   -1.3114 H   0  0  0  0  0  0  0  0  0  0  0  0
   -1.0513    4.4600   -0.9799 H   0  0  0  0  0  0  0  0  0  0  0  0
   -1.6112    5.7166   -0.1000 H   0  0  0  0  0  0  0  0  0  0  0  0
    4.6846   -3.3896    0.1736 H   0  0  0  0  0  0  0  0  0  0  0  0
    6.8524   -3.7772   -0.8350 H   0  0  0  0  0  0  0  0  0  0  0  0
    8.3945   -1.9701   -1.0342 H   0  0  0  0  0  0  0  0  0  0  0  0
    7.8356    0.2035   -0.2709 H   0  0  0  0  0  0  0  0  0  0  0  0
  1  2  1  0  0  0  0
  2  3  1  0  0  0  0
  3  4  1  0  0  0  0
  4  5  1  0  0  0  0
  5  6  1  0  0  0  0
  2  6  2  0  0  0  0
  6  7  1  0  0  0  0
  7  8  2  0  0  0  0
  8  9  1  0  0  0  0
  9 10  2  0  0  0  0
 10 11  1  0  0  0  0
 11  7  1  0  0  0  0
 11 12  1  0  0  0  0
 12 13  1  0  0  0  0
 13 14  1  0  0  0  0
 14 15  1  0  0  0  0
 15 16  2  0  0  0  0
 16 17  1  0  0  0  0
 17 18  1  0  0  0  0
 18 19  2  0  0  0  0
 18 20  2  0  0  0  0
 18 21  1  0  0  0  0
 17 22  2  0  0  0  0
 22 23  1  0  0  0  0
 23 14  2  0  0  0  0
 10 24  1  0  0  0  0
 24 25  1  0  0  0  0
 25 26  1  0  0  0  0
 26 27  1  0  0  0  0
 27 28  1  0  0  0  0
 28 29  2  0  0  0  0
 29 30  1  0  0  0  0
 26 30  2  0  0  0  0
 24 31  1  0  0  0  0
 31 32  1  0  0  0  0
 32 33  1  0  0  0  0
 33 34  1  0  0  0  0
 34 35  1  0  0  0  0
 35 36  1  0  0  0  0
 36 32  1  0  0  0  0
  4 37  2  0  0  0  0
 37 38  1  0  0  0  0
 38 39  2  0  0  0  0
 39 40  1  0  0  0  0
 40  3  2  0  0  0  0
 12 41  1  0  0  0  0
 12 42  1  0  0  0  0
 13 43  1  0  0  0  0
 13 44  1  0  0  0  0
 15 45  1  0  0  0  0
 16 46  1  0  0  0  0
 21 47  1  0  0  0  0
 21 48  1  0  0  0  0
 21 49  1  0  0  0  0
 22 50  1  0  0  0  0
 23 51  1  0  0  0  0
 25 52  1  0  0  0  0
 25 53  1  0  0  0  0
 28 54  1  0  0  0  0
 29 55  1  0  0  0  0
 30 56  1  0  0  0  0
 31 57  1  0  0  0  0
 31 58  1  0  0  0  0
 32 59  1  0  0  0  0
 34 60  1  0  0  0  0
 34 61  1  0  0  0  0
 35 62  1  0  0  0  0
 35 63  1  0  0  0  0
 36 64  1  0  0  0  0
 36 65  1  0  0  0  0
 37 66  1  0  0  0  0
 38 67  1  0  0  0  0
 39 68  1  0  0  0  0
 40 69  1  0  0  0  0
M  END
>  <result-rank>
88

>  <similarity>
0.867

>  <query-name>


>  <query-smiles>
S(=O)(=O)(NC(=O)C)c1ccc(cc1)C=2N3N=CC=C(N4CCOCC4)C3=NC2/C=C/c5nc6c(cc5)cccc6

>  <source>
REALspace_2019-12

>  <similarity-descriptor>
0.882;0.956;0.797;0.876;0.769;1.000;0.881;0.0;0.0;0.0;0.797;0.769;0.0

>  <similarity-descriptor-smiles>
CCc1ccccc1;CC1CCCO1;C=1NC=NN1;NCC1=CC=CO1;ClC1=CScc1;c1ccccc1;S(=O)(=O)C;;;;C=1NC=NN1;ClC1=CScc1;

>  <reaction-name>
m_273170

>  <reagent1-name>
14050206

>  <reagent1-smiles>
[R2*]=C([R1*])N([R3*])CCc1ccc(S(=O)(=O)C)cc1

>  <reagent2-name>
10761984

>  <reagent2-smiles>
[R1*]N(CC=1OC=CC1)CC2OCCC2

>  <reagent3-name>
10766484

>  <reagent3-smiles>
[R2*]=NN=C([R3*])C=1Sc2c(cccc2)C1Cl

$$$$
m_273170____10756572____10765544____10766598
          04022017323D 1   1.00000     0.00000     0
            
 65 69  0  0  0  0            999 V2000
    0.5723   -3.3799   -0.7862 S   0  0  0  0  0  0  0  0  0  0  0  0
    0.5607   -3.5940   -2.2102 O   0  0  0  0  0  0  0  0  0  0  0  0
    1.7814   -3.9281   -0.2283 O   0  0  0  0  0  0  0  0  0  0  0  0
   -0.7181   -4.1160   -0.1155 N   0  0  0  0  0  0  0  0  0  0  0  0
   -0.6595   -5.5580   -0.3947 C   0  0  0  0  0  0  0  0  0  0  0  0
    0.5030   -1.6727   -0.4558 C   0  0  0  0  0  0  0  0  0  0  0  0
    0.7321   -1.2104    0.8363 C   0  0  0  0  0  0  0  0  0  0  0  0
    0.6734    0.1566    1.0860 C   0  0  0  0  0  0  0  0  0  0  0  0
    0.3910    1.0585    0.0655 C   0  0  0  0  0  0  0  0  0  0  0  0
    0.1651    0.5755   -1.2193 C   0  0  0  0  0  0  0  0  0  0  0  0
    0.2186   -0.7879   -1.4906 C   0  0  0  0  0  0  0  0  0  0  0  0
    0.9245    0.6605    2.4981 C   0  0  0  0  0  0  0  0  0  0  0  0
    2.0806    1.5694    2.4959 N   0  0  0  0  0  0  0  0  0  0  0  0
    2.0315    2.9267    2.5008 C   0  0  0  0  0  0  0  0  0  0  0  0
    3.2789    3.3271    2.4974 N   0  0  0  0  0  0  0  0  0  0  0  0
    4.1071    2.3065    2.4903 N   0  0  0  0  0  0  0  0  0  0  0  0
    3.3905    1.2051    2.4893 C   0  0  0  0  0  0  0  0  0  0  0  0
    3.9082   -0.1502    2.4826 C   0  0  0  0  0  0  0  0  0  0  0  0
    3.1021   -1.1169    2.8825 N   0  0  0  0  0  0  0  0  0  0  0  0
    3.4762   -2.3841    2.9138 N   0  0  0  0  0  0  0  0  0  0  0  0
    4.7319   -2.7749    2.5315 C   0  0  0  0  0  0  0  0  0  0  0  0
    5.0130   -3.9619    2.5852 O   0  0  0  0  0  0  0  0  0  0  0  0
    5.6512   -1.7834    2.0913 C   0  0  0  0  0  0  0  0  0  0  0  0
    5.2361   -0.4563    2.0665 C   0  0  0  0  0  0  0  0  0  0  0  0
    6.1393    0.5157    1.6375 C   0  0  0  0  0  0  0  0  0  0  0  0
    7.4323    0.2025    1.2334 C   0  0  0  0  0  0  0  0  0  0  0  0
    7.8403   -1.1265    1.2601 C   0  0  0  0  0  0  0  0  0  0  0  0
    6.9457   -2.1015    1.6888 C   0  0  0  0  0  0  0  0  0  0  0  0
    0.8853    3.7336    2.5048 N   0  0  0  0  0  0  0  0  0  0  0  0
    0.9717    5.1351    2.0699 C   0  0  0  0  0  0  0  0  0  0  0  0
    0.7157    5.2181    0.5767 C   0  0  0  0  0  0  0  0  0  0  0  0
   -0.8079    5.4304   -0.1483 S   0  0  0  0  0  0  0  0  0  0  0  0
   -0.2418    5.4078   -1.7555 C   0  0  0  0  0  0  0  0  0  0  0  0
    1.0679    5.2448   -1.6893 N   0  0  0  0  0  0  0  0  0  0  0  0
    1.6245    5.1362   -0.4343 C   0  0  0  0  0  0  0  0  0  0  0  0
   -0.4030    3.1782    2.9437 C   0  0  0  0  0  0  0  0  0  0  0  0
   -0.7332    3.7006    4.3324 C   0  0  0  0  0  0  0  0  0  0  0  0
   -1.9179    3.0757    4.8039 O   0  0  0  0  0  0  0  0  0  0  0  0
   -2.2264    3.5637    6.1012 C   0  0  0  0  0  0  0  0  0  0  0  0
   -1.5577   -3.7353   -0.5030 H   0  0  0  0  0  0  0  0  0  0  0  0
   -1.4512   -6.0097    0.0168 H   0  0  0  0  0  0  0  0  0  0  0  0
   -0.6676   -5.7067   -1.3836 H   0  0  0  0  0  0  0  0  0  0  0  0
    0.1801   -5.9387   -0.0072 H   0  0  0  0  0  0  0  0  0  0  0  0
    0.9363   -1.8523    1.5754 H   0  0  0  0  0  0  0  0  0  0  0  0
    0.3511    2.0400    0.2528 H   0  0  0  0  0  0  0  0  0  0  0  0
   -0.0386    1.2175   -1.9584 H   0  0  0  0  0  0  0  0  0  0  0  0
    0.0548   -1.1271   -2.4169 H   0  0  0  0  0  0  0  0  0  0  0  0
    0.1164    1.1498    2.8260 H   0  0  0  0  0  0  0  0  0  0  0  0
    1.1116   -0.1154    3.1005 H   0  0  0  0  0  0  0  0  0  0  0  0
    2.8249   -3.0762    3.2250 H   0  0  0  0  0  0  0  0  0  0  0  0
    5.8467    1.4718    1.6199 H   0  0  0  0  0  0  0  0  0  0  0  0
    8.0581    0.9206    0.9289 H   0  0  0  0  0  0  0  0  0  0  0  0
    8.7651   -1.3781    0.9747 H   0  0  0  0  0  0  0  0  0  0  0  0
    7.2403   -3.0569    1.7086 H   0  0  0  0  0  0  0  0  0  0  0  0
    1.8840    5.4913    2.2720 H   0  0  0  0  0  0  0  0  0  0  0  0
    0.2868    5.6778    2.5562 H   0  0  0  0  0  0  0  0  0  0  0  0
   -0.7923    5.4998   -2.5852 H   0  0  0  0  0  0  0  0  0  0  0  0
    2.6043    5.0091   -0.2798 H   0  0  0  0  0  0  0  0  0  0  0  0
   -0.3448    2.1802    2.9681 H   0  0  0  0  0  0  0  0  0  0  0  0
   -1.1204    3.4548    2.3043 H   0  0  0  0  0  0  0  0  0  0  0  0
    0.0224    3.4948    4.9543 H   0  0  0  0  0  0  0  0  0  0  0  0
   -0.8716    4.6901    4.2921 H   0  0  0  0  0  0  0  0  0  0  0  0
   -3.0607    3.1237    6.4332 H   0  0  0  0  0  0  0  0  0  0  0  0
   -1.4708    3.3579    6.7231 H   0  0  0  0  0  0  0  0  0  0  0  0
   -2.3648    4.5533    6.0609 H   0  0  0  0  0  0  0  0  0  0  0  0
  1  2  2  0  0  0  0
  1  3  2  0  0  0  0
  1  4  1  0  0  0  0
  4  5  1  0  0  0  0
  1  6  1  0  0  0  0
  6  7  1  0  0  0  0
  7  8  2  0  0  0  0
  8  9  1  0  0  0  0
  9 10  2  0  0  0  0
 10 11  1  0  0  0  0
 11  6  2  0  0  0  0
  8 12  1  0  0  0  0
 12 13  1  0  0  0  0
 13 14  1  0  0  0  0
 14 15  2  0  0  0  0
 15 16  1  0  0  0  0
 16 17  2  0  0  0  0
 17 13  1  0  0  0  0
 17 18  1  0  0  0  0
 18 19  2  0  0  0  0
 19 20  1  0  0  0  0
 20 21  1  0  0  0  0
 21 22  2  0  0  0  0
 21 23  1  0  0  0  0
 23 24  1  0  0  0  0
 24 18  1  0  0  0  0
 24 25  2  0  0  0  0
 25 26  1  0  0  0  0
 26 27  2  0  0  0  0
 27 28  1  0  0  0  0
 28 23  2  0  0  0  0
 14 29  1  0  0  0  0
 29 30  1  0  0  0  0
 30 31  1  0  0  0  0
 31 32  1  0  0  0  0
 32 33  1  0  0  0  0
 33 34  2  0  0  0  0
 34 35  1  0  0  0  0
 31 35  2  0  0  0  0
 29 36  1  0  0  0  0
 36 37  1  0  0  0  0
 37 38  1  0  0  0  0
 38 39  1  0  0  0  0
  4 40  1  0  0  0  0
  5 41  1  0  0  0  0
  5 42  1  0  0  0  0
  5 43  1  0  0  0  0
  7 44  1  0  0  0  0
  9 45  1  0  0  0  0
 10 46  1  0  0  0  0
 11 47  1  0  0  0  0
 12 48  1  0  0  0  0
 12 49  1  0  0  0  0
 20 50  1  0  0  0  0
 25 51  1  0  0  0  0
 26 52  1  0  0  0  0
 27 53  1  0  0  0  0
 28 54  1  0  0  0  0
 30 55  1  0  0  0  0
 30 56  1  0  0  0  0
 33 57  1  0  0  0  0
 35 58  1  0  0  0  0
 36 59  1  0  0  0  0
 36 60  1  0  0  0  0
 37 61  1  0  0  0  0
 37 62  1  0  0  0  0
 39 63  1  0  0  0  0
 39 64  1  0  0  0  0
 39 65  1  0  0  0  0
M  END
>  <result-rank>
89

>  <similarity>
0.867

>  <query-name>


>  <query-smiles>
S(=O)(=O)(NC(=O)C)c1ccc(cc1)C=2N3N=CC=C(N4CCOCC4)C3=NC2/C=C/c5nc6c(cc5)cccc6

>  <source>
REALspace_2019-12

>  <similarity-descriptor>
0.936;0.843;0.797;0.899;0.727;1.000;1.000;0.733;0.733;0.733;0.797;0.727;0.0

>  <similarity-descriptor-smiles>
c1cccc(c1)C;CCOC;N1C=NN=C1;NCC1=CN=CS1;C=1ccC(NN1)=O;c1ccccc1;S(=O)=O;NC;NC;NC;N1C=NN=C1;C=1ccC(NN1)=O;

>  <reaction-name>
m_273170

>  <reagent1-name>
10756572

>  <reagent1-smiles>
[R2*]=C([R1*])N([R3*])Cc1cc(S(=O)(=O)NC)ccc1

>  <reagent2-name>
10765544

>  <reagent2-smiles>
[R1*]N(CC=1SC=NC1)CCOC

>  <reagent3-name>
10766598

>  <reagent3-smiles>
[R2*]=NN=C([R3*])C1=NNC(=O)c2c1cccc2

$$$$
m_273170____10756136____10763054____10755784
          04022017323D 1   1.00000     0.00000     0
            
 69 75  0  0  0  0            999 V2000
   -1.3582   10.4466    1.5899 O   0  5  0  0  0  0  0  0  0  0  0  0
   -0.5149    9.6080    1.3175 N   0  3  0  0  0  0  0  0  0  0  0  0
    0.2593    9.8018    0.4080 O   0  0  0  0  0  0  0  0  0  0  0  0
   -0.4429    8.4200    2.0583 C   0  0  0  0  0  0  0  0  0  0  0  0
    0.0279    7.2520    1.4655 C   0  0  0  0  0  0  0  0  0  0  0  0
    0.1094    6.0617    2.1807 C   0  0  0  0  0  0  0  0  0  0  0  0
   -0.2996    6.0787    3.5179 C   0  0  0  0  0  0  0  0  0  0  0  0
   -0.7721    7.2395    4.1224 C   0  0  0  0  0  0  0  0  0  0  0  0
   -0.8457    8.4183    3.3888 C   0  0  0  0  0  0  0  0  0  0  0  0
   -0.2343    4.8368    4.3911 C   0  0  0  0  0  0  0  0  0  0  0  0
   -0.2104    3.6229    3.4769 C   0  0  0  0  0  0  0  0  0  0  0  0
    0.8827    3.7354    2.5048 N   0  0  0  0  0  0  0  0  0  0  0  0
    2.0315    2.9267    2.5008 C   0  0  0  0  0  0  0  0  0  0  0  0
    3.2789    3.3271    2.4974 N   0  0  0  0  0  0  0  0  0  0  0  0
    4.1071    2.3065    2.4903 N   0  0  0  0  0  0  0  0  0  0  0  0
    3.3905    1.2051    2.4893 C   0  0  0  0  0  0  0  0  0  0  0  0
    2.0806    1.5694    2.4959 N   0  0  0  0  0  0  0  0  0  0  0  0
    0.9245    0.6605    2.4981 C   0  0  0  0  0  0  0  0  0  0  0  0
    0.8227   -0.0338    1.1484 C   0  0  0  0  0  0  0  0  0  0  0  0
    0.6563    0.6757   -0.0371 C   0  0  0  0  0  0  0  0  0  0  0  0
    0.5687    0.0398   -1.2143 N   0  0  0  0  0  0  0  0  0  0  0  0
    0.6373   -1.2973   -1.2993 C   0  0  0  0  0  0  0  0  0  0  0  0
    0.5467   -1.9606   -2.5284 N   0  0  0  0  0  0  0  0  0  0  0  0
    1.3088   -3.2025   -2.7324 C   0  0  0  0  0  0  0  0  0  0  0  0
    0.5618   -4.1553   -3.6529 C   0  0  0  0  0  0  0  0  0  0  0  0
    0.0558   -3.4822   -4.7986 O   0  0  0  0  0  0  0  0  0  0  0  0
   -0.9252   -2.5231   -4.4262 C   0  0  0  0  0  0  0  0  0  0  0  0
   -0.3268   -1.4121   -3.5770 C   0  0  0  0  0  0  0  0  0  0  0  0
    0.8034   -2.0647   -0.1504 C   0  0  0  0  0  0  0  0  0  0  0  0
    0.8958   -1.4208    1.0792 C   0  0  0  0  0  0  0  0  0  0  0  0
    3.9082   -0.1501    2.4826 C   0  0  0  0  0  0  0  0  0  0  0  0
    4.1576   -0.8108    1.3399 N   0  0  0  0  0  0  0  0  0  0  0  0
    4.6371   -2.0657    1.3234 C   0  0  0  0  0  0  0  0  0  0  0  0
    4.8935   -2.7279    2.5212 C   0  0  0  0  0  0  0  0  0  0  0  0
    4.6441   -2.0668    3.7194 C   0  0  0  0  0  0  0  0  0  0  0  0
    4.1470   -0.7671    3.7066 C   0  0  0  0  0  0  0  0  0  0  0  0
    5.3903   -4.0269    2.5379 C   0  0  0  0  0  0  0  0  0  0  0  0
    5.6328   -4.6709    1.3292 C   0  0  0  0  0  0  0  0  0  0  0  0
    5.3854   -4.0317    0.1190 C   0  0  0  0  0  0  0  0  0  0  0  0
    4.8886   -2.7323    0.1283 C   0  0  0  0  0  0  0  0  0  0  0  0
    0.6215    4.7939    1.5155 C   0  0  0  0  0  0  0  0  0  0  0  0
    0.3130    7.2689    0.5072 H   0  0  0  0  0  0  0  0  0  0  0  0
   -1.0576    7.2259    5.0807 H   0  0  0  0  0  0  0  0  0  0  0  0
   -1.1852    9.2572    3.8144 H   0  0  0  0  0  0  0  0  0  0  0  0
   -1.0367    4.7978    4.9866 H   0  0  0  0  0  0  0  0  0  0  0  0
    0.5948    4.8576    4.9498 H   0  0  0  0  0  0  0  0  0  0  0  0
   -0.0781    2.7985    4.0274 H   0  0  0  0  0  0  0  0  0  0  0  0
   -1.0807    3.5613    2.9883 H   0  0  0  0  0  0  0  0  0  0  0  0
    0.0893    1.1838    2.6675 H   0  0  0  0  0  0  0  0  0  0  0  0
    1.0403   -0.0245    3.2174 H   0  0  0  0  0  0  0  0  0  0  0  0
    0.6013    1.6738   -0.0107 H   0  0  0  0  0  0  0  0  0  0  0  0
    1.4522   -3.6471   -1.8482 H   0  0  0  0  0  0  0  0  0  0  0  0
    2.1939   -2.9796   -3.1409 H   0  0  0  0  0  0  0  0  0  0  0  0
    1.1868   -4.8774   -3.9497 H   0  0  0  0  0  0  0  0  0  0  0  0
   -0.2017   -4.5610   -3.1505 H   0  0  0  0  0  0  0  0  0  0  0  0
   -1.6441   -2.9805   -3.9028 H   0  0  0  0  0  0  0  0  0  0  0  0
   -1.3187   -2.1230   -5.2540 H   0  0  0  0  0  0  0  0  0  0  0  0
    0.2088   -0.8047   -4.1637 H   0  0  0  0  0  0  0  0  0  0  0  0
   -1.0667   -0.8940   -3.1480 H   0  0  0  0  0  0  0  0  0  0  0  0
    0.8554   -3.0617   -0.2077 H   0  0  0  0  0  0  0  0  0  0  0  0
    1.0150   -1.9565    1.9152 H   0  0  0  0  0  0  0  0  0  0  0  0
    4.8221   -2.5255    4.5900 H   0  0  0  0  0  0  0  0  0  0  0  0
    3.9644   -0.2845    4.5632 H   0  0  0  0  0  0  0  0  0  0  0  0
    5.5704   -4.4906    3.4054 H   0  0  0  0  0  0  0  0  0  0  0  0
    5.9895   -5.6051    1.3303 H   0  0  0  0  0  0  0  0  0  0  0  0
    5.5623   -4.5001   -0.7466 H   0  0  0  0  0  0  0  0  0  0  0  0
    4.7091   -2.2691   -0.7396 H   0  0  0  0  0  0  0  0  0  0  0  0
   -0.0641    4.4685    0.8643 H   0  0  0  0  0  0  0  0  0  0  0  0
    1.4705    5.0017    1.0296 H   0  0  0  0  0  0  0  0  0  0  0  0
  1  2  1  0  0  0  0
  2  3  2  0  0  0  0
  2  4  1  0  0  0  0
  4  5  1  0  0  0  0
  5  6  2  0  0  0  0
  6  7  1  0  0  0  0
  7  8  2  0  0  0  0
  8  9  1  0  0  0  0
  9  4  2  0  0  0  0
  7 10  1  0  0  0  0
 10 11  1  0  0  0  0
 11 12  1  0  0  0  0
 12 13  1  0  0  0  0
 13 14  2  0  0  0  0
 14 15  1  0  0  0  0
 15 16  2  0  0  0  0
 16 17  1  0  0  0  0
 17 13  1  0  0  0  0
 17 18  1  0  0  0  0
 18 19  1  0  0  0  0
 19 20  1  0  0  0  0
 20 21  2  0  0  0  0
 21 22  1  0  0  0  0
 22 23  1  0  0  0  0
 23 24  1  0  0  0  0
 24 25  1  0  0  0  0
 25 26  1  0  0  0  0
 26 27  1  0  0  0  0
 27 28  1  0  0  0  0
 28 23  1  0  0  0  0
 22 29  2  0  0  0  0
 29 30  1  0  0  0  0
 30 19  2  0  0  0  0
 16 31  1  0  0  0  0
 31 32  1  0  0  0  0
 32 33  2  0  0  0  0
 33 34  1  0  0  0  0
 34 35  2  0  0  0  0
 35 36  1  0  0  0  0
 36 31  2  0  0  0  0
 34 37  1  0  0  0  0
 37 38  2  0  0  0  0
 38 39  1  0  0  0  0
 39 40  2  0  0  0  0
 40 33  1  0  0  0  0
 12 41  1  0  0  0  0
 41  6  1  0  0  0  0
  5 42  1  0  0  0  0
  8 43  1  0  0  0  0
  9 44  1  0  0  0  0
 10 45  1  0  0  0  0
 10 46  1  0  0  0  0
 11 47  1  0  0  0  0
 11 48  1  0  0  0  0
 18 49  1  0  0  0  0
 18 50  1  0  0  0  0
 20 51  1  0  0  0  0
 24 52  1  0  0  0  0
 24 53  1  0  0  0  0
 25 54  1  0  0  0  0
 25 55  1  0  0  0  0
 27 56  1  0  0  0  0
 27 57  1  0  0  0  0
 28 58  1  0  0  0  0
 28 59  1  0  0  0  0
 29 60  1  0  0  0  0
 30 61  1  0  0  0  0
 35 62  1  0  0  0  0
 36 63  1  0  0  0  0
 37 64  1  0  0  0  0
 38 65  1  0  0  0  0
 39 66  1  0  0  0  0
 40 67  1  0  0  0  0
 41 68  1  0  0  0  0
 41 69  1  0  0  0  0
M  CHG  2   1  -1   2   1
M  END
>  <result-rank>
90

>  <similarity>
0.867

>  <query-name>


>  <query-smiles>
S(=O)(=O)(NC(=O)C)c1ccc(cc1)C=2N3N=CC=C(N4CCOCC4)C3=NC2/C=C/c5nc6c(cc5)cccc6

>  <source>
REALspace_2019-12

>  <similarity-descriptor>
0.722;1.000;0.797;0.842;0.935;1.000;0.975;0.0;0.0;0.0;0.797;0.935;0.0

>  <similarity-descriptor-smiles>
c1ccc2c(c1)CNCC2;N1CCOCC1;C=1NC=NN1;Cc1cccnc1;c1ccccn1;c1ccccc1;[O-][N+]=O;;;;C=1NC=NN1;c1ccccn1;

>  <reaction-name>
m_273170

>  <reagent1-name>
10756136

>  <reagent1-smiles>
[R2*]=C([R1*])N([R3*])Cc1cnc(N2CCOCC2)cc1

>  <reagent2-name>
10763054

>  <reagent2-smiles>
[R1*]N1Cc2c(ccc([N+]([O-])=O)c2)CC1

>  <reagent3-name>
10755784

>  <reagent3-smiles>
[R2*]=NN=C([R3*])c1nc2c(cc1)cccc2

$$$$
m_273170____10759452____10762390____10766740
          04022017323D 1   1.00000     0.00000     0
            
 71 76  0  0  0  0            999 V2000
    2.6150   -3.3935    4.7490 Br  0  0  0  0  0  0  0  0  0  0  0  0
    1.1922   -2.1937    4.1356 C   0  0  0  0  0  0  0  0  0  0  0  0
    1.2400   -1.6870    2.8412 C   0  0  0  0  0  0  0  0  0  0  0  0
    0.2272   -0.8357    2.4118 C   0  0  0  0  0  0  0  0  0  0  0  0
   -0.8170   -0.5001    3.2663 C   0  0  0  0  0  0  0  0  0  0  0  0
   -1.7814    0.3130    2.8443 F   0  0  0  0  0  0  0  0  0  0  0  0
   -0.8547   -1.0125    4.5591 C   0  0  0  0  0  0  0  0  0  0  0  0
    0.1531   -1.8640    4.9999 C   0  0  0  0  0  0  0  0  0  0  0  0
    0.2650   -0.2731    1.0004 C   0  0  0  0  0  0  0  0  0  0  0  0
    1.0000    1.0000    1.0000 N   0  0  0  0  0  0  0  0  0  0  0  0
    2.4017    1.0000    1.0000 C   0  0  0  0  0  0  0  0  0  0  0  0
    3.1912    1.0004    2.0455 N   0  0  0  0  0  0  0  0  0  0  0  0
    4.4560    1.0042    1.6877 N   0  0  0  0  0  0  0  0  0  0  0  0
    4.5040    1.0062    0.3746 C   0  0  0  0  0  0  0  0  0  0  0  0
    3.2232    1.0036   -0.0816 N   0  0  0  0  0  0  0  0  0  0  0  0
    2.8010    1.0039   -1.4903 C   0  0  0  0  0  0  0  0  0  0  0  0
    3.1211    2.3526   -2.1152 C   0  0  0  0  0  0  0  0  0  0  0  0
    2.5742    3.5325   -1.6214 C   0  0  0  0  0  0  0  0  0  0  0  0
    2.8657    4.7152   -2.1831 N   0  0  0  0  0  0  0  0  0  0  0  0
    3.6912    4.8066   -3.2366 C   0  0  0  0  0  0  0  0  0  0  0  0
    3.9966    6.0405   -3.8238 N   0  0  0  0  0  0  0  0  0  0  0  0
    5.0916    6.8988   -3.3470 C   0  0  0  0  0  0  0  0  0  0  0  0
    5.6185    7.7351   -4.5026 C   0  0  0  0  0  0  0  0  0  0  0  0
    4.6232    8.6003   -5.0440 O   0  0  0  0  0  0  0  0  0  0  0  0
    3.2962    8.0995   -4.9236 C   0  0  0  0  0  0  0  0  0  0  0  0
    3.2471    6.5797   -4.9671 C   0  0  0  0  0  0  0  0  0  0  0  0
    4.2662    3.6591   -3.7707 C   0  0  0  0  0  0  0  0  0  0  0  0
    5.0876    3.7210   -4.8144 F   0  0  0  0  0  0  0  0  0  0  0  0
    3.9803    2.4204   -3.2068 C   0  0  0  0  0  0  0  0  0  0  0  0
    5.7068    1.0103   -0.4351 C   0  0  0  0  0  0  0  0  0  0  0  0
    6.6048    2.0643   -0.3077 C   0  0  0  0  0  0  0  0  0  0  0  0
    7.7573    2.0630   -1.0854 C   0  0  0  0  0  0  0  0  0  0  0  0
    8.0145    1.0282   -1.9799 C   0  0  0  0  0  0  0  0  0  0  0  0
    7.1079   -0.0209   -2.0975 C   0  0  0  0  0  0  0  0  0  0  0  0
    5.9511   -0.0310   -1.3242 C   0  0  0  0  0  0  0  0  0  0  0  0
    9.1716    1.0321   -2.7502 C   0  0  0  0  0  0  0  0  0  0  0  0
   10.0741    2.0833   -2.6232 C   0  0  0  0  0  0  0  0  0  0  0  0
    9.8153    3.1177   -1.7307 C   0  0  0  0  0  0  0  0  0  0  0  0
    8.6590    3.1147   -0.9573 C   0  0  0  0  0  0  0  0  0  0  0  0
    0.2650    2.2731    0.9996 C   0  0  0  0  0  0  0  0  0  0  0  0
   -0.7439    2.2752   -0.1374 C   0  0  0  0  0  0  0  0  0  0  0  0
   -1.4539    3.5050   -0.1378 O   0  0  0  0  0  0  0  0  0  0  0  0
    1.9915   -1.9311    2.2282 H   0  0  0  0  0  0  0  0  0  0  0  0
   -1.6066   -0.7686    5.1718 H   0  0  0  0  0  0  0  0  0  0  0  0
    0.1310   -2.2352    5.9282 H   0  0  0  0  0  0  0  0  0  0  0  0
    0.7238   -0.9231    0.3946 H   0  0  0  0  0  0  0  0  0  0  0  0
   -0.6689   -0.1189    0.6779 H   0  0  0  0  0  0  0  0  0  0  0  0
    1.8164    0.8372   -1.5433 H   0  0  0  0  0  0  0  0  0  0  0  0
    3.2880    0.2836   -1.9844 H   0  0  0  0  0  0  0  0  0  0  0  0
    1.9551    3.4985   -0.8368 H   0  0  0  0  0  0  0  0  0  0  0  0
    5.8289    6.3285   -2.9847 H   0  0  0  0  0  0  0  0  0  0  0  0
    4.7522    7.5027   -2.6258 H   0  0  0  0  0  0  0  0  0  0  0  0
    6.3831    8.2901   -4.1751 H   0  0  0  0  0  0  0  0  0  0  0  0
    5.9375    7.1209   -5.2244 H   0  0  0  0  0  0  0  0  0  0  0  0
    2.7465    8.4608   -5.6767 H   0  0  0  0  0  0  0  0  0  0  0  0
    2.9134    8.4089   -4.0531 H   0  0  0  0  0  0  0  0  0  0  0  0
    2.2963    6.2740   -4.9181 H   0  0  0  0  0  0  0  0  0  0  0  0
    3.6579    6.2558   -5.8194 H   0  0  0  0  0  0  0  0  0  0  0  0
    4.3878    1.5878   -3.5819 H   0  0  0  0  0  0  0  0  0  0  0  0
    6.4247    2.8109    0.3328 H   0  0  0  0  0  0  0  0  0  0  0  0
    7.2877   -0.7677   -2.7379 H   0  0  0  0  0  0  0  0  0  0  0  0
    5.2982   -0.7838   -1.4073 H   0  0  0  0  0  0  0  0  0  0  0  0
    9.3538    0.2857   -3.3901 H   0  0  0  0  0  0  0  0  0  0  0  0
   10.9088    2.0950   -3.1737 H   0  0  0  0  0  0  0  0  0  0  0  0
   10.4669    3.8713   -1.6440 H   0  0  0  0  0  0  0  0  0  0  0  0
    8.4779    3.8604   -0.3161 H   0  0  0  0  0  0  0  0  0  0  0  0
    0.9078    3.0291    0.8762 H   0  0  0  0  0  0  0  0  0  0  0  0
   -0.2141    2.3816    1.8706 H   0  0  0  0  0  0  0  0  0  0  0  0
   -0.2647    2.1667   -1.0084 H   0  0  0  0  0  0  0  0  0  0  0  0
   -1.3867    1.5192   -0.0140 H   0  0  0  0  0  0  0  0  0  0  0  0
   -2.1176    3.5064   -0.8858 H   0  0  0  0  0  0  0  0  0  0  0  0
  1  2  1  0  0  0  0
  2  3  1  0  0  0  0
  3  4  2  0  0  0  0
  4  5  1  0  0  0  0
  5  6  1  0  0  0  0
  5  7  2  0  0  0  0
  7  8  1  0  0  0  0
  8  2  2  0  0  0  0
  4  9  1  0  0  0  0
  9 10  1  0  0  0  0
 10 11  1  0  0  0  0
 11 12  2  0  0  0  0
 12 13  1  0  0  0  0
 13 14  2  0  0  0  0
 14 15  1  0  0  0  0
 15 11  1  0  0  0  0
 15 16  1  0  0  0  0
 16 17  1  0  0  0  0
 17 18  1  0  0  0  0
 18 19  2  0  0  0  0
 19 20  1  0  0  0  0
 20 21  1  0  0  0  0
 21 22  1  0  0  0  0
 22 23  1  0  0  0  0
 23 24  1  0  0  0  0
 24 25  1  0  0  0  0
 25 26  1  0  0  0  0
 26 21  1  0  0  0  0
 20 27  2  0  0  0  0
 27 28  1  0  0  0  0
 27 29  1  0  0  0  0
 29 17  2  0  0  0  0
 14 30  1  0  0  0  0
 30 31  1  0  0  0  0
 31 32  2  0  0  0  0
 32 33  1  0  0  0  0
 33 34  2  0  0  0  0
 34 35  1  0  0  0  0
 35 30  2  0  0  0  0
 33 36  1  0  0  0  0
 36 37  2  0  0  0  0
 37 38  1  0  0  0  0
 38 39  2  0  0  0  0
 39 32  1  0  0  0  0
 10 40  1  0  0  0  0
 40 41  1  0  0  0  0
 41 42  1  0  0  0  0
  3 43  1  0  0  0  0
  7 44  1  0  0  0  0
  8 45  1  0  0  0  0
  9 46  1  0  0  0  0
  9 47  1  0  0  0  0
 16 48  1  0  0  0  0
 16 49  1  0  0  0  0
 18 50  1  0  0  0  0
 22 51  1  0  0  0  0
 22 52  1  0  0  0  0
 23 53  1  0  0  0  0
 23 54  1  0  0  0  0
 25 55  1  0  0  0  0
 25 56  1  0  0  0  0
 26 57  1  0  0  0  0
 26 58  1  0  0  0  0
 29 59  1  0  0  0  0
 31 60  1  0  0  0  0
 34 61  1  0  0  0  0
 35 62  1  0  0  0  0
 36 63  1  0  0  0  0
 37 64  1  0  0  0  0
 38 65  1  0  0  0  0
 39 66  1  0  0  0  0
 40 67  1  0  0  0  0
 40 68  1  0  0  0  0
 41 69  1  0  0  0  0
 41 70  1  0  0  0  0
 42 71  1  0  0  0  0
M  END
>  <result-rank>
91

>  <similarity>
0.867

>  <query-name>


>  <query-smiles>
S(=O)(=O)(NC(=O)C)c1ccc(cc1)C=2N3N=CC=C(N4CCOCC4)C3=NC2/C=C/c5nc6c(cc5)cccc6

>  <source>
REALspace_2019-12

>  <similarity-descriptor>
0.820;1.000;0.797;0.864;0.863;0.999;0.769;0.769;0.0;0.0;0.797;0.863;0.0

>  <similarity-descriptor-smiles>
Brc1ccc(c(c1)CNC)F;N1CCOCC1;C=1NC=NN1;Cc1cc(cnc1)F;c1ccccc1;c1ccccc1;CO;CO;;;C=1NC=NN1;c1ccccc1;

>  <reaction-name>
m_273170

>  <reagent1-name>
10759452

>  <reagent1-smiles>
[R2*]=C([R1*])N([R3*])Cc1cnc(N2CCOCC2)c(F)c1

>  <reagent2-name>
10762390

>  <reagent2-smiles>
[R1*]N(Cc1c(F)ccc(Br)c1)CCO

>  <reagent3-name>
10766740

>  <reagent3-smiles>
[R2*]=NN=C([R3*])c1cc2c(cc1)cccc2

$$$$
s_2____11687950____14411970____6887158
          04022017323D 1   1.00000     0.00000     0
            
 62 66  0  0  0  0            999 V2000
    8.8284    6.6374    4.0736 S   0  0  0  0  0  0  0  0  0  0  0  0
    8.0259    7.5628    4.8306 O   0  0  0  0  0  0  0  0  0  0  0  0
    9.9250    6.1772    4.8855 O   0  0  0  0  0  0  0  0  0  0  0  0
    9.4106    7.3828    2.7461 N   0  0  0  0  0  0  0  0  0  0  0  0
    7.8517    5.2797    3.5949 C   0  0  0  0  0  0  0  0  0  0  0  0
    8.0675    4.6778    2.3597 C   0  0  0  0  0  0  0  0  0  0  0  0
    7.2831    3.5932    1.9823 C   0  0  0  0  0  0  0  0  0  0  0  0
    6.2951    3.1226    2.8406 C   0  0  0  0  0  0  0  0  0  0  0  0
    5.5094    2.0301    2.4537 N   0  0  0  0  0  0  0  0  0  0  0  0
    4.2406    2.1295    2.4468 C   0  0  0  0  0  0  0  0  0  0  0  0
    3.3299    3.5681    2.4036 S   0  0  0  0  0  0  0  0  0  0  0  0
    1.7813    2.8529    2.4247 C   0  0  0  0  0  0  0  0  0  0  0  0
    2.0334    1.5154    2.4653 C   0  0  0  0  0  0  0  0  0  0  0  0
    3.3388    1.1121    2.4746 N   0  0  0  0  0  0  0  0  0  0  0  0
    3.7804   -0.2891    2.5193 C   0  0  0  0  0  0  0  0  0  0  0  0
    4.0464   -0.6908    3.9609 C   0  0  0  0  0  0  0  0  0  0  0  0
    4.4880   -2.0924    4.0056 N   0  0  0  0  0  0  0  0  0  0  0  0
    5.7367   -2.4966    3.9291 N   0  0  0  0  0  0  0  0  0  0  0  0
    5.7975   -3.8051    3.9996 C   0  0  0  0  0  0  0  0  0  0  0  0
    4.4673   -4.2591    4.1333 C   0  0  0  0  0  0  0  0  0  0  0  0
    3.6598   -3.1643    4.1375 C   0  0  0  0  0  0  0  0  0  0  0  0
    4.0217   -5.7097    4.2538 C   0  0  3  0  0  0  0  0  0  0  0  0
    3.2792   -5.9974    5.5465 C   0  0  0  0  0  0  0  0  0  0  0  0
    2.5448   -7.1760    5.2648 O   0  0  0  0  0  0  0  0  0  0  0  0
    2.3264   -7.2662    3.8650 C   0  0  0  0  0  0  0  0  0  0  0  0
    2.9371   -6.0277    3.2459 C   0  0  0  0  0  0  0  0  0  0  0  0
    0.9034    0.6099    2.4960 C   0  0  0  0  0  0  0  0  0  0  0  0
    0.3584    0.2077    3.7107 C   0  0  0  0  0  0  0  0  0  0  0  0
    0.8666    0.6479    4.8589 F   0  0  0  0  0  0  0  0  0  0  0  0
   -0.7271   -0.6620    3.7385 C   0  0  0  0  0  0  0  0  0  0  0  0
   -1.2612   -1.1242    2.5397 C   0  0  0  0  0  0  0  0  0  0  0  0
   -0.7149   -0.7206    1.3254 C   0  0  0  0  0  0  0  0  0  0  0  0
   -1.2356   -1.1705    0.1869 F   0  0  0  0  0  0  0  0  0  0  0  0
    0.3707    0.1491    1.2961 C   0  0  0  0  0  0  0  0  0  0  0  0
   -2.4476   -2.0756    2.5620 C   0  0  0  0  0  0  0  0  0  0  0  0
    6.0843    3.7290    4.0739 C   0  0  0  0  0  0  0  0  0  0  0  0
    6.8650    4.8142    4.4574 C   0  0  0  0  0  0  0  0  0  0  0  0
    9.9679    6.7401    2.2203 H   0  0  0  0  0  0  0  0  0  0  0  0
    8.6491    7.7023    2.1822 H   0  0  0  0  0  0  0  0  0  0  0  0
    8.7803    5.0218    1.7484 H   0  0  0  0  0  0  0  0  0  0  0  0
    7.4291    3.1529    1.0964 H   0  0  0  0  0  0  0  0  0  0  0  0
    0.8925    3.3109    2.4105 H   0  0  0  0  0  0  0  0  0  0  0  0
    4.6192   -0.3915    1.9845 H   0  0  0  0  0  0  0  0  0  0  0  0
    3.0671   -0.8758    2.1359 H   0  0  0  0  0  0  0  0  0  0  0  0
    4.7597   -0.1041    4.3442 H   0  0  0  0  0  0  0  0  0  0  0  0
    3.2075   -0.5884    4.4956 H   0  0  0  0  0  0  0  0  0  0  0  0
    6.6225   -4.3693    3.9655 H   0  0  0  0  0  0  0  0  0  0  0  0
    2.6633   -3.1500    4.2203 H   0  0  0  0  0  0  0  0  0  0  0  0
    4.7989   -6.3295    4.1457 H   0  0  0  0  0  0  0  0  0  0  0  0
    3.9206   -6.1494    6.2985 H   0  0  0  0  0  0  0  0  0  0  0  0
    2.6653   -5.2431    5.7793 H   0  0  0  0  0  0  0  0  0  0  0  0
    1.3459   -7.3002    3.6712 H   0  0  0  0  0  0  0  0  0  0  0  0
    2.7669   -8.0864    3.5001 H   0  0  0  0  0  0  0  0  0  0  0  0
    3.3197   -6.2189    2.3420 H   0  0  0  0  0  0  0  0  0  0  0  0
    2.2711   -5.2850    3.1757 H   0  0  0  0  0  0  0  0  0  0  0  0
   -1.1196   -0.9521    4.6113 H   0  0  0  0  0  0  0  0  0  0  0  0
    0.7632    0.4395    0.4234 H   0  0  0  0  0  0  0  0  0  0  0  0
   -2.7100   -2.2591    3.5094 H   0  0  0  0  0  0  0  0  0  0  0  0
   -3.2173   -1.6601    2.0774 H   0  0  0  0  0  0  0  0  0  0  0  0
   -2.1955   -2.9334    2.1139 H   0  0  0  0  0  0  0  0  0  0  0  0
    5.3715    3.3849    4.6851 H   0  0  0  0  0  0  0  0  0  0  0  0
    6.7186    5.2547    5.3431 H   0  0  0  0  0  0  0  0  0  0  0  0
  1  2  2  0  0  0  0
  1  3  2  0  0  0  0
  1  4  1  0  0  0  0
  1  5  1  0  0  0  0
  5  6  1  0  0  0  0
  6  7  2  0  0  0  0
  7  8  1  0  0  0  0
  8  9  1  0  0  0  0
  9 10  2  0  0  0  0
 10 11  1  0  0  0  0
 11 12  1  0  0  0  0
 12 13  2  0  0  0  0
 13 14  1  0  0  0  0
 14 10  1  0  0  0  0
 14 15  1  0  0  0  0
 15 16  1  0  0  0  0
 16 17  1  0  0  0  0
 17 18  1  0  0  0  0
 18 19  2  0  0  0  0
 19 20  1  0  0  0  0
 20 21  2  0  0  0  0
 21 17  1  0  0  0  0
 20 22  1  0  0  0  0
 22 23  1  0  0  0  0
 23 24  1  0  0  0  0
 24 25  1  0  0  0  0
 25 26  1  0  0  0  0
 26 22  1  0  0  0  0
 13 27  1  0  0  0  0
 27 28  1  0  0  0  0
 28 29  1  0  0  0  0
 28 30  2  0  0  0  0
 30 31  1  0  0  0  0
 31 32  2  0  0  0  0
 32 33  1  0  0  0  0
 32 34  1  0  0  0  0
 34 27  2  0  0  0  0
 31 35  1  0  0  0  0
  8 36  2  0  0  0  0
 36 37  1  0  0  0  0
 37  5  2  0  0  0  0
  4 38  1  0  0  0  0
  4 39  1  0  0  0  0
  6 40  1  0  0  0  0
  7 41  1  0  0  0  0
 12 42  1  0  0  0  0
 15 43  1  0  0  0  0
 15 44  1  0  0  0  0
 16 45  1  0  0  0  0
 16 46  1  0  0  0  0
 19 47  1  0  0  0  0
 21 48  1  0  0  0  0
 22 49  1  0  0  0  0
 23 50  1  0  0  0  0
 23 51  1  0  0  0  0
 25 52  1  0  0  0  0
 25 53  1  0  0  0  0
 26 54  1  0  0  0  0
 26 55  1  0  0  0  0
 30 56  1  0  0  0  0
 34 57  1  0  0  0  0
 35 58  1  0  0  0  0
 35 59  1  0  0  0  0
 35 60  1  0  0  0  0
 36 61  1  0  0  0  0
 37 62  1  0  0  0  0
M  END
>  <result-rank>
92

>  <similarity>
0.866

>  <query-name>


>  <query-smiles>
S(=O)(=O)(NC(=O)C)c1ccc(cc1)C=2N3N=CC=C(N4CCOCC4)C3=NC2/C=C/c5nc6c(cc5)cccc6

>  <source>
REALspace_2019-12

>  <similarity-descriptor>
0.998;0.976;0.822;0.829;0.878;0.0;1.000;0.588;0.0;0.0;0.878;0.878;0.091

>  <similarity-descriptor-smiles>
c1ccccc1;C1CCOC1;N=C1NC=CS1;CCN1C=CC=N1;c1cc(ccc1F)F;;S(=O)=O;N;;;c1cc(ccc1F)F;c1cc(ccc1F)F;C

>  <reaction-name>
s_2

>  <reagent1-name>
11687950

>  <reagent1-smiles>
[R1*]SC([R3*])=Nc1ccc(S(=O)(=O)N)cc1

>  <reagent2-name>
14411970

>  <reagent2-smiles>
[R2*]N([R3*])CCN1N=CC(=C1)C2COCC2

>  <reagent3-name>
6887158

>  <reagent3-smiles>
[R2*]C(c1c(F)cc(c(F)c1)C)=C[R1*]

$$$$
m_273170____10756572____10764088____10755784
          04022017323D 1   1.00000     0.00000     0
            
 70 74  0  0  0  0            999 V2000
    4.4639   -3.7888   -4.1528 S   0  0  0  0  0  0  0  0  0  0  0  0
    4.2423   -3.7194   -5.5739 O   0  0  0  0  0  0  0  0  0  0  0  0
    5.8752   -3.6970   -3.8819 O   0  0  0  0  0  0  0  0  0  0  0  0
    3.8921   -5.2047   -3.5823 N   0  0  0  0  0  0  0  0  0  0  0  0
    4.5911   -6.3169   -4.2421 C   0  0  0  0  0  0  0  0  0  0  0  0
    3.6364   -2.4722   -3.3717 C   0  0  0  0  0  0  0  0  0  0  0  0
    3.5542   -2.4359   -1.9833 C   0  0  0  0  0  0  0  0  0  0  0  0
    2.8897   -1.3776   -1.3725 C   0  0  0  0  0  0  0  0  0  0  0  0
    2.3122   -0.3635   -2.1291 C   0  0  0  0  0  0  0  0  0  0  0  0
    2.4059   -0.4188   -3.5159 C   0  0  0  0  0  0  0  0  0  0  0  0
    3.0655   -1.4684   -4.1471 C   0  0  0  0  0  0  0  0  0  0  0  0
    2.8010   -1.3388    0.1446 C   0  0  0  0  0  0  0  0  0  0  0  0
    3.2232   -0.0152    0.6266 N   0  0  0  0  0  0  0  0  0  0  0  0
    2.4017    1.0000    1.0000 C   0  0  0  0  0  0  0  0  0  0  0  0
    3.1912    1.9825    1.3572 N   0  0  0  0  0  0  0  0  0  0  0  0
    4.4560    1.6477    1.2313 N   0  0  0  0  0  0  0  0  0  0  0  0
    4.5040    0.4144    0.7803 C   0  0  0  0  0  0  0  0  0  0  0  0
    5.7072   -0.3453    0.4994 C   0  0  0  0  0  0  0  0  0  0  0  0
    5.6850   -1.6778    0.3262 N   0  0  0  0  0  0  0  0  0  0  0  0
    6.7936   -2.3919    0.0655 C   0  0  0  0  0  0  0  0  0  0  0  0
    8.0258   -1.7524   -0.0337 C   0  0  0  0  0  0  0  0  0  0  0  0
    8.0788   -0.3737    0.1417 C   0  0  0  0  0  0  0  0  0  0  0  0
    6.9147    0.3387    0.4100 C   0  0  0  0  0  0  0  0  0  0  0  0
    9.1971   -2.4523   -0.3037 C   0  0  0  0  0  0  0  0  0  0  0  0
    9.1356   -3.8310   -0.4789 C   0  0  0  0  0  0  0  0  0  0  0  0
    7.9143   -4.4901   -0.3833 C   0  0  0  0  0  0  0  0  0  0  0  0
    6.7547   -3.7706   -0.1131 C   0  0  0  0  0  0  0  0  0  0  0  0
    1.0000    1.0000    1.0000 N   0  0  0  0  0  0  0  0  0  0  0  0
    0.2650   -0.2731    1.0004 C   0  0  0  0  0  0  0  0  0  0  0  0
    0.0116   -0.7115    2.4343 C   0  0  0  0  0  0  0  0  0  0  0  0
   -1.1102   -0.5591    3.0938 O   0  0  0  0  0  0  0  0  0  0  0  0
   -0.9872   -1.0295    4.2615 N   0  0  0  0  0  0  0  0  0  0  0  0
    0.2263   -1.5050    4.3874 C   0  0  0  0  0  0  0  0  0  0  0  0
    0.8835   -1.3039    3.2122 N   0  0  0  0  0  0  0  0  0  0  0  0
    0.7998   -2.1624    5.6325 C   0  0  3  0  0  0  0  0  0  0  0  0
    0.3911   -3.5214    5.6812 O   0  0  0  0  0  0  0  0  0  0  0  0
    0.9268   -4.1353    6.8442 C   0  0  0  0  0  0  0  0  0  0  0  0
    0.4893   -5.5901    6.8964 C   0  0  0  0  0  0  0  0  0  0  0  0
    2.3175   -2.0909    5.5898 C   0  0  0  0  0  0  0  0  0  0  0  0
    0.2650    2.2731    0.9996 C   0  0  0  0  0  0  0  0  0  0  0  0
    2.9120   -5.2684   -3.7704 H   0  0  0  0  0  0  0  0  0  0  0  0
    4.2403   -7.1855   -3.8922 H   0  0  0  0  0  0  0  0  0  0  0  0
    4.4372   -6.2686   -5.2291 H   0  0  0  0  0  0  0  0  0  0  0  0
    5.5711   -6.2531   -4.0540 H   0  0  0  0  0  0  0  0  0  0  0  0
    3.9672   -3.1608   -1.4320 H   0  0  0  0  0  0  0  0  0  0  0  0
    1.8366    0.3944   -1.6827 H   0  0  0  0  0  0  0  0  0  0  0  0
    1.9932    0.3064   -4.0671 H   0  0  0  0  0  0  0  0  0  0  0  0
    3.1282   -1.5009   -5.1446 H   0  0  0  0  0  0  0  0  0  0  0  0
    1.8576   -1.5115    0.4279 H   0  0  0  0  0  0  0  0  0  0  0  0
    3.3990   -2.0408    0.5315 H   0  0  0  0  0  0  0  0  0  0  0  0
    8.9539    0.1055    0.0748 H   0  0  0  0  0  0  0  0  0  0  0  0
    6.9457    1.3301    0.5371 H   0  0  0  0  0  0  0  0  0  0  0  0
   10.0711   -1.9711   -0.3709 H   0  0  0  0  0  0  0  0  0  0  0  0
    9.9691   -4.3481   -0.6734 H   0  0  0  0  0  0  0  0  0  0  0  0
    7.8698   -5.4812   -0.5088 H   0  0  0  0  0  0  0  0  0  0  0  0
    5.8806   -4.2516   -0.0463 H   0  0  0  0  0  0  0  0  0  0  0  0
    0.8054   -0.9701    0.5293 H   0  0  0  0  0  0  0  0  0  0  0  0
   -0.6088   -0.1536    0.5290 H   0  0  0  0  0  0  0  0  0  0  0  0
    0.4663   -1.6847    6.4453 H   0  0  0  0  0  0  0  0  0  0  0  0
    0.5933   -3.6576    7.6570 H   0  0  0  0  0  0  0  0  0  0  0  0
    1.9253   -4.0883    6.8161 H   0  0  0  0  0  0  0  0  0  0  0  0
    0.8666   -6.0225    7.7154 H   0  0  0  0  0  0  0  0  0  0  0  0
   -0.5092   -5.6371    6.9245 H   0  0  0  0  0  0  0  0  0  0  0  0
    0.8228   -6.0678    6.0836 H   0  0  0  0  0  0  0  0  0  0  0  0
    2.6053   -1.1338    5.5555 H   0  0  0  0  0  0  0  0  0  0  0  0
    2.6947   -2.5232    6.4088 H   0  0  0  0  0  0  0  0  0  0  0  0
    2.6510   -2.5686    4.7770 H   0  0  0  0  0  0  0  0  0  0  0  0
   -0.7182    2.0903    0.9996 H   0  0  0  0  0  0  0  0  0  0  0  0
    0.5066    2.7977    1.8159 H   0  0  0  0  0  0  0  0  0  0  0  0
    0.5066    2.7972    0.1829 H   0  0  0  0  0  0  0  0  0  0  0  0
  1  2  2  0  0  0  0
  1  3  2  0  0  0  0
  1  4  1  0  0  0  0
  4  5  1  0  0  0  0
  1  6  1  0  0  0  0
  6  7  1  0  0  0  0
  7  8  2  0  0  0  0
  8  9  1  0  0  0  0
  9 10  2  0  0  0  0
 10 11  1  0  0  0  0
 11  6  2  0  0  0  0
  8 12  1  0  0  0  0
 12 13  1  0  0  0  0
 13 14  1  0  0  0  0
 14 15  2  0  0  0  0
 15 16  1  0  0  0  0
 16 17  2  0  0  0  0
 17 13  1  0  0  0  0
 17 18  1  0  0  0  0
 18 19  1  0  0  0  0
 19 20  2  0  0  0  0
 20 21  1  0  0  0  0
 21 22  2  0  0  0  0
 22 23  1  0  0  0  0
 23 18  2  0  0  0  0
 21 24  1  0  0  0  0
 24 25  2  0  0  0  0
 25 26  1  0  0  0  0
 26 27  2  0  0  0  0
 27 20  1  0  0  0  0
 14 28  1  0  0  0  0
 28 29  1  0  0  0  0
 29 30  1  0  0  0  0
 30 31  1  0  0  0  0
 31 32  1  0  0  0  0
 32 33  2  0  0  0  0
 33 34  1  0  0  0  0
 30 34  2  0  0  0  0
 33 35  1  0  0  0  0
 35 36  1  0  0  0  0
 36 37  1  0  0  0  0
 37 38  1  0  0  0  0
 35 39  1  0  0  0  0
 28 40  1  0  0  0  0
  4 41  1  0  0  0  0
  5 42  1  0  0  0  0
  5 43  1  0  0  0  0
  5 44  1  0  0  0  0
  7 45  1  0  0  0  0
  9 46  1  0  0  0  0
 10 47  1  0  0  0  0
 11 48  1  0  0  0  0
 12 49  1  0  0  0  0
 12 50  1  0  0  0  0
 22 51  1  0  0  0  0
 23 52  1  0  0  0  0
 24 53  1  0  0  0  0
 25 54  1  0  0  0  0
 26 55  1  0  0  0  0
 27 56  1  0  0  0  0
 29 57  1  0  0  0  0
 29 58  1  0  0  0  0
 35 59  1  0  0  0  0
 37 60  1  0  0  0  0
 37 61  1  0  0  0  0
 38 62  1  0  0  0  0
 38 63  1  0  0  0  0
 38 64  1  0  0  0  0
 39 65  1  0  0  0  0
 39 66  1  0  0  0  0
 39 67  1  0  0  0  0
 40 68  1  0  0  0  0
 40 69  1  0  0  0  0
 40 70  1  0  0  0  0
M  END
>  <result-rank>
93

>  <similarity>
0.866

>  <query-name>


>  <query-smiles>
S(=O)(=O)(NC(=O)C)c1ccc(cc1)C=2N3N=CC=C(N4CCOCC4)C3=NC2/C=C/c5nc6c(cc5)cccc6

>  <source>
REALspace_2019-12

>  <similarity-descriptor>
0.936;0.897;0.797;0.666;0.935;1.000;1.000;0.733;0.733;0.733;0.797;0.935;0.059

>  <similarity-descriptor-smiles>
c1cccc(c1)C;C(OCC)C;N1C=NN=C1;NCC1=NC=NO1;c1ccccn1;c1ccccc1;S(=O)=O;NC;NC;NC;N1C=NN=C1;c1ccccn1;C

>  <reaction-name>
m_273170

>  <reagent1-name>
10756572

>  <reagent1-smiles>
[R2*]=C([R1*])N([R3*])Cc1cc(S(=O)(=O)NC)ccc1

>  <reagent2-name>
10764088

>  <reagent2-smiles>
[R1*]N(CC=1ON=C(N1)C(OCC)C)C

>  <reagent3-name>
10755784

>  <reagent3-smiles>
[R2*]=NN=C([R3*])c1nc2c(cc1)cccc2

$$$$
s_270196____10336828____11682542
          04022017323D 1   1.00000     0.00000     0
            
 62 67  0  0  0  0            999 V2000
   -3.1132    4.5479    9.4605 F   0  0  0  0  0  0  0  0  0  0  0  0
   -4.3840    4.2338    9.2245 C   0  0  0  0  0  0  0  0  0  0  0  0
   -4.8137    4.0030    7.9209 C   0  0  0  0  0  0  0  0  0  0  0  0
   -3.8760    4.1056    6.8197 C   0  0  0  0  0  0  0  0  0  0  0  0
   -3.9119    3.1615    5.7987 C   0  0  0  0  0  0  0  0  0  0  0  0
   -3.0144    3.2571    4.7402 C   0  0  0  0  0  0  0  0  0  0  0  0
   -2.0916    4.2981    4.7172 C   0  0  0  0  0  0  0  0  0  0  0  0
   -1.1550    4.4005    3.6144 C   0  0  0  0  0  0  0  0  0  0  0  0
   -1.4109    5.2703    2.6256 N   0  0  0  0  0  0  0  0  0  0  0  0
   -0.5817    5.4087    1.5803 C   0  0  0  0  0  0  0  0  0  0  0  0
    0.5766    4.6392    1.5037 C   0  0  0  0  0  0  0  0  0  0  0  0
    0.8627    3.7287    2.5208 C   0  0  0  0  0  0  0  0  0  0  0  0
   -0.0143    3.6045    3.5943 C   0  0  0  0  0  0  0  0  0  0  0  0
    0.2623    2.6232    4.7229 C   0  0  0  0  0  0  0  0  0  0  0  0
    2.0505    2.8931    2.5095 C   0  0  0  0  0  0  0  0  0  0  0  0
    3.2897    3.3251    2.4953 O   0  0  0  0  0  0  0  0  0  0  0  0
    4.0828    2.3380    2.4895 N   0  0  0  0  0  0  0  0  0  0  0  0
    3.3784    1.2345    2.4974 C   0  0  0  0  0  0  0  0  0  0  0  0
    2.0616    1.5822    2.5110 N   0  0  0  0  0  0  0  0  0  0  0  0
    3.9317   -0.1800    2.4921 C   0  0  3  0  0  0  0  0  0  0  0  0
    3.4931   -0.8642    3.6565 O   0  0  0  0  0  0  0  0  0  0  0  0
    3.9563   -0.1791    4.8108 C   0  0  0  0  0  0  0  0  0  0  0  0
    3.4356   -0.9137    1.2560 C   0  0  0  0  0  0  0  0  0  0  0  0
    3.9633   -2.3181    1.2166 C   0  0  0  0  0  0  0  0  0  0  0  0
    4.5500   -1.2703    0.3148 C   0  0  0  0  0  0  0  0  0  0  0  0
    5.4508   -0.1298    2.4759 C   0  0  0  0  0  0  0  0  0  0  0  0
    1.4142    4.8102    0.4036 C   0  0  0  0  0  0  0  0  0  0  0  0
    1.1250    5.7186   -0.6070 C   0  0  0  0  0  0  0  0  0  0  0  0
    1.9704    5.8288   -1.6275 F   0  0  0  0  0  0  0  0  0  0  0  0
   -0.0348    6.4818   -0.5202 C   0  0  0  0  0  0  0  0  0  0  0  0
   -0.8800    6.3209    0.5730 C   0  0  0  0  0  0  0  0  0  0  0  0
   -2.0552    5.2426    5.7381 C   0  0  0  0  0  0  0  0  0  0  0  0
   -2.9532    5.1462    6.7966 C   0  0  0  0  0  0  0  0  0  0  0  0
   -6.1421    3.6749    7.6744 C   0  0  0  0  0  0  0  0  0  0  0  0
   -7.0416    3.5758    8.7308 C   0  0  0  0  0  0  0  0  0  0  0  0
   -6.6122    3.8063   10.0340 C   0  0  0  0  0  0  0  0  0  0  0  0
   -5.2835    4.1348   10.2806 C   0  0  0  0  0  0  0  0  0  0  0  0
   -4.5797    2.4177    5.8256 H   0  0  0  0  0  0  0  0  0  0  0  0
   -3.0324    2.5830    4.0017 H   0  0  0  0  0  0  0  0  0  0  0  0
    1.1192    2.1404    4.5423 H   0  0  0  0  0  0  0  0  0  0  0  0
    0.3359    3.1211    5.5870 H   0  0  0  0  0  0  0  0  0  0  0  0
   -0.4865    1.9629    4.7814 H   0  0  0  0  0  0  0  0  0  0  0  0
    3.6475   -0.6610    5.6308 H   0  0  0  0  0  0  0  0  0  0  0  0
    4.9557   -0.1461    4.8001 H   0  0  0  0  0  0  0  0  0  0  0  0
    3.5921    0.7522    4.8143 H   0  0  0  0  0  0  0  0  0  0  0  0
    2.5247   -0.7157    0.8938 H   0  0  0  0  0  0  0  0  0  0  0  0
    3.4033   -3.0520    0.8321 H   0  0  0  0  0  0  0  0  0  0  0  0
    4.4972   -2.6733    1.9839 H   0  0  0  0  0  0  0  0  0  0  0  0
    5.4745   -0.9275    0.4817 H   0  0  0  0  0  0  0  0  0  0  0  0
    4.3806   -1.3062   -0.6701 H   0  0  0  0  0  0  0  0  0  0  0  0
    5.7597    0.3520    1.6559 H   0  0  0  0  0  0  0  0  0  0  0  0
    5.7770    0.3526    3.2888 H   0  0  0  0  0  0  0  0  0  0  0  0
    5.8150   -1.0611    2.4724 H   0  0  0  0  0  0  0  0  0  0  0  0
    2.2485    4.2626    0.3395 H   0  0  0  0  0  0  0  0  0  0  0  0
   -0.2593    7.1409   -1.2380 H   0  0  0  0  0  0  0  0  0  0  0  0
   -1.7141    6.8689    0.6357 H   0  0  0  0  0  0  0  0  0  0  0  0
   -1.3875    5.9866    5.7113 H   0  0  0  0  0  0  0  0  0  0  0  0
   -2.9353    5.8200    7.5353 H   0  0  0  0  0  0  0  0  0  0  0  0
   -6.4510    3.5103    6.7376 H   0  0  0  0  0  0  0  0  0  0  0  0
   -7.9968    3.3388    8.5536 H   0  0  0  0  0  0  0  0  0  0  0  0
   -7.2590    3.7358   10.7934 H   0  0  0  0  0  0  0  0  0  0  0  0
   -4.9749    4.2997   11.2173 H   0  0  0  0  0  0  0  0  0  0  0  0
  1  2  1  0  0  0  0
  2  3  1  0  0  0  0
  3  4  1  0  0  0  0
  4  5  1  0  0  0  0
  5  6  2  0  0  0  0
  6  7  1  0  0  0  0
  7  8  1  0  0  0  0
  8  9  1  0  0  0  0
  9 10  2  0  0  0  0
 10 11  1  0  0  0  0
 11 12  2  0  0  0  0
 12 13  1  0  0  0  0
 13  8  2  0  0  0  0
 13 14  1  0  0  0  0
 12 15  1  0  0  0  0
 15 16  1  0  0  0  0
 16 17  1  0  0  0  0
 17 18  2  0  0  0  0
 18 19  1  0  0  0  0
 15 19  2  0  0  0  0
 18 20  1  0  0  0  0
 20 21  1  0  0  0  0
 21 22  1  0  0  0  0
 20 23  1  0  0  0  0
 23 24  1  0  0  0  0
 24 25  1  0  0  0  0
 25 23  1  0  0  0  0
 20 26  1  0  0  0  0
 11 27  1  0  0  0  0
 27 28  2  0  0  0  0
 28 29  1  0  0  0  0
 28 30  1  0  0  0  0
 30 31  2  0  0  0  0
 31 10  1  0  0  0  0
  7 32  2  0  0  0  0
 32 33  1  0  0  0  0
 33  4  2  0  0  0  0
  3 34  2  0  0  0  0
 34 35  1  0  0  0  0
 35 36  2  0  0  0  0
 36 37  1  0  0  0  0
 37  2  2  0  0  0  0
  5 38  1  0  0  0  0
  6 39  1  0  0  0  0
 14 40  1  0  0  0  0
 14 41  1  0  0  0  0
 14 42  1  0  0  0  0
 22 43  1  0  0  0  0
 22 44  1  0  0  0  0
 22 45  1  0  0  0  0
 23 46  1  0  0  0  0
 24 47  1  0  0  0  0
 24 48  1  0  0  0  0
 25 49  1  0  0  0  0
 25 50  1  0  0  0  0
 26 51  1  0  0  0  0
 26 52  1  0  0  0  0
 26 53  1  0  0  0  0
 27 54  1  0  0  0  0
 30 55  1  0  0  0  0
 31 56  1  0  0  0  0
 32 57  1  0  0  0  0
 33 58  1  0  0  0  0
 34 59  1  0  0  0  0
 35 60  1  0  0  0  0
 36 61  1  0  0  0  0
 37 62  1  0  0  0  0
M  END
>  <result-rank>
94

>  <similarity>
0.866

>  <query-name>


>  <query-smiles>
S(=O)(=O)(NC(=O)C)c1ccc(cc1)C=2N3N=CC=C(N4CCOCC4)C3=NC2/C=C/c5nc6c(cc5)cccc6

>  <source>
REALspace_2019-12

>  <similarity-descriptor>
0.959;0.999;0.937;0.663;0.846;0.966;0.0;0.0;0.0;0.0;0.937;0.846;0.182

>  <similarity-descriptor-smiles>
c1ccc(cc1)F;C(OC)C1CC1;c1ccccn1;C1=NC=NO1;c1ccccc1;Fc1ccccc1;;;;;c1ccccn1;c1ccccc1;C.C

>  <reaction-name>
s_270196

>  <reagent1-name>
10336828

>  <reagent1-smiles>
[R1*]=NC(=NO[R2*])C(OC)(C1CC1)C

>  <reagent2-name>
11682542

>  <reagent2-smiles>
[R1*]C([R2*])c1c2c(nc(c1C)c3ccc(c4c(F)cccc4)cc3)ccc(F)c2

$$$$
m_273170____10756572____10765316____10766638
          04022017323D 1   1.00000     0.00000     0
            
 68 73  0  0  0  0            999 V2000
    0.4648    3.7275    2.5286 S   0  0  0  0  0  0  0  0  0  0  0  0
   -0.5215    2.9336    3.2145 O   0  0  0  0  0  0  0  0  0  0  0  0
    0.6266    4.9857    3.2099 O   0  0  0  0  0  0  0  0  0  0  0  0
   -0.0243    3.9976    0.9974 N   0  0  0  0  0  0  0  0  0  0  0  0
    0.9826    4.8080    0.2972 C   0  0  0  0  0  0  0  0  0  0  0  0
    1.9834    2.8778    2.5111 C   0  0  0  0  0  0  0  0  0  0  0  0
    3.1753    3.5954    2.5018 C   0  0  0  0  0  0  0  0  0  0  0  0
    4.3816    2.9033    2.4878 C   0  0  0  0  0  0  0  0  0  0  0  0
    4.4082    1.5127    2.4838 C   0  0  0  0  0  0  0  0  0  0  0  0
    3.2052    0.8142    2.4933 C   0  0  0  0  0  0  0  0  0  0  0  0
    1.9876    1.4868    2.5069 C   0  0  0  0  0  0  0  0  0  0  0  0
    5.6831    3.6886    2.4782 C   0  0  0  0  0  0  0  0  0  0  0  0
    6.5734    3.1749    3.5300 N   0  0  0  0  0  0  0  0  0  0  0  0
    6.3955    3.3173    4.8690 C   0  0  0  0  0  0  0  0  0  0  0  0
    7.4138    2.7121    5.4287 N   0  0  0  0  0  0  0  0  0  0  0  0
    8.2191    2.1993    4.5252 N   0  0  0  0  0  0  0  0  0  0  0  0
    7.7214    2.4717    3.3400 C   0  0  0  0  0  0  0  0  0  0  0  0
    8.2966    2.0890    2.0642 C   0  0  0  0  0  0  0  0  0  0  0  0
    8.0866    0.8870    1.4424 N   0  0  0  0  0  0  0  0  0  0  0  0
    8.6947    0.7284    0.2937 C   0  0  0  0  0  0  0  0  0  0  0  0
    9.5665    2.1628    0.0123 S   0  0  0  0  0  0  0  0  0  0  0  0
    9.1072    2.9789    1.4348 C   0  0  0  0  0  0  0  0  0  0  0  0
    8.6529   -0.3940   -0.5418 N   0  0  0  0  0  0  0  0  0  0  0  0
    9.4196   -0.3838   -1.7975 C   0  0  0  0  0  0  0  0  0  0  0  0
    9.9205   -1.7780   -2.1417 C   0  0  0  0  0  0  0  0  0  0  0  0
    8.8955   -2.7515   -1.9888 O   0  0  0  0  0  0  0  0  0  0  0  0
    8.4983   -2.8544   -0.6276 C   0  0  0  0  0  0  0  0  0  0  0  0
    7.8624   -1.5646   -0.1318 C   0  0  0  0  0  0  0  0  0  0  0  0
    5.3452    3.9769    5.5183 N   0  0  0  0  0  0  0  0  0  0  0  0
    4.0953    3.3147    5.9264 C   0  0  0  0  0  0  0  0  0  0  0  0
    3.8918    3.6569    7.3887 C   0  0  0  0  0  0  0  0  0  0  0  0
    3.0514    3.0227    8.0034 O   0  0  0  0  0  0  0  0  0  0  0  0
    4.6278    4.6530    8.0429 N   0  0  0  0  0  0  0  0  0  0  0  0
    4.3519    4.9350    9.3867 C   0  0  0  0  0  0  0  0  0  0  0  0
    2.8917    5.5625    9.9898 S   0  0  0  0  0  0  0  0  0  0  0  0
    3.3321    5.6235   11.6374 C   0  0  0  0  0  0  0  0  0  0  0  0
    4.6107    5.1538   11.6848 C   0  0  0  0  0  0  0  0  0  0  0  0
    5.1930    4.7622   10.4469 C   0  0  0  0  0  0  0  0  0  0  0  0
    5.6849    5.4116    7.3640 C   0  0  0  0  0  0  0  0  0  0  0  0
    5.3519    5.3967    5.8822 C   0  0  0  0  0  0  0  0  0  0  0  0
   -0.8969    4.4859    1.0074 H   0  0  0  0  0  0  0  0  0  0  0  0
    0.6826    4.9738   -0.6423 H   0  0  0  0  0  0  0  0  0  0  0  0
    1.0950    5.6818    0.7703 H   0  0  0  0  0  0  0  0  0  0  0  0
    1.8553    4.3198    0.2871 H   0  0  0  0  0  0  0  0  0  0  0  0
    3.1648    4.5954    2.5052 H   0  0  0  0  0  0  0  0  0  0  0  0
    5.2795    1.0220    2.4742 H   0  0  0  0  0  0  0  0  0  0  0  0
    3.2159   -0.1857    2.4903 H   0  0  0  0  0  0  0  0  0  0  0  0
    1.1271    0.9773    2.5135 H   0  0  0  0  0  0  0  0  0  0  0  0
    6.1266    3.5879    1.5876 H   0  0  0  0  0  0  0  0  0  0  0  0
    5.4905    4.6552    2.6473 H   0  0  0  0  0  0  0  0  0  0  0  0
    9.3714    3.8953    1.7353 H   0  0  0  0  0  0  0  0  0  0  0  0
   10.2029    0.2296   -1.6974 H   0  0  0  0  0  0  0  0  0  0  0  0
    8.8317   -0.0558   -2.5370 H   0  0  0  0  0  0  0  0  0  0  0  0
   10.2365   -1.7850   -3.0904 H   0  0  0  0  0  0  0  0  0  0  0  0
   10.6813   -2.0090   -1.5352 H   0  0  0  0  0  0  0  0  0  0  0  0
    9.3030   -3.0554   -0.0689 H   0  0  0  0  0  0  0  0  0  0  0  0
    7.8361   -3.5983   -0.5380 H   0  0  0  0  0  0  0  0  0  0  0  0
    6.9413   -1.4868   -0.5132 H   0  0  0  0  0  0  0  0  0  0  0  0
    7.8088   -1.5894    0.8664 H   0  0  0  0  0  0  0  0  0  0  0  0
    4.1738    2.3246    5.8100 H   0  0  0  0  0  0  0  0  0  0  0  0
    3.3291    3.6547    5.3812 H   0  0  0  0  0  0  0  0  0  0  0  0
    2.7719    5.9368   12.4042 H   0  0  0  0  0  0  0  0  0  0  0  0
    5.1143    5.0876   12.5462 H   0  0  0  0  0  0  0  0  0  0  0  0
    6.1208    4.3986   10.3629 H   0  0  0  0  0  0  0  0  0  0  0  0
    6.5734    4.9808    7.5216 H   0  0  0  0  0  0  0  0  0  0  0  0
    5.7056    6.3522    7.7028 H   0  0  0  0  0  0  0  0  0  0  0  0
    4.4551    5.8074    5.7178 H   0  0  0  0  0  0  0  0  0  0  0  0
    6.0460    5.8917    5.3595 H   0  0  0  0  0  0  0  0  0  0  0  0
  1  2  2  0  0  0  0
  1  3  2  0  0  0  0
  1  4  1  0  0  0  0
  4  5  1  0  0  0  0
  1  6  1  0  0  0  0
  6  7  1  0  0  0  0
  7  8  2  0  0  0  0
  8  9  1  0  0  0  0
  9 10  2  0  0  0  0
 10 11  1  0  0  0  0
 11  6  2  0  0  0  0
  8 12  1  0  0  0  0
 12 13  1  0  0  0  0
 13 14  1  0  0  0  0
 14 15  2  0  0  0  0
 15 16  1  0  0  0  0
 16 17  2  0  0  0  0
 17 13  1  0  0  0  0
 17 18  1  0  0  0  0
 18 19  1  0  0  0  0
 19 20  2  0  0  0  0
 20 21  1  0  0  0  0
 21 22  1  0  0  0  0
 18 22  2  0  0  0  0
 20 23  1  0  0  0  0
 23 24  1  0  0  0  0
 24 25  1  0  0  0  0
 25 26  1  0  0  0  0
 26 27  1  0  0  0  0
 27 28  1  0  0  0  0
 28 23  1  0  0  0  0
 14 29  1  0  0  0  0
 29 30  1  0  0  0  0
 30 31  1  0  0  0  0
 31 32  2  0  0  0  0
 31 33  1  0  0  0  0
 33 34  1  0  0  0  0
 34 35  1  0  0  0  0
 35 36  1  0  0  0  0
 36 37  2  0  0  0  0
 37 38  1  0  0  0  0
 34 38  2  0  0  0  0
 33 39  1  0  0  0  0
 39 40  1  0  0  0  0
 40 29  1  0  0  0  0
  4 41  1  0  0  0  0
  5 42  1  0  0  0  0
  5 43  1  0  0  0  0
  5 44  1  0  0  0  0
  7 45  1  0  0  0  0
  9 46  1  0  0  0  0
 10 47  1  0  0  0  0
 11 48  1  0  0  0  0
 12 49  1  0  0  0  0
 12 50  1  0  0  0  0
 22 51  1  0  0  0  0
 24 52  1  0  0  0  0
 24 53  1  0  0  0  0
 25 54  1  0  0  0  0
 25 55  1  0  0  0  0
 27 56  1  0  0  0  0
 27 57  1  0  0  0  0
 28 58  1  0  0  0  0
 28 59  1  0  0  0  0
 30 60  1  0  0  0  0
 30 61  1  0  0  0  0
 36 62  1  0  0  0  0
 37 63  1  0  0  0  0
 38 64  1  0  0  0  0
 39 65  1  0  0  0  0
 39 66  1  0  0  0  0
 40 67  1  0  0  0  0
 40 68  1  0  0  0  0
M  END
>  <result-rank>
95

>  <similarity>
0.866

>  <query-name>


>  <query-smiles>
S(=O)(=O)(NC(=O)C)c1ccc(cc1)C=2N3N=CC=C(N4CCOCC4)C3=NC2/C=C/c5nc6c(cc5)cccc6

>  <source>
REALspace_2019-12

>  <similarity-descriptor>
0.936;1.000;0.805;0.961;0.612;0.929;1.000;0.733;0.733;0.733;0.612;0.612;0.0

>  <similarity-descriptor-smiles>
c1cccc(c1)C;N1CCOCC1;N1C=NN=C1;C1=CSC=N1;N1CCNC(C1)=O;C1=CC=CS1;S(=O)=O;NC;NC;NC;N1CCNC(C1)=O;N1CCNC(C1)=O;

>  <reaction-name>
m_273170

>  <reagent1-name>
10756572

>  <reagent1-smiles>
[R2*]=C([R1*])N([R3*])Cc1cc(S(=O)(=O)NC)ccc1

>  <reagent2-name>
10765316

>  <reagent2-smiles>
[R1*]N1CC(=O)N(C=2SC=CC2)CC1

>  <reagent3-name>
10766638

>  <reagent3-smiles>
[R2*]=NN=C([R3*])C=1N=C(SC1)N2CCOCC2

$$$$
m_270942____15422214____10151322____14068396
          04022017333D 1   1.00000     0.00000     0
            
 68 72  0  0  0  0            999 V2000
    0.2239    8.7666   -1.8073 S   0  0  0  0  0  0  0  0  0  0  0  0
    0.2786   10.1390   -1.3748 O   0  0  0  0  0  0  0  0  0  0  0  0
    1.2685    8.5242   -2.7684 O   0  0  0  0  0  0  0  0  0  0  0  0
   -1.2248    8.4702   -2.4930 N   0  0  0  0  0  0  0  0  0  0  0  0
    0.4423    7.7176   -0.4366 C   0  0  0  0  0  0  0  0  0  0  0  0
    1.5242    6.8447   -0.3988 C   0  0  0  0  0  0  0  0  0  0  0  0
    1.7009    6.0048    0.6960 C   0  0  0  0  0  0  0  0  0  0  0  0
    0.7864    6.0508    1.7428 C   0  0  0  0  0  0  0  0  0  0  0  0
   -0.2958    6.9239    1.7041 C   0  0  0  0  0  0  0  0  0  0  0  0
   -0.4727    7.7641    0.6103 C   0  0  0  0  0  0  0  0  0  0  0  0
    0.9743    5.1346    2.9407 C   0  0  3  0  0  0  0  0  0  0  0  0
    0.8853    3.7336    2.5048 N   0  0  0  0  0  0  0  0  0  0  0  0
    2.0315    2.9267    2.5008 C   0  0  0  0  0  0  0  0  0  0  0  0
    3.2789    3.3271    2.4974 N   0  0  0  0  0  0  0  0  0  0  0  0
    4.1071    2.3065    2.4903 N   0  0  0  0  0  0  0  0  0  0  0  0
    3.3905    1.2051    2.4893 C   0  0  0  0  0  0  0  0  0  0  0  0
    2.0806    1.5694    2.4959 N   0  0  0  0  0  0  0  0  0  0  0  0
    0.9245    0.6605    2.4981 C   0  0  0  0  0  0  0  0  0  0  0  0
    0.6118    0.2466    3.9175 C   0  0  0  0  0  0  0  0  0  0  0  0
    0.0939    1.0981    4.8503 N   0  0  0  0  0  0  0  0  0  0  0  0
   -0.1113    0.5680    6.0358 C   0  0  0  0  0  0  0  0  0  0  0  0
    0.3758   -1.0573    5.9438 S   0  0  0  0  0  0  0  0  0  0  0  0
    0.8529   -1.0337    4.3068 C   0  0  0  0  0  0  0  0  0  0  0  0
   -0.6224    1.1728    7.1827 N   0  0  0  0  0  0  0  0  0  0  0  0
   -1.9020    0.9000    7.5887 C   0  0  0  0  0  0  0  0  0  0  0  0
   -2.5829    0.1403    6.9569 O   0  0  0  0  0  0  0  0  0  0  0  0
   -2.4594    1.5596    8.8396 C   0  0  0  0  0  0  0  0  0  0  0  0
    0.2117    2.1034    7.9567 C   0  0  0  0  0  0  0  0  0  0  0  0
    3.9087   -0.1513    2.4826 C   0  0  0  0  0  0  0  0  0  0  0  0
    3.9856   -0.9295    1.3267 C   0  0  0  0  0  0  0  0  0  0  0  0
    4.4967   -2.2229    1.3997 C   0  0  0  0  0  0  0  0  0  0  0  0
    4.9171   -2.6974    2.6385 C   0  0  0  0  0  0  0  0  0  0  0  0
    4.8329   -1.9319    3.7369 N   0  0  0  0  0  0  0  0  0  0  0  0
    4.3440   -0.6836    3.6913 C   0  0  0  0  0  0  0  0  0  0  0  0
    4.5899   -3.0265    0.2683 C   0  0  0  0  0  0  0  0  0  0  0  0
    4.1646   -2.5276   -0.9582 C   0  0  0  0  0  0  0  0  0  0  0  0
    3.6499   -1.2408   -1.0655 C   0  0  0  0  0  0  0  0  0  0  0  0
    3.5680   -0.4602    0.0823 C   0  0  0  0  0  0  0  0  0  0  0  0
   -0.4056    3.1787    2.0729 C   0  0  0  0  0  0  0  0  0  0  0  0
   -0.1101    5.4153    3.9683 C   0  0  0  0  0  0  0  0  0  0  0  0
   -1.2627    7.5171   -2.7933 H   0  0  0  0  0  0  0  0  0  0  0  0
   -1.9502    8.6385   -1.8255 H   0  0  0  0  0  0  0  0  0  0  0  0
    2.1746    6.8207   -1.1581 H   0  0  0  0  0  0  0  0  0  0  0  0
    2.4769    5.3750    0.7300 H   0  0  0  0  0  0  0  0  0  0  0  0
   -0.9467    6.9474    2.4630 H   0  0  0  0  0  0  0  0  0  0  0  0
   -1.2484    8.3943    0.5766 H   0  0  0  0  0  0  0  0  0  0  0  0
    1.8718    5.3002    3.3495 H   0  0  0  0  0  0  0  0  0  0  0  0
    1.1372   -0.1508    1.9535 H   0  0  0  0  0  0  0  0  0  0  0  0
    0.1325    1.1276    2.1049 H   0  0  0  0  0  0  0  0  0  0  0  0
    1.2233   -1.7853    3.7610 H   0  0  0  0  0  0  0  0  0  0  0  0
   -1.7643    2.1573    9.2392 H   0  0  0  0  0  0  0  0  0  0  0  0
   -3.2660    2.1000    8.6003 H   0  0  0  0  0  0  0  0  0  0  0  0
   -2.7145    0.8555    9.5023 H   0  0  0  0  0  0  0  0  0  0  0  0
   -0.3072    2.4423    8.7415 H   0  0  0  0  0  0  0  0  0  0  0  0
    1.0307    1.6283    8.2786 H   0  0  0  0  0  0  0  0  0  0  0  0
    0.4791    2.8728    7.3765 H   0  0  0  0  0  0  0  0  0  0  0  0
    5.2876   -3.6234    2.7110 H   0  0  0  0  0  0  0  0  0  0  0  0
    4.2926   -0.1358    4.5263 H   0  0  0  0  0  0  0  0  0  0  0  0
    4.9588   -3.9535    0.3361 H   0  0  0  0  0  0  0  0  0  0  0  0
    4.2300   -3.1024   -1.7739 H   0  0  0  0  0  0  0  0  0  0  0  0
    3.3452   -0.8843   -1.9487 H   0  0  0  0  0  0  0  0  0  0  0  0
    3.1983    0.4663    0.0129 H   0  0  0  0  0  0  0  0  0  0  0  0
   -1.1105    3.8851    2.1379 H   0  0  0  0  0  0  0  0  0  0  0  0
   -0.3338    2.8657    1.1259 H   0  0  0  0  0  0  0  0  0  0  0  0
   -0.6507    2.4081    2.6611 H   0  0  0  0  0  0  0  0  0  0  0  0
   -0.0496    6.3684    4.2649 H   0  0  0  0  0  0  0  0  0  0  0  0
   -1.0075    5.2497    3.5595 H   0  0  0  0  0  0  0  0  0  0  0  0
    0.0136    4.8124    4.7565 H   0  0  0  0  0  0  0  0  0  0  0  0
  1  2  2  0  0  0  0
  1  3  2  0  0  0  0
  1  4  1  0  0  0  0
  1  5  1  0  0  0  0
  5  6  1  0  0  0  0
  6  7  2  0  0  0  0
  7  8  1  0  0  0  0
  8  9  2  0  0  0  0
  9 10  1  0  0  0  0
 10  5  2  0  0  0  0
  8 11  1  0  0  0  0
 11 12  1  0  0  0  0
 12 13  1  0  0  0  0
 13 14  2  0  0  0  0
 14 15  1  0  0  0  0
 15 16  2  0  0  0  0
 16 17  1  0  0  0  0
 17 13  1  0  0  0  0
 17 18  1  0  0  0  0
 18 19  1  0  0  0  0
 19 20  1  0  0  0  0
 20 21  2  0  0  0  0
 21 22  1  0  0  0  0
 22 23  1  0  0  0  0
 19 23  2  0  0  0  0
 21 24  1  0  0  0  0
 24 25  1  0  0  0  0
 25 26  2  0  0  0  0
 25 27  1  0  0  0  0
 24 28  1  0  0  0  0
 16 29  1  0  0  0  0
 29 30  1  0  0  0  0
 30 31  2  0  0  0  0
 31 32  1  0  0  0  0
 32 33  2  0  0  0  0
 33 34  1  0  0  0  0
 34 29  2  0  0  0  0
 31 35  1  0  0  0  0
 35 36  2  0  0  0  0
 36 37  1  0  0  0  0
 37 38  2  0  0  0  0
 38 30  1  0  0  0  0
 12 39  1  0  0  0  0
 11 40  1  0  0  0  0
  4 41  1  0  0  0  0
  4 42  1  0  0  0  0
  6 43  1  0  0  0  0
  7 44  1  0  0  0  0
  9 45  1  0  0  0  0
 10 46  1  0  0  0  0
 11 47  1  0  0  0  0
 18 48  1  0  0  0  0
 18 49  1  0  0  0  0
 23 50  1  0  0  0  0
 27 51  1  0  0  0  0
 27 52  1  0  0  0  0
 27 53  1  0  0  0  0
 28 54  1  0  0  0  0
 28 55  1  0  0  0  0
 28 56  1  0  0  0  0
 32 57  1  0  0  0  0
 34 58  1  0  0  0  0
 35 59  1  0  0  0  0
 36 60  1  0  0  0  0
 37 61  1  0  0  0  0
 38 62  1  0  0  0  0
 39 63  1  0  0  0  0
 39 64  1  0  0  0  0
 39 65  1  0  0  0  0
 40 66  1  0  0  0  0
 40 67  1  0  0  0  0
 40 68  1  0  0  0  0
M  END
>  <result-rank>
96

>  <similarity>
0.866

>  <query-name>


>  <query-smiles>
S(=O)(=O)(NC(=O)C)c1ccc(cc1)C=2N3N=CC=C(N4CCOCC4)C3=NC2/C=C/c5nc6c(cc5)cccc6

>  <source>
REALspace_2019-12

>  <similarity-descriptor>
0.941;0.716;0.797;0.884;0.936;0.999;1.000;0.588;0.0;0.0;0.797;0.936;0.125

>  <similarity-descriptor-smiles>
c1ccc(cc1)CN;N(C(=O)C)C;C=1NC=NN1;CC1=CSC=N1;c1cnccc1;c1ccccc1;S(=O)=O;N;;;C=1NC=NN1;c1cnccc1;C.C

>  <reaction-name>
m_270942

>  <reagent1-name>
15422214

>  <reagent1-smiles>
[R3*]=C([R2*])N([R1*])CC=1N=C(SC1)N(C(=O)C)C

>  <reagent2-name>
10151322

>  <reagent2-smiles>
[R2*]N(C(c1ccc(S(=O)(=O)N)cc1)C)C

>  <reagent3-name>
14068396

>  <reagent3-smiles>
[R3*]=NN=C([R1*])c1c2c(cnc1)cccc2

$$$$
m_273170____10759510____10760760____10766638
          04022017333D 1   1.00000     0.00000     0
            
 72 78  0  0  0  0            999 V2000
    5.3989   -2.0192    2.2162 S   0  0  0  0  0  0  0  0  0  0  0  0
    3.8395   -2.3879    2.7898 C   0  0  0  0  0  0  0  0  0  0  0  0
    3.1971   -1.2494    2.8665 N   0  0  0  0  0  0  0  0  0  0  0  0
    3.9050   -0.1416    2.4827 C   0  0  0  0  0  0  0  0  0  0  0  0
    3.3905    1.2051    2.4893 C   0  0  0  0  0  0  0  0  0  0  0  0
    4.1071    2.3065    2.4903 N   0  0  0  0  0  0  0  0  0  0  0  0
    3.2789    3.3271    2.4974 N   0  0  0  0  0  0  0  0  0  0  0  0
    2.0315    2.9267    2.5008 C   0  0  0  0  0  0  0  0  0  0  0  0
    2.0806    1.5694    2.4959 N   0  0  0  0  0  0  0  0  0  0  0  0
    0.9245    0.6605    2.4981 C   0  0  0  0  0  0  0  0  0  0  0  0
    0.6735    0.1569    1.0870 C   0  0  0  0  0  0  0  0  0  0  0  0
    0.5218   -1.2067    0.8605 C   0  0  0  0  0  0  0  0  0  0  0  0
    0.2898   -1.6778   -0.4279 C   0  0  0  0  0  0  0  0  0  0  0  0
    0.2178   -0.7762   -1.4845 C   0  0  0  0  0  0  0  0  0  0  0  0
    0.3683    0.5868   -1.2574 C   0  0  0  0  0  0  0  0  0  0  0  0
    0.5962    1.0598    0.0317 C   0  0  0  0  0  0  0  0  0  0  0  0
   -0.0222   -1.2652   -2.9052 C   0  0  0  0  0  0  0  0  0  0  0  0
    0.6026   -2.6341   -3.1199 C   0  0  0  0  0  0  0  0  0  0  0  0
    0.2771   -3.5634   -2.0259 N   0  0  0  0  0  0  0  0  0  0  0  0
    0.1105   -3.0852   -0.7201 C   0  0  0  0  0  0  0  0  0  0  0  0
   -0.2210   -3.8858    0.1413 O   0  0  0  0  0  0  0  0  0  0  0  0
    0.8853    3.7336    2.5048 N   0  0  0  0  0  0  0  0  0  0  0  0
   -0.4030    3.1782    2.9437 C   0  0  3  0  0  0  0  0  0  0  0  0
   -0.5608    3.3867    4.4405 C   0  0  0  0  0  0  0  0  0  0  0  0
   -0.8446    4.5230    5.0266 O   0  0  0  0  0  0  0  0  0  0  0  0
   -0.9064    4.3695    6.3348 C   0  0  0  0  0  0  0  0  0  0  0  0
   -0.6574    3.0582    6.6450 C   0  0  0  0  0  0  0  0  0  0  0  0
   -0.6876    2.6443    7.9764 C   0  0  0  0  0  0  0  0  0  0  0  0
   -0.9590    3.5429    9.0043 C   0  0  0  0  0  0  0  0  0  0  0  0
   -1.2056    4.8741    8.6864 C   0  0  0  0  0  0  0  0  0  0  0  0
   -1.1780    5.2754    7.3552 C   0  0  0  0  0  0  0  0  0  0  0  0
   -0.4328    2.4254    5.4003 C   0  0  0  0  0  0  0  0  0  0  0  0
   -1.5340    3.8825    2.2120 C   0  0  0  0  0  0  0  0  0  0  0  0
    0.9717    5.1351    2.0699 C   0  0  0  0  0  0  0  0  0  0  0  0
    5.1849   -0.3358    2.0717 C   0  0  0  0  0  0  0  0  0  0  0  0
    3.3567   -3.6583    3.1188 N   0  0  0  0  0  0  0  0  0  0  0  0
    1.9086   -3.8545    3.2892 C   0  0  0  0  0  0  0  0  0  0  0  0
    1.4923   -5.2500    2.8504 C   0  0  0  0  0  0  0  0  0  0  0  0
    2.3698   -6.2417    3.3685 O   0  0  0  0  0  0  0  0  0  0  0  0
    3.6769   -6.0872    2.8312 C   0  0  0  0  0  0  0  0  0  0  0  0
    4.3069   -4.7717    3.2630 C   0  0  0  0  0  0  0  0  0  0  0  0
    0.1164    1.1498    2.8260 H   0  0  0  0  0  0  0  0  0  0  0  0
    1.1116   -0.1154    3.1005 H   0  0  0  0  0  0  0  0  0  0  0  0
    0.5795   -1.8494    1.6245 H   0  0  0  0  0  0  0  0  0  0  0  0
    0.3127    1.2291   -2.0219 H   0  0  0  0  0  0  0  0  0  0  0  0
    0.7035    2.0401    0.1977 H   0  0  0  0  0  0  0  0  0  0  0  0
    0.3835   -0.6156   -3.5481 H   0  0  0  0  0  0  0  0  0  0  0  0
   -1.0069   -1.3254   -3.0689 H   0  0  0  0  0  0  0  0  0  0  0  0
    0.2611   -3.0142   -3.9795 H   0  0  0  0  0  0  0  0  0  0  0  0
    1.5960   -2.5315   -3.1722 H   0  0  0  0  0  0  0  0  0  0  0  0
    0.1745   -4.5398   -2.2156 H   0  0  0  0  0  0  0  0  0  0  0  0
   -0.4315    2.1999    2.7386 H   0  0  0  0  0  0  0  0  0  0  0  0
   -0.5110    1.6849    8.1966 H   0  0  0  0  0  0  0  0  0  0  0  0
   -0.9765    3.2361    9.9559 H   0  0  0  0  0  0  0  0  0  0  0  0
   -1.4011    5.5372    9.4089 H   0  0  0  0  0  0  0  0  0  0  0  0
   -1.3565    6.2326    7.1272 H   0  0  0  0  0  0  0  0  0  0  0  0
   -0.2209    1.4595    5.2522 H   0  0  0  0  0  0  0  0  0  0  0  0
   -2.4104    3.5047    2.5106 H   0  0  0  0  0  0  0  0  0  0  0  0
   -1.5055    4.8608    2.4171 H   0  0  0  0  0  0  0  0  0  0  0  0
   -1.4301    3.7452    1.2269 H   0  0  0  0  0  0  0  0  0  0  0  0
    0.0691    5.5606    2.1354 H   0  0  0  0  0  0  0  0  0  0  0  0
    1.6154    5.6270    2.6562 H   0  0  0  0  0  0  0  0  0  0  0  0
    1.2893    5.1712    1.1224 H   0  0  0  0  0  0  0  0  0  0  0  0
    5.8448    0.3473    1.7587 H   0  0  0  0  0  0  0  0  0  0  0  0
    1.4198   -3.1788    2.7373 H   0  0  0  0  0  0  0  0  0  0  0  0
    1.6730   -3.7310    4.2532 H   0  0  0  0  0  0  0  0  0  0  0  0
    0.5658   -5.4316    3.1799 H   0  0  0  0  0  0  0  0  0  0  0  0
    1.5055   -5.2941    1.8514 H   0  0  0  0  0  0  0  0  0  0  0  0
    3.6222   -6.1088    1.8329 H   0  0  0  0  0  0  0  0  0  0  0  0
    4.2502   -6.8419    3.1501 H   0  0  0  0  0  0  0  0  0  0  0  0
    4.5854   -4.8416    4.2208 H   0  0  0  0  0  0  0  0  0  0  0  0
    5.1098   -4.5918    2.6946 H   0  0  0  0  0  0  0  0  0  0  0  0
  1  2  1  0  0  0  0
  2  3  2  0  0  0  0
  3  4  1  0  0  0  0
  4  5  1  0  0  0  0
  5  6  2  0  0  0  0
  6  7  1  0  0  0  0
  7  8  2  0  0  0  0
  8  9  1  0  0  0  0
  9  5  1  0  0  0  0
  9 10  1  0  0  0  0
 10 11  1  0  0  0  0
 11 12  1  0  0  0  0
 12 13  2  0  0  0  0
 13 14  1  0  0  0  0
 14 15  2  0  0  0  0
 15 16  1  0  0  0  0
 16 11  2  0  0  0  0
 14 17  1  0  0  0  0
 17 18  1  0  0  0  0
 18 19  1  0  0  0  0
 19 20  1  0  0  0  0
 20 13  1  0  0  0  0
 20 21  2  0  0  0  0
  8 22  1  0  0  0  0
 22 23  1  0  0  0  0
 23 24  1  0  0  0  0
 24 25  1  0  0  0  0
 25 26  1  0  0  0  0
 26 27  1  0  0  0  0
 27 28  2  0  0  0  0
 28 29  1  0  0  0  0
 29 30  2  0  0  0  0
 30 31  1  0  0  0  0
 31 26  2  0  0  0  0
 27 32  1  0  0  0  0
 24 32  2  0  0  0  0
 23 33  1  0  0  0  0
 22 34  1  0  0  0  0
  4 35  2  0  0  0  0
 35  1  1  0  0  0  0
  2 36  1  0  0  0  0
 36 37  1  0  0  0  0
 37 38  1  0  0  0  0
 38 39  1  0  0  0  0
 39 40  1  0  0  0  0
 40 41  1  0  0  0  0
 41 36  1  0  0  0  0
 10 42  1  0  0  0  0
 10 43  1  0  0  0  0
 12 44  1  0  0  0  0
 15 45  1  0  0  0  0
 16 46  1  0  0  0  0
 17 47  1  0  0  0  0
 17 48  1  0  0  0  0
 18 49  1  0  0  0  0
 18 50  1  0  0  0  0
 19 51  1  0  0  0  0
 23 52  1  0  0  0  0
 28 53  1  0  0  0  0
 29 54  1  0  0  0  0
 30 55  1  0  0  0  0
 31 56  1  0  0  0  0
 32 57  1  0  0  0  0
 33 58  1  0  0  0  0
 33 59  1  0  0  0  0
 33 60  1  0  0  0  0
 34 61  1  0  0  0  0
 34 62  1  0  0  0  0
 34 63  1  0  0  0  0
 35 64  1  0  0  0  0
 37 65  1  0  0  0  0
 37 66  1  0  0  0  0
 38 67  1  0  0  0  0
 38 68  1  0  0  0  0
 40 69  1  0  0  0  0
 40 70  1  0  0  0  0
 41 71  1  0  0  0  0
 41 72  1  0  0  0  0
M  END
>  <result-rank>
97

>  <similarity>
0.865

>  <query-name>


>  <query-smiles>
S(=O)(=O)(NC(=O)C)c1ccc(cc1)C=2N3N=CC=C(N4CCOCC4)C3=NC2/C=C/c5nc6c(cc5)cccc6

>  <source>
REALspace_2019-12

>  <similarity-descriptor>
0.931;1.000;0.729;0.961;0.902;0.999;0.629;0.629;0.629;0.629;0.729;0.729;0.167

>  <similarity-descriptor-smiles>
Cc1ccccc1;N1CCOCC1;C=1NC=NN1;S1C=CN=C1;NCC1=CccO1;c1ccccc1;c1C(NCCc1)=O;c1C(NCCc1)=O;c1C(NCCc1)=O;c1C(NCCc1)=O;C=1NC=NN1;C=1NC=NN1;C.C

>  <reaction-name>
m_273170

>  <reagent1-name>
10759510

>  <reagent1-smiles>
[R2*]=C([R1*])N([R3*])Cc1cc2c(cc1)CCNC2=O

>  <reagent2-name>
10760760

>  <reagent2-smiles>
[R1*]N(C(C=1Oc2c(cccc2)C1)C)C

>  <reagent3-name>
10766638

>  <reagent3-smiles>
[R2*]=NN=C([R3*])C=1N=C(SC1)N2CCOCC2

$$$$
m_273170____10756572____10764092____10766526
          04022017333D 1   1.00000     0.00000     0
            
 80 84  0  0  0  0            999 V2000
    4.7317   -4.7052   -3.0407 S   0  0  0  0  0  0  0  0  0  0  0  0
    4.7110   -4.8573   -4.4725 O   0  0  0  0  0  0  0  0  0  0  0  0
    6.0956   -4.6194   -2.5868 O   0  0  0  0  0  0  0  0  0  0  0  0
    4.0081   -5.9907   -2.3474 N   0  0  0  0  0  0  0  0  0  0  0  0
    4.7268   -7.2177   -2.7203 C   0  0  0  0  0  0  0  0  0  0  0  0
    3.8809   -3.2527   -2.5993 C   0  0  0  0  0  0  0  0  0  0  0  0
    3.6881   -2.9476   -1.2557 C   0  0  0  0  0  0  0  0  0  0  0  0
    3.0063   -1.7835   -0.9174 C   0  0  0  0  0  0  0  0  0  0  0  0
    2.5200   -0.9282   -1.9005 C   0  0  0  0  0  0  0  0  0  0  0  0
    2.7235   -1.2518   -3.2380 C   0  0  0  0  0  0  0  0  0  0  0  0
    3.4024   -2.4113   -3.5982 C   0  0  0  0  0  0  0  0  0  0  0  0
    2.7968   -1.4510    0.5511 C   0  0  0  0  0  0  0  0  0  0  0  0
    3.2149   -0.0658    0.8039 N   0  0  0  0  0  0  0  0  0  0  0  0
    2.3988    1.0000    1.0000 C   0  0  0  0  0  0  0  0  0  0  0  0
    3.1798    2.0363    1.1836 N   0  0  0  0  0  0  0  0  0  0  0  0
    4.4443    1.6851    1.1237 N   0  0  0  0  0  0  0  0  0  0  0  0
    4.4927    0.3928    0.8918 C   0  0  0  0  0  0  0  0  0  0  0  0
    5.7577   -0.4384    0.7465 C   0  0  0  0  0  0  0  0  0  0  0  0
    6.6259   -0.1740    1.8387 O   0  0  0  0  0  0  0  0  0  0  0  0
    6.5057   -0.8806    2.9830 C   0  0  0  0  0  0  0  0  0  0  0  0
    7.4122   -0.7251    4.0272 C   0  0  0  0  0  0  0  0  0  0  0  0
    8.5133    0.2099    3.8982 C   0  0  0  0  0  0  0  0  0  0  0  0
    8.2621    1.5779    3.9217 C   0  0  0  0  0  0  0  0  0  0  0  0
    9.3211    2.4712    3.7967 C   0  0  0  0  0  0  0  0  0  0  0  0
   10.6197    1.9946    3.6510 C   0  0  0  0  0  0  0  0  0  0  0  0
   10.8587    0.6260    3.6294 C   0  0  0  0  0  0  0  0  0  0  0  0
    9.8083   -0.2775    3.7528 C   0  0  0  0  0  0  0  0  0  0  0  0
    7.2627   -1.4677    5.1946 C   0  0  0  0  0  0  0  0  0  0  0  0
    6.2073   -2.3652    5.3177 C   0  0  0  0  0  0  0  0  0  0  0  0
    5.3007   -2.5200    4.2741 C   0  0  0  0  0  0  0  0  0  0  0  0
    5.4498   -1.7778    3.1069 C   0  0  0  0  0  0  0  0  0  0  0  0
    1.0000    1.0000    1.0000 N   0  0  0  0  0  0  0  0  0  0  0  0
    0.2650   -0.2731    0.9989 C   0  0  0  0  0  0  0  0  0  0  0  0
   -0.2010   -0.5867    2.4014 C   0  0  0  0  0  0  0  0  0  0  0  0
   -1.5127   -0.5450    2.7876 N   0  0  0  0  0  0  0  0  0  0  0  0
   -1.7381   -0.8355    4.0429 C   0  0  0  0  0  0  0  0  0  0  0  0
   -0.2229   -1.1899    4.7354 S   0  0  0  0  0  0  0  0  0  0  0  0
    0.7195   -0.9345    3.3374 C   0  0  0  0  0  0  0  0  0  0  0  0
   -3.0520   -0.8789    4.8070 C   0  0  3  0  0  0  0  0  0  0  0  0
   -3.1114    0.2163    5.7090 O   0  0  0  0  0  0  0  0  0  0  0  0
   -4.3384    0.1757    6.4225 C   0  0  0  0  0  0  0  0  0  0  0  0
   -4.4021    1.3480    7.3880 C   0  0  0  0  0  0  0  0  0  0  0  0
   -4.2109   -0.7919    3.8274 C   0  0  0  0  0  0  0  0  0  0  0  0
    0.2650    2.2731    1.0011 C   0  0  0  0  0  0  0  0  0  0  0  0
    3.0610   -6.0503   -2.6626 H   0  0  0  0  0  0  0  0  0  0  0  0
    4.2829   -8.0063   -2.2949 H   0  0  0  0  0  0  0  0  0  0  0  0
    4.7125   -7.3233   -3.7146 H   0  0  0  0  0  0  0  0  0  0  0  0
    5.6740   -7.1581   -2.4050 H   0  0  0  0  0  0  0  0  0  0  0  0
    4.0351   -3.5570   -0.5428 H   0  0  0  0  0  0  0  0  0  0  0  0
    2.0312   -0.0927   -1.6494 H   0  0  0  0  0  0  0  0  0  0  0  0
    2.3768   -0.6421   -3.9508 H   0  0  0  0  0  0  0  0  0  0  0  0
    3.5444   -2.6369   -4.5620 H   0  0  0  0  0  0  0  0  0  0  0  0
    1.8292   -1.5545    0.7816 H   0  0  0  0  0  0  0  0  0  0  0  0
    3.3419   -2.0718    1.1145 H   0  0  0  0  0  0  0  0  0  0  0  0
    5.5193   -1.4095    0.7377 H   0  0  0  0  0  0  0  0  0  0  0  0
    6.2167   -0.2001   -0.1094 H   0  0  0  0  0  0  0  0  0  0  0  0
    7.3272    1.9166    4.0276 H   0  0  0  0  0  0  0  0  0  0  0  0
    9.1488    3.4561    3.8116 H   0  0  0  0  0  0  0  0  0  0  0  0
   11.3810    2.6367    3.5618 H   0  0  0  0  0  0  0  0  0  0  0  0
   11.7939    0.2877    3.5243 H   0  0  0  0  0  0  0  0  0  0  0  0
    9.9813   -1.2623    3.7371 H   0  0  0  0  0  0  0  0  0  0  0  0
    7.9141   -1.3560    5.9451 H   0  0  0  0  0  0  0  0  0  0  0  0
    6.1002   -2.8991    6.1563 H   0  0  0  0  0  0  0  0  0  0  0  0
    4.5416   -3.1649    4.3629 H   0  0  0  0  0  0  0  0  0  0  0  0
    4.7978   -1.8893    2.3568 H   0  0  0  0  0  0  0  0  0  0  0  0
    0.8656   -1.0044    0.6759 H   0  0  0  0  0  0  0  0  0  0  0  0
   -0.5271   -0.2001    0.3930 H   0  0  0  0  0  0  0  0  0  0  0  0
    1.7103   -1.0201    3.2322 H   0  0  0  0  0  0  0  0  0  0  0  0
   -3.1117   -1.7359    5.3188 H   0  0  0  0  0  0  0  0  0  0  0  0
   -4.3982   -0.6813    6.9344 H   0  0  0  0  0  0  0  0  0  0  0  0
   -5.1009    0.2329    5.7780 H   0  0  0  0  0  0  0  0  0  0  0  0
   -5.2662    1.3194    7.8905 H   0  0  0  0  0  0  0  0  0  0  0  0
   -3.6396    1.2908    8.0325 H   0  0  0  0  0  0  0  0  0  0  0  0
   -4.3423    2.2050    6.8762 H   0  0  0  0  0  0  0  0  0  0  0  0
   -4.1690   -1.5632    3.1922 H   0  0  0  0  0  0  0  0  0  0  0  0
   -5.0750   -0.8205    4.3299 H   0  0  0  0  0  0  0  0  0  0  0  0
   -4.1511    0.0651    3.3155 H   0  0  0  0  0  0  0  0  0  0  0  0
   -0.7182    2.0903    1.0009 H   0  0  0  0  0  0  0  0  0  0  0  0
    0.5066    2.7967    1.8180 H   0  0  0  0  0  0  0  0  0  0  0  0
    0.5066    2.7981    0.1850 H   0  0  0  0  0  0  0  0  0  0  0  0
  1  2  2  0  0  0  0
  1  3  2  0  0  0  0
  1  4  1  0  0  0  0
  4  5  1  0  0  0  0
  1  6  1  0  0  0  0
  6  7  1  0  0  0  0
  7  8  2  0  0  0  0
  8  9  1  0  0  0  0
  9 10  2  0  0  0  0
 10 11  1  0  0  0  0
 11  6  2  0  0  0  0
  8 12  1  0  0  0  0
 12 13  1  0  0  0  0
 13 14  1  0  0  0  0
 14 15  2  0  0  0  0
 15 16  1  0  0  0  0
 16 17  2  0  0  0  0
 17 13  1  0  0  0  0
 17 18  1  0  0  0  0
 18 19  1  0  0  0  0
 19 20  1  0  0  0  0
 20 21  1  0  0  0  0
 21 22  1  0  0  0  0
 22 23  1  0  0  0  0
 23 24  2  0  0  0  0
 24 25  1  0  0  0  0
 25 26  2  0  0  0  0
 26 27  1  0  0  0  0
 27 22  2  0  0  0  0
 21 28  2  0  0  0  0
 28 29  1  0  0  0  0
 29 30  2  0  0  0  0
 30 31  1  0  0  0  0
 31 20  2  0  0  0  0
 14 32  1  0  0  0  0
 32 33  1  0  0  0  0
 33 34  1  0  0  0  0
 34 35  1  0  0  0  0
 35 36  2  0  0  0  0
 36 37  1  0  0  0  0
 37 38  1  0  0  0  0
 34 38  2  0  0  0  0
 36 39  1  0  0  0  0
 39 40  1  0  0  0  0
 40 41  1  0  0  0  0
 41 42  1  0  0  0  0
 39 43  1  0  0  0  0
 32 44  1  0  0  0  0
  4 45  1  0  0  0  0
  5 46  1  0  0  0  0
  5 47  1  0  0  0  0
  5 48  1  0  0  0  0
  7 49  1  0  0  0  0
  9 50  1  0  0  0  0
 10 51  1  0  0  0  0
 11 52  1  0  0  0  0
 12 53  1  0  0  0  0
 12 54  1  0  0  0  0
 18 55  1  0  0  0  0
 18 56  1  0  0  0  0
 23 57  1  0  0  0  0
 24 58  1  0  0  0  0
 25 59  1  0  0  0  0
 26 60  1  0  0  0  0
 27 61  1  0  0  0  0
 28 62  1  0  0  0  0
 29 63  1  0  0  0  0
 30 64  1  0  0  0  0
 31 65  1  0  0  0  0
 33 66  1  0  0  0  0
 33 67  1  0  0  0  0
 38 68  1  0  0  0  0
 39 69  1  0  0  0  0
 41 70  1  0  0  0  0
 41 71  1  0  0  0  0
 42 72  1  0  0  0  0
 42 73  1  0  0  0  0
 42 74  1  0  0  0  0
 43 75  1  0  0  0  0
 43 76  1  0  0  0  0
 43 77  1  0  0  0  0
 44 78  1  0  0  0  0
 44 79  1  0  0  0  0
 44 80  1  0  0  0  0
M  END
>  <result-rank>
98

>  <similarity>
0.865

>  <query-name>


>  <query-smiles>
S(=O)(=O)(NC(=O)C)c1ccc(cc1)C=2N3N=CC=C(N4CCOCC4)C3=NC2/C=C/c5nc6c(cc5)cccc6

>  <source>
REALspace_2019-12

>  <similarity-descriptor>
0.936;0.897;0.797;0.878;0.857;0.942;1.000;0.733;0.733;0.733;0.797;0.252;0.053

>  <similarity-descriptor-smiles>
c1cccc(c1)C;C(OCC)C;N1C=NN=C1;NCC1=CSC=N1;Oc1ccccc1;c1ccccc1;S(=O)=O;NC;NC;NC;N1C=NN=C1;C;C

>  <reaction-name>
m_273170

>  <reagent1-name>
10756572

>  <reagent1-smiles>
[R2*]=C([R1*])N([R3*])Cc1cc(S(=O)(=O)NC)ccc1

>  <reagent2-name>
10764092

>  <reagent2-smiles>
[R1*]N(CC=1N=C(SC1)C(OCC)C)C

>  <reagent3-name>
10766526

>  <reagent3-smiles>
[R2*]=NN=C([R3*])COc1c(c2ccccc2)cccc1

$$$$
m_276910____14484388____14485638
          04022017333D 1   1.00000     0.00000     0
            
 42 46  0  0  0  0            999 V2000
   -0.5903    5.6352    2.5049 S   0  0  0  0  0  0  0  0  0  0  0  0
   -1.3607    4.1176    2.5146 C   0  0  0  0  0  0  0  0  0  0  0  0
   -0.4066    3.2208    2.5134 N   0  0  0  0  0  0  0  0  0  0  0  0
    0.8712    3.7137    2.5120 C   0  0  0  0  0  0  0  0  0  0  0  0
    2.0641    2.9042    2.5102 C   0  0  0  0  0  0  0  0  0  0  0  0
    3.2933    3.3605    2.5088 N   0  0  0  0  0  0  0  0  0  0  0  0
    4.1226    2.3431    2.5084 N   0  0  0  0  0  0  0  0  0  0  0  0
    3.3651    1.2114    2.5113 C   0  0  0  0  0  0  0  0  0  0  0  0
    2.0976    1.5437    2.5111 N   0  0  0  0  0  0  0  0  0  0  0  0
    3.8780   -0.1453    2.5109 C   0  0  0  0  0  0  0  0  0  0  0  0
    5.2452   -0.4015    2.5112 C   0  0  0  0  0  0  0  0  0  0  0  0
    5.6938   -1.6664    2.5111 N   0  0  0  0  0  0  0  0  0  0  0  0
    4.8560   -2.7154    2.5113 C   0  0  0  0  0  0  0  0  0  0  0  0
    3.4783   -2.5106    2.5103 C   0  0  0  0  0  0  0  0  0  0  0  0
    2.9842   -1.2107    2.5101 C   0  0  0  0  0  0  0  0  0  0  0  0
    2.5835   -3.5754    2.5111 C   0  0  0  0  0  0  0  0  0  0  0  0
    3.0768   -4.8763    2.5118 C   0  0  0  0  0  0  0  0  0  0  0  0
    4.4499   -5.0994    2.5148 C   0  0  0  0  0  0  0  0  0  0  0  0
    5.3303   -4.0221    2.5127 C   0  0  0  0  0  0  0  0  0  0  0  0
    1.0142    5.0644    2.5075 C   0  0  0  0  0  0  0  0  0  0  0  0
   -2.7417    3.8886    2.5143 N   0  0  0  0  0  0  0  0  0  0  0  0
   -3.2403    2.5044    2.5234 C   0  0  0  0  0  0  0  0  0  0  0  0
   -4.5497    2.4017    3.2905 C   0  0  0  0  0  0  0  0  0  0  0  0
   -5.4511    3.4377    2.9219 O   0  0  0  0  0  0  0  0  0  0  0  0
   -4.9343    4.7094    3.2913 C   0  0  0  0  0  0  0  0  0  0  0  0
   -3.6596    5.0377    2.5289 C   0  0  0  0  0  0  0  0  0  0  0  0
    5.1215    2.3901    2.5063 H   0  0  0  0  0  0  0  0  0  0  0  0
    5.8953    0.3584    2.5114 H   0  0  0  0  0  0  0  0  0  0  0  0
    1.9982   -1.0441    2.5094 H   0  0  0  0  0  0  0  0  0  0  0  0
    1.5976   -3.4080    2.5111 H   0  0  0  0  0  0  0  0  0  0  0  0
    2.4443   -5.6509    2.5102 H   0  0  0  0  0  0  0  0  0  0  0  0
    4.8043   -6.0345    2.5186 H   0  0  0  0  0  0  0  0  0  0  0  0
    6.3162   -4.1898    2.5121 H   0  0  0  0  0  0  0  0  0  0  0  0
    1.8606    5.5971    2.5060 H   0  0  0  0  0  0  0  0  0  0  0  0
   -2.5597    1.9145    2.9579 H   0  0  0  0  0  0  0  0  0  0  0  0
   -3.3889    2.2041    1.5812 H   0  0  0  0  0  0  0  0  0  0  0  0
   -4.9730    1.5173    3.0941 H   0  0  0  0  0  0  0  0  0  0  0  0
   -4.3589    2.4699    4.2698 H   0  0  0  0  0  0  0  0  0  0  0  0
   -4.7350    4.7067    4.2712 H   0  0  0  0  0  0  0  0  0  0  0  0
   -5.6207    5.4090    3.0927 H   0  0  0  0  0  0  0  0  0  0  0  0
   -3.8950    5.2799    1.5877 H   0  0  0  0  0  0  0  0  0  0  0  0
   -3.2061    5.8127    2.9691 H   0  0  0  0  0  0  0  0  0  0  0  0
  1  2  1  0  0  0  0
  2  3  2  0  0  0  0
  3  4  1  0  0  0  0
  4  5  1  0  0  0  0
  5  6  2  0  0  0  0
  6  7  1  0  0  0  0
  7  8  1  0  0  0  0
  8  9  2  0  0  0  0
  9  5  1  0  0  0  0
  8 10  1  0  0  0  0
 10 11  1  0  0  0  0
 11 12  2  0  0  0  0
 12 13  1  0  0  0  0
 13 14  2  0  0  0  0
 14 15  1  0  0  0  0
 15 10  2  0  0  0  0
 14 16  1  0  0  0  0
 16 17  2  0  0  0  0
 17 18  1  0  0  0  0
 18 19  2  0  0  0  0
 19 13  1  0  0  0  0
  4 20  2  0  0  0  0
 20  1  1  0  0  0  0
  2 21  1  0  0  0  0
 21 22  1  0  0  0  0
 22 23  1  0  0  0  0
 23 24  1  0  0  0  0
 24 25  1  0  0  0  0
 25 26  1  0  0  0  0
 26 21  1  0  0  0  0
  7 27  1  0  0  0  0
 11 28  1  0  0  0  0
 15 29  1  0  0  0  0
 16 30  1  0  0  0  0
 17 31  1  0  0  0  0
 18 32  1  0  0  0  0
 19 33  1  0  0  0  0
 20 34  1  0  0  0  0
 22 35  1  0  0  0  0
 22 36  1  0  0  0  0
 23 37  1  0  0  0  0
 23 38  1  0  0  0  0
 25 39  1  0  0  0  0
 25 40  1  0  0  0  0
 26 41  1  0  0  0  0
 26 42  1  0  0  0  0
M  END
>  <result-rank>
99

>  <similarity>
0.865

>  <query-name>


>  <query-smiles>
S(=O)(=O)(NC(=O)C)c1ccc(cc1)C=2N3N=CC=C(N4CCOCC4)C3=NC2/C=C/c5nc6c(cc5)cccc6

>  <source>
REALspace_2019-12

>  <similarity-descriptor>
0.0;1.000;0.733;0.961;0.935;1.000;0.0;0.0;0.0;0.0;0.733;0.935;0.0

>  <similarity-descriptor-smiles>
;N1CCOCC1;C=1N=CNN1;S1C=CN=C1;c1cccnc1;c1ccccc1;;;;;C=1N=CNN1;c1cccnc1;

>  <reaction-name>
m_276910

>  <reagent1-name>
14484388

>  <reagent1-smiles>
[R2*]=NN=C([R1*])C=1N=C(SC1)N2CCOCC2

>  <reagent2-name>
14485638

>  <reagent2-smiles>
[R2*]=C(N[R1*])c1cnc2c(c1)cccc2

$$$$
s_46____548782____7594472____15501176
          04022017333D 1   1.00000     0.00000     0
            
 60 64  0  0  0  0            999 V2000
   -0.7749    3.5252   -1.1557 S   0  0  0  0  0  0  0  0  0  0  0  0
   -0.4038    2.8629    0.4017 C   0  0  0  0  0  0  0  0  0  0  0  0
    0.2158    3.8641    1.1462 N   0  0  0  0  0  0  0  0  0  0  0  0
    0.3810    5.0888    0.4990 C   0  0  0  0  0  0  0  0  0  0  0  0
    0.8993    6.0613    1.0242 O   0  0  0  0  0  0  0  0  0  0  0  0
   -0.1180    5.1035   -0.8579 C   0  0  0  0  0  0  0  0  0  0  0  0
   -0.0859    6.1149   -1.7093 C   0  0  0  0  0  0  0  0  0  0  0  0
    1.1344    6.4120   -2.4381 C   0  0  0  0  0  0  0  0  0  0  0  0
    1.2377    7.4630   -3.3504 C   0  0  0  0  0  0  0  0  0  0  0  0
    2.4436    7.6866   -4.0102 C   0  0  0  0  0  0  0  0  0  0  0  0
    3.5145    6.8427   -3.7317 C   0  0  0  0  0  0  0  0  0  0  0  0
    3.3922    5.8379   -2.8514 N   0  0  0  0  0  0  0  0  0  0  0  0
    2.2409    5.6030   -2.2042 C   0  0  0  0  0  0  0  0  0  0  0  0
    2.5837    8.7251   -4.9247 C   0  0  0  0  0  0  0  0  0  0  0  0
    1.4986    9.5554   -5.1837 C   0  0  0  0  0  0  0  0  0  0  0  0
    0.2811    9.3597   -4.5419 C   0  0  0  0  0  0  0  0  0  0  0  0
    0.1698    8.3132   -3.6331 C   0  0  0  0  0  0  0  0  0  0  0  0
    0.6568    3.6201    2.5262 C   0  0  0  0  0  0  0  0  0  0  0  0
    1.9845    2.8800    2.5105 C   0  0  0  0  0  0  0  0  0  0  0  0
    3.1749    3.5997    2.5020 C   0  0  0  0  0  0  0  0  0  0  0  0
    4.3868    2.9177    2.4867 C   0  0  0  0  0  0  0  0  0  0  0  0
    4.3946    1.5264    2.4811 C   0  0  0  0  0  0  0  0  0  0  0  0
    3.2033    0.8072    2.4921 C   0  0  0  0  0  0  0  0  0  0  0  0
    1.9911    1.4894    2.5059 C   0  0  0  0  0  0  0  0  0  0  0  0
    5.7226    0.7865    2.4629 C   0  0  0  0  0  0  0  0  0  0  0  0
    6.1666    0.5426    3.8428 N   0  0  0  0  0  0  0  0  0  0  0  0
    5.7961   -0.6075    4.4884 C   0  0  0  0  0  0  0  0  0  0  0  0
    5.1091   -1.4159    3.9274 O   0  0  0  0  0  0  0  0  0  0  0  0
    6.2552   -0.8598    5.9153 C   0  0  0  0  0  0  0  0  0  0  0  0
   -0.6669    1.6351    0.8066 C   0  0  0  0  0  0  0  0  0  0  0  0
   -1.8783    1.3678    1.6850 C   0  0  0  0  0  0  0  0  0  0  0  0
   -2.5952    2.2734    2.0101 O   0  0  0  0  0  0  0  0  0  0  0  0
   -2.1815   -0.0474    2.1517 C   0  0  0  0  0  0  0  0  0  0  0  0
   -2.4026   -0.9628    0.9831 C   0  0  0  0  0  0  0  0  0  0  0  0
   -3.5729   -0.4837    1.7932 C   0  0  0  0  0  0  0  0  0  0  0  0
   -0.9020    6.6751   -1.8513 H   0  0  0  0  0  0  0  0  0  0  0  0
    4.3888    6.9877   -4.1949 H   0  0  0  0  0  0  0  0  0  0  0  0
    2.1785    4.8461   -1.5535 H   0  0  0  0  0  0  0  0  0  0  0  0
    3.4558    8.8733   -5.3911 H   0  0  0  0  0  0  0  0  0  0  0  0
    1.5953   10.3032   -5.8405 H   0  0  0  0  0  0  0  0  0  0  0  0
   -0.4975    9.9584   -4.7296 H   0  0  0  0  0  0  0  0  0  0  0  0
   -0.7032    8.1659   -3.1681 H   0  0  0  0  0  0  0  0  0  0  0  0
   -0.0273    3.0673    3.0020 H   0  0  0  0  0  0  0  0  0  0  0  0
    0.7677    4.4936    3.0001 H   0  0  0  0  0  0  0  0  0  0  0  0
    3.1594    4.5996    2.5068 H   0  0  0  0  0  0  0  0  0  0  0  0
    5.2486    3.4249    2.4797 H   0  0  0  0  0  0  0  0  0  0  0  0
    3.2186   -0.1926    2.4900 H   0  0  0  0  0  0  0  0  0  0  0  0
    1.1291    0.9825    2.5126 H   0  0  0  0  0  0  0  0  0  0  0  0
    5.6110   -0.0871    1.9893 H   0  0  0  0  0  0  0  0  0  0  0  0
    6.4057    1.3394    1.9857 H   0  0  0  0  0  0  0  0  0  0  0  0
    6.7391    1.2162    4.3103 H   0  0  0  0  0  0  0  0  0  0  0  0
    6.8147   -0.0914    6.2262 H   0  0  0  0  0  0  0  0  0  0  0  0
    5.4572   -0.9533    6.5106 H   0  0  0  0  0  0  0  0  0  0  0  0
    6.7958   -1.7004    5.9479 H   0  0  0  0  0  0  0  0  0  0  0  0
   -0.0694    0.8804    0.5356 H   0  0  0  0  0  0  0  0  0  0  0  0
   -1.7501   -0.3988    2.9825 H   0  0  0  0  0  0  0  0  0  0  0  0
   -2.1160   -1.9194    1.0362 H   0  0  0  0  0  0  0  0  0  0  0  0
   -2.2679   -0.6257    0.0514 H   0  0  0  0  0  0  0  0  0  0  0  0
   -4.2174    0.1727    1.4009 H   0  0  0  0  0  0  0  0  0  0  0  0
   -4.0655   -1.1210    2.3858 H   0  0  0  0  0  0  0  0  0  0  0  0
  1  2  1  0  0  0  0
  2  3  1  0  0  0  0
  3  4  1  0  0  0  0
  4  5  2  0  0  0  0
  4  6  1  0  0  0  0
  6  1  1  0  0  0  0
  6  7  2  0  0  0  0
  7  8  1  0  0  0  0
  8  9  1  0  0  0  0
  9 10  2  0  0  0  0
 10 11  1  0  0  0  0
 11 12  2  0  0  0  0
 12 13  1  0  0  0  0
 13  8  2  0  0  0  0
 10 14  1  0  0  0  0
 14 15  2  0  0  0  0
 15 16  1  0  0  0  0
 16 17  2  0  0  0  0
 17  9  1  0  0  0  0
  3 18  1  0  0  0  0
 18 19  1  0  0  0  0
 19 20  1  0  0  0  0
 20 21  2  0  0  0  0
 21 22  1  0  0  0  0
 22 23  2  0  0  0  0
 23 24  1  0  0  0  0
 24 19  2  0  0  0  0
 22 25  1  0  0  0  0
 25 26  1  0  0  0  0
 26 27  1  0  0  0  0
 27 28  2  0  0  0  0
 27 29  1  0  0  0  0
  2 30  2  0  0  0  0
 30 31  1  0  0  0  0
 31 32  2  0  0  0  0
 31 33  1  0  0  0  0
 33 34  1  0  0  0  0
 34 35  1  0  0  0  0
 35 33  1  0  0  0  0
  7 36  1  0  0  0  0
 11 37  1  0  0  0  0
 13 38  1  0  0  0  0
 14 39  1  0  0  0  0
 15 40  1  0  0  0  0
 16 41  1  0  0  0  0
 17 42  1  0  0  0  0
 18 43  1  0  0  0  0
 18 44  1  0  0  0  0
 20 45  1  0  0  0  0
 21 46  1  0  0  0  0
 23 47  1  0  0  0  0
 24 48  1  0  0  0  0
 25 49  1  0  0  0  0
 25 50  1  0  0  0  0
 26 51  1  0  0  0  0
 29 52  1  0  0  0  0
 29 53  1  0  0  0  0
 29 54  1  0  0  0  0
 30 55  1  0  0  0  0
 33 56  1  0  0  0  0
 34 57  1  0  0  0  0
 34 58  1  0  0  0  0
 35 59  1  0  0  0  0
 35 60  1  0  0  0  0
M  END
>  <result-rank>
100

>  <similarity>
0.865

>  <query-name>


>  <query-smiles>
S(=O)(=O)(NC(=O)C)c1ccc(cc1)C=2N3N=CC=C(N4CCOCC4)C3=NC2/C=C/c5nc6c(cc5)cccc6

>  <source>
REALspace_2019-12

>  <similarity-descriptor>
0.936;0.885;0.732;0.732;0.936;0.999;0.471;0.471;1.000;1.000;0.998;0.936;0.0

>  <similarity-descriptor-smiles>
Cc1ccccc1;CC(=O)C1CC1;S1CC(NC1)=O;S1CC(NC1)=O;c1cnccc1;c1ccccc1;CN;CN;C=O;C;C;c1cnccc1;

>  <reaction-name>
s_46

>  <reagent1-name>
548782

>  <reagent1-smiles>
[R3*]=C1SC(N([R1*])C1=O)=CC(=O)C2CC2

>  <reagent2-name>
7594472

>  <reagent2-smiles>
[R3*]=Cc1c2c(cnc1)cccc2

>  <reagent3-name>
15501176

>  <reagent3-smiles>
[R1*]Cc1ccc(cc1)CNC(=O)C

$$$$
