m_274860b____17167114____17196280____17179884
          04022017343D 1   1.00000     0.00000     0
            
 70 76  0  0  0  0            999 V2000
   -6.5242    9.6239    5.6331 Br  0  0  0  0  0  0  0  0  0  0  0  0
   -4.6169    9.1853    5.7421 C   0  0  0  0  0  0  0  0  0  0  0  0
   -3.7852    9.8051    6.6714 C   0  0  0  0  0  0  0  0  0  0  0  0
   -4.2453   10.7268    7.5325 N   0  0  0  0  0  0  0  0  0  0  0  0
   -3.4483   11.3272    8.4292 C   0  0  0  0  0  0  0  0  0  0  0  0
   -2.1007   10.9832    8.4690 C   0  0  0  0  0  0  0  0  0  0  0  0
   -1.6411   10.0621    7.6095 N   0  0  0  0  0  0  0  0  0  0  0  0
   -2.4366    9.4603    6.7112 C   0  0  0  0  0  0  0  0  0  0  0  0
   -1.9381    8.5067    5.8288 C   0  0  0  0  0  0  0  0  0  0  0  0
   -2.7741    7.8909    4.9036 C   0  0  0  0  0  0  0  0  0  0  0  0
   -4.1226    8.2311    4.8586 C   0  0  0  0  0  0  0  0  0  0  0  0
   -2.2463    6.8985    3.9894 C   0  0  0  0  0  0  0  0  0  0  0  0
   -2.8427    6.6326    2.9826 O   0  0  0  0  0  0  0  0  0  0  0  0
   -1.0662    6.2636    4.2745 N   0  0  0  0  0  0  0  0  0  0  0  0
   -0.5310    5.2574    3.3477 C   0  0  0  0  0  0  0  0  0  0  0  0
    0.7695    4.6479    3.7945 C   0  0  0  0  0  0  0  0  0  0  0  0
    0.8507    3.7642    2.5836 C   0  0  0  0  0  0  0  0  0  0  0  0
    2.0449    2.9079    2.5406 N   0  0  0  0  0  0  0  0  0  0  0  0
    3.2864    3.3264    2.5304 N   0  0  0  0  0  0  0  0  0  0  0  0
    4.0997    2.3609    2.4928 N   0  0  0  0  0  0  0  0  0  0  0  0
    3.3679    1.2133    2.4745 C   0  0  0  0  0  0  0  0  0  0  0  0
    3.8997   -0.1356    2.4323 C   0  0  0  0  0  0  0  0  0  0  0  0
    5.2336   -0.3393    2.0942 C   0  0  0  0  0  0  0  0  0  0  0  0
    5.7317   -1.6375    2.0568 C   0  0  0  0  0  0  0  0  0  0  0  0
    4.9063   -2.7181    2.3539 C   0  0  0  0  0  0  0  0  0  0  0  0
    3.5740   -2.5036    2.6907 C   0  0  0  0  0  0  0  0  0  0  0  0
    3.0665   -1.2089    2.7308 C   0  0  0  0  0  0  0  0  0  0  0  0
    5.4254   -4.1467    2.3203 C   0  0  0  0  0  0  0  0  0  0  0  0
    7.1248   -1.8295    1.7021 C   0  0  0  0  0  0  0  0  0  0  0  0
    7.4359   -1.9818    0.5532 O   0  0  0  0  0  0  0  0  0  0  0  0
    8.0856   -1.8370    2.6787 N   0  0  0  0  0  0  0  0  0  0  0  0
    9.3831   -1.3987    2.3876 C   0  0  0  0  0  0  0  0  0  0  0  0
    9.6597   -0.0355    2.3611 C   0  0  0  0  0  0  0  0  0  0  0  0
   10.9500    0.3962    2.0718 C   0  0  0  0  0  0  0  0  0  0  0  0
   11.9520   -0.5325    1.8115 C   0  0  0  0  0  0  0  0  0  0  0  0
   11.6641   -1.8929    1.8413 C   0  0  0  0  0  0  0  0  0  0  0  0
   10.3776   -2.3363    2.1293 C   0  0  0  0  0  0  0  0  0  0  0  0
    2.0495    1.5504    2.5067 C   0  0  0  0  0  0  0  0  0  0  0  0
    0.7795    4.7651    1.4507 C   0  0  0  0  0  0  0  0  0  0  0  0
   -0.1502    5.8297    2.0001 C   0  0  0  0  0  0  0  0  0  0  0  0
   -0.4411    2.9862    2.7323 C   0  0  0  0  0  0  0  0  0  0  0  0
   -1.4154    4.0341    3.2209 C   0  0  0  0  0  0  0  0  0  0  0  0
   -3.8168   12.0110    9.0589 H   0  0  0  0  0  0  0  0  0  0  0  0
   -1.4850   11.4158    9.1277 H   0  0  0  0  0  0  0  0  0  0  0  0
   -0.9691    8.2617    5.8603 H   0  0  0  0  0  0  0  0  0  0  0  0
   -4.7313    7.7934    4.1968 H   0  0  0  0  0  0  0  0  0  0  0  0
   -0.5692    6.4851    5.1135 H   0  0  0  0  0  0  0  0  0  0  0  0
    1.5183    5.3076    3.8576 H   0  0  0  0  0  0  0  0  0  0  0  0
    0.6982    4.1413    4.6538 H   0  0  0  0  0  0  0  0  0  0  0  0
    5.8265    0.4372    1.8809 H   0  0  0  0  0  0  0  0  0  0  0  0
    2.9810   -3.2800    2.9042 H   0  0  0  0  0  0  0  0  0  0  0  0
    2.1091   -1.0509    2.9725 H   0  0  0  0  0  0  0  0  0  0  0  0
    4.6863   -4.7756    2.5617 H   0  0  0  0  0  0  0  0  0  0  0  0
    5.7572   -4.3593    1.4013 H   0  0  0  0  0  0  0  0  0  0  0  0
    6.1740   -4.2448    2.9760 H   0  0  0  0  0  0  0  0  0  0  0  0
    7.8602   -2.1556    3.5994 H   0  0  0  0  0  0  0  0  0  0  0  0
    8.9364    0.6291    2.5487 H   0  0  0  0  0  0  0  0  0  0  0  0
   11.1572    1.3743    2.0509 H   0  0  0  0  0  0  0  0  0  0  0  0
   12.8794   -0.2221    1.6030 H   0  0  0  0  0  0  0  0  0  0  0  0
   12.3876   -2.5574    1.6542 H   0  0  0  0  0  0  0  0  0  0  0  0
   10.1706   -3.3144    2.1503 H   0  0  0  0  0  0  0  0  0  0  0  0
    1.2607    0.9357    2.5056 H   0  0  0  0  0  0  0  0  0  0  0  0
    0.4008    4.3477    0.6247 H   0  0  0  0  0  0  0  0  0  0  0  0
    1.6822    5.1449    1.2485 H   0  0  0  0  0  0  0  0  0  0  0  0
    0.3206    6.7064    2.0986 H   0  0  0  0  0  0  0  0  0  0  0  0
   -0.9532    5.9464    1.4158 H   0  0  0  0  0  0  0  0  0  0  0  0
   -0.3416    2.2488    3.4003 H   0  0  0  0  0  0  0  0  0  0  0  0
   -0.7337    2.6045    1.8555 H   0  0  0  0  0  0  0  0  0  0  0  0
   -2.1493    4.1841    2.5584 H   0  0  0  0  0  0  0  0  0  0  0  0
   -1.8102    3.7789    4.1035 H   0  0  0  0  0  0  0  0  0  0  0  0
  1  2  1  0  0  0  0
  2  3  1  0  0  0  0
  3  4  2  0  0  0  0
  4  5  1  0  0  0  0
  5  6  2  0  0  0  0
  6  7  1  0  0  0  0
  7  8  2  0  0  0  0
  8  3  1  0  0  0  0
  8  9  1  0  0  0  0
  9 10  2  0  0  0  0
 10 11  1  0  0  0  0
 11  2  2  0  0  0  0
 10 12  1  0  0  0  0
 12 13  2  0  0  0  0
 12 14  1  0  0  0  0
 14 15  1  0  0  0  0
 15 16  1  0  0  0  0
 16 17  1  0  0  0  0
 17 18  1  0  0  0  0
 18 19  1  0  0  0  0
 19 20  2  0  0  0  0
 20 21  1  0  0  0  0
 21 22  1  0  0  0  0
 22 23  1  0  0  0  0
 23 24  2  0  0  0  0
 24 25  1  0  0  0  0
 25 26  2  0  0  0  0
 26 27  1  0  0  0  0
 27 22  2  0  0  0  0
 25 28  1  0  0  0  0
 24 29  1  0  0  0  0
 29 30  2  0  0  0  0
 29 31  1  0  0  0  0
 31 32  1  0  0  0  0
 32 33  1  0  0  0  0
 33 34  2  0  0  0  0
 34 35  1  0  0  0  0
 35 36  2  0  0  0  0
 36 37  1  0  0  0  0
 37 32  2  0  0  0  0
 21 38  2  0  0  0  0
 38 18  1  0  0  0  0
 17 39  1  0  0  0  0
 39 40  1  0  0  0  0
 40 15  1  0  0  0  0
 17 41  1  0  0  0  0
 41 42  1  0  0  0  0
 42 15  1  0  0  0  0
  5 43  1  0  0  0  0
  6 44  1  0  0  0  0
  9 45  1  0  0  0  0
 11 46  1  0  0  0  0
 14 47  1  0  0  0  0
 16 48  1  0  0  0  0
 16 49  1  0  0  0  0
 23 50  1  0  0  0  0
 26 51  1  0  0  0  0
 27 52  1  0  0  0  0
 28 53  1  0  0  0  0
 28 54  1  0  0  0  0
 28 55  1  0  0  0  0
 31 56  1  0  0  0  0
 33 57  1  0  0  0  0
 34 58  1  0  0  0  0
 35 59  1  0  0  0  0
 36 60  1  0  0  0  0
 37 61  1  0  0  0  0
 38 62  1  0  0  0  0
 39 63  1  0  0  0  0
 39 64  1  0  0  0  0
 40 65  1  0  0  0  0
 40 66  1  0  0  0  0
 41 67  1  0  0  0  0
 41 68  1  0  0  0  0
 42 69  1  0  0  0  0
 42 70  1  0  0  0  0
M  END
>  <result-rank>
1

>  <similarity>
0.900

>  <query-name>


>  <query-smiles>
S1C(C(=O)NC2=Nc3c(N2CCC(=O)N)ccc(N(C(=O)c4ccccc4)C)c3)=CC=C1/C=C/c5ncc(N)cn5

>  <source>
REALspace_2019-12

>  <similarity-descriptor>
0.998;0.998;0.919;0.756;0.995;0.999;1.000;0.729;0.729;0.0;0.0;0.995;0.852;0.995;0.998;0.919;0.0;0.083

>  <similarity-descriptor-smiles>
Brc1ccccc1;c1ccccc1;c1cnccn1;N1C=CN=N1;c1ccccc1;C=O;N;C1CCCC1;C1CCCC1;;;c1ccccc1;C(=O)N;C;Brc1ccccc1;c1cnccn1;;C1CCCC1

>  <reaction-name>
m_274860b

>  <reagent1-name>
17167114

>  <reagent1-smiles>
[R1*]N=NN([R2*])C12CC(N[R3*])(CC1)CC2

>  <reagent2-name>
17196280

>  <reagent2-smiles>
[R3*]C(=O)c1cc(Br)c2nccnc2c1

>  <reagent3-name>
17179884

>  <reagent3-smiles>
[R1*]C(c1cc(c(cc1)C)C(=O)Nc2ccccc2)=C[R2*]

$$$$
s_270196____8769658____8776130
          04022017343D 1   1.00000     0.00000     0
            
 53 57  0  0  0  0            999 V2000
   -0.3091    2.1009    1.2214 O   0  0  0  0  0  0  0  0  0  0  0  0
   -0.3808    2.9393    2.0770 C   0  0  0  0  0  0  0  0  0  0  0  0
    0.7553    3.5615    2.5233 N   0  0  0  0  0  0  0  0  0  0  0  0
    1.9784    2.8800    2.5090 C   0  0  0  0  0  0  0  0  0  0  0  0
    3.1723    3.5939    2.5011 C   0  0  0  0  0  0  0  0  0  0  0  0
    4.3871    2.9167    2.4870 C   0  0  0  0  0  0  0  0  0  0  0  0
    4.4087    1.5256    2.4808 C   0  0  0  0  0  0  0  0  0  0  0  0
    3.2087    0.8215    2.4887 C   0  0  0  0  0  0  0  0  0  0  0  0
    1.9886    1.4893    2.5029 C   0  0  0  0  0  0  0  0  0  0  0  0
    3.2280   -0.6288    2.4827 C   0  0  0  0  0  0  0  0  0  0  0  0
    2.1737   -1.4076    2.4897 O   0  0  0  0  0  0  0  0  0  0  0  0
    2.5424   -2.6203    2.4804 N   0  0  0  0  0  0  0  0  0  0  0  0
    3.8541   -2.6611    2.4685 C   0  0  0  0  0  0  0  0  0  0  0  0
    4.3012   -1.3780    2.4709 N   0  0  0  0  0  0  0  0  0  0  0  0
    4.6748   -3.8565    2.4580 C   0  0  0  0  0  0  0  0  0  0  0  0
    6.0593   -3.7278    2.4459 C   0  0  0  0  0  0  0  0  0  0  0  0
    6.8553   -4.8687    2.4346 C   0  0  0  0  0  0  0  0  0  0  0  0
    6.2564   -6.1242    2.4362 C   0  0  0  0  0  0  0  0  0  0  0  0
    7.0204   -7.2370    2.4268 O   0  0  0  0  0  0  0  0  0  0  0  0
    7.3924   -7.7899    1.2540 C   0  0  0  0  0  0  0  0  0  0  0  0
    6.6191   -8.7228    0.6771 N   0  0  0  0  0  0  0  0  0  0  0  0
    6.9617   -9.2896   -0.4888 C   0  0  0  0  0  0  0  0  0  0  0  0
    8.1423   -8.9026   -1.1145 C   0  0  0  0  0  0  0  0  0  0  0  0
    8.9309   -7.9345   -0.5032 C   0  0  0  0  0  0  0  0  0  0  0  0
    8.5334   -7.4055    0.6631 N   0  0  0  0  0  0  0  0  0  0  0  0
    4.8713   -6.2524    2.4481 C   0  0  0  0  0  0  0  0  0  0  0  0
    4.0752   -5.1118    2.4590 C   0  0  0  0  0  0  0  0  0  0  0  0
    3.1733    5.1142    2.5087 C   0  0  0  0  0  0  0  0  0  0  0  0
   -1.6696    3.2943    2.6394 C   0  0  0  0  0  0  0  0  0  0  0  0
   -2.7410    2.4159    2.5156 C   0  0  0  0  0  0  0  0  0  0  0  0
   -3.9757    2.7607    3.0559 C   0  0  0  0  0  0  0  0  0  0  0  0
   -4.1316    3.9755    3.7151 C   0  0  0  0  0  0  0  0  0  0  0  0
   -3.0542    4.8449    3.8331 C   0  0  0  0  0  0  0  0  0  0  0  0
   -1.8147    4.5119    3.2967 C   0  0  0  0  0  0  0  0  0  0  0  0
    0.7110    4.5023    2.8593 H   0  0  0  0  0  0  0  0  0  0  0  0
    5.2454    3.4299    2.4812 H   0  0  0  0  0  0  0  0  0  0  0  0
    5.2802    1.0354    2.4707 H   0  0  0  0  0  0  0  0  0  0  0  0
    1.1302    0.9762    2.5087 H   0  0  0  0  0  0  0  0  0  0  0  0
    6.4803   -2.8207    2.4454 H   0  0  0  0  0  0  0  0  0  0  0  0
    7.8519   -4.7868    2.4253 H   0  0  0  0  0  0  0  0  0  0  0  0
    6.3742   -9.9838   -0.9045 H   0  0  0  0  0  0  0  0  0  0  0  0
    8.4176   -9.3117   -1.9845 H   0  0  0  0  0  0  0  0  0  0  0  0
    9.7852   -7.6358   -0.9287 H   0  0  0  0  0  0  0  0  0  0  0  0
    4.4502   -7.1595    2.4488 H   0  0  0  0  0  0  0  0  0  0  0  0
    3.0786   -5.1936    2.4675 H   0  0  0  0  0  0  0  0  0  0  0  0
    4.1163    5.4469    2.5014 H   0  0  0  0  0  0  0  0  0  0  0  0
    2.6944    5.4519    1.6985 H   0  0  0  0  0  0  0  0  0  0  0  0
    2.7100    5.4437    3.3314 H   0  0  0  0  0  0  0  0  0  0  0  0
   -2.6246    1.5430    2.0418 H   0  0  0  0  0  0  0  0  0  0  0  0
   -4.7511    2.1352    2.9703 H   0  0  0  0  0  0  0  0  0  0  0  0
   -5.0190    4.2232    4.1040 H   0  0  0  0  0  0  0  0  0  0  0  0
   -3.1708    5.7173    4.3078 H   0  0  0  0  0  0  0  0  0  0  0  0
   -1.0398    5.1382    3.3821 H   0  0  0  0  0  0  0  0  0  0  0  0
  1  2  2  0  0  0  0
  2  3  1  0  0  0  0
  3  4  1  0  0  0  0
  4  5  1  0  0  0  0
  5  6  2  0  0  0  0
  6  7  1  0  0  0  0
  7  8  2  0  0  0  0
  8  9  1  0  0  0  0
  9  4  2  0  0  0  0
  8 10  1  0  0  0  0
 10 11  1  0  0  0  0
 11 12  1  0  0  0  0
 12 13  2  0  0  0  0
 13 14  1  0  0  0  0
 10 14  2  0  0  0  0
 13 15  1  0  0  0  0
 15 16  1  0  0  0  0
 16 17  2  0  0  0  0
 17 18  1  0  0  0  0
 18 19  1  0  0  0  0
 19 20  1  0  0  0  0
 20 21  1  0  0  0  0
 21 22  2  0  0  0  0
 22 23  1  0  0  0  0
 23 24  2  0  0  0  0
 24 25  1  0  0  0  0
 25 20  2  0  0  0  0
 18 26  2  0  0  0  0
 26 27  1  0  0  0  0
 27 15  2  0  0  0  0
  5 28  1  0  0  0  0
  2 29  1  0  0  0  0
 29 30  1  0  0  0  0
 30 31  2  0  0  0  0
 31 32  1  0  0  0  0
 32 33  2  0  0  0  0
 33 34  1  0  0  0  0
 34 29  2  0  0  0  0
  3 35  1  0  0  0  0
  6 36  1  0  0  0  0
  7 37  1  0  0  0  0
  9 38  1  0  0  0  0
 16 39  1  0  0  0  0
 17 40  1  0  0  0  0
 22 41  1  0  0  0  0
 23 42  1  0  0  0  0
 24 43  1  0  0  0  0
 26 44  1  0  0  0  0
 27 45  1  0  0  0  0
 28 46  1  0  0  0  0
 28 47  1  0  0  0  0
 28 48  1  0  0  0  0
 30 49  1  0  0  0  0
 31 50  1  0  0  0  0
 32 51  1  0  0  0  0
 33 52  1  0  0  0  0
 34 53  1  0  0  0  0
M  END
>  <result-rank>
2

>  <similarity>
0.897

>  <query-name>


>  <query-smiles>
S1C(C(=O)NC2=Nc3c(N2CCC(=O)N)ccc(N(C(=O)c4ccccc4)C)c3)=CC=C1/C=C/c5ncc(N)cn5

>  <source>
REALspace_2019-12

>  <similarity-descriptor>
0.880;1.000;0.946;0.801;0.993;0.801;0.801;0.0;0.0;0.0;0.0;0.993;0.852;0.995;0.880;0.880;0.0;0.0

>  <similarity-descriptor-smiles>
c1ccccc1;c1ccccc1;Oc1ncccn1;C1=NC=NO1;c1ccccc1;C1=NC=NO1;C1=NC=NO1;;;;;c1ccccc1;O=CN;C;c1ccccc1;c1ccccc1;;

>  <reaction-name>
s_270196

>  <reagent1-name>
8769658

>  <reagent1-smiles>
[R1*]=NC(=NO[R2*])c1ccc(Oc2ncccn2)cc1

>  <reagent2-name>
8776130

>  <reagent2-smiles>
[R1*]C([R2*])c1cc(NC(=O)c2ccccc2)c(cc1)C

$$$$
s_270196____13074244____8776130
          04022017343D 1   1.00000     0.00000     0
            
 53 57  0  0  0  0            999 V2000
    0.1226    2.6058    0.6023 O   0  0  0  0  0  0  0  0  0  0  0  0
   -0.1526    3.3428    1.5084 C   0  0  0  0  0  0  0  0  0  0  0  0
    0.7417    3.5392    2.5275 N   0  0  0  0  0  0  0  0  0  0  0  0
    1.9769    2.8800    2.5117 C   0  0  0  0  0  0  0  0  0  0  0  0
    3.1722    3.5930    2.5023 C   0  0  0  0  0  0  0  0  0  0  0  0
    4.3872    2.9146    2.4871 C   0  0  0  0  0  0  0  0  0  0  0  0
    4.4074    1.5237    2.4807 C   0  0  0  0  0  0  0  0  0  0  0  0
    3.2062    0.8215    2.4897 C   0  0  0  0  0  0  0  0  0  0  0  0
    1.9856    1.4890    2.5053 C   0  0  0  0  0  0  0  0  0  0  0  0
    3.2280   -0.6287    2.4827 C   0  0  0  0  0  0  0  0  0  0  0  0
    4.3041   -1.3773    2.4683 O   0  0  0  0  0  0  0  0  0  0  0  0
    3.9699   -2.6000    2.4670 N   0  0  0  0  0  0  0  0  0  0  0  0
    2.6599   -2.6780    2.4792 C   0  0  0  0  0  0  0  0  0  0  0  0
    2.1766   -1.4082    2.4886 N   0  0  0  0  0  0  0  0  0  0  0  0
    1.8734   -3.8966    2.4796 C   0  0  0  0  0  0  0  0  0  0  0  0
    0.4521   -3.8658    2.4933 C   0  0  0  0  0  0  0  0  0  0  0  0
   -0.1350   -2.7960    2.5053 O   0  0  0  0  0  0  0  0  0  0  0  0
   -0.2394   -5.0497    2.4934 N   0  0  0  0  0  0  0  0  0  0  0  0
    0.4115   -6.2563    2.4804 C   0  0  0  0  0  0  0  0  0  0  0  0
   -0.3397   -7.4975    2.4810 C   0  0  0  0  0  0  0  0  0  0  0  0
   -1.7294   -7.4631    2.4949 C   0  0  0  0  0  0  0  0  0  0  0  0
   -2.4243   -8.6678    2.4946 C   0  0  0  0  0  0  0  0  0  0  0  0
   -1.7680   -9.8378    2.4808 N   0  0  0  0  0  0  0  0  0  0  0  0
   -0.4279   -9.8902    2.4672 C   0  0  0  0  0  0  0  0  0  0  0  0
    0.3235   -8.7194    2.4670 C   0  0  0  0  0  0  0  0  0  0  0  0
    1.7814   -6.3131    2.4666 C   0  0  0  0  0  0  0  0  0  0  0  0
    2.5257   -5.1025    2.4661 C   0  0  0  0  0  0  0  0  0  0  0  0
    3.1505    5.1125    2.5107 C   0  0  0  0  0  0  0  0  0  0  0  0
   -1.4320    4.0256    1.5248 C   0  0  0  0  0  0  0  0  0  0  0  0
   -2.1512    4.1701    0.3429 C   0  0  0  0  0  0  0  0  0  0  0  0
   -3.3775    4.8265    0.3629 C   0  0  0  0  0  0  0  0  0  0  0  0
   -3.8767    5.3314    1.5590 C   0  0  0  0  0  0  0  0  0  0  0  0
   -3.1498    5.1808    2.7335 C   0  0  0  0  0  0  0  0  0  0  0  0
   -1.9220    4.5270    2.7266 C   0  0  0  0  0  0  0  0  0  0  0  0
    0.5124    4.1533    3.2826 H   0  0  0  0  0  0  0  0  0  0  0  0
    5.2458    3.4271    2.4808 H   0  0  0  0  0  0  0  0  0  0  0  0
    5.2783    1.0324    2.4696 H   0  0  0  0  0  0  0  0  0  0  0  0
    1.1270    0.9763    2.5117 H   0  0  0  0  0  0  0  0  0  0  0  0
   -1.2392   -5.0327    2.5031 H   0  0  0  0  0  0  0  0  0  0  0  0
   -2.2188   -6.5911    2.5048 H   0  0  0  0  0  0  0  0  0  0  0  0
   -3.4242   -8.6619    2.5049 H   0  0  0  0  0  0  0  0  0  0  0  0
    0.0344  -10.7769    2.4572 H   0  0  0  0  0  0  0  0  0  0  0  0
    1.3228   -8.7559    2.4568 H   0  0  0  0  0  0  0  0  0  0  0  0
    2.2511   -7.1958    2.4571 H   0  0  0  0  0  0  0  0  0  0  0  0
    3.5253   -5.1301    2.4559 H   0  0  0  0  0  0  0  0  0  0  0  0
    4.0884    5.4593    2.5022 H   0  0  0  0  0  0  0  0  0  0  0  0
    2.6653    5.4434    1.7013 H   0  0  0  0  0  0  0  0  0  0  0  0
    2.6834    5.4346    3.3342 H   0  0  0  0  0  0  0  0  0  0  0  0
   -1.7893    3.8049   -0.5148 H   0  0  0  0  0  0  0  0  0  0  0  0
   -3.9002    4.9354   -0.4826 H   0  0  0  0  0  0  0  0  0  0  0  0
   -4.7585    5.8027    1.5736 H   0  0  0  0  0  0  0  0  0  0  0  0
   -3.5124    5.5454    3.5912 H   0  0  0  0  0  0  0  0  0  0  0  0
   -1.3996    4.4190    3.5724 H   0  0  0  0  0  0  0  0  0  0  0  0
  1  2  2  0  0  0  0
  2  3  1  0  0  0  0
  3  4  1  0  0  0  0
  4  5  1  0  0  0  0
  5  6  2  0  0  0  0
  6  7  1  0  0  0  0
  7  8  2  0  0  0  0
  8  9  1  0  0  0  0
  9  4  2  0  0  0  0
  8 10  1  0  0  0  0
 10 11  1  0  0  0  0
 11 12  1  0  0  0  0
 12 13  2  0  0  0  0
 13 14  1  0  0  0  0
 10 14  2  0  0  0  0
 13 15  1  0  0  0  0
 15 16  1  0  0  0  0
 16 17  2  0  0  0  0
 16 18  1  0  0  0  0
 18 19  1  0  0  0  0
 19 20  1  0  0  0  0
 20 21  1  0  0  0  0
 21 22  2  0  0  0  0
 22 23  1  0  0  0  0
 23 24  2  0  0  0  0
 24 25  1  0  0  0  0
 25 20  2  0  0  0  0
 19 26  2  0  0  0  0
 26 27  1  0  0  0  0
 15 27  2  0  0  0  0
  5 28  1  0  0  0  0
  2 29  1  0  0  0  0
 29 30  1  0  0  0  0
 30 31  2  0  0  0  0
 31 32  1  0  0  0  0
 32 33  2  0  0  0  0
 33 34  1  0  0  0  0
 34 29  2  0  0  0  0
  3 35  1  0  0  0  0
  6 36  1  0  0  0  0
  7 37  1  0  0  0  0
  9 38  1  0  0  0  0
 18 39  1  0  0  0  0
 21 40  1  0  0  0  0
 22 41  1  0  0  0  0
 24 42  1  0  0  0  0
 25 43  1  0  0  0  0
 26 44  1  0  0  0  0
 27 45  1  0  0  0  0
 28 46  1  0  0  0  0
 28 47  1  0  0  0  0
 28 48  1  0  0  0  0
 30 49  1  0  0  0  0
 31 50  1  0  0  0  0
 32 51  1  0  0  0  0
 33 52  1  0  0  0  0
 34 53  1  0  0  0  0
M  END
>  <result-rank>
3

>  <similarity>
0.896

>  <query-name>


>  <query-smiles>
S1C(C(=O)NC2=Nc3c(N2CCC(=O)N)ccc(N(C(=O)c4ccccc4)C)c3)=CC=C1/C=C/c5ncc(N)cn5

>  <source>
REALspace_2019-12

>  <similarity-descriptor>
0.915;1.000;0.874;0.753;0.993;0.915;0.915;0.753;0.753;0.753;0.0;0.993;0.852;0.995;0.915;0.874;0.0;0.0

>  <similarity-descriptor-smiles>
C1=CC=CNC1=O;c1ccccc1;c1ccncc1;C1=NC=NO1;c1ccccc1;C1=CC=CNC1=O;C1=CC=CNC1=O;C1=NC=NO1;C1=NC=NO1;C1=NC=NO1;;c1ccccc1;O=CN;C;C1=CC=CNC1=O;c1ccncc1;;

>  <reaction-name>
s_270196

>  <reagent1-name>
13074244

>  <reagent1-smiles>
[R1*]=NC(=NO[R2*])C=1C(=O)NC(c2ccncc2)=CC1

>  <reagent2-name>
8776130

>  <reagent2-smiles>
[R1*]C([R2*])c1cc(NC(=O)c2ccccc2)c(cc1)C

$$$$
s_270196____8771036____10224814
          04022017343D 1   1.00000     0.00000     0
            
 49 53  0  0  0  0            999 V2000
    0.4406    3.6997    2.5340 S   0  0  0  0  0  0  0  0  0  0  0  0
    1.9779    2.8839    2.5130 C   0  0  0  0  0  0  0  0  0  0  0  0
    3.1753    3.5938    2.5035 C   0  0  0  0  0  0  0  0  0  0  0  0
    4.3913    2.9189    2.4880 C   0  0  0  0  0  0  0  0  0  0  0  0
    4.4147    1.5277    2.4812 C   0  0  0  0  0  0  0  0  0  0  0  0
    3.2158    0.8216    2.4897 C   0  0  0  0  0  0  0  0  0  0  0  0
    1.9973    1.4929    2.5059 C   0  0  0  0  0  0  0  0  0  0  0  0
    3.2290   -0.6987    2.4825 C   0  0  0  0  0  0  0  0  0  0  0  0
    3.1884    5.0440    2.5106 C   0  0  0  0  0  0  0  0  0  0  0  0
    3.7336    5.8107    3.4257 N   0  0  0  0  0  0  0  0  0  0  0  0
    3.5524    7.0225    3.1011 O   0  0  0  0  0  0  0  0  0  0  0  0
    2.8869    7.0794    1.9731 C   0  0  0  0  0  0  0  0  0  0  0  0
    2.6414    5.8584    1.5706 N   0  0  0  0  0  0  0  0  0  0  0  0
    2.4901    8.2930    1.2852 C   0  0  0  0  0  0  0  0  0  0  0  0
    1.7835    8.2157    0.0894 C   0  0  0  0  0  0  0  0  0  0  0  0
    1.4714    7.0283   -0.4233 F   0  0  0  0  0  0  0  0  0  0  0  0
    1.3983    9.3746   -0.5770 C   0  0  0  0  0  0  0  0  0  0  0  0
    1.7311   10.6099   -0.0306 C   0  0  0  0  0  0  0  0  0  0  0  0
    1.3356   11.8241   -0.7160 C   0  0  0  0  0  0  0  0  0  0  0  0
    1.6589   13.0691   -0.1858 C   0  0  0  0  0  0  0  0  0  0  0  0
    1.2816   14.1789   -0.8378 N   0  0  0  0  0  0  0  0  0  0  0  0
    0.5991   14.1150   -1.9904 C   0  0  0  0  0  0  0  0  0  0  0  0
    0.2790   12.9226   -2.5149 N   0  0  0  0  0  0  0  0  0  0  0  0
    0.6272   11.7763   -1.9116 C   0  0  0  0  0  0  0  0  0  0  0  0
    2.4383   10.7009    1.1641 C   0  0  0  0  0  0  0  0  0  0  0  0
    2.8170    9.5347    1.8206 C   0  0  0  0  0  0  0  0  0  0  0  0
   -0.6052    2.3094    2.5385 C   0  0  0  0  0  0  0  0  0  0  0  0
   -1.0346    1.7623    1.3337 C   0  0  0  0  0  0  0  0  0  0  0  0
   -1.8706    0.6503    1.3518 C   0  0  0  0  0  0  0  0  0  0  0  0
   -2.2738    0.0921    2.5603 C   0  0  0  0  0  0  0  0  0  0  0  0
   -1.8394    0.6474    3.7593 C   0  0  0  0  0  0  0  0  0  0  0  0
   -1.0033    1.7589    3.7529 C   0  0  0  0  0  0  0  0  0  0  0  0
    5.2487    3.4335    2.4816 H   0  0  0  0  0  0  0  0  0  0  0  0
    5.2869    1.0387    2.4704 H   0  0  0  0  0  0  0  0  0  0  0  0
    1.1399    0.9782    2.5123 H   0  0  0  0  0  0  0  0  0  0  0  0
    4.1746   -1.0238    2.4708 H   0  0  0  0  0  0  0  0  0  0  0  0
    2.7693   -1.0400    3.3024 H   0  0  0  0  0  0  0  0  0  0  0  0
    2.7518   -1.0324    1.6695 H   0  0  0  0  0  0  0  0  0  0  0  0
    0.8896    9.3204   -1.4363 H   0  0  0  0  0  0  0  0  0  0  0  0
    2.1674   13.1359    0.6727 H   0  0  0  0  0  0  0  0  0  0  0  0
    0.3288   14.9561   -2.4589 H   0  0  0  0  0  0  0  0  0  0  0  0
    0.3799   10.8964   -2.3174 H   0  0  0  0  0  0  0  0  0  0  0  0
    2.6717   11.5949    1.5465 H   0  0  0  0  0  0  0  0  0  0  0  0
    3.3257    9.5890    2.6799 H   0  0  0  0  0  0  0  0  0  0  0  0
   -0.7456    2.1636    0.4646 H   0  0  0  0  0  0  0  0  0  0  0  0
   -2.1835    0.2498    0.4905 H   0  0  0  0  0  0  0  0  0  0  0  0
   -2.8749   -0.7070    2.5671 H   0  0  0  0  0  0  0  0  0  0  0  0
   -2.1291    0.2464    4.6283 H   0  0  0  0  0  0  0  0  0  0  0  0
   -0.6907    2.1593    4.6143 H   0  0  0  0  0  0  0  0  0  0  0  0
  1  2  1  0  0  0  0
  2  3  1  0  0  0  0
  3  4  2  0  0  0  0
  4  5  1  0  0  0  0
  5  6  2  0  0  0  0
  6  7  1  0  0  0  0
  7  2  2  0  0  0  0
  6  8  1  0  0  0  0
  3  9  1  0  0  0  0
  9 10  2  0  0  0  0
 10 11  1  0  0  0  0
 11 12  1  0  0  0  0
 12 13  2  0  0  0  0
 13  9  1  0  0  0  0
 12 14  1  0  0  0  0
 14 15  1  0  0  0  0
 15 16  1  0  0  0  0
 15 17  2  0  0  0  0
 17 18  1  0  0  0  0
 18 19  1  0  0  0  0
 19 20  1  0  0  0  0
 20 21  2  0  0  0  0
 21 22  1  0  0  0  0
 22 23  2  0  0  0  0
 23 24  1  0  0  0  0
 24 19  2  0  0  0  0
 18 25  2  0  0  0  0
 25 26  1  0  0  0  0
 26 14  2  0  0  0  0
  1 27  1  0  0  0  0
 27 28  1  0  0  0  0
 28 29  2  0  0  0  0
 29 30  1  0  0  0  0
 30 31  2  0  0  0  0
 31 32  1  0  0  0  0
 32 27  2  0  0  0  0
  4 33  1  0  0  0  0
  5 34  1  0  0  0  0
  7 35  1  0  0  0  0
  8 36  1  0  0  0  0
  8 37  1  0  0  0  0
  8 38  1  0  0  0  0
 17 39  1  0  0  0  0
 20 40  1  0  0  0  0
 22 41  1  0  0  0  0
 24 42  1  0  0  0  0
 25 43  1  0  0  0  0
 26 44  1  0  0  0  0
 28 45  1  0  0  0  0
 29 46  1  0  0  0  0
 30 47  1  0  0  0  0
 31 48  1  0  0  0  0
 32 49  1  0  0  0  0
M  END
>  <result-rank>
4

>  <similarity>
0.894

>  <query-name>


>  <query-smiles>
S1C(C(=O)NC2=Nc3c(N2CCC(=O)N)ccc(N(C(=O)c4ccccc4)C)c3)=CC=C1/C=C/c5ncc(N)cn5

>  <source>
REALspace_2019-12

>  <similarity-descriptor>
0.966;0.999;0.936;0.801;0.995;0.801;0.801;0.0;0.0;0.0;0.0;0.995;0.425;0.995;0.966;0.936;0.0;0.0

>  <similarity-descriptor-smiles>
c1ccccc1F;c1ccccc1;c1cncnc1;C=1N=CON1;c1ccccc1;C=1N=CON1;C=1N=CON1;;;;;c1ccccc1;S;C;c1ccccc1F;c1cncnc1;;

>  <reaction-name>
s_270196

>  <reagent1-name>
8771036

>  <reagent1-smiles>
[R1*]=NC(=NO[R2*])c1c(Sc2ccccc2)cc(cc1)C

>  <reagent2-name>
10224814

>  <reagent2-smiles>
[R1*]C([R2*])c1c(F)cc(c2cncnc2)cc1

$$$$
s_22____13608224____8992344
          04022017343D 1   1.00000     0.00000     0
            
 51 55  0  0  0  0            999 V2000
    3.3287    3.5724    2.4687 S   0  0  0  0  0  0  0  0  0  0  0  0
    4.2262    2.1265    2.4440 C   0  0  0  0  0  0  0  0  0  0  0  0
    3.3528    1.1511    2.4644 N   0  0  0  0  0  0  0  0  0  0  0  0
    2.0377    1.5325    2.4911 C   0  0  0  0  0  0  0  0  0  0  0  0
    0.9190    0.6236    2.5168 C   0  0  0  0  0  0  0  0  0  0  0  0
    1.1588   -0.7462    2.5150 C   0  0  0  0  0  0  0  0  0  0  0  0
    0.0858   -1.6315    2.5385 C   0  0  0  0  0  0  0  0  0  0  0  0
   -1.2135   -1.1355    2.5643 C   0  0  0  0  0  0  0  0  0  0  0  0
   -2.2609   -1.9867    2.5888 O   0  0  0  0  0  0  0  0  0  0  0  0
   -2.8094   -2.4160    1.4322 C   0  0  0  0  0  0  0  0  0  0  0  0
   -3.8511   -1.6976    0.8548 C   0  0  0  0  0  0  0  0  0  0  0  0
   -4.4133   -2.1452   -0.3371 C   0  0  0  0  0  0  0  0  0  0  0  0
   -3.9328   -3.3021   -0.9423 C   0  0  0  0  0  0  0  0  0  0  0  0
   -2.8914   -4.0162   -0.3587 C   0  0  0  0  0  0  0  0  0  0  0  0
   -2.3250   -3.5742    0.8327 C   0  0  0  0  0  0  0  0  0  0  0  0
   -1.4528    0.2348    2.5659 C   0  0  0  0  0  0  0  0  0  0  0  0
   -0.3802    1.1201    2.5420 C   0  0  0  0  0  0  0  0  0  0  0  0
    1.7793    2.8660    2.4982 C   0  0  0  0  0  0  0  0  0  0  0  0
    5.6199    2.0170    2.4168 N   0  0  0  0  0  0  0  0  0  0  0  0
    6.2169    1.0613    1.6377 C   0  0  0  0  0  0  0  0  0  0  0  0
    5.6128    0.5669    0.7263 O   0  0  0  0  0  0  0  0  0  0  0  0
    7.5790    0.6471    1.9143 C   0  0  0  0  0  0  0  0  0  0  0  0
    8.1362    0.8798    3.1676 C   0  0  0  0  0  0  0  0  0  0  0  0
    7.4194    1.4823    4.1127 F   0  0  0  0  0  0  0  0  0  0  0  0
    9.4418    0.4854    3.4420 C   0  0  0  0  0  0  0  0  0  0  0  0
   10.1808   -0.1433    2.4450 C   0  0  0  0  0  0  0  0  0  0  0  0
   11.5421   -0.5583    2.7188 C   0  0  0  0  0  0  0  0  0  0  0  0
   12.4854   -0.5977    1.6969 C   0  0  0  0  0  0  0  0  0  0  0  0
   13.7389   -0.9858    1.9745 N   0  0  0  0  0  0  0  0  0  0  0  0
   14.1035   -1.3370    3.2164 C   0  0  0  0  0  0  0  0  0  0  0  0
   13.2063   -1.3051    4.2130 N   0  0  0  0  0  0  0  0  0  0  0  0
   11.9372   -0.9262    4.0003 C   0  0  0  0  0  0  0  0  0  0  0  0
    9.6356   -0.3810    1.1872 C   0  0  0  0  0  0  0  0  0  0  0  0
    8.3291    0.0178    0.9259 C   0  0  0  0  0  0  0  0  0  0  0  0
    2.0967   -1.0927    2.4970 H   0  0  0  0  0  0  0  0  0  0  0  0
    0.2477   -2.6183    2.5369 H   0  0  0  0  0  0  0  0  0  0  0  0
   -4.1933   -0.8661    1.2925 H   0  0  0  0  0  0  0  0  0  0  0  0
   -5.1630   -1.6351   -0.7586 H   0  0  0  0  0  0  0  0  0  0  0  0
   -4.3372   -3.6212   -1.7994 H   0  0  0  0  0  0  0  0  0  0  0  0
   -2.5496   -4.8480   -0.7960 H   0  0  0  0  0  0  0  0  0  0  0  0
   -1.5759   -4.0849    1.2547 H   0  0  0  0  0  0  0  0  0  0  0  0
   -2.3906    0.5814    2.5841 H   0  0  0  0  0  0  0  0  0  0  0  0
   -0.5420    2.1069    2.5428 H   0  0  0  0  0  0  0  0  0  0  0  0
    0.8906    3.3240    2.5164 H   0  0  0  0  0  0  0  0  0  0  0  0
    6.1809    2.6363    2.9662 H   0  0  0  0  0  0  0  0  0  0  0  0
    9.8432    0.6514    4.3427 H   0  0  0  0  0  0  0  0  0  0  0  0
   12.2313   -0.3394    0.7648 H   0  0  0  0  0  0  0  0  0  0  0  0
   15.0442   -1.6226    3.3994 H   0  0  0  0  0  0  0  0  0  0  0  0
   11.2819   -0.9085    4.7556 H   0  0  0  0  0  0  0  0  0  0  0  0
   10.1772   -0.8337    0.4788 H   0  0  0  0  0  0  0  0  0  0  0  0
    7.9277   -0.1482    0.0252 H   0  0  0  0  0  0  0  0  0  0  0  0
  1  2  1  0  0  0  0
  2  3  2  0  0  0  0
  3  4  1  0  0  0  0
  4  5  1  0  0  0  0
  5  6  1  0  0  0  0
  6  7  2  0  0  0  0
  7  8  1  0  0  0  0
  8  9  1  0  0  0  0
  9 10  1  0  0  0  0
 10 11  1  0  0  0  0
 11 12  2  0  0  0  0
 12 13  1  0  0  0  0
 13 14  2  0  0  0  0
 14 15  1  0  0  0  0
 15 10  2  0  0  0  0
  8 16  2  0  0  0  0
 16 17  1  0  0  0  0
 17  5  2  0  0  0  0
  4 18  2  0  0  0  0
 18  1  1  0  0  0  0
  2 19  1  0  0  0  0
 19 20  1  0  0  0  0
 20 21  2  0  0  0  0
 20 22  1  0  0  0  0
 22 23  1  0  0  0  0
 23 24  1  0  0  0  0
 23 25  2  0  0  0  0
 25 26  1  0  0  0  0
 26 27  1  0  0  0  0
 27 28  1  0  0  0  0
 28 29  2  0  0  0  0
 29 30  1  0  0  0  0
 30 31  2  0  0  0  0
 31 32  1  0  0  0  0
 32 27  2  0  0  0  0
 26 33  2  0  0  0  0
 33 34  1  0  0  0  0
 34 22  2  0  0  0  0
  6 35  1  0  0  0  0
  7 36  1  0  0  0  0
 11 37  1  0  0  0  0
 12 38  1  0  0  0  0
 13 39  1  0  0  0  0
 14 40  1  0  0  0  0
 15 41  1  0  0  0  0
 16 42  1  0  0  0  0
 17 43  1  0  0  0  0
 18 44  1  0  0  0  0
 19 45  1  0  0  0  0
 25 46  1  0  0  0  0
 28 47  1  0  0  0  0
 30 48  1  0  0  0  0
 32 49  1  0  0  0  0
 33 50  1  0  0  0  0
 34 51  1  0  0  0  0
M  END
>  <result-rank>
5

>  <similarity>
0.894

>  <query-name>


>  <query-smiles>
S1C(C(=O)NC2=Nc3c(N2CCC(=O)N)ccc(N(C(=O)c4ccccc4)C)c3)=CC=C1/C=C/c5ncc(N)cn5

>  <source>
REALspace_2019-12

>  <similarity-descriptor>
0.966;0.998;0.936;0.873;0.948;0.999;1.000;0.873;0.0;0.0;0.0;0.948;0.156;0.0;0.966;0.936;0.0;0.0

>  <similarity-descriptor-smiles>
c1ccccc1F;c1ccccc1;c1cncnc1;S1C=CN=C1;c1ccccc1;C=O;N;S1C=CN=C1;;;;c1ccccc1;O;;c1ccccc1F;c1cncnc1;;

>  <reaction-name>
s_22

>  <reagent1-name>
13608224

>  <reagent1-smiles>
[R1*]NC=1SC=C(N1)c2ccc(Oc3ccccc3)cc2

>  <reagent2-name>
8992344

>  <reagent2-smiles>
[R1*]C(=O)c1c(F)cc(c2cncnc2)cc1

$$$$
s_708____1723544____9192442
          04022017343D 1   1.00000     0.00000     0
            
 46 50  0  0  0  0            999 V2000
   -0.4078   -3.0512    2.5126 S   0  0  0  0  0  0  0  0  0  0  0  0
   -0.3977   -1.3103    2.5126 C   0  0  0  0  0  0  0  0  0  0  0  0
    0.7388   -0.5920    2.5070 N   0  0  0  0  0  0  0  0  0  0  0  0
    0.7554    0.7530    2.5065 C   0  0  0  0  0  0  0  0  0  0  0  0
   -0.4470    1.4531    2.5127 C   0  0  0  0  0  0  0  0  0  0  0  0
   -1.6454    0.7474    2.5183 C   0  0  0  0  0  0  0  0  0  0  0  0
   -1.6185   -0.6435    2.5186 C   0  0  0  0  0  0  0  0  0  0  0  0
    1.9928    1.5131    2.5007 C   0  0  0  0  0  0  0  0  0  0  0  0
    1.9860    2.8354    2.5006 N   0  0  0  0  0  0  0  0  0  0  0  0
    3.1479    3.5642    2.4955 C   0  0  0  0  0  0  0  0  0  0  0  0
    4.3714    2.9007    2.4900 C   0  0  0  0  0  0  0  0  0  0  0  0
    5.5511    3.6390    2.4849 C   0  0  0  0  0  0  0  0  0  0  0  0
    5.5301    5.0284    2.4838 C   0  0  0  0  0  0  0  0  0  0  0  0
    6.7060    5.6912    2.4778 O   0  0  0  0  0  0  0  0  0  0  0  0
    7.2994    6.0237    3.6441 C   0  0  0  0  0  0  0  0  0  0  0  0
    8.5111    6.7066    3.6309 C   0  0  0  0  0  0  0  0  0  0  0  0
    9.1188    7.0459    4.8361 C   0  0  0  0  0  0  0  0  0  0  0  0
    8.5143    6.7032    6.0415 C   0  0  0  0  0  0  0  0  0  0  0  0
    7.3031    6.0193    6.0471 C   0  0  0  0  0  0  0  0  0  0  0  0
    6.6903    5.6770    4.8458 C   0  0  0  0  0  0  0  0  0  0  0  0
    4.3085    5.6938    2.4888 C   0  0  0  0  0  0  0  0  0  0  0  0
    3.1292    4.9557    2.4948 C   0  0  0  0  0  0  0  0  0  0  0  0
    4.3730    1.4784    2.4906 C   0  0  0  0  0  0  0  0  0  0  0  0
    5.4013    0.8177    2.4878 O   0  0  0  0  0  0  0  0  0  0  0  0
    3.1736    0.8184    2.4956 N   0  0  0  0  0  0  0  0  0  0  0  0
   -2.1293   -3.3136    2.5210 C   0  0  0  0  0  0  0  0  0  0  0  0
   -2.8720   -3.2255    1.4056 N   0  0  0  0  0  0  0  0  0  0  0  0
   -4.1986   -3.4263    1.4098 C   0  0  0  0  0  0  0  0  0  0  0  0
   -4.8313   -3.7375    2.6092 C   0  0  0  0  0  0  0  0  0  0  0  0
   -4.0970   -3.8278    3.7281 N   0  0  0  0  0  0  0  0  0  0  0  0
   -2.7718   -3.6246    3.7137 C   0  0  0  0  0  0  0  0  0  0  0  0
   -0.4495    2.4531    2.5130 H   0  0  0  0  0  0  0  0  0  0  0  0
   -2.5183    1.2353    2.5220 H   0  0  0  0  0  0  0  0  0  0  0  0
   -2.4736   -1.1620    2.5231 H   0  0  0  0  0  0  0  0  0  0  0  0
    6.4295    3.1611    2.4819 H   0  0  0  0  0  0  0  0  0  0  0  0
    8.9420    6.9518    2.7625 H   0  0  0  0  0  0  0  0  0  0  0  0
    9.9902    7.5364    4.8357 H   0  0  0  0  0  0  0  0  0  0  0  0
    8.9519    6.9493    6.9063 H   0  0  0  0  0  0  0  0  0  0  0  0
    6.8723    5.7734    6.9154 H   0  0  0  0  0  0  0  0  0  0  0  0
    5.8193    5.1857    4.8462 H   0  0  0  0  0  0  0  0  0  0  0  0
    4.2783    6.6933    2.4880 H   0  0  0  0  0  0  0  0  0  0  0  0
    2.2512    5.4344    2.4988 H   0  0  0  0  0  0  0  0  0  0  0  0
    3.1592   -0.1815    2.4955 H   0  0  0  0  0  0  0  0  0  0  0  0
   -4.7252   -3.3532    0.5628 H   0  0  0  0  0  0  0  0  0  0  0  0
   -5.8189   -3.8917    2.6367 H   0  0  0  0  0  0  0  0  0  0  0  0
   -2.2457   -3.6968    4.5611 H   0  0  0  0  0  0  0  0  0  0  0  0
  1  2  1  0  0  0  0
  2  3  1  0  0  0  0
  3  4  2  0  0  0  0
  4  5  1  0  0  0  0
  5  6  2  0  0  0  0
  6  7  1  0  0  0  0
  7  2  2  0  0  0  0
  4  8  1  0  0  0  0
  8  9  2  0  0  0  0
  9 10  1  0  0  0  0
 10 11  1  0  0  0  0
 11 12  2  0  0  0  0
 12 13  1  0  0  0  0
 13 14  1  0  0  0  0
 14 15  1  0  0  0  0
 15 16  1  0  0  0  0
 16 17  2  0  0  0  0
 17 18  1  0  0  0  0
 18 19  2  0  0  0  0
 19 20  1  0  0  0  0
 20 15  2  0  0  0  0
 13 21  2  0  0  0  0
 21 22  1  0  0  0  0
 22 10  2  0  0  0  0
 11 23  1  0  0  0  0
 23 24  2  0  0  0  0
 23 25  1  0  0  0  0
 25  8  1  0  0  0  0
  1 26  1  0  0  0  0
 26 27  1  0  0  0  0
 27 28  2  0  0  0  0
 28 29  1  0  0  0  0
 29 30  2  0  0  0  0
 30 31  1  0  0  0  0
 31 26  2  0  0  0  0
  5 32  1  0  0  0  0
  6 33  1  0  0  0  0
  7 34  1  0  0  0  0
 12 35  1  0  0  0  0
 16 36  1  0  0  0  0
 17 37  1  0  0  0  0
 18 38  1  0  0  0  0
 19 39  1  0  0  0  0
 20 40  1  0  0  0  0
 21 41  1  0  0  0  0
 22 42  1  0  0  0  0
 25 43  1  0  0  0  0
 28 44  1  0  0  0  0
 29 45  1  0  0  0  0
 31 46  1  0  0  0  0
M  END
>  <result-rank>
6

>  <similarity>
0.890

>  <query-name>


>  <query-smiles>
S1C(C(=O)NC2=Nc3c(N2CCC(=O)N)ccc(N(C(=O)c4ccccc4)C)c3)=CC=C1/C=C/c5ncc(N)cn5

>  <source>
REALspace_2019-12

>  <similarity-descriptor>
0.857;0.998;0.936;0.987;0.990;0.987;0.987;0.0;0.0;0.0;0.0;0.990;0.156;0.0;0.978;0.936;0.0;0.0

>  <similarity-descriptor-smiles>
c1ccccn1;c1ccccc1;c1cnccn1;C=1NC(ccN1)=O;c1ccccc1;C=1NC(ccN1)=O;C=1NC(ccN1)=O;;;;;c1ccccc1;O;;S;c1cnccn1;;

>  <reaction-name>
s_708

>  <reagent1-name>
1723544

>  <reagent1-smiles>
[R1*]=Nc1c(cc(Oc2ccccc2)cc1)C([R2*])=O

>  <reagent2-name>
9192442

>  <reagent2-smiles>
[R1*]=C(N[R2*])c1nc(Sc2nccnc2)ccc1

$$$$
s_708____5532596____2161430
          04022017343D 1   1.00000     0.00000     0
            
 52 56  0  0  0  0            999 V2000
   11.5690    3.1757    2.4229 F   0  0  0  0  0  0  0  0  0  0  0  0
   10.3887    3.7879    2.4366 C   0  0  0  0  0  0  0  0  0  0  0  0
   10.3689    5.1764    2.4435 C   0  0  0  0  0  0  0  0  0  0  0  0
   11.5075    5.8978    2.4380 O   0  0  0  0  0  0  0  0  0  0  0  0
   12.0871    6.2531    3.6042 C   0  0  0  0  0  0  0  0  0  0  0  0
   11.7345    7.4558    4.2078 C   0  0  0  0  0  0  0  0  0  0  0  0
   12.3294    7.8245    5.4103 C   0  0  0  0  0  0  0  0  0  0  0  0
   13.2710    6.9828    5.9936 C   0  0  0  0  0  0  0  0  0  0  0  0
   13.8428    7.3308    7.1431 F   0  0  0  0  0  0  0  0  0  0  0  0
   13.6279    5.7788    5.3952 C   0  0  0  0  0  0  0  0  0  0  0  0
   13.0295    5.4162    4.1928 C   0  0  0  0  0  0  0  0  0  0  0  0
    9.1463    5.8340    2.4567 C   0  0  0  0  0  0  0  0  0  0  0  0
    7.9502    5.1238    2.4635 C   0  0  0  0  0  0  0  0  0  0  0  0
    7.9680    3.7342    2.4580 C   0  0  0  0  0  0  0  0  0  0  0  0
    6.7901    3.0335    2.4656 N   0  0  0  0  0  0  0  0  0  0  0  0
    5.6230    3.6528    2.4786 C   0  0  0  0  0  0  0  0  0  0  0  0
    5.5502    5.0209    2.4853 N   0  0  0  0  0  0  0  0  0  0  0  0
    6.6887    5.7807    2.4780 C   0  0  0  0  0  0  0  0  0  0  0  0
    6.5748    6.9968    2.4844 O   0  0  0  0  0  0  0  0  0  0  0  0
    4.3800    2.9062    2.4867 C   0  0  0  0  0  0  0  0  0  0  0  0
    3.1728    3.5972    2.5008 C   0  0  0  0  0  0  0  0  0  0  0  0
    1.9830    2.8768    2.5101 C   0  0  0  0  0  0  0  0  0  0  0  0
    0.7615    3.5615    2.5249 N   0  0  0  0  0  0  0  0  0  0  0  0
    0.4644    4.4101    3.5586 C   0  0  0  0  0  0  0  0  0  0  0  0
    0.9107    4.2020    4.6529 O   0  0  0  0  0  0  0  0  0  0  0  0
   -0.3894    5.5600    3.3302 C   0  0  0  0  0  0  0  0  0  0  0  0
   -0.5693    6.0477    2.0392 C   0  0  0  0  0  0  0  0  0  0  0  0
    0.0422    5.4599    1.0146 F   0  0  0  0  0  0  0  0  0  0  0  0
   -1.3877    7.1508    1.8207 C   0  0  0  0  0  0  0  0  0  0  0  0
   -2.0271    7.7655    2.8918 C   0  0  0  0  0  0  0  0  0  0  0  0
   -1.8473    7.2777    4.1824 C   0  0  0  0  0  0  0  0  0  0  0  0
   -1.0289    6.1744    4.4011 C   0  0  0  0  0  0  0  0  0  0  0  0
    1.9867    1.4860    2.5051 C   0  0  0  0  0  0  0  0  0  0  0  0
    3.2053    0.8159    2.4905 C   0  0  0  0  0  0  0  0  0  0  0  0
    4.4072    1.5158    2.4809 C   0  0  0  0  0  0  0  0  0  0  0  0
    9.1933    3.0757    2.4447 C   0  0  0  0  0  0  0  0  0  0  0  0
   11.0563    8.0527    3.7792 H   0  0  0  0  0  0  0  0  0  0  0  0
   12.0823    8.6873    5.8514 H   0  0  0  0  0  0  0  0  0  0  0  0
   14.3059    5.1817    5.8239 H   0  0  0  0  0  0  0  0  0  0  0  0
   13.2769    4.5537    3.7515 H   0  0  0  0  0  0  0  0  0  0  0  0
    9.1252    6.8338    2.4613 H   0  0  0  0  0  0  0  0  0  0  0  0
    4.6562    5.4689    2.4955 H   0  0  0  0  0  0  0  0  0  0  0  0
    3.1605    4.5971    2.5042 H   0  0  0  0  0  0  0  0  0  0  0  0
    0.1061    3.4310    1.7810 H   0  0  0  0  0  0  0  0  0  0  0  0
   -1.5164    7.5019    0.8932 H   0  0  0  0  0  0  0  0  0  0  0  0
   -2.6160    8.5582    2.7345 H   0  0  0  0  0  0  0  0  0  0  0  0
   -2.3064    7.7203    4.9527 H   0  0  0  0  0  0  0  0  0  0  0  0
   -0.9005    5.8231    5.3285 H   0  0  0  0  0  0  0  0  0  0  0  0
    1.1266    0.9758    2.5119 H   0  0  0  0  0  0  0  0  0  0  0  0
    3.2176   -0.1840    2.4868 H   0  0  0  0  0  0  0  0  0  0  0  0
    5.2790    1.0260    2.4700 H   0  0  0  0  0  0  0  0  0  0  0  0
    9.2154    2.0760    2.4408 H   0  0  0  0  0  0  0  0  0  0  0  0
  1  2  1  0  0  0  0
  2  3  1  0  0  0  0
  3  4  1  0  0  0  0
  4  5  1  0  0  0  0
  5  6  1  0  0  0  0
  6  7  2  0  0  0  0
  7  8  1  0  0  0  0
  8  9  1  0  0  0  0
  8 10  2  0  0  0  0
 10 11  1  0  0  0  0
 11  5  2  0  0  0  0
  3 12  2  0  0  0  0
 12 13  1  0  0  0  0
 13 14  2  0  0  0  0
 14 15  1  0  0  0  0
 15 16  2  0  0  0  0
 16 17  1  0  0  0  0
 17 18  1  0  0  0  0
 18 13  1  0  0  0  0
 18 19  2  0  0  0  0
 16 20  1  0  0  0  0
 20 21  1  0  0  0  0
 21 22  2  0  0  0  0
 22 23  1  0  0  0  0
 23 24  1  0  0  0  0
 24 25  2  0  0  0  0
 24 26  1  0  0  0  0
 26 27  1  0  0  0  0
 27 28  1  0  0  0  0
 27 29  2  0  0  0  0
 29 30  1  0  0  0  0
 30 31  2  0  0  0  0
 31 32  1  0  0  0  0
 32 26  2  0  0  0  0
 22 33  1  0  0  0  0
 33 34  2  0  0  0  0
 34 35  1  0  0  0  0
 35 20  2  0  0  0  0
 14 36  1  0  0  0  0
 36  2  2  0  0  0  0
  6 37  1  0  0  0  0
  7 38  1  0  0  0  0
 10 39  1  0  0  0  0
 11 40  1  0  0  0  0
 12 41  1  0  0  0  0
 17 42  1  0  0  0  0
 21 43  1  0  0  0  0
 23 44  1  0  0  0  0
 29 45  1  0  0  0  0
 30 46  1  0  0  0  0
 31 47  1  0  0  0  0
 32 48  1  0  0  0  0
 33 49  1  0  0  0  0
 34 50  1  0  0  0  0
 35 51  1  0  0  0  0
 36 52  1  0  0  0  0
M  END
>  <result-rank>
7

>  <similarity>
0.890

>  <query-name>


>  <query-smiles>
S1C(C(=O)NC2=Nc3c(N2CCC(=O)N)ccc(N(C(=O)c4ccccc4)C)c3)=CC=C1/C=C/c5ncc(N)cn5

>  <source>
REALspace_2019-12

>  <similarity-descriptor>
0.944;0.967;0.787;0.987;0.948;0.987;0.987;0.0;0.0;0.0;0.0;0.948;0.852;0.0;0.787;0.787;0.0;0.0

>  <similarity-descriptor-smiles>
Fc1ccccc1O;c1ccccc1F;c1ccc(cc1)F;c1C(NC=Nc1)=O;c1ccccc1;c1C(NC=Nc1)=O;c1C(NC=Nc1)=O;;;;;c1ccccc1;NC=O;;c1ccc(cc1)F;c1ccc(cc1)F;;

>  <reaction-name>
s_708

>  <reagent1-name>
5532596

>  <reagent1-smiles>
[R1*]=Nc1c(cc(Oc2ccc(F)cc2)c(F)c1)C([R2*])=O

>  <reagent2-name>
2161430

>  <reagent2-smiles>
[R1*]=C(N[R2*])c1cc(NC(=O)c2c(F)cccc2)ccc1

$$$$
s_270196____8770750____10224814
          04022017343D 1   1.00000     0.00000     0
            
 51 55  0  0  0  0            999 V2000
    9.4132   -1.8368    2.4088 F   0  0  0  0  0  0  0  0  0  0  0  0
    9.9815   -0.6338    2.4077 C   0  0  0  0  0  0  0  0  0  0  0  0
    9.1895    0.5097    2.4218 C   0  0  0  0  0  0  0  0  0  0  0  0
    9.7841    1.7674    2.4216 C   0  0  0  0  0  0  0  0  0  0  0  0
   11.1698    1.8857    2.4063 C   0  0  0  0  0  0  0  0  0  0  0  0
   11.9506    0.7343    2.3913 C   0  0  0  0  0  0  0  0  0  0  0  0
   13.3947    0.8558    2.3753 C   0  0  0  0  0  0  0  0  0  0  0  0
   14.0162    1.9474    2.9735 C   0  0  0  0  0  0  0  0  0  0  0  0
   15.3542    2.0384    2.9453 N   0  0  0  0  0  0  0  0  0  0  0  0
   16.1067    1.0998    2.3528 C   0  0  0  0  0  0  0  0  0  0  0  0
   15.5233    0.0413    1.7710 N   0  0  0  0  0  0  0  0  0  0  0  0
   14.1902   -0.1078    1.7651 C   0  0  0  0  0  0  0  0  0  0  0  0
   11.3687   -0.5294    2.3919 C   0  0  0  0  0  0  0  0  0  0  0  0
    7.7441    0.3909    2.4378 C   0  0  0  0  0  0  0  0  0  0  0  0
    7.0691   -0.7329    2.4406 O   0  0  0  0  0  0  0  0  0  0  0  0
    5.8269   -0.4812    2.4568 N   0  0  0  0  0  0  0  0  0  0  0  0
    5.6615    0.8207    2.4636 C   0  0  0  0  0  0  0  0  0  0  0  0
    6.8961    1.3879    2.4505 N   0  0  0  0  0  0  0  0  0  0  0  0
    4.3934    1.5238    2.4792 C   0  0  0  0  0  0  0  0  0  0  0  0
    4.3889    2.9151    2.4847 C   0  0  0  0  0  0  0  0  0  0  0  0
    3.1774    3.5986    2.4996 C   0  0  0  0  0  0  0  0  0  0  0  0
    1.9850    2.8822    2.5096 C   0  0  0  0  0  0  0  0  0  0  0  0
    0.7615    3.5615    2.5249 N   0  0  0  0  0  0  0  0  0  0  0  0
    0.2504    4.0782    1.3636 C   0  0  0  0  0  0  0  0  0  0  0  0
   -0.7987    4.6606    1.3766 O   0  0  0  0  0  0  0  0  0  0  0  0
    0.9774    3.9211    0.1180 C   0  0  0  0  0  0  0  0  0  0  0  0
    1.9023    4.8847   -0.2675 C   0  0  0  0  0  0  0  0  0  0  0  0
    2.5854    4.7087   -1.4661 C   0  0  0  0  0  0  0  0  0  0  0  0
    2.3573    3.6323   -2.2336 N   0  0  0  0  0  0  0  0  0  0  0  0
    1.4688    2.6927   -1.8776 C   0  0  0  0  0  0  0  0  0  0  0  0
    0.7538    2.8121   -0.6902 C   0  0  0  0  0  0  0  0  0  0  0  0
    0.0249    3.7206    3.7870 C   0  0  0  0  0  0  0  0  0  0  0  0
    1.9902    1.4907    2.5042 C   0  0  0  0  0  0  0  0  0  0  0  0
    3.2017    0.8073    2.4891 C   0  0  0  0  0  0  0  0  0  0  0  0
    9.2136    2.5887    2.4325 H   0  0  0  0  0  0  0  0  0  0  0  0
   11.6001    2.7884    2.4060 H   0  0  0  0  0  0  0  0  0  0  0  0
   13.4710    2.6569    3.4199 H   0  0  0  0  0  0  0  0  0  0  0  0
   17.1027    1.1889    2.3448 H   0  0  0  0  0  0  0  0  0  0  0  0
   13.7728   -0.9036    1.3264 H   0  0  0  0  0  0  0  0  0  0  0  0
   11.9392   -1.3506    2.3810 H   0  0  0  0  0  0  0  0  0  0  0  0
    5.2515    3.4208    2.4781 H   0  0  0  0  0  0  0  0  0  0  0  0
    3.1638    4.5985    2.5030 H   0  0  0  0  0  0  0  0  0  0  0  0
    2.0727    5.6870    0.3046 H   0  0  0  0  0  0  0  0  0  0  0  0
    3.2540    5.3921   -1.7591 H   0  0  0  0  0  0  0  0  0  0  0  0
    1.3194    1.9008   -2.4697 H   0  0  0  0  0  0  0  0  0  0  0  0
    0.0909    2.1128   -0.4227 H   0  0  0  0  0  0  0  0  0  0  0  0
   -0.8212    4.2262    3.6177 H   0  0  0  0  0  0  0  0  0  0  0  0
   -0.1945    2.8194    4.1608 H   0  0  0  0  0  0  0  0  0  0  0  0
    0.5891    4.2245    4.4410 H   0  0  0  0  0  0  0  0  0  0  0  0
    1.1277    0.9848    2.5111 H   0  0  0  0  0  0  0  0  0  0  0  0
    3.2155   -0.1926    2.4853 H   0  0  0  0  0  0  0  0  0  0  0  0
  1  2  1  0  0  0  0
  2  3  1  0  0  0  0
  3  4  2  0  0  0  0
  4  5  1  0  0  0  0
  5  6  2  0  0  0  0
  6  7  1  0  0  0  0
  7  8  1  0  0  0  0
  8  9  2  0  0  0  0
  9 10  1  0  0  0  0
 10 11  2  0  0  0  0
 11 12  1  0  0  0  0
 12  7  2  0  0  0  0
  6 13  1  0  0  0  0
 13  2  2  0  0  0  0
  3 14  1  0  0  0  0
 14 15  1  0  0  0  0
 15 16  1  0  0  0  0
 16 17  2  0  0  0  0
 17 18  1  0  0  0  0
 14 18  2  0  0  0  0
 17 19  1  0  0  0  0
 19 20  1  0  0  0  0
 20 21  2  0  0  0  0
 21 22  1  0  0  0  0
 22 23  1  0  0  0  0
 23 24  1  0  0  0  0
 24 25  2  0  0  0  0
 24 26  1  0  0  0  0
 26 27  1  0  0  0  0
 27 28  2  0  0  0  0
 28 29  1  0  0  0  0
 29 30  2  0  0  0  0
 30 31  1  0  0  0  0
 31 26  2  0  0  0  0
 23 32  1  0  0  0  0
 22 33  2  0  0  0  0
 33 34  1  0  0  0  0
 34 19  2  0  0  0  0
  4 35  1  0  0  0  0
  5 36  1  0  0  0  0
  8 37  1  0  0  0  0
 10 38  1  0  0  0  0
 12 39  1  0  0  0  0
 13 40  1  0  0  0  0
 20 41  1  0  0  0  0
 21 42  1  0  0  0  0
 27 43  1  0  0  0  0
 28 44  1  0  0  0  0
 30 45  1  0  0  0  0
 31 46  1  0  0  0  0
 32 47  1  0  0  0  0
 32 48  1  0  0  0  0
 32 49  1  0  0  0  0
 33 50  1  0  0  0  0
 34 51  1  0  0  0  0
M  END
>  <result-rank>
8

>  <similarity>
0.889

>  <query-name>


>  <query-smiles>
S1C(C(=O)NC2=Nc3c(N2CCC(=O)N)ccc(N(C(=O)c4ccccc4)C)c3)=CC=C1/C=C/c5ncc(N)cn5

>  <source>
REALspace_2019-12

>  <similarity-descriptor>
0.966;0.859;0.936;0.801;0.939;0.801;0.801;0.0;0.0;0.0;0.0;1.000;1.000;1.000;0.966;0.936;0.0;0.0

>  <similarity-descriptor-smiles>
Fc1ccccc1;c1ccncc1;c1cncnc1;C1=NC=NO1;c1ccccc1;C1=NC=NO1;C1=NC=NO1;;;;;N;C=O;C;Fc1ccccc1;c1cncnc1;;

>  <reaction-name>
s_270196

>  <reagent1-name>
8770750

>  <reagent1-smiles>
[R1*]=NC(=NO[R2*])c1ccc(N(C(=O)c2ccncc2)C)cc1

>  <reagent2-name>
10224814

>  <reagent2-smiles>
[R1*]C([R2*])c1c(F)cc(c2cncnc2)cc1

$$$$
s_22____13206596____1324354
          04022017343D 1   1.00000     0.00000     0
            
 53 57  0  0  0  0            999 V2000
    7.3530   -7.2336    3.3133 Cl  0  0  0  0  0  0  0  0  0  0  0  0
    6.6679   -6.0907    2.1301 C   0  0  0  0  0  0  0  0  0  0  0  0
    5.9946   -4.9810    2.4814 N   0  0  0  0  0  0  0  0  0  0  0  0
    5.5024   -4.1580    1.6118 N   0  0  0  0  0  0  0  0  0  0  0  0
    5.6238   -4.3484    0.2866 C   0  0  0  0  0  0  0  0  0  0  0  0
    5.1138   -3.4964   -0.6326 O   0  0  0  0  0  0  0  0  0  0  0  0
    4.4464   -2.3943   -0.2336 C   0  0  0  0  0  0  0  0  0  0  0  0
    3.0718   -2.4529   -0.0329 C   0  0  0  0  0  0  0  0  0  0  0  0
    2.2012   -3.9808   -0.3051 Cl  0  0  0  0  0  0  0  0  0  0  0  0
    2.3714   -1.3241    0.3787 C   0  0  0  0  0  0  0  0  0  0  0  0
    3.0697   -0.1388    0.5855 C   0  0  0  0  0  0  0  0  0  0  0  0
    2.3700    1.0000    1.0000 N   0  0  0  0  0  0  0  0  0  0  0  0
    1.0000    1.0000    1.0000 C   0  0  0  0  0  0  0  0  0  0  0  0
    0.4000   -0.0392    1.0000 O   0  0  0  0  0  0  0  0  0  0  0  0
    0.2745    2.2565    1.0000 C   0  0  0  0  0  0  0  0  0  0  0  0
   -1.0820    2.3879    1.0000 N   0  0  0  0  0  0  0  0  0  0  0  0
   -1.3693    3.7241    1.0051 C   0  0  0  0  0  0  0  0  0  0  0  0
   -0.2107    4.4580    1.0028 C   0  0  0  0  0  0  0  0  0  0  0  0
   -0.2579    5.8525    1.0134 C   0  0  0  0  0  0  0  0  0  0  0  0
   -1.4802    6.5215    1.0213 C   0  0  0  0  0  0  0  0  0  0  0  0
   -2.6521    5.7738    1.0211 C   0  0  0  0  0  0  0  0  0  0  0  0
   -3.8500    6.3964    1.0293 O   0  0  0  0  0  0  0  0  0  0  0  0
   -3.9128    7.8150    1.0368 C   0  0  0  0  0  0  0  0  0  0  0  0
   -5.3672    8.2578    1.0451 C   0  0  0  0  0  0  0  0  0  0  0  0
   -6.0213    8.4524    2.2572 C   0  0  0  0  0  0  0  0  0  0  0  0
   -7.3523    8.8568    2.2603 C   0  0  0  0  0  0  0  0  0  0  0  0
   -8.0189    9.0648    1.0574 C   0  0  0  0  0  0  0  0  0  0  0  0
   -7.3552    8.8679   -0.1474 C   0  0  0  0  0  0  0  0  0  0  0  0
   -6.0245    8.4629   -0.1638 C   0  0  0  0  0  0  0  0  0  0  0  0
   -2.5936    4.3831    1.0138 C   0  0  0  0  0  0  0  0  0  0  0  0
    0.8353    3.4997    1.0033 C   0  0  0  0  0  0  0  0  0  0  0  0
    4.4453   -0.0665    0.3889 C   0  0  0  0  0  0  0  0  0  0  0  0
    5.1330   -1.2035   -0.0235 C   0  0  0  0  0  0  0  0  0  0  0  0
    6.3064   -5.4740   -0.1607 C   0  0  0  0  0  0  0  0  0  0  0  0
    6.8348   -6.3569    0.7749 C   0  0  0  0  0  0  0  0  0  0  0  0
    1.3828   -1.3638    0.5235 H   0  0  0  0  0  0  0  0  0  0  0  0
    2.8700    1.8138    1.2962 H   0  0  0  0  0  0  0  0  0  0  0  0
   -1.7472    1.6412    0.9968 H   0  0  0  0  0  0  0  0  0  0  0  0
    0.5936    6.3768    1.0152 H   0  0  0  0  0  0  0  0  0  0  0  0
   -1.5138    7.5209    1.0271 H   0  0  0  0  0  0  0  0  0  0  0  0
   -3.4601    8.1730    0.2202 H   0  0  0  0  0  0  0  0  0  0  0  0
   -3.4532    8.1648    1.8531 H   0  0  0  0  0  0  0  0  0  0  0  0
   -5.5383    8.3027    3.1200 H   0  0  0  0  0  0  0  0  0  0  0  0
   -7.8300    8.9979    3.1275 H   0  0  0  0  0  0  0  0  0  0  0  0
   -8.9755    9.3561    1.0595 H   0  0  0  0  0  0  0  0  0  0  0  0
   -7.8383    9.0184   -1.0099 H   0  0  0  0  0  0  0  0  0  0  0  0
   -5.5477    8.3214   -1.0314 H   0  0  0  0  0  0  0  0  0  0  0  0
   -3.4411    3.8523    1.0149 H   0  0  0  0  0  0  0  0  0  0  0  0
    1.8148    3.7010    1.0057 H   0  0  0  0  0  0  0  0  0  0  0  0
    4.9339    0.7925    0.5422 H   0  0  0  0  0  0  0  0  0  0  0  0
    6.1217   -1.1644   -0.1688 H   0  0  0  0  0  0  0  0  0  0  0  0
    6.4157   -5.6460   -1.1397 H   0  0  0  0  0  0  0  0  0  0  0  0
    7.3289   -7.1737    0.4770 H   0  0  0  0  0  0  0  0  0  0  0  0
  1  2  1  0  0  0  0
  2  3  1  0  0  0  0
  3  4  2  0  0  0  0
  4  5  1  0  0  0  0
  5  6  1  0  0  0  0
  6  7  1  0  0  0  0
  7  8  1  0  0  0  0
  8  9  1  0  0  0  0
  8 10  2  0  0  0  0
 10 11  1  0  0  0  0
 11 12  1  0  0  0  0
 12 13  1  0  0  0  0
 13 14  2  0  0  0  0
 13 15  1  0  0  0  0
 15 16  1  0  0  0  0
 16 17  1  0  0  0  0
 17 18  1  0  0  0  0
 18 19  2  0  0  0  0
 19 20  1  0  0  0  0
 20 21  2  0  0  0  0
 21 22  1  0  0  0  0
 22 23  1  0  0  0  0
 23 24  1  0  0  0  0
 24 25  1  0  0  0  0
 25 26  2  0  0  0  0
 26 27  1  0  0  0  0
 27 28  2  0  0  0  0
 28 29  1  0  0  0  0
 29 24  2  0  0  0  0
 21 30  1  0  0  0  0
 30 17  2  0  0  0  0
 18 31  1  0  0  0  0
 15 31  2  0  0  0  0
 11 32  2  0  0  0  0
 32 33  1  0  0  0  0
 33  7  2  0  0  0  0
  5 34  2  0  0  0  0
 34 35  1  0  0  0  0
 35  2  2  0  0  0  0
 10 36  1  0  0  0  0
 12 37  1  0  0  0  0
 16 38  1  0  0  0  0
 19 39  1  0  0  0  0
 20 40  1  0  0  0  0
 23 41  1  0  0  0  0
 23 42  1  0  0  0  0
 25 43  1  0  0  0  0
 26 44  1  0  0  0  0
 27 45  1  0  0  0  0
 28 46  1  0  0  0  0
 29 47  1  0  0  0  0
 30 48  1  0  0  0  0
 31 49  1  0  0  0  0
 32 50  1  0  0  0  0
 33 51  1  0  0  0  0
 34 52  1  0  0  0  0
 35 53  1  0  0  0  0
M  END
>  <result-rank>
9

>  <similarity>
0.889

>  <query-name>


>  <query-smiles>
S1C(C(=O)NC2=Nc3c(N2CCC(=O)N)ccc(N(C(=O)c4ccccc4)C)c3)=CC=C1/C=C/c5ncc(N)cn5

>  <source>
REALspace_2019-12

>  <similarity-descriptor>
0.930;1.000;0.950;0.827;0.990;0.852;0.827;0.0;0.0;0.0;0.0;0.990;0.568;0.0;0.930;0.930;0.0;0.0

>  <similarity-descriptor-smiles>
c1ccccc1Cl;c1ccccc1;Clc1ccc(nn1)O;C1=CccN1;c1ccccc1;NC=O;C1=CccN1;;;;;c1ccccc1;OC;;c1ccccc1Cl;c1ccccc1Cl;;

>  <reaction-name>
s_22

>  <reagent1-name>
13206596

>  <reagent1-smiles>
[R1*]Nc1cc(Cl)c(Oc2nnc(Cl)cc2)cc1

>  <reagent2-name>
1324354

>  <reagent2-smiles>
[R1*]C(=O)C=1Nc2c(ccc(OCc3ccccc3)c2)C1

$$$$
s_708____1723544____8845432
          04022017343D 1   1.00000     0.00000     0
            
 47 51  0  0  0  0            999 V2000
    5.4013    0.8177    2.4878 O   0  0  0  0  0  0  0  0  0  0  0  0
    4.3730    1.4784    2.4906 C   0  0  0  0  0  0  0  0  0  0  0  0
    3.1736    0.8184    2.4956 N   0  0  0  0  0  0  0  0  0  0  0  0
    1.9928    1.5131    2.5007 C   0  0  0  0  0  0  0  0  0  0  0  0
    1.9860    2.8354    2.5006 N   0  0  0  0  0  0  0  0  0  0  0  0
    3.1479    3.5642    2.4955 C   0  0  0  0  0  0  0  0  0  0  0  0
    4.3714    2.9007    2.4900 C   0  0  0  0  0  0  0  0  0  0  0  0
    5.5511    3.6390    2.4849 C   0  0  0  0  0  0  0  0  0  0  0  0
    5.5301    5.0284    2.4838 C   0  0  0  0  0  0  0  0  0  0  0  0
    6.7060    5.6912    2.4778 O   0  0  0  0  0  0  0  0  0  0  0  0
    7.2994    6.0237    3.6441 C   0  0  0  0  0  0  0  0  0  0  0  0
    8.5111    6.7066    3.6309 C   0  0  0  0  0  0  0  0  0  0  0  0
    9.1188    7.0459    4.8361 C   0  0  0  0  0  0  0  0  0  0  0  0
    8.5143    6.7032    6.0415 C   0  0  0  0  0  0  0  0  0  0  0  0
    7.3031    6.0193    6.0471 C   0  0  0  0  0  0  0  0  0  0  0  0
    6.6903    5.6770    4.8458 C   0  0  0  0  0  0  0  0  0  0  0  0
    4.3085    5.6938    2.4888 C   0  0  0  0  0  0  0  0  0  0  0  0
    3.1292    4.9557    2.4948 C   0  0  0  0  0  0  0  0  0  0  0  0
    0.7570    0.7540    2.5065 C   0  0  0  0  0  0  0  0  0  0  0  0
    0.8124   -0.6358    2.5067 C   0  0  0  0  0  0  0  0  0  0  0  0
   -0.3773   -1.3569    2.5126 C   0  0  0  0  0  0  0  0  0  0  0  0
   -0.3335   -2.8063    2.5109 C   0  0  0  0  0  0  0  0  0  0  0  0
   -1.4983   -3.5670    2.5166 C   0  0  0  0  0  0  0  0  0  0  0  0
   -1.4469   -4.9072    2.5142 N   0  0  0  0  0  0  0  0  0  0  0  0
   -0.2742   -5.5582    2.5067 C   0  0  0  0  0  0  0  0  0  0  0  0
    0.9260   -4.8552    2.5010 C   0  0  0  0  0  0  0  0  0  0  0  0
    0.8916   -3.4648    2.5029 C   0  0  0  0  0  0  0  0  0  0  0  0
   -1.6086   -0.7101    2.5184 C   0  0  0  0  0  0  0  0  0  0  0  0
   -1.6389    0.6803    2.5185 C   0  0  0  0  0  0  0  0  0  0  0  0
   -0.4628    1.4227    2.5129 C   0  0  0  0  0  0  0  0  0  0  0  0
    3.1592   -0.1815    2.4955 H   0  0  0  0  0  0  0  0  0  0  0  0
    6.4295    3.1611    2.4819 H   0  0  0  0  0  0  0  0  0  0  0  0
    8.9420    6.9518    2.7625 H   0  0  0  0  0  0  0  0  0  0  0  0
    9.9902    7.5364    4.8357 H   0  0  0  0  0  0  0  0  0  0  0  0
    8.9519    6.9493    6.9063 H   0  0  0  0  0  0  0  0  0  0  0  0
    6.8723    5.7734    6.9154 H   0  0  0  0  0  0  0  0  0  0  0  0
    5.8193    5.1857    4.8462 H   0  0  0  0  0  0  0  0  0  0  0  0
    4.2783    6.6933    2.4880 H   0  0  0  0  0  0  0  0  0  0  0  0
    2.2512    5.4344    2.4988 H   0  0  0  0  0  0  0  0  0  0  0  0
    1.6933   -1.1091    2.5027 H   0  0  0  0  0  0  0  0  0  0  0  0
   -2.3867   -3.1080    2.5225 H   0  0  0  0  0  0  0  0  0  0  0  0
   -0.2627   -6.5581    2.5051 H   0  0  0  0  0  0  0  0  0  0  0  0
    1.7997   -5.3418    2.4957 H   0  0  0  0  0  0  0  0  0  0  0  0
    1.7435   -2.9410    2.4985 H   0  0  0  0  0  0  0  0  0  0  0  0
   -2.4587   -1.2366    2.5224 H   0  0  0  0  0  0  0  0  0  0  0  0
   -2.5199    1.1535    2.5228 H   0  0  0  0  0  0  0  0  0  0  0  0
   -0.4936    2.4222    2.5133 H   0  0  0  0  0  0  0  0  0  0  0  0
  1  2  2  0  0  0  0
  2  3  1  0  0  0  0
  3  4  1  0  0  0  0
  4  5  2  0  0  0  0
  5  6  1  0  0  0  0
  6  7  1  0  0  0  0
  7  2  1  0  0  0  0
  7  8  2  0  0  0  0
  8  9  1  0  0  0  0
  9 10  1  0  0  0  0
 10 11  1  0  0  0  0
 11 12  1  0  0  0  0
 12 13  2  0  0  0  0
 13 14  1  0  0  0  0
 14 15  2  0  0  0  0
 15 16  1  0  0  0  0
 16 11  2  0  0  0  0
  9 17  2  0  0  0  0
 17 18  1  0  0  0  0
 18  6  2  0  0  0  0
  4 19  1  0  0  0  0
 19 20  1  0  0  0  0
 20 21  2  0  0  0  0
 21 22  1  0  0  0  0
 22 23  1  0  0  0  0
 23 24  2  0  0  0  0
 24 25  1  0  0  0  0
 25 26  2  0  0  0  0
 26 27  1  0  0  0  0
 27 22  2  0  0  0  0
 21 28  1  0  0  0  0
 28 29  2  0  0  0  0
 29 30  1  0  0  0  0
 30 19  2  0  0  0  0
  3 31  1  0  0  0  0
  8 32  1  0  0  0  0
 12 33  1  0  0  0  0
 13 34  1  0  0  0  0
 14 35  1  0  0  0  0
 15 36  1  0  0  0  0
 16 37  1  0  0  0  0
 17 38  1  0  0  0  0
 18 39  1  0  0  0  0
 20 40  1  0  0  0  0
 23 41  1  0  0  0  0
 25 42  1  0  0  0  0
 26 43  1  0  0  0  0
 27 44  1  0  0  0  0
 28 45  1  0  0  0  0
 29 46  1  0  0  0  0
 30 47  1  0  0  0  0
M  END
>  <result-rank>
10

>  <similarity>
0.888

>  <query-name>


>  <query-smiles>
S1C(C(=O)NC2=Nc3c(N2CCC(=O)N)ccc(N(C(=O)c4ccccc4)C)c3)=CC=C1/C=C/c5ncc(N)cn5

>  <source>
REALspace_2019-12

>  <similarity-descriptor>
0.932;0.998;0.874;0.987;0.990;0.987;0.987;0.0;0.0;0.0;0.0;0.990;0.156;0.0;0.932;0.874;0.0;0.0

>  <similarity-descriptor-smiles>
c1ccccc1;c1ccccc1;c1cccnc1;O=C1ccN=CN1;c1ccccc1;O=C1ccN=CN1;O=C1ccN=CN1;;;;;c1ccccc1;O;;c1ccccc1;c1cccnc1;;

>  <reaction-name>
s_708

>  <reagent1-name>
1723544

>  <reagent1-smiles>
[R1*]=Nc1c(cc(Oc2ccccc2)cc1)C([R2*])=O

>  <reagent2-name>
8845432

>  <reagent2-smiles>
[R1*]=C(N[R2*])c1cc(c2cnccc2)ccc1

$$$$
s_272212____12527328____9425444
          04022017343D 1   1.00000     0.00000     0
            
 49 52  0  0  0  0            999 V2000
   -5.7397    3.8507   -0.7169 Cl  0  0  0  0  0  0  0  0  0  0  0  0
   -4.4390    3.2948    0.3631 C   0  0  0  0  0  0  0  0  0  0  0  0
   -4.4797    2.0059    0.8845 C   0  0  0  0  0  0  0  0  0  0  0  0
   -5.8287    0.9206    0.4704 Cl  0  0  0  0  0  0  0  0  0  0  0  0
   -3.4738    1.5518    1.7313 C   0  0  0  0  0  0  0  0  0  0  0  0
   -2.4216    2.4041    2.0514 C   0  0  0  0  0  0  0  0  0  0  0  0
   -2.3852    3.6917    1.5266 C   0  0  0  0  0  0  0  0  0  0  0  0
   -3.3890    4.1498    0.6802 C   0  0  0  0  0  0  0  0  0  0  0  0
   -1.2356    4.6230    1.8763 C   0  0  3  0  0  0  0  0  0  0  0  0
   -1.1228    4.6030    3.3365 N   0  0  0  0  0  0  0  0  0  0  0  0
    0.0651    3.9511    3.6695 C   0  0  0  0  0  0  0  0  0  0  0  0
    0.4427    3.7463    4.8092 O   0  0  0  0  0  0  0  0  0  0  0  0
    0.7615    3.5615    2.5249 N   0  0  0  0  0  0  0  0  0  0  0  0
    1.9869    2.8842    2.5109 C   0  0  0  0  0  0  0  0  0  0  0  0
    3.1774    3.6042    2.4996 C   0  0  0  0  0  0  0  0  0  0  0  0
    4.3870    2.9175    2.4860 C   0  0  0  0  0  0  0  0  0  0  0  0
    4.4032    1.5256    2.4835 C   0  0  0  0  0  0  0  0  0  0  0  0
    3.2070    0.8157    2.4951 C   0  0  0  0  0  0  0  0  0  0  0  0
    1.9918    1.4929    2.5088 C   0  0  0  0  0  0  0  0  0  0  0  0
    5.7085    0.7463    2.4684 C   0  0  0  0  0  0  0  0  0  0  0  0
    5.6161    3.6874    2.4743 C   0  0  0  0  0  0  0  0  0  0  0  0
    5.9713    4.2354    1.4676 O   0  0  0  0  0  0  0  0  0  0  0  0
    6.4158    3.7949    3.6794 C   0  0  0  0  0  0  0  0  0  0  0  0
    7.7284    3.3342    3.6788 C   0  0  0  0  0  0  0  0  0  0  0  0
    8.4917    3.4384    4.8371 C   0  0  0  0  0  0  0  0  0  0  0  0
    7.9418    4.0012    5.9841 C   0  0  0  0  0  0  0  0  0  0  0  0
    6.6298    4.4584    5.9729 C   0  0  0  0  0  0  0  0  0  0  0  0
    5.8560    4.3593    4.8212 C   0  0  0  0  0  0  0  0  0  0  0  0
    0.0419    3.9566    1.3994 C   0  0  0  0  0  0  0  0  0  0  0  0
    0.3802    3.8086    0.2362 O   0  0  0  0  0  0  0  0  0  0  0  0
   -1.4344    6.0121    1.2946 C   0  0  0  0  0  0  0  0  0  0  0  0
   -3.5065    0.6248    2.1051 H   0  0  0  0  0  0  0  0  0  0  0  0
   -1.6915    2.0908    2.6587 H   0  0  0  0  0  0  0  0  0  0  0  0
   -3.3564    5.0767    0.3064 H   0  0  0  0  0  0  0  0  0  0  0  0
   -1.7819    4.9890    3.9819 H   0  0  0  0  0  0  0  0  0  0  0  0
    3.1635    4.6041    2.5013 H   0  0  0  0  0  0  0  0  0  0  0  0
    3.2206   -0.1842    2.4937 H   0  0  0  0  0  0  0  0  0  0  0  0
    1.1305    0.9848    2.5170 H   0  0  0  0  0  0  0  0  0  0  0  0
    5.5114   -0.2341    2.4689 H   0  0  0  0  0  0  0  0  0  0  0  0
    6.2276    0.9815    1.6467 H   0  0  0  0  0  0  0  0  0  0  0  0
    6.2450    0.9789    3.2796 H   0  0  0  0  0  0  0  0  0  0  0  0
    8.1203    2.9311    2.8518 H   0  0  0  0  0  0  0  0  0  0  0  0
    9.4357    3.1087    4.8451 H   0  0  0  0  0  0  0  0  0  0  0  0
    8.4907    4.0767    6.8166 H   0  0  0  0  0  0  0  0  0  0  0  0
    6.2385    4.8622    6.7999 H   0  0  0  0  0  0  0  0  0  0  0  0
    4.9119    4.6886    4.8141 H   0  0  0  0  0  0  0  0  0  0  0  0
   -1.5029    5.9498    0.2989 H   0  0  0  0  0  0  0  0  0  0  0  0
   -2.2748    6.4103    1.6622 H   0  0  0  0  0  0  0  0  0  0  0  0
   -0.6565    6.5906    1.5397 H   0  0  0  0  0  0  0  0  0  0  0  0
  1  2  1  0  0  0  0
  2  3  1  0  0  0  0
  3  4  1  0  0  0  0
  3  5  2  0  0  0  0
  5  6  1  0  0  0  0
  6  7  2  0  0  0  0
  7  8  1  0  0  0  0
  8  2  2  0  0  0  0
  7  9  1  0  0  0  0
  9 10  1  0  0  0  0
 10 11  1  0  0  0  0
 11 12  2  0  0  0  0
 11 13  1  0  0  0  0
 13 14  1  0  0  0  0
 14 15  1  0  0  0  0
 15 16  2  0  0  0  0
 16 17  1  0  0  0  0
 17 18  2  0  0  0  0
 18 19  1  0  0  0  0
 19 14  2  0  0  0  0
 17 20  1  0  0  0  0
 16 21  1  0  0  0  0
 21 22  2  0  0  0  0
 21 23  1  0  0  0  0
 23 24  1  0  0  0  0
 24 25  2  0  0  0  0
 25 26  1  0  0  0  0
 26 27  2  0  0  0  0
 27 28  1  0  0  0  0
 28 23  2  0  0  0  0
 13 29  1  0  0  0  0
 29  9  1  0  0  0  0
 29 30  2  0  0  0  0
  9 31  1  0  0  0  0
  5 32  1  0  0  0  0
  6 33  1  0  0  0  0
  8 34  1  0  0  0  0
 10 35  1  0  0  0  0
 15 36  1  0  0  0  0
 18 37  1  0  0  0  0
 19 38  1  0  0  0  0
 20 39  1  0  0  0  0
 20 40  1  0  0  0  0
 20 41  1  0  0  0  0
 24 42  1  0  0  0  0
 25 43  1  0  0  0  0
 26 44  1  0  0  0  0
 27 45  1  0  0  0  0
 28 46  1  0  0  0  0
 31 47  1  0  0  0  0
 31 48  1  0  0  0  0
 31 49  1  0  0  0  0
M  END
>  <result-rank>
11

>  <similarity>
0.886

>  <query-name>


>  <query-smiles>
S1C(C(=O)NC2=Nc3c(N2CCC(=O)N)ccc(N(C(=O)c4ccccc4)C)c3)=CC=C1/C=C/c5ncc(N)cn5

>  <source>
REALspace_2019-12

>  <similarity-descriptor>
0.917;1.000;0.0;0.842;0.993;0.842;0.842;0.956;0.0;0.0;0.0;0.993;0.908;0.995;0.917;0.917;0.0;0.0

>  <similarity-descriptor-smiles>
Clc1ccccc1Cl;c1ccccc1;;C1C(NC(N1)=O)=O;c1ccccc1;C1C(NC(N1)=O)=O;C1C(NC(N1)=O)=O;C;;;;c1ccccc1;C=O;C;Clc1ccccc1Cl;Clc1ccccc1Cl;;

>  <reaction-name>
s_272212

>  <reagent1-name>
12527328

>  <reagent1-smiles>
[R2*]N(c1cc(c(cc1)C)C(=O)c2ccccc2)C([R1*])=O

>  <reagent2-name>
9425444

>  <reagent2-smiles>
[R1*]N(C(c1cc(Cl)c(Cl)cc1)C([R2*])=O)C

$$$$
s_708____1723544____6007714
          04022017343D 1   1.00000     0.00000     0
            
 47 51  0  0  0  0            999 V2000
    5.4013    0.8177    2.4878 O   0  0  0  0  0  0  0  0  0  0  0  0
    4.3730    1.4784    2.4906 C   0  0  0  0  0  0  0  0  0  0  0  0
    3.1736    0.8184    2.4956 N   0  0  0  0  0  0  0  0  0  0  0  0
    1.9928    1.5131    2.5007 C   0  0  0  0  0  0  0  0  0  0  0  0
    1.9860    2.8354    2.5006 N   0  0  0  0  0  0  0  0  0  0  0  0
    3.1479    3.5642    2.4955 C   0  0  0  0  0  0  0  0  0  0  0  0
    4.3714    2.9007    2.4900 C   0  0  0  0  0  0  0  0  0  0  0  0
    5.5511    3.6390    2.4849 C   0  0  0  0  0  0  0  0  0  0  0  0
    5.5301    5.0284    2.4838 C   0  0  0  0  0  0  0  0  0  0  0  0
    6.7060    5.6912    2.4778 O   0  0  0  0  0  0  0  0  0  0  0  0
    7.2887    6.0216    1.3055 C   0  0  0  0  0  0  0  0  0  0  0  0
    8.1794    5.1380    0.7052 C   0  0  0  0  0  0  0  0  0  0  0  0
    8.7778    5.4843   -0.5027 C   0  0  0  0  0  0  0  0  0  0  0  0
    8.4832    6.7053   -1.1009 C   0  0  0  0  0  0  0  0  0  0  0  0
    7.5923    7.5846   -0.4943 C   0  0  0  0  0  0  0  0  0  0  0  0
    6.9906    7.2446    0.7132 C   0  0  0  0  0  0  0  0  0  0  0  0
    4.3085    5.6938    2.4888 C   0  0  0  0  0  0  0  0  0  0  0  0
    3.1292    4.9557    2.4948 C   0  0  0  0  0  0  0  0  0  0  0  0
    0.7569    0.7539    2.5065 C   0  0  0  0  0  0  0  0  0  0  0  0
    0.7711   -0.5740    2.9211 C   0  0  0  0  0  0  0  0  0  0  0  0
   -0.4178   -1.2968    2.9237 C   0  0  0  0  0  0  0  0  0  0  0  0
   -1.6062   -0.6985    2.5166 C   0  0  0  0  0  0  0  0  0  0  0  0
   -2.7957   -1.4317    2.5238 N   0  0  0  0  0  0  0  0  0  0  0  0
   -3.3546   -1.9947    3.5748 N   0  0  0  0  0  0  0  0  0  0  0  0
   -4.4608   -2.5988    3.2047 C   0  0  0  0  0  0  0  0  0  0  0  0
   -4.5904   -2.4111    1.8573 N   0  0  0  0  0  0  0  0  0  0  0  0
   -3.5713   -1.6918    1.4301 C   0  0  0  0  0  0  0  0  0  0  0  0
   -1.6104    0.6305    2.1044 C   0  0  0  0  0  0  0  0  0  0  0  0
   -0.4264    1.3609    2.0982 C   0  0  0  0  0  0  0  0  0  0  0  0
   -0.3871   -2.7467    3.3797 C   0  0  0  0  0  0  0  0  0  0  0  0
    3.1592   -0.1815    2.4955 H   0  0  0  0  0  0  0  0  0  0  0  0
    6.4295    3.1611    2.4819 H   0  0  0  0  0  0  0  0  0  0  0  0
    8.3881    4.2610    1.1380 H   0  0  0  0  0  0  0  0  0  0  0  0
    9.4198    4.8551   -0.9408 H   0  0  0  0  0  0  0  0  0  0  0  0
    8.9132    6.9515   -1.9695 H   0  0  0  0  0  0  0  0  0  0  0  0
    7.3840    8.4620   -0.9266 H   0  0  0  0  0  0  0  0  0  0  0  0
    6.3493    7.8742    1.1518 H   0  0  0  0  0  0  0  0  0  0  0  0
    4.2783    6.6933    2.4880 H   0  0  0  0  0  0  0  0  0  0  0  0
    2.2512    5.4344    2.4988 H   0  0  0  0  0  0  0  0  0  0  0  0
    1.6254   -1.0038    3.2137 H   0  0  0  0  0  0  0  0  0  0  0  0
   -5.0899   -3.1015    3.7975 H   0  0  0  0  0  0  0  0  0  0  0  0
   -3.4000   -1.3952    0.4906 H   0  0  0  0  0  0  0  0  0  0  0  0
   -2.4647    1.0607    1.8127 H   0  0  0  0  0  0  0  0  0  0  0  0
   -0.4260    2.3161    1.8021 H   0  0  0  0  0  0  0  0  0  0  0  0
    0.5477   -2.9972    3.6315 H   0  0  0  0  0  0  0  0  0  0  0  0
   -0.9873   -2.8598    4.1715 H   0  0  0  0  0  0  0  0  0  0  0  0
   -0.7015   -3.3367    2.6360 H   0  0  0  0  0  0  0  0  0  0  0  0
  1  2  2  0  0  0  0
  2  3  1  0  0  0  0
  3  4  1  0  0  0  0
  4  5  2  0  0  0  0
  5  6  1  0  0  0  0
  6  7  1  0  0  0  0
  7  2  1  0  0  0  0
  7  8  2  0  0  0  0
  8  9  1  0  0  0  0
  9 10  1  0  0  0  0
 10 11  1  0  0  0  0
 11 12  1  0  0  0  0
 12 13  2  0  0  0  0
 13 14  1  0  0  0  0
 14 15  2  0  0  0  0
 15 16  1  0  0  0  0
 16 11  2  0  0  0  0
  9 17  2  0  0  0  0
 17 18  1  0  0  0  0
 18  6  2  0  0  0  0
  4 19  1  0  0  0  0
 19 20  1  0  0  0  0
 20 21  2  0  0  0  0
 21 22  1  0  0  0  0
 22 23  1  0  0  0  0
 23 24  1  0  0  0  0
 24 25  2  0  0  0  0
 25 26  1  0  0  0  0
 26 27  2  0  0  0  0
 27 23  1  0  0  0  0
 22 28  2  0  0  0  0
 28 29  1  0  0  0  0
 29 19  2  0  0  0  0
 21 30  1  0  0  0  0
  3 31  1  0  0  0  0
  8 32  1  0  0  0  0
 12 33  1  0  0  0  0
 13 34  1  0  0  0  0
 14 35  1  0  0  0  0
 15 36  1  0  0  0  0
 16 37  1  0  0  0  0
 17 38  1  0  0  0  0
 18 39  1  0  0  0  0
 20 40  1  0  0  0  0
 25 41  1  0  0  0  0
 27 42  1  0  0  0  0
 28 43  1  0  0  0  0
 29 44  1  0  0  0  0
 30 45  1  0  0  0  0
 30 46  1  0  0  0  0
 30 47  1  0  0  0  0
M  END
>  <result-rank>
12

>  <similarity>
0.886

>  <query-name>


>  <query-smiles>
S1C(C(=O)NC2=Nc3c(N2CCC(=O)N)ccc(N(C(=O)c4ccccc4)C)c3)=CC=C1/C=C/c5ncc(N)cn5

>  <source>
REALspace_2019-12

>  <similarity-descriptor>
0.949;0.998;0.865;0.987;0.990;0.987;0.987;0.0;0.0;0.0;0.0;0.990;0.156;0.0;0.949;0.865;0.0;0.143

>  <similarity-descriptor-smiles>
c1ccccc1;c1ccccc1;N1C=NC=N1;O=C1ccN=CN1;c1ccccc1;O=C1ccN=CN1;O=C1ccN=CN1;;;;;c1ccccc1;O;;c1ccccc1;N1C=NC=N1;;C

>  <reaction-name>
s_708

>  <reagent1-name>
1723544

>  <reagent1-smiles>
[R1*]=Nc1c(cc(Oc2ccccc2)cc1)C([R2*])=O

>  <reagent2-name>
6007714

>  <reagent2-smiles>
[R1*]=C(N[R2*])c1cc(c(N2N=CN=C2)cc1)C

$$$$
s_270196____8770464____8779096
          04022017343D 1   1.00000     0.00000     0
            
 53 57  0  0  0  0            999 V2000
   11.9813    6.3306    2.4206 F   0  0  0  0  0  0  0  0  0  0  0  0
   11.2581    5.2158    2.4257 C   0  0  0  0  0  0  0  0  0  0  0  0
   11.8916    3.9787    2.4162 C   0  0  0  0  0  0  0  0  0  0  0  0
   11.1485    2.8032    2.4219 C   0  0  0  0  0  0  0  0  0  0  0  0
    9.7594    2.8770    2.4364 C   0  0  0  0  0  0  0  0  0  0  0  0
    9.1291    4.1165    2.4456 C   0  0  0  0  0  0  0  0  0  0  0  0
    9.8695    5.2940    2.4404 C   0  0  0  0  0  0  0  0  0  0  0  0
    7.6813    4.1871    2.4612 C   0  0  0  0  0  0  0  0  0  0  0  0
    6.9578    5.2820    2.4714 N   0  0  0  0  0  0  0  0  0  0  0  0
    5.7322    4.9591    2.4809 O   0  0  0  0  0  0  0  0  0  0  0  0
    5.6230    3.6528    2.4786 C   0  0  0  0  0  0  0  0  0  0  0  0
    6.8241    3.1329    2.4649 N   0  0  0  0  0  0  0  0  0  0  0  0
    4.3787    2.9077    2.4882 C   0  0  0  0  0  0  0  0  0  0  0  0
    3.1719    3.5991    2.5011 C   0  0  0  0  0  0  0  0  0  0  0  0
    1.9827    2.8773    2.5101 C   0  0  0  0  0  0  0  0  0  0  0  0
    1.9872    1.4865    2.5060 C   0  0  0  0  0  0  0  0  0  0  0  0
    3.2061    0.8170    2.4926 C   0  0  0  0  0  0  0  0  0  0  0  0
    4.4079    1.5169    2.4834 C   0  0  0  0  0  0  0  0  0  0  0  0
    0.7179    3.5859    2.5254 C   0  0  0  0  0  0  0  0  0  0  0  0
    0.3160    4.1178    1.5277 O   0  0  0  0  0  0  0  0  0  0  0  0
   -0.0184    3.6482    3.6791 N   0  0  0  0  0  0  0  0  0  0  0  0
   -1.4145    3.7348    3.6168 C   0  0  0  0  0  0  0  0  0  0  0  0
   -2.0255    4.9838    3.5692 C   0  0  0  0  0  0  0  0  0  0  0  0
   -3.4127    5.0658    3.5072 C   0  0  0  0  0  0  0  0  0  0  0  0
   -4.1780    3.9047    3.4932 C   0  0  0  0  0  0  0  0  0  0  0  0
   -3.5563    2.6613    3.5406 C   0  0  0  0  0  0  0  0  0  0  0  0
   -2.1700    2.5670    3.6029 C   0  0  0  0  0  0  0  0  0  0  0  0
    0.6572    3.6241    4.9844 C   0  0  0  0  0  0  0  0  0  0  0  0
   13.4095    3.9049    2.4009 C   0  0  0  0  0  0  0  0  0  0  0  0
   13.9236    4.1177    3.7599 N   0  0  0  0  0  0  0  0  0  0  0  0
   14.1465    3.1850    4.6608 N   0  0  0  0  0  0  0  0  0  0  0  0
   14.6045    3.7438    5.7578 C   0  0  0  0  0  0  0  0  0  0  0  0
   14.6701    5.0880    5.5288 N   0  0  0  0  0  0  0  0  0  0  0  0
   14.2525    5.3260    4.3043 C   0  0  0  0  0  0  0  0  0  0  0  0
   11.6076    1.9149    2.4156 H   0  0  0  0  0  0  0  0  0  0  0  0
    9.2141    2.0387    2.4403 H   0  0  0  0  0  0  0  0  0  0  0  0
    9.4107    6.1825    2.4473 H   0  0  0  0  0  0  0  0  0  0  0  0
    3.1593    4.5990    2.5039 H   0  0  0  0  0  0  0  0  0  0  0  0
    1.1274    0.9759    2.5127 H   0  0  0  0  0  0  0  0  0  0  0  0
    3.2186   -0.1829    2.4895 H   0  0  0  0  0  0  0  0  0  0  0  0
    5.2800    1.0277    2.4734 H   0  0  0  0  0  0  0  0  0  0  0  0
   -1.4716    5.8163    3.5796 H   0  0  0  0  0  0  0  0  0  0  0  0
   -3.8597    5.9597    3.4726 H   0  0  0  0  0  0  0  0  0  0  0  0
   -5.1753    3.9637    3.4492 H   0  0  0  0  0  0  0  0  0  0  0  0
   -4.1103    1.8289    3.5297 H   0  0  0  0  0  0  0  0  0  0  0  0
   -1.7232    1.6730    3.6373 H   0  0  0  0  0  0  0  0  0  0  0  0
    1.6457    3.5602    4.8470 H   0  0  0  0  0  0  0  0  0  0  0  0
    0.4439    4.4626    5.4857 H   0  0  0  0  0  0  0  0  0  0  0  0
    0.3417    2.8330    5.5085 H   0  0  0  0  0  0  0  0  0  0  0  0
   13.6962    3.0047    2.0732 H   0  0  0  0  0  0  0  0  0  0  0  0
   13.7715    4.6117    1.7931 H   0  0  0  0  0  0  0  0  0  0  0  0
   14.8578    3.2727    6.6027 H   0  0  0  0  0  0  0  0  0  0  0  0
   14.1883    6.2188    3.8586 H   0  0  0  0  0  0  0  0  0  0  0  0
  1  2  1  0  0  0  0
  2  3  1  0  0  0  0
  3  4  2  0  0  0  0
  4  5  1  0  0  0  0
  5  6  2  0  0  0  0
  6  7  1  0  0  0  0
  7  2  2  0  0  0  0
  6  8  1  0  0  0  0
  8  9  2  0  0  0  0
  9 10  1  0  0  0  0
 10 11  1  0  0  0  0
 11 12  2  0  0  0  0
 12  8  1  0  0  0  0
 11 13  1  0  0  0  0
 13 14  1  0  0  0  0
 14 15  2  0  0  0  0
 15 16  1  0  0  0  0
 16 17  2  0  0  0  0
 17 18  1  0  0  0  0
 18 13  2  0  0  0  0
 15 19  1  0  0  0  0
 19 20  2  0  0  0  0
 19 21  1  0  0  0  0
 21 22  1  0  0  0  0
 22 23  1  0  0  0  0
 23 24  2  0  0  0  0
 24 25  1  0  0  0  0
 25 26  2  0  0  0  0
 26 27  1  0  0  0  0
 27 22  2  0  0  0  0
 21 28  1  0  0  0  0
  3 29  1  0  0  0  0
 29 30  1  0  0  0  0
 30 31  1  0  0  0  0
 31 32  2  0  0  0  0
 32 33  1  0  0  0  0
 33 34  2  0  0  0  0
 34 30  1  0  0  0  0
  4 35  1  0  0  0  0
  5 36  1  0  0  0  0
  7 37  1  0  0  0  0
 14 38  1  0  0  0  0
 16 39  1  0  0  0  0
 17 40  1  0  0  0  0
 18 41  1  0  0  0  0
 23 42  1  0  0  0  0
 24 43  1  0  0  0  0
 25 44  1  0  0  0  0
 26 45  1  0  0  0  0
 27 46  1  0  0  0  0
 28 47  1  0  0  0  0
 28 48  1  0  0  0  0
 28 49  1  0  0  0  0
 29 50  1  0  0  0  0
 29 51  1  0  0  0  0
 32 52  1  0  0  0  0
 34 53  1  0  0  0  0
M  END
>  <result-rank>
13

>  <similarity>
0.885

>  <query-name>


>  <query-smiles>
S1C(C(=O)NC2=Nc3c(N2CCC(=O)N)ccc(N(C(=O)c4ccccc4)C)c3)=CC=C1/C=C/c5ncc(N)cn5

>  <source>
REALspace_2019-12

>  <similarity-descriptor>
0.910;0.992;0.899;0.801;0.950;0.801;0.801;0.0;0.0;0.0;0.0;0.950;1.000;0.0;0.910;0.910;0.0;0.111

>  <similarity-descriptor-smiles>
Fc1ccccc1;Nc1ccccc1;CN1C=NC=N1;C=1N=CON1;c1ccccc1;C=1N=CON1;C=1N=CON1;;;;;c1ccccc1;C=O;;Fc1ccccc1;Fc1ccccc1;;C

>  <reaction-name>
s_270196

>  <reagent1-name>
8770464

>  <reagent1-smiles>
[R1*]=NC(=NO[R2*])c1cc(F)c(cc1)CN2N=CN=C2

>  <reagent2-name>
8779096

>  <reagent2-smiles>
[R1*]C([R2*])c1cc(ccc1)C(=O)N(c2ccccc2)C

$$$$
s_11a____6741044____13263486
          04022017343D 1   1.00000     0.00000     0
            
 51 55  0  0  0  0            999 V2000
    4.2958    6.3837    0.3224 Br  0  0  0  0  0  0  0  0  0  0  0  0
    5.7818    5.1995    0.8038 C   0  0  0  0  0  0  0  0  0  0  0  0
    7.0111    5.2826    0.1546 C   0  0  0  0  0  0  0  0  0  0  0  0
    7.2376    6.1716   -0.8258 N   0  0  0  0  0  0  0  0  0  0  0  0
    8.4196    6.2553   -1.4547 C   0  0  0  0  0  0  0  0  0  0  0  0
    9.4451    5.3934   -1.0785 C   0  0  0  0  0  0  0  0  0  0  0  0
    9.2192    4.5059   -0.0988 N   0  0  0  0  0  0  0  0  0  0  0  0
    8.0372    4.4200    0.5316 C   0  0  0  0  0  0  0  0  0  0  0  0
    7.8251    3.4913    1.5461 C   0  0  0  0  0  0  0  0  0  0  0  0
    6.5953    3.4139    2.1909 C   0  0  0  0  0  0  0  0  0  0  0  0
    5.5658    4.2729    1.8188 C   0  0  0  0  0  0  0  0  0  0  0  0
    6.3841    2.4444    3.2467 C   0  0  0  0  0  0  0  0  0  0  0  0
    7.2162    2.2936    4.0981 O   0  0  0  0  0  0  0  0  0  0  0  0
    5.2081    1.6827    3.2736 N   0  0  0  0  0  0  0  0  0  0  0  0
    4.5138    1.3279    2.1055 C   0  0  0  0  0  0  0  0  0  0  0  0
    3.1259    1.3196    2.1478 C   0  0  0  0  0  0  0  0  0  0  0  0
    2.4005    1.0000    1.0000 C   0  0  0  0  0  0  0  0  0  0  0  0
    1.0000    1.0000    1.0000 N   0  0  0  0  0  0  0  0  0  0  0  0
    0.3150    2.0217    0.3968 C   0  0  0  0  0  0  0  0  0  0  0  0
    0.9150    2.9165   -0.1316 O   0  0  0  0  0  0  0  0  0  0  0  0
   -1.1352    2.0217    0.3968 C   0  0  0  0  0  0  0  0  0  0  0  0
   -1.8154    2.7924   -0.5403 C   0  0  0  0  0  0  0  0  0  0  0  0
   -3.2065    2.8033   -0.5540 C   0  0  0  0  0  0  0  0  0  0  0  0
   -3.8999    2.0384    0.3775 C   0  0  0  0  0  0  0  0  0  0  0  0
   -5.2297    2.0400    0.3751 F   0  0  0  0  0  0  0  0  0  0  0  0
   -3.2201    1.2682    1.3146 C   0  0  0  0  0  0  0  0  0  0  0  0
   -1.8296    1.2568    1.3288 C   0  0  0  0  0  0  0  0  0  0  0  0
    3.0485    0.6529   -0.1818 C   0  0  0  0  0  0  0  0  0  0  0  0
    4.4376    0.6335   -0.2328 C   0  0  0  0  0  0  0  0  0  0  0  0
    5.1458    0.9779    0.9139 C   0  0  0  0  0  0  0  0  0  0  0  0
    2.4455    1.6585    3.4650 C   0  0  0  0  0  0  0  0  0  0  0  0
    3.2031    0.9720    4.5911 C   0  0  0  0  0  0  0  0  0  0  0  0
    4.7031    1.2266    4.5790 C   0  0  0  0  0  0  0  0  0  0  0  0
    8.5615    6.9265   -2.1823 H   0  0  0  0  0  0  0  0  0  0  0  0
   10.3357    5.4350   -1.5312 H   0  0  0  0  0  0  0  0  0  0  0  0
    8.5643    2.8735    1.8141 H   0  0  0  0  0  0  0  0  0  0  0  0
    4.6783    4.2246    2.2770 H   0  0  0  0  0  0  0  0  0  0  0  0
    0.5000    0.2543    1.4403 H   0  0  0  0  0  0  0  0  0  0  0  0
   -1.3045    3.3387   -1.2040 H   0  0  0  0  0  0  0  0  0  0  0  0
   -3.7017    3.3544   -1.2257 H   0  0  0  0  0  0  0  0  0  0  0  0
   -3.7312    0.7222    1.9785 H   0  0  0  0  0  0  0  0  0  0  0  0
   -1.3348    0.7057    2.0007 H   0  0  0  0  0  0  0  0  0  0  0  0
    2.5150    0.4174   -0.9941 H   0  0  0  0  0  0  0  0  0  0  0  0
    4.9160    0.3783   -1.0731 H   0  0  0  0  0  0  0  0  0  0  0  0
    6.1453    0.9742    0.8820 H   0  0  0  0  0  0  0  0  0  0  0  0
    1.4994    1.3349    3.4489 H   0  0  0  0  0  0  0  0  0  0  0  0
    2.4568    2.6485    3.6055 H   0  0  0  0  0  0  0  0  0  0  0  0
    2.8363    1.3001    5.4616 H   0  0  0  0  0  0  0  0  0  0  0  0
    3.0517   -0.0136    4.5158 H   0  0  0  0  0  0  0  0  0  0  0  0
    4.9113    1.9270    5.2617 H   0  0  0  0  0  0  0  0  0  0  0  0
    5.1709    0.3764    4.8203 H   0  0  0  0  0  0  0  0  0  0  0  0
  1  2  1  0  0  0  0
  2  3  1  0  0  0  0
  3  4  2  0  0  0  0
  4  5  1  0  0  0  0
  5  6  2  0  0  0  0
  6  7  1  0  0  0  0
  7  8  2  0  0  0  0
  8  3  1  0  0  0  0
  8  9  1  0  0  0  0
  9 10  2  0  0  0  0
 10 11  1  0  0  0  0
 11  2  2  0  0  0  0
 10 12  1  0  0  0  0
 12 13  2  0  0  0  0
 12 14  1  0  0  0  0
 14 15  1  0  0  0  0
 15 16  1  0  0  0  0
 16 17  2  0  0  0  0
 17 18  1  0  0  0  0
 18 19  1  0  0  0  0
 19 20  2  0  0  0  0
 19 21  1  0  0  0  0
 21 22  1  0  0  0  0
 22 23  2  0  0  0  0
 23 24  1  0  0  0  0
 24 25  1  0  0  0  0
 24 26  2  0  0  0  0
 26 27  1  0  0  0  0
 27 21  2  0  0  0  0
 17 28  1  0  0  0  0
 28 29  2  0  0  0  0
 29 30  1  0  0  0  0
 30 15  2  0  0  0  0
 16 31  1  0  0  0  0
 31 32  1  0  0  0  0
 32 33  1  0  0  0  0
 33 14  1  0  0  0  0
  5 34  1  0  0  0  0
  6 35  1  0  0  0  0
  9 36  1  0  0  0  0
 11 37  1  0  0  0  0
 18 38  1  0  0  0  0
 22 39  1  0  0  0  0
 23 40  1  0  0  0  0
 26 41  1  0  0  0  0
 27 42  1  0  0  0  0
 28 43  1  0  0  0  0
 29 44  1  0  0  0  0
 30 45  1  0  0  0  0
 31 46  1  0  0  0  0
 31 47  1  0  0  0  0
 32 48  1  0  0  0  0
 32 49  1  0  0  0  0
 33 50  1  0  0  0  0
 33 51  1  0  0  0  0
M  END
>  <result-rank>
14

>  <similarity>
0.885

>  <query-name>


>  <query-smiles>
S1C(C(=O)NC2=Nc3c(N2CCC(=O)N)ccc(N(C(=O)c4ccccc4)C)c3)=CC=C1/C=C/c5ncc(N)cn5

>  <source>
REALspace_2019-12

>  <similarity-descriptor>
0.998;0.967;0.919;0.671;0.990;0.853;0.853;0.671;0.671;0.0;0.0;0.990;0.852;0.0;0.998;0.919;0.0;0.0

>  <similarity-descriptor-smiles>
Brc1ccccc1;c1ccc(cc1)F;c1cnccn1;N1CCCcc1;c1ccccc1;C=O;C=O;N1CCCcc1;N1CCCcc1;;;c1ccccc1;NC=O;;Brc1ccccc1;c1cnccn1;;

>  <reaction-name>
s_11a

>  <reagent1-name>
6741044

>  <reagent1-smiles>
[R1*]N1c2c(c(NC(=O)c3ccc(F)cc3)ccc2)CCC1

>  <reagent2-name>
13263486

>  <reagent2-smiles>
[R1*]C(=O)c1cc(Br)c2nccnc2c1

$$$$
s_22____1723382____13263488
          04022017343D 1   1.00000     0.00000     0
            
 52 56  0  0  0  0            999 V2000
    6.8373   -5.7482    1.4170 Br  0  0  0  0  0  0  0  0  0  0  0  0
    5.8452   -4.4668    2.5197 C   0  0  0  0  0  0  0  0  0  0  0  0
    5.6023   -4.7112    3.8691 C   0  0  0  0  0  0  0  0  0  0  0  0
    6.0328   -5.8282    4.4770 N   0  0  0  0  0  0  0  0  0  0  0  0
    5.8009   -6.0687    5.7763 C   0  0  0  0  0  0  0  0  0  0  0  0
    5.0919   -5.1297    6.5189 C   0  0  0  0  0  0  0  0  0  0  0  0
    4.6626   -4.0135    5.9119 N   0  0  0  0  0  0  0  0  0  0  0  0
    4.8929   -3.7709    4.6120 C   0  0  0  0  0  0  0  0  0  0  0  0
    4.4381   -2.6053    4.0027 C   0  0  0  0  0  0  0  0  0  0  0  0
    4.6846   -2.3670    2.6549 C   0  0  0  0  0  0  0  0  0  0  0  0
    5.3927   -3.3026    1.9070 C   0  0  0  0  0  0  0  0  0  0  0  0
    4.2080   -1.1501    2.0294 C   0  0  0  0  0  0  0  0  0  0  0  0
    4.0944   -1.0935    0.8362 O   0  0  0  0  0  0  0  0  0  0  0  0
    3.8868   -0.0641    2.8003 N   0  0  0  0  0  0  0  0  0  0  0  0
    3.4030    1.1711    2.1655 C   0  0  3  0  0  0  0  0  0  0  0  0
    2.0188    1.4945    2.6784 C   0  0  0  0  0  0  0  0  0  0  0  0
    1.9385    2.9493    2.5336 N   0  0  0  0  0  0  0  0  0  0  0  0
    0.7589    3.6950    2.4239 C   0  0  0  0  0  0  0  0  0  0  0  0
    0.1505    4.1764    3.5787 C   0  0  0  0  0  0  0  0  0  0  0  0
   -1.0217    4.9177    3.4695 C   0  0  0  0  0  0  0  0  0  0  0  0
   -1.5711    5.1694    2.2168 C   0  0  0  0  0  0  0  0  0  0  0  0
   -2.7084    5.8887    2.1112 O   0  0  0  0  0  0  0  0  0  0  0  0
   -3.2424    6.1335    0.8955 C   0  0  0  0  0  0  0  0  0  0  0  0
   -2.8654    7.2738    0.1939 C   0  0  0  0  0  0  0  0  0  0  0  0
   -3.4199    7.5216   -1.0585 C   0  0  0  0  0  0  0  0  0  0  0  0
   -4.3426    6.6321   -1.5998 C   0  0  0  0  0  0  0  0  0  0  0  0
   -4.7158    5.4942   -0.8920 C   0  0  0  0  0  0  0  0  0  0  0  0
   -4.1654    5.2407    0.3604 C   0  0  0  0  0  0  0  0  0  0  0  0
   -0.9629    4.6881    1.0618 C   0  0  0  0  0  0  0  0  0  0  0  0
    0.2092    3.9466    1.1710 C   0  0  0  0  0  0  0  0  0  0  0  0
    3.2236    3.4872    2.5190 C   0  0  0  0  0  0  0  0  0  0  0  0
    3.5114    4.6662    2.3942 O   0  0  0  0  0  0  0  0  0  0  0  0
    4.2041    2.3444    2.6836 C   0  0  0  0  0  0  0  0  0  0  0  0
    6.1325   -6.9095    6.2044 H   0  0  0  0  0  0  0  0  0  0  0  0
    4.9055   -5.2845    7.4891 H   0  0  0  0  0  0  0  0  0  0  0  0
    3.9290   -1.9325    4.5394 H   0  0  0  0  0  0  0  0  0  0  0  0
    5.5749   -3.1396    0.9373 H   0  0  0  0  0  0  0  0  0  0  0  0
    3.9814   -0.1112    3.7947 H   0  0  0  0  0  0  0  0  0  0  0  0
    3.4277    1.1130    1.1675 H   0  0  0  0  0  0  0  0  0  0  0  0
    1.3177    1.0404    2.1286 H   0  0  0  0  0  0  0  0  0  0  0  0
    1.9189    1.2236    3.6358 H   0  0  0  0  0  0  0  0  0  0  0  0
    0.5509    3.9919    4.4763 H   0  0  0  0  0  0  0  0  0  0  0  0
   -1.4692    5.2696    4.2917 H   0  0  0  0  0  0  0  0  0  0  0  0
   -2.2014    7.9104    0.5861 H   0  0  0  0  0  0  0  0  0  0  0  0
   -3.1549    8.3393   -1.5694 H   0  0  0  0  0  0  0  0  0  0  0  0
   -4.7387    6.8112   -2.5004 H   0  0  0  0  0  0  0  0  0  0  0  0
   -5.3803    4.8579   -1.2837 H   0  0  0  0  0  0  0  0  0  0  0  0
   -4.4311    4.4234    0.8717 H   0  0  0  0  0  0  0  0  0  0  0  0
   -1.3631    4.8729    0.1642 H   0  0  0  0  0  0  0  0  0  0  0  0
    0.6565    3.5944    0.3489 H   0  0  0  0  0  0  0  0  0  0  0  0
    4.4571    2.2172    3.6426 H   0  0  0  0  0  0  0  0  0  0  0  0
    5.0291    2.4912    2.1378 H   0  0  0  0  0  0  0  0  0  0  0  0
  1  2  1  0  0  0  0
  2  3  1  0  0  0  0
  3  4  2  0  0  0  0
  4  5  1  0  0  0  0
  5  6  2  0  0  0  0
  6  7  1  0  0  0  0
  7  8  2  0  0  0  0
  8  3  1  0  0  0  0
  8  9  1  0  0  0  0
  9 10  2  0  0  0  0
 10 11  1  0  0  0  0
 11  2  2  0  0  0  0
 10 12  1  0  0  0  0
 12 13  2  0  0  0  0
 12 14  1  0  0  0  0
 14 15  1  0  0  0  0
 15 16  1  0  0  0  0
 16 17  1  0  0  0  0
 17 18  1  0  0  0  0
 18 19  1  0  0  0  0
 19 20  2  0  0  0  0
 20 21  1  0  0  0  0
 21 22  1  0  0  0  0
 22 23  1  0  0  0  0
 23 24  1  0  0  0  0
 24 25  2  0  0  0  0
 25 26  1  0  0  0  0
 26 27  2  0  0  0  0
 27 28  1  0  0  0  0
 28 23  2  0  0  0  0
 21 29  2  0  0  0  0
 29 30  1  0  0  0  0
 30 18  2  0  0  0  0
 17 31  1  0  0  0  0
 31 32  2  0  0  0  0
 31 33  1  0  0  0  0
 33 15  1  0  0  0  0
  5 34  1  0  0  0  0
  6 35  1  0  0  0  0
  9 36  1  0  0  0  0
 11 37  1  0  0  0  0
 14 38  1  0  0  0  0
 15 39  1  0  0  0  0
 16 40  1  0  0  0  0
 16 41  1  0  0  0  0
 19 42  1  0  0  0  0
 20 43  1  0  0  0  0
 24 44  1  0  0  0  0
 25 45  1  0  0  0  0
 26 46  1  0  0  0  0
 27 47  1  0  0  0  0
 28 48  1  0  0  0  0
 29 49  1  0  0  0  0
 30 50  1  0  0  0  0
 33 51  1  0  0  0  0
 33 52  1  0  0  0  0
M  END
>  <result-rank>
15

>  <similarity>
0.885

>  <query-name>


>  <query-smiles>
S1C(C(=O)NC2=Nc3c(N2CCC(=O)N)ccc(N(C(=O)c4ccccc4)C)c3)=CC=C1/C=C/c5ncc(N)cn5

>  <source>
REALspace_2019-12

>  <similarity-descriptor>
0.998;0.998;0.919;0.772;0.946;0.999;1.000;0.772;0.772;0.772;0.0;0.946;0.156;0.0;0.998;0.919;0.0;0.0

>  <similarity-descriptor-smiles>
Brc1ccccc1;c1ccccc1;c1cnccn1;C1CC(NC1)=O;c1ccccc1;C=O;N;C1CC(NC1)=O;C1CC(NC1)=O;C1CC(NC1)=O;;c1ccccc1;O;;Brc1ccccc1;c1cnccn1;;

>  <reaction-name>
s_22

>  <reagent1-name>
1723382

>  <reagent1-smiles>
[R1*]NC1CN(c2ccc(Oc3ccccc3)cc2)C(=O)C1

>  <reagent2-name>
13263488

>  <reagent2-smiles>
[R1*]C(=O)c1cc(Br)c2nccnc2c1

$$$$
s_708____1107374____5062888
          04022017343D 1   1.00000     0.00000     0
            
 50 54  0  0  0  0            999 V2000
   10.1365   -0.2849    4.9030 Cl  0  0  0  0  0  0  0  0  0  0  0  0
   11.1058   -0.7758    3.4927 C   0  0  0  0  0  0  0  0  0  0  0  0
   10.4913   -1.3894    2.4058 C   0  0  0  0  0  0  0  0  0  0  0  0
   11.2489   -1.7714    1.3036 C   0  0  0  0  0  0  0  0  0  0  0  0
   12.6205   -1.5420    1.2891 C   0  0  0  0  0  0  0  0  0  0  0  0
   13.2347   -0.9290    2.3764 C   0  0  0  0  0  0  0  0  0  0  0  0
   12.4771   -0.5459    3.4777 C   0  0  0  0  0  0  0  0  0  0  0  0
    9.0614   -1.6287    2.4208 C   0  0  0  0  0  0  0  0  0  0  0  0
    8.0495   -0.6228    2.4351 C   0  0  0  0  0  0  0  0  0  0  0  0
    6.7975   -1.1432    2.4470 C   0  0  0  0  0  0  0  0  0  0  0  0
    6.9167   -2.8402    2.4381 S   0  0  0  0  0  0  0  0  0  0  0  0
    8.6200   -2.9185    2.4213 C   0  0  0  0  0  0  0  0  0  0  0  0
    5.6002   -0.4926    2.4615 N   0  0  0  0  0  0  0  0  0  0  0  0
    5.6615    0.8207    2.4636 C   0  0  0  0  0  0  0  0  0  0  0  0
    6.8530    1.4972    2.4543 N   0  0  0  0  0  0  0  0  0  0  0  0
    8.0328    0.8024    2.4410 C   0  0  0  0  0  0  0  0  0  0  0  0
    9.0639    1.4587    2.4318 O   0  0  0  0  0  0  0  0  0  0  0  0
    4.3934    1.5238    2.4792 C   0  0  0  0  0  0  0  0  0  0  0  0
    4.3889    2.9151    2.4847 C   0  0  0  0  0  0  0  0  0  0  0  0
    3.1774    3.5986    2.4996 C   0  0  0  0  0  0  0  0  0  0  0  0
    1.9850    2.8822    2.5096 C   0  0  0  0  0  0  0  0  0  0  0  0
    0.7615    3.5615    2.5249 N   0  0  0  0  0  0  0  0  0  0  0  0
    0.2750    4.0700    3.7003 C   0  0  0  0  0  0  0  0  0  0  0  0
   -0.6176    4.8720    3.6832 O   0  0  0  0  0  0  0  0  0  0  0  0
    0.8388    3.6390    4.9656 C   0  0  0  0  0  0  0  0  0  0  0  0
    0.5264    2.3809    5.4676 C   0  0  0  0  0  0  0  0  0  0  0  0
    1.0812    1.9932    6.6825 C   0  0  0  0  0  0  0  0  0  0  0  0
    1.9006    2.8152    7.3554 N   0  0  0  0  0  0  0  0  0  0  0  0
    2.2131    4.0323    6.8864 C   0  0  0  0  0  0  0  0  0  0  0  0
    1.6897    4.4776    5.6768 C   0  0  0  0  0  0  0  0  0  0  0  0
   -0.0015    3.7293    1.2797 C   0  0  0  0  0  0  0  0  0  0  0  0
    1.9902    1.4907    2.5042 C   0  0  0  0  0  0  0  0  0  0  0  0
    3.2017    0.8073    2.4891 C   0  0  0  0  0  0  0  0  0  0  0  0
   10.8073   -2.2112    0.5215 H   0  0  0  0  0  0  0  0  0  0  0  0
   13.1652   -1.8176    0.4970 H   0  0  0  0  0  0  0  0  0  0  0  0
   14.2209   -0.7640    2.3660 H   0  0  0  0  0  0  0  0  0  0  0  0
   12.9186   -0.1049    4.2591 H   0  0  0  0  0  0  0  0  0  0  0  0
    9.1826   -3.7452    2.4134 H   0  0  0  0  0  0  0  0  0  0  0  0
    6.8610    2.4971    2.4573 H   0  0  0  0  0  0  0  0  0  0  0  0
    5.2515    3.4208    2.4781 H   0  0  0  0  0  0  0  0  0  0  0  0
    3.1638    4.5985    2.5030 H   0  0  0  0  0  0  0  0  0  0  0  0
   -0.0841    1.7679    4.9660 H   0  0  0  0  0  0  0  0  0  0  0  0
    0.8671    1.0918    7.0587 H   0  0  0  0  0  0  0  0  0  0  0  0
    2.8266    4.6236    7.4098 H   0  0  0  0  0  0  0  0  0  0  0  0
    1.9213    5.3847    5.3252 H   0  0  0  0  0  0  0  0  0  0  0  0
   -0.8438    4.2336    1.4703 H   0  0  0  0  0  0  0  0  0  0  0  0
    0.5488    4.2378    0.6175 H   0  0  0  0  0  0  0  0  0  0  0  0
   -0.2288    2.8307    0.9043 H   0  0  0  0  0  0  0  0  0  0  0  0
    1.1277    0.9848    2.5111 H   0  0  0  0  0  0  0  0  0  0  0  0
    3.2155   -0.1926    2.4853 H   0  0  0  0  0  0  0  0  0  0  0  0
  1  2  1  0  0  0  0
  2  3  1  0  0  0  0
  3  4  2  0  0  0  0
  4  5  1  0  0  0  0
  5  6  2  0  0  0  0
  6  7  1  0  0  0  0
  7  2  2  0  0  0  0
  3  8  1  0  0  0  0
  8  9  1  0  0  0  0
  9 10  2  0  0  0  0
 10 11  1  0  0  0  0
 11 12  1  0  0  0  0
  8 12  2  0  0  0  0
 10 13  1  0  0  0  0
 13 14  2  0  0  0  0
 14 15  1  0  0  0  0
 15 16  1  0  0  0  0
 16  9  1  0  0  0  0
 16 17  2  0  0  0  0
 14 18  1  0  0  0  0
 18 19  1  0  0  0  0
 19 20  2  0  0  0  0
 20 21  1  0  0  0  0
 21 22  1  0  0  0  0
 22 23  1  0  0  0  0
 23 24  2  0  0  0  0
 23 25  1  0  0  0  0
 25 26  1  0  0  0  0
 26 27  2  0  0  0  0
 27 28  1  0  0  0  0
 28 29  2  0  0  0  0
 29 30  1  0  0  0  0
 30 25  2  0  0  0  0
 22 31  1  0  0  0  0
 21 32  2  0  0  0  0
 32 33  1  0  0  0  0
 33 18  2  0  0  0  0
  4 34  1  0  0  0  0
  5 35  1  0  0  0  0
  6 36  1  0  0  0  0
  7 37  1  0  0  0  0
 12 38  1  0  0  0  0
 15 39  1  0  0  0  0
 19 40  1  0  0  0  0
 20 41  1  0  0  0  0
 26 42  1  0  0  0  0
 27 43  1  0  0  0  0
 29 44  1  0  0  0  0
 30 45  1  0  0  0  0
 31 46  1  0  0  0  0
 31 47  1  0  0  0  0
 31 48  1  0  0  0  0
 32 49  1  0  0  0  0
 33 50  1  0  0  0  0
M  END
>  <result-rank>
16

>  <similarity>
0.884

>  <query-name>


>  <query-smiles>
S1C(C(=O)NC2=Nc3c(N2CCC(=O)N)ccc(N(C(=O)c4ccccc4)C)c3)=CC=C1/C=C/c5ncc(N)cn5

>  <source>
REALspace_2019-12

>  <similarity-descriptor>
0.919;0.859;0.800;0.985;0.939;0.985;0.985;0.0;0.0;0.0;0.0;1.000;1.000;1.000;0.800;0.800;0.0;0.0

>  <similarity-descriptor-smiles>
C1=CSC=C1;c1ccncc1;Clc1ccccc1;C=1C(NC=NC1)=O;c1ccccc1;C=1C(NC=NC1)=O;C=1C(NC=NC1)=O;;;;;N;C=O;C;Clc1ccccc1;Clc1ccccc1;;

>  <reaction-name>
s_708

>  <reagent1-name>
1107374

>  <reagent1-smiles>
[R1*]=NC1=C(SC(c2c(Cl)cccc2)=C1)C([R2*])=O

>  <reagent2-name>
5062888

>  <reagent2-smiles>
[R1*]=C(N[R2*])c1ccc(N(C(=O)c2ccncc2)C)cc1

$$$$
s_270196____9437302____17512658
          04022017343D 1   1.00000     0.00000     0
            
 44 48  0  0  0  0            999 V2000
    8.2283   -6.7125    2.4379 Cl  0  0  0  0  0  0  0  0  0  0  0  0
    6.7593   -5.7091    2.4601 C   0  0  0  0  0  0  0  0  0  0  0  0
    5.4225   -6.1736    2.4795 C   0  0  0  0  0  0  0  0  0  0  0  0
    4.6498   -5.1126    2.4919 N   0  0  0  0  0  0  0  0  0  0  0  0
    5.3765   -4.0152    2.4791 N   0  0  0  0  0  0  0  0  0  0  0  0
    4.8809   -2.7027    2.4850 C   0  0  0  0  0  0  0  0  0  0  0  0
    3.5079   -2.4861    2.5062 C   0  0  0  0  0  0  0  0  0  0  0  0
    2.6722   -3.5204    2.5194 F   0  0  0  0  0  0  0  0  0  0  0  0
    3.0007   -1.1910    2.5128 C   0  0  0  0  0  0  0  0  0  0  0  0
    3.8900   -0.1218    2.4978 C   0  0  0  0  0  0  0  0  0  0  0  0
    5.2643   -0.3344    2.4759 C   0  0  0  0  0  0  0  0  0  0  0  0
    5.7677   -1.6314    2.4691 C   0  0  0  0  0  0  0  0  0  0  0  0
    3.3683    1.2311    2.5037 C   0  0  0  0  0  0  0  0  0  0  0  0
    4.0764    2.3360    2.4914 N   0  0  0  0  0  0  0  0  0  0  0  0
    3.2848    3.3259    2.4991 O   0  0  0  0  0  0  0  0  0  0  0  0
    2.0463    2.8968    2.5180 C   0  0  0  0  0  0  0  0  0  0  0  0
    2.0573    1.5880    2.5200 N   0  0  0  0  0  0  0  0  0  0  0  0
    0.8618    3.7326    2.5327 C   0  0  0  0  0  0  0  0  0  0  0  0
   -0.3977    3.1914    2.5521 C   0  0  0  0  0  0  0  0  0  0  0  0
   -1.5096    3.9930    2.5664 N   0  0  0  0  0  0  0  0  0  0  0  0
   -2.7668    3.3768    2.5862 C   0  0  0  0  0  0  0  0  0  0  0  0
   -3.1344    2.5287    1.5464 C   0  0  0  0  0  0  0  0  0  0  0  0
   -4.3841    1.9182    1.5697 C   0  0  0  0  0  0  0  0  0  0  0  0
   -5.2554    2.1578    2.6268 C   0  0  0  0  0  0  0  0  0  0  0  0
   -4.8771    3.0072    3.6612 C   0  0  0  0  0  0  0  0  0  0  0  0
   -3.6301    3.6233    3.6486 C   0  0  0  0  0  0  0  0  0  0  0  0
   -1.3904    5.3600    2.5616 C   0  0  0  0  0  0  0  0  0  0  0  0
   -2.3675    6.0914    2.5743 O   0  0  0  0  0  0  0  0  0  0  0  0
   -0.0956    5.9445    2.5416 C   0  0  0  0  0  0  0  0  0  0  0  0
    1.0176    5.1448    2.5276 C   0  0  0  0  0  0  0  0  0  0  0  0
    6.6996   -4.3483    2.4581 C   0  0  0  0  0  0  0  0  0  0  0  0
    5.1237   -7.1279    2.4830 H   0  0  0  0  0  0  0  0  0  0  0  0
    2.0136   -1.0313    2.5280 H   0  0  0  0  0  0  0  0  0  0  0  0
    5.8906    0.4450    2.4649 H   0  0  0  0  0  0  0  0  0  0  0  0
    6.7547   -1.7914    2.4531 H   0  0  0  0  0  0  0  0  0  0  0  0
   -0.5069    2.1974    2.5559 H   0  0  0  0  0  0  0  0  0  0  0  0
   -2.5050    2.3592    0.7881 H   0  0  0  0  0  0  0  0  0  0  0  0
   -4.6559    1.3071    0.8263 H   0  0  0  0  0  0  0  0  0  0  0  0
   -6.1540    1.7193    2.6432 H   0  0  0  0  0  0  0  0  0  0  0  0
   -5.5064    3.1762    4.4197 H   0  0  0  0  0  0  0  0  0  0  0  0
   -3.3583    4.2342    4.3922 H   0  0  0  0  0  0  0  0  0  0  0  0
    0.0037    6.9395    2.5378 H   0  0  0  0  0  0  0  0  0  0  0  0
    1.9311    5.5516    2.5139 H   0  0  0  0  0  0  0  0  0  0  0  0
    7.4746   -3.7165    2.4440 H   0  0  0  0  0  0  0  0  0  0  0  0
  1  2  1  0  0  0  0
  2  3  1  0  0  0  0
  3  4  2  0  0  0  0
  4  5  1  0  0  0  0
  5  6  1  0  0  0  0
  6  7  1  0  0  0  0
  7  8  1  0  0  0  0
  7  9  2  0  0  0  0
  9 10  1  0  0  0  0
 10 11  2  0  0  0  0
 11 12  1  0  0  0  0
 12  6  2  0  0  0  0
 10 13  1  0  0  0  0
 13 14  2  0  0  0  0
 14 15  1  0  0  0  0
 15 16  1  0  0  0  0
 16 17  2  0  0  0  0
 17 13  1  0  0  0  0
 16 18  1  0  0  0  0
 18 19  2  0  0  0  0
 19 20  1  0  0  0  0
 20 21  1  0  0  0  0
 21 22  1  0  0  0  0
 22 23  2  0  0  0  0
 23 24  1  0  0  0  0
 24 25  2  0  0  0  0
 25 26  1  0  0  0  0
 26 21  2  0  0  0  0
 20 27  1  0  0  0  0
 27 28  2  0  0  0  0
 27 29  1  0  0  0  0
 29 30  2  0  0  0  0
 30 18  1  0  0  0  0
  5 31  1  0  0  0  0
  2 31  2  0  0  0  0
  3 32  1  0  0  0  0
  9 33  1  0  0  0  0
 11 34  1  0  0  0  0
 12 35  1  0  0  0  0
 19 36  1  0  0  0  0
 22 37  1  0  0  0  0
 23 38  1  0  0  0  0
 24 39  1  0  0  0  0
 25 40  1  0  0  0  0
 26 41  1  0  0  0  0
 29 42  1  0  0  0  0
 30 43  1  0  0  0  0
 31 44  1  0  0  0  0
M  END
>  <result-rank>
17

>  <similarity>
0.884

>  <query-name>


>  <query-smiles>
S1C(C(=O)NC2=Nc3c(N2CCC(=O)N)ccc(N(C(=O)c4ccccc4)C)c3)=CC=C1/C=C/c5ncc(N)cn5

>  <source>
REALspace_2019-12

>  <similarity-descriptor>
0.964;0.998;0.845;0.800;0.948;0.800;0.800;0.0;0.0;0.0;0.0;0.948;0.948;0.0;0.964;0.845;0.0;0.0

>  <similarity-descriptor-smiles>
c1ccccc1F;c1ccccc1;ClC1=CNN=C1;C=1N=CON1;C=1C=CC(NC1)=O;C=1N=CON1;C=1N=CON1;;;;;C=1C=CC(NC1)=O;C=1C=CC(NC1)=O;;c1ccccc1F;ClC1=CNN=C1;;

>  <reaction-name>
s_270196

>  <reagent1-name>
9437302

>  <reagent1-smiles>
[R1*]=NC(=NO[R2*])c1cc(F)c(N2N=CC(Cl)=C2)cc1

>  <reagent2-name>
17512658

>  <reagent2-smiles>
[R1*]C([R2*])C1=CN(c2ccccc2)C(=O)C=C1

$$$$
m_271722____10195726____10190896
          04022017343D 1   1.00000     0.00000     0
            
 51 55  0  0  0  0            999 V2000
    4.2863   -5.4186    2.4619 S   0  0  0  0  0  0  0  0  0  0  0  0
    5.8383   -6.1130    2.4388 C   0  0  0  0  0  0  0  0  0  0  0  0
    6.1111   -7.5372    2.4327 C   0  0  0  0  0  0  0  0  0  0  0  0
    5.0475   -8.4336    2.4465 C   0  0  0  0  0  0  0  0  0  0  0  0
    5.2919   -9.8031    2.4406 C   0  0  0  0  0  0  0  0  0  0  0  0
    6.6061  -10.2574    2.4223 C   0  0  0  0  0  0  0  0  0  0  0  0
    6.8533  -11.5640    2.4164 F   0  0  0  0  0  0  0  0  0  0  0  0
    7.6694   -9.3615    2.4089 C   0  0  0  0  0  0  0  0  0  0  0  0
    7.4257   -7.9924    2.4147 C   0  0  0  0  0  0  0  0  0  0  0  0
    6.7414   -5.0899    2.4334 C   0  0  0  0  0  0  0  0  0  0  0  0
    6.1377   -3.8027    2.4385 C   0  0  0  0  0  0  0  0  0  0  0  0
    4.7754   -3.7915    2.4542 C   0  0  0  0  0  0  0  0  0  0  0  0
    3.9086   -2.6246    2.4684 C   0  0  0  0  0  0  0  0  0  0  0  0
    4.3078   -1.3749    2.4683 O   0  0  0  0  0  0  0  0  0  0  0  0
    3.2280   -0.6288    2.4827 C   0  0  0  0  0  0  0  0  0  0  0  0
    2.1709   -1.4057    2.4914 N   0  0  0  0  0  0  0  0  0  0  0  0
    2.5956   -2.6492    2.4817 N   0  0  0  0  0  0  0  0  0  0  0  0
    3.2062    0.8215    2.4897 C   0  0  0  0  0  0  0  0  0  0  0  0
    1.9856    1.4890    2.5053 C   0  0  0  0  0  0  0  0  0  0  0  0
    1.9769    2.8800    2.5117 C   0  0  0  0  0  0  0  0  0  0  0  0
    0.7417    3.5392    2.5275 N   0  0  0  0  0  0  0  0  0  0  0  0
   -0.2488    3.1179    3.3750 C   0  0  0  0  0  0  0  0  0  0  0  0
    0.0255    2.4498    4.3333 O   0  0  0  0  0  0  0  0  0  0  0  0
   -1.6288    3.4794    3.1140 C   0  0  0  0  0  0  0  0  0  0  0  0
   -2.6559    2.7416    3.6935 C   0  0  0  0  0  0  0  0  0  0  0  0
   -3.9782    3.0913    3.4398 C   0  0  0  0  0  0  0  0  0  0  0  0
   -4.2654    4.1725    2.6131 C   0  0  0  0  0  0  0  0  0  0  0  0
   -3.2314    4.9025    2.0402 C   0  0  0  0  0  0  0  0  0  0  0  0
   -1.9050    4.5625    2.2856 C   0  0  0  0  0  0  0  0  0  0  0  0
    3.1722    3.5930    2.5023 C   0  0  0  0  0  0  0  0  0  0  0  0
    4.3872    2.9146    2.4871 C   0  0  0  0  0  0  0  0  0  0  0  0
    4.4074    1.5237    2.4807 C   0  0  0  0  0  0  0  0  0  0  0  0
    3.1505    5.1125    2.5107 C   0  0  0  0  0  0  0  0  0  0  0  0
    4.1072   -8.0935    2.4607 H   0  0  0  0  0  0  0  0  0  0  0  0
    4.5318  -10.4529    2.4494 H   0  0  0  0  0  0  0  0  0  0  0  0
    8.6096   -9.7018    2.3951 H   0  0  0  0  0  0  0  0  0  0  0  0
    8.1861   -7.3429    2.4061 H   0  0  0  0  0  0  0  0  0  0  0  0
    7.7312   -5.2318    2.4266 H   0  0  0  0  0  0  0  0  0  0  0  0
    6.6774   -2.9609    2.4310 H   0  0  0  0  0  0  0  0  0  0  0  0
    1.1270    0.9763    2.5117 H   0  0  0  0  0  0  0  0  0  0  0  0
    0.5826    4.3175    1.9201 H   0  0  0  0  0  0  0  0  0  0  0  0
   -2.4453    1.9656    4.2879 H   0  0  0  0  0  0  0  0  0  0  0  0
   -4.7223    2.5654    3.8517 H   0  0  0  0  0  0  0  0  0  0  0  0
   -5.2159    4.4243    2.4312 H   0  0  0  0  0  0  0  0  0  0  0  0
   -3.4424    5.6790    1.4464 H   0  0  0  0  0  0  0  0  0  0  0  0
   -1.1614    5.0886    1.8729 H   0  0  0  0  0  0  0  0  0  0  0  0
    5.2458    3.4271    2.4808 H   0  0  0  0  0  0  0  0  0  0  0  0
    5.2783    1.0324    2.4696 H   0  0  0  0  0  0  0  0  0  0  0  0
    4.0884    5.4593    2.5022 H   0  0  0  0  0  0  0  0  0  0  0  0
    2.6653    5.4434    1.7013 H   0  0  0  0  0  0  0  0  0  0  0  0
    2.6834    5.4346    3.3342 H   0  0  0  0  0  0  0  0  0  0  0  0
  1  2  1  0  0  0  0
  2  3  1  0  0  0  0
  3  4  1  0  0  0  0
  4  5  2  0  0  0  0
  5  6  1  0  0  0  0
  6  7  1  0  0  0  0
  6  8  2  0  0  0  0
  8  9  1  0  0  0  0
  9  3  2  0  0  0  0
  2 10  2  0  0  0  0
 10 11  1  0  0  0  0
 11 12  2  0  0  0  0
 12  1  1  0  0  0  0
 12 13  1  0  0  0  0
 13 14  1  0  0  0  0
 14 15  1  0  0  0  0
 15 16  2  0  0  0  0
 16 17  1  0  0  0  0
 13 17  2  0  0  0  0
 15 18  1  0  0  0  0
 18 19  1  0  0  0  0
 19 20  2  0  0  0  0
 20 21  1  0  0  0  0
 21 22  1  0  0  0  0
 22 23  2  0  0  0  0
 22 24  1  0  0  0  0
 24 25  1  0  0  0  0
 25 26  2  0  0  0  0
 26 27  1  0  0  0  0
 27 28  2  0  0  0  0
 28 29  1  0  0  0  0
 29 24  2  0  0  0  0
 20 30  1  0  0  0  0
 30 31  2  0  0  0  0
 31 32  1  0  0  0  0
 32 18  2  0  0  0  0
 30 33  1  0  0  0  0
  4 34  1  0  0  0  0
  5 35  1  0  0  0  0
  8 36  1  0  0  0  0
  9 37  1  0  0  0  0
 10 38  1  0  0  0  0
 11 39  1  0  0  0  0
 19 40  1  0  0  0  0
 21 41  1  0  0  0  0
 25 42  1  0  0  0  0
 26 43  1  0  0  0  0
 27 44  1  0  0  0  0
 28 45  1  0  0  0  0
 29 46  1  0  0  0  0
 31 47  1  0  0  0  0
 32 48  1  0  0  0  0
 33 49  1  0  0  0  0
 33 50  1  0  0  0  0
 33 51  1  0  0  0  0
M  END
>  <result-rank>
18

>  <similarity>
0.882

>  <query-name>


>  <query-smiles>
S1C(C(=O)NC2=Nc3c(N2CCC(=O)N)ccc(N(C(=O)c4ccccc4)C)c3)=CC=C1/C=C/c5ncc(N)cn5

>  <source>
REALspace_2019-12

>  <similarity-descriptor>
1.000;1.000;0.785;0.804;0.993;0.804;0.804;0.0;0.0;0.0;0.0;0.993;0.852;0.995;0.785;0.785;0.0;0.0

>  <similarity-descriptor-smiles>
S1C=CC=C1;c1ccccc1;c1ccc(cc1)F;C1=NN=CO1;c1ccccc1;C1=NN=CO1;C1=NN=CO1;;;;;c1ccccc1;NC=O;C;c1ccc(cc1)F;c1ccc(cc1)F;;

>  <reaction-name>
m_271722

>  <reagent1-name>
10195726

>  <reagent1-smiles>
[R1*]=NN=C(O[R2*])C=1SC(c2ccc(F)cc2)=CC1

>  <reagent2-name>
10190896

>  <reagent2-smiles>
[R1*]C([R2*])c1cc(NC(=O)c2ccccc2)c(cc1)C

$$$$
s_270196____8770000____16485402
          04022017343D 1   1.00000     0.00000     0
            
 47 51  0  0  0  0            999 V2000
    6.7029   10.0216    2.4884 F   0  0  0  0  0  0  0  0  0  0  0  0
    7.4804    8.9425    2.4780 C   0  0  0  0  0  0  0  0  0  0  0  0
    8.8690    9.0510    2.4658 C   0  0  0  0  0  0  0  0  0  0  0  0
    9.4956   10.2716    2.4662 N   0  0  0  0  0  0  0  0  0  0  0  0
   10.8615   10.3823    2.4545 C   0  0  0  0  0  0  0  0  0  0  0  0
   11.3862   11.4614    2.4532 O   0  0  0  0  0  0  0  0  0  0  0  0
   11.6689    9.2136    2.4427 C   0  0  0  0  0  0  0  0  0  0  0  0
   11.0530    7.9894    2.4426 C   0  0  0  0  0  0  0  0  0  0  0  0
    9.6362    7.8903    2.4545 C   0  0  0  0  0  0  0  0  0  0  0  0
    9.0448    6.6318    2.4551 C   0  0  0  0  0  0  0  0  0  0  0  0
    7.6564    6.5516    2.4676 C   0  0  0  0  0  0  0  0  0  0  0  0
    6.8649    7.6954    2.4796 C   0  0  0  0  0  0  0  0  0  0  0  0
    7.0370    5.2416    2.4694 C   0  0  0  0  0  0  0  0  0  0  0  0
    7.6726    4.0952    2.4590 O   0  0  0  0  0  0  0  0  0  0  0  0
    6.8334    3.1452    2.4653 N   0  0  0  0  0  0  0  0  0  0  0  0
    5.6233    3.6529    2.4786 C   0  0  0  0  0  0  0  0  0  0  0  0
    5.7496    5.0058    2.4805 N   0  0  0  0  0  0  0  0  0  0  0  0
    4.3800    2.9062    2.4867 C   0  0  0  0  0  0  0  0  0  0  0  0
    3.1728    3.5972    2.5008 C   0  0  0  0  0  0  0  0  0  0  0  0
    1.9830    2.8768    2.5101 C   0  0  0  0  0  0  0  0  0  0  0  0
    0.7008    3.5955    2.5256 N   0  0  0  0  0  0  0  0  0  0  0  0
   -0.4768    2.8955    2.5349 C   0  0  0  0  0  0  0  0  0  0  0  0
   -0.4616    1.6956    2.5303 O   0  0  0  0  0  0  0  0  0  0  0  0
   -1.7418    3.6046    2.5502 C   0  0  0  0  0  0  0  0  0  0  0  0
   -2.9381    2.8934    2.5596 C   0  0  0  0  0  0  0  0  0  0  0  0
   -2.9216    1.5635    2.5540 F   0  0  0  0  0  0  0  0  0  0  0  0
   -4.1511    3.5737    2.5737 C   0  0  0  0  0  0  0  0  0  0  0  0
   -4.1685    4.9643    2.5796 C   0  0  0  0  0  0  0  0  0  0  0  0
   -2.9725    5.6751    2.5703 C   0  0  0  0  0  0  0  0  0  0  0  0
   -1.7593    4.9949    2.5564 C   0  0  0  0  0  0  0  0  0  0  0  0
    1.9867    1.4860    2.5051 C   0  0  0  0  0  0  0  0  0  0  0  0
    3.2053    0.8159    2.4905 C   0  0  0  0  0  0  0  0  0  0  0  0
    4.4072    1.5158    2.4809 C   0  0  0  0  0  0  0  0  0  0  0  0
    8.9404   11.1033    2.4753 H   0  0  0  0  0  0  0  0  0  0  0  0
   12.6664    9.2828    2.4346 H   0  0  0  0  0  0  0  0  0  0  0  0
   11.6070    7.1569    2.4341 H   0  0  0  0  0  0  0  0  0  0  0  0
    9.6049    5.8034    2.4469 H   0  0  0  0  0  0  0  0  0  0  0  0
    5.8676    7.6219    2.4892 H   0  0  0  0  0  0  0  0  0  0  0  0
    3.1605    4.5971    2.5042 H   0  0  0  0  0  0  0  0  0  0  0  0
    0.6881    4.5954    2.5294 H   0  0  0  0  0  0  0  0  0  0  0  0
   -5.0108    3.0629    2.5797 H   0  0  0  0  0  0  0  0  0  0  0  0
   -5.0407    5.4533    2.5904 H   0  0  0  0  0  0  0  0  0  0  0  0
   -2.9851    6.6750    2.5737 H   0  0  0  0  0  0  0  0  0  0  0  0
   -0.8996    5.5058    2.5508 H   0  0  0  0  0  0  0  0  0  0  0  0
    1.1266    0.9758    2.5119 H   0  0  0  0  0  0  0  0  0  0  0  0
    3.2176   -0.1840    2.4868 H   0  0  0  0  0  0  0  0  0  0  0  0
    5.2790    1.0260    2.4700 H   0  0  0  0  0  0  0  0  0  0  0  0
  1  2  1  0  0  0  0
  2  3  1  0  0  0  0
  3  4  1  0  0  0  0
  4  5  1  0  0  0  0
  5  6  2  0  0  0  0
  5  7  1  0  0  0  0
  7  8  2  0  0  0  0
  8  9  1  0  0  0  0
  9  3  2  0  0  0  0
  9 10  1  0  0  0  0
 10 11  2  0  0  0  0
 11 12  1  0  0  0  0
 12  2  2  0  0  0  0
 11 13  1  0  0  0  0
 13 14  1  0  0  0  0
 14 15  1  0  0  0  0
 15 16  2  0  0  0  0
 16 17  1  0  0  0  0
 13 17  2  0  0  0  0
 16 18  1  0  0  0  0
 18 19  1  0  0  0  0
 19 20  2  0  0  0  0
 20 21  1  0  0  0  0
 21 22  1  0  0  0  0
 22 23  2  0  0  0  0
 22 24  1  0  0  0  0
 24 25  1  0  0  0  0
 25 26  1  0  0  0  0
 25 27  2  0  0  0  0
 27 28  1  0  0  0  0
 28 29  2  0  0  0  0
 29 30  1  0  0  0  0
 30 24  2  0  0  0  0
 20 31  1  0  0  0  0
 31 32  2  0  0  0  0
 32 33  1  0  0  0  0
 33 18  2  0  0  0  0
  4 34  1  0  0  0  0
  7 35  1  0  0  0  0
  8 36  1  0  0  0  0
 10 37  1  0  0  0  0
 12 38  1  0  0  0  0
 19 39  1  0  0  0  0
 21 40  1  0  0  0  0
 27 41  1  0  0  0  0
 28 42  1  0  0  0  0
 29 43  1  0  0  0  0
 30 44  1  0  0  0  0
 31 45  1  0  0  0  0
 32 46  1  0  0  0  0
 33 47  1  0  0  0  0
M  END
>  <result-rank>
19

>  <similarity>
0.882

>  <query-name>


>  <query-smiles>
S1C(C(=O)NC2=Nc3c(N2CCC(=O)N)ccc(N(C(=O)c4ccccc4)C)c3)=CC=C1/C=C/c5ncc(N)cn5

>  <source>
REALspace_2019-12

>  <similarity-descriptor>
0.970;0.967;0.866;0.801;0.948;0.801;0.801;0.0;0.0;0.0;0.0;0.948;0.852;0.0;0.970;0.866;0.866;0.0

>  <similarity-descriptor-smiles>
Fc1ccccc1;c1ccccc1F;c1cC=CC(N1)=O;C1=NC=NO1;c1ccccc1;C1=NC=NO1;C1=NC=NO1;;;;;c1ccccc1;NC=O;;Fc1ccccc1;c1cC=CC(N1)=O;c1cC=CC(N1)=O;

>  <reaction-name>
s_270196

>  <reagent1-name>
8770000

>  <reagent1-smiles>
[R1*]=NC(=NO[R2*])c1cc(NC(=O)c2c(F)cccc2)ccc1

>  <reagent2-name>
16485402

>  <reagent2-smiles>
[R1*]C([R2*])c1cc(F)c2NC(=O)C=Cc2c1

$$$$
s_51____14653434____77354
          04022017343D 1   1.00000     0.00000     0
            
 54 58  0  0  0  0            999 V2000
    4.9152   -1.2721    3.1163 O   0  0  0  0  0  0  0  0  0  0  0  0
    5.7868   -0.5125    2.7477 C   0  0  0  0  0  0  0  0  0  0  0  0
    5.6223    0.8426    2.4641 N   0  0  0  0  0  0  0  0  0  0  0  0
    4.3950    1.5262    2.4798 C   0  0  0  0  0  0  0  0  0  0  0  0
    4.3931    2.9175    2.4829 C   0  0  0  0  0  0  0  0  0  0  0  0
    3.1777    3.5943    2.4980 C   0  0  0  0  0  0  0  0  0  0  0  0
    1.9842    2.8802    2.5097 C   0  0  0  0  0  0  0  0  0  0  0  0
    0.7615    3.5615    2.5249 N   0  0  0  0  0  0  0  0  0  0  0  0
   -0.2941    2.9303    2.5353 N   0  0  0  0  0  0  0  0  0  0  0  0
   -1.5165    3.6129    2.5507 C   0  0  0  0  0  0  0  0  0  0  0  0
   -2.7071    2.8932    2.5621 C   0  0  0  0  0  0  0  0  0  0  0  0
   -3.9195    3.5748    2.5777 C   0  0  0  0  0  0  0  0  0  0  0  0
   -3.9354    4.9655    2.5815 C   0  0  0  0  0  0  0  0  0  0  0  0
   -2.7390    5.6747    2.5706 C   0  0  0  0  0  0  0  0  0  0  0  0
   -1.5206    5.0039    2.5549 C   0  0  0  0  0  0  0  0  0  0  0  0
    1.9859    1.4888    2.5066 C   0  0  0  0  0  0  0  0  0  0  0  0
    3.2013    0.8121    2.4917 C   0  0  0  0  0  0  0  0  0  0  0  0
    6.8461    1.4240    2.1543 C   0  0  0  0  0  0  0  0  0  0  0  0
    7.0044    2.5710    1.7909 O   0  0  0  0  0  0  0  0  0  0  0  0
    7.9644    0.4242    2.3344 C   0  0  0  0  0  0  0  0  0  0  0  0
    7.2415   -0.8902    2.5291 C   0  0  3  0  0  0  0  0  0  0  0  0
    7.7673   -1.6496    3.6699 N   0  0  0  0  0  0  0  0  0  0  0  0
    7.8267   -3.0476    3.6128 C   0  0  0  0  0  0  0  0  0  0  0  0
    8.3267   -3.7575    4.6993 C   0  0  0  0  0  0  0  0  0  0  0  0
    8.3803   -5.1459    4.6314 C   0  0  0  0  0  0  0  0  0  0  0  0
    8.8989   -5.8902    5.7616 C   0  0  0  0  0  0  0  0  0  0  0  0
    8.9637   -7.2794    5.7201 C   0  0  0  0  0  0  0  0  0  0  0  0
    9.4470   -7.9465    6.7786 N   0  0  0  0  0  0  0  0  0  0  0  0
    9.8695   -7.3036    7.8770 C   0  0  0  0  0  0  0  0  0  0  0  0
    9.8135   -5.9646    7.9336 N   0  0  0  0  0  0  0  0  0  0  0  0
    9.3408   -5.2399    6.9085 C   0  0  0  0  0  0  0  0  0  0  0  0
    7.9437   -5.8230    3.4978 C   0  0  0  0  0  0  0  0  0  0  0  0
    7.4474   -5.0927    2.4231 C   0  0  0  0  0  0  0  0  0  0  0  0
    7.3841   -3.7041    2.4693 C   0  0  0  0  0  0  0  0  0  0  0  0
    5.2548    3.4248    2.4743 H   0  0  0  0  0  0  0  0  0  0  0  0
    3.1622    4.5942    2.5004 H   0  0  0  0  0  0  0  0  0  0  0  0
   -2.6913    1.8933    2.5592 H   0  0  0  0  0  0  0  0  0  0  0  0
   -4.7797    3.0649    2.5861 H   0  0  0  0  0  0  0  0  0  0  0  0
   -4.8070    5.4555    2.5921 H   0  0  0  0  0  0  0  0  0  0  0  0
   -2.7548    6.6746    2.5740 H   0  0  0  0  0  0  0  0  0  0  0  0
   -0.6605    5.5139    2.5467 H   0  0  0  0  0  0  0  0  0  0  0  0
    1.1241    0.9816    2.5149 H   0  0  0  0  0  0  0  0  0  0  0  0
    3.2168   -0.1878    2.4896 H   0  0  0  0  0  0  0  0  0  0  0  0
    8.5182    0.6489    3.1362 H   0  0  0  0  0  0  0  0  0  0  0  0
    8.5490    0.3930    1.5237 H   0  0  0  0  0  0  0  0  0  0  0  0
    7.3213   -1.4403    1.6979 H   0  0  0  0  0  0  0  0  0  0  0  0
    8.0831   -1.1687    4.4878 H   0  0  0  0  0  0  0  0  0  0  0  0
    8.6429   -3.2770    5.5172 H   0  0  0  0  0  0  0  0  0  0  0  0
    8.6530   -7.7754    4.9092 H   0  0  0  0  0  0  0  0  0  0  0  0
   10.2264   -7.8224    8.6539 H   0  0  0  0  0  0  0  0  0  0  0  0
    9.3066   -4.2423    6.9685 H   0  0  0  0  0  0  0  0  0  0  0  0
    7.9861   -6.8212    3.4559 H   0  0  0  0  0  0  0  0  0  0  0  0
    7.1314   -5.5732    1.6050 H   0  0  0  0  0  0  0  0  0  0  0  0
    7.0260   -3.1859    1.6926 H   0  0  0  0  0  0  0  0  0  0  0  0
  1  2  2  0  0  0  0
  2  3  1  0  0  0  0
  3  4  1  0  0  0  0
  4  5  1  0  0  0  0
  5  6  2  0  0  0  0
  6  7  1  0  0  0  0
  7  8  1  0  0  0  0
  8  9  2  0  0  0  0
  9 10  1  0  0  0  0
 10 11  1  0  0  0  0
 11 12  2  0  0  0  0
 12 13  1  0  0  0  0
 13 14  2  0  0  0  0
 14 15  1  0  0  0  0
 15 10  2  0  0  0  0
  7 16  2  0  0  0  0
 16 17  1  0  0  0  0
 17  4  2  0  0  0  0
  3 18  1  0  0  0  0
 18 19  2  0  0  0  0
 18 20  1  0  0  0  0
 20 21  1  0  0  0  0
 21  2  1  0  0  0  0
 21 22  1  0  0  0  0
 22 23  1  0  0  0  0
 23 24  1  0  0  0  0
 24 25  2  0  0  0  0
 25 26  1  0  0  0  0
 26 27  1  0  0  0  0
 27 28  2  0  0  0  0
 28 29  1  0  0  0  0
 29 30  2  0  0  0  0
 30 31  1  0  0  0  0
 31 26  2  0  0  0  0
 25 32  1  0  0  0  0
 32 33  2  0  0  0  0
 33 34  1  0  0  0  0
 34 23  2  0  0  0  0
  5 35  1  0  0  0  0
  6 36  1  0  0  0  0
 11 37  1  0  0  0  0
 12 38  1  0  0  0  0
 13 39  1  0  0  0  0
 14 40  1  0  0  0  0
 15 41  1  0  0  0  0
 16 42  1  0  0  0  0
 17 43  1  0  0  0  0
 20 44  1  0  0  0  0
 20 45  1  0  0  0  0
 21 46  1  0  0  0  0
 22 47  1  0  0  0  0
 24 48  1  0  0  0  0
 27 49  1  0  0  0  0
 29 50  1  0  0  0  0
 31 51  1  0  0  0  0
 32 52  1  0  0  0  0
 33 53  1  0  0  0  0
 34 54  1  0  0  0  0
M  END
>  <result-rank>
20

>  <similarity>
0.882

>  <query-name>


>  <query-smiles>
S1C(C(=O)NC2=Nc3c(N2CCC(=O)N)ccc(N(C(=O)c4ccccc4)C)c3)=CC=C1/C=C/c5ncc(N)cn5

>  <source>
REALspace_2019-12

>  <similarity-descriptor>
0.850;0.998;0.889;0.809;0.946;0.850;0.990;0.809;0.809;0.809;0.0;0.946;0.835;0.0;0.889;0.889;0.0;0.0

>  <similarity-descriptor-smiles>
c1ccccc1;c1ccccc1;c1cncnc1;O=C1CCC(N1)=O;c1ccccc1;c1ccccc1;N;O=C1CCC(N1)=O;O=C1CCC(N1)=O;O=C1CCC(N1)=O;;c1ccccc1;N=N;;c1cncnc1;c1cncnc1;;

>  <reaction-name>
s_51

>  <reagent1-name>
14653434

>  <reagent1-smiles>
[R1*]Nc1cc(c2cncnc2)ccc1

>  <reagent2-name>
77354

>  <reagent2-smiles>
[R1*]C1C(=O)N(c2ccc(N=Nc3ccccc3)cc2)C(=O)C1

$$$$
s_270196____16887988____10226258
          04022017343D 1   1.00000     0.00000     0
            
 51 55  0  0  0  0            999 V2000
    5.6907   -4.5007    2.4777 Br  0  0  0  0  0  0  0  0  0  0  0  0
    4.9452   -2.6881    2.4859 C   0  0  0  0  0  0  0  0  0  0  0  0
    3.5652   -2.5140    2.5063 C   0  0  0  0  0  0  0  0  0  0  0  0
    3.0420   -1.2251    2.5122 C   0  0  0  0  0  0  0  0  0  0  0  0
    1.6310   -1.0667    2.5331 O   0  0  0  0  0  0  0  0  0  0  0  0
    0.7884   -2.2096    2.5474 C   0  0  0  0  0  0  0  0  0  0  0  0
    0.5091   -2.6153    3.9857 C   0  0  0  0  0  0  0  0  0  0  0  0
   -0.5899   -2.0820    4.6511 C   0  0  0  0  0  0  0  0  0  0  0  0
   -0.8414   -2.4552    5.9674 C   0  0  0  0  0  0  0  0  0  0  0  0
    0.0025   -3.3563    6.6081 C   0  0  0  0  0  0  0  0  0  0  0  0
    1.0971   -3.8830    5.9335 C   0  0  0  0  0  0  0  0  0  0  0  0
    1.3596   -3.5172    4.6173 C   0  0  0  0  0  0  0  0  0  0  0  0
    3.8901   -0.1220    2.4978 C   0  0  0  0  0  0  0  0  0  0  0  0
    5.2691   -0.3050    2.4775 C   0  0  0  0  0  0  0  0  0  0  0  0
    5.8002   -1.5908    2.4716 C   0  0  0  0  0  0  0  0  0  0  0  0
    3.3683    1.2311    2.5037 C   0  0  0  0  0  0  0  0  0  0  0  0
    4.0764    2.3360    2.4914 N   0  0  0  0  0  0  0  0  0  0  0  0
    3.2848    3.3259    2.4991 O   0  0  0  0  0  0  0  0  0  0  0  0
    2.0463    2.8968    2.5180 C   0  0  0  0  0  0  0  0  0  0  0  0
    2.0573    1.5880    2.5200 N   0  0  0  0  0  0  0  0  0  0  0  0
    0.8616    3.7327    2.5327 C   0  0  0  0  0  0  0  0  0  0  0  0
   -0.2182    3.3665    3.3295 C   0  0  0  0  0  0  0  0  0  0  0  0
   -1.3530    4.1706    3.3392 C   0  0  0  0  0  0  0  0  0  0  0  0
   -2.4465    3.8117    4.1369 N   0  0  0  0  0  0  0  0  0  0  0  0
   -3.3123    4.6521    4.6546 N   0  0  0  0  0  0  0  0  0  0  0  0
   -4.2188    4.0136    5.3529 C   0  0  0  0  0  0  0  0  0  0  0  0
   -3.8871    2.6458    5.2636 C   0  0  0  0  0  0  0  0  0  0  0  0
   -4.6434    1.4992    5.9131 C   0  0  0  0  0  0  0  0  0  0  0  0
   -5.2109    0.6390    6.4004 N   0  0  0  0  0  0  0  0  0  0  0  0
   -2.7730    2.5394    4.4938 C   0  0  0  0  0  0  0  0  0  0  0  0
   -2.0913    1.3723    4.1397 N   0  0  0  0  0  0  0  0  0  0  0  0
   -1.4197    5.3264    2.5685 C   0  0  0  0  0  0  0  0  0  0  0  0
   -0.3281    5.6736    1.7797 C   0  0  0  0  0  0  0  0  0  0  0  0
    0.8170    4.8844    1.7546 C   0  0  0  0  0  0  0  0  0  0  0  0
    2.9558   -3.3069    2.5165 H   0  0  0  0  0  0  0  0  0  0  0  0
    1.2407   -2.9632    2.0704 H   0  0  0  0  0  0  0  0  0  0  0  0
   -0.0735   -1.9940    2.0885 H   0  0  0  0  0  0  0  0  0  0  0  0
   -1.1948   -1.4351    4.1866 H   0  0  0  0  0  0  0  0  0  0  0  0
   -1.6288   -2.0756    6.4530 H   0  0  0  0  0  0  0  0  0  0  0  0
   -0.1786   -3.6251    7.5541 H   0  0  0  0  0  0  0  0  0  0  0  0
    1.7012   -4.5304    6.3980 H   0  0  0  0  0  0  0  0  0  0  0  0
    2.1476   -3.8967    4.1325 H   0  0  0  0  0  0  0  0  0  0  0  0
    5.8785    0.4878    2.4672 H   0  0  0  0  0  0  0  0  0  0  0  0
    6.7910   -1.7256    2.4570 H   0  0  0  0  0  0  0  0  0  0  0  0
   -0.1791    2.5373    3.8871 H   0  0  0  0  0  0  0  0  0  0  0  0
   -4.9893    4.4146    5.8484 H   0  0  0  0  0  0  0  0  0  0  0  0
   -2.4210    0.4841    4.4596 H   0  0  0  0  0  0  0  0  0  0  0  0
   -1.2736    1.4252    3.5665 H   0  0  0  0  0  0  0  0  0  0  0  0
   -2.2395    5.8989    2.5813 H   0  0  0  0  0  0  0  0  0  0  0  0
   -0.3670    6.5029    1.2223 H   0  0  0  0  0  0  0  0  0  0  0  0
    1.5975    5.1418    1.1849 H   0  0  0  0  0  0  0  0  0  0  0  0
  1  2  1  0  0  0  0
  2  3  1  0  0  0  0
  3  4  2  0  0  0  0
  4  5  1  0  0  0  0
  5  6  1  0  0  0  0
  6  7  1  0  0  0  0
  7  8  1  0  0  0  0
  8  9  2  0  0  0  0
  9 10  1  0  0  0  0
 10 11  2  0  0  0  0
 11 12  1  0  0  0  0
 12  7  2  0  0  0  0
  4 13  1  0  0  0  0
 13 14  2  0  0  0  0
 14 15  1  0  0  0  0
 15  2  2  0  0  0  0
 13 16  1  0  0  0  0
 16 17  2  0  0  0  0
 17 18  1  0  0  0  0
 18 19  1  0  0  0  0
 19 20  2  0  0  0  0
 20 16  1  0  0  0  0
 19 21  1  0  0  0  0
 21 22  1  0  0  0  0
 22 23  2  0  0  0  0
 23 24  1  0  0  0  0
 24 25  1  0  0  0  0
 25 26  2  0  0  0  0
 26 27  1  0  0  0  0
 27 28  1  0  0  0  0
 28 29  3  0  0  0  0
 27 30  2  0  0  0  0
 30 24  1  0  0  0  0
 30 31  1  0  0  0  0
 23 32  1  0  0  0  0
 32 33  2  0  0  0  0
 33 34  1  0  0  0  0
 34 21  2  0  0  0  0
  3 35  1  0  0  0  0
  6 36  1  0  0  0  0
  6 37  1  0  0  0  0
  8 38  1  0  0  0  0
  9 39  1  0  0  0  0
 10 40  1  0  0  0  0
 11 41  1  0  0  0  0
 12 42  1  0  0  0  0
 14 43  1  0  0  0  0
 15 44  1  0  0  0  0
 22 45  1  0  0  0  0
 26 46  1  0  0  0  0
 31 47  1  0  0  0  0
 31 48  1  0  0  0  0
 32 49  1  0  0  0  0
 33 50  1  0  0  0  0
 34 51  1  0  0  0  0
M  END
>  <result-rank>
21

>  <similarity>
0.881

>  <query-name>


>  <query-smiles>
S1C(C(=O)NC2=Nc3c(N2CCC(=O)N)ccc(N(C(=O)c4ccccc4)C)c3)=CC=C1/C=C/c5ncc(N)cn5

>  <source>
REALspace_2019-12

>  <similarity-descriptor>
0.879;1.000;0.937;0.801;0.965;0.801;0.801;0.0;0.0;0.0;0.0;0.965;0.568;0.965;0.879;0.879;1.000;0.0

>  <similarity-descriptor-smiles>
c1ccccc1;c1ccccc1;N1C=C(C=N1)C#N;C=1N=CON1;Brc1ccccc1;C=1N=CON1;C=1N=CON1;;;;;Brc1ccccc1;OC;Brc1ccccc1;c1ccccc1;c1ccccc1;N;

>  <reaction-name>
s_270196

>  <reagent1-name>
16887988

>  <reagent1-smiles>
[R1*]=NC(=NO[R2*])c1c(OCc2ccccc2)cc(Br)cc1

>  <reagent2-name>
10226258

>  <reagent2-smiles>
[R1*]C([R2*])c1cc(N2N=CC(C#N)=C2N)ccc1

$$$$
s_274090____12936412____16948036
          04022017343D 1   1.00000     0.00000     0
            
 58 62  0  0  0  0            999 V2000
   -2.3063    6.1142   -3.4400 Cl  0  0  0  0  0  0  0  0  0  0  0  0
   -1.5530    4.6646   -2.7343 C   0  0  0  0  0  0  0  0  0  0  0  0
   -1.3681    4.5940   -1.3578 C   0  0  0  0  0  0  0  0  0  0  0  0
   -0.7780    3.4575   -0.8149 C   0  0  0  0  0  0  0  0  0  0  0  0
   -0.5853    3.3752    0.5696 N   0  0  0  0  0  0  0  0  0  0  0  0
    0.4147    4.0971    1.1661 C   0  0  0  0  0  0  0  0  0  0  0  0
    0.9463    4.9923    0.5694 O   0  0  0  0  0  0  0  0  0  0  0  0
    0.8508    3.7642    2.5836 C   0  0  0  0  0  0  0  0  0  0  0  0
    2.0449    2.9079    2.5406 N   0  0  0  0  0  0  0  0  0  0  0  0
    3.2864    3.3264    2.5304 N   0  0  0  0  0  0  0  0  0  0  0  0
    4.0997    2.3609    2.4928 N   0  0  0  0  0  0  0  0  0  0  0  0
    3.3679    1.2133    2.4745 C   0  0  0  0  0  0  0  0  0  0  0  0
    3.8997   -0.1356    2.4323 C   0  0  0  0  0  0  0  0  0  0  0  0
    5.2658   -0.3318    2.2583 C   0  0  0  0  0  0  0  0  0  0  0  0
    5.7636   -1.6300    2.2191 C   0  0  0  0  0  0  0  0  0  0  0  0
    4.9061   -2.7181    2.3524 C   0  0  0  0  0  0  0  0  0  0  0  0
    3.5417   -2.5112    2.5259 C   0  0  0  0  0  0  0  0  0  0  0  0
    3.0342   -1.2165    2.5663 C   0  0  0  0  0  0  0  0  0  0  0  0
    5.4241   -4.1470    2.3130 C   0  0  0  0  0  0  0  0  0  0  0  0
    7.1906   -1.8140    2.0368 C   0  0  0  0  0  0  0  0  0  0  0  0
    7.8331   -2.3879    2.8722 O   0  0  0  0  0  0  0  0  0  0  0  0
    7.8051   -1.3328    0.9109 N   0  0  0  0  0  0  0  0  0  0  0  0
    9.1441   -0.9271    0.9632 C   0  0  0  0  0  0  0  0  0  0  0  0
   10.0858   -1.5539    0.1533 C   0  0  0  0  0  0  0  0  0  0  0  0
   11.4151   -1.1479    0.2079 C   0  0  0  0  0  0  0  0  0  0  0  0
   11.7943   -0.1228    1.0677 C   0  0  0  0  0  0  0  0  0  0  0  0
   10.8442    0.4972    1.8725 C   0  0  0  0  0  0  0  0  0  0  0  0
    9.5121    0.0996    1.8266 C   0  0  0  0  0  0  0  0  0  0  0  0
    2.0495    1.5504    2.5067 C   0  0  0  0  0  0  0  0  0  0  0  0
   -0.3816    2.4109   -1.6414 C   0  0  0  0  0  0  0  0  0  0  0  0
    0.2080    1.2777   -1.0751 N   0  0  0  0  0  0  0  0  0  0  0  0
    1.4144    0.8181   -1.3348 N   0  0  0  0  0  0  0  0  0  0  0  0
    1.6285   -0.2627   -0.6195 C   0  0  0  0  0  0  0  0  0  0  0  0
    0.4973   -0.4918    0.1121 N   0  0  0  0  0  0  0  0  0  0  0  0
   -0.3815    0.4528   -0.1601 C   0  0  0  0  0  0  0  0  0  0  0  0
   -0.5683    2.4835   -3.0176 C   0  0  0  0  0  0  0  0  0  0  0  0
   -1.1583    3.6195   -3.5632 C   0  0  0  0  0  0  0  0  0  0  0  0
   -1.6548    5.3485   -0.7675 H   0  0  0  0  0  0  0  0  0  0  0  0
   -1.1775    2.7895    1.1229 H   0  0  0  0  0  0  0  0  0  0  0  0
    1.0640    4.6092    3.0739 H   0  0  0  0  0  0  0  0  0  0  0  0
    0.1121    3.2825    3.0551 H   0  0  0  0  0  0  0  0  0  0  0  0
    5.8818    0.4502    2.1627 H   0  0  0  0  0  0  0  0  0  0  0  0
    2.9256   -3.2930    2.6216 H   0  0  0  0  0  0  0  0  0  0  0  0
    2.0538   -1.0639    2.6908 H   0  0  0  0  0  0  0  0  0  0  0  0
    4.6597   -4.7819    2.4252 H   0  0  0  0  0  0  0  0  0  0  0  0
    5.8711   -4.3154    1.4345 H   0  0  0  0  0  0  0  0  0  0  0  0
    6.0821   -4.2835    3.0535 H   0  0  0  0  0  0  0  0  0  0  0  0
    7.2972   -1.2712    0.0517 H   0  0  0  0  0  0  0  0  0  0  0  0
    9.8090   -2.2907   -0.4635 H   0  0  0  0  0  0  0  0  0  0  0  0
   12.0981   -1.5932   -0.3711 H   0  0  0  0  0  0  0  0  0  0  0  0
   12.7500    0.1687    1.1074 H   0  0  0  0  0  0  0  0  0  0  0  0
   11.1210    1.2343    2.4890 H   0  0  0  0  0  0  0  0  0  0  0  0
    8.8292    0.5452    2.4055 H   0  0  0  0  0  0  0  0  0  0  0  0
    1.2607    0.9357    2.5056 H   0  0  0  0  0  0  0  0  0  0  0  0
    2.4626   -0.8142   -0.6118 H   0  0  0  0  0  0  0  0  0  0  0  0
   -1.2988    0.5466    0.2270 H   0  0  0  0  0  0  0  0  0  0  0  0
   -0.2820    1.7286   -3.6078 H   0  0  0  0  0  0  0  0  0  0  0  0
   -1.2986    3.6846   -4.5511 H   0  0  0  0  0  0  0  0  0  0  0  0
  1  2  1  0  0  0  0
  2  3  1  0  0  0  0
  3  4  2  0  0  0  0
  4  5  1  0  0  0  0
  5  6  1  0  0  0  0
  6  7  2  0  0  0  0
  6  8  1  0  0  0  0
  8  9  1  0  0  0  0
  9 10  1  0  0  0  0
 10 11  2  0  0  0  0
 11 12  1  0  0  0  0
 12 13  1  0  0  0  0
 13 14  1  0  0  0  0
 14 15  2  0  0  0  0
 15 16  1  0  0  0  0
 16 17  2  0  0  0  0
 17 18  1  0  0  0  0
 18 13  2  0  0  0  0
 16 19  1  0  0  0  0
 15 20  1  0  0  0  0
 20 21  2  0  0  0  0
 20 22  1  0  0  0  0
 22 23  1  0  0  0  0
 23 24  1  0  0  0  0
 24 25  2  0  0  0  0
 25 26  1  0  0  0  0
 26 27  2  0  0  0  0
 27 28  1  0  0  0  0
 28 23  2  0  0  0  0
 12 29  2  0  0  0  0
 29  9  1  0  0  0  0
  4 30  1  0  0  0  0
 30 31  1  0  0  0  0
 31 32  1  0  0  0  0
 32 33  2  0  0  0  0
 33 34  1  0  0  0  0
 34 35  2  0  0  0  0
 35 31  1  0  0  0  0
 30 36  2  0  0  0  0
 36 37  1  0  0  0  0
 37  2  2  0  0  0  0
  3 38  1  0  0  0  0
  5 39  1  0  0  0  0
  8 40  1  0  0  0  0
  8 41  1  0  0  0  0
 14 42  1  0  0  0  0
 17 43  1  0  0  0  0
 18 44  1  0  0  0  0
 19 45  1  0  0  0  0
 19 46  1  0  0  0  0
 19 47  1  0  0  0  0
 22 48  1  0  0  0  0
 24 49  1  0  0  0  0
 25 50  1  0  0  0  0
 26 51  1  0  0  0  0
 27 52  1  0  0  0  0
 28 53  1  0  0  0  0
 29 54  1  0  0  0  0
 33 55  1  0  0  0  0
 35 56  1  0  0  0  0
 36 57  1  0  0  0  0
 37 58  1  0  0  0  0
M  END
>  <result-rank>
22

>  <similarity>
0.881

>  <query-name>


>  <query-smiles>
S1C(C(=O)NC2=Nc3c(N2CCC(=O)N)ccc(N(C(=O)c4ccccc4)C)c3)=CC=C1/C=C/c5ncc(N)cn5

>  <source>
REALspace_2019-12

>  <similarity-descriptor>
0.930;0.998;0.920;0.773;0.995;0.851;0.156;0.773;0.0;0.0;0.0;0.995;0.852;0.995;0.930;0.930;0.0;0.0

>  <similarity-descriptor-smiles>
Clc1ccccc1;c1ccccc1;N1C=NC=N1;N1C=CN=N1;c1ccccc1;NC=O;C;N1C=CN=N1;;;;c1ccccc1;C(=O)N;C;Clc1ccccc1;Clc1ccccc1;;

>  <reaction-name>
s_274090

>  <reagent1-name>
12936412

>  <reagent1-smiles>
[R1*]N=NN([R2*])CC(=O)Nc1c(N2N=CN=C2)ccc(Cl)c1

>  <reagent2-name>
16948036

>  <reagent2-smiles>
[R1*]C(c1cc(c(cc1)C)C(=O)Nc2ccccc2)=C[R2*]

$$$$
s_270196____16763672____17512658
          04022017343D 1   1.00000     0.00000     0
            
 45 49  0  0  0  0            999 V2000
   -2.3675    6.0914    2.5743 O   0  0  0  0  0  0  0  0  0  0  0  0
   -1.3904    5.3600    2.5616 C   0  0  0  0  0  0  0  0  0  0  0  0
   -1.5096    3.9930    2.5664 N   0  0  0  0  0  0  0  0  0  0  0  0
   -2.7668    3.3768    2.5862 C   0  0  0  0  0  0  0  0  0  0  0  0
   -3.1344    2.5287    1.5464 C   0  0  0  0  0  0  0  0  0  0  0  0
   -4.3841    1.9182    1.5697 C   0  0  0  0  0  0  0  0  0  0  0  0
   -5.2554    2.1578    2.6268 C   0  0  0  0  0  0  0  0  0  0  0  0
   -4.8771    3.0072    3.6612 C   0  0  0  0  0  0  0  0  0  0  0  0
   -3.6301    3.6233    3.6486 C   0  0  0  0  0  0  0  0  0  0  0  0
   -0.3977    3.1914    2.5521 C   0  0  0  0  0  0  0  0  0  0  0  0
    0.8618    3.7326    2.5327 C   0  0  0  0  0  0  0  0  0  0  0  0
    2.0463    2.8968    2.5180 C   0  0  0  0  0  0  0  0  0  0  0  0
    3.2848    3.3259    2.4991 O   0  0  0  0  0  0  0  0  0  0  0  0
    4.0764    2.3360    2.4914 N   0  0  0  0  0  0  0  0  0  0  0  0
    3.3683    1.2311    2.5037 C   0  0  0  0  0  0  0  0  0  0  0  0
    2.0573    1.5880    2.5200 N   0  0  0  0  0  0  0  0  0  0  0  0
    3.8900   -0.1219    2.4978 C   0  0  0  0  0  0  0  0  0  0  0  0
    3.0012   -1.1921    2.5128 C   0  0  0  0  0  0  0  0  0  0  0  0
    3.4921   -2.4936    2.5073 C   0  0  0  0  0  0  0  0  0  0  0  0
    4.8663   -2.7091    2.4878 C   0  0  0  0  0  0  0  0  0  0  0  0
    5.3696   -4.0160    2.4823 N   0  0  0  0  0  0  0  0  0  0  0  0
    6.2937   -4.4854    3.2831 N   0  0  0  0  0  0  0  0  0  0  0  0
    6.5064   -5.7501    2.9921 C   0  0  0  0  0  0  0  0  0  0  0  0
    5.6773   -6.0891    1.9621 N   0  0  0  0  0  0  0  0  0  0  0  0
    4.9820   -5.0223    1.6531 C   0  0  0  0  0  0  0  0  0  0  0  0
    4.0124   -4.9350    0.6473 N   0  0  0  0  0  0  0  0  0  0  0  0
    5.7548   -1.6382    2.4729 C   0  0  0  0  0  0  0  0  0  0  0  0
    5.2638   -0.3367    2.4782 C   0  0  0  0  0  0  0  0  0  0  0  0
    1.0176    5.1448    2.5276 C   0  0  0  0  0  0  0  0  0  0  0  0
   -0.0956    5.9445    2.5416 C   0  0  0  0  0  0  0  0  0  0  0  0
   -2.5050    2.3592    0.7881 H   0  0  0  0  0  0  0  0  0  0  0  0
   -4.6559    1.3071    0.8263 H   0  0  0  0  0  0  0  0  0  0  0  0
   -6.1540    1.7193    2.6432 H   0  0  0  0  0  0  0  0  0  0  0  0
   -5.5064    3.1762    4.4197 H   0  0  0  0  0  0  0  0  0  0  0  0
   -3.3583    4.2342    4.3922 H   0  0  0  0  0  0  0  0  0  0  0  0
   -0.5069    2.1974    2.5559 H   0  0  0  0  0  0  0  0  0  0  0  0
    2.0151   -1.0266    2.5274 H   0  0  0  0  0  0  0  0  0  0  0  0
    2.8612   -3.2694    2.5172 H   0  0  0  0  0  0  0  0  0  0  0  0
    7.1601   -6.3562    3.4453 H   0  0  0  0  0  0  0  0  0  0  0  0
    3.5339   -4.0716    0.4876 H   0  0  0  0  0  0  0  0  0  0  0  0
    3.7982   -5.7361    0.0884 H   0  0  0  0  0  0  0  0  0  0  0  0
    6.7409   -1.8034    2.4585 H   0  0  0  0  0  0  0  0  0  0  0  0
    5.8945    0.4392    2.4679 H   0  0  0  0  0  0  0  0  0  0  0  0
    1.9311    5.5516    2.5139 H   0  0  0  0  0  0  0  0  0  0  0  0
    0.0037    6.9395    2.5378 H   0  0  0  0  0  0  0  0  0  0  0  0
  1  2  2  0  0  0  0
  2  3  1  0  0  0  0
  3  4  1  0  0  0  0
  4  5  1  0  0  0  0
  5  6  2  0  0  0  0
  6  7  1  0  0  0  0
  7  8  2  0  0  0  0
  8  9  1  0  0  0  0
  9  4  2  0  0  0  0
  3 10  1  0  0  0  0
 10 11  2  0  0  0  0
 11 12  1  0  0  0  0
 12 13  1  0  0  0  0
 13 14  1  0  0  0  0
 14 15  2  0  0  0  0
 15 16  1  0  0  0  0
 12 16  2  0  0  0  0
 15 17  1  0  0  0  0
 17 18  1  0  0  0  0
 18 19  2  0  0  0  0
 19 20  1  0  0  0  0
 20 21  1  0  0  0  0
 21 22  1  0  0  0  0
 22 23  2  0  0  0  0
 23 24  1  0  0  0  0
 24 25  2  0  0  0  0
 25 21  1  0  0  0  0
 25 26  1  0  0  0  0
 20 27  2  0  0  0  0
 27 28  1  0  0  0  0
 28 17  2  0  0  0  0
 11 29  1  0  0  0  0
 29 30  2  0  0  0  0
 30  2  1  0  0  0  0
  5 31  1  0  0  0  0
  6 32  1  0  0  0  0
  7 33  1  0  0  0  0
  8 34  1  0  0  0  0
  9 35  1  0  0  0  0
 10 36  1  0  0  0  0
 18 37  1  0  0  0  0
 19 38  1  0  0  0  0
 23 39  1  0  0  0  0
 26 40  1  0  0  0  0
 26 41  1  0  0  0  0
 27 42  1  0  0  0  0
 28 43  1  0  0  0  0
 29 44  1  0  0  0  0
 30 45  1  0  0  0  0
M  END
>  <result-rank>
23

>  <similarity>
0.881

>  <query-name>


>  <query-smiles>
S1C(C(=O)NC2=Nc3c(N2CCC(=O)N)ccc(N(C(=O)c4ccccc4)C)c3)=CC=C1/C=C/c5ncc(N)cn5

>  <source>
REALspace_2019-12

>  <similarity-descriptor>
0.879;0.998;0.871;0.800;0.948;0.800;0.800;0.0;0.0;0.0;0.0;0.948;0.948;0.0;0.879;0.879;1.000;0.0

>  <similarity-descriptor-smiles>
c1ccccc1;c1ccccc1;N1C=NC=N1;C1=NC=NO1;O=C1C=CC=CN1;C1=NC=NO1;C1=NC=NO1;;;;;O=C1C=CC=CN1;O=C1C=CC=CN1;;c1ccccc1;c1ccccc1;N;

>  <reaction-name>
s_270196

>  <reagent1-name>
16763672

>  <reagent1-smiles>
[R1*]=NC(=NO[R2*])c1ccc(N2N=CN=C2N)cc1

>  <reagent2-name>
17512658

>  <reagent2-smiles>
[R1*]C([R2*])C1=CN(c2ccccc2)C(=O)C=C1

$$$$
s_270196____16887988____16485402
          04022017343D 1   1.00000     0.00000     0
            
 47 51  0  0  0  0            999 V2000
    0.2728    3.8349    2.5310 Br  0  0  0  0  0  0  0  0  0  0  0  0
    1.9835    2.8781    2.5099 C   0  0  0  0  0  0  0  0  0  0  0  0
    3.1729    3.5995    2.5004 C   0  0  0  0  0  0  0  0  0  0  0  0
    4.3838    2.9149    2.4856 C   0  0  0  0  0  0  0  0  0  0  0  0
    5.5286    3.6308    2.4766 O   0  0  0  0  0  0  0  0  0  0  0  0
    5.4785    5.0499    2.4824 C   0  0  0  0  0  0  0  0  0  0  0  0
    6.8931    5.6069    2.4700 C   0  0  0  0  0  0  0  0  0  0  0  0
    7.5219    5.8639    1.2561 C   0  0  0  0  0  0  0  0  0  0  0  0
    8.8165    6.3727    1.2494 C   0  0  0  0  0  0  0  0  0  0  0  0
    9.4722    6.6221    2.4505 C   0  0  0  0  0  0  0  0  0  0  0  0
    8.8340    6.3621    3.6570 C   0  0  0  0  0  0  0  0  0  0  0  0
    7.5398    5.8526    3.6771 C   0  0  0  0  0  0  0  0  0  0  0  0
    4.4048    1.5235    2.4803 C   0  0  0  0  0  0  0  0  0  0  0  0
    3.2106    0.8098    2.4898 C   0  0  0  0  0  0  0  0  0  0  0  0
    1.9954    1.4870    2.5047 C   0  0  0  0  0  0  0  0  0  0  0  0
    5.6545    0.7878    2.4650 C   0  0  0  0  0  0  0  0  0  0  0  0
    5.7863   -0.5180    2.4590 N   0  0  0  0  0  0  0  0  0  0  0  0
    7.0216   -0.8015    2.4426 O   0  0  0  0  0  0  0  0  0  0  0  0
    7.7253    0.3044    2.4390 C   0  0  0  0  0  0  0  0  0  0  0  0
    6.9034    1.3230    2.4513 N   0  0  0  0  0  0  0  0  0  0  0  0
    9.1714    0.3858    2.4228 C   0  0  0  0  0  0  0  0  0  0  0  0
    9.7981    1.6277    2.4206 C   0  0  0  0  0  0  0  0  0  0  0  0
   11.1879    1.6815    2.4050 C   0  0  0  0  0  0  0  0  0  0  0  0
   11.7627    2.8819    2.4029 F   0  0  0  0  0  0  0  0  0  0  0  0
   11.9502    0.5172    2.3918 C   0  0  0  0  0  0  0  0  0  0  0  0
   13.3212    0.5542    2.3777 N   0  0  0  0  0  0  0  0  0  0  0  0
   14.0686   -0.5945    2.3663 C   0  0  0  0  0  0  0  0  0  0  0  0
   15.2858   -0.5458    2.3545 O   0  0  0  0  0  0  0  0  0  0  0  0
   13.4286   -1.8624    2.3679 C   0  0  0  0  0  0  0  0  0  0  0  0
   12.0591   -1.9080    2.3813 C   0  0  0  0  0  0  0  0  0  0  0  0
   11.2945   -0.7112    2.3931 C   0  0  0  0  0  0  0  0  0  0  0  0
    9.9067   -0.7938    2.4093 C   0  0  0  0  0  0  0  0  0  0  0  0
    3.1576    4.5994    2.5042 H   0  0  0  0  0  0  0  0  0  0  0  0
    5.0040    5.3634    3.3049 H   0  0  0  0  0  0  0  0  0  0  0  0
    4.9874    5.3695    1.6720 H   0  0  0  0  0  0  0  0  0  0  0  0
    7.0468    5.6841    0.3948 H   0  0  0  0  0  0  0  0  0  0  0  0
    9.2759    6.5592    0.3809 H   0  0  0  0  0  0  0  0  0  0  0  0
   10.4026    6.9885    2.4456 H   0  0  0  0  0  0  0  0  0  0  0  0
    9.3092    6.5427    4.5181 H   0  0  0  0  0  0  0  0  0  0  0  0
    7.0813    5.6658    4.5460 H   0  0  0  0  0  0  0  0  0  0  0  0
    3.2257   -0.1901    2.4860 H   0  0  0  0  0  0  0  0  0  0  0  0
    1.1354    0.9768    2.5117 H   0  0  0  0  0  0  0  0  0  0  0  0
    9.2576    2.4690    2.4301 H   0  0  0  0  0  0  0  0  0  0  0  0
   13.7861    1.4396    2.3756 H   0  0  0  0  0  0  0  0  0  0  0  0
   13.9667   -2.7052    2.3595 H   0  0  0  0  0  0  0  0  0  0  0  0
   11.5934   -2.7929    2.3828 H   0  0  0  0  0  0  0  0  0  0  0  0
    9.4476   -1.6822    2.4111 H   0  0  0  0  0  0  0  0  0  0  0  0
  1  2  1  0  0  0  0
  2  3  1  0  0  0  0
  3  4  2  0  0  0  0
  4  5  1  0  0  0  0
  5  6  1  0  0  0  0
  6  7  1  0  0  0  0
  7  8  1  0  0  0  0
  8  9  2  0  0  0  0
  9 10  1  0  0  0  0
 10 11  2  0  0  0  0
 11 12  1  0  0  0  0
 12  7  2  0  0  0  0
  4 13  1  0  0  0  0
 13 14  2  0  0  0  0
 14 15  1  0  0  0  0
 15  2  2  0  0  0  0
 13 16  1  0  0  0  0
 16 17  2  0  0  0  0
 17 18  1  0  0  0  0
 18 19  1  0  0  0  0
 19 20  2  0  0  0  0
 20 16  1  0  0  0  0
 19 21  1  0  0  0  0
 21 22  1  0  0  0  0
 22 23  2  0  0  0  0
 23 24  1  0  0  0  0
 23 25  1  0  0  0  0
 25 26  1  0  0  0  0
 26 27  1  0  0  0  0
 27 28  2  0  0  0  0
 27 29  1  0  0  0  0
 29 30  2  0  0  0  0
 30 31  1  0  0  0  0
 31 25  2  0  0  0  0
 31 32  1  0  0  0  0
 32 21  2  0  0  0  0
  3 33  1  0  0  0  0
  6 34  1  0  0  0  0
  6 35  1  0  0  0  0
  8 36  1  0  0  0  0
  9 37  1  0  0  0  0
 10 38  1  0  0  0  0
 11 39  1  0  0  0  0
 12 40  1  0  0  0  0
 14 41  1  0  0  0  0
 15 42  1  0  0  0  0
 22 43  1  0  0  0  0
 26 44  1  0  0  0  0
 29 45  1  0  0  0  0
 30 46  1  0  0  0  0
 32 47  1  0  0  0  0
M  END
>  <result-rank>
24

>  <similarity>
0.880

>  <query-name>


>  <query-smiles>
S1C(C(=O)NC2=Nc3c(N2CCC(=O)N)ccc(N(C(=O)c4ccccc4)C)c3)=CC=C1/C=C/c5ncc(N)cn5

>  <source>
REALspace_2019-12

>  <similarity-descriptor>
0.970;1.000;0.866;0.801;0.965;0.801;0.801;0.0;0.0;0.0;0.0;0.965;0.568;0.965;0.970;0.866;0.866;0.0

>  <similarity-descriptor-smiles>
c1cccc(c1)F;c1ccccc1;c1cC=CC(N1)=O;C=1N=CON1;Brc1ccccc1;C=1N=CON1;C=1N=CON1;;;;;Brc1ccccc1;OC;Brc1ccccc1;c1cccc(c1)F;c1cC=CC(N1)=O;c1cC=CC(N1)=O;

>  <reaction-name>
s_270196

>  <reagent1-name>
16887988

>  <reagent1-smiles>
[R1*]=NC(=NO[R2*])c1c(OCc2ccccc2)cc(Br)cc1

>  <reagent2-name>
16485402

>  <reagent2-smiles>
[R1*]C([R2*])c1cc(F)c2NC(=O)C=Cc2c1

$$$$
s_40____4556050____6361044
          04022017343D 1   1.00000     0.00000     0
            
 54 58  0  0  0  0            999 V2000
    5.0167   -4.7753    3.5117 Br  0  0  0  0  0  0  0  0  0  0  0  0
    6.7618   -3.9405    3.8295 C   0  0  0  0  0  0  0  0  0  0  0  0
    6.8777   -2.7461    4.5330 C   0  0  0  0  0  0  0  0  0  0  0  0
    5.4338   -1.9856    5.1376 S   0  0  0  0  0  0  0  0  0  0  0  0
    5.7933   -0.9076    6.0220 O   0  0  0  0  0  0  0  0  0  0  0  0
    4.6462   -2.9537    5.8561 O   0  0  0  0  0  0  0  0  0  0  0  0
    4.4961   -1.3506    3.7891 N   0  0  0  0  0  0  0  0  0  0  0  0
    5.3091   -0.3643    3.0634 C   0  0  0  0  0  0  0  0  0  0  0  0
    4.5174    0.3332    1.9714 C   0  0  0  0  0  0  0  0  0  0  0  0
    3.1215    0.3162    1.9776 C   0  0  0  0  0  0  0  0  0  0  0  0
    2.3984    1.0000    1.0000 C   0  0  0  0  0  0  0  0  0  0  0  0
    1.0000    1.0000    1.0000 N   0  0  0  0  0  0  0  0  0  0  0  0
    0.3150    2.1820    1.1028 C   0  0  0  0  0  0  0  0  0  0  0  0
    0.7944    3.1029    1.7045 O   0  0  0  0  0  0  0  0  0  0  0  0
   -0.9173    2.3126    0.5187 N   0  0  0  0  0  0  0  0  0  0  0  0
   -1.4336    3.5862    0.2506 C   0  0  0  0  0  0  0  0  0  0  0  0
   -2.6802    3.9439    0.7541 C   0  0  0  0  0  0  0  0  0  0  0  0
   -3.1897    5.2102    0.4858 C   0  0  0  0  0  0  0  0  0  0  0  0
   -2.4540    6.1076   -0.2806 C   0  0  0  0  0  0  0  0  0  0  0  0
   -1.2085    5.7394   -0.7783 C   0  0  0  0  0  0  0  0  0  0  0  0
   -0.6890    4.4759   -0.5167 C   0  0  0  0  0  0  0  0  0  0  0  0
    3.0780    1.6871    0.0040 C   0  0  0  0  0  0  0  0  0  0  0  0
    4.4683    1.6914   -0.0114 C   0  0  0  0  0  0  0  0  0  0  0  0
    5.1923    1.0175    0.9658 C   0  0  0  0  0  0  0  0  0  0  0  0
    2.3718   -0.4589    3.0477 C   0  0  0  0  0  0  0  0  0  0  0  0
    3.2540   -0.7172    4.2610 C   0  0  0  0  0  0  0  0  0  0  0  0
    8.1363   -2.1878    4.7356 C   0  0  0  0  0  0  0  0  0  0  0  0
    9.2899   -2.7967    4.2504 C   0  0  0  0  0  0  0  0  0  0  0  0
   10.6159   -2.4858    4.3010 N   0  0  0  0  0  0  0  0  0  0  0  0
   11.2865   -3.4703    3.6392 C   0  0  0  0  0  0  0  0  0  0  0  0
   12.4952   -3.5188    3.4840 O   0  0  0  0  0  0  0  0  0  0  0  0
   10.3954   -4.3928    3.1773 N   0  0  0  0  0  0  0  0  0  0  0  0
    9.1538   -3.9763    3.5570 C   0  0  0  0  0  0  0  0  0  0  0  0
    7.9086   -4.5556    3.3403 C   0  0  0  0  0  0  0  0  0  0  0  0
    6.0892   -0.8320    2.6480 H   0  0  0  0  0  0  0  0  0  0  0  0
    5.6386    0.3221    3.7117 H   0  0  0  0  0  0  0  0  0  0  0  0
    0.5000    0.1372    0.9249 H   0  0  0  0  0  0  0  0  0  0  0  0
   -1.4481    1.4983    0.2838 H   0  0  0  0  0  0  0  0  0  0  0  0
   -3.2061    3.2956    1.3047 H   0  0  0  0  0  0  0  0  0  0  0  0
   -4.0849    5.4752    0.8441 H   0  0  0  0  0  0  0  0  0  0  0  0
   -2.8205    7.0177   -0.4739 H   0  0  0  0  0  0  0  0  0  0  0  0
   -0.6825    6.3880   -1.3285 H   0  0  0  0  0  0  0  0  0  0  0  0
    0.2063    4.2112   -0.8748 H   0  0  0  0  0  0  0  0  0  0  0  0
    2.5682    2.1787   -0.7020 H   0  0  0  0  0  0  0  0  0  0  0  0
    4.9531    2.1848   -0.7336 H   0  0  0  0  0  0  0  0  0  0  0  0
    6.1921    1.0247    0.9459 H   0  0  0  0  0  0  0  0  0  0  0  0
    2.0748   -1.3350    2.6680 H   0  0  0  0  0  0  0  0  0  0  0  0
    1.5718    0.0692    3.3327 H   0  0  0  0  0  0  0  0  0  0  0  0
    3.4653    0.1469    4.7178 H   0  0  0  0  0  0  0  0  0  0  0  0
    2.7836   -1.3258    4.9000 H   0  0  0  0  0  0  0  0  0  0  0  0
    8.2136   -1.3289    5.2418 H   0  0  0  0  0  0  0  0  0  0  0  0
   11.0211   -1.6847    4.7416 H   0  0  0  0  0  0  0  0  0  0  0  0
   10.6117   -5.2194    2.6577 H   0  0  0  0  0  0  0  0  0  0  0  0
    7.8379   -5.4143    2.8327 H   0  0  0  0  0  0  0  0  0  0  0  0
  1  2  1  0  0  0  0
  2  3  1  0  0  0  0
  3  4  1  0  0  0  0
  4  5  2  0  0  0  0
  4  6  2  0  0  0  0
  4  7  1  0  0  0  0
  7  8  1  0  0  0  0
  8  9  1  0  0  0  0
  9 10  1  0  0  0  0
 10 11  2  0  0  0  0
 11 12  1  0  0  0  0
 12 13  1  0  0  0  0
 13 14  2  0  0  0  0
 13 15  1  0  0  0  0
 15 16  1  0  0  0  0
 16 17  1  0  0  0  0
 17 18  2  0  0  0  0
 18 19  1  0  0  0  0
 19 20  2  0  0  0  0
 20 21  1  0  0  0  0
 21 16  2  0  0  0  0
 11 22  1  0  0  0  0
 22 23  2  0  0  0  0
 23 24  1  0  0  0  0
 24  9  2  0  0  0  0
 10 25  1  0  0  0  0
 25 26  1  0  0  0  0
 26  7  1  0  0  0  0
  3 27  2  0  0  0  0
 27 28  1  0  0  0  0
 28 29  1  0  0  0  0
 29 30  1  0  0  0  0
 30 31  2  0  0  0  0
 30 32  1  0  0  0  0
 32 33  1  0  0  0  0
 33 28  2  0  0  0  0
 33 34  1  0  0  0  0
 34  2  2  0  0  0  0
  8 35  1  0  0  0  0
  8 36  1  0  0  0  0
 12 37  1  0  0  0  0
 15 38  1  0  0  0  0
 17 39  1  0  0  0  0
 18 40  1  0  0  0  0
 19 41  1  0  0  0  0
 20 42  1  0  0  0  0
 21 43  1  0  0  0  0
 22 44  1  0  0  0  0
 23 45  1  0  0  0  0
 24 46  1  0  0  0  0
 25 47  1  0  0  0  0
 25 48  1  0  0  0  0
 26 49  1  0  0  0  0
 26 50  1  0  0  0  0
 27 51  1  0  0  0  0
 29 52  1  0  0  0  0
 32 53  1  0  0  0  0
 34 54  1  0  0  0  0
M  END
>  <result-rank>
25

>  <similarity>
0.879

>  <query-name>


>  <query-smiles>
S1C(C(=O)NC2=Nc3c(N2CCC(=O)N)ccc(N(C(=O)c4ccccc4)C)c3)=CC=C1/C=C/c5ncc(N)cn5

>  <source>
REALspace_2019-12

>  <similarity-descriptor>
1.000;0.998;0.863;0.839;0.989;0.621;0.621;0.839;0.839;0.0;0.0;0.989;0.740;0.0;1.000;0.863;0.863;0.0

>  <similarity-descriptor-smiles>
Brc1ccccc1;c1ccccc1;c1cNC(N1)=O;N1CCccC1;c1ccccc1;S(=O)=O;S(=O)=O;N1CCccC1;N1CCccC1;;;c1ccccc1;NC(=O)N;;Brc1ccccc1;c1cNC(N1)=O;c1cNC(N1)=O;

>  <reaction-name>
s_40

>  <reagent1-name>
4556050

>  <reagent1-smiles>
[R1*]N1Cc2c(c(NC(=O)Nc3ccccc3)ccc2)CC1

>  <reagent2-name>
6361044

>  <reagent2-smiles>
[R1*]S(=O)(=O)c1c(Br)cc2NC(=O)Nc2c1

$$$$
s_40____4556050____6166886
          04022017343D 1   1.00000     0.00000     0
            
 55 59  0  0  0  0            999 V2000
   13.0365   -4.7312    2.7074 Cl  0  0  0  0  0  0  0  0  0  0  0  0
   11.5428   -3.9749    3.3131 C   0  0  0  0  0  0  0  0  0  0  0  0
   10.3332   -4.5233    3.1112 N   0  0  0  0  0  0  0  0  0  0  0  0
    9.2040   -3.9570    3.5676 C   0  0  0  0  0  0  0  0  0  0  0  0
    9.2609   -2.7607    4.2775 C   0  0  0  0  0  0  0  0  0  0  0  0
    8.1114   -2.1464    4.7641 C   0  0  0  0  0  0  0  0  0  0  0  0
    6.8776   -2.7460    4.5330 C   0  0  0  0  0  0  0  0  0  0  0  0
    5.4338   -1.9856    5.1376 S   0  0  0  0  0  0  0  0  0  0  0  0
    5.7933   -0.9076    6.0220 O   0  0  0  0  0  0  0  0  0  0  0  0
    4.6462   -2.9537    5.8561 O   0  0  0  0  0  0  0  0  0  0  0  0
    4.4961   -1.3506    3.7891 N   0  0  0  0  0  0  0  0  0  0  0  0
    5.3091   -0.3643    3.0634 C   0  0  0  0  0  0  0  0  0  0  0  0
    4.5174    0.3332    1.9714 C   0  0  0  0  0  0  0  0  0  0  0  0
    3.1215    0.3162    1.9776 C   0  0  0  0  0  0  0  0  0  0  0  0
    2.3984    1.0000    1.0000 C   0  0  0  0  0  0  0  0  0  0  0  0
    1.0000    1.0000    1.0000 N   0  0  0  0  0  0  0  0  0  0  0  0
    0.3150    2.1820    1.1028 C   0  0  0  0  0  0  0  0  0  0  0  0
    0.7944    3.1029    1.7045 O   0  0  0  0  0  0  0  0  0  0  0  0
   -0.9173    2.3126    0.5187 N   0  0  0  0  0  0  0  0  0  0  0  0
   -1.4336    3.5862    0.2506 C   0  0  0  0  0  0  0  0  0  0  0  0
   -2.6802    3.9439    0.7541 C   0  0  0  0  0  0  0  0  0  0  0  0
   -3.1897    5.2102    0.4858 C   0  0  0  0  0  0  0  0  0  0  0  0
   -2.4540    6.1076   -0.2806 C   0  0  0  0  0  0  0  0  0  0  0  0
   -1.2085    5.7394   -0.7783 C   0  0  0  0  0  0  0  0  0  0  0  0
   -0.6890    4.4759   -0.5167 C   0  0  0  0  0  0  0  0  0  0  0  0
    3.0780    1.6871    0.0040 C   0  0  0  0  0  0  0  0  0  0  0  0
    4.4683    1.6914   -0.0114 C   0  0  0  0  0  0  0  0  0  0  0  0
    5.1923    1.0175    0.9658 C   0  0  0  0  0  0  0  0  0  0  0  0
    2.3718   -0.4589    3.0477 C   0  0  0  0  0  0  0  0  0  0  0  0
    3.2540   -0.7172    4.2610 C   0  0  0  0  0  0  0  0  0  0  0  0
    6.8018   -3.9411    3.8250 C   0  0  0  0  0  0  0  0  0  0  0  0
    5.6115   -4.4944    3.6170 F   0  0  0  0  0  0  0  0  0  0  0  0
    7.9613   -4.5413    3.3459 C   0  0  0  0  0  0  0  0  0  0  0  0
   10.5019   -2.1726    4.5001 C   0  0  0  0  0  0  0  0  0  0  0  0
   11.6562   -2.7801    4.0168 C   0  0  0  0  0  0  0  0  0  0  0  0
    8.1711   -1.2871    5.2721 H   0  0  0  0  0  0  0  0  0  0  0  0
    6.0892   -0.8320    2.6480 H   0  0  0  0  0  0  0  0  0  0  0  0
    5.6386    0.3221    3.7117 H   0  0  0  0  0  0  0  0  0  0  0  0
    0.5000    0.1372    0.9249 H   0  0  0  0  0  0  0  0  0  0  0  0
   -1.4481    1.4983    0.2838 H   0  0  0  0  0  0  0  0  0  0  0  0
   -3.2061    3.2956    1.3047 H   0  0  0  0  0  0  0  0  0  0  0  0
   -4.0849    5.4752    0.8441 H   0  0  0  0  0  0  0  0  0  0  0  0
   -2.8205    7.0177   -0.4739 H   0  0  0  0  0  0  0  0  0  0  0  0
   -0.6825    6.3880   -1.3285 H   0  0  0  0  0  0  0  0  0  0  0  0
    0.2063    4.2112   -0.8748 H   0  0  0  0  0  0  0  0  0  0  0  0
    2.5682    2.1787   -0.7020 H   0  0  0  0  0  0  0  0  0  0  0  0
    4.9531    2.1848   -0.7336 H   0  0  0  0  0  0  0  0  0  0  0  0
    6.1921    1.0247    0.9459 H   0  0  0  0  0  0  0  0  0  0  0  0
    2.0748   -1.3350    2.6680 H   0  0  0  0  0  0  0  0  0  0  0  0
    1.5718    0.0692    3.3327 H   0  0  0  0  0  0  0  0  0  0  0  0
    3.4653    0.1469    4.7178 H   0  0  0  0  0  0  0  0  0  0  0  0
    2.7836   -1.3258    4.9000 H   0  0  0  0  0  0  0  0  0  0  0  0
    7.9011   -5.4003    2.8376 H   0  0  0  0  0  0  0  0  0  0  0  0
   10.5641   -1.3132    5.0075 H   0  0  0  0  0  0  0  0  0  0  0  0
   12.5525   -2.3650    4.1725 H   0  0  0  0  0  0  0  0  0  0  0  0
  1  2  1  0  0  0  0
  2  3  1  0  0  0  0
  3  4  2  0  0  0  0
  4  5  1  0  0  0  0
  5  6  1  0  0  0  0
  6  7  2  0  0  0  0
  7  8  1  0  0  0  0
  8  9  2  0  0  0  0
  8 10  2  0  0  0  0
  8 11  1  0  0  0  0
 11 12  1  0  0  0  0
 12 13  1  0  0  0  0
 13 14  1  0  0  0  0
 14 15  2  0  0  0  0
 15 16  1  0  0  0  0
 16 17  1  0  0  0  0
 17 18  2  0  0  0  0
 17 19  1  0  0  0  0
 19 20  1  0  0  0  0
 20 21  1  0  0  0  0
 21 22  2  0  0  0  0
 22 23  1  0  0  0  0
 23 24  2  0  0  0  0
 24 25  1  0  0  0  0
 25 20  2  0  0  0  0
 15 26  1  0  0  0  0
 26 27  2  0  0  0  0
 27 28  1  0  0  0  0
 28 13  2  0  0  0  0
 14 29  1  0  0  0  0
 29 30  1  0  0  0  0
 30 11  1  0  0  0  0
  7 31  1  0  0  0  0
 31 32  1  0  0  0  0
 31 33  2  0  0  0  0
 33  4  1  0  0  0  0
  5 34  2  0  0  0  0
 34 35  1  0  0  0  0
 35  2  2  0  0  0  0
  6 36  1  0  0  0  0
 12 37  1  0  0  0  0
 12 38  1  0  0  0  0
 16 39  1  0  0  0  0
 19 40  1  0  0  0  0
 21 41  1  0  0  0  0
 22 42  1  0  0  0  0
 23 43  1  0  0  0  0
 24 44  1  0  0  0  0
 25 45  1  0  0  0  0
 26 46  1  0  0  0  0
 27 47  1  0  0  0  0
 28 48  1  0  0  0  0
 29 49  1  0  0  0  0
 29 50  1  0  0  0  0
 30 51  1  0  0  0  0
 30 52  1  0  0  0  0
 33 53  1  0  0  0  0
 34 54  1  0  0  0  0
 35 55  1  0  0  0  0
M  END
>  <result-rank>
26

>  <similarity>
0.879

>  <query-name>


>  <query-smiles>
S1C(C(=O)NC2=Nc3c(N2CCC(=O)N)ccc(N(C(=O)c4ccccc4)C)c3)=CC=C1/C=C/c5ncc(N)cn5

>  <source>
REALspace_2019-12

>  <similarity-descriptor>
0.970;0.998;0.908;0.839;0.989;0.621;0.621;0.839;0.839;0.0;0.0;0.989;0.740;0.0;0.970;0.908;0.0;0.0

>  <similarity-descriptor-smiles>
c1cc(ccc1)F;c1ccccc1;Clc1ccccn1;N1CCccC1;c1ccccc1;S(=O)=O;S(=O)=O;N1CCccC1;N1CCccC1;;;c1ccccc1;NC(=O)N;;c1cc(ccc1)F;Clc1ccccn1;;

>  <reaction-name>
s_40

>  <reagent1-name>
4556050

>  <reagent1-smiles>
[R1*]N1Cc2c(c(NC(=O)Nc3ccccc3)ccc2)CC1

>  <reagent2-name>
6166886

>  <reagent2-smiles>
[R1*]S(=O)(=O)c1c(F)cc2nc(Cl)ccc2c1

$$$$
s_272212____12527328____14936570
          04022017343D 1   1.00000     0.00000     0
            
 56 60  0  0  0  0            999 V2000
    0.4463    3.7459    4.8127 O   0  0  0  0  0  0  0  0  0  0  0  0
    0.0682    3.9495    3.6711 C   0  0  0  0  0  0  0  0  0  0  0  0
    0.7615    3.5615    2.5249 N   0  0  0  0  0  0  0  0  0  0  0  0
    1.9869    2.8842    2.5109 C   0  0  0  0  0  0  0  0  0  0  0  0
    3.1774    3.6042    2.4996 C   0  0  0  0  0  0  0  0  0  0  0  0
    4.3870    2.9175    2.4860 C   0  0  0  0  0  0  0  0  0  0  0  0
    4.4032    1.5256    2.4835 C   0  0  0  0  0  0  0  0  0  0  0  0
    3.2070    0.8157    2.4951 C   0  0  0  0  0  0  0  0  0  0  0  0
    1.9918    1.4929    2.5088 C   0  0  0  0  0  0  0  0  0  0  0  0
    5.7085    0.7463    2.4684 C   0  0  0  0  0  0  0  0  0  0  0  0
    5.6161    3.6874    2.4743 C   0  0  0  0  0  0  0  0  0  0  0  0
    5.9257    4.3087    1.4955 O   0  0  0  0  0  0  0  0  0  0  0  0
    6.4710    3.7063    3.6457 C   0  0  0  0  0  0  0  0  0  0  0  0
    7.8532    3.7103    3.4901 C   0  0  0  0  0  0  0  0  0  0  0  0
    8.6695    3.7276    4.6164 C   0  0  0  0  0  0  0  0  0  0  0  0
    8.1023    3.7422    5.8863 C   0  0  0  0  0  0  0  0  0  0  0  0
    6.7203    3.7386    6.0297 C   0  0  0  0  0  0  0  0  0  0  0  0
    5.8933    3.7206    4.9114 C   0  0  0  0  0  0  0  0  0  0  0  0
    0.0476    3.9555    1.3958 C   0  0  0  0  0  0  0  0  0  0  0  0
    0.3855    3.7823    0.2352 O   0  0  0  0  0  0  0  0  0  0  0  0
   -1.2175    4.6447    1.8669 C   0  0  3  0  0  0  0  0  0  0  0  0
   -1.1144    4.6048    3.3281 N   0  0  0  0  0  0  0  0  0  0  0  0
   -2.4458    3.8412    1.4706 C   0  0  0  0  0  0  0  0  0  0  0  0
   -3.2654    4.3051    0.4465 C   0  0  0  0  0  0  0  0  0  0  0  0
   -4.3896    3.5735    0.0789 C   0  0  0  0  0  0  0  0  0  0  0  0
   -4.6793    2.3848    0.7409 C   0  0  0  0  0  0  0  0  0  0  0  0
   -5.8497    1.6172    0.3612 C   0  0  0  0  0  0  0  0  0  0  0  0
   -6.1391    0.4287    1.0234 C   0  0  0  0  0  0  0  0  0  0  0  0
   -7.2623   -0.3049    0.6554 C   0  0  0  0  0  0  0  0  0  0  0  0
   -8.0872    0.1522   -0.3670 C   0  0  0  0  0  0  0  0  0  0  0  0
   -7.7886    1.3411   -1.0212 C   0  0  0  0  0  0  0  0  0  0  0  0
   -6.6681    2.0834   -0.6629 C   0  0  0  0  0  0  0  0  0  0  0  0
   -3.8613    1.9207    1.7654 C   0  0  0  0  0  0  0  0  0  0  0  0
   -2.7377    2.6532    2.1339 C   0  0  0  0  0  0  0  0  0  0  0  0
    3.1635    4.6041    2.5013 H   0  0  0  0  0  0  0  0  0  0  0  0
    3.2206   -0.1842    2.4937 H   0  0  0  0  0  0  0  0  0  0  0  0
    1.1305    0.9848    2.5170 H   0  0  0  0  0  0  0  0  0  0  0  0
    5.5114   -0.2341    2.4689 H   0  0  0  0  0  0  0  0  0  0  0  0
    6.2276    0.9815    1.6467 H   0  0  0  0  0  0  0  0  0  0  0  0
    6.2450    0.9789    3.2796 H   0  0  0  0  0  0  0  0  0  0  0  0
    8.2572    3.7008    2.5753 H   0  0  0  0  0  0  0  0  0  0  0  0
    9.6642    3.7296    4.5130 H   0  0  0  0  0  0  0  0  0  0  0  0
    8.6891    3.7553    6.6960 H   0  0  0  0  0  0  0  0  0  0  0  0
    6.3168    3.7489    6.9446 H   0  0  0  0  0  0  0  0  0  0  0  0
    4.8987    3.7181    5.0155 H   0  0  0  0  0  0  0  0  0  0  0  0
   -1.2701    5.5844    1.5290 H   0  0  0  0  0  0  0  0  0  0  0  0
   -1.7800    4.9836    3.9711 H   0  0  0  0  0  0  0  0  0  0  0  0
   -3.0472    5.1606   -0.0231 H   0  0  0  0  0  0  0  0  0  0  0  0
   -4.9850    3.8994   -0.6555 H   0  0  0  0  0  0  0  0  0  0  0  0
   -5.5440    0.1039    1.7586 H   0  0  0  0  0  0  0  0  0  0  0  0
   -7.4766   -1.1608    1.1259 H   0  0  0  0  0  0  0  0  0  0  0  0
   -8.8950   -0.3748   -0.6312 H   0  0  0  0  0  0  0  0  0  0  0  0
   -8.3844    1.6659   -1.7557 H   0  0  0  0  0  0  0  0  0  0  0  0
   -6.4540    2.9390   -1.1342 H   0  0  0  0  0  0  0  0  0  0  0  0
   -4.0796    1.0650    2.2345 H   0  0  0  0  0  0  0  0  0  0  0  0
   -2.1440    2.3285    2.8702 H   0  0  0  0  0  0  0  0  0  0  0  0
  1  2  2  0  0  0  0
  2  3  1  0  0  0  0
  3  4  1  0  0  0  0
  4  5  1  0  0  0  0
  5  6  2  0  0  0  0
  6  7  1  0  0  0  0
  7  8  2  0  0  0  0
  8  9  1  0  0  0  0
  9  4  2  0  0  0  0
  7 10  1  0  0  0  0
  6 11  1  0  0  0  0
 11 12  2  0  0  0  0
 11 13  1  0  0  0  0
 13 14  1  0  0  0  0
 14 15  2  0  0  0  0
 15 16  1  0  0  0  0
 16 17  2  0  0  0  0
 17 18  1  0  0  0  0
 18 13  2  0  0  0  0
  3 19  1  0  0  0  0
 19 20  2  0  0  0  0
 19 21  1  0  0  0  0
 21 22  1  0  0  0  0
 22  2  1  0  0  0  0
 21 23  1  0  0  0  0
 23 24  1  0  0  0  0
 24 25  2  0  0  0  0
 25 26  1  0  0  0  0
 26 27  1  0  0  0  0
 27 28  1  0  0  0  0
 28 29  2  0  0  0  0
 29 30  1  0  0  0  0
 30 31  2  0  0  0  0
 31 32  1  0  0  0  0
 32 27  2  0  0  0  0
 26 33  2  0  0  0  0
 33 34  1  0  0  0  0
 34 23  2  0  0  0  0
  5 35  1  0  0  0  0
  8 36  1  0  0  0  0
  9 37  1  0  0  0  0
 10 38  1  0  0  0  0
 10 39  1  0  0  0  0
 10 40  1  0  0  0  0
 14 41  1  0  0  0  0
 15 42  1  0  0  0  0
 16 43  1  0  0  0  0
 17 44  1  0  0  0  0
 18 45  1  0  0  0  0
 21 46  1  0  0  0  0
 22 47  1  0  0  0  0
 24 48  1  0  0  0  0
 25 49  1  0  0  0  0
 28 50  1  0  0  0  0
 29 51  1  0  0  0  0
 30 52  1  0  0  0  0
 31 53  1  0  0  0  0
 32 54  1  0  0  0  0
 33 55  1  0  0  0  0
 34 56  1  0  0  0  0
M  END
>  <result-rank>
27

>  <similarity>
0.878

>  <query-name>


>  <query-smiles>
S1C(C(=O)NC2=Nc3c(N2CCC(=O)N)ccc(N(C(=O)c4ccccc4)C)c3)=CC=C1/C=C/c5ncc(N)cn5

>  <source>
REALspace_2019-12

>  <similarity-descriptor>
0.932;1.000;0.744;0.790;0.993;0.790;0.790;0.790;0.790;0.790;0.0;0.993;0.908;0.995;0.932;0.744;0.0;0.0

>  <similarity-descriptor-smiles>
c1ccccc1;c1ccccc1;c1ccccc1;O=C1NCC(N1)=O;c1ccccc1;O=C1NCC(N1)=O;O=C1NCC(N1)=O;O=C1NCC(N1)=O;O=C1NCC(N1)=O;O=C1NCC(N1)=O;;c1ccccc1;C=O;C;c1ccccc1;c1ccccc1;;

>  <reaction-name>
s_272212

>  <reagent1-name>
12527328

>  <reagent1-smiles>
[R2*]N(c1cc(c(cc1)C)C(=O)c2ccccc2)C([R1*])=O

>  <reagent2-name>
14936570

>  <reagent2-smiles>
[R1*]NC(c1ccc(c2ccccc2)cc1)C([R2*])=O

$$$$
s_270196____8771308____10224814
          04022017343D 1   1.00000     0.00000     0
            
 44 48  0  0  0  0            999 V2000
    6.1905   -2.5854    4.1789 F   0  0  0  0  0  0  0  0  0  0  0  0
    5.6800   -3.7771    3.8799 C   0  0  0  0  0  0  0  0  0  0  0  0
    4.4767   -3.8644    3.1872 C   0  0  0  0  0  0  0  0  0  0  0  0
    3.9436   -5.1106    2.8740 C   0  0  0  0  0  0  0  0  0  0  0  0
    4.6099   -6.2713    3.2525 C   0  0  0  0  0  0  0  0  0  0  0  0
    5.8120   -6.1703    3.9457 C   0  0  0  0  0  0  0  0  0  0  0  0
    6.5075   -7.3788    4.3408 C   0  0  0  0  0  0  0  0  0  0  0  0
    5.9797   -8.6283    4.0312 C   0  0  0  0  0  0  0  0  0  0  0  0
    6.6412   -9.7327    4.4080 N   0  0  0  0  0  0  0  0  0  0  0  0
    7.8011   -9.6590    5.0771 C   0  0  0  0  0  0  0  0  0  0  0  0
    8.3234   -8.4623    5.3840 N   0  0  0  0  0  0  0  0  0  0  0  0
    7.7107   -7.3210    5.0355 C   0  0  0  0  0  0  0  0  0  0  0  0
    6.3562   -4.9304    4.2647 C   0  0  0  0  0  0  0  0  0  0  0  0
    3.7786   -2.6565    2.7907 C   0  0  0  0  0  0  0  0  0  0  0  0
    2.6430   -2.6090    2.1375 O   0  0  0  0  0  0  0  0  0  0  0  0
    2.3106   -1.4000    1.9525 N   0  0  0  0  0  0  0  0  0  0  0  0
    3.2280   -0.6256    2.4827 C   0  0  0  0  0  0  0  0  0  0  0  0
    4.1781   -1.4322    3.0242 N   0  0  0  0  0  0  0  0  0  0  0  0
    3.2284    0.8247    2.4868 C   0  0  0  0  0  0  0  0  0  0  0  0
    4.3631    1.5445    2.4874 N   0  0  0  0  0  0  0  0  0  0  0  0
    4.3576    2.8853    2.4941 C   0  0  0  0  0  0  0  0  0  0  0  0
    3.1504    3.5764    2.5007 C   0  0  0  0  0  0  0  0  0  0  0  0
    3.1541    4.9309    2.5094 O   0  0  0  0  0  0  0  0  0  0  0  0
    4.3252    5.6027    2.5118 C   0  0  0  0  0  0  0  0  0  0  0  0
    4.9252    5.9380    3.7210 C   0  0  0  0  0  0  0  0  0  0  0  0
    6.1319    6.6314    3.7175 C   0  0  0  0  0  0  0  0  0  0  0  0
    6.7294    6.9830    2.5112 C   0  0  0  0  0  0  0  0  0  0  0  0
    6.1232    6.6454    1.3057 C   0  0  0  0  0  0  0  0  0  0  0  0
    4.9168    5.9524    1.3021 C   0  0  0  0  0  0  0  0  0  0  0  0
    2.0157    2.8568    2.4979 N   0  0  0  0  0  0  0  0  0  0  0  0
    2.0210    1.5156    2.4922 C   0  0  0  0  0  0  0  0  0  0  0  0
    3.0790   -5.1721    2.3753 H   0  0  0  0  0  0  0  0  0  0  0  0
    4.2292   -7.1686    3.0289 H   0  0  0  0  0  0  0  0  0  0  0  0
    5.1159   -8.7023    3.5328 H   0  0  0  0  0  0  0  0  0  0  0  0
    8.2765  -10.4963    5.3473 H   0  0  0  0  0  0  0  0  0  0  0  0
    8.1151   -6.4377    5.2728 H   0  0  0  0  0  0  0  0  0  0  0  0
    7.2208   -4.8690    4.7633 H   0  0  0  0  0  0  0  0  0  0  0  0
    5.2217    3.3886    2.4944 H   0  0  0  0  0  0  0  0  0  0  0  0
    4.4929    5.6829    4.5859 H   0  0  0  0  0  0  0  0  0  0  0  0
    6.5697    6.8769    4.5823 H   0  0  0  0  0  0  0  0  0  0  0  0
    7.5972    7.4800    2.5109 H   0  0  0  0  0  0  0  0  0  0  0  0
    6.5550    6.9010    0.4406 H   0  0  0  0  0  0  0  0  0  0  0  0
    4.4785    5.7076    0.4373 H   0  0  0  0  0  0  0  0  0  0  0  0
    1.1569    1.0123    2.4918 H   0  0  0  0  0  0  0  0  0  0  0  0
  1  2  1  0  0  0  0
  2  3  1  0  0  0  0
  3  4  2  0  0  0  0
  4  5  1  0  0  0  0
  5  6  2  0  0  0  0
  6  7  1  0  0  0  0
  7  8  1  0  0  0  0
  8  9  2  0  0  0  0
  9 10  1  0  0  0  0
 10 11  2  0  0  0  0
 11 12  1  0  0  0  0
 12  7  2  0  0  0  0
  6 13  1  0  0  0  0
 13  2  2  0  0  0  0
  3 14  1  0  0  0  0
 14 15  1  0  0  0  0
 15 16  1  0  0  0  0
 16 17  2  0  0  0  0
 17 18  1  0  0  0  0
 14 18  2  0  0  0  0
 17 19  1  0  0  0  0
 19 20  1  0  0  0  0
 20 21  2  0  0  0  0
 21 22  1  0  0  0  0
 22 23  1  0  0  0  0
 23 24  1  0  0  0  0
 24 25  1  0  0  0  0
 25 26  2  0  0  0  0
 26 27  1  0  0  0  0
 27 28  2  0  0  0  0
 28 29  1  0  0  0  0
 29 24  2  0  0  0  0
 22 30  2  0  0  0  0
 30 31  1  0  0  0  0
 31 19  2  0  0  0  0
  4 32  1  0  0  0  0
  5 33  1  0  0  0  0
  8 34  1  0  0  0  0
 10 35  1  0  0  0  0
 12 36  1  0  0  0  0
 13 37  1  0  0  0  0
 21 38  1  0  0  0  0
 25 39  1  0  0  0  0
 26 40  1  0  0  0  0
 27 41  1  0  0  0  0
 28 42  1  0  0  0  0
 29 43  1  0  0  0  0
 31 44  1  0  0  0  0
M  END
>  <result-rank>
28

>  <similarity>
0.877

>  <query-name>


>  <query-smiles>
S1C(C(=O)NC2=Nc3c(N2CCC(=O)N)ccc(N(C(=O)c4ccccc4)C)c3)=CC=C1/C=C/c5ncc(N)cn5

>  <source>
REALspace_2019-12

>  <similarity-descriptor>
0.966;0.987;0.936;0.801;0.834;0.801;0.801;0.0;0.0;0.0;0.0;0.834;0.834;0.0;0.966;0.936;0.0;0.0

>  <similarity-descriptor-smiles>
Fc1ccccc1;Oc1ccccc1;c1cncnc1;C1=NC=NO1;c1cnccn1;C1=NC=NO1;C1=NC=NO1;;;;;c1cnccn1;c1cnccn1;;Fc1ccccc1;c1cncnc1;;

>  <reaction-name>
s_270196

>  <reagent1-name>
8771308

>  <reagent1-smiles>
[R1*]=NC(=NO[R2*])c1ncc(Oc2ccccc2)nc1

>  <reagent2-name>
10224814

>  <reagent2-smiles>
[R1*]C([R2*])c1c(F)cc(c2cncnc2)cc1

$$$$
s_708____1107374____4971534
          04022017343D 1   1.00000     0.00000     0
            
 48 52  0  0  0  0            999 V2000
    0.5725   10.9490    4.3574 Cl  0  0  0  0  0  0  0  0  0  0  0  0
    2.0944   11.8704    4.2898 C   0  0  0  0  0  0  0  0  0  0  0  0
    3.2200   11.3115    3.6933 C   0  0  0  0  0  0  0  0  0  0  0  0
    4.4085   12.0323    3.6395 C   0  0  0  0  0  0  0  0  0  0  0  0
    4.4719   13.3105    4.1839 C   0  0  0  0  0  0  0  0  0  0  0  0
    3.3462   13.8688    4.7810 C   0  0  0  0  0  0  0  0  0  0  0  0
    2.1579   13.1487    4.8335 C   0  0  0  0  0  0  0  0  0  0  0  0
    3.1541    9.9789    3.1257 C   0  0  0  0  0  0  0  0  0  0  0  0
    3.1942    9.6918    1.4503 S   0  0  0  0  0  0  0  0  0  0  0  0
    3.0792    7.9996    1.5777 C   0  0  0  0  0  0  0  0  0  0  0  0
    3.0653    7.1185    0.4748 C   0  0  0  0  0  0  0  0  0  0  0  0
    3.1338    7.4950   -0.6844 O   0  0  0  0  0  0  0  0  0  0  0  0
    2.9652    5.8063    0.8089 N   0  0  0  0  0  0  0  0  0  0  0  0
    2.8891    5.4487    2.1299 C   0  0  0  0  0  0  0  0  0  0  0  0
    2.9094    6.3337    3.1126 N   0  0  0  0  0  0  0  0  0  0  0  0
    3.0095    7.6813    2.9008 C   0  0  0  0  0  0  0  0  0  0  0  0
    3.0539    8.7937    3.7940 C   0  0  0  0  0  0  0  0  0  0  0  0
    2.7797    4.0334    2.4079 C   0  0  0  0  0  0  0  0  0  0  0  0
    1.9748    3.2373    1.6000 C   0  0  0  0  0  0  0  0  0  0  0  0
    1.8778    1.8778    1.8778 C   0  0  0  0  0  0  0  0  0  0  0  0
    2.5709    1.3128    2.9434 C   0  0  0  0  0  0  0  0  0  0  0  0
    3.3699    2.1290    3.7370 C   0  0  0  0  0  0  0  0  0  0  0  0
    3.4820    3.4912    3.4791 C   0  0  0  0  0  0  0  0  0  0  0  0
    1.0000    1.0000    1.0000 C   0  0  0  0  0  0  0  0  0  0  0  0
    1.7699    0.4879   -0.0777 O   0  0  0  0  0  0  0  0  0  0  0  0
    1.1957   -0.3226   -0.9924 C   0  0  0  0  0  0  0  0  0  0  0  0
   -0.1515   -0.6440   -0.8613 C   0  0  0  0  0  0  0  0  0  0  0  0
   -0.7410   -1.4789   -1.8048 C   0  0  0  0  0  0  0  0  0  0  0  0
   -2.0284   -1.7938   -1.6903 F   0  0  0  0  0  0  0  0  0  0  0  0
   -0.0037   -1.9896   -2.8674 C   0  0  0  0  0  0  0  0  0  0  0  0
    1.3417   -1.6561   -2.9807 C   0  0  0  0  0  0  0  0  0  0  0  0
    1.9503   -0.8230   -2.0480 C   0  0  0  0  0  0  0  0  0  0  0  0
    5.2173   11.6314    3.2094 H   0  0  0  0  0  0  0  0  0  0  0  0
    5.3266   13.8282    4.1461 H   0  0  0  0  0  0  0  0  0  0  0  0
    3.3917   14.7878    5.1724 H   0  0  0  0  0  0  0  0  0  0  0  0
    1.3486   13.5502    5.2624 H   0  0  0  0  0  0  0  0  0  0  0  0
    2.9472    5.1053    0.0959 H   0  0  0  0  0  0  0  0  0  0  0  0
    3.0162    8.7140    4.7901 H   0  0  0  0  0  0  0  0  0  0  0  0
    1.4739    3.6358    0.8317 H   0  0  0  0  0  0  0  0  0  0  0  0
    2.4959    0.3343    3.1358 H   0  0  0  0  0  0  0  0  0  0  0  0
    3.8714    1.7304    4.5048 H   0  0  0  0  0  0  0  0  0  0  0  0
    4.0583    4.0715    4.0547 H   0  0  0  0  0  0  0  0  0  0  0  0
    0.6394    0.2411    1.5422 H   0  0  0  0  0  0  0  0  0  0  0  0
    0.2411    1.5422    0.6394 H   0  0  0  0  0  0  0  0  0  0  0  0
   -0.6881   -0.2802   -0.0999 H   0  0  0  0  0  0  0  0  0  0  0  0
   -0.4354   -2.5891   -3.5415 H   0  0  0  0  0  0  0  0  0  0  0  0
    1.8782   -2.0199   -3.7422 H   0  0  0  0  0  0  0  0  0  0  0  0
    2.9180   -0.5867   -2.1354 H   0  0  0  0  0  0  0  0  0  0  0  0
  1  2  1  0  0  0  0
  2  3  1  0  0  0  0
  3  4  2  0  0  0  0
  4  5  1  0  0  0  0
  5  6  2  0  0  0  0
  6  7  1  0  0  0  0
  7  2  2  0  0  0  0
  3  8  1  0  0  0  0
  8  9  1  0  0  0  0
  9 10  1  0  0  0  0
 10 11  1  0  0  0  0
 11 12  2  0  0  0  0
 11 13  1  0  0  0  0
 13 14  1  0  0  0  0
 14 15  2  0  0  0  0
 15 16  1  0  0  0  0
 10 16  2  0  0  0  0
 16 17  1  0  0  0  0
  8 17  2  0  0  0  0
 14 18  1  0  0  0  0
 18 19  1  0  0  0  0
 19 20  2  0  0  0  0
 20 21  1  0  0  0  0
 21 22  2  0  0  0  0
 22 23  1  0  0  0  0
 23 18  2  0  0  0  0
 20 24  1  0  0  0  0
 24 25  1  0  0  0  0
 25 26  1  0  0  0  0
 26 27  1  0  0  0  0
 27 28  2  0  0  0  0
 28 29  1  0  0  0  0
 28 30  1  0  0  0  0
 30 31  2  0  0  0  0
 31 32  1  0  0  0  0
 32 26  2  0  0  0  0
  4 33  1  0  0  0  0
  5 34  1  0  0  0  0
  6 35  1  0  0  0  0
  7 36  1  0  0  0  0
 13 37  1  0  0  0  0
 17 38  1  0  0  0  0
 19 39  1  0  0  0  0
 21 40  1  0  0  0  0
 22 41  1  0  0  0  0
 23 42  1  0  0  0  0
 24 43  1  0  0  0  0
 24 44  1  0  0  0  0
 27 45  1  0  0  0  0
 30 46  1  0  0  0  0
 31 47  1  0  0  0  0
 32 48  1  0  0  0  0
M  END
>  <result-rank>
29

>  <similarity>
0.876

>  <query-name>


>  <query-smiles>
S1C(C(=O)NC2=Nc3c(N2CCC(=O)N)ccc(N(C(=O)c4ccccc4)C)c3)=CC=C1/C=C/c5ncc(N)cn5

>  <source>
REALspace_2019-12

>  <similarity-descriptor>
0.919;0.966;0.800;0.985;0.941;0.985;0.985;0.0;0.0;0.0;0.0;0.934;0.506;0.934;0.800;0.800;0.0;0.0

>  <similarity-descriptor-smiles>
C1=CC=CS1;c1cccc(c1)F;Clc1ccccc1;C1=CN=CNC1=O;c1ccccc1;C1=CN=CNC1=O;C1=CN=CNC1=O;;;;;C;O;C;Clc1ccccc1;Clc1ccccc1;;

>  <reaction-name>
s_708

>  <reagent1-name>
1107374

>  <reagent1-smiles>
[R1*]=NC1=C(SC(c2c(Cl)cccc2)=C1)C([R2*])=O

>  <reagent2-name>
4971534

>  <reagent2-smiles>
[R1*]=C(N[R2*])c1cc(ccc1)COc2cc(F)ccc2

$$$$
s_232682____3004976____14417988
          04022017343D 1   1.00000     0.00000     0
            
 52 56  0  0  0  0            999 V2000
   10.3541    1.8320   -1.0236 Cl  0  0  0  0  0  0  0  0  0  0  0  0
    8.8984    0.8245   -1.2069 C   0  0  0  0  0  0  0  0  0  0  0  0
    8.6044    0.1971   -2.3557 N   0  0  0  0  0  0  0  0  0  0  0  0
    7.5027   -0.5585   -2.4800 C   0  0  0  0  0  0  0  0  0  0  0  0
    6.6226   -0.7177   -1.4151 C   0  0  0  0  0  0  0  0  0  0  0  0
    6.8994   -0.0805   -0.2094 C   0  0  0  0  0  0  0  0  0  0  0  0
    6.0347   -0.2246    0.8731 C   0  0  0  0  0  0  0  0  0  0  0  0
    6.3218    0.5459    2.4077 S   0  0  0  0  0  0  0  0  0  0  0  0
    7.7396    0.6893    2.6151 O   0  0  0  0  0  0  0  0  0  0  0  0
    5.7616   -0.2598    3.4616 O   0  0  0  0  0  0  0  0  0  0  0  0
    5.6199    2.0170    2.4168 N   0  0  0  0  0  0  0  0  0  0  0  0
    4.2262    2.1265    2.4440 C   0  0  0  0  0  0  0  0  0  0  0  0
    3.3287    3.5724    2.4687 S   0  0  0  0  0  0  0  0  0  0  0  0
    1.7793    2.8660    2.4982 C   0  0  0  0  0  0  0  0  0  0  0  0
    2.0377    1.5325    2.4911 C   0  0  0  0  0  0  0  0  0  0  0  0
    3.3528    1.1511    2.4644 N   0  0  0  0  0  0  0  0  0  0  0  0
    0.9124    0.6182    2.5170 C   0  0  0  0  0  0  0  0  0  0  0  0
   -0.3789    1.1337    2.5429 C   0  0  0  0  0  0  0  0  0  0  0  0
   -1.4650    0.2647    2.5690 C   0  0  0  0  0  0  0  0  0  0  0  0
   -1.2459   -1.1089    2.5680 C   0  0  0  0  0  0  0  0  0  0  0  0
   -2.2936   -1.9599    2.5917 O   0  0  0  0  0  0  0  0  0  0  0  0
   -2.0694   -3.3621    2.5907 C   0  0  0  0  0  0  0  0  0  0  0  0
   -3.4045   -4.0888    2.6199 C   0  0  0  0  0  0  0  0  0  0  0  0
   -4.0343   -4.4212    1.4250 C   0  0  0  0  0  0  0  0  0  0  0  0
   -5.2562   -5.0853    1.4562 C   0  0  0  0  0  0  0  0  0  0  0  0
   -5.8387   -5.4133    2.6760 C   0  0  0  0  0  0  0  0  0  0  0  0
   -5.2002   -5.0766    3.8633 C   0  0  0  0  0  0  0  0  0  0  0  0
   -3.9783   -4.4119    3.8454 C   0  0  0  0  0  0  0  0  0  0  0  0
    0.0460   -1.6240    2.5423 C   0  0  0  0  0  0  0  0  0  0  0  0
    1.1321   -0.7554    2.5166 C   0  0  0  0  0  0  0  0  0  0  0  0
    4.8941   -1.0089    0.7404 C   0  0  0  0  0  0  0  0  0  0  0  0
    4.0674   -1.1467    1.7736 F   0  0  0  0  0  0  0  0  0  0  0  0
    4.6151   -1.6468   -0.4631 C   0  0  0  0  0  0  0  0  0  0  0  0
    5.4803   -1.5010   -1.5416 C   0  0  0  0  0  0  0  0  0  0  0  0
    8.0501    0.6960   -0.1141 C   0  0  0  0  0  0  0  0  0  0  0  0
    7.3119   -1.0132   -3.3500 H   0  0  0  0  0  0  0  0  0  0  0  0
    6.1860    2.8412    2.4030 H   0  0  0  0  0  0  0  0  0  0  0  0
    0.8906    3.3240    2.5164 H   0  0  0  0  0  0  0  0  0  0  0  0
   -0.5258    2.1229    2.5428 H   0  0  0  0  0  0  0  0  0  0  0  0
   -2.3975    0.6254    2.5883 H   0  0  0  0  0  0  0  0  0  0  0  0
   -1.5347   -3.6148    3.3970 H   0  0  0  0  0  0  0  0  0  0  0  0
   -1.5681   -3.6189    1.7644 H   0  0  0  0  0  0  0  0  0  0  0  0
   -3.6119   -4.1845    0.5500 H   0  0  0  0  0  0  0  0  0  0  0  0
   -5.7159   -5.3270    0.6016 H   0  0  0  0  0  0  0  0  0  0  0  0
   -6.7167   -5.8912    2.6985 H   0  0  0  0  0  0  0  0  0  0  0  0
   -5.6226   -5.3142    4.7380 H   0  0  0  0  0  0  0  0  0  0  0  0
   -3.5195   -4.1700    4.7003 H   0  0  0  0  0  0  0  0  0  0  0  0
    0.1931   -2.6131    2.5422 H   0  0  0  0  0  0  0  0  0  0  0  0
    2.0646   -1.1160    2.4981 H   0  0  0  0  0  0  0  0  0  0  0  0
    3.7933   -2.2096   -0.5529 H   0  0  0  0  0  0  0  0  0  0  0  0
    5.2814   -1.9592   -2.4080 H   0  0  0  0  0  0  0  0  0  0  0  0
    8.2672    1.1627    0.7433 H   0  0  0  0  0  0  0  0  0  0  0  0
  1  2  1  0  0  0  0
  2  3  1  0  0  0  0
  3  4  2  0  0  0  0
  4  5  1  0  0  0  0
  5  6  2  0  0  0  0
  6  7  1  0  0  0  0
  7  8  1  0  0  0  0
  8  9  2  0  0  0  0
  8 10  2  0  0  0  0
  8 11  1  0  0  0  0
 11 12  1  0  0  0  0
 12 13  1  0  0  0  0
 13 14  1  0  0  0  0
 14 15  2  0  0  0  0
 15 16  1  0  0  0  0
 12 16  2  0  0  0  0
 15 17  1  0  0  0  0
 17 18  1  0  0  0  0
 18 19  2  0  0  0  0
 19 20  1  0  0  0  0
 20 21  1  0  0  0  0
 21 22  1  0  0  0  0
 22 23  1  0  0  0  0
 23 24  1  0  0  0  0
 24 25  2  0  0  0  0
 25 26  1  0  0  0  0
 26 27  2  0  0  0  0
 27 28  1  0  0  0  0
 28 23  2  0  0  0  0
 20 29  2  0  0  0  0
 29 30  1  0  0  0  0
 30 17  2  0  0  0  0
  7 31  2  0  0  0  0
 31 32  1  0  0  0  0
 31 33  1  0  0  0  0
 33 34  2  0  0  0  0
 34  5  1  0  0  0  0
  6 35  1  0  0  0  0
 35  2  2  0  0  0  0
  4 36  1  0  0  0  0
 11 37  1  0  0  0  0
 14 38  1  0  0  0  0
 18 39  1  0  0  0  0
 19 40  1  0  0  0  0
 22 41  1  0  0  0  0
 22 42  1  0  0  0  0
 24 43  1  0  0  0  0
 25 44  1  0  0  0  0
 26 45  1  0  0  0  0
 27 46  1  0  0  0  0
 28 47  1  0  0  0  0
 29 48  1  0  0  0  0
 30 49  1  0  0  0  0
 33 50  1  0  0  0  0
 34 51  1  0  0  0  0
 35 52  1  0  0  0  0
M  END
>  <result-rank>
30

>  <similarity>
0.876

>  <query-name>


>  <query-smiles>
S1C(C(=O)NC2=Nc3c(N2CCC(=O)N)ccc(N(C(=O)c4ccccc4)C)c3)=CC=C1/C=C/c5ncc(N)cn5

>  <source>
REALspace_2019-12

>  <similarity-descriptor>
0.968;1.000;0.909;0.873;0.948;0.624;0.982;0.873;0.0;0.0;0.0;0.948;0.568;0.0;0.968;0.909;0.0;0.0

>  <similarity-descriptor-smiles>
c1ccc(cc1)F;c1ccccc1;Clc1ccccn1;C1=NC=CS1;c1ccccc1;S(=O)=O;N;C1=NC=CS1;;;;c1ccccc1;OC;;c1ccc(cc1)F;Clc1ccccn1;;

>  <reaction-name>
s_232682

>  <reagent1-name>
3004976

>  <reagent1-smiles>
[R1*]NC=1SC=C(N1)c2ccc(OCc3ccccc3)cc2

>  <reagent2-name>
14417988

>  <reagent2-smiles>
[R1*]S(=O)(=O)c1c(F)ccc2c1cc(Cl)nc2

$$$$
s_708____5532596____16887946
          04022017343D 1   1.00000     0.00000     0
            
 46 50  0  0  0  0            999 V2000
    4.3215    7.0050    2.5064 F   0  0  0  0  0  0  0  0  0  0  0  0
    4.3185    5.6753    2.4998 C   0  0  0  0  0  0  0  0  0  0  0  0
    5.5404    5.0157    2.4862 C   0  0  0  0  0  0  0  0  0  0  0  0
    6.7065    5.6918    2.4783 O   0  0  0  0  0  0  0  0  0  0  0  0
    7.8768    5.0190    2.4649 C   0  0  0  0  0  0  0  0  0  0  0  0
    8.4830    4.6718    3.6678 C   0  0  0  0  0  0  0  0  0  0  0  0
    9.6888    3.9776    3.6574 C   0  0  0  0  0  0  0  0  0  0  0  0
   10.2725    3.6396    2.4407 C   0  0  0  0  0  0  0  0  0  0  0  0
   11.4253    2.9760    2.4253 F   0  0  0  0  0  0  0  0  0  0  0  0
    9.6714    3.9837    1.2344 C   0  0  0  0  0  0  0  0  0  0  0  0
    8.4660    4.6780    1.2518 C   0  0  0  0  0  0  0  0  0  0  0  0
    5.5582    3.6276    2.4803 C   0  0  0  0  0  0  0  0  0  0  0  0
    4.3754    2.8953    2.4872 C   0  0  0  0  0  0  0  0  0  0  0  0
    3.1515    3.5537    2.4994 C   0  0  0  0  0  0  0  0  0  0  0  0
    1.9856    2.8332    2.5055 N   0  0  0  0  0  0  0  0  0  0  0  0
    1.9950    1.5120    2.4994 C   0  0  0  0  0  0  0  0  0  0  0  0
    3.1744    0.8148    2.4866 N   0  0  0  0  0  0  0  0  0  0  0  0
    4.3746    1.4730    2.4804 C   0  0  0  0  0  0  0  0  0  0  0  0
    5.4001    0.8098    2.4689 O   0  0  0  0  0  0  0  0  0  0  0  0
    0.7579    0.7547    2.5057 C   0  0  0  0  0  0  0  0  0  0  0  0
    0.7705   -0.5867    2.4992 N   0  0  0  0  0  0  0  0  0  0  0  0
   -0.3637   -1.3009    2.5059 C   0  0  0  0  0  0  0  0  0  0  0  0
   -1.5979   -0.6598    2.5192 C   0  0  0  0  0  0  0  0  0  0  0  0
   -2.8385   -1.4108    2.5241 C   0  0  0  0  0  0  0  0  0  0  0  0
   -4.0537   -0.7340    2.5375 C   0  0  0  0  0  0  0  0  0  0  0  0
   -5.2414   -1.4583    2.5430 C   0  0  0  0  0  0  0  0  0  0  0  0
   -5.2081   -2.8488    2.5339 C   0  0  0  0  0  0  0  0  0  0  0  0
   -3.9884   -3.5142    2.5200 C   0  0  0  0  0  0  0  0  0  0  0  0
   -2.7939   -2.8014    2.5150 C   0  0  0  0  0  0  0  0  0  0  0  0
   -1.5859    0.7310    2.5254 C   0  0  0  0  0  0  0  0  0  0  0  0
   -0.4209    1.3953    2.5194 N   0  0  0  0  0  0  0  0  0  0  0  0
    3.1343    4.9446    2.5055 C   0  0  0  0  0  0  0  0  0  0  0  0
    8.0539    4.9201    4.5363 H   0  0  0  0  0  0  0  0  0  0  0  0
   10.1320    3.7239    4.5171 H   0  0  0  0  0  0  0  0  0  0  0  0
   10.1002    3.7352    0.3658 H   0  0  0  0  0  0  0  0  0  0  0  0
    8.0230    4.9321    0.3921 H   0  0  0  0  0  0  0  0  0  0  0  0
    6.4348    3.1465    2.4709 H   0  0  0  0  0  0  0  0  0  0  0  0
    3.1582   -0.1850    2.4819 H   0  0  0  0  0  0  0  0  0  0  0  0
   -0.3223   -2.3000    2.5012 H   0  0  0  0  0  0  0  0  0  0  0  0
   -4.0734    0.2658    2.5431 H   0  0  0  0  0  0  0  0  0  0  0  0
   -6.1191   -0.9792    2.5536 H   0  0  0  0  0  0  0  0  0  0  0  0
   -6.0618   -3.3695    2.5372 H   0  0  0  0  0  0  0  0  0  0  0  0
   -3.9692   -4.5140    2.5136 H   0  0  0  0  0  0  0  0  0  0  0  0
   -1.9165   -3.2811    2.5050 H   0  0  0  0  0  0  0  0  0  0  0  0
   -2.4483    1.2370    2.5345 H   0  0  0  0  0  0  0  0  0  0  0  0
    2.2581    5.4265    2.5141 H   0  0  0  0  0  0  0  0  0  0  0  0
  1  2  1  0  0  0  0
  2  3  1  0  0  0  0
  3  4  1  0  0  0  0
  4  5  1  0  0  0  0
  5  6  1  0  0  0  0
  6  7  2  0  0  0  0
  7  8  1  0  0  0  0
  8  9  1  0  0  0  0
  8 10  2  0  0  0  0
 10 11  1  0  0  0  0
 11  5  2  0  0  0  0
  3 12  2  0  0  0  0
 12 13  1  0  0  0  0
 13 14  2  0  0  0  0
 14 15  1  0  0  0  0
 15 16  2  0  0  0  0
 16 17  1  0  0  0  0
 17 18  1  0  0  0  0
 18 13  1  0  0  0  0
 18 19  2  0  0  0  0
 16 20  1  0  0  0  0
 20 21  1  0  0  0  0
 21 22  2  0  0  0  0
 22 23  1  0  0  0  0
 23 24  1  0  0  0  0
 24 25  1  0  0  0  0
 25 26  2  0  0  0  0
 26 27  1  0  0  0  0
 27 28  2  0  0  0  0
 28 29  1  0  0  0  0
 29 24  2  0  0  0  0
 23 30  2  0  0  0  0
 30 31  1  0  0  0  0
 31 20  2  0  0  0  0
 14 32  1  0  0  0  0
 32  2  2  0  0  0  0
  6 33  1  0  0  0  0
  7 34  1  0  0  0  0
 10 35  1  0  0  0  0
 11 36  1  0  0  0  0
 12 37  1  0  0  0  0
 17 38  1  0  0  0  0
 22 39  1  0  0  0  0
 25 40  1  0  0  0  0
 26 41  1  0  0  0  0
 27 42  1  0  0  0  0
 28 43  1  0  0  0  0
 29 44  1  0  0  0  0
 30 45  1  0  0  0  0
 32 46  1  0  0  0  0
M  END
>  <result-rank>
31

>  <similarity>
0.875

>  <query-name>


>  <query-smiles>
S1C(C(=O)NC2=Nc3c(N2CCC(=O)N)ccc(N(C(=O)c4ccccc4)C)c3)=CC=C1/C=C/c5ncc(N)cn5

>  <source>
REALspace_2019-12

>  <similarity-descriptor>
0.944;1.000;0.787;0.987;0.832;0.987;0.987;0.0;0.0;0.0;0.0;0.832;0.832;0.0;0.787;0.787;0.0;0.0

>  <similarity-descriptor-smiles>
Fc1ccccc1O;c1ccccc1;c1ccc(cc1)F;c1C(NC=Nc1)=O;c1ncccn1;c1C(NC=Nc1)=O;c1C(NC=Nc1)=O;;;;;c1ncccn1;c1ncccn1;;c1ccc(cc1)F;c1ccc(cc1)F;;

>  <reaction-name>
s_708

>  <reagent1-name>
5532596

>  <reagent1-smiles>
[R1*]=Nc1c(cc(Oc2ccc(F)cc2)c(F)c1)C([R2*])=O

>  <reagent2-name>
16887946

>  <reagent2-smiles>
[R1*]=C(N[R2*])c1ncc(c2ccccc2)cn1

$$$$
s_270196____10638500____8776126
          04022017343D 1   1.00000     0.00000     0
            
 52 56  0  0  0  0            999 V2000
   -5.5773    6.2427    3.6403 Br  0  0  0  0  0  0  0  0  0  0  0  0
   -3.8493    5.3181    3.6177 C   0  0  0  0  0  0  0  0  0  0  0  0
   -3.3276    4.8026    4.8000 C   0  0  0  0  0  0  0  0  0  0  0  0
   -2.1005    4.1480    4.7803 C   0  0  0  0  0  0  0  0  0  0  0  0
   -1.4100    4.0164    3.5796 C   0  0  0  0  0  0  0  0  0  0  0  0
   -1.9355    4.5332    2.4005 C   0  0  0  0  0  0  0  0  0  0  0  0
   -3.1624    5.1894    2.4144 C   0  0  0  0  0  0  0  0  0  0  0  0
   -0.1311    3.3339    3.5633 C   0  0  0  0  0  0  0  0  0  0  0  0
    0.1629    2.5890    4.4570 O   0  0  0  0  0  0  0  0  0  0  0  0
    0.7417    3.5392    2.5275 N   0  0  0  0  0  0  0  0  0  0  0  0
    1.9769    2.8800    2.5117 C   0  0  0  0  0  0  0  0  0  0  0  0
    3.1722    3.5930    2.5023 C   0  0  0  0  0  0  0  0  0  0  0  0
    4.3872    2.9146    2.4871 C   0  0  0  0  0  0  0  0  0  0  0  0
    4.4074    1.5237    2.4807 C   0  0  0  0  0  0  0  0  0  0  0  0
    3.2062    0.8215    2.4897 C   0  0  0  0  0  0  0  0  0  0  0  0
    1.9856    1.4890    2.5053 C   0  0  0  0  0  0  0  0  0  0  0  0
    3.2280   -0.6287    2.4827 C   0  0  0  0  0  0  0  0  0  0  0  0
    4.3041   -1.3773    2.4683 O   0  0  0  0  0  0  0  0  0  0  0  0
    3.9699   -2.6000    2.4670 N   0  0  0  0  0  0  0  0  0  0  0  0
    2.6599   -2.6780    2.4792 C   0  0  0  0  0  0  0  0  0  0  0  0
    2.1766   -1.4082    2.4886 N   0  0  0  0  0  0  0  0  0  0  0  0
    1.8736   -3.8963    2.4796 C   0  0  0  0  0  0  0  0  0  0  0  0
    2.5132   -5.1220    2.6242 C   0  0  0  0  0  0  0  0  0  0  0  0
    1.7442   -6.2803    2.6233 C   0  0  0  0  0  0  0  0  0  0  0  0
    2.3723   -7.5235    2.7664 N   0  3  0  0  0  0  0  0  0  0  0  0
    3.1696   -7.7034    3.6722 O   0  5  0  0  0  0  0  0  0  0  0  0
    2.1245   -8.4194    1.9918 O   0  0  0  0  0  0  0  0  0  0  0  0
    0.3620   -6.2109    2.4812 C   0  0  0  0  0  0  0  0  0  0  0  0
   -0.3908   -7.3881    2.4834 N   0  0  0  0  0  0  0  0  0  0  0  0
   -0.4553   -8.2668    3.4620 N   0  0  0  0  0  0  0  0  0  0  0  0
   -1.2590   -9.2452    3.1123 C   0  0  0  0  0  0  0  0  0  0  0  0
   -1.7075   -8.9667    1.8519 N   0  0  0  0  0  0  0  0  0  0  0  0
   -1.1802   -7.8242    1.4577 C   0  0  0  0  0  0  0  0  0  0  0  0
   -0.2726   -4.9816    2.3366 C   0  0  0  0  0  0  0  0  0  0  0  0
    0.4921   -3.8196    2.3365 C   0  0  0  0  0  0  0  0  0  0  0  0
    3.1505    5.1125    2.5107 C   0  0  0  0  0  0  0  0  0  0  0  0
   -3.8315    4.9019    5.6581 H   0  0  0  0  0  0  0  0  0  0  0  0
   -1.7166    3.7740    5.6245 H   0  0  0  0  0  0  0  0  0  0  0  0
   -1.4316    4.4332    1.5426 H   0  0  0  0  0  0  0  0  0  0  0  0
   -3.5457    5.5640    1.5701 H   0  0  0  0  0  0  0  0  0  0  0  0
    0.4967    4.1599    1.7827 H   0  0  0  0  0  0  0  0  0  0  0  0
    5.2458    3.4271    2.4808 H   0  0  0  0  0  0  0  0  0  0  0  0
    5.2783    1.0324    2.4696 H   0  0  0  0  0  0  0  0  0  0  0  0
    1.1270    0.9763    2.5117 H   0  0  0  0  0  0  0  0  0  0  0  0
    3.5068   -5.1697    2.7268 H   0  0  0  0  0  0  0  0  0  0  0  0
   -1.4978  -10.0439    3.6646 H   0  0  0  0  0  0  0  0  0  0  0  0
   -1.3288   -7.3673    0.5807 H   0  0  0  0  0  0  0  0  0  0  0  0
   -1.2662   -4.9338    2.2339 H   0  0  0  0  0  0  0  0  0  0  0  0
    0.0486   -2.9292    2.2335 H   0  0  0  0  0  0  0  0  0  0  0  0
    4.0884    5.4593    2.5022 H   0  0  0  0  0  0  0  0  0  0  0  0
    2.6653    5.4434    1.7013 H   0  0  0  0  0  0  0  0  0  0  0  0
    2.6834    5.4346    3.3342 H   0  0  0  0  0  0  0  0  0  0  0  0
  1  2  1  0  0  0  0
  2  3  1  0  0  0  0
  3  4  2  0  0  0  0
  4  5  1  0  0  0  0
  5  6  2  0  0  0  0
  6  7  1  0  0  0  0
  7  2  2  0  0  0  0
  5  8  1  0  0  0  0
  8  9  2  0  0  0  0
  8 10  1  0  0  0  0
 10 11  1  0  0  0  0
 11 12  1  0  0  0  0
 12 13  2  0  0  0  0
 13 14  1  0  0  0  0
 14 15  2  0  0  0  0
 15 16  1  0  0  0  0
 16 11  2  0  0  0  0
 15 17  1  0  0  0  0
 17 18  1  0  0  0  0
 18 19  1  0  0  0  0
 19 20  2  0  0  0  0
 20 21  1  0  0  0  0
 17 21  2  0  0  0  0
 20 22  1  0  0  0  0
 22 23  1  0  0  0  0
 23 24  2  0  0  0  0
 24 25  1  0  0  0  0
 25 26  1  0  0  0  0
 25 27  2  0  0  0  0
 24 28  1  0  0  0  0
 28 29  1  0  0  0  0
 29 30  1  0  0  0  0
 30 31  2  0  0  0  0
 31 32  1  0  0  0  0
 32 33  2  0  0  0  0
 33 29  1  0  0  0  0
 28 34  2  0  0  0  0
 34 35  1  0  0  0  0
 35 22  2  0  0  0  0
 12 36  1  0  0  0  0
  3 37  1  0  0  0  0
  4 38  1  0  0  0  0
  6 39  1  0  0  0  0
  7 40  1  0  0  0  0
 10 41  1  0  0  0  0
 13 42  1  0  0  0  0
 14 43  1  0  0  0  0
 16 44  1  0  0  0  0
 23 45  1  0  0  0  0
 31 46  1  0  0  0  0
 33 47  1  0  0  0  0
 34 48  1  0  0  0  0
 35 49  1  0  0  0  0
 36 50  1  0  0  0  0
 36 51  1  0  0  0  0
 36 52  1  0  0  0  0
M  CHG  2  25   1  26  -1
M  END
>  <result-rank>
32

>  <similarity>
0.875

>  <query-name>


>  <query-smiles>
S1C(C(=O)NC2=Nc3c(N2CCC(=O)N)ccc(N(C(=O)c4ccccc4)C)c3)=CC=C1/C=C/c5ncc(N)cn5

>  <source>
REALspace_2019-12

>  <similarity-descriptor>
0.951;0.946;0.865;0.801;0.993;0.801;0.801;0.0;0.0;0.0;0.0;0.993;0.852;0.995;0.951;0.865;0.0;0.111

>  <similarity-descriptor-smiles>
c1ccccc1;Brc1ccccc1;N1C=NC=N1;C1=NC=NO1;c1ccccc1;C1=NC=NO1;C1=NC=NO1;;;;;c1ccccc1;C(=O)N;C;c1ccccc1;N1C=NC=N1;;[N+]([O-])=O

>  <reaction-name>
s_270196

>  <reagent1-name>
10638500

>  <reagent1-smiles>
[R1*]=NC(=NO[R2*])c1cc([N+]([O-])=O)c(N2N=CN=C2)cc1

>  <reagent2-name>
8776126

>  <reagent2-smiles>
[R1*]C([R2*])c1cc(NC(=O)c2ccc(Br)cc2)c(cc1)C

$$$$
s_1____86438____16529706____4065724
          04022017343D 1   1.00000     0.00000     0
            
 65 69  0  0  0  0            999 V2000
    3.2928   -0.3460    0.7918 S   0  0  0  0  0  0  0  0  0  0  0  0
    2.2690    1.0000    1.0000 C   0  0  0  0  0  0  0  0  0  0  0  0
    1.0000    1.0000    1.0000 N   0  0  0  0  0  0  0  0  0  0  0  0
    0.2650    2.2581    1.1946 C   0  0  0  0  0  0  0  0  0  0  0  0
   -1.0631    2.1880    0.4587 C   0  0  0  0  0  0  0  0  0  0  0  0
   -0.8265    1.9876   -0.9270 O   0  0  0  0  0  0  0  0  0  0  0  0
   -0.7144    3.2462   -1.5749 C   0  0  0  0  0  0  0  0  0  0  0  0
    3.0944    2.0680    1.1686 N   0  0  0  0  0  0  0  0  0  0  0  0
    2.5988    3.3085    1.3590 N   0  0  0  0  0  0  0  0  0  0  0  0
    2.8761    4.2229    0.5531 C   0  0  0  0  0  0  0  0  0  0  0  0
    2.3434    5.5563    0.7578 C   0  0  0  0  0  0  0  0  0  0  0  0
    2.6617    6.5624   -0.1483 C   0  0  0  0  0  0  0  0  0  0  0  0
    2.1466    7.8386    0.0548 C   0  0  0  0  0  0  0  0  0  0  0  0
    2.4721    8.8965   -0.8809 C   0  0  0  0  0  0  0  0  0  0  0  0
    2.5380   10.2189   -0.4537 C   0  0  0  0  0  0  0  0  0  0  0  0
    2.8405   11.1808   -1.3382 N   0  0  0  0  0  0  0  0  0  0  0  0
    3.0810   10.8958   -2.6264 C   0  0  0  0  0  0  0  0  0  0  0  0
    3.0211    9.6261   -3.0548 N   0  0  0  0  0  0  0  0  0  0  0  0
    2.7239    8.6190   -2.2201 C   0  0  0  0  0  0  0  0  0  0  0  0
    1.3254    8.1166    1.1423 C   0  0  0  0  0  0  0  0  0  0  0  0
    1.0206    7.0944    2.0346 C   0  0  0  0  0  0  0  0  0  0  0  0
    1.5236    5.8105    1.8524 C   0  0  0  0  0  0  0  0  0  0  0  0
    4.4314    1.7629    1.1289 C   0  0  0  0  0  0  0  0  0  0  0  0
    5.4991    2.7319    1.2834 C   0  0  0  0  0  0  0  0  0  0  0  0
    6.5309    2.7573    0.3515 C   0  0  0  0  0  0  0  0  0  0  0  0
    7.5605    3.6824    0.4916 C   0  0  0  0  0  0  0  0  0  0  0  0
    7.5447    4.5710    1.5617 C   0  0  0  0  0  0  0  0  0  0  0  0
    8.5385    5.4732    1.7052 O   0  0  0  0  0  0  0  0  0  0  0  0
    8.5222    6.3802    2.7977 C   0  0  0  0  0  0  0  0  0  0  0  0
    9.7446    7.2814    2.7264 C   0  0  0  0  0  0  0  0  0  0  0  0
    9.6757    8.4819    2.0272 C   0  0  0  0  0  0  0  0  0  0  0  0
   10.7968    9.3031    1.9638 C   0  0  0  0  0  0  0  0  0  0  0  0
   11.9748    8.9222    2.5978 C   0  0  0  0  0  0  0  0  0  0  0  0
   12.0318    7.7210    3.2938 C   0  0  0  0  0  0  0  0  0  0  0  0
   10.9179    6.8908    3.3640 C   0  0  0  0  0  0  0  0  0  0  0  0
    6.5124    4.5449    2.4938 C   0  0  0  0  0  0  0  0  0  0  0  0
    5.4831    3.6198    2.3541 C   0  0  0  0  0  0  0  0  0  0  0  0
    4.7831    0.4641    0.9311 C   0  0  0  0  0  0  0  0  0  0  0  0
    0.8054    3.0189    0.8353 H   0  0  0  0  0  0  0  0  0  0  0  0
    0.0983    2.3992    2.1705 H   0  0  0  0  0  0  0  0  0  0  0  0
   -1.6036    1.4272    0.8181 H   0  0  0  0  0  0  0  0  0  0  0  0
   -1.5631    3.0439    0.5912 H   0  0  0  0  0  0  0  0  0  0  0  0
   -0.5478    3.1051   -2.5508 H   0  0  0  0  0  0  0  0  0  0  0  0
   -1.5631    3.7608   -1.4527 H   0  0  0  0  0  0  0  0  0  0  0  0
    0.0465    3.7591   -1.1775 H   0  0  0  0  0  0  0  0  0  0  0  0
    3.4653    4.0350   -0.2328 H   0  0  0  0  0  0  0  0  0  0  0  0
    3.2512    6.3714   -0.9331 H   0  0  0  0  0  0  0  0  0  0  0  0
    2.3616   10.4499    0.5031 H   0  0  0  0  0  0  0  0  0  0  0  0
    3.3051   11.6298   -3.2675 H   0  0  0  0  0  0  0  0  0  0  0  0
    2.6837    7.6784   -2.5573 H   0  0  0  0  0  0  0  0  0  0  0  0
    0.9599    9.0371    1.2804 H   0  0  0  0  0  0  0  0  0  0  0  0
    0.4308    7.2853    2.8193 H   0  0  0  0  0  0  0  0  0  0  0  0
    1.2993    5.0812    2.4987 H   0  0  0  0  0  0  0  0  0  0  0  0
    6.5328    2.1147   -0.4147 H   0  0  0  0  0  0  0  0  0  0  0  0
    8.3073    3.7085   -0.1729 H   0  0  0  0  0  0  0  0  0  0  0  0
    8.5354    5.8679    3.6564 H   0  0  0  0  0  0  0  0  0  0  0  0
    7.6936    6.9384    2.7552 H   0  0  0  0  0  0  0  0  0  0  0  0
    8.8267    8.7526    1.5735 H   0  0  0  0  0  0  0  0  0  0  0  0
   10.7558   10.1673    1.4623 H   0  0  0  0  0  0  0  0  0  0  0  0
   12.7805    9.5128    2.5527 H   0  0  0  0  0  0  0  0  0  0  0  0
   12.8808    7.4510    3.7480 H   0  0  0  0  0  0  0  0  0  0  0  0
   10.9598    6.0264    3.8652 H   0  0  0  0  0  0  0  0  0  0  0  0
    6.5103    5.1876    3.2599 H   0  0  0  0  0  0  0  0  0  0  0  0
    4.7366    3.5932    3.0190 H   0  0  0  0  0  0  0  0  0  0  0  0
    5.7031    0.0755    0.8796 H   0  0  0  0  0  0  0  0  0  0  0  0
  1  2  1  0  0  0  0
  2  3  2  0  0  0  0
  3  4  1  0  0  0  0
  4  5  1  0  0  0  0
  5  6  1  0  0  0  0
  6  7  1  0  0  0  0
  2  8  1  0  0  0  0
  8  9  1  0  0  0  0
  9 10  2  0  0  0  0
 10 11  1  0  0  0  0
 11 12  1  0  0  0  0
 12 13  2  0  0  0  0
 13 14  1  0  0  0  0
 14 15  1  0  0  0  0
 15 16  2  0  0  0  0
 16 17  1  0  0  0  0
 17 18  2  0  0  0  0
 18 19  1  0  0  0  0
 19 14  2  0  0  0  0
 13 20  1  0  0  0  0
 20 21  2  0  0  0  0
 21 22  1  0  0  0  0
 22 11  2  0  0  0  0
  8 23  1  0  0  0  0
 23 24  1  0  0  0  0
 24 25  1  0  0  0  0
 25 26  2  0  0  0  0
 26 27  1  0  0  0  0
 27 28  1  0  0  0  0
 28 29  1  0  0  0  0
 29 30  1  0  0  0  0
 30 31  1  0  0  0  0
 31 32  2  0  0  0  0
 32 33  1  0  0  0  0
 33 34  2  0  0  0  0
 34 35  1  0  0  0  0
 35 30  2  0  0  0  0
 27 36  2  0  0  0  0
 36 37  1  0  0  0  0
 37 24  2  0  0  0  0
 23 38  2  0  0  0  0
 38  1  1  0  0  0  0
  4 39  1  0  0  0  0
  4 40  1  0  0  0  0
  5 41  1  0  0  0  0
  5 42  1  0  0  0  0
  7 43  1  0  0  0  0
  7 44  1  0  0  0  0
  7 45  1  0  0  0  0
 10 46  1  0  0  0  0
 12 47  1  0  0  0  0
 15 48  1  0  0  0  0
 17 49  1  0  0  0  0
 19 50  1  0  0  0  0
 20 51  1  0  0  0  0
 21 52  1  0  0  0  0
 22 53  1  0  0  0  0
 25 54  1  0  0  0  0
 26 55  1  0  0  0  0
 29 56  1  0  0  0  0
 29 57  1  0  0  0  0
 31 58  1  0  0  0  0
 32 59  1  0  0  0  0
 33 60  1  0  0  0  0
 34 61  1  0  0  0  0
 35 62  1  0  0  0  0
 36 63  1  0  0  0  0
 37 64  1  0  0  0  0
 38 65  1  0  0  0  0
M  END
>  <result-rank>
33

>  <similarity>
0.875

>  <query-name>


>  <query-smiles>
S1C(C(=O)NC2=Nc3c(N2CCC(=O)N)ccc(N(C(=O)c4ccccc4)C)c3)=CC=C1/C=C/c5ncc(N)cn5

>  <source>
REALspace_2019-12

>  <similarity-descriptor>
0.932;1.000;0.936;0.818;0.948;0.637;0.637;0.996;0.996;0.733;0.0;0.948;0.568;0.0;0.932;0.936;0.0;0.0

>  <similarity-descriptor-smiles>
c1ccccc1;c1ccccc1;c1cncnc1;S1C=CNC1=N;c1ccccc1;N=C;N=C;CC;CC;OC;;c1ccccc1;OC;;c1ccccc1;c1cncnc1;;

>  <reaction-name>
s_1

>  <reagent1-name>
86438

>  <reagent1-smiles>
[R3*]=NN([R2*])C(S[R1*])=NCCOC

>  <reagent2-name>
16529706

>  <reagent2-smiles>
[R3*]=Cc1cc(c2cncnc2)ccc1

>  <reagent3-name>
4065724

>  <reagent3-smiles>
[R2*]C(c1ccc(OCc2ccccc2)cc1)=C[R1*]

$$$$
s_270196____8769662____10858100
          04022017343D 1   1.00000     0.00000     0
            
 52 56  0  0  0  0            999 V2000
    9.3758   -4.8342   -4.3780 F   0  0  0  0  0  0  0  0  0  0  0  0
    9.2717   -3.6983   -3.6926 C   0  0  0  0  0  0  0  0  0  0  0  0
   10.3613   -2.8376   -3.6025 C   0  0  0  0  0  0  0  0  0  0  0  0
   11.6183   -3.1589   -4.2517 C   0  0  0  0  0  0  0  0  0  0  0  0
   12.8050   -3.0881   -3.5312 C   0  0  0  0  0  0  0  0  0  0  0  0
   13.9954   -3.4019   -4.1782 C   0  0  0  0  0  0  0  0  0  0  0  0
   13.9986   -3.7657   -5.4695 N   0  0  0  0  0  0  0  0  0  0  0  0
   12.8635   -3.8396   -6.1801 C   0  0  0  0  0  0  0  0  0  0  0  0
   11.6408   -3.5376   -5.5893 C   0  0  0  0  0  0  0  0  0  0  0  0
   10.2530   -1.6504   -2.8857 C   0  0  0  0  0  0  0  0  0  0  0  0
    9.0555   -1.3234   -2.2581 C   0  0  0  0  0  0  0  0  0  0  0  0
    7.9707   -2.1890   -2.3530 C   0  0  0  0  0  0  0  0  0  0  0  0
    8.0705   -3.3779   -3.0677 C   0  0  0  0  0  0  0  0  0  0  0  0
    6.7179   -1.8565   -1.7015 C   0  0  0  0  0  0  0  0  0  0  0  0
    5.6300   -2.5877   -1.7174 O   0  0  0  0  0  0  0  0  0  0  0  0
    4.7205   -2.0089   -1.0509 N   0  0  0  0  0  0  0  0  0  0  0  0
    5.1963   -0.8788   -0.5829 C   0  0  0  0  0  0  0  0  0  0  0  0
    6.4850   -0.7757   -1.0010 N   0  0  0  0  0  0  0  0  0  0  0  0
    4.4770    0.0837    0.2287 C   0  0  0  0  0  0  0  0  0  0  0  0
    3.0860    0.0738    0.2211 C   0  0  0  0  0  0  0  0  0  0  0  0
    2.4004    1.0000    1.0000 C   0  0  0  0  0  0  0  0  0  0  0  0
    1.0000    1.0000    1.0000 N   0  0  0  0  0  0  0  0  0  0  0  0
    0.3150   -0.1865    0.9987 C   0  0  0  0  0  0  0  0  0  0  0  0
    0.8607   -1.1947    1.3531 O   0  0  0  0  0  0  0  0  0  0  0  0
   -0.9930   -0.2218    0.5929 N   0  0  0  0  0  0  0  0  0  0  0  0
   -1.5684   -1.4329    0.1894 C   0  0  0  0  0  0  0  0  0  0  0  0
   -0.8269   -2.3257   -0.5778 C   0  0  0  0  0  0  0  0  0  0  0  0
   -1.4018   -3.5279   -0.9766 C   0  0  0  0  0  0  0  0  0  0  0  0
   -2.7085   -3.8297   -0.6083 C   0  0  0  0  0  0  0  0  0  0  0  0
   -3.4402   -2.9298    0.1593 C   0  0  0  0  0  0  0  0  0  0  0  0
   -2.8759   -1.7246    0.5638 C   0  0  0  0  0  0  0  0  0  0  0  0
    3.0836    1.9273    1.7795 C   0  0  0  0  0  0  0  0  0  0  0  0
    4.4744    1.9187    1.7721 C   0  0  0  0  0  0  0  0  0  0  0  0
    5.1807    1.0015    1.0010 C   0  0  0  0  0  0  0  0  0  0  0  0
   12.8028   -2.8173   -2.5685 H   0  0  0  0  0  0  0  0  0  0  0  0
   14.8585   -3.3560   -3.6753 H   0  0  0  0  0  0  0  0  0  0  0  0
   12.8964   -4.1136   -7.1413 H   0  0  0  0  0  0  0  0  0  0  0  0
   10.7932   -3.5920   -6.1172 H   0  0  0  0  0  0  0  0  0  0  0  0
   11.0362   -1.0319   -2.8217 H   0  0  0  0  0  0  0  0  0  0  0  0
    8.9749   -0.4709   -1.7416 H   0  0  0  0  0  0  0  0  0  0  0  0
    7.2871   -3.9961   -3.1317 H   0  0  0  0  0  0  0  0  0  0  0  0
    2.5864   -0.5895   -0.3360 H   0  0  0  0  0  0  0  0  0  0  0  0
    0.5000    1.8660    1.0009 H   0  0  0  0  0  0  0  0  0  0  0  0
   -1.5369    0.6173    0.5849 H   0  0  0  0  0  0  0  0  0  0  0  0
    0.1123   -2.1048   -0.8406 H   0  0  0  0  0  0  0  0  0  0  0  0
   -0.8756   -4.1751   -1.5281 H   0  0  0  0  0  0  0  0  0  0  0  0
   -3.1220   -4.6937   -0.8955 H   0  0  0  0  0  0  0  0  0  0  0  0
   -4.3793   -3.1510    0.4225 H   0  0  0  0  0  0  0  0  0  0  0  0
   -3.4022   -1.0776    1.1155 H   0  0  0  0  0  0  0  0  0  0  0  0
    2.5828    2.5898    2.3366 H   0  0  0  0  0  0  0  0  0  0  0  0
    4.9741    2.5818    2.3295 H   0  0  0  0  0  0  0  0  0  0  0  0
    6.1807    1.0021    1.0019 H   0  0  0  0  0  0  0  0  0  0  0  0
  1  2  1  0  0  0  0
  2  3  1  0  0  0  0
  3  4  1  0  0  0  0
  4  5  1  0  0  0  0
  5  6  2  0  0  0  0
  6  7  1  0  0  0  0
  7  8  2  0  0  0  0
  8  9  1  0  0  0  0
  9  4  2  0  0  0  0
  3 10  2  0  0  0  0
 10 11  1  0  0  0  0
 11 12  2  0  0  0  0
 12 13  1  0  0  0  0
 13  2  2  0  0  0  0
 12 14  1  0  0  0  0
 14 15  1  0  0  0  0
 15 16  1  0  0  0  0
 16 17  2  0  0  0  0
 17 18  1  0  0  0  0
 14 18  2  0  0  0  0
 17 19  1  0  0  0  0
 19 20  1  0  0  0  0
 20 21  2  0  0  0  0
 21 22  1  0  0  0  0
 22 23  1  0  0  0  0
 23 24  2  0  0  0  0
 23 25  1  0  0  0  0
 25 26  1  0  0  0  0
 26 27  1  0  0  0  0
 27 28  2  0  0  0  0
 28 29  1  0  0  0  0
 29 30  2  0  0  0  0
 30 31  1  0  0  0  0
 31 26  2  0  0  0  0
 21 32  1  0  0  0  0
 32 33  2  0  0  0  0
 33 34  1  0  0  0  0
 34 19  2  0  0  0  0
  5 35  1  0  0  0  0
  6 36  1  0  0  0  0
  8 37  1  0  0  0  0
  9 38  1  0  0  0  0
 10 39  1  0  0  0  0
 11 40  1  0  0  0  0
 13 41  1  0  0  0  0
 20 42  1  0  0  0  0
 22 43  1  0  0  0  0
 25 44  1  0  0  0  0
 27 45  1  0  0  0  0
 28 46  1  0  0  0  0
 29 47  1  0  0  0  0
 30 48  1  0  0  0  0
 31 49  1  0  0  0  0
 32 50  1  0  0  0  0
 33 51  1  0  0  0  0
 34 52  1  0  0  0  0
M  END
>  <result-rank>
34

>  <similarity>
0.875

>  <query-name>


>  <query-smiles>
S1C(C(=O)NC2=Nc3c(N2CCC(=O)N)ccc(N(C(=O)c4ccccc4)C)c3)=CC=C1/C=C/c5ncc(N)cn5

>  <source>
REALspace_2019-12

>  <similarity-descriptor>
0.966;0.998;0.874;0.801;0.948;0.801;0.801;0.0;0.0;0.0;0.0;0.948;0.740;0.0;0.966;0.874;0.0;0.0

>  <similarity-descriptor-smiles>
Fc1ccccc1;c1ccccc1;c1ccncc1;C1=NC=NO1;c1ccccc1;C1=NC=NO1;C1=NC=NO1;;;;;c1ccccc1;NC(=O)N;;Fc1ccccc1;c1ccncc1;;

>  <reaction-name>
s_270196

>  <reagent1-name>
8769662

>  <reagent1-smiles>
[R1*]=NC(=NO[R2*])c1cc(NC(=O)Nc2ccccc2)ccc1

>  <reagent2-name>
10858100

>  <reagent2-smiles>
[R1*]C([R2*])c1cc(F)c(c2ccncc2)cc1

$$$$
s_270196____8769514____8776130
          04022017343D 1   1.00000     0.00000     0
            
 53 57  0  0  0  0            999 V2000
   -2.0474   -4.8481    2.5169 Cl  0  0  0  0  0  0  0  0  0  0  0  0
   -0.2733   -4.9953    2.5062 C   0  0  0  0  0  0  0  0  0  0  0  0
    0.3681   -6.2310    2.5113 C   0  0  0  0  0  0  0  0  0  0  0  0
   -0.4041   -7.3433    2.5220 O   0  0  0  0  0  0  0  0  0  0  0  0
   -0.0307   -8.5391    1.8501 C   0  0  0  0  0  0  0  0  0  0  0  0
    0.9346   -9.3564    2.6959 C   0  0  0  0  0  0  0  0  0  0  0  0
    1.9704   -8.4793    3.3833 C   0  0  0  0  0  0  0  0  0  0  0  0
    2.4546   -7.4435    2.5372 O   0  0  0  0  0  0  0  0  0  0  0  0
    1.7622   -6.2861    2.5047 C   0  0  0  0  0  0  0  0  0  0  0  0
    2.5230   -5.1248    2.4744 C   0  0  0  0  0  0  0  0  0  0  0  0
    1.8735   -3.8964    2.4796 C   0  0  0  0  0  0  0  0  0  0  0  0
    0.4841   -3.8284    2.4935 C   0  0  0  0  0  0  0  0  0  0  0  0
    2.6599   -2.6781    2.4792 C   0  0  0  0  0  0  0  0  0  0  0  0
    3.9699   -2.6000    2.4670 N   0  0  0  0  0  0  0  0  0  0  0  0
    4.3041   -1.3773    2.4683 O   0  0  0  0  0  0  0  0  0  0  0  0
    3.2280   -0.6288    2.4827 C   0  0  0  0  0  0  0  0  0  0  0  0
    2.1766   -1.4082    2.4886 N   0  0  0  0  0  0  0  0  0  0  0  0
    3.2062    0.8215    2.4897 C   0  0  0  0  0  0  0  0  0  0  0  0
    1.9856    1.4890    2.5053 C   0  0  0  0  0  0  0  0  0  0  0  0
    1.9769    2.8800    2.5117 C   0  0  0  0  0  0  0  0  0  0  0  0
    0.7417    3.5392    2.5275 N   0  0  0  0  0  0  0  0  0  0  0  0
   -0.2488    3.1179    3.3750 C   0  0  0  0  0  0  0  0  0  0  0  0
    0.0255    2.4498    4.3333 O   0  0  0  0  0  0  0  0  0  0  0  0
   -1.6288    3.4794    3.1140 C   0  0  0  0  0  0  0  0  0  0  0  0
   -2.6559    2.7416    3.6935 C   0  0  0  0  0  0  0  0  0  0  0  0
   -3.9782    3.0913    3.4398 C   0  0  0  0  0  0  0  0  0  0  0  0
   -4.2654    4.1725    2.6131 C   0  0  0  0  0  0  0  0  0  0  0  0
   -3.2314    4.9025    2.0402 C   0  0  0  0  0  0  0  0  0  0  0  0
   -1.9050    4.5625    2.2856 C   0  0  0  0  0  0  0  0  0  0  0  0
    3.1722    3.5930    2.5023 C   0  0  0  0  0  0  0  0  0  0  0  0
    4.3872    2.9146    2.4871 C   0  0  0  0  0  0  0  0  0  0  0  0
    4.4074    1.5237    2.4807 C   0  0  0  0  0  0  0  0  0  0  0  0
    3.1505    5.1125    2.5107 C   0  0  0  0  0  0  0  0  0  0  0  0
    0.4106   -8.3042    0.9840 H   0  0  0  0  0  0  0  0  0  0  0  0
   -0.8501   -9.0833    1.6699 H   0  0  0  0  0  0  0  0  0  0  0  0
    1.4063  -10.0115    2.1057 H   0  0  0  0  0  0  0  0  0  0  0  0
    0.4150   -9.8499    3.3933 H   0  0  0  0  0  0  0  0  0  0  0  0
    1.5534   -8.0643    4.1920 H   0  0  0  0  0  0  0  0  0  0  0  0
    2.7411   -9.0520    3.6625 H   0  0  0  0  0  0  0  0  0  0  0  0
    3.5215   -5.1718    2.4494 H   0  0  0  0  0  0  0  0  0  0  0  0
    0.0285   -2.9382    2.4943 H   0  0  0  0  0  0  0  0  0  0  0  0
    1.1270    0.9763    2.5117 H   0  0  0  0  0  0  0  0  0  0  0  0
    0.5826    4.3175    1.9201 H   0  0  0  0  0  0  0  0  0  0  0  0
   -2.4453    1.9656    4.2879 H   0  0  0  0  0  0  0  0  0  0  0  0
   -4.7223    2.5654    3.8517 H   0  0  0  0  0  0  0  0  0  0  0  0
   -5.2159    4.4243    2.4312 H   0  0  0  0  0  0  0  0  0  0  0  0
   -3.4424    5.6790    1.4464 H   0  0  0  0  0  0  0  0  0  0  0  0
   -1.1614    5.0886    1.8729 H   0  0  0  0  0  0  0  0  0  0  0  0
    5.2458    3.4271    2.4808 H   0  0  0  0  0  0  0  0  0  0  0  0
    5.2783    1.0324    2.4696 H   0  0  0  0  0  0  0  0  0  0  0  0
    4.0884    5.4593    2.5022 H   0  0  0  0  0  0  0  0  0  0  0  0
    2.6653    5.4434    1.7013 H   0  0  0  0  0  0  0  0  0  0  0  0
    2.6834    5.4346    3.3342 H   0  0  0  0  0  0  0  0  0  0  0  0
  1  2  1  0  0  0  0
  2  3  1  0  0  0  0
  3  4  1  0  0  0  0
  4  5  1  0  0  0  0
  5  6  1  0  0  0  0
  6  7  1  0  0  0  0
  7  8  1  0  0  0  0
  8  9  1  0  0  0  0
  9  3  2  0  0  0  0
  9 10  1  0  0  0  0
 10 11  2  0  0  0  0
 11 12  1  0  0  0  0
 12  2  2  0  0  0  0
 11 13  1  0  0  0  0
 13 14  2  0  0  0  0
 14 15  1  0  0  0  0
 15 16  1  0  0  0  0
 16 17  2  0  0  0  0
 17 13  1  0  0  0  0
 16 18  1  0  0  0  0
 18 19  1  0  0  0  0
 19 20  2  0  0  0  0
 20 21  1  0  0  0  0
 21 22  1  0  0  0  0
 22 23  2  0  0  0  0
 22 24  1  0  0  0  0
 24 25  1  0  0  0  0
 25 26  2  0  0  0  0
 26 27  1  0  0  0  0
 27 28  2  0  0  0  0
 28 29  1  0  0  0  0
 29 24  2  0  0  0  0
 20 30  1  0  0  0  0
 30 31  2  0  0  0  0
 31 32  1  0  0  0  0
 32 18  2  0  0  0  0
 30 33  1  0  0  0  0
  5 34  1  0  0  0  0
  5 35  1  0  0  0  0
  6 36  1  0  0  0  0
  6 37  1  0  0  0  0
  7 38  1  0  0  0  0
  7 39  1  0  0  0  0
 10 40  1  0  0  0  0
 12 41  1  0  0  0  0
 19 42  1  0  0  0  0
 21 43  1  0  0  0  0
 25 44  1  0  0  0  0
 26 45  1  0  0  0  0
 27 46  1  0  0  0  0
 28 47  1  0  0  0  0
 29 48  1  0  0  0  0
 31 49  1  0  0  0  0
 32 50  1  0  0  0  0
 33 51  1  0  0  0  0
 33 52  1  0  0  0  0
 33 53  1  0  0  0  0
M  END
>  <result-rank>
35

>  <similarity>
0.875

>  <query-name>


>  <query-smiles>
S1C(C(=O)NC2=Nc3c(N2CCC(=O)N)ccc(N(C(=O)c4ccccc4)C)c3)=CC=C1/C=C/c5ncc(N)cn5

>  <source>
REALspace_2019-12

>  <similarity-descriptor>
0.991;1.000;0.722;0.801;0.993;0.801;0.801;0.0;0.0;0.0;0.0;0.993;0.852;0.995;0.991;0.722;0.0;0.0

>  <similarity-descriptor-smiles>
Clc1ccccc1;c1ccccc1;c1cOCCCO1;C=1N=CON1;c1ccccc1;C=1N=CON1;C=1N=CON1;;;;;c1ccccc1;NC=O;C;Clc1ccccc1;c1cOCCCO1;;

>  <reaction-name>
s_270196

>  <reagent1-name>
8769514

>  <reagent1-smiles>
[R1*]=NC(=NO[R2*])c1cc(Cl)c2OCCCOc2c1

>  <reagent2-name>
8776130

>  <reagent2-smiles>
[R1*]C([R2*])c1cc(NC(=O)c2ccccc2)c(cc1)C

$$$$
m_276010a____17281768____17259588____17280774
          04022017343D 1   1.00000     0.00000     0
            
 50 55  0  0  0  0            999 V2000
   -2.2793    6.5478   -1.3736 Br  0  0  0  0  0  0  0  0  0  0  0  0
   -2.3220    5.9213    0.4833 C   0  0  0  0  0  0  0  0  0  0  0  0
   -3.5036    5.9270    1.2204 C   0  0  0  0  0  0  0  0  0  0  0  0
   -4.6634    6.3585    0.6994 N   0  0  0  0  0  0  0  0  0  0  0  0
   -5.8041    6.3666    1.4055 C   0  0  0  0  0  0  0  0  0  0  0  0
   -5.7854    5.9123    2.7205 C   0  0  0  0  0  0  0  0  0  0  0  0
   -4.6272    5.4806    3.2406 N   0  0  0  0  0  0  0  0  0  0  0  0
   -3.4845    5.4719    2.5363 C   0  0  0  0  0  0  0  0  0  0  0  0
   -2.2938    5.0190    3.0965 C   0  0  0  0  0  0  0  0  0  0  0  0
   -1.1174    5.0153    2.3547 C   0  0  0  0  0  0  0  0  0  0  0  0
   -1.1297    5.4689    1.0393 C   0  0  0  0  0  0  0  0  0  0  0  0
    0.1173    4.5411    2.9461 C   0  0  0  0  0  0  0  0  0  0  0  0
    0.7034    5.2240    3.7399 O   0  0  0  0  0  0  0  0  0  0  0  0
    0.6272    3.2845    2.5910 N   0  0  0  0  0  0  0  0  0  0  0  0
    1.9715    2.9006    2.5596 C   0  0  0  0  0  0  0  0  0  0  0  0
    3.1777    3.5871    2.4587 C   0  0  0  0  0  0  0  0  0  0  0  0
    4.3946    2.9141    2.4355 C   0  0  0  0  0  0  0  0  0  0  0  0
    4.4011    1.5252    2.4996 C   0  0  0  0  0  0  0  0  0  0  0  0
    3.2116    0.8148    2.6018 C   0  0  0  0  0  0  0  0  0  0  0  0
    2.0278    1.5265    2.6544 C   0  0  0  0  0  0  0  0  0  0  0  0
    0.6103    1.0204    2.8245 C   0  0  0  0  0  0  0  0  0  0  0  0
   -0.2127    2.1443    2.2323 C   0  0  0  0  0  0  0  0  0  0  0  0
    3.2424    5.0335    2.3688 C   0  0  0  0  0  0  0  0  0  0  0  0
    3.7074    5.8784    3.3311 N   0  0  0  0  0  0  0  0  0  0  0  0
    3.6063    7.0583    2.8933 N   0  0  0  0  0  0  0  0  0  0  0  0
    3.1033    7.0678    1.6830 N   0  0  0  0  0  0  0  0  0  0  0  0
    2.8623    8.2101    0.9092 C   0  0  0  0  0  0  0  0  0  0  0  0
    2.2013    8.0898   -0.3091 C   0  0  0  0  0  0  0  0  0  0  0  0
    1.9634    9.2265   -1.0747 C   0  0  0  0  0  0  0  0  0  0  0  0
    2.3857   10.4714   -0.6208 C   0  0  0  0  0  0  0  0  0  0  0  0
    3.0452   10.5800    0.5990 C   0  0  0  0  0  0  0  0  0  0  0  0
    3.2886    9.4502    1.3731 C   0  0  0  0  0  0  0  0  0  0  0  0
    2.8548    5.7853    1.3059 C   0  0  0  0  0  0  0  0  0  0  0  0
   -6.6543    6.6939    0.9932 H   0  0  0  0  0  0  0  0  0  0  0  0
   -6.6218    5.9078    3.2686 H   0  0  0  0  0  0  0  0  0  0  0  0
   -2.2840    4.6930    4.0418 H   0  0  0  0  0  0  0  0  0  0  0  0
   -0.2887    5.4697    0.4982 H   0  0  0  0  0  0  0  0  0  0  0  0
    5.2535    3.4223    2.3734 H   0  0  0  0  0  0  0  0  0  0  0  0
    5.2709    1.0326    2.4719 H   0  0  0  0  0  0  0  0  0  0  0  0
    3.2118   -0.1846    2.6363 H   0  0  0  0  0  0  0  0  0  0  0  0
    0.3898    0.8811    3.7899 H   0  0  0  0  0  0  0  0  0  0  0  0
    0.4690    0.1664    2.3237 H   0  0  0  0  0  0  0  0  0  0  0  0
   -0.3101    2.0515    1.2414 H   0  0  0  0  0  0  0  0  0  0  0  0
   -1.1184    2.2030    2.6522 H   0  0  0  0  0  0  0  0  0  0  0  0
    1.8993    7.1927   -0.6319 H   0  0  0  0  0  0  0  0  0  0  0  0
    1.4888    9.1486   -1.9514 H   0  0  0  0  0  0  0  0  0  0  0  0
    2.2153   11.2885   -1.1715 H   0  0  0  0  0  0  0  0  0  0  0  0
    3.3466   11.4771    0.9220 H   0  0  0  0  0  0  0  0  0  0  0  0
    3.7630    9.5284    2.2499 H   0  0  0  0  0  0  0  0  0  0  0  0
    2.4719    5.4664    0.4389 H   0  0  0  0  0  0  0  0  0  0  0  0
  1  2  1  0  0  0  0
  2  3  1  0  0  0  0
  3  4  2  0  0  0  0
  4  5  1  0  0  0  0
  5  6  2  0  0  0  0
  6  7  1  0  0  0  0
  7  8  2  0  0  0  0
  8  3  1  0  0  0  0
  8  9  1  0  0  0  0
  9 10  2  0  0  0  0
 10 11  1  0  0  0  0
 11  2  2  0  0  0  0
 10 12  1  0  0  0  0
 12 13  2  0  0  0  0
 12 14  1  0  0  0  0
 14 15  1  0  0  0  0
 15 16  1  0  0  0  0
 16 17  2  0  0  0  0
 17 18  1  0  0  0  0
 18 19  2  0  0  0  0
 19 20  1  0  0  0  0
 20 15  2  0  0  0  0
 20 21  1  0  0  0  0
 21 22  1  0  0  0  0
 22 14  1  0  0  0  0
 16 23  1  0  0  0  0
 23 24  1  0  0  0  0
 24 25  2  0  0  0  0
 25 26  1  0  0  0  0
 26 27  1  0  0  0  0
 27 28  1  0  0  0  0
 28 29  2  0  0  0  0
 29 30  1  0  0  0  0
 30 31  2  0  0  0  0
 31 32  1  0  0  0  0
 32 27  2  0  0  0  0
 26 33  1  0  0  0  0
 23 33  2  0  0  0  0
  5 34  1  0  0  0  0
  6 35  1  0  0  0  0
  9 36  1  0  0  0  0
 11 37  1  0  0  0  0
 17 38  1  0  0  0  0
 18 39  1  0  0  0  0
 19 40  1  0  0  0  0
 21 41  1  0  0  0  0
 21 42  1  0  0  0  0
 22 43  1  0  0  0  0
 22 44  1  0  0  0  0
 28 45  1  0  0  0  0
 29 46  1  0  0  0  0
 30 47  1  0  0  0  0
 31 48  1  0  0  0  0
 32 49  1  0  0  0  0
 33 50  1  0  0  0  0
M  END
>  <result-rank>
36

>  <similarity>
0.874

>  <query-name>


>  <query-smiles>
S1C(C(=O)NC2=Nc3c(N2CCC(=O)N)ccc(N(C(=O)c4ccccc4)C)c3)=CC=C1/C=C/c5ncc(N)cn5

>  <source>
REALspace_2019-12

>  <similarity-descriptor>
0.998;0.998;0.919;0.655;0.997;0.853;0.853;0.655;0.655;0.0;0.0;0.722;0.722;0.722;0.998;0.919;0.0;0.0

>  <similarity-descriptor-smiles>
Brc1ccccc1;c1ccccc1;c1cnccn1;N1CCcc1;c1ccccc1;C=O;C=O;N1CCcc1;N1CCcc1;;;C1=CNN=N1;C1=CNN=N1;C1=CNN=N1;Brc1ccccc1;c1cnccn1;;

>  <reaction-name>
m_276010a

>  <reagent1-name>
17281768

>  <reagent1-smiles>
[R1*]N=NN([R2*])c1ccccc1

>  <reagent2-name>
17259588

>  <reagent2-smiles>
[R3*]C(=O)c1cc(Br)c2nccnc2c1

>  <reagent3-name>
17280774

>  <reagent3-smiles>
[R3*]N1c2c(cccc2CC1)C([R1*])=C[R2*]

$$$$
s_527a____14653446____156520
          04022017343D 1   1.00000     0.00000     0
            
 55 59  0  0  0  0            999 V2000
    7.0410    5.8908    2.4755 S   0  0  0  0  0  0  0  0  0  0  0  0
    6.8904    7.1461    3.1648 O   0  0  0  0  0  0  0  0  0  0  0  0
    8.0429    5.0965    3.1381 O   0  0  0  0  0  0  0  0  0  0  0  0
    7.4982    6.1678    0.9357 N   0  0  0  0  0  0  0  0  0  0  0  0
    7.9107    5.1030    0.1254 C   0  0  0  0  0  0  0  0  0  0  0  0
    7.2119    4.8301   -1.0459 C   0  0  0  0  0  0  0  0  0  0  0  0
    7.6089    3.7765   -1.8613 C   0  0  0  0  0  0  0  0  0  0  0  0
    8.7055    3.0051   -1.4901 C   0  0  0  0  0  0  0  0  0  0  0  0
    9.0949    1.9949   -2.2626 F   0  0  0  0  0  0  0  0  0  0  0  0
    9.4050    3.2762   -0.3189 C   0  0  0  0  0  0  0  0  0  0  0  0
    9.0070    4.3309    0.4958 C   0  0  0  0  0  0  0  0  0  0  0  0
    5.5247    5.0380    2.4858 C   0  0  0  0  0  0  0  0  0  0  0  0
    5.5412    3.6483    2.4759 C   0  0  0  0  0  0  0  0  0  0  0  0
    4.3664    2.9017    2.4842 C   0  0  0  0  0  0  0  0  0  0  0  0
    3.1568    3.5912    2.5013 C   0  0  0  0  0  0  0  0  0  0  0  0
    1.9885    2.8739    2.5089 N   0  0  0  0  0  0  0  0  0  0  0  0
    1.9943    1.5026    2.5002 C   0  0  0  0  0  0  0  0  0  0  0  0
    0.9528    0.8712    2.5067 O   0  0  0  0  0  0  0  0  0  0  0  0
    3.2129    0.7745    2.4835 C   0  0  0  0  0  0  0  0  0  0  0  0
    4.3883    1.4779    2.4758 C   0  0  0  0  0  0  0  0  0  0  0  0
    5.6231    0.7147    2.4582 C   0  0  0  0  0  0  0  0  0  0  0  0
    6.1445    0.3932    3.4901 O   0  0  0  0  0  0  0  0  0  0  0  0
    6.1930    0.3613    1.2636 N   0  0  0  0  0  0  0  0  0  0  0  0
    7.1118   -0.6942    1.2111 C   0  0  0  0  0  0  0  0  0  0  0  0
    8.4741   -0.4162    1.1733 C   0  0  0  0  0  0  0  0  0  0  0  0
    9.3773   -1.4729    1.1220 C   0  0  0  0  0  0  0  0  0  0  0  0
   10.7986   -1.1882    1.0840 C   0  0  0  0  0  0  0  0  0  0  0  0
   11.7028   -2.1686    0.6879 C   0  0  0  0  0  0  0  0  0  0  0  0
   13.0129   -1.8819    0.6614 N   0  0  0  0  0  0  0  0  0  0  0  0
   13.4708   -0.6701    1.0086 C   0  0  0  0  0  0  0  0  0  0  0  0
   12.6125    0.2861    1.3934 N   0  0  0  0  0  0  0  0  0  0  0  0
   11.2907    0.0624    1.4411 C   0  0  0  0  0  0  0  0  0  0  0  0
    8.9345   -2.7911    1.1072 C   0  0  0  0  0  0  0  0  0  0  0  0
    7.5676   -3.0458    1.1458 C   0  0  0  0  0  0  0  0  0  0  0  0
    6.6466   -2.0049    1.1979 C   0  0  0  0  0  0  0  0  0  0  0  0
    3.1296    4.9820    2.5110 C   0  0  0  0  0  0  0  0  0  0  0  0
    4.3107    5.7163    2.5031 C   0  0  0  0  0  0  0  0  0  0  0  0
    7.4840    7.0983    0.5696 H   0  0  0  0  0  0  0  0  0  0  0  0
    6.4246    5.3913   -1.3011 H   0  0  0  0  0  0  0  0  0  0  0  0
    7.1118    3.5754   -2.7054 H   0  0  0  0  0  0  0  0  0  0  0  0
   10.1918    2.7144   -0.0633 H   0  0  0  0  0  0  0  0  0  0  0  0
    9.5041    4.5323    1.3398 H   0  0  0  0  0  0  0  0  0  0  0  0
    6.4205    3.1721    2.4624 H   0  0  0  0  0  0  0  0  0  0  0  0
    1.1148    3.3602    2.5210 H   0  0  0  0  0  0  0  0  0  0  0  0
    3.2131   -0.2255    2.4775 H   0  0  0  0  0  0  0  0  0  0  0  0
    5.9530    0.8572    0.4290 H   0  0  0  0  0  0  0  0  0  0  0  0
    8.7994    0.5293    1.1829 H   0  0  0  0  0  0  0  0  0  0  0  0
   11.3793   -3.0777    0.4256 H   0  0  0  0  0  0  0  0  0  0  0  0
   14.4520   -0.4795    0.9806 H   0  0  0  0  0  0  0  0  0  0  0  0
   10.6657    0.7874    1.7305 H   0  0  0  0  0  0  0  0  0  0  0  0
    9.5898   -3.5455    1.0694 H   0  0  0  0  0  0  0  0  0  0  0  0
    7.2423   -3.9913    1.1359 H   0  0  0  0  0  0  0  0  0  0  0  0
    5.6654   -2.1959    1.2253 H   0  0  0  0  0  0  0  0  0  0  0  0
    2.2509    5.4592    2.5238 H   0  0  0  0  0  0  0  0  0  0  0  0
    4.2874    6.7160    2.5098 H   0  0  0  0  0  0  0  0  0  0  0  0
  1  2  2  0  0  0  0
  1  3  2  0  0  0  0
  1  4  1  0  0  0  0
  4  5  1  0  0  0  0
  5  6  1  0  0  0  0
  6  7  2  0  0  0  0
  7  8  1  0  0  0  0
  8  9  1  0  0  0  0
  8 10  2  0  0  0  0
 10 11  1  0  0  0  0
 11  5  2  0  0  0  0
  1 12  1  0  0  0  0
 12 13  1  0  0  0  0
 13 14  2  0  0  0  0
 14 15  1  0  0  0  0
 15 16  1  0  0  0  0
 16 17  1  0  0  0  0
 17 18  2  0  0  0  0
 17 19  1  0  0  0  0
 19 20  2  0  0  0  0
 20 14  1  0  0  0  0
 20 21  1  0  0  0  0
 21 22  2  0  0  0  0
 21 23  1  0  0  0  0
 23 24  1  0  0  0  0
 24 25  1  0  0  0  0
 25 26  2  0  0  0  0
 26 27  1  0  0  0  0
 27 28  1  0  0  0  0
 28 29  2  0  0  0  0
 29 30  1  0  0  0  0
 30 31  2  0  0  0  0
 31 32  1  0  0  0  0
 32 27  2  0  0  0  0
 26 33  1  0  0  0  0
 33 34  2  0  0  0  0
 34 35  1  0  0  0  0
 35 24  2  0  0  0  0
 15 36  2  0  0  0  0
 36 37  1  0  0  0  0
 37 12  2  0  0  0  0
  4 38  1  0  0  0  0
  6 39  1  0  0  0  0
  7 40  1  0  0  0  0
 10 41  1  0  0  0  0
 11 42  1  0  0  0  0
 13 43  1  0  0  0  0
 16 44  1  0  0  0  0
 19 45  1  0  0  0  0
 23 46  1  0  0  0  0
 25 47  1  0  0  0  0
 28 48  1  0  0  0  0
 30 49  1  0  0  0  0
 32 50  1  0  0  0  0
 33 51  1  0  0  0  0
 34 52  1  0  0  0  0
 35 53  1  0  0  0  0
 36 54  1  0  0  0  0
 37 55  1  0  0  0  0
M  END
>  <result-rank>
37

>  <similarity>
0.874

>  <query-name>


>  <query-smiles>
S1C(C(=O)NC2=Nc3c(N2CCC(=O)N)ccc(N(C(=O)c4ccccc4)C)c3)=CC=C1/C=C/c5ncc(N)cn5

>  <source>
REALspace_2019-12

>  <similarity-descriptor>
0.934;0.966;0.936;0.803;0.989;0.852;0.803;0.803;0.803;0.803;0.0;0.989;0.544;0.0;0.934;0.936;0.0;0.0

>  <similarity-descriptor-smiles>
c1ccccc1;c1ccc(cc1)F;c1cncnc1;c1C=CC(Nc1)=O;c1ccccc1;C(=O)N;c1C=CC(Nc1)=O;c1C=CC(Nc1)=O;c1C=CC(Nc1)=O;c1C=CC(Nc1)=O;;c1ccccc1;S(=O)(=O)N;;c1ccccc1;c1cncnc1;;

>  <reaction-name>
s_527a

>  <reagent1-name>
14653446

>  <reagent1-smiles>
[R1*]Nc1cc(c2cncnc2)ccc1

>  <reagent2-name>
156520

>  <reagent2-smiles>
[R1*]C(=O)c1c2c(nc(O)c1)ccc(S(=O)(=O)Nc3ccc(F)cc3)c2

$$$$
s_708____1107296____2161432
          04022017343D 1   1.00000     0.00000     0
            
 54 58  0  0  0  0            999 V2000
    8.6705    4.9618   -4.9472 Cl  0  0  0  0  0  0  0  0  0  0  0  0
    9.8809    5.9416   -4.0846 C   0  0  0  0  0  0  0  0  0  0  0  0
    9.7375    6.2234   -2.7298 C   0  0  0  0  0  0  0  0  0  0  0  0
   10.6892    6.9899   -2.0649 C   0  0  0  0  0  0  0  0  0  0  0  0
   11.7884    7.4744   -2.7663 C   0  0  0  0  0  0  0  0  0  0  0  0
   11.9295    7.1910   -4.1208 C   0  0  0  0  0  0  0  0  0  0  0  0
   13.3384    7.8148   -5.0128 Cl  0  0  0  0  0  0  0  0  0  0  0  0
   10.9792    6.4250   -4.7887 C   0  0  0  0  0  0  0  0  0  0  0  0
    8.5991    5.7270   -1.9816 C   0  0  0  0  0  0  0  0  0  0  0  0
    7.4829    6.7389   -1.1892 S   0  0  0  0  0  0  0  0  0  0  0  0
    6.5080    5.4844   -0.5865 C   0  0  0  0  0  0  0  0  0  0  0  0
    5.3486    5.6625    0.2001 C   0  0  0  0  0  0  0  0  0  0  0  0
    4.9308    6.7615    0.5288 O   0  0  0  0  0  0  0  0  0  0  0  0
    4.7296    4.5095    0.5676 N   0  0  0  0  0  0  0  0  0  0  0  0
    5.2444    3.3052    0.1663 C   0  0  0  0  0  0  0  0  0  0  0  0
    6.3380    3.2076   -0.5737 N   0  0  0  0  0  0  0  0  0  0  0  0
    7.0443    4.3064   -0.9980 C   0  0  0  0  0  0  0  0  0  0  0  0
    8.2263    4.4332   -1.7865 C   0  0  0  0  0  0  0  0  0  0  0  0
    4.5254    2.1265    0.5937 C   0  0  0  0  0  0  0  0  0  0  0  0
    3.1346    2.1385    0.5874 C   0  0  0  0  0  0  0  0  0  0  0  0
    2.4499    1.0000    1.0000 C   0  0  0  0  0  0  0  0  0  0  0  0
    3.1336   -0.1382    1.4141 C   0  0  0  0  0  0  0  0  0  0  0  0
    4.5242   -0.1268    1.4114 C   0  0  0  0  0  0  0  0  0  0  0  0
    5.2307    0.9996    1.0032 C   0  0  0  0  0  0  0  0  0  0  0  0
    1.0000    1.0000    1.0000 C   0  0  0  0  0  0  0  0  0  0  0  0
    0.4000    2.0392    1.0014 O   0  0  0  0  0  0  0  0  0  0  0  0
    0.3150   -0.1865    0.9984 N   0  0  0  0  0  0  0  0  0  0  0  0
   -1.1550   -0.1865    0.9984 C   0  0  0  0  0  0  0  0  0  0  0  0
   -1.6617   -0.1845   -0.4348 C   0  0  0  0  0  0  0  0  0  0  0  0
   -1.8915   -1.3918   -1.0865 C   0  0  0  0  0  0  0  0  0  0  0  0
   -2.3542   -1.3843   -2.3980 C   0  0  0  0  0  0  0  0  0  0  0  0
   -2.5824   -0.1719   -3.0413 C   0  0  0  0  0  0  0  0  0  0  0  0
   -2.3546    1.0354   -2.3878 C   0  0  0  0  0  0  0  0  0  0  0  0
   -1.8904    1.0279   -1.0766 C   0  0  0  0  0  0  0  0  0  0  0  0
   -3.0868   -0.1702   -4.4755 C   0  0  0  0  0  0  0  0  0  0  0  0
   10.5839    7.1909   -1.0910 H   0  0  0  0  0  0  0  0  0  0  0  0
   12.4773    8.0265   -2.2967 H   0  0  0  0  0  0  0  0  0  0  0  0
   11.0843    6.2245   -5.7627 H   0  0  0  0  0  0  0  0  0  0  0  0
    3.9022    4.5402    1.1284 H   0  0  0  0  0  0  0  0  0  0  0  0
    8.7288    3.6522   -2.1573 H   0  0  0  0  0  0  0  0  0  0  0  0
    2.6349    2.9524    0.2911 H   0  0  0  0  0  0  0  0  0  0  0  0
    2.6330   -0.9520    1.7093 H   0  0  0  0  0  0  0  0  0  0  0  0
    5.0239   -0.9408    1.7075 H   0  0  0  0  0  0  0  0  0  0  0  0
    6.2307    0.9993    1.0040 H   0  0  0  0  0  0  0  0  0  0  0  0
    0.8150   -1.0525    0.9972 H   0  0  0  0  0  0  0  0  0  0  0  0
   -1.4883    0.6294    1.4709 H   0  0  0  0  0  0  0  0  0  0  0  0
   -1.4883   -1.0036    1.4686 H   0  0  0  0  0  0  0  0  0  0  0  0
   -1.7253   -2.2582   -0.6157 H   0  0  0  0  0  0  0  0  0  0  0  0
   -2.5222   -2.2462   -2.8764 H   0  0  0  0  0  0  0  0  0  0  0  0
   -2.5233    1.9020   -2.8574 H   0  0  0  0  0  0  0  0  0  0  0  0
   -1.7221    1.8896   -0.5980 H   0  0  0  0  0  0  0  0  0  0  0  0
   -3.1984    0.7730   -4.7885 H   0  0  0  0  0  0  0  0  0  0  0  0
   -2.4267   -0.6400   -5.0616 H   0  0  0  0  0  0  0  0  0  0  0  0
   -3.9672   -0.6425   -4.5198 H   0  0  0  0  0  0  0  0  0  0  0  0
  1  2  1  0  0  0  0
  2  3  1  0  0  0  0
  3  4  2  0  0  0  0
  4  5  1  0  0  0  0
  5  6  2  0  0  0  0
  6  7  1  0  0  0  0
  6  8  1  0  0  0  0
  8  2  2  0  0  0  0
  3  9  1  0  0  0  0
  9 10  1  0  0  0  0
 10 11  1  0  0  0  0
 11 12  1  0  0  0  0
 12 13  2  0  0  0  0
 12 14  1  0  0  0  0
 14 15  1  0  0  0  0
 15 16  2  0  0  0  0
 16 17  1  0  0  0  0
 11 17  2  0  0  0  0
 17 18  1  0  0  0  0
  9 18  2  0  0  0  0
 15 19  1  0  0  0  0
 19 20  1  0  0  0  0
 20 21  2  0  0  0  0
 21 22  1  0  0  0  0
 22 23  2  0  0  0  0
 23 24  1  0  0  0  0
 24 19  2  0  0  0  0
 21 25  1  0  0  0  0
 25 26  2  0  0  0  0
 25 27  1  0  0  0  0
 27 28  1  0  0  0  0
 28 29  1  0  0  0  0
 29 30  1  0  0  0  0
 30 31  2  0  0  0  0
 31 32  1  0  0  0  0
 32 33  2  0  0  0  0
 33 34  1  0  0  0  0
 34 29  2  0  0  0  0
 32 35  1  0  0  0  0
  4 36  1  0  0  0  0
  5 37  1  0  0  0  0
  8 38  1  0  0  0  0
 14 39  1  0  0  0  0
 18 40  1  0  0  0  0
 20 41  1  0  0  0  0
 22 42  1  0  0  0  0
 23 43  1  0  0  0  0
 24 44  1  0  0  0  0
 27 45  1  0  0  0  0
 28 46  1  0  0  0  0
 28 47  1  0  0  0  0
 30 48  1  0  0  0  0
 31 49  1  0  0  0  0
 33 50  1  0  0  0  0
 34 51  1  0  0  0  0
 35 52  1  0  0  0  0
 35 53  1  0  0  0  0
 35 54  1  0  0  0  0
M  END
>  <result-rank>
38

>  <similarity>
0.874

>  <query-name>


>  <query-smiles>
S1C(C(=O)NC2=Nc3c(N2CCC(=O)N)ccc(N(C(=O)c4ccccc4)C)c3)=CC=C1/C=C/c5ncc(N)cn5

>  <source>
REALspace_2019-12

>  <similarity-descriptor>
0.919;0.923;0.801;0.985;0.950;0.985;0.985;0.0;0.0;0.0;0.0;0.950;0.852;0.0;0.801;0.801;0.0;0.111

>  <similarity-descriptor-smiles>
C1=CC=CS1;Cc1ccccc1;Clc1cc(ccc1)Cl;C1=CN=CNC1=O;c1ccccc1;C1=CN=CNC1=O;C1=CN=CNC1=O;;;;;c1ccccc1;C(=O)N;;Clc1cc(ccc1)Cl;Clc1cc(ccc1)Cl;;C

>  <reaction-name>
s_708

>  <reagent1-name>
1107296

>  <reagent1-smiles>
[R1*]=NC1=C(SC(c2c(Cl)cc(Cl)cc2)=C1)C([R2*])=O

>  <reagent2-name>
2161432

>  <reagent2-smiles>
[R1*]=C(N[R2*])c1cc(ccc1)C(=O)NCc2ccc(cc2)C

$$$$
s_270196____9437302____8784464
          04022017353D 1   1.00000     0.00000     0
            
 48 52  0  0  0  0            999 V2000
   16.7354    2.7366    2.3782 Cl  0  0  0  0  0  0  0  0  0  0  0  0
   15.3542    1.6153    2.3847 C   0  0  0  0  0  0  0  0  0  0  0  0
   15.4174    0.2014    2.3750 C   0  0  0  0  0  0  0  0  0  0  0  0
   14.1799   -0.2361    2.3848 N   0  0  0  0  0  0  0  0  0  0  0  0
   13.3359    0.7739    2.3968 N   0  0  0  0  0  0  0  0  0  0  0  0
   11.9365    0.6738    2.4079 C   0  0  0  0  0  0  0  0  0  0  0  0
   11.3367   -0.5803    2.4066 C   0  0  0  0  0  0  0  0  0  0  0  0
   12.0891   -1.6767    2.3937 F   0  0  0  0  0  0  0  0  0  0  0  0
    9.9507   -0.6965    2.4179 C   0  0  0  0  0  0  0  0  0  0  0  0
    9.1802    0.4613    2.4304 C   0  0  0  0  0  0  0  0  0  0  0  0
    9.7766    1.7177    2.4309 C   0  0  0  0  0  0  0  0  0  0  0  0
   11.1633    1.8298    2.4194 C   0  0  0  0  0  0  0  0  0  0  0  0
    7.7347    0.3477    2.4413 C   0  0  0  0  0  0  0  0  0  0  0  0
    7.0439   -0.7682    2.4407 N   0  0  0  0  0  0  0  0  0  0  0  0
    5.8093   -0.4818    2.4549 O   0  0  0  0  0  0  0  0  0  0  0  0
    5.6615    0.8207    2.4636 C   0  0  0  0  0  0  0  0  0  0  0  0
    6.8467    1.3760    2.4569 N   0  0  0  0  0  0  0  0  0  0  0  0
    4.3956    1.5285    2.4795 C   0  0  0  0  0  0  0  0  0  0  0  0
    4.3891    2.9197    2.4874 C   0  0  0  0  0  0  0  0  0  0  0  0
    3.1713    3.5924    2.5033 C   0  0  0  0  0  0  0  0  0  0  0  0
    1.9748    2.8823    2.5111 C   0  0  0  0  0  0  0  0  0  0  0  0
    0.7544    3.5676    2.5257 N   0  0  0  0  0  0  0  0  0  0  0  0
   -0.1428    3.3904    1.5056 C   0  0  0  0  0  0  0  0  0  0  0  0
    0.1176    2.6478    0.5997 O   0  0  0  0  0  0  0  0  0  0  0  0
   -1.4092    4.1014    1.5207 C   0  0  0  0  0  0  0  0  0  0  0  0
   -2.6199    3.9835    0.3276 S   0  0  0  0  0  0  0  0  0  0  0  0
   -3.7409    5.0631    1.0233 C   0  0  0  0  0  0  0  0  0  0  0  0
   -3.1531    5.4969    2.1770 C   0  0  0  0  0  0  0  0  0  0  0  0
   -1.8594    4.9732    2.4647 C   0  0  0  0  0  0  0  0  0  0  0  0
    1.9916    1.4909    2.5023 C   0  0  0  0  0  0  0  0  0  0  0  0
    3.2044    0.8097    2.4867 C   0  0  0  0  0  0  0  0  0  0  0  0
    3.1797    5.1126    2.5113 C   0  0  0  0  0  0  0  0  0  0  0  0
   14.0331    1.9468    2.3961 C   0  0  0  0  0  0  0  0  0  0  0  0
   16.2465   -0.3575    2.3630 H   0  0  0  0  0  0  0  0  0  0  0  0
    9.5157   -1.5969    2.4171 H   0  0  0  0  0  0  0  0  0  0  0  0
    9.2086    2.5407    2.4396 H   0  0  0  0  0  0  0  0  0  0  0  0
   11.5986    2.7301    2.4194 H   0  0  0  0  0  0  0  0  0  0  0  0
    5.2492    3.4299    2.4818 H   0  0  0  0  0  0  0  0  0  0  0  0
    0.5374    4.1864    3.2806 H   0  0  0  0  0  0  0  0  0  0  0  0
   -4.6370    5.3230    0.6635 H   0  0  0  0  0  0  0  0  0  0  0  0
   -3.6061    6.1469    2.7871 H   0  0  0  0  0  0  0  0  0  0  0  0
   -1.3345    5.2213    3.2789 H   0  0  0  0  0  0  0  0  0  0  0  0
    1.1316    0.9806    2.5071 H   0  0  0  0  0  0  0  0  0  0  0  0
    3.2200   -0.1901    2.4808 H   0  0  0  0  0  0  0  0  0  0  0  0
    4.1243    5.4408    2.5039 H   0  0  0  0  0  0  0  0  0  0  0  0
    2.7023    5.4528    1.7012 H   0  0  0  0  0  0  0  0  0  0  0  0
    2.7181    5.4442    3.3341 H   0  0  0  0  0  0  0  0  0  0  0  0
   13.6490    2.8701    2.4027 H   0  0  0  0  0  0  0  0  0  0  0  0
  1  2  1  0  0  0  0
  2  3  1  0  0  0  0
  3  4  2  0  0  0  0
  4  5  1  0  0  0  0
  5  6  1  0  0  0  0
  6  7  1  0  0  0  0
  7  8  1  0  0  0  0
  7  9  2  0  0  0  0
  9 10  1  0  0  0  0
 10 11  2  0  0  0  0
 11 12  1  0  0  0  0
 12  6  2  0  0  0  0
 10 13  1  0  0  0  0
 13 14  2  0  0  0  0
 14 15  1  0  0  0  0
 15 16  1  0  0  0  0
 16 17  2  0  0  0  0
 17 13  1  0  0  0  0
 16 18  1  0  0  0  0
 18 19  1  0  0  0  0
 19 20  2  0  0  0  0
 20 21  1  0  0  0  0
 21 22  1  0  0  0  0
 22 23  1  0  0  0  0
 23 24  2  0  0  0  0
 23 25  1  0  0  0  0
 25 26  1  0  0  0  0
 26 27  1  0  0  0  0
 27 28  2  0  0  0  0
 28 29  1  0  0  0  0
 25 29  2  0  0  0  0
 21 30  2  0  0  0  0
 30 31  1  0  0  0  0
 31 18  2  0  0  0  0
 20 32  1  0  0  0  0
  5 33  1  0  0  0  0
  2 33  2  0  0  0  0
  3 34  1  0  0  0  0
  9 35  1  0  0  0  0
 11 36  1  0  0  0  0
 12 37  1  0  0  0  0
 19 38  1  0  0  0  0
 22 39  1  0  0  0  0
 27 40  1  0  0  0  0
 28 41  1  0  0  0  0
 29 42  1  0  0  0  0
 30 43  1  0  0  0  0
 31 44  1  0  0  0  0
 32 45  1  0  0  0  0
 32 46  1  0  0  0  0
 32 47  1  0  0  0  0
 33 48  1  0  0  0  0
M  END
>  <result-rank>
39

>  <similarity>
0.874

>  <query-name>


>  <query-smiles>
S1C(C(=O)NC2=Nc3c(N2CCC(=O)N)ccc(N(C(=O)c4ccccc4)C)c3)=CC=C1/C=C/c5ncc(N)cn5

>  <source>
REALspace_2019-12

>  <similarity-descriptor>
0.964;0.884;0.845;0.801;0.993;0.801;0.801;0.0;0.0;0.0;0.0;0.993;0.853;0.995;0.964;0.845;0.0;0.0

>  <similarity-descriptor-smiles>
c1ccccc1F;C1=CC=CS1;ClC1=CNN=C1;C=1N=CON1;c1ccccc1;C=1N=CON1;C=1N=CON1;;;;;c1ccccc1;NC=O;C;c1ccccc1F;ClC1=CNN=C1;;

>  <reaction-name>
s_270196

>  <reagent1-name>
9437302

>  <reagent1-smiles>
[R1*]=NC(=NO[R2*])c1cc(F)c(N2N=CC(Cl)=C2)cc1

>  <reagent2-name>
8784464

>  <reagent2-smiles>
[R1*]C([R2*])c1cc(c(NC(=O)C=2SC=CC2)cc1)C

$$$$
m_275030____14114142____12658456____14148596
          04022017353D 1   1.00000     0.00000     0
            
 58 62  0  0  0  0            999 V2000
    8.0697    1.9066    0.4395 F   0  0  0  0  0  0  0  0  0  0  0  0
    8.3979    0.6268    0.5818 C   0  0  0  0  0  0  0  0  0  0  0  0
    8.0589   -0.0500    1.7475 C   0  0  0  0  0  0  0  0  0  0  0  0
    8.3949   -1.3895    1.9110 C   0  0  0  0  0  0  0  0  0  0  0  0
    9.0770   -2.0486    0.8933 C   0  0  0  0  0  0  0  0  0  0  0  0
    9.4147   -1.3681   -0.2714 C   0  0  0  0  0  0  0  0  0  0  0  0
    9.0796   -0.0285   -0.4382 C   0  0  0  0  0  0  0  0  0  0  0  0
   10.1250   -2.0602   -1.3286 C   0  0  0  0  0  0  0  0  0  0  0  0
   10.9131   -1.5009   -2.2290 O   0  0  0  0  0  0  0  0  0  0  0  0
   11.3873   -2.4367   -3.0275 C   0  0  0  0  0  0  0  0  0  0  0  0
   10.8684   -3.6286   -2.6049 C   0  0  0  0  0  0  0  0  0  0  0  0
   10.0721   -3.3605   -1.5305 N   0  0  0  0  0  0  0  0  0  0  0  0
    7.3133    0.6755    2.8553 C   0  0  0  0  0  0  0  0  0  0  0  0
    5.9778    1.0606    2.3765 N   0  3  3  0  0  0  0  0  0  0  0  0
    5.4184    2.0571    3.3075 C   0  0  0  0  0  0  0  0  0  0  0  0
    3.9806    2.4121    2.9644 C   0  0  0  0  0  0  0  0  0  0  0  0
    3.2104    1.5828    2.1542 C   0  0  0  0  0  0  0  0  0  0  0  0
    1.8790    1.8790    1.8790 C   0  0  0  0  0  0  0  0  0  0  0  0
    1.3182    3.0347    2.4102 C   0  0  0  0  0  0  0  0  0  0  0  0
    2.0830    3.8768    3.2098 C   0  0  0  0  0  0  0  0  0  0  0  0
    3.4104    3.5657    3.4848 C   0  0  0  0  0  0  0  0  0  0  0  0
    1.0000    1.0000    1.0000 C   0  0  0  0  0  0  0  0  0  0  0  0
    0.1050    0.1988    1.8474 N   0  0  0  0  0  0  0  0  0  0  0  0
   -1.1268    0.6867    2.1959 C   0  0  0  0  0  0  0  0  0  0  0  0
   -1.4752    1.7680    1.8094 O   0  0  0  0  0  0  0  0  0  0  0  0
   -2.0098   -0.1037    3.0320 C   0  0  0  0  0  0  0  0  0  0  0  0
   -3.3732    0.1714    3.0476 C   0  0  0  0  0  0  0  0  0  0  0  0
   -4.2164   -0.5886    3.8516 C   0  0  0  0  0  0  0  0  0  0  0  0
   -3.6948   -1.6158    4.6311 C   0  0  0  0  0  0  0  0  0  0  0  0
   -2.3313   -1.8819    4.6072 C   0  0  0  0  0  0  0  0  0  0  0  0
   -1.4776   -1.1287    3.8079 C   0  0  0  0  0  0  0  0  0  0  0  0
    3.8355    0.3318    1.5590 C   0  0  0  0  0  0  0  0  0  0  0  0
    5.0840   -0.1021    2.3039 C   0  0  0  0  0  0  0  0  0  0  0  0
    6.0597    1.4695    1.4676 H   0  0  0  0  0  0  0  0  0  0  0  0
    8.1490   -1.8736    2.7508 H   0  0  0  0  0  0  0  0  0  0  0  0
    9.3244   -3.0117    0.9993 H   0  0  0  0  0  0  0  0  0  0  0  0
    9.3249    0.4558   -1.2781 H   0  0  0  0  0  0  0  0  0  0  0  0
   12.0100   -2.3001   -3.7979 H   0  0  0  0  0  0  0  0  0  0  0  0
   11.0402   -4.5276   -3.0077 H   0  0  0  0  0  0  0  0  0  0  0  0
    7.2221    0.0713    3.6469 H   0  0  0  0  0  0  0  0  0  0  0  0
    7.8222    1.4951    3.1184 H   0  0  0  0  0  0  0  0  0  0  0  0
    5.9749    2.8868    3.2650 H   0  0  0  0  0  0  0  0  0  0  0  0
    5.4464    1.6840    4.2349 H   0  0  0  0  0  0  0  0  0  0  0  0
    0.3634    3.2608    2.2170 H   0  0  0  0  0  0  0  0  0  0  0  0
    1.6774    4.7088    3.5884 H   0  0  0  0  0  0  0  0  0  0  0  0
    3.9561    4.1755    4.0596 H   0  0  0  0  0  0  0  0  0  0  0  0
    0.4550    1.5765    0.3912 H   0  0  0  0  0  0  0  0  0  0  0  0
    1.5765    0.3912    0.4550 H   0  0  0  0  0  0  0  0  0  0  0  0
    0.3954   -0.7022    2.1695 H   0  0  0  0  0  0  0  0  0  0  0  0
   -3.7445    0.9101    2.4850 H   0  0  0  0  0  0  0  0  0  0  0  0
   -5.1976   -0.3966    3.8692 H   0  0  0  0  0  0  0  0  0  0  0  0
   -4.3010   -2.1625    5.2086 H   0  0  0  0  0  0  0  0  0  0  0  0
   -1.9605   -2.6212    5.1693 H   0  0  0  0  0  0  0  0  0  0  0  0
   -0.4964   -1.3209    3.7913 H   0  0  0  0  0  0  0  0  0  0  0  0
    4.0778    0.5160    0.6065 H   0  0  0  0  0  0  0  0  0  0  0  0
    3.1660   -0.4101    1.5952 H   0  0  0  0  0  0  0  0  0  0  0  0
    4.8437   -0.4066    3.2256 H   0  0  0  0  0  0  0  0  0  0  0  0
    5.5331   -0.8484    1.8128 H   0  0  0  0  0  0  0  0  0  0  0  0
  1  2  1  0  0  0  0
  2  3  1  0  0  0  0
  3  4  2  0  0  0  0
  4  5  1  0  0  0  0
  5  6  2  0  0  0  0
  6  7  1  0  0  0  0
  7  2  2  0  0  0  0
  6  8  1  0  0  0  0
  8  9  1  0  0  0  0
  9 10  1  0  0  0  0
 10 11  2  0  0  0  0
 11 12  1  0  0  0  0
  8 12  2  0  0  0  0
  3 13  1  0  0  0  0
 13 14  1  0  0  0  0
 14 15  1  0  0  0  0
 15 16  1  0  0  0  0
 16 17  1  0  0  0  0
 17 18  2  0  0  0  0
 18 19  1  0  0  0  0
 19 20  2  0  0  0  0
 20 21  1  0  0  0  0
 21 16  2  0  0  0  0
 18 22  1  0  0  0  0
 22 23  1  0  0  0  0
 23 24  1  0  0  0  0
 24 25  2  0  0  0  0
 24 26  1  0  0  0  0
 26 27  1  0  0  0  0
 27 28  2  0  0  0  0
 28 29  1  0  0  0  0
 29 30  2  0  0  0  0
 30 31  1  0  0  0  0
 31 26  2  0  0  0  0
 17 32  1  0  0  0  0
 32 33  1  0  0  0  0
 33 14  1  0  0  0  0
 14 34  1  0  0  0  0
  4 35  1  0  0  0  0
  5 36  1  0  0  0  0
  7 37  1  0  0  0  0
 10 38  1  0  0  0  0
 11 39  1  0  0  0  0
 13 40  1  0  0  0  0
 13 41  1  0  0  0  0
 15 42  1  0  0  0  0
 15 43  1  0  0  0  0
 19 44  1  0  0  0  0
 20 45  1  0  0  0  0
 21 46  1  0  0  0  0
 22 47  1  0  0  0  0
 22 48  1  0  0  0  0
 23 49  1  0  0  0  0
 27 50  1  0  0  0  0
 28 51  1  0  0  0  0
 29 52  1  0  0  0  0
 30 53  1  0  0  0  0
 31 54  1  0  0  0  0
 32 55  1  0  0  0  0
 32 56  1  0  0  0  0
 33 57  1  0  0  0  0
 33 58  1  0  0  0  0
M  CHG  1  14   1
M  END
>  <result-rank>
40

>  <similarity>
0.874

>  <query-name>


>  <query-smiles>
S1C(C(=O)NC2=Nc3c(N2CCC(=O)N)ccc(N(C(=O)c4ccccc4)C)c3)=CC=C1/C=C/c5ncc(N)cn5

>  <source>
REALspace_2019-12

>  <similarity-descriptor>
0.966;1.000;0.895;0.756;0.995;0.286;0.756;0.756;0.756;0.0;0.0;0.933;0.852;0.933;0.966;0.895;0.0;0.0

>  <similarity-descriptor-smiles>
Fc1ccccc1;c1ccccc1;C1=NC=CO1;[NH+]1CCccC1;c1ccccc1;C;[NH+]1CCccC1;[NH+]1CCccC1;[NH+]1CCccC1;;;C;NC=O;C;Fc1ccccc1;C1=NC=CO1;;

>  <reaction-name>
m_275030

>  <reagent1-name>
14114142

>  <reagent1-smiles>
[R2*]N1Cc2c(c(ccc2)CN[R1*])CC1

>  <reagent2-name>
12658456

>  <reagent2-smiles>
[R1*]C(=O)c1ccccc1

>  <reagent3-name>
14148596

>  <reagent3-smiles>
[R2*]Cc1c(F)cc(cc1)C=2OC=CN2

$$$$
s_270196____8770352____10227710
          04022017353D 1   1.00000     0.00000     0
            
 50 54  0  0  0  0            999 V2000
    5.6039    4.8526    2.4818 O   0  0  0  0  0  0  0  0  0  0  0  0
    5.6230    3.6528    2.4786 C   0  0  0  0  0  0  0  0  0  0  0  0
    6.8201    2.9867    2.4659 N   0  0  0  0  0  0  0  0  0  0  0  0
    7.9820    3.6432    2.0420 C   0  0  0  0  0  0  0  0  0  0  0  0
    9.1801    3.4259    2.7150 C   0  0  0  0  0  0  0  0  0  0  0  0
   10.3323    4.0797    2.2909 C   0  0  0  0  0  0  0  0  0  0  0  0
   10.2810    4.9431    1.2018 C   0  0  0  0  0  0  0  0  0  0  0  0
    9.0778    5.1523    0.5362 C   0  0  0  0  0  0  0  0  0  0  0  0
    7.9192    4.5041    0.9513 C   0  0  0  0  0  0  0  0  0  0  0  0
    4.3787    2.9077    2.4882 C   0  0  0  0  0  0  0  0  0  0  0  0
    3.1719    3.5991    2.5011 C   0  0  0  0  0  0  0  0  0  0  0  0
    1.9827    2.8773    2.5101 C   0  0  0  0  0  0  0  0  0  0  0  0
    1.9872    1.4865    2.5060 C   0  0  0  0  0  0  0  0  0  0  0  0
    3.2061    0.8170    2.4926 C   0  0  0  0  0  0  0  0  0  0  0  0
    4.4079    1.5169    2.4834 C   0  0  0  0  0  0  0  0  0  0  0  0
    0.7174    3.5862    2.5254 C   0  0  0  0  0  0  0  0  0  0  0  0
    0.5707    4.8888    2.5321 O   0  0  0  0  0  0  0  0  0  0  0  0
   -0.6638    5.1762    2.5445 N   0  0  0  0  0  0  0  0  0  0  0  0
   -1.3554    4.0609    2.5477 C   0  0  0  0  0  0  0  0  0  0  0  0
   -0.4682    3.0318    2.5363 N   0  0  0  0  0  0  0  0  0  0  0  0
   -2.8010    3.9484    2.5636 C   0  0  0  0  0  0  0  0  0  0  0  0
   -3.3904    2.6885    2.5651 C   0  0  0  0  0  0  0  0  0  0  0  0
   -4.7769    2.5766    2.5811 C   0  0  0  0  0  0  0  0  0  0  0  0
   -5.5564    3.7291    2.5958 C   0  0  0  0  0  0  0  0  0  0  0  0
   -7.0089    3.6149    2.6132 C   0  0  0  0  0  0  0  0  0  0  0  0
   -7.6376    2.4266    2.6157 N   0  0  0  0  0  0  0  0  0  0  0  0
   -8.9763    2.3131    2.6298 C   0  0  0  0  0  0  0  0  0  0  0  0
   -9.6960    3.4488    2.6419 N   0  0  0  0  0  0  0  0  0  0  0  0
   -9.1538    4.6250    2.6400 N   0  0  0  0  0  0  0  0  0  0  0  0
   -7.8175    4.7465    2.6262 C   0  0  0  0  0  0  0  0  0  0  0  0
   -9.5999    1.0546    2.6312 N   0  0  0  0  0  0  0  0  0  0  0  0
   -4.9673    4.9895    2.5944 C   0  0  0  0  0  0  0  0  0  0  0  0
   -3.5804    5.1005    2.5782 C   0  0  0  0  0  0  0  0  0  0  0  0
    6.8642    2.0317    2.7592 H   0  0  0  0  0  0  0  0  0  0  0  0
    9.2127    2.8044    3.4977 H   0  0  0  0  0  0  0  0  0  0  0  0
   11.1976    3.9289    2.7691 H   0  0  0  0  0  0  0  0  0  0  0  0
   11.1092    5.4135    0.8972 H   0  0  0  0  0  0  0  0  0  0  0  0
    9.0454    5.7734   -0.2469 H   0  0  0  0  0  0  0  0  0  0  0  0
    7.0541    4.6549    0.4729 H   0  0  0  0  0  0  0  0  0  0  0  0
    3.1593    4.5990    2.5039 H   0  0  0  0  0  0  0  0  0  0  0  0
    1.1274    0.9759    2.5127 H   0  0  0  0  0  0  0  0  0  0  0  0
    3.2186   -0.1829    2.4895 H   0  0  0  0  0  0  0  0  0  0  0  0
    5.2800    1.0277    2.4734 H   0  0  0  0  0  0  0  0  0  0  0  0
   -2.8202    1.8671    2.5547 H   0  0  0  0  0  0  0  0  0  0  0  0
   -5.2099    1.6752    2.5820 H   0  0  0  0  0  0  0  0  0  0  0  0
   -7.4008    5.6555    2.6251 H   0  0  0  0  0  0  0  0  0  0  0  0
   -9.0460    0.2220    2.6220 H   0  0  0  0  0  0  0  0  0  0  0  0
  -10.5979    0.9910    2.6414 H   0  0  0  0  0  0  0  0  0  0  0  0
   -5.5374    5.8110    2.6049 H   0  0  0  0  0  0  0  0  0  0  0  0
   -3.1472    6.0017    2.5771 H   0  0  0  0  0  0  0  0  0  0  0  0
  1  2  2  0  0  0  0
  2  3  1  0  0  0  0
  3  4  1  0  0  0  0
  4  5  1  0  0  0  0
  5  6  2  0  0  0  0
  6  7  1  0  0  0  0
  7  8  2  0  0  0  0
  8  9  1  0  0  0  0
  9  4  2  0  0  0  0
  2 10  1  0  0  0  0
 10 11  1  0  0  0  0
 11 12  2  0  0  0  0
 12 13  1  0  0  0  0
 13 14  2  0  0  0  0
 14 15  1  0  0  0  0
 15 10  2  0  0  0  0
 12 16  1  0  0  0  0
 16 17  1  0  0  0  0
 17 18  1  0  0  0  0
 18 19  2  0  0  0  0
 19 20  1  0  0  0  0
 16 20  2  0  0  0  0
 19 21  1  0  0  0  0
 21 22  1  0  0  0  0
 22 23  2  0  0  0  0
 23 24  1  0  0  0  0
 24 25  1  0  0  0  0
 25 26  1  0  0  0  0
 26 27  2  0  0  0  0
 27 28  1  0  0  0  0
 28 29  2  0  0  0  0
 29 30  1  0  0  0  0
 30 25  2  0  0  0  0
 27 31  1  0  0  0  0
 24 32  2  0  0  0  0
 32 33  1  0  0  0  0
 33 21  2  0  0  0  0
  3 34  1  0  0  0  0
  5 35  1  0  0  0  0
  6 36  1  0  0  0  0
  7 37  1  0  0  0  0
  8 38  1  0  0  0  0
  9 39  1  0  0  0  0
 11 40  1  0  0  0  0
 13 41  1  0  0  0  0
 14 42  1  0  0  0  0
 15 43  1  0  0  0  0
 22 44  1  0  0  0  0
 23 45  1  0  0  0  0
 30 46  1  0  0  0  0
 31 47  1  0  0  0  0
 31 48  1  0  0  0  0
 32 49  1  0  0  0  0
 33 50  1  0  0  0  0
M  END
>  <result-rank>
41

>  <similarity>
0.874

>  <query-name>


>  <query-smiles>
S1C(C(=O)NC2=Nc3c(N2CCC(=O)N)ccc(N(C(=O)c4ccccc4)C)c3)=CC=C1/C=C/c5ncc(N)cn5

>  <source>
REALspace_2019-12

>  <similarity-descriptor>
0.878;0.998;0.864;0.801;0.950;0.801;0.801;0.0;0.0;0.0;0.0;0.950;0.852;0.0;0.878;0.878;1.000;0.0

>  <similarity-descriptor-smiles>
c1ccccc1;c1ccccc1;c1cnncn1;C1=NC=NO1;c1ccccc1;C1=NC=NO1;C1=NC=NO1;;;;;c1ccccc1;O=CN;;c1ccccc1;c1ccccc1;N;

>  <reaction-name>
s_270196

>  <reagent1-name>
8770352

>  <reagent1-smiles>
[R1*]=NC(=NO[R2*])c1ccc(c2nc(nnc2)N)cc1

>  <reagent2-name>
10227710

>  <reagent2-smiles>
[R1*]C([R2*])c1cc(ccc1)C(=O)Nc2ccccc2

$$$$
m_274860b____15234900____17203280____17179884
          04022017353D 1   1.00000     0.00000     0
            
 57 61  0  0  0  0            999 V2000
   -4.4850   -0.1303   -6.3447 Br  0  0  0  0  0  0  0  0  0  0  0  0
   -3.5378   -1.6086   -5.4736 C   0  0  0  0  0  0  0  0  0  0  0  0
   -2.5629   -1.3734   -4.5202 C   0  0  0  0  0  0  0  0  0  0  0  0
   -2.0602    0.1576   -3.9808 S   0  0  0  0  0  0  0  0  0  0  0  0
   -0.8872   -0.3721   -2.8642 C   0  0  0  0  0  0  0  0  0  0  0  0
   -0.0494    0.4657   -2.0264 C   0  0  0  0  0  0  0  0  0  0  0  0
   -0.1485    1.6603   -2.0827 O   0  0  0  0  0  0  0  0  0  0  0  0
    0.8546   -0.1072   -1.1712 N   0  0  0  0  0  0  0  0  0  0  0  0
    1.7033    0.7415   -0.3225 C   0  0  0  0  0  0  0  0  0  0  0  0
    1.0000    1.0000    1.0000 C   0  0  0  0  0  0  0  0  0  0  0  0
    1.8486    1.8486    1.8486 N   0  0  0  0  0  0  0  0  0  0  0  0
    1.8344    3.1585    1.8782 N   0  0  0  0  0  0  0  0  0  0  0  0
    2.6732    3.6115    2.7067 N   0  0  0  0  0  0  0  0  0  0  0  0
    3.2991    2.5453    3.2760 C   0  0  0  0  0  0  0  0  0  0  0  0
    4.3382    2.6072    4.2862 C   0  0  0  0  0  0  0  0  0  0  0  0
    4.7795    1.4356    4.8926 C   0  0  0  0  0  0  0  0  0  0  0  0
    5.7762    1.5081    5.8601 C   0  0  0  0  0  0  0  0  0  0  0  0
    6.3246    2.7367    6.2166 C   0  0  0  0  0  0  0  0  0  0  0  0
    5.8763    3.9022    5.6043 C   0  0  0  0  0  0  0  0  0  0  0  0
    4.8798    3.8401    4.6355 C   0  0  0  0  0  0  0  0  0  0  0  0
    7.4147    2.8438    7.2709 C   0  0  0  0  0  0  0  0  0  0  0  0
    6.2228    0.2758    6.4809 C   0  0  0  0  0  0  0  0  0  0  0  0
    6.1173    0.1290    7.6672 O   0  0  0  0  0  0  0  0  0  0  0  0
    6.7652   -0.7207    5.7129 N   0  0  0  0  0  0  0  0  0  0  0  0
    7.0997   -1.9495    6.2948 C   0  0  0  0  0  0  0  0  0  0  0  0
    8.3884   -2.1551    6.7769 C   0  0  0  0  0  0  0  0  0  0  0  0
    8.7169   -3.3772    7.3545 C   0  0  0  0  0  0  0  0  0  0  0  0
    7.7602   -4.3824    7.4464 C   0  0  0  0  0  0  0  0  0  0  0  0
    6.4747   -4.1655    6.9615 C   0  0  0  0  0  0  0  0  0  0  0  0
    6.1348   -2.9477    6.3819 C   0  0  0  0  0  0  0  0  0  0  0  0
    2.7783    1.4096    2.7359 C   0  0  0  0  0  0  0  0  0  0  0  0
   -0.8914   -1.7286   -2.9142 C   0  0  0  0  0  0  0  0  0  0  0  0
   -1.8201   -2.3049   -3.8305 C   0  0  0  0  0  0  0  0  0  0  0  0
   -2.1522   -3.6089   -4.1942 C   0  0  0  0  0  0  0  0  0  0  0  0
   -3.0925   -3.8923   -5.1128 N   0  0  0  0  0  0  0  0  0  0  0  0
   -3.7892   -2.9412   -5.7594 C   0  0  0  0  0  0  0  0  0  0  0  0
    0.9372   -1.1026   -1.1243 H   0  0  0  0  0  0  0  0  0  0  0  0
    1.8734    1.6116   -0.7852 H   0  0  0  0  0  0  0  0  0  0  0  0
    2.5734    0.2788   -0.1524 H   0  0  0  0  0  0  0  0  0  0  0  0
    0.1300    1.4627    0.8300 H   0  0  0  0  0  0  0  0  0  0  0  0
    0.8300    0.1300    1.4627 H   0  0  0  0  0  0  0  0  0  0  0  0
    4.3854    0.5530    4.6362 H   0  0  0  0  0  0  0  0  0  0  0  0
    6.2703    4.7849    5.8604 H   0  0  0  0  0  0  0  0  0  0  0  0
    4.5550    4.6761    4.1933 H   0  0  0  0  0  0  0  0  0  0  0  0
    7.6752    3.8025    7.3848 H   0  0  0  0  0  0  0  0  0  0  0  0
    7.0741    2.4855    8.1402 H   0  0  0  0  0  0  0  0  0  0  0  0
    8.2118    2.3139    6.9813 H   0  0  0  0  0  0  0  0  0  0  0  0
    6.9222   -0.5704    4.7368 H   0  0  0  0  0  0  0  0  0  0  0  0
    9.0734   -1.4298    6.7087 H   0  0  0  0  0  0  0  0  0  0  0  0
    9.6409   -3.5329    7.7036 H   0  0  0  0  0  0  0  0  0  0  0  0
    7.9965   -5.2611    7.8611 H   0  0  0  0  0  0  0  0  0  0  0  0
    5.7896   -4.8907    7.0302 H   0  0  0  0  0  0  0  0  0  0  0  0
    5.2106   -2.7920    6.0330 H   0  0  0  0  0  0  0  0  0  0  0  0
    3.0251    0.4635    2.9455 H   0  0  0  0  0  0  0  0  0  0  0  0
   -0.2847   -2.2858   -2.3472 H   0  0  0  0  0  0  0  0  0  0  0  0
   -1.6706   -4.3661   -3.7530 H   0  0  0  0  0  0  0  0  0  0  0  0
   -4.4797   -3.1922   -6.4377 H   0  0  0  0  0  0  0  0  0  0  0  0
  1  2  1  0  0  0  0
  2  3  1  0  0  0  0
  3  4  1  0  0  0  0
  4  5  1  0  0  0  0
  5  6  1  0  0  0  0
  6  7  2  0  0  0  0
  6  8  1  0  0  0  0
  8  9  1  0  0  0  0
  9 10  1  0  0  0  0
 10 11  1  0  0  0  0
 11 12  1  0  0  0  0
 12 13  2  0  0  0  0
 13 14  1  0  0  0  0
 14 15  1  0  0  0  0
 15 16  1  0  0  0  0
 16 17  2  0  0  0  0
 17 18  1  0  0  0  0
 18 19  2  0  0  0  0
 19 20  1  0  0  0  0
 20 15  2  0  0  0  0
 18 21  1  0  0  0  0
 17 22  1  0  0  0  0
 22 23  2  0  0  0  0
 22 24  1  0  0  0  0
 24 25  1  0  0  0  0
 25 26  1  0  0  0  0
 26 27  2  0  0  0  0
 27 28  1  0  0  0  0
 28 29  2  0  0  0  0
 29 30  1  0  0  0  0
 30 25  2  0  0  0  0
 14 31  2  0  0  0  0
 31 11  1  0  0  0  0
  5 32  2  0  0  0  0
 32 33  1  0  0  0  0
 33  3  2  0  0  0  0
 33 34  1  0  0  0  0
 34 35  2  0  0  0  0
 35 36  1  0  0  0  0
 36  2  2  0  0  0  0
  8 37  1  0  0  0  0
  9 38  1  0  0  0  0
  9 39  1  0  0  0  0
 10 40  1  0  0  0  0
 10 41  1  0  0  0  0
 16 42  1  0  0  0  0
 19 43  1  0  0  0  0
 20 44  1  0  0  0  0
 21 45  1  0  0  0  0
 21 46  1  0  0  0  0
 21 47  1  0  0  0  0
 24 48  1  0  0  0  0
 26 49  1  0  0  0  0
 27 50  1  0  0  0  0
 28 51  1  0  0  0  0
 29 52  1  0  0  0  0
 30 53  1  0  0  0  0
 31 54  1  0  0  0  0
 32 55  1  0  0  0  0
 34 56  1  0  0  0  0
 36 57  1  0  0  0  0
M  END
>  <result-rank>
42

>  <similarity>
0.874

>  <query-name>


>  <query-smiles>
S1C(C(=O)NC2=Nc3c(N2CCC(=O)N)ccc(N(C(=O)c4ccccc4)C)c3)=CC=C1/C=C/c5ncc(N)cn5

>  <source>
REALspace_2019-12

>  <similarity-descriptor>
0.919;0.998;0.871;0.679;0.995;1.000;0.723;0.0;0.0;0.0;0.0;0.995;0.852;0.995;0.871;0.871;0.0;0.0

>  <similarity-descriptor-smiles>
c1cC=CS1;c1ccccc1;Brc1cnccc1;CN1C=CN=N1;c1ccccc1;C=O;NC;;;;;c1ccccc1;C(=O)N;C;Brc1cnccc1;Brc1cnccc1;;

>  <reaction-name>
m_274860b

>  <reagent1-name>
15234900

>  <reagent1-smiles>
[R1*]N=NN([R2*])CCN[R3*]

>  <reagent2-name>
17203280

>  <reagent2-smiles>
[R3*]C(=O)C=1Sc2c(Br)cncc2C1

>  <reagent3-name>
17179884

>  <reagent3-smiles>
[R1*]C(c1cc(c(cc1)C)C(=O)Nc2ccccc2)=C[R2*]

$$$$
s_265764____5183258____4562750
          04022017353D 1   1.00000     0.00000     0
            
 57 60  0  0  0  0            999 V2000
    4.4126   -1.2819   10.0225 Cl  0  0  0  0  0  0  0  0  0  0  0  0
    3.5838   -1.5560    8.4713 C   0  0  0  0  0  0  0  0  0  0  0  0
    4.0157   -0.8842    7.3327 C   0  0  0  0  0  0  0  0  0  0  0  0
    3.3582   -1.1078    6.1273 C   0  0  0  0  0  0  0  0  0  0  0  0
    2.2835   -1.9878    6.0524 C   0  0  0  0  0  0  0  0  0  0  0  0
    1.8674   -2.6499    7.2028 C   0  0  0  0  0  0  0  0  0  0  0  0
    2.5114   -2.4408    8.4179 C   0  0  0  0  0  0  0  0  0  0  0  0
    3.8062   -0.4091    4.9382 C   0  0  0  0  0  0  0  0  0  0  0  0
    4.4646    0.5888    5.0409 O   0  0  0  0  0  0  0  0  0  0  0  0
    3.4776   -0.8883    3.6975 N   0  0  0  0  0  0  0  0  0  0  0  0
    3.9317   -0.1800    2.4921 C   0  0  0  0  0  0  0  0  0  0  0  0
    3.3784    1.2345    2.4974 C   0  0  0  0  0  0  0  0  0  0  0  0
    4.0828    2.3380    2.4895 N   0  0  0  0  0  0  0  0  0  0  0  0
    3.2897    3.3251    2.4953 O   0  0  0  0  0  0  0  0  0  0  0  0
    2.0505    2.8931    2.5095 C   0  0  0  0  0  0  0  0  0  0  0  0
    2.0616    1.5822    2.5110 N   0  0  0  0  0  0  0  0  0  0  0  0
    0.8643    3.7277    2.5208 C   0  0  0  0  0  0  0  0  0  0  0  0
   -0.3931    3.1322    2.5354 C   0  0  0  0  0  0  0  0  0  0  0  0
   -1.5236    3.9425    2.5460 C   0  0  0  0  0  0  0  0  0  0  0  0
   -2.7829    3.3304    2.5609 N   0  0  0  0  0  0  0  0  0  0  0  0
   -3.1286    2.4997    3.5940 C   0  0  0  0  0  0  0  0  0  0  0  0
   -2.3522    2.2967    4.4862 O   0  0  0  0  0  0  0  0  0  0  0  0
   -4.4329    1.8657    3.6094 C   0  0  0  0  0  0  0  0  0  0  0  0
   -4.6396    0.7337    4.3908 C   0  0  0  0  0  0  0  0  0  0  0  0
   -5.8920    0.1282    4.4020 C   0  0  0  0  0  0  0  0  0  0  0  0
   -6.9265    0.6559    3.6364 C   0  0  0  0  0  0  0  0  0  0  0  0
   -6.7085    1.7873    2.8600 C   0  0  0  0  0  0  0  0  0  0  0  0
   -5.4607    2.4016    2.8398 C   0  0  0  0  0  0  0  0  0  0  0  0
   -1.3982    5.3287    2.5416 C   0  0  0  0  0  0  0  0  0  0  0  0
   -0.1354    5.9132    2.5273 C   0  0  0  0  0  0  0  0  0  0  0  0
    1.0019    5.1122    2.5167 C   0  0  0  0  0  0  0  0  0  0  0  0
   -2.6405    6.2040    2.5545 C   0  0  0  0  0  0  0  0  0  0  0  0
    3.4358   -0.9134    1.2565 C   0  0  0  0  0  0  0  0  0  0  0  0
    5.4508   -0.1298    2.4759 C   0  0  0  0  0  0  0  0  0  0  0  0
    4.7873   -0.2499    7.3798 H   0  0  0  0  0  0  0  0  0  0  0  0
    1.8157   -2.1426    5.1822 H   0  0  0  0  0  0  0  0  0  0  0  0
    1.0957   -3.2842    7.1557 H   0  0  0  0  0  0  0  0  0  0  0  0
    2.2078   -2.9198    9.2416 H   0  0  0  0  0  0  0  0  0  0  0  0
    2.9289   -1.7199    3.6119 H   0  0  0  0  0  0  0  0  0  0  0  0
   -0.4827    2.1362    2.5383 H   0  0  0  0  0  0  0  0  0  0  0  0
   -3.4299    3.4996    1.8174 H   0  0  0  0  0  0  0  0  0  0  0  0
   -3.8936    0.3579    4.9405 H   0  0  0  0  0  0  0  0  0  0  0  0
   -6.0485   -0.6865    4.9603 H   0  0  0  0  0  0  0  0  0  0  0  0
   -7.8270    0.2210    3.6449 H   0  0  0  0  0  0  0  0  0  0  0  0
   -7.4551    2.1632    2.3111 H   0  0  0  0  0  0  0  0  0  0  0  0
   -5.3047    3.2159    2.2807 H   0  0  0  0  0  0  0  0  0  0  0  0
   -0.0455    6.9091    2.5245 H   0  0  0  0  0  0  0  0  0  0  0  0
    1.9112    5.5283    2.5062 H   0  0  0  0  0  0  0  0  0  0  0  0
   -2.3700    7.1667    2.5493 H   0  0  0  0  0  0  0  0  0  0  0  0
   -3.1941    6.0089    1.7450 H   0  0  0  0  0  0  0  0  0  0  0  0
   -3.1747    6.0123    3.3778 H   0  0  0  0  0  0  0  0  0  0  0  0
    3.7447   -0.4315    0.4365 H   0  0  0  0  0  0  0  0  0  0  0  0
    3.8001   -1.8446    1.2529 H   0  0  0  0  0  0  0  0  0  0  0  0
    2.4364   -0.9464    1.2671 H   0  0  0  0  0  0  0  0  0  0  0  0
    5.7597    0.3520    1.6559 H   0  0  0  0  0  0  0  0  0  0  0  0
    5.7770    0.3526    3.2888 H   0  0  0  0  0  0  0  0  0  0  0  0
    5.8150   -1.0611    2.4724 H   0  0  0  0  0  0  0  0  0  0  0  0
  1  2  1  0  0  0  0
  2  3  1  0  0  0  0
  3  4  2  0  0  0  0
  4  5  1  0  0  0  0
  5  6  2  0  0  0  0
  6  7  1  0  0  0  0
  7  2  2  0  0  0  0
  4  8  1  0  0  0  0
  8  9  2  0  0  0  0
  8 10  1  0  0  0  0
 10 11  1  0  0  0  0
 11 12  1  0  0  0  0
 12 13  2  0  0  0  0
 13 14  1  0  0  0  0
 14 15  1  0  0  0  0
 15 16  2  0  0  0  0
 16 12  1  0  0  0  0
 15 17  1  0  0  0  0
 17 18  1  0  0  0  0
 18 19  2  0  0  0  0
 19 20  1  0  0  0  0
 20 21  1  0  0  0  0
 21 22  2  0  0  0  0
 21 23  1  0  0  0  0
 23 24  1  0  0  0  0
 24 25  2  0  0  0  0
 25 26  1  0  0  0  0
 26 27  2  0  0  0  0
 27 28  1  0  0  0  0
 28 23  2  0  0  0  0
 19 29  1  0  0  0  0
 29 30  2  0  0  0  0
 30 31  1  0  0  0  0
 31 17  2  0  0  0  0
 29 32  1  0  0  0  0
 11 33  1  0  0  0  0
 11 34  1  0  0  0  0
  3 35  1  0  0  0  0
  5 36  1  0  0  0  0
  6 37  1  0  0  0  0
  7 38  1  0  0  0  0
 10 39  1  0  0  0  0
 18 40  1  0  0  0  0
 20 41  1  0  0  0  0
 24 42  1  0  0  0  0
 25 43  1  0  0  0  0
 26 44  1  0  0  0  0
 27 45  1  0  0  0  0
 28 46  1  0  0  0  0
 30 47  1  0  0  0  0
 31 48  1  0  0  0  0
 32 49  1  0  0  0  0
 32 50  1  0  0  0  0
 32 51  1  0  0  0  0
 33 52  1  0  0  0  0
 33 53  1  0  0  0  0
 33 54  1  0  0  0  0
 34 55  1  0  0  0  0
 34 56  1  0  0  0  0
 34 57  1  0  0  0  0
M  END
>  <result-rank>
43

>  <similarity>
0.873

>  <query-name>


>  <query-smiles>
S1C(C(=O)NC2=Nc3c(N2CCC(=O)N)ccc(N(C(=O)c4ccccc4)C)c3)=CC=C1/C=C/c5ncc(N)cn5

>  <source>
REALspace_2019-12

>  <similarity-descriptor>
0.906;1.000;0.0;0.754;0.993;0.999;0.914;0.754;0.754;0.754;0.0;0.993;0.852;0.995;0.906;0.906;0.0;0.167

>  <similarity-descriptor-smiles>
Clc1ccccc1;c1ccccc1;;C=1N=CON1;c1ccccc1;C=O;NC;C=1N=CON1;C=1N=CON1;C=1N=CON1;;c1ccccc1;NC=O;C;Clc1ccccc1;Clc1ccccc1;;C.C

>  <reaction-name>
s_265764

>  <reagent1-name>
5183258

>  <reagent1-smiles>
[R1*]=NC(=NO[R2*])C(NC(=O)c1cc(Cl)ccc1)(C)C

>  <reagent2-name>
4562750

>  <reagent2-smiles>
[R1*]C([R2*])c1cc(NC(=O)c2ccccc2)c(cc1)C

$$$$
s_270196____8770012____10226310
          04022017353D 1   1.00000     0.00000     0
            
 55 59  0  0  0  0            999 V2000
    0.4000    2.0392    1.0014 O   0  0  0  0  0  0  0  0  0  0  0  0
    1.0000    1.0000    1.0000 C   0  0  0  0  0  0  0  0  0  0  0  0
    0.3150   -0.1865    0.9984 N   0  0  0  0  0  0  0  0  0  0  0  0
   -1.1550   -0.1865    0.9984 C   0  0  0  0  0  0  0  0  0  0  0  0
   -1.6617   -0.1845   -0.4348 C   0  0  0  0  0  0  0  0  0  0  0  0
   -1.8915   -1.3918   -1.0865 C   0  0  0  0  0  0  0  0  0  0  0  0
   -2.3542   -1.3843   -2.3980 C   0  0  0  0  0  0  0  0  0  0  0  0
   -2.5824   -0.1719   -3.0413 C   0  0  0  0  0  0  0  0  0  0  0  0
   -2.3546    1.0354   -2.3878 C   0  0  0  0  0  0  0  0  0  0  0  0
   -1.8904    1.0279   -1.0766 C   0  0  0  0  0  0  0  0  0  0  0  0
   -3.0868   -0.1702   -4.4755 C   0  0  0  0  0  0  0  0  0  0  0  0
    2.4499    1.0000    1.0000 C   0  0  0  0  0  0  0  0  0  0  0  0
    3.1346    2.1385    0.5874 C   0  0  0  0  0  0  0  0  0  0  0  0
    4.5254    2.1265    0.5937 C   0  0  0  0  0  0  0  0  0  0  0  0
    5.2307    0.9996    1.0032 C   0  0  0  0  0  0  0  0  0  0  0  0
    4.5242   -0.1268    1.4114 C   0  0  0  0  0  0  0  0  0  0  0  0
    3.1336   -0.1382    1.4141 C   0  0  0  0  0  0  0  0  0  0  0  0
    5.2469    3.3093    0.1648 C   0  0  0  0  0  0  0  0  0  0  0  0
    6.5501    3.4311    0.0687 N   0  0  0  0  0  0  0  0  0  0  0  0
    6.8198    4.6004   -0.3395 O   0  0  0  0  0  0  0  0  0  0  0  0
    5.7071    5.2699   -0.5184 C   0  0  0  0  0  0  0  0  0  0  0  0
    4.6984    4.4933   -0.2139 N   0  0  0  0  0  0  0  0  0  0  0  0
    5.6098    6.6418   -0.9783 C   0  0  0  0  0  0  0  0  0  0  0  0
    6.5608    7.1933   -1.8321 C   0  0  0  0  0  0  0  0  0  0  0  0
    7.6948    6.4233   -2.3028 C   0  0  0  0  0  0  0  0  0  0  0  0
    8.8859    6.4125   -1.5838 C   0  0  0  0  0  0  0  0  0  0  0  0
    9.9219    5.6928   -2.0397 N   0  0  0  0  0  0  0  0  0  0  0  0
    9.8351    4.9828   -3.1741 C   0  0  0  0  0  0  0  0  0  0  0  0
    8.6942    4.9829   -3.8795 N   0  0  0  0  0  0  0  0  0  0  0  0
    7.6224    5.6819   -3.4770 C   0  0  0  0  0  0  0  0  0  0  0  0
    6.4364    8.5128   -2.2523 C   0  0  0  0  0  0  0  0  0  0  0  0
    5.3598    9.2814   -1.8210 C   0  0  0  0  0  0  0  0  0  0  0  0
    4.4086    8.7306   -0.9683 C   0  0  0  0  0  0  0  0  0  0  0  0
    4.5338    7.4110   -0.5468 C   0  0  0  0  0  0  0  0  0  0  0  0
    0.8150   -1.0525    0.9972 H   0  0  0  0  0  0  0  0  0  0  0  0
   -1.4883    0.6294    1.4709 H   0  0  0  0  0  0  0  0  0  0  0  0
   -1.4883   -1.0036    1.4686 H   0  0  0  0  0  0  0  0  0  0  0  0
   -1.7253   -2.2582   -0.6157 H   0  0  0  0  0  0  0  0  0  0  0  0
   -2.5222   -2.2462   -2.8764 H   0  0  0  0  0  0  0  0  0  0  0  0
   -2.5233    1.9020   -2.8574 H   0  0  0  0  0  0  0  0  0  0  0  0
   -1.7221    1.8896   -0.5980 H   0  0  0  0  0  0  0  0  0  0  0  0
   -3.1984    0.7730   -4.7885 H   0  0  0  0  0  0  0  0  0  0  0  0
   -2.4267   -0.6400   -5.0616 H   0  0  0  0  0  0  0  0  0  0  0  0
   -3.9672   -0.6425   -4.5198 H   0  0  0  0  0  0  0  0  0  0  0  0
    2.6349    2.9524    0.2911 H   0  0  0  0  0  0  0  0  0  0  0  0
    6.2307    0.9993    1.0040 H   0  0  0  0  0  0  0  0  0  0  0  0
    5.0239   -0.9408    1.7075 H   0  0  0  0  0  0  0  0  0  0  0  0
    2.6330   -0.9520    1.7093 H   0  0  0  0  0  0  0  0  0  0  0  0
    8.9687    6.9360   -0.7358 H   0  0  0  0  0  0  0  0  0  0  0  0
   10.6208    4.4535   -3.4940 H   0  0  0  0  0  0  0  0  0  0  0  0
    6.7801    5.6701   -4.0159 H   0  0  0  0  0  0  0  0  0  0  0  0
    7.1206    8.9094   -2.8644 H   0  0  0  0  0  0  0  0  0  0  0  0
    5.2697   10.2302   -2.1241 H   0  0  0  0  0  0  0  0  0  0  0  0
    3.6350    9.2832   -0.6585 H   0  0  0  0  0  0  0  0  0  0  0  0
    3.8503    7.0151    0.0664 H   0  0  0  0  0  0  0  0  0  0  0  0
  1  2  2  0  0  0  0
  2  3  1  0  0  0  0
  3  4  1  0  0  0  0
  4  5  1  0  0  0  0
  5  6  1  0  0  0  0
  6  7  2  0  0  0  0
  7  8  1  0  0  0  0
  8  9  2  0  0  0  0
  9 10  1  0  0  0  0
 10  5  2  0  0  0  0
  8 11  1  0  0  0  0
  2 12  1  0  0  0  0
 12 13  1  0  0  0  0
 13 14  2  0  0  0  0
 14 15  1  0  0  0  0
 15 16  2  0  0  0  0
 16 17  1  0  0  0  0
 17 12  2  0  0  0  0
 14 18  1  0  0  0  0
 18 19  2  0  0  0  0
 19 20  1  0  0  0  0
 20 21  1  0  0  0  0
 21 22  2  0  0  0  0
 22 18  1  0  0  0  0
 21 23  1  0  0  0  0
 23 24  1  0  0  0  0
 24 25  1  0  0  0  0
 25 26  1  0  0  0  0
 26 27  2  0  0  0  0
 27 28  1  0  0  0  0
 28 29  2  0  0  0  0
 29 30  1  0  0  0  0
 30 25  2  0  0  0  0
 24 31  2  0  0  0  0
 31 32  1  0  0  0  0
 32 33  2  0  0  0  0
 33 34  1  0  0  0  0
 34 23  2  0  0  0  0
  3 35  1  0  0  0  0
  4 36  1  0  0  0  0
  4 37  1  0  0  0  0
  6 38  1  0  0  0  0
  7 39  1  0  0  0  0
  9 40  1  0  0  0  0
 10 41  1  0  0  0  0
 11 42  1  0  0  0  0
 11 43  1  0  0  0  0
 11 44  1  0  0  0  0
 13 45  1  0  0  0  0
 15 46  1  0  0  0  0
 16 47  1  0  0  0  0
 17 48  1  0  0  0  0
 26 49  1  0  0  0  0
 28 50  1  0  0  0  0
 30 51  1  0  0  0  0
 31 52  1  0  0  0  0
 32 53  1  0  0  0  0
 33 54  1  0  0  0  0
 34 55  1  0  0  0  0
M  END
>  <result-rank>
44

>  <similarity>
0.873

>  <query-name>


>  <query-smiles>
S1C(C(=O)NC2=Nc3c(N2CCC(=O)N)ccc(N(C(=O)c4ccccc4)C)c3)=CC=C1/C=C/c5ncc(N)cn5

>  <source>
REALspace_2019-12

>  <similarity-descriptor>
0.932;0.923;0.936;0.801;0.950;0.801;0.801;0.0;0.0;0.0;0.0;0.950;0.852;0.0;0.932;0.936;0.0;0.111

>  <similarity-descriptor-smiles>
c1ccccc1;Cc1ccccc1;c1cncnc1;C=1N=CON1;c1ccccc1;C=1N=CON1;C=1N=CON1;;;;;c1ccccc1;O=CN;;c1ccccc1;c1cncnc1;;C

>  <reaction-name>
s_270196

>  <reagent1-name>
8770012

>  <reagent1-smiles>
[R1*]=NC(=NO[R2*])c1cc(ccc1)C(=O)NCc2ccc(cc2)C

>  <reagent2-name>
10226310

>  <reagent2-smiles>
[R1*]C([R2*])c1c(c2cncnc2)cccc1

$$$$
s_22____13608224____12417762
          04022017353D 1   1.00000     0.00000     0
            
 56 60  0  0  0  0            999 V2000
    3.4065   -0.2152    0.3650 S   0  0  0  0  0  0  0  0  0  0  0  0
    2.3983    1.0000    1.0000 C   0  0  0  0  0  0  0  0  0  0  0  0
    3.1928    1.9183    1.4899 N   0  0  0  0  0  0  0  0  0  0  0  0
    4.5340    1.6728    1.3612 C   0  0  0  0  0  0  0  0  0  0  0  0
    5.5784    2.5492    1.8295 C   0  0  0  0  0  0  0  0  0  0  0  0
    6.9064    2.1841    1.6371 C   0  0  0  0  0  0  0  0  0  0  0  0
    7.9214    3.0226    2.0866 C   0  0  0  0  0  0  0  0  0  0  0  0
    7.5955    4.2162    2.7221 C   0  0  0  0  0  0  0  0  0  0  0  0
    8.5735    5.0371    3.1602 O   0  0  0  0  0  0  0  0  0  0  0  0
    9.0617    4.8979    4.4113 C   0  0  0  0  0  0  0  0  0  0  0  0
   10.0694    5.7470    4.8565 C   0  0  0  0  0  0  0  0  0  0  0  0
   10.5695    5.5983    6.1468 C   0  0  0  0  0  0  0  0  0  0  0  0
   10.0612    4.6073    6.9807 C   0  0  0  0  0  0  0  0  0  0  0  0
    9.0542    3.7611    6.5284 C   0  0  0  0  0  0  0  0  0  0  0  0
    8.5499    3.9042    5.2396 C   0  0  0  0  0  0  0  0  0  0  0  0
    6.2669    4.5810    2.9144 C   0  0  0  0  0  0  0  0  0  0  0  0
    5.2519    3.7426    2.4656 C   0  0  0  0  0  0  0  0  0  0  0  0
    4.8961    0.5148    0.7506 C   0  0  0  0  0  0  0  0  0  0  0  0
    1.0000    1.0000    1.0000 N   0  0  0  0  0  0  0  0  0  0  0  0
    0.3150    2.0515    1.5495 C   0  0  0  0  0  0  0  0  0  0  0  0
    0.8607    3.1094    1.7013 O   0  0  0  0  0  0  0  0  0  0  0  0
   -1.0639    1.8868    1.9461 C   0  0  0  0  0  0  0  0  0  0  0  0
   -1.8160    3.0448    2.0857 C   0  0  0  0  0  0  0  0  0  0  0  0
   -3.1385    2.8966    2.4804 C   0  0  0  0  0  0  0  0  0  0  0  0
   -3.7551    4.1534    2.5585 N   0  0  0  0  0  0  0  0  0  0  0  0
   -5.2138    4.3019    2.4500 C   0  0  3  0  0  0  0  0  0  0  0  0
   -5.8267    3.1308    1.6987 C   0  0  0  0  0  0  0  0  0  0  0  0
   -6.0860    2.0433    2.7227 C   0  0  0  0  0  0  0  0  0  0  0  0
   -7.2092    1.8102    3.1436 O   0  0  0  0  0  0  0  0  0  0  0  0
   -4.9716    1.3224    3.1750 N   0  0  0  0  0  0  0  0  0  0  0  0
   -3.6714    1.6104    2.7335 C   0  0  0  0  0  0  0  0  0  0  0  0
   -2.9085    0.4676    2.5743 C   0  0  0  0  0  0  0  0  0  0  0  0
   -1.5844    0.6185    2.1755 C   0  0  0  0  0  0  0  0  0  0  0  0
   -5.4924    5.6054    1.7191 C   0  0  0  0  0  0  0  0  0  0  0  0
    7.1303    1.3241    1.1786 H   0  0  0  0  0  0  0  0  0  0  0  0
    8.8795    2.7688    1.9535 H   0  0  0  0  0  0  0  0  0  0  0  0
   10.4316    6.4585    4.2544 H   0  0  0  0  0  0  0  0  0  0  0  0
   11.2944    6.2040    6.4747 H   0  0  0  0  0  0  0  0  0  0  0  0
   10.4210    4.5031    7.9079 H   0  0  0  0  0  0  0  0  0  0  0  0
    8.6923    3.0491    7.1301 H   0  0  0  0  0  0  0  0  0  0  0  0
    7.8256    3.2979    4.9114 H   0  0  0  0  0  0  0  0  0  0  0  0
    6.0429    5.4410    3.3728 H   0  0  0  0  0  0  0  0  0  0  0  0
    4.2938    3.9959    2.5992 H   0  0  0  0  0  0  0  0  0  0  0  0
    5.8182    0.1722    0.5703 H   0  0  0  0  0  0  0  0  0  0  0  0
    0.5000    0.2325    0.5989 H   0  0  0  0  0  0  0  0  0  0  0  0
   -1.4222    3.9470    1.9095 H   0  0  0  0  0  0  0  0  0  0  0  0
   -3.1897    4.9675    2.6910 H   0  0  0  0  0  0  0  0  0  0  0  0
   -5.6092    4.3477    3.3674 H   0  0  0  0  0  0  0  0  0  0  0  0
   -6.6847    3.4094    1.2671 H   0  0  0  0  0  0  0  0  0  0  0  0
   -5.1932    2.8010    0.9987 H   0  0  0  0  0  0  0  0  0  0  0  0
   -5.1077    0.5808    3.8319 H   0  0  0  0  0  0  0  0  0  0  0  0
   -3.2967   -0.4388    2.7408 H   0  0  0  0  0  0  0  0  0  0  0  0
   -1.0055   -0.1877    2.0534 H   0  0  0  0  0  0  0  0  0  0  0  0
   -6.4802    5.7333    1.6305 H   0  0  0  0  0  0  0  0  0  0  0  0
   -5.1027    6.3674    2.2363 H   0  0  0  0  0  0  0  0  0  0  0  0
   -5.0775    5.5729    0.8098 H   0  0  0  0  0  0  0  0  0  0  0  0
  1  2  1  0  0  0  0
  2  3  2  0  0  0  0
  3  4  1  0  0  0  0
  4  5  1  0  0  0  0
  5  6  1  0  0  0  0
  6  7  2  0  0  0  0
  7  8  1  0  0  0  0
  8  9  1  0  0  0  0
  9 10  1  0  0  0  0
 10 11  1  0  0  0  0
 11 12  2  0  0  0  0
 12 13  1  0  0  0  0
 13 14  2  0  0  0  0
 14 15  1  0  0  0  0
 15 10  2  0  0  0  0
  8 16  2  0  0  0  0
 16 17  1  0  0  0  0
 17  5  2  0  0  0  0
  4 18  2  0  0  0  0
 18  1  1  0  0  0  0
  2 19  1  0  0  0  0
 19 20  1  0  0  0  0
 20 21  2  0  0  0  0
 20 22  1  0  0  0  0
 22 23  1  0  0  0  0
 23 24  2  0  0  0  0
 24 25  1  0  0  0  0
 25 26  1  0  0  0  0
 26 27  1  0  0  0  0
 27 28  1  0  0  0  0
 28 29  2  0  0  0  0
 28 30  1  0  0  0  0
 30 31  1  0  0  0  0
 31 24  1  0  0  0  0
 31 32  2  0  0  0  0
 32 33  1  0  0  0  0
 33 22  2  0  0  0  0
 26 34  1  0  0  0  0
  6 35  1  0  0  0  0
  7 36  1  0  0  0  0
 11 37  1  0  0  0  0
 12 38  1  0  0  0  0
 13 39  1  0  0  0  0
 14 40  1  0  0  0  0
 15 41  1  0  0  0  0
 16 42  1  0  0  0  0
 17 43  1  0  0  0  0
 18 44  1  0  0  0  0
 19 45  1  0  0  0  0
 23 46  1  0  0  0  0
 25 47  1  0  0  0  0
 26 48  1  0  0  0  0
 27 49  1  0  0  0  0
 27 50  1  0  0  0  0
 30 51  1  0  0  0  0
 32 52  1  0  0  0  0
 33 53  1  0  0  0  0
 34 54  1  0  0  0  0
 34 55  1  0  0  0  0
 34 56  1  0  0  0  0
M  END
>  <result-rank>
45

>  <similarity>
0.873

>  <query-name>


>  <query-smiles>
S1C(C(=O)NC2=Nc3c(N2CCC(=O)N)ccc(N(C(=O)c4ccccc4)C)c3)=CC=C1/C=C/c5ncc(N)cn5

>  <source>
REALspace_2019-12

>  <similarity-descriptor>
0.931;0.998;0.869;0.873;0.948;0.999;1.000;0.873;0.0;0.0;0.0;0.948;0.156;0.0;0.931;0.869;0.869;0.111

>  <similarity-descriptor-smiles>
c1ccccc1;c1ccccc1;c1cNC(CCN1)=O;S1C=CN=C1;c1ccccc1;C=O;N;S1C=CN=C1;;;;c1ccccc1;O;;c1ccccc1;c1cNC(CCN1)=O;c1cNC(CCN1)=O;C

>  <reaction-name>
s_22

>  <reagent1-name>
13608224

>  <reagent1-smiles>
[R1*]NC=1SC=C(N1)c2ccc(Oc3ccccc3)cc2

>  <reagent2-name>
12417762

>  <reagent2-smiles>
[R1*]C(=O)c1cc2NC(CC(=O)Nc2cc1)C

$$$$
s_270196____8771044____8778218
          04022017353D 1   1.00000     0.00000     0
            
 50 54  0  0  0  0            999 V2000
   -3.3382   -1.3221    2.5402 Cl  0  0  0  0  0  0  0  0  0  0  0  0
   -2.2679    0.1005    2.5345 C   0  0  0  0  0  0  0  0  0  0  0  0
   -1.8665    0.6578    1.3247 C   0  0  0  0  0  0  0  0  0  0  0  0
   -1.0298    1.7687    1.3290 C   0  0  0  0  0  0  0  0  0  0  0  0
   -0.6055    2.3091    2.5385 C   0  0  0  0  0  0  0  0  0  0  0  0
    0.4406    3.6997    2.5340 S   0  0  0  0  0  0  0  0  0  0  0  0
    1.9779    2.8839    2.5130 C   0  0  0  0  0  0  0  0  0  0  0  0
    3.1753    3.5938    2.5035 C   0  0  0  0  0  0  0  0  0  0  0  0
    4.3913    2.9189    2.4880 C   0  0  0  0  0  0  0  0  0  0  0  0
    4.4147    1.5277    2.4812 C   0  0  0  0  0  0  0  0  0  0  0  0
    3.2158    0.8216    2.4897 C   0  0  0  0  0  0  0  0  0  0  0  0
    1.9973    1.4929    2.5059 C   0  0  0  0  0  0  0  0  0  0  0  0
    3.2290   -0.6987    2.4825 C   0  0  0  0  0  0  0  0  0  0  0  0
    3.1884    5.0440    2.5106 C   0  0  0  0  0  0  0  0  0  0  0  0
    3.7336    5.8107    3.4257 N   0  0  0  0  0  0  0  0  0  0  0  0
    3.5524    7.0225    3.1011 O   0  0  0  0  0  0  0  0  0  0  0  0
    2.8869    7.0794    1.9731 C   0  0  0  0  0  0  0  0  0  0  0  0
    2.6414    5.8584    1.5706 N   0  0  0  0  0  0  0  0  0  0  0  0
    2.4901    8.2930    1.2852 C   0  0  0  0  0  0  0  0  0  0  0  0
    1.7673    8.2533    0.0616 C   0  0  0  0  0  0  0  0  0  0  0  0
    1.4662    7.1798   -0.4346 O   0  0  0  0  0  0  0  0  0  0  0  0
    1.4191    9.4328   -0.5443 N   0  0  0  0  0  0  0  0  0  0  0  0
    1.7533   10.6435    0.0055 C   0  0  0  0  0  0  0  0  0  0  0  0
    1.3751   11.8799   -0.6526 C   0  0  0  0  0  0  0  0  0  0  0  0
    1.7215   13.0993   -0.0822 C   0  0  0  0  0  0  0  0  0  0  0  0
    1.3467   14.2689   -0.7346 C   0  0  0  0  0  0  0  0  0  0  0  0
    0.6659   14.2217   -1.8897 N   0  0  0  0  0  0  0  0  0  0  0  0
    0.3233   13.0544   -2.4546 C   0  0  0  0  0  0  0  0  0  0  0  0
    0.6693   11.8501   -1.8502 C   0  0  0  0  0  0  0  0  0  0  0  0
    2.4496   10.7088    1.1848 C   0  0  0  0  0  0  0  0  0  0  0  0
    2.8246    9.5029    1.8366 C   0  0  0  0  0  0  0  0  0  0  0  0
   -1.0053    1.7535    3.7492 C   0  0  0  0  0  0  0  0  0  0  0  0
   -1.8421    0.6424    3.7424 C   0  0  0  0  0  0  0  0  0  0  0  0
   -2.1769    0.2632    0.4598 H   0  0  0  0  0  0  0  0  0  0  0  0
   -0.7342    2.1776    0.4656 H   0  0  0  0  0  0  0  0  0  0  0  0
    5.2487    3.4335    2.4816 H   0  0  0  0  0  0  0  0  0  0  0  0
    5.2869    1.0387    2.4704 H   0  0  0  0  0  0  0  0  0  0  0  0
    1.1399    0.9782    2.5123 H   0  0  0  0  0  0  0  0  0  0  0  0
    4.1746   -1.0238    2.4708 H   0  0  0  0  0  0  0  0  0  0  0  0
    2.7693   -1.0400    3.3024 H   0  0  0  0  0  0  0  0  0  0  0  0
    2.7518   -1.0324    1.6695 H   0  0  0  0  0  0  0  0  0  0  0  0
    0.9108    9.4096   -1.4052 H   0  0  0  0  0  0  0  0  0  0  0  0
    2.2292   13.1348    0.7786 H   0  0  0  0  0  0  0  0  0  0  0  0
    1.5872   15.1550   -0.3384 H   0  0  0  0  0  0  0  0  0  0  0  0
   -0.1843   13.0498   -3.3162 H   0  0  0  0  0  0  0  0  0  0  0  0
    0.4149   10.9787   -2.2695 H   0  0  0  0  0  0  0  0  0  0  0  0
    2.6908   11.5945    1.5816 H   0  0  0  0  0  0  0  0  0  0  0  0
    3.3325    9.5368    2.6974 H   0  0  0  0  0  0  0  0  0  0  0  0
   -0.6949    2.1480    4.6141 H   0  0  0  0  0  0  0  0  0  0  0  0
   -2.1375    0.2334    4.6059 H   0  0  0  0  0  0  0  0  0  0  0  0
  1  2  1  0  0  0  0
  2  3  1  0  0  0  0
  3  4  2  0  0  0  0
  4  5  1  0  0  0  0
  5  6  1  0  0  0  0
  6  7  1  0  0  0  0
  7  8  1  0  0  0  0
  8  9  2  0  0  0  0
  9 10  1  0  0  0  0
 10 11  2  0  0  0  0
 11 12  1  0  0  0  0
 12  7  2  0  0  0  0
 11 13  1  0  0  0  0
  8 14  1  0  0  0  0
 14 15  2  0  0  0  0
 15 16  1  0  0  0  0
 16 17  1  0  0  0  0
 17 18  2  0  0  0  0
 18 14  1  0  0  0  0
 17 19  1  0  0  0  0
 19 20  1  0  0  0  0
 20 21  2  0  0  0  0
 20 22  1  0  0  0  0
 22 23  1  0  0  0  0
 23 24  1  0  0  0  0
 24 25  1  0  0  0  0
 25 26  2  0  0  0  0
 26 27  1  0  0  0  0
 27 28  2  0  0  0  0
 28 29  1  0  0  0  0
 29 24  2  0  0  0  0
 23 30  2  0  0  0  0
 30 31  1  0  0  0  0
 19 31  2  0  0  0  0
  5 32  2  0  0  0  0
 32 33  1  0  0  0  0
 33  2  2  0  0  0  0
  3 34  1  0  0  0  0
  4 35  1  0  0  0  0
  9 36  1  0  0  0  0
 10 37  1  0  0  0  0
 12 38  1  0  0  0  0
 13 39  1  0  0  0  0
 13 40  1  0  0  0  0
 13 41  1  0  0  0  0
 22 42  1  0  0  0  0
 25 43  1  0  0  0  0
 26 44  1  0  0  0  0
 28 45  1  0  0  0  0
 29 46  1  0  0  0  0
 30 47  1  0  0  0  0
 31 48  1  0  0  0  0
 32 49  1  0  0  0  0
 33 50  1  0  0  0  0
M  END
>  <result-rank>
46

>  <similarity>
0.873

>  <query-name>


>  <query-smiles>
S1C(C(=O)NC2=Nc3c(N2CCC(=O)N)ccc(N(C(=O)c4ccccc4)C)c3)=CC=C1/C=C/c5ncc(N)cn5

>  <source>
REALspace_2019-12

>  <similarity-descriptor>
0.915;0.952;0.874;0.753;0.995;0.915;0.915;0.753;0.753;0.753;0.0;0.995;0.425;0.995;0.915;0.874;0.0;0.0

>  <similarity-descriptor-smiles>
C1=CC=CNC1=O;Clc1ccccc1;c1ccncc1;C=1N=CON1;c1ccccc1;C1=CC=CNC1=O;C1=CC=CNC1=O;C=1N=CON1;C=1N=CON1;C=1N=CON1;;c1ccccc1;S;C;C1=CC=CNC1=O;c1ccncc1;;

>  <reaction-name>
s_270196

>  <reagent1-name>
8771044

>  <reagent1-smiles>
[R1*]=NC(=NO[R2*])c1c(Sc2ccc(Cl)cc2)cc(cc1)C

>  <reagent2-name>
8778218

>  <reagent2-smiles>
[R1*]C([R2*])C=1C(=O)NC(c2ccncc2)=CC1

$$$$
s_270196____8771036____8773914
          04022017353D 1   1.00000     0.00000     0
            
 50 54  0  0  0  0            999 V2000
    0.4406    3.6997    2.5340 S   0  0  0  0  0  0  0  0  0  0  0  0
    1.9779    2.8839    2.5130 C   0  0  0  0  0  0  0  0  0  0  0  0
    3.1753    3.5938    2.5035 C   0  0  0  0  0  0  0  0  0  0  0  0
    4.3913    2.9189    2.4880 C   0  0  0  0  0  0  0  0  0  0  0  0
    4.4147    1.5277    2.4812 C   0  0  0  0  0  0  0  0  0  0  0  0
    3.2158    0.8216    2.4897 C   0  0  0  0  0  0  0  0  0  0  0  0
    1.9973    1.4929    2.5059 C   0  0  0  0  0  0  0  0  0  0  0  0
    3.2290   -0.6987    2.4825 C   0  0  0  0  0  0  0  0  0  0  0  0
    3.1884    5.0440    2.5106 C   0  0  0  0  0  0  0  0  0  0  0  0
    4.1934    5.8093    2.8665 N   0  0  0  0  0  0  0  0  0  0  0  0
    3.8447    7.0216    2.7427 O   0  0  0  0  0  0  0  0  0  0  0  0
    2.6098    7.0802    2.3068 C   0  0  0  0  0  0  0  0  0  0  0  0
    2.1642    5.8599    2.1477 N   0  0  0  0  0  0  0  0  0  0  0  0
    1.8623    8.2949    2.0432 C   0  0  0  0  0  0  0  0  0  0  0  0
    0.4784    8.2371    1.9229 C   0  0  0  0  0  0  0  0  0  0  0  0
   -0.2123    9.4174    1.6758 C   0  0  0  0  0  0  0  0  0  0  0  0
   -1.6057    9.4677    1.5387 N   0  0  0  0  0  0  0  0  0  0  0  0
   -2.2022    9.9850    0.3831 C   0  0  0  0  0  0  0  0  0  0  0  0
   -3.4175   10.0521    0.2752 O   0  0  0  0  0  0  0  0  0  0  0  0
   -1.2769   10.4665   -0.7230 C   0  0  0  0  0  0  0  0  0  0  0  0
   -0.8973   11.9135   -0.4712 C   0  0  0  0  0  0  0  0  0  0  0  0
   -0.4220   11.9741    1.2702 S   0  0  0  0  0  0  0  0  0  0  0  0
    0.5436   10.5698    1.5726 C   0  0  0  0  0  0  0  0  0  0  0  0
    1.9219   10.6593    1.6860 C   0  0  0  0  0  0  0  0  0  0  0  0
    2.5901    9.4702    1.9296 C   0  0  0  0  0  0  0  0  0  0  0  0
   -0.6005    2.3144    2.6883 C   0  0  0  0  0  0  0  0  0  0  0  0
   -1.0772    1.6764    1.5477 C   0  0  0  0  0  0  0  0  0  0  0  0
   -1.9089    0.5695    1.6855 C   0  0  0  0  0  0  0  0  0  0  0  0
   -2.2610    0.1062    2.9488 C   0  0  0  0  0  0  0  0  0  0  0  0
   -1.7795    0.7520    4.0828 C   0  0  0  0  0  0  0  0  0  0  0  0
   -0.9472    1.8593    3.9567 C   0  0  0  0  0  0  0  0  0  0  0  0
    5.2487    3.4335    2.4816 H   0  0  0  0  0  0  0  0  0  0  0  0
    5.2869    1.0387    2.4704 H   0  0  0  0  0  0  0  0  0  0  0  0
    1.1399    0.9782    2.5123 H   0  0  0  0  0  0  0  0  0  0  0  0
    4.1746   -1.0238    2.4708 H   0  0  0  0  0  0  0  0  0  0  0  0
    2.7693   -1.0400    3.3024 H   0  0  0  0  0  0  0  0  0  0  0  0
    2.7518   -1.0324    1.6695 H   0  0  0  0  0  0  0  0  0  0  0  0
   -0.0079    7.3679    2.0119 H   0  0  0  0  0  0  0  0  0  0  0  0
   -2.1845    9.1277    2.2799 H   0  0  0  0  0  0  0  0  0  0  0  0
   -1.7442   10.3930   -1.6041 H   0  0  0  0  0  0  0  0  0  0  0  0
   -0.4510    9.9027   -0.7357 H   0  0  0  0  0  0  0  0  0  0  0  0
   -0.1310   12.1828   -1.0545 H   0  0  0  0  0  0  0  0  0  0  0  0
   -1.6760   12.5166   -0.6444 H   0  0  0  0  0  0  0  0  0  0  0  0
    2.4054   11.5302    1.5973 H   0  0  0  0  0  0  0  0  0  0  0  0
    3.5857    9.4595    2.0225 H   0  0  0  0  0  0  0  0  0  0  0  0
   -0.8251    2.0095    0.6392 H   0  0  0  0  0  0  0  0  0  0  0  0
   -2.2556    0.1041    0.8711 H   0  0  0  0  0  0  0  0  0  0  0  0
   -2.8592   -0.6897    3.0417 H   0  0  0  0  0  0  0  0  0  0  0  0
   -2.0324    0.4193    4.9912 H   0  0  0  0  0  0  0  0  0  0  0  0
   -0.6008    2.3246    4.7712 H   0  0  0  0  0  0  0  0  0  0  0  0
  1  2  1  0  0  0  0
  2  3  1  0  0  0  0
  3  4  2  0  0  0  0
  4  5  1  0  0  0  0
  5  6  2  0  0  0  0
  6  7  1  0  0  0  0
  7  2  2  0  0  0  0
  6  8  1  0  0  0  0
  3  9  1  0  0  0  0
  9 10  2  0  0  0  0
 10 11  1  0  0  0  0
 11 12  1  0  0  0  0
 12 13  2  0  0  0  0
 13  9  1  0  0  0  0
 12 14  1  0  0  0  0
 14 15  1  0  0  0  0
 15 16  2  0  0  0  0
 16 17  1  0  0  0  0
 17 18  1  0  0  0  0
 18 19  2  0  0  0  0
 18 20  1  0  0  0  0
 20 21  1  0  0  0  0
 21 22  1  0  0  0  0
 22 23  1  0  0  0  0
 23 16  1  0  0  0  0
 23 24  2  0  0  0  0
 24 25  1  0  0  0  0
 25 14  2  0  0  0  0
  1 26  1  0  0  0  0
 26 27  1  0  0  0  0
 27 28  2  0  0  0  0
 28 29  1  0  0  0  0
 29 30  2  0  0  0  0
 30 31  1  0  0  0  0
 31 26  2  0  0  0  0
  4 32  1  0  0  0  0
  5 33  1  0  0  0  0
  7 34  1  0  0  0  0
  8 35  1  0  0  0  0
  8 36  1  0  0  0  0
  8 37  1  0  0  0  0
 15 38  1  0  0  0  0
 17 39  1  0  0  0  0
 20 40  1  0  0  0  0
 20 41  1  0  0  0  0
 21 42  1  0  0  0  0
 21 43  1  0  0  0  0
 24 44  1  0  0  0  0
 25 45  1  0  0  0  0
 27 46  1  0  0  0  0
 28 47  1  0  0  0  0
 29 48  1  0  0  0  0
 30 49  1  0  0  0  0
 31 50  1  0  0  0  0
M  END
>  <result-rank>
47

>  <similarity>
0.873

>  <query-name>


>  <query-smiles>
S1C(C(=O)NC2=Nc3c(N2CCC(=O)N)ccc(N(C(=O)c4ccccc4)C)c3)=CC=C1/C=C/c5ncc(N)cn5

>  <source>
REALspace_2019-12

>  <similarity-descriptor>
0.931;0.999;0.850;0.801;0.995;0.801;0.801;0.0;0.0;0.0;0.0;0.995;0.425;0.995;0.931;0.850;0.850;0.0

>  <similarity-descriptor-smiles>
c1ccccc1;c1ccccc1;c1cSCCC(N1)=O;C=1N=CON1;c1ccccc1;C=1N=CON1;C=1N=CON1;;;;;c1ccccc1;S;C;c1ccccc1;c1cSCCC(N1)=O;c1cSCCC(N1)=O;

>  <reaction-name>
s_270196

>  <reagent1-name>
8771036

>  <reagent1-smiles>
[R1*]=NC(=NO[R2*])c1c(Sc2ccccc2)cc(cc1)C

>  <reagent2-name>
8773914

>  <reagent2-smiles>
[R1*]C([R2*])c1cc2NC(=O)CCSc2cc1

$$$$
m_271722____10195448____11367582
          04022017353D 1   1.00000     0.00000     0
            
 52 56  0  0  0  0            999 V2000
   -2.0637   -4.5382   -1.2685 Cl  0  0  0  0  0  0  0  0  0  0  0  0
   -1.1293   -3.2691   -0.4405 C   0  0  0  0  0  0  0  0  0  0  0  0
   -0.3635   -3.5862    0.6766 C   0  0  0  0  0  0  0  0  0  0  0  0
    0.3710   -2.6032    1.3313 C   0  0  0  0  0  0  0  0  0  0  0  0
    0.3272   -1.2983    0.8520 C   0  0  0  0  0  0  0  0  0  0  0  0
    1.0365   -0.3360    1.4797 O   0  0  0  0  0  0  0  0  0  0  0  0
    1.0000    1.0000    1.0000 C   0  0  0  0  0  0  0  0  0  0  0  0
    1.8778    1.8778    1.8778 C   0  0  0  0  0  0  0  0  0  0  0  0
    3.2214    2.0410    1.5554 C   0  0  0  0  0  0  0  0  0  0  0  0
    4.0287    2.8439    2.3540 C   0  0  0  0  0  0  0  0  0  0  0  0
    3.4804    3.4749    3.4660 C   0  0  0  0  0  0  0  0  0  0  0  0
    2.1378    3.3115    3.7896 C   0  0  0  0  0  0  0  0  0  0  0  0
    1.3307    2.5074    2.9916 C   0  0  0  0  0  0  0  0  0  0  0  0
    4.3171    4.3138    4.3015 C   0  0  0  0  0  0  0  0  0  0  0  0
    5.5932    4.5519    4.1122 O   0  0  0  0  0  0  0  0  0  0  0  0
    5.9800    5.3526    5.0776 C   0  0  0  0  0  0  0  0  0  0  0  0
    4.9562    5.6091    5.8570 N   0  0  0  0  0  0  0  0  0  0  0  0
    3.9202    4.9621    5.3724 N   0  0  0  0  0  0  0  0  0  0  0  0
    7.3232    5.8698    5.2558 C   0  0  0  0  0  0  0  0  0  0  0  0
    8.3276    5.5217    4.3585 C   0  0  0  0  0  0  0  0  0  0  0  0
    8.0561    4.7144    3.3364 F   0  0  0  0  0  0  0  0  0  0  0  0
    9.6188    6.0136    4.5214 C   0  0  0  0  0  0  0  0  0  0  0  0
    9.8897    6.8565    5.5944 C   0  0  0  0  0  0  0  0  0  0  0  0
   11.2311    7.3749    5.7747 C   0  0  0  0  0  0  0  0  0  0  0  0
   11.7088    7.6644    7.0489 C   0  0  0  0  0  0  0  0  0  0  0  0
   12.9535    8.1438    7.1907 N   0  0  0  0  0  0  0  0  0  0  0  0
   13.7483    8.3504    6.1306 C   0  0  0  0  0  0  0  0  0  0  0  0
   13.3031    8.0770    4.8951 N   0  0  0  0  0  0  0  0  0  0  0  0
   12.0685    7.5956    4.6867 C   0  0  0  0  0  0  0  0  0  0  0  0
    8.8945    7.2115    6.4994 C   0  0  0  0  0  0  0  0  0  0  0  0
    7.6077    6.7133    6.3249 C   0  0  0  0  0  0  0  0  0  0  0  0
   -0.4355   -0.9682   -0.2642 C   0  0  0  0  0  0  0  0  0  0  0  0
   -1.1657   -1.9605   -0.9107 C   0  0  0  0  0  0  0  0  0  0  0  0
   -0.3150   -5.0118    1.2018 C   0  0  0  0  0  0  0  0  0  0  0  0
    0.9220   -2.8310    2.1341 H   0  0  0  0  0  0  0  0  0  0  0  0
    0.0591    1.3378    1.0257 H   0  0  0  0  0  0  0  0  0  0  0  0
    1.3378    1.0257    0.0591 H   0  0  0  0  0  0  0  0  0  0  0  0
    3.6048    1.5832    0.7533 H   0  0  0  0  0  0  0  0  0  0  0  0
    4.9957    2.9666    2.1307 H   0  0  0  0  0  0  0  0  0  0  0  0
    1.7547    3.7697    4.5916 H   0  0  0  0  0  0  0  0  0  0  0  0
    0.3644    2.3826    3.2167 H   0  0  0  0  0  0  0  0  0  0  0  0
   10.3415    5.7648    3.8766 H   0  0  0  0  0  0  0  0  0  0  0  0
   11.1301    7.5165    7.8509 H   0  0  0  0  0  0  0  0  0  0  0  0
   14.6729    8.7083    6.2610 H   0  0  0  0  0  0  0  0  0  0  0  0
   11.7536    7.3976    3.7585 H   0  0  0  0  0  0  0  0  0  0  0  0
    9.1020    7.8181    7.2668 H   0  0  0  0  0  0  0  0  0  0  0  0
    6.8850    6.9621    6.9698 H   0  0  0  0  0  0  0  0  0  0  0  0
   -0.4585   -0.0261   -0.5986 H   0  0  0  0  0  0  0  0  0  0  0  0
   -1.7167   -1.7329   -1.7136 H   0  0  0  0  0  0  0  0  0  0  0  0
    0.2808   -5.0514    2.0040 H   0  0  0  0  0  0  0  0  0  0  0  0
   -1.2366   -5.3048    1.4563 H   0  0  0  0  0  0  0  0  0  0  0  0
    0.0427   -5.6170    0.4907 H   0  0  0  0  0  0  0  0  0  0  0  0
  1  2  1  0  0  0  0
  2  3  1  0  0  0  0
  3  4  2  0  0  0  0
  4  5  1  0  0  0  0
  5  6  1  0  0  0  0
  6  7  1  0  0  0  0
  7  8  1  0  0  0  0
  8  9  1  0  0  0  0
  9 10  2  0  0  0  0
 10 11  1  0  0  0  0
 11 12  2  0  0  0  0
 12 13  1  0  0  0  0
 13  8  2  0  0  0  0
 11 14  1  0  0  0  0
 14 15  1  0  0  0  0
 15 16  1  0  0  0  0
 16 17  2  0  0  0  0
 17 18  1  0  0  0  0
 14 18  2  0  0  0  0
 16 19  1  0  0  0  0
 19 20  1  0  0  0  0
 20 21  1  0  0  0  0
 20 22  2  0  0  0  0
 22 23  1  0  0  0  0
 23 24  1  0  0  0  0
 24 25  1  0  0  0  0
 25 26  2  0  0  0  0
 26 27  1  0  0  0  0
 27 28  2  0  0  0  0
 28 29  1  0  0  0  0
 29 24  2  0  0  0  0
 23 30  2  0  0  0  0
 30 31  1  0  0  0  0
 31 19  2  0  0  0  0
  5 32  2  0  0  0  0
 32 33  1  0  0  0  0
 33  2  2  0  0  0  0
  3 34  1  0  0  0  0
  4 35  1  0  0  0  0
  7 36  1  0  0  0  0
  7 37  1  0  0  0  0
  9 38  1  0  0  0  0
 10 39  1  0  0  0  0
 12 40  1  0  0  0  0
 13 41  1  0  0  0  0
 22 42  1  0  0  0  0
 25 43  1  0  0  0  0
 27 44  1  0  0  0  0
 29 45  1  0  0  0  0
 30 46  1  0  0  0  0
 31 47  1  0  0  0  0
 32 48  1  0  0  0  0
 33 49  1  0  0  0  0
 34 50  1  0  0  0  0
 34 51  1  0  0  0  0
 34 52  1  0  0  0  0
M  END
>  <result-rank>
48

>  <similarity>
0.873

>  <query-name>


>  <query-smiles>
S1C(C(=O)NC2=Nc3c(N2CCC(=O)N)ccc(N(C(=O)c4ccccc4)C)c3)=CC=C1/C=C/c5ncc(N)cn5

>  <source>
REALspace_2019-12

>  <similarity-descriptor>
0.966;0.932;0.936;0.805;0.941;0.805;0.805;0.0;0.0;0.0;0.0;0.934;0.506;0.934;0.966;0.936;0.0;0.125

>  <similarity-descriptor-smiles>
c1ccccc1F;Clc1ccccc1;c1cncnc1;C1=NN=CO1;c1ccccc1;C1=NN=CO1;C1=NN=CO1;;;;;C;O;C;c1ccccc1F;c1cncnc1;;C

>  <reaction-name>
m_271722

>  <reagent1-name>
10195448

>  <reagent1-smiles>
[R1*]=NN=C(O[R2*])c1ccc(cc1)COc2cc(c(Cl)cc2)C

>  <reagent2-name>
11367582

>  <reagent2-smiles>
[R1*]C([R2*])c1c(F)cc(c2cncnc2)cc1

$$$$
m_276010b____17281670____17259588____13624808
          04022017353D 1   1.00000     0.00000     0
            
 45 49  0  0  0  0            999 V2000
   -3.7219    5.0929    2.9701 Br  0  0  0  0  0  0  0  0  0  0  0  0
   -2.9697    3.3945    2.3439 C   0  0  0  0  0  0  0  0  0  0  0  0
   -3.7380    2.2335    2.3090 C   0  0  0  0  0  0  0  0  0  0  0  0
   -5.0225    2.2202    2.6994 N   0  0  0  0  0  0  0  0  0  0  0  0
   -5.7668    1.1044    2.6682 C   0  0  0  0  0  0  0  0  0  0  0  0
   -5.1892   -0.0778    2.2159 C   0  0  0  0  0  0  0  0  0  0  0  0
   -3.9063   -0.0645    1.8253 N   0  0  0  0  0  0  0  0  0  0  0  0
   -3.1596    1.0506    1.8559 C   0  0  0  0  0  0  0  0  0  0  0  0
   -1.8300    1.0413    1.4453 C   0  0  0  0  0  0  0  0  0  0  0  0
   -1.0684    2.2044    1.4821 C   0  0  0  0  0  0  0  0  0  0  0  0
   -1.6403    3.3897    1.9339 C   0  0  0  0  0  0  0  0  0  0  0  0
    0.3150    2.1853    1.0517 C   0  0  0  0  0  0  0  0  0  0  0  0
    0.8607    3.2077    0.7405 O   0  0  0  0  0  0  0  0  0  0  0  0
    1.0000    1.0000    1.0000 N   0  0  0  0  0  0  0  0  0  0  0  0
    2.4006    1.0000    1.0000 C   0  0  0  0  0  0  0  0  0  0  0  0
    3.1015    0.1140    0.1883 C   0  0  0  0  0  0  0  0  0  0  0  0
    4.4921    0.1379    0.2108 C   0  0  0  0  0  0  0  0  0  0  0  0
    5.1443    1.0019    1.0029 N   0  0  0  0  0  0  0  0  0  0  0  0
    4.4864    1.8640    1.7920 C   0  0  0  0  0  0  0  0  0  0  0  0
    3.0960    1.8882    1.8141 C   0  0  0  0  0  0  0  0  0  0  0  0
    5.1832   -0.7594   -0.6116 N   0  0  0  0  0  0  0  0  0  0  0  0
    4.6911   -1.8628   -1.1197 N   0  0  0  0  0  0  0  0  0  0  0  0
    5.5552   -2.4632   -1.8175 N   0  0  0  0  0  0  0  0  0  0  0  0
    6.7009   -1.7267   -1.7901 C   0  0  0  0  0  0  0  0  0  0  0  0
    7.9444   -2.0537   -2.4610 C   0  0  0  0  0  0  0  0  0  0  0  0
    9.0369   -1.2011   -2.3414 C   0  0  0  0  0  0  0  0  0  0  0  0
   10.2275   -1.5182   -2.9874 C   0  0  0  0  0  0  0  0  0  0  0  0
   10.3195   -2.6812   -3.7448 C   0  0  0  0  0  0  0  0  0  0  0  0
    9.2218   -3.5256   -3.8568 C   0  0  0  0  0  0  0  0  0  0  0  0
    8.0256   -3.2194   -3.2163 C   0  0  0  0  0  0  0  0  0  0  0  0
    6.4748   -0.6328   -1.0171 C   0  0  0  0  0  0  0  0  0  0  0  0
   -6.7214    1.1221    2.9654 H   0  0  0  0  0  0  0  0  0  0  0  0
   -5.7218   -0.9235    2.1827 H   0  0  0  0  0  0  0  0  0  0  0  0
   -1.4180    0.1899    1.1206 H   0  0  0  0  0  0  0  0  0  0  0  0
   -1.1004    4.2309    1.9636 H   0  0  0  0  0  0  0  0  0  0  0  0
    0.5000    0.1348    0.9623 H   0  0  0  0  0  0  0  0  0  0  0  0
    2.6137   -0.5294   -0.4017 H   0  0  0  0  0  0  0  0  0  0  0  0
    5.0013    2.4963    2.3709 H   0  0  0  0  0  0  0  0  0  0  0  0
    2.6062    2.5310    2.4032 H   0  0  0  0  0  0  0  0  0  0  0  0
    8.9671   -0.3664   -1.7952 H   0  0  0  0  0  0  0  0  0  0  0  0
   11.0172   -0.9100   -2.9072 H   0  0  0  0  0  0  0  0  0  0  0  0
   11.1754   -2.9094   -4.2087 H   0  0  0  0  0  0  0  0  0  0  0  0
    9.2923   -4.3606   -4.4026 H   0  0  0  0  0  0  0  0  0  0  0  0
    7.2361   -3.8277   -3.2974 H   0  0  0  0  0  0  0  0  0  0  0  0
    7.1158    0.1021   -0.7956 H   0  0  0  0  0  0  0  0  0  0  0  0
  1  2  1  0  0  0  0
  2  3  1  0  0  0  0
  3  4  2  0  0  0  0
  4  5  1  0  0  0  0
  5  6  2  0  0  0  0
  6  7  1  0  0  0  0
  7  8  2  0  0  0  0
  8  3  1  0  0  0  0
  8  9  1  0  0  0  0
  9 10  2  0  0  0  0
 10 11  1  0  0  0  0
 11  2  2  0  0  0  0
 10 12  1  0  0  0  0
 12 13  2  0  0  0  0
 12 14  1  0  0  0  0
 14 15  1  0  0  0  0
 15 16  1  0  0  0  0
 16 17  2  0  0  0  0
 17 18  1  0  0  0  0
 18 19  2  0  0  0  0
 19 20  1  0  0  0  0
 20 15  2  0  0  0  0
 17 21  1  0  0  0  0
 21 22  1  0  0  0  0
 22 23  2  0  0  0  0
 23 24  1  0  0  0  0
 24 25  1  0  0  0  0
 25 26  1  0  0  0  0
 26 27  2  0  0  0  0
 27 28  1  0  0  0  0
 28 29  2  0  0  0  0
 29 30  1  0  0  0  0
 30 25  2  0  0  0  0
 24 31  2  0  0  0  0
 31 21  1  0  0  0  0
  5 32  1  0  0  0  0
  6 33  1  0  0  0  0
  9 34  1  0  0  0  0
 11 35  1  0  0  0  0
 14 36  1  0  0  0  0
 16 37  1  0  0  0  0
 19 38  1  0  0  0  0
 20 39  1  0  0  0  0
 26 40  1  0  0  0  0
 27 41  1  0  0  0  0
 28 42  1  0  0  0  0
 29 43  1  0  0  0  0
 30 44  1  0  0  0  0
 31 45  1  0  0  0  0
M  END
>  <result-rank>
49

>  <similarity>
0.872

>  <query-name>


>  <query-smiles>
S1C(C(=O)NC2=Nc3c(N2CCC(=O)N)ccc(N(C(=O)c4ccccc4)C)c3)=CC=C1/C=C/c5ncc(N)cn5

>  <source>
REALspace_2019-12

>  <similarity-descriptor>
0.998;1.000;0.919;0.777;0.777;0.999;1.000;0.0;0.0;0.0;0.0;0.722;0.722;0.722;0.998;0.919;0.0;0.0

>  <similarity-descriptor-smiles>
Brc1ccccc1;c1ccccc1;c1cnccn1;c1ccncc1;c1ccncc1;C=O;N;;;;;N1C=CN=N1;N1C=CN=N1;N1C=CN=N1;Brc1ccccc1;c1cnccn1;;

>  <reaction-name>
m_276010b

>  <reagent1-name>
17281670

>  <reagent1-smiles>
[R1*]N=NN([R2*])c1nccc(N[R3*])c1

>  <reagent2-name>
17259588

>  <reagent2-smiles>
[R3*]C(=O)c1cc(Br)c2nccnc2c1

>  <reagent3-name>
13624808

>  <reagent3-smiles>
[R1*]C(c1ccccc1)=C[R2*]

$$$$
m_276096____15506918____13711158
          04022017353D 1   1.00000     0.00000     0
            
 56 60  0  0  0  0            999 V2000
    3.3287    3.5724    2.4687 S   0  0  0  0  0  0  0  0  0  0  0  0
    4.2262    2.1265    2.4440 C   0  0  0  0  0  0  0  0  0  0  0  0
    3.3528    1.1511    2.4644 N   0  0  0  0  0  0  0  0  0  0  0  0
    2.0377    1.5325    2.4911 C   0  0  0  0  0  0  0  0  0  0  0  0
    0.9124    0.6182    2.5170 C   0  0  0  0  0  0  0  0  0  0  0  0
    1.0361   -0.6275    1.9099 C   0  0  0  0  0  0  0  0  0  0  0  0
   -0.0378   -1.5114    1.9295 C   0  0  0  0  0  0  0  0  0  0  0  0
   -1.2229   -1.1384    2.5553 C   0  0  0  0  0  0  0  0  0  0  0  0
   -2.3085   -2.0211    2.5796 N   0  0  0  0  0  0  0  0  0  0  0  0
   -2.1813   -3.2493    3.1732 C   0  0  0  0  0  0  0  0  0  0  0  0
   -1.4252   -3.3954    4.0935 O   0  0  0  0  0  0  0  0  0  0  0  0
   -2.9604   -4.3728    2.6894 C   0  0  0  0  0  0  0  0  0  0  0  0
   -3.1595   -5.4778    3.5104 C   0  0  0  0  0  0  0  0  0  0  0  0
   -3.9067   -6.5537    3.0420 C   0  0  0  0  0  0  0  0  0  0  0  0
   -4.4495   -6.5187    1.7618 C   0  0  0  0  0  0  0  0  0  0  0  0
   -4.2445   -5.4093    0.9507 C   0  0  0  0  0  0  0  0  0  0  0  0
   -3.4986   -4.3275    1.4072 C   0  0  0  0  0  0  0  0  0  0  0  0
   -1.3459    0.1077    3.1622 C   0  0  0  0  0  0  0  0  0  0  0  0
   -0.2719    0.9916    3.1428 C   0  0  0  0  0  0  0  0  0  0  0  0
    1.7793    2.8660    2.4982 C   0  0  0  0  0  0  0  0  0  0  0  0
    5.6199    2.0170    2.4168 N   0  0  0  0  0  0  0  0  0  0  0  0
    6.4523    3.2286    2.4073 C   0  0  0  0  0  0  0  0  0  0  0  0
    7.8870    2.8603    2.7491 C   0  0  0  0  0  0  0  0  0  0  0  0
    8.9089    3.8039    2.7102 C   0  0  0  0  0  0  0  0  0  0  0  0
    8.6527    5.1828    2.3416 C   0  0  0  0  0  0  0  0  0  0  0  0
    8.3217    5.5352    1.0370 C   0  0  0  0  0  0  0  0  0  0  0  0
    8.0859    6.8134    0.7066 N   0  0  0  0  0  0  0  0  0  0  0  0
    8.1612    7.7930    1.6197 C   0  0  0  0  0  0  0  0  0  0  0  0
    8.4878    7.5061    2.9410 C   0  0  0  0  0  0  0  0  0  0  0  0
    8.7352    6.1858    3.3016 C   0  0  0  0  0  0  0  0  0  0  0  0
   10.2107    3.4329    3.0295 C   0  0  0  0  0  0  0  0  0  0  0  0
   10.4911    2.1177    3.3877 C   0  0  0  0  0  0  0  0  0  0  0  0
    9.4698    1.1741    3.4250 C   0  0  0  0  0  0  0  0  0  0  0  0
    8.1677    1.5454    3.1061 C   0  0  0  0  0  0  0  0  0  0  0  0
    1.8920   -0.8859    1.4621 H   0  0  0  0  0  0  0  0  0  0  0  0
    0.0416   -2.4093    1.4965 H   0  0  0  0  0  0  0  0  0  0  0  0
   -3.1780   -1.7552    2.1633 H   0  0  0  0  0  0  0  0  0  0  0  0
   -2.7685   -5.4988    4.4305 H   0  0  0  0  0  0  0  0  0  0  0  0
   -4.0537   -7.3522    3.6257 H   0  0  0  0  0  0  0  0  0  0  0  0
   -4.9872   -7.2917    1.4253 H   0  0  0  0  0  0  0  0  0  0  0  0
   -4.6364   -5.3885    0.0309 H   0  0  0  0  0  0  0  0  0  0  0  0
   -3.3516   -3.5295    0.8227 H   0  0  0  0  0  0  0  0  0  0  0  0
   -2.2018    0.3665    3.6099 H   0  0  0  0  0  0  0  0  0  0  0  0
   -0.3510    1.8894    3.5760 H   0  0  0  0  0  0  0  0  0  0  0  0
    0.8906    3.3240    2.5164 H   0  0  0  0  0  0  0  0  0  0  0  0
    6.0504    1.1145    2.4039 H   0  0  0  0  0  0  0  0  0  0  0  0
    6.1044    3.8773    3.0842 H   0  0  0  0  0  0  0  0  0  0  0  0
    6.4226    3.6463    1.4992 H   0  0  0  0  0  0  0  0  0  0  0  0
    8.2587    4.8252    0.3356 H   0  0  0  0  0  0  0  0  0  0  0  0
    7.9809    8.7384    1.3480 H   0  0  0  0  0  0  0  0  0  0  0  0
    8.5439    8.2374    3.6207 H   0  0  0  0  0  0  0  0  0  0  0  0
    8.9711    5.9587    4.2465 H   0  0  0  0  0  0  0  0  0  0  0  0
   10.9451    4.1111    3.0016 H   0  0  0  0  0  0  0  0  0  0  0  0
   11.4269    1.8510    3.6183 H   0  0  0  0  0  0  0  0  0  0  0  0
    9.6716    0.2287    3.6811 H   0  0  0  0  0  0  0  0  0  0  0  0
    7.4334    0.8672    3.1334 H   0  0  0  0  0  0  0  0  0  0  0  0
  1  2  1  0  0  0  0
  2  3  2  0  0  0  0
  3  4  1  0  0  0  0
  4  5  1  0  0  0  0
  5  6  1  0  0  0  0
  6  7  2  0  0  0  0
  7  8  1  0  0  0  0
  8  9  1  0  0  0  0
  9 10  1  0  0  0  0
 10 11  2  0  0  0  0
 10 12  1  0  0  0  0
 12 13  1  0  0  0  0
 13 14  2  0  0  0  0
 14 15  1  0  0  0  0
 15 16  2  0  0  0  0
 16 17  1  0  0  0  0
 17 12  2  0  0  0  0
  8 18  2  0  0  0  0
 18 19  1  0  0  0  0
 19  5  2  0  0  0  0
  4 20  2  0  0  0  0
 20  1  1  0  0  0  0
  2 21  1  0  0  0  0
 21 22  1  0  0  0  0
 22 23  1  0  0  0  0
 23 24  1  0  0  0  0
 24 25  1  0  0  0  0
 25 26  1  0  0  0  0
 26 27  2  0  0  0  0
 27 28  1  0  0  0  0
 28 29  2  0  0  0  0
 29 30  1  0  0  0  0
 30 25  2  0  0  0  0
 24 31  2  0  0  0  0
 31 32  1  0  0  0  0
 32 33  2  0  0  0  0
 33 34  1  0  0  0  0
 34 23  2  0  0  0  0
  6 35  1  0  0  0  0
  7 36  1  0  0  0  0
  9 37  1  0  0  0  0
 13 38  1  0  0  0  0
 14 39  1  0  0  0  0
 15 40  1  0  0  0  0
 16 41  1  0  0  0  0
 17 42  1  0  0  0  0
 18 43  1  0  0  0  0
 19 44  1  0  0  0  0
 20 45  1  0  0  0  0
 21 46  1  0  0  0  0
 22 47  1  0  0  0  0
 22 48  1  0  0  0  0
 26 49  1  0  0  0  0
 28 50  1  0  0  0  0
 29 51  1  0  0  0  0
 30 52  1  0  0  0  0
 31 53  1  0  0  0  0
 32 54  1  0  0  0  0
 33 55  1  0  0  0  0
 34 56  1  0  0  0  0
M  END
>  <result-rank>
50

>  <similarity>
0.872

>  <query-name>


>  <query-smiles>
S1C(C(=O)NC2=Nc3c(N2CCC(=O)N)ccc(N(C(=O)c4ccccc4)C)c3)=CC=C1/C=C/c5ncc(N)cn5

>  <source>
REALspace_2019-12

>  <similarity-descriptor>
0.932;1.000;0.874;0.873;0.948;0.286;0.990;0.873;0.0;0.0;0.0;0.948;0.852;0.0;0.932;0.874;0.0;0.0

>  <similarity-descriptor-smiles>
c1ccccc1;c1ccccc1;c1cccnc1;S1C=CN=C1;c1ccccc1;C;N;S1C=CN=C1;;;;c1ccccc1;NC=O;;c1ccccc1;c1cccnc1;;

>  <reaction-name>
m_276096

>  <reagent1-name>
15506918

>  <reagent1-smiles>
[R1*]SC(=N[R2*])NCc1c(c2cnccc2)cccc1

>  <reagent2-name>
13711158

>  <reagent2-smiles>
[R2*]C(c1ccc(NC(=O)c2ccccc2)cc1)=C[R1*]

$$$$
s_270196____10804396____8776130
          04022017353D 1   1.00000     0.00000     0
            
 49 53  0  0  0  0            999 V2000
   -1.9215   -5.0183    2.5052 S   0  0  0  0  0  0  0  0  0  0  0  0
   -0.2226   -4.9376    2.4961 C   0  0  0  0  0  0  0  0  0  0  0  0
    0.2280   -6.2395    2.4843 C   0  0  0  0  0  0  0  0  0  0  0  0
   -0.7729   -7.1833    2.4904 N   0  0  0  0  0  0  0  0  0  0  0  0
   -1.9979   -6.7195    2.5020 C   0  0  0  0  0  0  0  0  0  0  0  0
   -3.2878   -7.5261    2.5119 C   0  0  0  0  0  0  0  0  0  0  0  0
   -3.6751   -7.7583    1.2609 F   0  0  0  0  0  0  0  0  0  0  0  0
   -3.0822   -8.6833    3.1344 F   0  0  0  0  0  0  0  0  0  0  0  0
   -4.2337   -6.8419    3.1490 F   0  0  0  0  0  0  0  0  0  0  0  0
    1.6181   -6.3130    2.4683 C   0  0  0  0  0  0  0  0  0  0  0  0
    2.4219   -5.1757    2.4659 C   0  0  0  0  0  0  0  0  0  0  0  0
    1.8739   -3.8958    2.4796 C   0  0  0  0  0  0  0  0  0  0  0  0
    0.4972   -3.7550    2.4938 C   0  0  0  0  0  0  0  0  0  0  0  0
    2.6599   -2.6781    2.4792 C   0  0  0  0  0  0  0  0  0  0  0  0
    3.9699   -2.6000    2.4670 N   0  0  0  0  0  0  0  0  0  0  0  0
    4.3041   -1.3773    2.4683 O   0  0  0  0  0  0  0  0  0  0  0  0
    3.2280   -0.6288    2.4827 C   0  0  0  0  0  0  0  0  0  0  0  0
    2.1766   -1.4082    2.4886 N   0  0  0  0  0  0  0  0  0  0  0  0
    3.2062    0.8215    2.4897 C   0  0  0  0  0  0  0  0  0  0  0  0
    1.9856    1.4890    2.5053 C   0  0  0  0  0  0  0  0  0  0  0  0
    1.9769    2.8800    2.5117 C   0  0  0  0  0  0  0  0  0  0  0  0
    0.7417    3.5392    2.5275 N   0  0  0  0  0  0  0  0  0  0  0  0
   -0.2488    3.1179    3.3750 C   0  0  0  0  0  0  0  0  0  0  0  0
    0.0255    2.4498    4.3333 O   0  0  0  0  0  0  0  0  0  0  0  0
   -1.6288    3.4794    3.1140 C   0  0  0  0  0  0  0  0  0  0  0  0
   -2.6559    2.7416    3.6935 C   0  0  0  0  0  0  0  0  0  0  0  0
   -3.9782    3.0913    3.4398 C   0  0  0  0  0  0  0  0  0  0  0  0
   -4.2654    4.1725    2.6131 C   0  0  0  0  0  0  0  0  0  0  0  0
   -3.2314    4.9025    2.0402 C   0  0  0  0  0  0  0  0  0  0  0  0
   -1.9050    4.5625    2.2856 C   0  0  0  0  0  0  0  0  0  0  0  0
    3.1722    3.5930    2.5023 C   0  0  0  0  0  0  0  0  0  0  0  0
    4.3872    2.9146    2.4871 C   0  0  0  0  0  0  0  0  0  0  0  0
    4.4074    1.5237    2.4807 C   0  0  0  0  0  0  0  0  0  0  0  0
    3.1505    5.1125    2.5107 C   0  0  0  0  0  0  0  0  0  0  0  0
    2.0542   -7.2129    2.4582 H   0  0  0  0  0  0  0  0  0  0  0  0
    3.4163   -5.2808    2.4539 H   0  0  0  0  0  0  0  0  0  0  0  0
    0.0524   -2.8594    2.5019 H   0  0  0  0  0  0  0  0  0  0  0  0
    1.1270    0.9763    2.5117 H   0  0  0  0  0  0  0  0  0  0  0  0
    0.5826    4.3175    1.9201 H   0  0  0  0  0  0  0  0  0  0  0  0
   -2.4453    1.9656    4.2879 H   0  0  0  0  0  0  0  0  0  0  0  0
   -4.7223    2.5654    3.8517 H   0  0  0  0  0  0  0  0  0  0  0  0
   -5.2159    4.4243    2.4312 H   0  0  0  0  0  0  0  0  0  0  0  0
   -3.4424    5.6790    1.4464 H   0  0  0  0  0  0  0  0  0  0  0  0
   -1.1614    5.0886    1.8729 H   0  0  0  0  0  0  0  0  0  0  0  0
    5.2458    3.4271    2.4808 H   0  0  0  0  0  0  0  0  0  0  0  0
    5.2783    1.0324    2.4696 H   0  0  0  0  0  0  0  0  0  0  0  0
    4.0884    5.4593    2.5022 H   0  0  0  0  0  0  0  0  0  0  0  0
    2.6653    5.4434    1.7013 H   0  0  0  0  0  0  0  0  0  0  0  0
    2.6834    5.4346    3.3342 H   0  0  0  0  0  0  0  0  0  0  0  0
  1  2  1  0  0  0  0
  2  3  1  0  0  0  0
  3  4  1  0  0  0  0
  4  5  2  0  0  0  0
  5  1  1  0  0  0  0
  5  6  1  0  0  0  0
  6  7  1  0  0  0  0
  6  8  1  0  0  0  0
  6  9  1  0  0  0  0
  3 10  2  0  0  0  0
 10 11  1  0  0  0  0
 11 12  2  0  0  0  0
 12 13  1  0  0  0  0
 13  2  2  0  0  0  0
 12 14  1  0  0  0  0
 14 15  2  0  0  0  0
 15 16  1  0  0  0  0
 16 17  1  0  0  0  0
 17 18  2  0  0  0  0
 18 14  1  0  0  0  0
 17 19  1  0  0  0  0
 19 20  1  0  0  0  0
 20 21  2  0  0  0  0
 21 22  1  0  0  0  0
 22 23  1  0  0  0  0
 23 24  2  0  0  0  0
 23 25  1  0  0  0  0
 25 26  1  0  0  0  0
 26 27  2  0  0  0  0
 27 28  1  0  0  0  0
 28 29  2  0  0  0  0
 29 30  1  0  0  0  0
 30 25  2  0  0  0  0
 21 31  1  0  0  0  0
 31 32  2  0  0  0  0
 32 33  1  0  0  0  0
 33 19  2  0  0  0  0
 31 34  1  0  0  0  0
 10 35  1  0  0  0  0
 11 36  1  0  0  0  0
 13 37  1  0  0  0  0
 20 38  1  0  0  0  0
 22 39  1  0  0  0  0
 26 40  1  0  0  0  0
 27 41  1  0  0  0  0
 28 42  1  0  0  0  0
 29 43  1  0  0  0  0
 30 44  1  0  0  0  0
 32 45  1  0  0  0  0
 33 46  1  0  0  0  0
 34 47  1  0  0  0  0
 34 48  1  0  0  0  0
 34 49  1  0  0  0  0
M  END
>  <result-rank>
51

>  <similarity>
0.872

>  <query-name>


>  <query-smiles>
S1C(C(=O)NC2=Nc3c(N2CCC(=O)N)ccc(N(C(=O)c4ccccc4)C)c3)=CC=C1/C=C/c5ncc(N)cn5

>  <source>
REALspace_2019-12

>  <similarity-descriptor>
0.874;1.000;0.819;0.801;0.993;0.801;0.801;0.0;0.0;0.0;0.0;0.993;0.852;0.995;0.874;0.874;0.0;0.0

>  <similarity-descriptor-smiles>
c1ccccc1;c1ccccc1;S1C(=Ncc1)C(F)(F)F;C=1N=CON1;c1ccccc1;C=1N=CON1;C=1N=CON1;;;;;c1ccccc1;NC=O;C;c1ccccc1;c1ccccc1;;

>  <reaction-name>
s_270196

>  <reagent1-name>
10804396

>  <reagent1-smiles>
[R1*]=NC(=NO[R2*])c1cc2SC(=Nc2cc1)C(F)(F)F

>  <reagent2-name>
8776130

>  <reagent2-smiles>
[R1*]C([R2*])c1cc(NC(=O)c2ccccc2)c(cc1)C

$$$$
s_270196____9420446____8776130
          04022017353D 1   1.00000     0.00000     0
            
 54 58  0  0  0  0            999 V2000
   -1.4880   -7.2425    0.5029 O   0  0  0  0  0  0  0  0  0  0  0  0
   -2.0269   -6.1628    0.6903 C   0  0  0  0  0  0  0  0  0  0  0  0
   -1.4005   -5.0726    1.2948 N   0  0  0  0  0  0  0  0  0  0  0  0
   -0.1352   -5.0638    1.8890 C   0  0  0  0  0  0  0  0  0  0  0  0
    0.6161   -3.8932    1.8848 C   0  0  0  0  0  0  0  0  0  0  0  0
    1.8736   -3.8963    2.4796 C   0  0  0  0  0  0  0  0  0  0  0  0
    2.3811   -5.0479    3.0713 C   0  0  0  0  0  0  0  0  0  0  0  0
    1.6124   -6.2071    3.0639 C   0  0  0  0  0  0  0  0  0  0  0  0
    0.3523   -6.2268    2.4754 C   0  0  0  0  0  0  0  0  0  0  0  0
    2.6599   -2.6781    2.4792 C   0  0  0  0  0  0  0  0  0  0  0  0
    3.9699   -2.6000    2.4670 N   0  0  0  0  0  0  0  0  0  0  0  0
    4.3041   -1.3773    2.4683 O   0  0  0  0  0  0  0  0  0  0  0  0
    3.2280   -0.6288    2.4827 C   0  0  0  0  0  0  0  0  0  0  0  0
    2.1766   -1.4082    2.4886 N   0  0  0  0  0  0  0  0  0  0  0  0
    3.2062    0.8215    2.4897 C   0  0  0  0  0  0  0  0  0  0  0  0
    1.9856    1.4890    2.5053 C   0  0  0  0  0  0  0  0  0  0  0  0
    1.9769    2.8800    2.5117 C   0  0  0  0  0  0  0  0  0  0  0  0
    0.7417    3.5392    2.5275 N   0  0  0  0  0  0  0  0  0  0  0  0
   -0.3989    2.8493    2.8435 C   0  0  0  0  0  0  0  0  0  0  0  0
   -0.3263    1.8120    3.4425 O   0  0  0  0  0  0  0  0  0  0  0  0
   -1.6943    3.3726    2.4542 C   0  0  0  0  0  0  0  0  0  0  0  0
   -2.8484    2.6670    2.7783 C   0  0  0  0  0  0  0  0  0  0  0  0
   -4.0887    3.1721    2.4022 C   0  0  0  0  0  0  0  0  0  0  0  0
   -4.1685    4.3751    1.7084 C   0  0  0  0  0  0  0  0  0  0  0  0
   -3.0090    5.0716    1.3905 C   0  0  0  0  0  0  0  0  0  0  0  0
   -1.7627    4.5767    1.7604 C   0  0  0  0  0  0  0  0  0  0  0  0
    3.1722    3.5930    2.5023 C   0  0  0  0  0  0  0  0  0  0  0  0
    4.3872    2.9146    2.4871 C   0  0  0  0  0  0  0  0  0  0  0  0
    4.4074    1.5237    2.4807 C   0  0  0  0  0  0  0  0  0  0  0  0
    3.1505    5.1125    2.5107 C   0  0  0  0  0  0  0  0  0  0  0  0
   -2.3045   -3.9323    1.2017 C   0  0  0  0  0  0  0  0  0  0  0  0
   -3.6551   -4.5608    0.9409 C   0  0  0  0  0  0  0  0  0  0  0  0
   -3.3447   -5.8599    0.3384 N   0  0  0  0  0  0  0  0  0  0  0  0
    0.2575   -3.0617    1.4605 H   0  0  0  0  0  0  0  0  0  0  0  0
    3.2862   -5.0427    3.4963 H   0  0  0  0  0  0  0  0  0  0  0  0
    1.9710   -7.0387    3.4880 H   0  0  0  0  0  0  0  0  0  0  0  0
   -0.1945   -7.0641    2.4740 H   0  0  0  0  0  0  0  0  0  0  0  0
    1.1270    0.9763    2.5117 H   0  0  0  0  0  0  0  0  0  0  0  0
    0.6922    4.5136    2.3081 H   0  0  0  0  0  0  0  0  0  0  0  0
   -2.7868    1.8030    3.2780 H   0  0  0  0  0  0  0  0  0  0  0  0
   -4.9230    2.6704    2.6306 H   0  0  0  0  0  0  0  0  0  0  0  0
   -5.0601    4.7385    1.4386 H   0  0  0  0  0  0  0  0  0  0  0  0
   -3.0710    5.9360    0.8915 H   0  0  0  0  0  0  0  0  0  0  0  0
   -0.9288    5.0786    1.5312 H   0  0  0  0  0  0  0  0  0  0  0  0
    5.2458    3.4271    2.4808 H   0  0  0  0  0  0  0  0  0  0  0  0
    5.2783    1.0324    2.4696 H   0  0  0  0  0  0  0  0  0  0  0  0
    4.0884    5.4593    2.5022 H   0  0  0  0  0  0  0  0  0  0  0  0
    2.6653    5.4434    1.7013 H   0  0  0  0  0  0  0  0  0  0  0  0
    2.6834    5.4346    3.3342 H   0  0  0  0  0  0  0  0  0  0  0  0
   -2.0409   -3.3297    0.4484 H   0  0  0  0  0  0  0  0  0  0  0  0
   -2.3124   -3.4135    2.0565 H   0  0  0  0  0  0  0  0  0  0  0  0
   -4.1608   -4.6793    1.7955 H   0  0  0  0  0  0  0  0  0  0  0  0
   -4.1912   -3.9983    0.3115 H   0  0  0  0  0  0  0  0  0  0  0  0
   -3.9578   -6.4213   -0.2174 H   0  0  0  0  0  0  0  0  0  0  0  0
  1  2  2  0  0  0  0
  2  3  1  0  0  0  0
  3  4  1  0  0  0  0
  4  5  1  0  0  0  0
  5  6  2  0  0  0  0
  6  7  1  0  0  0  0
  7  8  2  0  0  0  0
  8  9  1  0  0  0  0
  9  4  2  0  0  0  0
  6 10  1  0  0  0  0
 10 11  2  0  0  0  0
 11 12  1  0  0  0  0
 12 13  1  0  0  0  0
 13 14  2  0  0  0  0
 14 10  1  0  0  0  0
 13 15  1  0  0  0  0
 15 16  1  0  0  0  0
 16 17  2  0  0  0  0
 17 18  1  0  0  0  0
 18 19  1  0  0  0  0
 19 20  2  0  0  0  0
 19 21  1  0  0  0  0
 21 22  1  0  0  0  0
 22 23  2  0  0  0  0
 23 24  1  0  0  0  0
 24 25  2  0  0  0  0
 25 26  1  0  0  0  0
 26 21  2  0  0  0  0
 17 27  1  0  0  0  0
 27 28  2  0  0  0  0
 28 29  1  0  0  0  0
 29 15  2  0  0  0  0
 27 30  1  0  0  0  0
  3 31  1  0  0  0  0
 31 32  1  0  0  0  0
 32 33  1  0  0  0  0
 33  2  1  0  0  0  0
  5 34  1  0  0  0  0
  7 35  1  0  0  0  0
  8 36  1  0  0  0  0
  9 37  1  0  0  0  0
 16 38  1  0  0  0  0
 18 39  1  0  0  0  0
 22 40  1  0  0  0  0
 23 41  1  0  0  0  0
 24 42  1  0  0  0  0
 25 43  1  0  0  0  0
 26 44  1  0  0  0  0
 28 45  1  0  0  0  0
 29 46  1  0  0  0  0
 30 47  1  0  0  0  0
 30 48  1  0  0  0  0
 30 49  1  0  0  0  0
 31 50  1  0  0  0  0
 31 51  1  0  0  0  0
 32 52  1  0  0  0  0
 32 53  1  0  0  0  0
 33 54  1  0  0  0  0
M  END
>  <result-rank>
52

>  <similarity>
0.872

>  <query-name>


>  <query-smiles>
S1C(C(=O)NC2=Nc3c(N2CCC(=O)N)ccc(N(C(=O)c4ccccc4)C)c3)=CC=C1/C=C/c5ncc(N)cn5

>  <source>
REALspace_2019-12

>  <similarity-descriptor>
0.879;1.000;0.789;0.801;0.993;0.801;0.801;0.0;0.0;0.0;0.0;0.993;0.852;0.995;0.879;0.879;0.789;0.0

>  <similarity-descriptor-smiles>
c1ccccc1;c1ccccc1;O=C1NCCN1;C=1N=CON1;c1ccccc1;C=1N=CON1;C=1N=CON1;;;;;c1ccccc1;NC=O;C;c1ccccc1;c1ccccc1;O=C1NCCN1;

>  <reaction-name>
s_270196

>  <reagent1-name>
9420446

>  <reagent1-smiles>
[R1*]=NC(=NO[R2*])c1cc(N2C(=O)NCC2)ccc1

>  <reagent2-name>
8776130

>  <reagent2-smiles>
[R1*]C([R2*])c1cc(NC(=O)c2ccccc2)c(cc1)C

$$$$
s_270196____16763670____8776130
          04022017353D 1   1.00000     0.00000     0
            
 59 63  0  0  0  0            999 V2000
   -2.4050    2.2964    0.6559 O   0  0  0  0  0  0  0  0  0  0  0  0
   -3.1587    2.5052    1.5661 C   0  0  0  0  0  0  0  0  0  0  0  0
   -2.7863    3.3408    2.5859 N   0  0  0  0  0  0  0  0  0  0  0  0
   -1.5262    3.9512    2.5662 C   0  0  0  0  0  0  0  0  0  0  0  0
   -1.3989    5.3371    2.5602 C   0  0  0  0  0  0  0  0  0  0  0  0
   -0.1353    5.9199    2.5409 C   0  0  0  0  0  0  0  0  0  0  0  0
    1.0008    5.1174    2.5270 C   0  0  0  0  0  0  0  0  0  0  0  0
    0.8613    3.7330    2.5327 C   0  0  0  0  0  0  0  0  0  0  0  0
   -0.3968    3.1393    2.5523 C   0  0  0  0  0  0  0  0  0  0  0  0
    2.0463    2.8968    2.5180 C   0  0  0  0  0  0  0  0  0  0  0  0
    3.2848    3.3259    2.4991 O   0  0  0  0  0  0  0  0  0  0  0  0
    4.0764    2.3360    2.4914 N   0  0  0  0  0  0  0  0  0  0  0  0
    3.3683    1.2311    2.5037 C   0  0  0  0  0  0  0  0  0  0  0  0
    2.0573    1.5880    2.5200 N   0  0  0  0  0  0  0  0  0  0  0  0
    3.8900   -0.1219    2.4978 C   0  0  0  0  0  0  0  0  0  0  0  0
    3.0012   -1.1921    2.5128 C   0  0  0  0  0  0  0  0  0  0  0  0
    3.4921   -2.4936    2.5073 C   0  0  0  0  0  0  0  0  0  0  0  0
    4.8663   -2.7091    2.4878 C   0  0  0  0  0  0  0  0  0  0  0  0
    5.3706   -4.0188    2.4823 N   0  0  0  0  0  0  0  0  0  0  0  0
    6.2996   -4.4866    3.2890 N   0  0  0  0  0  0  0  0  0  0  0  0
    6.5441   -5.7463    3.0160 C   0  0  0  0  0  0  0  0  0  0  0  0
    5.6891   -6.0950    1.9549 C   0  0  0  0  0  0  0  0  0  0  0  0
    4.9590   -4.9968    1.6291 C   0  0  0  0  0  0  0  0  0  0  0  0
    3.9910   -4.8988    0.6237 N   0  0  0  0  0  0  0  0  0  0  0  0
    5.6027   -7.4566    1.2877 C   0  0  0  0  0  0  0  0  0  0  0  0
    7.5448   -6.6507    3.7173 C   0  0  0  0  0  0  0  0  0  0  0  0
    5.7548   -1.6382    2.4729 C   0  0  0  0  0  0  0  0  0  0  0  0
    5.2638   -0.3367    2.4782 C   0  0  0  0  0  0  0  0  0  0  0  0
   -2.6399    6.2142    2.5767 C   0  0  0  0  0  0  0  0  0  0  0  0
   -4.4638    1.8730    1.5866 C   0  0  0  0  0  0  0  0  0  0  0  0
   -5.0093    1.3802    0.4057 C   0  0  0  0  0  0  0  0  0  0  0  0
   -6.2618    0.7753    0.4297 C   0  0  0  0  0  0  0  0  0  0  0  0
   -6.9584    0.6656    1.6286 C   0  0  0  0  0  0  0  0  0  0  0  0
   -6.4034    1.1611    2.8021 C   0  0  0  0  0  0  0  0  0  0  0  0
   -5.1521    1.7686    2.7912 C   0  0  0  0  0  0  0  0  0  0  0  0
   -3.4143    3.5148    3.3444 H   0  0  0  0  0  0  0  0  0  0  0  0
   -0.0440    6.9157    2.5371 H   0  0  0  0  0  0  0  0  0  0  0  0
    1.9106    5.5321    2.5130 H   0  0  0  0  0  0  0  0  0  0  0  0
   -0.4878    2.1434    2.5563 H   0  0  0  0  0  0  0  0  0  0  0  0
    2.0151   -1.0266    2.5274 H   0  0  0  0  0  0  0  0  0  0  0  0
    2.8612   -3.2694    2.5172 H   0  0  0  0  0  0  0  0  0  0  0  0
    3.7752   -5.6948    0.0581 H   0  0  0  0  0  0  0  0  0  0  0  0
    3.5150   -4.0328    0.4707 H   0  0  0  0  0  0  0  0  0  0  0  0
    6.2498   -8.0826    1.7229 H   0  0  0  0  0  0  0  0  0  0  0  0
    4.6747   -7.8166    1.3838 H   0  0  0  0  0  0  0  0  0  0  0  0
    5.8268   -7.3671    0.3173 H   0  0  0  0  0  0  0  0  0  0  0  0
    7.5205   -7.5600    3.3019 H   0  0  0  0  0  0  0  0  0  0  0  0
    8.4634   -6.2664    3.6248 H   0  0  0  0  0  0  0  0  0  0  0  0
    7.3088   -6.7206    4.6865 H   0  0  0  0  0  0  0  0  0  0  0  0
    6.7409   -1.8034    2.4585 H   0  0  0  0  0  0  0  0  0  0  0  0
    5.8945    0.4392    2.4679 H   0  0  0  0  0  0  0  0  0  0  0  0
   -2.3681    7.1765    2.5697 H   0  0  0  0  0  0  0  0  0  0  0  0
   -3.1967    6.0192    1.7693 H   0  0  0  0  0  0  0  0  0  0  0  0
   -3.1715    6.0239    3.4021 H   0  0  0  0  0  0  0  0  0  0  0  0
   -4.5050    1.4601   -0.4540 H   0  0  0  0  0  0  0  0  0  0  0  0
   -6.6614    0.4194   -0.4151 H   0  0  0  0  0  0  0  0  0  0  0  0
   -7.8585    0.2303    1.6460 H   0  0  0  0  0  0  0  0  0  0  0  0
   -6.9077    1.0802    3.6618 H   0  0  0  0  0  0  0  0  0  0  0  0
   -4.7534    2.1249    3.6362 H   0  0  0  0  0  0  0  0  0  0  0  0
  1  2  2  0  0  0  0
  2  3  1  0  0  0  0
  3  4  1  0  0  0  0
  4  5  1  0  0  0  0
  5  6  2  0  0  0  0
  6  7  1  0  0  0  0
  7  8  2  0  0  0  0
  8  9  1  0  0  0  0
  9  4  2  0  0  0  0
  8 10  1  0  0  0  0
 10 11  1  0  0  0  0
 11 12  1  0  0  0  0
 12 13  2  0  0  0  0
 13 14  1  0  0  0  0
 10 14  2  0  0  0  0
 13 15  1  0  0  0  0
 15 16  1  0  0  0  0
 16 17  2  0  0  0  0
 17 18  1  0  0  0  0
 18 19  1  0  0  0  0
 19 20  1  0  0  0  0
 20 21  2  0  0  0  0
 21 22  1  0  0  0  0
 22 23  2  0  0  0  0
 23 19  1  0  0  0  0
 23 24  1  0  0  0  0
 22 25  1  0  0  0  0
 21 26  1  0  0  0  0
 18 27  2  0  0  0  0
 27 28  1  0  0  0  0
 28 15  2  0  0  0  0
  5 29  1  0  0  0  0
  2 30  1  0  0  0  0
 30 31  1  0  0  0  0
 31 32  2  0  0  0  0
 32 33  1  0  0  0  0
 33 34  2  0  0  0  0
 34 35  1  0  0  0  0
 35 30  2  0  0  0  0
  3 36  1  0  0  0  0
  6 37  1  0  0  0  0
  7 38  1  0  0  0  0
  9 39  1  0  0  0  0
 16 40  1  0  0  0  0
 17 41  1  0  0  0  0
 24 42  1  0  0  0  0
 24 43  1  0  0  0  0
 25 44  1  0  0  0  0
 25 45  1  0  0  0  0
 25 46  1  0  0  0  0
 26 47  1  0  0  0  0
 26 48  1  0  0  0  0
 26 49  1  0  0  0  0
 27 50  1  0  0  0  0
 28 51  1  0  0  0  0
 29 52  1  0  0  0  0
 29 53  1  0  0  0  0
 29 54  1  0  0  0  0
 31 55  1  0  0  0  0
 32 56  1  0  0  0  0
 33 57  1  0  0  0  0
 34 58  1  0  0  0  0
 35 59  1  0  0  0  0
M  END
>  <result-rank>
53

>  <similarity>
0.871

>  <query-name>


>  <query-smiles>
S1C(C(=O)NC2=Nc3c(N2CCC(=O)N)ccc(N(C(=O)c4ccccc4)C)c3)=CC=C1/C=C/c5ncc(N)cn5

>  <source>
REALspace_2019-12

>  <similarity-descriptor>
0.879;1.000;0.780;0.801;0.993;0.801;0.801;0.0;0.0;0.0;0.0;0.993;0.852;0.995;0.879;0.879;1.000;0.091

>  <similarity-descriptor-smiles>
c1ccccc1;c1ccccc1;N1C=C(C=N1)C;C1=NC=NO1;c1ccccc1;C1=NC=NO1;C1=NC=NO1;;;;;c1ccccc1;O=CN;C;c1ccccc1;c1ccccc1;N;C

>  <reaction-name>
s_270196

>  <reagent1-name>
16763670

>  <reagent1-smiles>
[R1*]=NC(=NO[R2*])c1ccc(N2NC(=C(C2=N)C)C)cc1

>  <reagent2-name>
8776130

>  <reagent2-smiles>
[R1*]C([R2*])c1cc(NC(=O)c2ccccc2)c(cc1)C

$$$$
s_270196____8770372____15614002
          04022017353D 1   1.00000     0.00000     0
            
 50 54  0  0  0  0            999 V2000
    2.3839   -3.9007    4.7856 O   0  0  0  0  0  0  0  0  0  0  0  0
    2.1301   -4.1978    3.6304 C   0  0  0  0  0  0  0  0  0  0  0  0
    2.6224   -3.5743    2.5242 N   0  0  0  0  0  0  0  0  0  0  0  0
    3.5071   -2.4883    2.5086 C   0  0  0  0  0  0  0  0  0  0  0  0
    3.0019   -1.1924    2.5128 C   0  0  0  0  0  0  0  0  0  0  0  0
    3.8900   -0.1218    2.4978 C   0  0  0  0  0  0  0  0  0  0  0  0
    5.2642   -0.3339    2.4780 C   0  0  0  0  0  0  0  0  0  0  0  0
    5.7472   -1.6383    2.4743 C   0  0  0  0  0  0  0  0  0  0  0  0
    4.8777   -2.7237    2.4895 C   0  0  0  0  0  0  0  0  0  0  0  0
    3.3683    1.2311    2.5037 C   0  0  0  0  0  0  0  0  0  0  0  0
    4.0764    2.3360    2.4914 N   0  0  0  0  0  0  0  0  0  0  0  0
    3.2848    3.3259    2.4991 O   0  0  0  0  0  0  0  0  0  0  0  0
    2.0463    2.8968    2.5180 C   0  0  0  0  0  0  0  0  0  0  0  0
    2.0573    1.5880    2.5200 N   0  0  0  0  0  0  0  0  0  0  0  0
    0.8617    3.7327    2.5327 C   0  0  0  0  0  0  0  0  0  0  0  0
    0.9866    5.1013    2.3170 C   0  0  0  0  0  0  0  0  0  0  0  0
   -0.1575    5.8920    2.3318 C   0  0  0  0  0  0  0  0  0  0  0  0
   -1.4115    5.3342    2.5584 C   0  0  0  0  0  0  0  0  0  0  0  0
   -1.5114    3.9634    2.7715 C   0  0  0  0  0  0  0  0  0  0  0  0
   -0.3816    3.1525    2.7608 C   0  0  0  0  0  0  0  0  0  0  0  0
   -0.0359    7.3198    2.1079 C   0  0  0  0  0  0  0  0  0  0  0  0
    1.0098    7.8721    2.3115 O   0  0  0  0  0  0  0  0  0  0  0  0
   -1.1780    8.0801    1.6381 C   0  0  0  0  0  0  0  0  0  0  0  0
   -1.7663    7.7577    0.4195 C   0  0  0  0  0  0  0  0  0  0  0  0
   -2.8612    8.4901   -0.0278 C   0  0  0  0  0  0  0  0  0  0  0  0
   -3.3606    9.5351    0.7424 C   0  0  0  0  0  0  0  0  0  0  0  0
   -2.7652    9.8478    1.9582 C   0  0  0  0  0  0  0  0  0  0  0  0
   -1.6695    9.1235    2.4163 C   0  0  0  0  0  0  0  0  0  0  0  0
    2.0959   -4.2038    1.4366 C   0  0  0  0  0  0  0  0  0  0  0  0
    1.2876   -5.2081    1.8718 C   0  0  0  0  0  0  0  0  0  0  0  0
    1.3035   -5.2057    3.2353 N   0  0  0  0  0  0  0  0  0  0  0  0
    2.3744   -3.8470   -0.0137 C   0  0  0  0  0  0  0  0  0  0  0  0
    2.0148   -1.0326    2.5263 H   0  0  0  0  0  0  0  0  0  0  0  0
    5.8966    0.4407    2.4665 H   0  0  0  0  0  0  0  0  0  0  0  0
    6.7342   -1.7981    2.4605 H   0  0  0  0  0  0  0  0  0  0  0  0
    5.2324   -3.6587    2.4867 H   0  0  0  0  0  0  0  0  0  0  0  0
    1.8846    5.5100    2.1539 H   0  0  0  0  0  0  0  0  0  0  0  0
   -2.2289    5.9101    2.5680 H   0  0  0  0  0  0  0  0  0  0  0  0
   -2.4093    3.5546    2.9349 H   0  0  0  0  0  0  0  0  0  0  0  0
   -0.4619    2.1677    2.9147 H   0  0  0  0  0  0  0  0  0  0  0  0
   -1.4049    7.0051   -0.1309 H   0  0  0  0  0  0  0  0  0  0  0  0
   -3.2892    8.2652   -0.9032 H   0  0  0  0  0  0  0  0  0  0  0  0
   -4.1480   10.0612    0.4212 H   0  0  0  0  0  0  0  0  0  0  0  0
   -3.1274   10.6000    2.5087 H   0  0  0  0  0  0  0  0  0  0  0  0
   -1.2416    9.3492    3.2914 H   0  0  0  0  0  0  0  0  0  0  0  0
    0.7714   -5.8387    1.2922 H   0  0  0  0  0  0  0  0  0  0  0  0
    0.8010   -5.8290    3.8346 H   0  0  0  0  0  0  0  0  0  0  0  0
    1.8633   -4.4634   -0.6127 H   0  0  0  0  0  0  0  0  0  0  0  0
    2.0901   -2.9037   -0.1854 H   0  0  0  0  0  0  0  0  0  0  0  0
    3.3530   -3.9389   -0.1976 H   0  0  0  0  0  0  0  0  0  0  0  0
  1  2  2  0  0  0  0
  2  3  1  0  0  0  0
  3  4  1  0  0  0  0
  4  5  1  0  0  0  0
  5  6  2  0  0  0  0
  6  7  1  0  0  0  0
  7  8  2  0  0  0  0
  8  9  1  0  0  0  0
  9  4  2  0  0  0  0
  6 10  1  0  0  0  0
 10 11  2  0  0  0  0
 11 12  1  0  0  0  0
 12 13  1  0  0  0  0
 13 14  2  0  0  0  0
 14 10  1  0  0  0  0
 13 15  1  0  0  0  0
 15 16  1  0  0  0  0
 16 17  2  0  0  0  0
 17 18  1  0  0  0  0
 18 19  2  0  0  0  0
 19 20  1  0  0  0  0
 20 15  2  0  0  0  0
 17 21  1  0  0  0  0
 21 22  2  0  0  0  0
 21 23  1  0  0  0  0
 23 24  1  0  0  0  0
 24 25  2  0  0  0  0
 25 26  1  0  0  0  0
 26 27  2  0  0  0  0
 27 28  1  0  0  0  0
 28 23  2  0  0  0  0
  3 29  1  0  0  0  0
 29 30  2  0  0  0  0
 30 31  1  0  0  0  0
 31  2  1  0  0  0  0
 29 32  1  0  0  0  0
  5 33  1  0  0  0  0
  7 34  1  0  0  0  0
  8 35  1  0  0  0  0
  9 36  1  0  0  0  0
 16 37  1  0  0  0  0
 18 38  1  0  0  0  0
 19 39  1  0  0  0  0
 20 40  1  0  0  0  0
 24 41  1  0  0  0  0
 25 42  1  0  0  0  0
 26 43  1  0  0  0  0
 27 44  1  0  0  0  0
 28 45  1  0  0  0  0
 30 46  1  0  0  0  0
 31 47  1  0  0  0  0
 32 48  1  0  0  0  0
 32 49  1  0  0  0  0
 32 50  1  0  0  0  0
M  END
>  <result-rank>
54

>  <similarity>
0.871

>  <query-name>


>  <query-smiles>
S1C(C(=O)NC2=Nc3c(N2CCC(=O)N)ccc(N(C(=O)c4ccccc4)C)c3)=CC=C1/C=C/c5ncc(N)cn5

>  <source>
REALspace_2019-12

>  <similarity-descriptor>
0.934;1.000;0.822;0.801;0.950;0.801;0.801;0.0;0.0;0.0;0.0;0.950;0.908;0.0;0.934;0.822;0.822;0.143

>  <similarity-descriptor-smiles>
c1ccccc1;c1ccccc1;O=C1NC=CN1;C=1N=CON1;c1ccccc1;C=1N=CON1;C=1N=CON1;;;;;c1ccccc1;C=O;;c1ccccc1;O=C1NC=CN1;O=C1NC=CN1;C

>  <reaction-name>
s_270196

>  <reagent1-name>
8770372

>  <reagent1-smiles>
[R1*]=NC(=NO[R2*])c1cc(N2C(=O)NC=C2C)ccc1

>  <reagent2-name>
15614002

>  <reagent2-smiles>
[R1*]C([R2*])c1cc(ccc1)C(=O)c2ccccc2

$$$$
s_270196____16887988____8774738
          04022017353D 1   1.00000     0.00000     0
            
 51 55  0  0  0  0            999 V2000
    5.6907   -4.5007    2.4777 Br  0  0  0  0  0  0  0  0  0  0  0  0
    4.9452   -2.6881    2.4859 C   0  0  0  0  0  0  0  0  0  0  0  0
    3.5652   -2.5140    2.5063 C   0  0  0  0  0  0  0  0  0  0  0  0
    3.0420   -1.2251    2.5122 C   0  0  0  0  0  0  0  0  0  0  0  0
    1.6310   -1.0667    2.5331 O   0  0  0  0  0  0  0  0  0  0  0  0
    0.7884   -2.2096    2.5474 C   0  0  0  0  0  0  0  0  0  0  0  0
    0.5091   -2.6153    3.9857 C   0  0  0  0  0  0  0  0  0  0  0  0
   -0.5899   -2.0820    4.6511 C   0  0  0  0  0  0  0  0  0  0  0  0
   -0.8414   -2.4552    5.9674 C   0  0  0  0  0  0  0  0  0  0  0  0
    0.0025   -3.3563    6.6081 C   0  0  0  0  0  0  0  0  0  0  0  0
    1.0971   -3.8830    5.9335 C   0  0  0  0  0  0  0  0  0  0  0  0
    1.3596   -3.5172    4.6173 C   0  0  0  0  0  0  0  0  0  0  0  0
    3.8901   -0.1220    2.4978 C   0  0  0  0  0  0  0  0  0  0  0  0
    5.2691   -0.3050    2.4775 C   0  0  0  0  0  0  0  0  0  0  0  0
    5.8002   -1.5908    2.4716 C   0  0  0  0  0  0  0  0  0  0  0  0
    3.3683    1.2311    2.5037 C   0  0  0  0  0  0  0  0  0  0  0  0
    4.0764    2.3360    2.4914 N   0  0  0  0  0  0  0  0  0  0  0  0
    3.2848    3.3259    2.4991 O   0  0  0  0  0  0  0  0  0  0  0  0
    2.0463    2.8968    2.5180 C   0  0  0  0  0  0  0  0  0  0  0  0
    2.0573    1.5880    2.5200 N   0  0  0  0  0  0  0  0  0  0  0  0
    0.8616    3.7328    2.5327 C   0  0  0  0  0  0  0  0  0  0  0  0
   -0.3920    3.1310    2.5522 C   0  0  0  0  0  0  0  0  0  0  0  0
   -1.5347    3.9245    2.5653 C   0  0  0  0  0  0  0  0  0  0  0  0
   -1.4092    5.3098    2.5594 C   0  0  0  0  0  0  0  0  0  0  0  0
   -2.5695    6.1283    2.5743 O   0  0  0  0  0  0  0  0  0  0  0  0
   -2.4409    7.5424    2.5683 C   0  0  0  0  0  0  0  0  0  0  0  0
   -2.4164    8.0403    1.1409 C   0  0  0  0  0  0  0  0  0  0  0  0
   -3.5734    8.3768    0.4978 N   0  0  0  0  0  0  0  0  0  0  0  0
   -3.4572    8.7977   -0.7372 C   0  0  0  0  0  0  0  0  0  0  0  0
   -1.7841    8.7585   -1.0590 S   0  0  0  0  0  0  0  0  0  0  0  0
   -1.2493    8.1723    0.4486 C   0  0  0  0  0  0  0  0  0  0  0  0
   -0.1550    5.9112    2.5397 C   0  0  0  0  0  0  0  0  0  0  0  0
    0.9876    5.1181    2.5262 C   0  0  0  0  0  0  0  0  0  0  0  0
    2.9558   -3.3069    2.5165 H   0  0  0  0  0  0  0  0  0  0  0  0
    1.2407   -2.9632    2.0704 H   0  0  0  0  0  0  0  0  0  0  0  0
   -0.0735   -1.9940    2.0885 H   0  0  0  0  0  0  0  0  0  0  0  0
   -1.1948   -1.4351    4.1866 H   0  0  0  0  0  0  0  0  0  0  0  0
   -1.6288   -2.0756    6.4530 H   0  0  0  0  0  0  0  0  0  0  0  0
   -0.1786   -3.6251    7.5541 H   0  0  0  0  0  0  0  0  0  0  0  0
    1.7012   -4.5304    6.3980 H   0  0  0  0  0  0  0  0  0  0  0  0
    2.1476   -3.8967    4.1325 H   0  0  0  0  0  0  0  0  0  0  0  0
    5.8785    0.4878    2.4672 H   0  0  0  0  0  0  0  0  0  0  0  0
    6.7910   -1.7256    2.4570 H   0  0  0  0  0  0  0  0  0  0  0  0
   -0.4715    2.1342    2.5568 H   0  0  0  0  0  0  0  0  0  0  0  0
   -2.4407    3.5015    2.5788 H   0  0  0  0  0  0  0  0  0  0  0  0
   -1.5906    7.8018    3.0264 H   0  0  0  0  0  0  0  0  0  0  0  0
   -3.2167    7.9497    3.0501 H   0  0  0  0  0  0  0  0  0  0  0  0
   -4.1902    9.0802   -1.3560 H   0  0  0  0  0  0  0  0  0  0  0  0
   -0.3162    7.9751    0.7495 H   0  0  0  0  0  0  0  0  0  0  0  0
   -0.0753    6.9080    2.5353 H   0  0  0  0  0  0  0  0  0  0  0  0
    1.8937    5.5410    2.5119 H   0  0  0  0  0  0  0  0  0  0  0  0
  1  2  1  0  0  0  0
  2  3  1  0  0  0  0
  3  4  2  0  0  0  0
  4  5  1  0  0  0  0
  5  6  1  0  0  0  0
  6  7  1  0  0  0  0
  7  8  1  0  0  0  0
  8  9  2  0  0  0  0
  9 10  1  0  0  0  0
 10 11  2  0  0  0  0
 11 12  1  0  0  0  0
 12  7  2  0  0  0  0
  4 13  1  0  0  0  0
 13 14  2  0  0  0  0
 14 15  1  0  0  0  0
 15  2  2  0  0  0  0
 13 16  1  0  0  0  0
 16 17  2  0  0  0  0
 17 18  1  0  0  0  0
 18 19  1  0  0  0  0
 19 20  2  0  0  0  0
 20 16  1  0  0  0  0
 19 21  1  0  0  0  0
 21 22  1  0  0  0  0
 22 23  2  0  0  0  0
 23 24  1  0  0  0  0
 24 25  1  0  0  0  0
 25 26  1  0  0  0  0
 26 27  1  0  0  0  0
 27 28  1  0  0  0  0
 28 29  2  0  0  0  0
 29 30  1  0  0  0  0
 30 31  1  0  0  0  0
 27 31  2  0  0  0  0
 24 32  2  0  0  0  0
 32 33  1  0  0  0  0
 33 21  2  0  0  0  0
  3 34  1  0  0  0  0
  6 35  1  0  0  0  0
  6 36  1  0  0  0  0
  8 37  1  0  0  0  0
  9 38  1  0  0  0  0
 10 39  1  0  0  0  0
 11 40  1  0  0  0  0
 12 41  1  0  0  0  0
 14 42  1  0  0  0  0
 15 43  1  0  0  0  0
 22 44  1  0  0  0  0
 23 45  1  0  0  0  0
 26 46  1  0  0  0  0
 26 47  1  0  0  0  0
 29 48  1  0  0  0  0
 31 49  1  0  0  0  0
 32 50  1  0  0  0  0
 33 51  1  0  0  0  0
M  END
>  <result-rank>
55

>  <similarity>
0.871

>  <query-name>


>  <query-smiles>
S1C(C(=O)NC2=Nc3c(N2CCC(=O)N)ccc(N(C(=O)c4ccccc4)C)c3)=CC=C1/C=C/c5ncc(N)cn5

>  <source>
REALspace_2019-12

>  <similarity-descriptor>
0.880;1.000;0.923;0.801;0.965;0.801;0.801;0.0;0.0;0.0;0.0;0.965;0.568;0.965;0.880;0.880;0.0;0.0

>  <similarity-descriptor-smiles>
c1ccccc1;c1ccccc1;OCC1=CSC=N1;C=1N=CON1;Brc1ccccc1;C=1N=CON1;C=1N=CON1;;;;;Brc1ccccc1;OC;Brc1ccccc1;c1ccccc1;c1ccccc1;;

>  <reaction-name>
s_270196

>  <reagent1-name>
16887988

>  <reagent1-smiles>
[R1*]=NC(=NO[R2*])c1c(OCc2ccccc2)cc(Br)cc1

>  <reagent2-name>
8774738

>  <reagent2-smiles>
[R1*]C([R2*])c1ccc(OCC=2N=CSC2)cc1

$$$$
s_708____1723544____9610922
          04022017353D 1   1.00000     0.00000     0
            
 48 52  0  0  0  0            999 V2000
    5.4006    0.8180    2.4825 O   0  0  0  0  0  0  0  0  0  0  0  0
    4.3734    1.4806    2.4887 C   0  0  0  0  0  0  0  0  0  0  0  0
    3.1736    0.8213    2.4950 N   0  0  0  0  0  0  0  0  0  0  0  0
    1.9918    1.5154    2.5004 C   0  0  0  0  0  0  0  0  0  0  0  0
    1.9876    2.8376    2.4997 N   0  0  0  0  0  0  0  0  0  0  0  0
    3.1519    3.5620    2.4935 C   0  0  0  0  0  0  0  0  0  0  0  0
    4.3765    2.9028    2.4881 C   0  0  0  0  0  0  0  0  0  0  0  0
    5.5573    3.6412    2.4820 C   0  0  0  0  0  0  0  0  0  0  0  0
    5.5311    5.0293    2.4817 C   0  0  0  0  0  0  0  0  0  0  0  0
    6.7060    5.6912    2.4778 O   0  0  0  0  0  0  0  0  0  0  0  0
    6.7202    7.0413    2.4774 C   0  0  0  0  0  0  0  0  0  0  0  0
    6.7236    7.7303    1.2692 C   0  0  0  0  0  0  0  0  0  0  0  0
    6.7392    9.1220    1.2748 C   0  0  0  0  0  0  0  0  0  0  0  0
    6.7503    9.8133    2.4821 C   0  0  0  0  0  0  0  0  0  0  0  0
    6.7479    9.1177    3.6866 C   0  0  0  0  0  0  0  0  0  0  0  0
    6.7324    7.7265    3.6881 C   0  0  0  0  0  0  0  0  0  0  0  0
    4.3087    5.6938    2.4879 C   0  0  0  0  0  0  0  0  0  0  0  0
    3.1313    4.9536    2.4934 C   0  0  0  0  0  0  0  0  0  0  0  0
    0.6979    0.7188    2.5068 C   0  0  0  0  0  0  0  0  0  0  0  0
    0.2598    0.4524    1.0759 C   0  0  0  0  0  0  0  0  0  0  0  0
   -0.3051    1.3079    0.4523 O   0  0  0  0  0  0  0  0  0  0  0  0
    0.5245   -0.8358    0.4643 C   0  0  0  0  0  0  0  0  0  0  0  0
    0.1175   -1.0647   -0.8459 C   0  0  0  0  0  0  0  0  0  0  0  0
    0.3772   -2.3034   -1.4221 C   0  0  0  0  0  0  0  0  0  0  0  0
    1.0310   -3.3089   -0.7148 C   0  0  0  0  0  0  0  0  0  0  0  0
    1.2655   -4.4949   -1.2971 N   0  0  0  0  0  0  0  0  0  0  0  0
    0.8850   -4.7465   -2.5585 C   0  0  0  0  0  0  0  0  0  0  0  0
    0.2289   -3.7787   -3.3114 C   0  0  0  0  0  0  0  0  0  0  0  0
   -0.0273   -2.5407   -2.7314 C   0  0  0  0  0  0  0  0  0  0  0  0
    1.4270   -3.0542    0.5940 C   0  0  0  0  0  0  0  0  0  0  0  0
    1.1799   -1.8234    1.1921 C   0  0  0  0  0  0  0  0  0  0  0  0
    3.1593   -0.1786    2.4957 H   0  0  0  0  0  0  0  0  0  0  0  0
    6.4365    3.1649    2.4777 H   0  0  0  0  0  0  0  0  0  0  0  0
    6.7149    7.2298    0.4035 H   0  0  0  0  0  0  0  0  0  0  0  0
    6.7424    9.6252    0.4106 H   0  0  0  0  0  0  0  0  0  0  0  0
    6.7601   10.8133    2.4838 H   0  0  0  0  0  0  0  0  0  0  0  0
    6.7573    9.6181    4.5524 H   0  0  0  0  0  0  0  0  0  0  0  0
    6.7301    7.2233    4.5522 H   0  0  0  0  0  0  0  0  0  0  0  0
    4.2771    6.6933    2.4885 H   0  0  0  0  0  0  0  0  0  0  0  0
    2.2524    5.4307    2.4972 H   0  0  0  0  0  0  0  0  0  0  0  0
    0.8443   -0.1510    2.9780 H   0  0  0  0  0  0  0  0  0  0  0  0
   -0.0118    1.2396    2.9813 H   0  0  0  0  0  0  0  0  0  0  0  0
   -0.3535   -0.3510   -1.3644 H   0  0  0  0  0  0  0  0  0  0  0  0
    1.0755   -5.6411   -2.9626 H   0  0  0  0  0  0  0  0  0  0  0  0
   -0.0533   -3.9692   -4.2517 H   0  0  0  0  0  0  0  0  0  0  0  0
   -0.4981   -1.8278   -3.2511 H   0  0  0  0  0  0  0  0  0  0  0  0
    1.8970   -3.7679    1.1134 H   0  0  0  0  0  0  0  0  0  0  0  0
    1.4698   -1.6506    2.1335 H   0  0  0  0  0  0  0  0  0  0  0  0
  1  2  2  0  0  0  0
  2  3  1  0  0  0  0
  3  4  1  0  0  0  0
  4  5  2  0  0  0  0
  5  6  1  0  0  0  0
  6  7  1  0  0  0  0
  7  2  1  0  0  0  0
  7  8  2  0  0  0  0
  8  9  1  0  0  0  0
  9 10  1  0  0  0  0
 10 11  1  0  0  0  0
 11 12  1  0  0  0  0
 12 13  2  0  0  0  0
 13 14  1  0  0  0  0
 14 15  2  0  0  0  0
 15 16  1  0  0  0  0
 16 11  2  0  0  0  0
  9 17  2  0  0  0  0
 17 18  1  0  0  0  0
 18  6  2  0  0  0  0
  4 19  1  0  0  0  0
 19 20  1  0  0  0  0
 20 21  2  0  0  0  0
 20 22  1  0  0  0  0
 22 23  1  0  0  0  0
 23 24  2  0  0  0  0
 24 25  1  0  0  0  0
 25 26  1  0  0  0  0
 26 27  2  0  0  0  0
 27 28  1  0  0  0  0
 28 29  2  0  0  0  0
 29 24  1  0  0  0  0
 25 30  2  0  0  0  0
 30 31  1  0  0  0  0
 31 22  2  0  0  0  0
  3 32  1  0  0  0  0
  8 33  1  0  0  0  0
 12 34  1  0  0  0  0
 13 35  1  0  0  0  0
 14 36  1  0  0  0  0
 15 37  1  0  0  0  0
 16 38  1  0  0  0  0
 17 39  1  0  0  0  0
 18 40  1  0  0  0  0
 19 41  1  0  0  0  0
 19 42  1  0  0  0  0
 23 43  1  0  0  0  0
 27 44  1  0  0  0  0
 28 45  1  0  0  0  0
 29 46  1  0  0  0  0
 30 47  1  0  0  0  0
 31 48  1  0  0  0  0
M  END
>  <result-rank>
56

>  <similarity>
0.871

>  <query-name>


>  <query-smiles>
S1C(C(=O)NC2=Nc3c(N2CCC(=O)N)ccc(N(C(=O)c4ccccc4)C)c3)=CC=C1/C=C/c5ncc(N)cn5

>  <source>
REALspace_2019-12

>  <similarity-descriptor>
0.929;0.998;0.860;0.875;0.990;0.775;0.875;0.875;0.875;0.875;0.0;0.990;0.156;0.0;0.929;0.860;0.0;0.0

>  <similarity-descriptor-smiles>
c1ccccc1;c1ccccc1;c1cccnc1;O=C1ccN=CN1;c1ccccc1;CC=O;O=C1ccN=CN1;O=C1ccN=CN1;O=C1ccN=CN1;O=C1ccN=CN1;;c1ccccc1;O;;c1ccccc1;c1cccnc1;;

>  <reaction-name>
s_708

>  <reagent1-name>
1723544

>  <reagent1-smiles>
[R1*]=Nc1c(cc(Oc2ccccc2)cc1)C([R2*])=O

>  <reagent2-name>
9610922

>  <reagent2-smiles>
[R1*]=C(N[R2*])CC(=O)c1cc2c(nccc2)cc1

$$$$
s_527a____154924____13263490
          04022017353D 1   1.00000     0.00000     0
            
 53 56  0  0  0  0            999 V2000
   -6.2155    1.9989    6.1149 Br  0  0  0  0  0  0  0  0  0  0  0  0
   -5.2889    1.4077    4.4919 C   0  0  0  0  0  0  0  0  0  0  0  0
   -5.9968    0.9988    3.3645 C   0  0  0  0  0  0  0  0  0  0  0  0
   -7.3390    0.9896    3.3335 N   0  0  0  0  0  0  0  0  0  0  0  0
   -8.0256    0.5960    2.2502 C   0  0  0  0  0  0  0  0  0  0  0  0
   -7.3242    0.1846    1.1212 C   0  0  0  0  0  0  0  0  0  0  0  0
   -5.9835    0.1944    1.1518 N   0  0  0  0  0  0  0  0  0  0  0  0
   -5.2944    0.5874    2.2346 C   0  0  0  0  0  0  0  0  0  0  0  0
   -3.9028    0.5898    2.2439 C   0  0  0  0  0  0  0  0  0  0  0  0
   -3.2019    1.0000    3.3729 C   0  0  0  0  0  0  0  0  0  0  0  0
   -3.8978    1.4121    4.5052 C   0  0  0  0  0  0  0  0  0  0  0  0
   -1.7530    1.0000    3.3729 C   0  0  0  0  0  0  0  0  0  0  0  0
   -1.1530    1.0000    4.4121 O   0  0  0  0  0  0  0  0  0  0  0  0
   -1.0680    1.0000    2.1865 N   0  0  0  0  0  0  0  0  0  0  0  0
    0.3150    1.0000    2.1865 N   0  0  0  0  0  0  0  0  0  0  0  0
    1.0000    1.0000    1.0000 C   0  0  0  0  0  0  0  0  0  0  0  0
    0.4000    1.0000   -0.0392 O   0  0  0  0  0  0  0  0  0  0  0  0
    2.5200    1.0000    1.0000 C   0  0  3  0  0  0  0  0  0  0  0  0
    2.9933    1.0000   -0.3388 O   0  0  0  0  0  0  0  0  0  0  0  0
    3.7694   -0.0124   -0.7803 C   0  0  0  0  0  0  0  0  0  0  0  0
    4.3611    0.0612   -2.0370 C   0  0  0  0  0  0  0  0  0  0  0  0
    5.1580   -0.9880   -2.4838 C   0  0  0  0  0  0  0  0  0  0  0  0
    5.3537   -2.0971   -1.6681 C   0  0  0  0  0  0  0  0  0  0  0  0
    4.7627   -2.1711   -0.4110 C   0  0  0  0  0  0  0  0  0  0  0  0
    3.9657   -1.1221    0.0353 C   0  0  0  0  0  0  0  0  0  0  0  0
    6.1870   -3.1848   -2.1427 C   0  0  0  0  0  0  0  0  0  0  0  0
    7.3371   -2.9830   -2.4194 O   0  0  0  0  0  0  0  0  0  0  0  0
    5.6305   -4.5167   -2.2830 C   0  0  0  0  0  0  0  0  0  0  0  0
    5.6252   -5.1336   -3.5297 C   0  0  0  0  0  0  0  0  0  0  0  0
    5.0896   -6.4109   -3.6599 C   0  0  0  0  0  0  0  0  0  0  0  0
    4.5657   -7.0620   -2.5481 C   0  0  0  0  0  0  0  0  0  0  0  0
    4.5767   -6.4363   -1.3076 C   0  0  0  0  0  0  0  0  0  0  0  0
    5.1089   -5.1590   -1.1644 C   0  0  0  0  0  0  0  0  0  0  0  0
    3.0267    2.2411    1.7165 C   0  0  0  0  0  0  0  0  0  0  0  0
   -9.0256    0.5984    2.2541 H   0  0  0  0  0  0  0  0  0  0  0  0
   -7.8117   -0.1136    0.3006 H   0  0  0  0  0  0  0  0  0  0  0  0
   -3.4018    0.2936    1.4307 H   0  0  0  0  0  0  0  0  0  0  0  0
   -3.4022    1.7089    5.3215 H   0  0  0  0  0  0  0  0  0  0  0  0
   -1.5680    1.0000    1.3204 H   0  0  0  0  0  0  0  0  0  0  0  0
    0.8150    1.0000    3.0525 H   0  0  0  0  0  0  0  0  0  0  0  0
    2.8533    0.1835    1.4714 H   0  0  0  0  0  0  0  0  0  0  0  0
    4.2147    0.8635   -2.6157 H   0  0  0  0  0  0  0  0  0  0  0  0
    5.5874   -0.9448   -3.3859 H   0  0  0  0  0  0  0  0  0  0  0  0
    4.9099   -2.9730    0.1680 H   0  0  0  0  0  0  0  0  0  0  0  0
    3.5362   -1.1654    0.9373 H   0  0  0  0  0  0  0  0  0  0  0  0
    6.0037   -4.6625   -4.3264 H   0  0  0  0  0  0  0  0  0  0  0  0
    5.0812   -6.8608   -4.5529 H   0  0  0  0  0  0  0  0  0  0  0  0
    4.1812   -7.9804   -2.6415 H   0  0  0  0  0  0  0  0  0  0  0  0
    4.1989   -6.9081   -0.5109 H   0  0  0  0  0  0  0  0  0  0  0  0
    5.1164   -4.7094   -0.2713 H   0  0  0  0  0  0  0  0  0  0  0  0
    2.6933    2.2411    2.6593 H   0  0  0  0  0  0  0  0  0  0  0  0
    4.0267    2.2411    1.7165 H   0  0  0  0  0  0  0  0  0  0  0  0
    2.6933    3.0576    1.2451 H   0  0  0  0  0  0  0  0  0  0  0  0
  1  2  1  0  0  0  0
  2  3  1  0  0  0  0
  3  4  2  0  0  0  0
  4  5  1  0  0  0  0
  5  6  2  0  0  0  0
  6  7  1  0  0  0  0
  7  8  2  0  0  0  0
  8  3  1  0  0  0  0
  8  9  1  0  0  0  0
  9 10  2  0  0  0  0
 10 11  1  0  0  0  0
 11  2  2  0  0  0  0
 10 12  1  0  0  0  0
 12 13  2  0  0  0  0
 12 14  1  0  0  0  0
 14 15  1  0  0  0  0
 15 16  1  0  0  0  0
 16 17  2  0  0  0  0
 16 18  1  0  0  0  0
 18 19  1  0  0  0  0
 19 20  1  0  0  0  0
 20 21  1  0  0  0  0
 21 22  2  0  0  0  0
 22 23  1  0  0  0  0
 23 24  2  0  0  0  0
 24 25  1  0  0  0  0
 25 20  2  0  0  0  0
 23 26  1  0  0  0  0
 26 27  2  0  0  0  0
 26 28  1  0  0  0  0
 28 29  1  0  0  0  0
 29 30  2  0  0  0  0
 30 31  1  0  0  0  0
 31 32  2  0  0  0  0
 32 33  1  0  0  0  0
 33 28  2  0  0  0  0
 18 34  1  0  0  0  0
  5 35  1  0  0  0  0
  6 36  1  0  0  0  0
  9 37  1  0  0  0  0
 11 38  1  0  0  0  0
 14 39  1  0  0  0  0
 15 40  1  0  0  0  0
 18 41  1  0  0  0  0
 21 42  1  0  0  0  0
 22 43  1  0  0  0  0
 24 44  1  0  0  0  0
 25 45  1  0  0  0  0
 29 46  1  0  0  0  0
 30 47  1  0  0  0  0
 31 48  1  0  0  0  0
 32 49  1  0  0  0  0
 33 50  1  0  0  0  0
 34 51  1  0  0  0  0
 34 52  1  0  0  0  0
 34 53  1  0  0  0  0
M  END
>  <result-rank>
57

>  <similarity>
0.871

>  <query-name>


>  <query-smiles>
S1C(C(=O)NC2=Nc3c(N2CCC(=O)N)ccc(N(C(=O)c4ccccc4)C)c3)=CC=C1/C=C/c5ncc(N)cn5

>  <source>
REALspace_2019-12

>  <similarity-descriptor>
0.998;1.000;0.919;0.443;0.948;0.846;0.984;0.956;0.0;0.0;0.0;0.948;0.908;0.0;0.998;0.919;0.0;0.0

>  <similarity-descriptor-smiles>
Brc1ccccc1;c1ccccc1;c1cnccn1;C(=O)CO;c1ccccc1;C(=O)N;N;C;;;;c1ccccc1;C=O;;Brc1ccccc1;c1cnccn1;;

>  <reaction-name>
s_527a

>  <reagent1-name>
154924

>  <reagent1-smiles>
[R1*]NNC(=O)C(Oc1ccc(cc1)C(=O)c2ccccc2)C

>  <reagent2-name>
13263490

>  <reagent2-smiles>
[R1*]C(=O)c1cc(Br)c2nccnc2c1

$$$$
s_270196____16763672____8784464
          04022017353D 1   1.00000     0.00000     0
            
 49 53  0  0  0  0            999 V2000
   -6.5717    5.7404    2.3855 S   0  0  0  0  0  0  0  0  0  0  0  0
   -4.9694    6.3123    2.2917 C   0  0  0  0  0  0  0  0  0  0  0  0
   -3.7883    5.5728    2.7012 C   0  0  0  0  0  0  0  0  0  0  0  0
   -3.8992    4.4647    3.1481 O   0  0  0  0  0  0  0  0  0  0  0  0
   -2.5476    6.1404    2.5771 N   0  0  0  0  0  0  0  0  0  0  0  0
   -1.4054    5.3316    2.5620 C   0  0  0  0  0  0  0  0  0  0  0  0
   -0.2924    5.6851    3.3185 C   0  0  0  0  0  0  0  0  0  0  0  0
    0.8478    4.8878    3.3084 C   0  0  0  0  0  0  0  0  0  0  0  0
    0.8613    3.7330    2.5327 C   0  0  0  0  0  0  0  0  0  0  0  0
   -0.2464    3.3715    1.7725 C   0  0  0  0  0  0  0  0  0  0  0  0
   -1.3820    4.1750    1.7886 C   0  0  0  0  0  0  0  0  0  0  0  0
    2.0463    2.8968    2.5180 C   0  0  0  0  0  0  0  0  0  0  0  0
    3.2848    3.3259    2.4991 O   0  0  0  0  0  0  0  0  0  0  0  0
    4.0764    2.3360    2.4914 N   0  0  0  0  0  0  0  0  0  0  0  0
    3.3683    1.2311    2.5037 C   0  0  0  0  0  0  0  0  0  0  0  0
    2.0573    1.5880    2.5200 N   0  0  0  0  0  0  0  0  0  0  0  0
    3.8900   -0.1219    2.4978 C   0  0  0  0  0  0  0  0  0  0  0  0
    3.0012   -1.1921    2.5128 C   0  0  0  0  0  0  0  0  0  0  0  0
    3.4921   -2.4936    2.5073 C   0  0  0  0  0  0  0  0  0  0  0  0
    4.8663   -2.7091    2.4878 C   0  0  0  0  0  0  0  0  0  0  0  0
    5.3696   -4.0160    2.4823 N   0  0  0  0  0  0  0  0  0  0  0  0
    6.2702   -4.4876    1.6566 N   0  0  0  0  0  0  0  0  0  0  0  0
    6.5012   -5.7478    1.9535 C   0  0  0  0  0  0  0  0  0  0  0  0
    5.7093   -6.0811    3.0142 N   0  0  0  0  0  0  0  0  0  0  0  0
    5.0172   -5.0158    3.3350 C   0  0  0  0  0  0  0  0  0  0  0  0
    4.0813   -4.9240    4.3718 N   0  0  0  0  0  0  0  0  0  0  0  0
    5.7548   -1.6382    2.4729 C   0  0  0  0  0  0  0  0  0  0  0  0
    5.2638   -0.3367    2.4782 C   0  0  0  0  0  0  0  0  0  0  0  0
   -0.2926    6.9442    4.1704 C   0  0  0  0  0  0  0  0  0  0  0  0
   -5.0214    7.5689    1.7701 C   0  0  0  0  0  0  0  0  0  0  0  0
   -6.3466    8.0026    1.4759 C   0  0  0  0  0  0  0  0  0  0  0  0
   -7.3499    7.1175    1.7494 C   0  0  0  0  0  0  0  0  0  0  0  0
   -2.4580    7.1332    2.4974 H   0  0  0  0  0  0  0  0  0  0  0  0
    1.6478    5.1417    3.8520 H   0  0  0  0  0  0  0  0  0  0  0  0
   -0.2265    2.5394    1.2182 H   0  0  0  0  0  0  0  0  0  0  0  0
   -2.1816    3.9214    1.2442 H   0  0  0  0  0  0  0  0  0  0  0  0
    2.0151   -1.0266    2.5274 H   0  0  0  0  0  0  0  0  0  0  0  0
    2.8612   -3.2694    2.5172 H   0  0  0  0  0  0  0  0  0  0  0  0
    7.1433   -6.3546    1.4849 H   0  0  0  0  0  0  0  0  0  0  0  0
    3.6023   -4.0620    4.5381 H   0  0  0  0  0  0  0  0  0  0  0  0
    3.8916   -5.7203    4.9461 H   0  0  0  0  0  0  0  0  0  0  0  0
    6.7409   -1.8034    2.4585 H   0  0  0  0  0  0  0  0  0  0  0  0
    5.8945    0.4392    2.4679 H   0  0  0  0  0  0  0  0  0  0  0  0
    0.5872    7.0305    4.6378 H   0  0  0  0  0  0  0  0  0  0  0  0
   -0.4392    7.7421    3.5858 H   0  0  0  0  0  0  0  0  0  0  0  0
   -1.0259    6.8882    4.8479 H   0  0  0  0  0  0  0  0  0  0  0  0
   -4.2104    8.1314    1.6094 H   0  0  0  0  0  0  0  0  0  0  0  0
   -6.5318    8.9064    1.0901 H   0  0  0  0  0  0  0  0  0  0  0  0
   -8.3310    7.2489    1.6071 H   0  0  0  0  0  0  0  0  0  0  0  0
  1  2  1  0  0  0  0
  2  3  1  0  0  0  0
  3  4  2  0  0  0  0
  3  5  1  0  0  0  0
  5  6  1  0  0  0  0
  6  7  1  0  0  0  0
  7  8  2  0  0  0  0
  8  9  1  0  0  0  0
  9 10  2  0  0  0  0
 10 11  1  0  0  0  0
 11  6  2  0  0  0  0
  9 12  1  0  0  0  0
 12 13  1  0  0  0  0
 13 14  1  0  0  0  0
 14 15  2  0  0  0  0
 15 16  1  0  0  0  0
 12 16  2  0  0  0  0
 15 17  1  0  0  0  0
 17 18  1  0  0  0  0
 18 19  2  0  0  0  0
 19 20  1  0  0  0  0
 20 21  1  0  0  0  0
 21 22  1  0  0  0  0
 22 23  2  0  0  0  0
 23 24  1  0  0  0  0
 24 25  2  0  0  0  0
 25 21  1  0  0  0  0
 25 26  1  0  0  0  0
 20 27  2  0  0  0  0
 27 28  1  0  0  0  0
 28 17  2  0  0  0  0
  7 29  1  0  0  0  0
  2 30  2  0  0  0  0
 30 31  1  0  0  0  0
 31 32  2  0  0  0  0
 32  1  1  0  0  0  0
  5 33  1  0  0  0  0
  8 34  1  0  0  0  0
 10 35  1  0  0  0  0
 11 36  1  0  0  0  0
 18 37  1  0  0  0  0
 19 38  1  0  0  0  0
 23 39  1  0  0  0  0
 26 40  1  0  0  0  0
 26 41  1  0  0  0  0
 27 42  1  0  0  0  0
 28 43  1  0  0  0  0
 29 44  1  0  0  0  0
 29 45  1  0  0  0  0
 29 46  1  0  0  0  0
 30 47  1  0  0  0  0
 31 48  1  0  0  0  0
 32 49  1  0  0  0  0
M  END
>  <result-rank>
58

>  <similarity>
0.871

>  <query-name>


>  <query-smiles>
S1C(C(=O)NC2=Nc3c(N2CCC(=O)N)ccc(N(C(=O)c4ccccc4)C)c3)=CC=C1/C=C/c5ncc(N)cn5

>  <source>
REALspace_2019-12

>  <similarity-descriptor>
0.879;0.884;0.871;0.801;0.993;0.801;0.801;0.0;0.0;0.0;0.0;0.993;0.853;0.995;0.879;0.879;1.000;0.0

>  <similarity-descriptor-smiles>
c1ccccc1;S1C=CC=C1;N1C=NC=N1;C1=NC=NO1;c1ccccc1;C1=NC=NO1;C1=NC=NO1;;;;;c1ccccc1;C(=O)N;C;c1ccccc1;c1ccccc1;N;

>  <reaction-name>
s_270196

>  <reagent1-name>
16763672

>  <reagent1-smiles>
[R1*]=NC(=NO[R2*])c1ccc(N2N=CN=C2N)cc1

>  <reagent2-name>
8784464

>  <reagent2-smiles>
[R1*]C([R2*])c1cc(c(NC(=O)C=2SC=CC2)cc1)C

$$$$
s_270196____8769606____13780776
          04022017353D 1   1.00000     0.00000     0
            
 46 50  0  0  0  0            999 V2000
   -5.5132    7.2185    3.2818 Cl  0  0  0  0  0  0  0  0  0  0  0  0
   -3.9209    6.8655    3.9953 C   0  0  0  0  0  0  0  0  0  0  0  0
   -3.5227    7.4408    5.1995 C   0  0  0  0  0  0  0  0  0  0  0  0
   -4.3171    8.2852    5.8781 N   0  0  0  0  0  0  0  0  0  0  0  0
   -3.9497    8.8488    7.0404 C   0  0  0  0  0  0  0  0  0  0  0  0
   -2.7031    8.5650    7.5878 C   0  0  0  0  0  0  0  0  0  0  0  0
   -1.8638    7.6930    6.9036 C   0  0  0  0  0  0  0  0  0  0  0  0
   -2.2640    7.1198    5.7000 C   0  0  0  0  0  0  0  0  0  0  0  0
   -1.4119    6.2467    5.0270 C   0  0  0  0  0  0  0  0  0  0  0  0
   -0.2051    5.9281    5.4905 F   0  0  0  0  0  0  0  0  0  0  0  0
   -1.8280    5.6829    3.8260 C   0  0  0  0  0  0  0  0  0  0  0  0
   -3.0829    5.9921    3.3100 C   0  0  0  0  0  0  0  0  0  0  0  0
   -0.9545    4.7721    3.1113 C   0  0  0  0  0  0  0  0  0  0  0  0
   -1.2320    4.1794    1.9755 O   0  0  0  0  0  0  0  0  0  0  0  0
   -0.2539    3.4528    1.6263 N   0  0  0  0  0  0  0  0  0  0  0  0
    0.6899    3.5540    2.5326 C   0  0  0  0  0  0  0  0  0  0  0  0
    0.2420    4.4038    3.4935 N   0  0  0  0  0  0  0  0  0  0  0  0
    1.9738    2.8798    2.5128 C   0  0  0  0  0  0  0  0  0  0  0  0
    3.1687    3.5925    2.5033 C   0  0  0  0  0  0  0  0  0  0  0  0
    4.3831    2.9141    2.4852 C   0  0  0  0  0  0  0  0  0  0  0  0
    4.4028    1.5233    2.4757 C   0  0  0  0  0  0  0  0  0  0  0  0
    3.2081    0.8106    2.4835 C   0  0  0  0  0  0  0  0  0  0  0  0
    1.9932    1.4891    2.5027 C   0  0  0  0  0  0  0  0  0  0  0  0
    3.1872    5.1125    2.5132 C   0  0  0  0  0  0  0  0  0  0  0  0
    3.2088    5.5769    3.8550 O   0  0  0  0  0  0  0  0  0  0  0  0
    3.2279    6.9026    4.1103 C   0  0  0  0  0  0  0  0  0  0  0  0
    3.2262    7.8080    3.0545 C   0  0  0  0  0  0  0  0  0  0  0  0
    3.2469    9.1734    3.3236 C   0  0  0  0  0  0  0  0  0  0  0  0
    3.2680    9.6235    4.6399 C   0  0  0  0  0  0  0  0  0  0  0  0
    3.2706    8.7122    5.6908 C   0  0  0  0  0  0  0  0  0  0  0  0
    3.2501    7.3459    5.4287 C   0  0  0  0  0  0  0  0  0  0  0  0
   -4.5726    9.4727    7.5123 H   0  0  0  0  0  0  0  0  0  0  0  0
   -2.4174    8.9780    8.4526 H   0  0  0  0  0  0  0  0  0  0  0  0
   -0.9633    7.4754    7.2801 H   0  0  0  0  0  0  0  0  0  0  0  0
   -3.3822    5.5863    2.4464 H   0  0  0  0  0  0  0  0  0  0  0  0
    5.2419    3.4263    2.4791 H   0  0  0  0  0  0  0  0  0  0  0  0
    5.2757    1.0356    2.4632 H   0  0  0  0  0  0  0  0  0  0  0  0
    3.2223   -0.1892    2.4752 H   0  0  0  0  0  0  0  0  0  0  0  0
    1.1344    0.9769    2.5094 H   0  0  0  0  0  0  0  0  0  0  0  0
    4.0020    5.4391    2.0343 H   0  0  0  0  0  0  0  0  0  0  0  0
    2.3693    5.4588    2.0538 H   0  0  0  0  0  0  0  0  0  0  0  0
    3.2103    7.4806    2.1097 H   0  0  0  0  0  0  0  0  0  0  0  0
    3.2465    9.8313    2.5704 H   0  0  0  0  0  0  0  0  0  0  0  0
    3.2814   10.6049    4.8310 H   0  0  0  0  0  0  0  0  0  0  0  0
    3.2872    9.0394    6.6356 H   0  0  0  0  0  0  0  0  0  0  0  0
    3.2514    6.6881    6.1819 H   0  0  0  0  0  0  0  0  0  0  0  0
  1  2  1  0  0  0  0
  2  3  1  0  0  0  0
  3  4  2  0  0  0  0
  4  5  1  0  0  0  0
  5  6  2  0  0  0  0
  6  7  1  0  0  0  0
  7  8  2  0  0  0  0
  8  3  1  0  0  0  0
  8  9  1  0  0  0  0
  9 10  1  0  0  0  0
  9 11  2  0  0  0  0
 11 12  1  0  0  0  0
 12  2  2  0  0  0  0
 11 13  1  0  0  0  0
 13 14  1  0  0  0  0
 14 15  1  0  0  0  0
 15 16  2  0  0  0  0
 16 17  1  0  0  0  0
 13 17  2  0  0  0  0
 16 18  1  0  0  0  0
 18 19  1  0  0  0  0
 19 20  2  0  0  0  0
 20 21  1  0  0  0  0
 21 22  2  0  0  0  0
 22 23  1  0  0  0  0
 23 18  2  0  0  0  0
 19 24  1  0  0  0  0
 24 25  1  0  0  0  0
 25 26  1  0  0  0  0
 26 27  1  0  0  0  0
 27 28  2  0  0  0  0
 28 29  1  0  0  0  0
 29 30  2  0  0  0  0
 30 31  1  0  0  0  0
 31 26  2  0  0  0  0
  5 32  1  0  0  0  0
  6 33  1  0  0  0  0
  7 34  1  0  0  0  0
 12 35  1  0  0  0  0
 20 36  1  0  0  0  0
 21 37  1  0  0  0  0
 22 38  1  0  0  0  0
 23 39  1  0  0  0  0
 24 40  1  0  0  0  0
 24 41  1  0  0  0  0
 27 42  1  0  0  0  0
 28 43  1  0  0  0  0
 29 44  1  0  0  0  0
 30 45  1  0  0  0  0
 31 46  1  0  0  0  0
M  END
>  <result-rank>
59

>  <similarity>
0.871

>  <query-name>


>  <query-smiles>
S1C(C(=O)NC2=Nc3c(N2CCC(=O)N)ccc(N(C(=O)c4ccccc4)C)c3)=CC=C1/C=C/c5ncc(N)cn5

>  <source>
REALspace_2019-12

>  <similarity-descriptor>
0.957;0.998;0.860;0.801;0.941;0.801;0.801;0.0;0.0;0.0;0.0;0.934;0.506;0.934;0.957;0.860;0.0;0.0

>  <similarity-descriptor-smiles>
Clc1ccc(cc1)F;c1ccccc1;c1ccccn1;C1=NC=NO1;c1ccccc1;C1=NC=NO1;C1=NC=NO1;;;;;C;O;C;Clc1ccc(cc1)F;c1ccccn1;;

>  <reaction-name>
s_270196

>  <reagent1-name>
8769606

>  <reagent1-smiles>
[R1*]=NC(=NO[R2*])c1c(cccc1)COc2ccccc2

>  <reagent2-name>
13780776

>  <reagent2-smiles>
[R1*]C([R2*])c1c(F)c2c(nccc2)c(Cl)c1

$$$$
s_270196____8769658____8777122
          04022017353D 1   1.00000     0.00000     0
            
 52 56  0  0  0  0            999 V2000
    6.2173    3.9923    4.1807 S   0  0  0  0  0  0  0  0  0  0  0  0
    5.2082    4.7521    4.8721 O   0  0  0  0  0  0  0  0  0  0  0  0
    6.4159    2.7345    4.8531 O   0  0  0  0  0  0  0  0  0  0  0  0
    7.7100    4.8858    4.1695 C   0  0  0  0  0  0  0  0  0  0  0  0
    7.6842    6.2767    4.1748 C   0  0  0  0  0  0  0  0  0  0  0  0
    8.8853    6.9789    4.1659 C   0  0  0  0  0  0  0  0  0  0  0  0
   10.0985    6.2986    4.1508 C   0  0  0  0  0  0  0  0  0  0  0  0
   10.1131    4.9078    4.1448 C   0  0  0  0  0  0  0  0  0  0  0  0
    8.9182    4.1958    4.1538 C   0  0  0  0  0  0  0  0  0  0  0  0
    5.6831    3.6886    2.4782 C   0  0  0  0  0  0  0  0  0  0  0  0
    4.3786    2.9076    2.4880 C   0  0  0  0  0  0  0  0  0  0  0  0
    3.1717    3.5990    2.5022 C   0  0  0  0  0  0  0  0  0  0  0  0
    1.9829    2.8772    2.5108 C   0  0  0  0  0  0  0  0  0  0  0  0
    1.9869    1.4864    2.5061 C   0  0  0  0  0  0  0  0  0  0  0  0
    3.2061    0.8170    2.4926 C   0  0  0  0  0  0  0  0  0  0  0  0
    4.4079    1.5169    2.4834 C   0  0  0  0  0  0  0  0  0  0  0  0
    0.7176    3.5861    2.5254 C   0  0  0  0  0  0  0  0  0  0  0  0
   -0.4699    3.0309    2.5347 O   0  0  0  0  0  0  0  0  0  0  0  0
   -1.3597    3.9335    2.5474 N   0  0  0  0  0  0  0  0  0  0  0  0
   -0.7698    5.1058    2.5454 C   0  0  0  0  0  0  0  0  0  0  0  0
    0.5711    4.8867    2.5303 N   0  0  0  0  0  0  0  0  0  0  0  0
   -1.4290    6.3974    2.5544 C   0  0  0  0  0  0  0  0  0  0  0  0
   -0.6553    7.5529    2.5507 C   0  0  0  0  0  0  0  0  0  0  0  0
   -1.2784    8.7968    2.5605 C   0  0  0  0  0  0  0  0  0  0  0  0
   -2.6674    8.8692    2.5730 C   0  0  0  0  0  0  0  0  0  0  0  0
   -3.2809   10.0717    2.5810 O   0  0  0  0  0  0  0  0  0  0  0  0
   -4.6280   10.1414    2.5931 C   0  0  0  0  0  0  0  0  0  0  0  0
   -5.3082   10.1785    1.4368 N   0  0  0  0  0  0  0  0  0  0  0  0
   -6.6472   10.2468    1.4168 C   0  0  0  0  0  0  0  0  0  0  0  0
   -7.3466   10.2789    2.6187 C   0  0  0  0  0  0  0  0  0  0  0  0
   -6.6261   10.2390    3.8071 C   0  0  0  0  0  0  0  0  0  0  0  0
   -5.2877   10.1710    3.7605 N   0  0  0  0  0  0  0  0  0  0  0  0
   -3.4408    7.7130    2.5769 C   0  0  0  0  0  0  0  0  0  0  0  0
   -2.8182    6.4693    2.5676 C   0  0  0  0  0  0  0  0  0  0  0  0
    6.8123    6.7663    4.1848 H   0  0  0  0  0  0  0  0  0  0  0  0
    8.8764    7.9788    4.1705 H   0  0  0  0  0  0  0  0  0  0  0  0
   10.9586    6.8086    4.1443 H   0  0  0  0  0  0  0  0  0  0  0  0
   10.9851    4.4184    4.1340 H   0  0  0  0  0  0  0  0  0  0  0  0
    8.9275    3.1958    4.1491 H   0  0  0  0  0  0  0  0  0  0  0  0
    6.3839    3.1609    1.9981 H   0  0  0  0  0  0  0  0  0  0  0  0
    5.5453    4.5620    2.0113 H   0  0  0  0  0  0  0  0  0  0  0  0
    3.1591    4.5989    2.5061 H   0  0  0  0  0  0  0  0  0  0  0  0
    1.1270    0.9758    2.5123 H   0  0  0  0  0  0  0  0  0  0  0  0
    3.2187   -0.1829    2.4894 H   0  0  0  0  0  0  0  0  0  0  0  0
    5.2801    1.0277    2.4736 H   0  0  0  0  0  0  0  0  0  0  0  0
    0.3427    7.4902    2.5411 H   0  0  0  0  0  0  0  0  0  0  0  0
   -0.7309    9.6336    2.5585 H   0  0  0  0  0  0  0  0  0  0  0  0
   -7.1382   10.2745    0.5461 H   0  0  0  0  0  0  0  0  0  0  0  0
   -8.3453   10.3296    2.6278 H   0  0  0  0  0  0  0  0  0  0  0  0
   -7.1008   10.2608    4.6870 H   0  0  0  0  0  0  0  0  0  0  0  0
   -4.4388    7.7757    2.5863 H   0  0  0  0  0  0  0  0  0  0  0  0
   -3.3655    5.6323    2.5703 H   0  0  0  0  0  0  0  0  0  0  0  0
  1  2  2  0  0  0  0
  1  3  2  0  0  0  0
  1  4  1  0  0  0  0
  4  5  1  0  0  0  0
  5  6  2  0  0  0  0
  6  7  1  0  0  0  0
  7  8  2  0  0  0  0
  8  9  1  0  0  0  0
  9  4  2  0  0  0  0
  1 10  1  0  0  0  0
 10 11  1  0  0  0  0
 11 12  1  0  0  0  0
 12 13  2  0  0  0  0
 13 14  1  0  0  0  0
 14 15  2  0  0  0  0
 15 16  1  0  0  0  0
 16 11  2  0  0  0  0
 13 17  1  0  0  0  0
 17 18  1  0  0  0  0
 18 19  1  0  0  0  0
 19 20  2  0  0  0  0
 20 21  1  0  0  0  0
 17 21  2  0  0  0  0
 20 22  1  0  0  0  0
 22 23  1  0  0  0  0
 23 24  2  0  0  0  0
 24 25  1  0  0  0  0
 25 26  1  0  0  0  0
 26 27  1  0  0  0  0
 27 28  1  0  0  0  0
 28 29  2  0  0  0  0
 29 30  1  0  0  0  0
 30 31  2  0  0  0  0
 31 32  1  0  0  0  0
 32 27  2  0  0  0  0
 25 33  2  0  0  0  0
 33 34  1  0  0  0  0
 34 22  2  0  0  0  0
  5 35  1  0  0  0  0
  6 36  1  0  0  0  0
  7 37  1  0  0  0  0
  8 38  1  0  0  0  0
  9 39  1  0  0  0  0
 10 40  1  0  0  0  0
 10 41  1  0  0  0  0
 12 42  1  0  0  0  0
 14 43  1  0  0  0  0
 15 44  1  0  0  0  0
 16 45  1  0  0  0  0
 23 46  1  0  0  0  0
 24 47  1  0  0  0  0
 29 48  1  0  0  0  0
 30 49  1  0  0  0  0
 31 50  1  0  0  0  0
 33 51  1  0  0  0  0
 34 52  1  0  0  0  0
M  END
>  <result-rank>
60

>  <similarity>
0.870

>  <query-name>


>  <query-smiles>
S1C(C(=O)NC2=Nc3c(N2CCC(=O)N)ccc(N(C(=O)c4ccccc4)C)c3)=CC=C1/C=C/c5ncc(N)cn5

>  <source>
REALspace_2019-12

>  <similarity-descriptor>
0.880;0.999;0.946;0.801;0.941;0.801;0.801;0.0;0.0;0.0;0.0;0.929;0.629;0.929;0.880;0.880;0.0;0.0

>  <similarity-descriptor-smiles>
c1ccccc1;c1ccccc1;Oc1ncccn1;C1=NC=NO1;c1ccccc1;C1=NC=NO1;C1=NC=NO1;;;;;C;S(=O)=O;C;c1ccccc1;c1ccccc1;;

>  <reaction-name>
s_270196

>  <reagent1-name>
8769658

>  <reagent1-smiles>
[R1*]=NC(=NO[R2*])c1ccc(Oc2ncccn2)cc1

>  <reagent2-name>
8777122

>  <reagent2-smiles>
[R1*]C([R2*])c1cc(ccc1)CS(=O)(=O)c2ccccc2

$$$$
s_708____5904736____1322132
          04022017353D 1   1.00000     0.00000     0
            
 49 53  0  0  0  0            999 V2000
    9.2893    7.1541    7.5704 Cl  0  0  0  0  0  0  0  0  0  0  0  0
    8.5087    6.7142    6.0327 C   0  0  0  0  0  0  0  0  0  0  0  0
    7.6130    7.5966    5.4382 C   0  0  0  0  0  0  0  0  0  0  0  0
    7.0057    7.2470    4.2370 C   0  0  0  0  0  0  0  0  0  0  0  0
    7.2995    6.0237    3.6441 C   0  0  0  0  0  0  0  0  0  0  0  0
    6.7060    5.6912    2.4778 O   0  0  0  0  0  0  0  0  0  0  0  0
    5.5301    5.0284    2.4838 C   0  0  0  0  0  0  0  0  0  0  0  0
    5.5511    3.6390    2.4849 C   0  0  0  0  0  0  0  0  0  0  0  0
    4.3714    2.9007    2.4900 C   0  0  0  0  0  0  0  0  0  0  0  0
    3.1479    3.5642    2.4955 C   0  0  0  0  0  0  0  0  0  0  0  0
    1.9860    2.8354    2.5006 N   0  0  0  0  0  0  0  0  0  0  0  0
    1.9928    1.5131    2.5007 C   0  0  0  0  0  0  0  0  0  0  0  0
    3.1736    0.8184    2.4956 N   0  0  0  0  0  0  0  0  0  0  0  0
    4.3730    1.4784    2.4906 C   0  0  0  0  0  0  0  0  0  0  0  0
    5.4013    0.8177    2.4878 O   0  0  0  0  0  0  0  0  0  0  0  0
    0.7573    0.7542    2.5065 C   0  0  0  0  0  0  0  0  0  0  0  0
    0.8140   -0.6358    2.5067 C   0  0  0  0  0  0  0  0  0  0  0  0
   -0.3737   -1.3595    2.5107 C   0  0  0  0  0  0  0  0  0  0  0  0
   -0.3292   -2.7597    2.5104 N   0  0  0  0  0  0  0  0  0  0  0  0
   -0.3088   -3.5657    1.4127 C   0  0  0  0  0  0  0  0  0  0  0  0
   -0.3227   -3.1878    0.2533 O   0  0  0  0  0  0  0  0  0  0  0  0
   -0.2657   -4.8642    1.8219 N   0  0  0  0  0  0  0  0  0  0  0  0
   -0.2635   -4.8612    3.1855 C   0  0  0  0  0  0  0  0  0  0  0  0
   -0.2996   -3.5679    3.6068 C   0  0  0  0  0  0  0  0  0  0  0  0
   -0.3140   -3.0999    5.0522 C   0  0  0  0  0  0  0  0  0  0  0  0
   -1.6063   -0.7152    2.5150 C   0  0  0  0  0  0  0  0  0  0  0  0
   -1.6392    0.6752    2.5152 C   0  0  0  0  0  0  0  0  0  0  0  0
   -0.4640    1.4192    2.5113 C   0  0  0  0  0  0  0  0  0  0  0  0
    3.1292    4.9557    2.4948 C   0  0  0  0  0  0  0  0  0  0  0  0
    4.3085    5.6938    2.4888 C   0  0  0  0  0  0  0  0  0  0  0  0
    8.1956    5.1460    4.2438 C   0  0  0  0  0  0  0  0  0  0  0  0
    8.8063    5.4892    5.4452 C   0  0  0  0  0  0  0  0  0  0  0  0
    7.4075    8.4746    5.8706 H   0  0  0  0  0  0  0  0  0  0  0  0
    6.3596    7.8734    3.8007 H   0  0  0  0  0  0  0  0  0  0  0  0
    6.4295    3.1611    2.4819 H   0  0  0  0  0  0  0  0  0  0  0  0
    3.1592   -0.1815    2.4955 H   0  0  0  0  0  0  0  0  0  0  0  0
    1.6957   -1.1076    2.5040 H   0  0  0  0  0  0  0  0  0  0  0  0
   -0.2403   -5.6708    1.2314 H   0  0  0  0  0  0  0  0  0  0  0  0
   -0.2394   -5.6694    3.7739 H   0  0  0  0  0  0  0  0  0  0  0  0
   -0.2856   -3.8936    5.6598 H   0  0  0  0  0  0  0  0  0  0  0  0
    0.4830   -2.5206    5.2229 H   0  0  0  0  0  0  0  0  0  0  0  0
   -1.1490   -2.5775    5.2250 H   0  0  0  0  0  0  0  0  0  0  0  0
   -2.4555   -1.2433    2.5178 H   0  0  0  0  0  0  0  0  0  0  0  0
   -2.5209    1.1471    2.5182 H   0  0  0  0  0  0  0  0  0  0  0  0
   -0.4968    2.4187    2.5119 H   0  0  0  0  0  0  0  0  0  0  0  0
    2.2512    5.4344    2.4988 H   0  0  0  0  0  0  0  0  0  0  0  0
    4.2783    6.6933    2.4880 H   0  0  0  0  0  0  0  0  0  0  0  0
    8.4011    4.2680    3.8113 H   0  0  0  0  0  0  0  0  0  0  0  0
    9.4519    4.8625    5.8815 H   0  0  0  0  0  0  0  0  0  0  0  0
  1  2  1  0  0  0  0
  2  3  1  0  0  0  0
  3  4  2  0  0  0  0
  4  5  1  0  0  0  0
  5  6  1  0  0  0  0
  6  7  1  0  0  0  0
  7  8  1  0  0  0  0
  8  9  2  0  0  0  0
  9 10  1  0  0  0  0
 10 11  1  0  0  0  0
 11 12  2  0  0  0  0
 12 13  1  0  0  0  0
 13 14  1  0  0  0  0
 14  9  1  0  0  0  0
 14 15  2  0  0  0  0
 12 16  1  0  0  0  0
 16 17  1  0  0  0  0
 17 18  2  0  0  0  0
 18 19  1  0  0  0  0
 19 20  1  0  0  0  0
 20 21  2  0  0  0  0
 20 22  1  0  0  0  0
 22 23  1  0  0  0  0
 23 24  2  0  0  0  0
 24 19  1  0  0  0  0
 24 25  1  0  0  0  0
 18 26  1  0  0  0  0
 26 27  2  0  0  0  0
 27 28  1  0  0  0  0
 28 16  2  0  0  0  0
 10 29  2  0  0  0  0
 29 30  1  0  0  0  0
 30  7  2  0  0  0  0
  5 31  2  0  0  0  0
 31 32  1  0  0  0  0
 32  2  2  0  0  0  0
  3 33  1  0  0  0  0
  4 34  1  0  0  0  0
  8 35  1  0  0  0  0
 13 36  1  0  0  0  0
 17 37  1  0  0  0  0
 22 38  1  0  0  0  0
 23 39  1  0  0  0  0
 25 40  1  0  0  0  0
 25 41  1  0  0  0  0
 25 42  1  0  0  0  0
 26 43  1  0  0  0  0
 27 44  1  0  0  0  0
 28 45  1  0  0  0  0
 29 46  1  0  0  0  0
 30 47  1  0  0  0  0
 31 48  1  0  0  0  0
 32 49  1  0  0  0  0
M  END
>  <result-rank>
61

>  <similarity>
0.870

>  <query-name>


>  <query-smiles>
S1C(C(=O)NC2=Nc3c(N2CCC(=O)N)ccc(N(C(=O)c4ccccc4)C)c3)=CC=C1/C=C/c5ncc(N)cn5

>  <source>
REALspace_2019-12

>  <similarity-descriptor>
0.934;0.951;0.822;0.987;0.990;0.987;0.987;0.0;0.0;0.0;0.0;0.990;0.156;0.0;0.934;0.822;0.822;0.143

>  <similarity-descriptor-smiles>
c1ccccc1;Clc1ccccc1;N1C=CNC1=O;c1C(NC=Nc1)=O;c1ccccc1;c1C(NC=Nc1)=O;c1C(NC=Nc1)=O;;;;;c1ccccc1;O;;c1ccccc1;N1C=CNC1=O;N1C=CNC1=O;C

>  <reaction-name>
s_708

>  <reagent1-name>
5904736

>  <reagent1-smiles>
[R1*]=Nc1c(cc(Oc2ccc(Cl)cc2)cc1)C([R2*])=O

>  <reagent2-name>
1322132

>  <reagent2-smiles>
[R1*]=C(N[R2*])c1cc(N2C(=O)NC=C2C)ccc1

$$$$
s_22____1028592____13263488
          04022017353D 1   1.00000     0.00000     0
            
 53 56  0  0  0  0            999 V2000
    7.2065   -5.4109    3.5898 Br  0  0  0  0  0  0  0  0  0  0  0  0
    7.4333   -3.6108    2.8479 C   0  0  0  0  0  0  0  0  0  0  0  0
    8.4336   -3.3329    1.9196 C   0  0  0  0  0  0  0  0  0  0  0  0
    9.2858   -4.2774    1.4900 N   0  0  0  0  0  0  0  0  0  0  0  0
   10.2514   -4.0147    0.5965 C   0  0  0  0  0  0  0  0  0  0  0  0
   10.3738   -2.7216    0.0979 C   0  0  0  0  0  0  0  0  0  0  0  0
    9.5222   -1.7783    0.5263 N   0  0  0  0  0  0  0  0  0  0  0  0
    8.5555   -2.0386    1.4205 C   0  0  0  0  0  0  0  0  0  0  0  0
    7.6825   -1.0441    1.8510 C   0  0  0  0  0  0  0  0  0  0  0  0
    6.6852   -1.3283    2.7776 C   0  0  0  0  0  0  0  0  0  0  0  0
    6.5581   -2.6196    3.2804 C   0  0  0  0  0  0  0  0  0  0  0  0
    5.7802   -0.2865    3.2192 C   0  0  0  0  0  0  0  0  0  0  0  0
    5.1730   -0.4149    4.2462 O   0  0  0  0  0  0  0  0  0  0  0  0
    5.6179    0.8451    2.4642 N   0  0  0  0  0  0  0  0  0  0  0  0
    4.3954    1.5284    2.4806 C   0  0  0  0  0  0  0  0  0  0  0  0
    4.3871    2.9196    2.4880 C   0  0  0  0  0  0  0  0  0  0  0  0
    3.1705    3.5938    2.5039 C   0  0  0  0  0  0  0  0  0  0  0  0
    1.9762    2.8803    2.5120 C   0  0  0  0  0  0  0  0  0  0  0  0
    0.4106    3.7272    2.5319 Cl  0  0  0  0  0  0  0  0  0  0  0  0
    1.9925    1.4892    2.5044 C   0  0  0  0  0  0  0  0  0  0  0  0
    3.2053    0.8080    2.4886 C   0  0  0  0  0  0  0  0  0  0  0  0
    3.1754    5.0435    2.5111 C   0  0  0  0  0  0  0  0  0  0  0  0
    3.1674    5.6487    1.4749 O   0  0  0  0  0  0  0  0  0  0  0  0
    3.1892    5.7226    3.7008 N   0  0  0  0  0  0  0  0  0  0  0  0
    3.1942    7.1926    3.7081 C   0  0  0  0  0  0  0  0  0  0  0  0
    1.7868    7.7028    3.9732 C   0  0  0  0  0  0  0  0  0  0  0  0
    1.3703    7.9275    5.2812 C   0  0  0  0  0  0  0  0  0  0  0  0
    0.0814    8.3935    5.5194 C   0  0  0  0  0  0  0  0  0  0  0  0
   -0.7798    8.6327    4.4536 C   0  0  0  0  0  0  0  0  0  0  0  0
   -0.3527    8.4052    3.1511 C   0  0  0  0  0  0  0  0  0  0  0  0
    0.9335    7.9386    2.8999 C   0  0  0  0  0  0  0  0  0  0  0  0
    3.1991    4.9813    4.9702 C   0  0  0  0  0  0  0  0  0  0  0  0
    4.6355    4.7211    5.3938 C   0  0  0  0  0  0  0  0  0  0  0  0
   10.8734   -4.7369    0.2938 H   0  0  0  0  0  0  0  0  0  0  0  0
   11.0850   -2.4992   -0.5690 H   0  0  0  0  0  0  0  0  0  0  0  0
    7.7732   -0.1158    1.4903 H   0  0  0  0  0  0  0  0  0  0  0  0
    5.8439   -2.8332    3.9468 H   0  0  0  0  0  0  0  0  0  0  0  0
    6.3722    1.1832    1.9014 H   0  0  0  0  0  0  0  0  0  0  0  0
    5.2472    3.4298    2.4820 H   0  0  0  0  0  0  0  0  0  0  0  0
    1.1324    0.9790    2.5102 H   0  0  0  0  0  0  0  0  0  0  0  0
    3.2216   -0.1919    2.4832 H   0  0  0  0  0  0  0  0  0  0  0  0
    3.5092    7.5293    2.8207 H   0  0  0  0  0  0  0  0  0  0  0  0
    3.8083    7.5203    4.4260 H   0  0  0  0  0  0  0  0  0  0  0  0
    1.9927    7.7552    6.0447 H   0  0  0  0  0  0  0  0  0  0  0  0
   -0.2260    8.5566    6.4569 H   0  0  0  0  0  0  0  0  0  0  0  0
   -1.7061    8.9684    4.6247 H   0  0  0  0  0  0  0  0  0  0  0  0
   -0.9751    8.5784    2.3879 H   0  0  0  0  0  0  0  0  0  0  0  0
    1.2400    7.7752    1.9622 H   0  0  0  0  0  0  0  0  0  0  0  0
    2.7236    4.1097    4.8509 H   0  0  0  0  0  0  0  0  0  0  0  0
    2.7363    5.5199    5.6743 H   0  0  0  0  0  0  0  0  0  0  0  0
    4.6422    4.2168    6.2573 H   0  0  0  0  0  0  0  0  0  0  0  0
    5.0983    4.1825    4.6897 H   0  0  0  0  0  0  0  0  0  0  0  0
    5.1109    5.5927    5.5131 H   0  0  0  0  0  0  0  0  0  0  0  0
  1  2  1  0  0  0  0
  2  3  1  0  0  0  0
  3  4  2  0  0  0  0
  4  5  1  0  0  0  0
  5  6  2  0  0  0  0
  6  7  1  0  0  0  0
  7  8  2  0  0  0  0
  8  3  1  0  0  0  0
  8  9  1  0  0  0  0
  9 10  2  0  0  0  0
 10 11  1  0  0  0  0
 11  2  2  0  0  0  0
 10 12  1  0  0  0  0
 12 13  2  0  0  0  0
 12 14  1  0  0  0  0
 14 15  1  0  0  0  0
 15 16  1  0  0  0  0
 16 17  2  0  0  0  0
 17 18  1  0  0  0  0
 18 19  1  0  0  0  0
 18 20  2  0  0  0  0
 20 21  1  0  0  0  0
 21 15  2  0  0  0  0
 17 22  1  0  0  0  0
 22 23  2  0  0  0  0
 22 24  1  0  0  0  0
 24 25  1  0  0  0  0
 25 26  1  0  0  0  0
 26 27  1  0  0  0  0
 27 28  2  0  0  0  0
 28 29  1  0  0  0  0
 29 30  2  0  0  0  0
 30 31  1  0  0  0  0
 31 26  2  0  0  0  0
 24 32  1  0  0  0  0
 32 33  1  0  0  0  0
  5 34  1  0  0  0  0
  6 35  1  0  0  0  0
  9 36  1  0  0  0  0
 11 37  1  0  0  0  0
 14 38  1  0  0  0  0
 16 39  1  0  0  0  0
 20 40  1  0  0  0  0
 21 41  1  0  0  0  0
 25 42  1  0  0  0  0
 25 43  1  0  0  0  0
 27 44  1  0  0  0  0
 28 45  1  0  0  0  0
 29 46  1  0  0  0  0
 30 47  1  0  0  0  0
 31 48  1  0  0  0  0
 32 49  1  0  0  0  0
 32 50  1  0  0  0  0
 33 51  1  0  0  0  0
 33 52  1  0  0  0  0
 33 53  1  0  0  0  0
M  END
>  <result-rank>
62

>  <similarity>
0.870

>  <query-name>


>  <query-smiles>
S1C(C(=O)NC2=Nc3c(N2CCC(=O)N)ccc(N(C(=O)c4ccccc4)C)c3)=CC=C1/C=C/c5ncc(N)cn5

>  <source>
REALspace_2019-12

>  <similarity-descriptor>
0.998;0.935;0.919;0.747;0.747;0.999;1.000;0.0;0.0;0.0;0.0;0.973;0.973;0.0;0.998;0.919;0.0;0.182

>  <similarity-descriptor-smiles>
Brc1ccccc1;NCc1ccccc1;c1cnccn1;c1ccc(cc1)Cl;c1ccc(cc1)Cl;C=O;N;;;;;C=O;C=O;;Brc1ccccc1;c1cnccn1;;C.C

>  <reaction-name>
s_22

>  <reagent1-name>
1028592

>  <reagent1-smiles>
[R1*]Nc1cc(c(Cl)cc1)C(=O)N(Cc2ccccc2)CC

>  <reagent2-name>
13263488

>  <reagent2-smiles>
[R1*]C(=O)c1cc(Br)c2nccnc2c1

$$$$
s_22____4146966____13263488
          04022017353D 1   1.00000     0.00000     0
            
 50 53  0  0  0  0            999 V2000
    4.3521    6.8612   10.3357 Br  0  0  0  0  0  0  0  0  0  0  0  0
    4.7728    6.7385    8.4253 C   0  0  0  0  0  0  0  0  0  0  0  0
    5.5547    7.7029    7.7945 C   0  0  0  0  0  0  0  0  0  0  0  0
    6.0557    8.7566    8.4590 N   0  0  0  0  0  0  0  0  0  0  0  0
    6.8089    9.6886    7.8559 C   0  0  0  0  0  0  0  0  0  0  0  0
    7.0809    9.5592    6.4976 C   0  0  0  0  0  0  0  0  0  0  0  0
    6.5812    8.5063    5.8339 N   0  0  0  0  0  0  0  0  0  0  0  0
    5.8270    7.5727    6.4351 C   0  0  0  0  0  0  0  0  0  0  0  0
    5.3190    6.4880    5.7266 C   0  0  0  0  0  0  0  0  0  0  0  0
    4.5393    5.5280    6.3627 C   0  0  0  0  0  0  0  0  0  0  0  0
    4.2635    5.6523    7.7209 C   0  0  0  0  0  0  0  0  0  0  0  0
    4.0155    4.4015    5.6170 C   0  0  0  0  0  0  0  0  0  0  0  0
    3.3437    3.5756    6.1707 O   0  0  0  0  0  0  0  0  0  0  0  0
    4.2872    4.2793    4.2798 N   0  0  0  0  0  0  0  0  0  0  0  0
    3.4780    3.4708    3.4722 C   0  0  0  0  0  0  0  0  0  0  0  0
    3.9802    2.2782    2.9622 C   0  0  0  0  0  0  0  0  0  0  0  0
    3.1787    1.4732    2.1589 C   0  0  0  0  0  0  0  0  0  0  0  0
    1.8776    1.8776    1.8776 C   0  0  0  0  0  0  0  0  0  0  0  0
    1.3729    3.0698    2.3861 C   0  0  0  0  0  0  0  0  0  0  0  0
    2.1768    3.8725    3.1888 C   0  0  0  0  0  0  0  0  0  0  0  0
    1.0000    1.0000    1.0000 C   0  0  0  0  0  0  0  0  0  0  0  0
    1.0376   -0.3830    1.4967 N   0  0  0  0  0  0  0  0  0  0  0  0
    0.1261   -0.8006    2.4303 C   0  0  0  0  0  0  0  0  0  0  0  0
   -0.7030   -0.0374    2.8426 O   0  0  0  0  0  0  0  0  0  0  0  0
    0.1633   -2.1649    2.9203 C   0  0  0  0  0  0  0  0  0  0  0  0
   -0.7652   -2.5826    3.8683 C   0  0  0  0  0  0  0  0  0  0  0  0
   -0.7245   -3.8919    4.3354 C   0  0  0  0  0  0  0  0  0  0  0  0
    0.2417   -4.7673    3.8495 C   0  0  0  0  0  0  0  0  0  0  0  0
    1.1685   -4.3493    2.8994 C   0  0  0  0  0  0  0  0  0  0  0  0
    1.1287   -3.0393    2.4332 C   0  0  0  0  0  0  0  0  0  0  0  0
    0.2820   -6.1966    4.3650 C   0  0  0  0  0  0  0  0  0  0  0  0
   -0.4864   -6.9660    3.5992 F   0  0  0  0  0  0  0  0  0  0  0  0
    1.5335   -6.6454    4.3301 F   0  0  0  0  0  0  0  0  0  0  0  0
   -0.1658   -6.2291    5.6170 F   0  0  0  0  0  0  0  0  0  0  0  0
    7.1692   10.4641    8.3745 H   0  0  0  0  0  0  0  0  0  0  0  0
    7.6397   10.2399    6.0239 H   0  0  0  0  0  0  0  0  0  0  0  0
    5.5166    6.3979    4.7505 H   0  0  0  0  0  0  0  0  0  0  0  0
    3.7039    4.9667    8.1866 H   0  0  0  0  0  0  0  0  0  0  0  0
    5.0633    4.7674    3.8806 H   0  0  0  0  0  0  0  0  0  0  0  0
    4.9171    1.9993    3.1729 H   0  0  0  0  0  0  0  0  0  0  0  0
    3.5334    0.6148    1.7883 H   0  0  0  0  0  0  0  0  0  0  0  0
    0.4360    3.3487    2.1756 H   0  0  0  0  0  0  0  0  0  0  0  0
    1.8222    4.7312    3.5590 H   0  0  0  0  0  0  0  0  0  0  0  0
    0.0592    1.3379    1.0256 H   0  0  0  0  0  0  0  0  0  0  0  0
    1.3379    1.0256    0.0592 H   0  0  0  0  0  0  0  0  0  0  0  0
    1.7286   -1.0191    1.1531 H   0  0  0  0  0  0  0  0  0  0  0  0
   -1.4564   -1.9465    4.2112 H   0  0  0  0  0  0  0  0  0  0  0  0
   -1.3865   -4.2028    5.0174 H   0  0  0  0  0  0  0  0  0  0  0  0
    1.8581   -4.9859    2.5543 H   0  0  0  0  0  0  0  0  0  0  0  0
    1.7907   -2.7281    1.7514 H   0  0  0  0  0  0  0  0  0  0  0  0
  1  2  1  0  0  0  0
  2  3  1  0  0  0  0
  3  4  2  0  0  0  0
  4  5  1  0  0  0  0
  5  6  2  0  0  0  0
  6  7  1  0  0  0  0
  7  8  2  0  0  0  0
  8  3  1  0  0  0  0
  8  9  1  0  0  0  0
  9 10  2  0  0  0  0
 10 11  1  0  0  0  0
 11  2  2  0  0  0  0
 10 12  1  0  0  0  0
 12 13  2  0  0  0  0
 12 14  1  0  0  0  0
 14 15  1  0  0  0  0
 15 16  1  0  0  0  0
 16 17  2  0  0  0  0
 17 18  1  0  0  0  0
 18 19  2  0  0  0  0
 19 20  1  0  0  0  0
 20 15  2  0  0  0  0
 18 21  1  0  0  0  0
 21 22  1  0  0  0  0
 22 23  1  0  0  0  0
 23 24  2  0  0  0  0
 23 25  1  0  0  0  0
 25 26  1  0  0  0  0
 26 27  2  0  0  0  0
 27 28  1  0  0  0  0
 28 29  2  0  0  0  0
 29 30  1  0  0  0  0
 30 25  2  0  0  0  0
 28 31  1  0  0  0  0
 31 32  1  0  0  0  0
 31 33  1  0  0  0  0
 31 34  1  0  0  0  0
  5 35  1  0  0  0  0
  6 36  1  0  0  0  0
  9 37  1  0  0  0  0
 11 38  1  0  0  0  0
 14 39  1  0  0  0  0
 16 40  1  0  0  0  0
 17 41  1  0  0  0  0
 19 42  1  0  0  0  0
 20 43  1  0  0  0  0
 21 44  1  0  0  0  0
 21 45  1  0  0  0  0
 22 46  1  0  0  0  0
 26 47  1  0  0  0  0
 27 48  1  0  0  0  0
 29 49  1  0  0  0  0
 30 50  1  0  0  0  0
M  END
>  <result-rank>
63

>  <similarity>
0.870

>  <query-name>


>  <query-smiles>
S1C(C(=O)NC2=Nc3c(N2CCC(=O)N)ccc(N(C(=O)c4ccccc4)C)c3)=CC=C1/C=C/c5ncc(N)cn5

>  <source>
REALspace_2019-12

>  <similarity-descriptor>
0.998;0.928;0.919;0.713;0.713;0.999;1.000;0.0;0.0;0.0;0.0;0.933;0.852;0.933;0.998;0.919;0.0;0.0

>  <similarity-descriptor-smiles>
Brc1ccccc1;c1ccc(cc1)C(F)(F)F;c1cnccn1;c1ccccc1;c1ccccc1;C=O;N;;;;;C;NC=O;C;Brc1ccccc1;c1cnccn1;;

>  <reaction-name>
s_22

>  <reagent1-name>
4146966

>  <reagent1-smiles>
[R1*]Nc1ccc(cc1)CNC(=O)c2ccc(cc2)C(F)(F)F

>  <reagent2-name>
13263488

>  <reagent2-smiles>
[R1*]C(=O)c1cc(Br)c2nccnc2c1

$$$$
s_22____8765756____736388
          04022017353D 1   1.00000     0.00000     0
            
 52 55  0  0  0  0            999 V2000
    7.3151   -2.3658    2.6843 F   0  0  0  0  0  0  0  0  0  0  0  0
    6.8645   -3.5617    2.3156 C   0  0  0  0  0  0  0  0  0  0  0  0
    5.7199   -3.6627    1.5302 C   0  0  0  0  0  0  0  0  0  0  0  0
    5.2489   -4.9129    1.1450 C   0  0  0  0  0  0  0  0  0  0  0  0
    5.9226   -6.0629    1.5433 C   0  0  0  0  0  0  0  0  0  0  0  0
    7.0669   -5.9621    2.3283 C   0  0  0  0  0  0  0  0  0  0  0  0
    7.5379   -4.7116    2.7138 C   0  0  0  0  0  0  0  0  0  0  0  0
    5.0179   -2.4638    1.1142 C   0  0  0  0  0  0  0  0  0  0  0  0
    4.2730   -2.5004    0.1741 O   0  0  0  0  0  0  0  0  0  0  0  0
    5.2051   -1.2895    1.7946 N   0  0  0  0  0  0  0  0  0  0  0  0
    4.5272   -0.1320    1.3929 C   0  0  0  0  0  0  0  0  0  0  0  0
    5.2222    1.0074    0.9980 C   0  0  0  0  0  0  0  0  0  0  0  0
    4.5255    2.1454    0.6027 C   0  0  0  0  0  0  0  0  0  0  0  0
    3.1345    2.1447    0.6027 C   0  0  0  0  0  0  0  0  0  0  0  0
    2.4504    1.0000    1.0000 C   0  0  0  0  0  0  0  0  0  0  0  0
    3.1363   -0.1436    1.3969 C   0  0  0  0  0  0  0  0  0  0  0  0
    1.0000    1.0000    1.0000 C   0  0  0  0  0  0  0  0  0  0  0  0
    0.4000    2.0391    1.0156 O   0  0  0  0  0  0  0  0  0  0  0  0
    0.3150   -0.1863    0.9822 N   0  0  0  0  0  0  0  0  0  0  0  0
   -1.0229   -0.2291    1.3967 C   0  0  0  0  0  0  0  0  0  0  0  0
   -1.4731    0.4981    2.4943 C   0  0  0  0  0  0  0  0  0  0  0  0
   -2.7579    0.4453    2.8778 N   0  0  0  0  0  0  0  0  0  0  0  0
   -3.6560   -0.3063    2.2219 C   0  0  0  0  0  0  0  0  0  0  0  0
   -4.9952   -0.3587    2.6256 N   0  0  0  0  0  0  0  0  0  0  0  0
   -5.6113   -1.5709    2.8010 C   0  0  0  0  0  0  0  0  0  0  0  0
   -6.9219   -1.6475    3.1964 C   0  0  0  0  0  0  0  0  0  0  0  0
   -7.6461   -0.4464    3.4255 C   0  0  0  0  0  0  0  0  0  0  0  0
   -8.8137   -0.4954    3.7777 O   0  0  0  0  0  0  0  0  0  0  0  0
   -6.9912    0.8007    3.2386 C   0  0  0  0  0  0  0  0  0  0  0  0
   -5.6785    0.8105    2.8424 C   0  0  0  0  0  0  0  0  0  0  0  0
   -3.2682   -1.0572    1.1166 C   0  0  0  0  0  0  0  0  0  0  0  0
   -1.9398   -1.0146    0.7058 C   0  0  0  0  0  0  0  0  0  0  0  0
    6.7418    1.0082    0.9966 C   0  0  0  0  0  0  0  0  0  0  0  0
    4.4259   -4.9854    0.5817 H   0  0  0  0  0  0  0  0  0  0  0  0
    5.5845   -6.9620    1.2654 H   0  0  0  0  0  0  0  0  0  0  0  0
    7.5508   -6.7888    2.6153 H   0  0  0  0  0  0  0  0  0  0  0  0
    8.3607   -4.6393    3.2774 H   0  0  0  0  0  0  0  0  0  0  0  0
    5.8258   -1.2590    2.5780 H   0  0  0  0  0  0  0  0  0  0  0  0
    5.0250    2.9639    0.3186 H   0  0  0  0  0  0  0  0  0  0  0  0
    2.6301    2.9604    0.3195 H   0  0  0  0  0  0  0  0  0  0  0  0
    2.6366   -0.9619    1.6809 H   0  0  0  0  0  0  0  0  0  0  0  0
    0.7698   -1.0217    0.6734 H   0  0  0  0  0  0  0  0  0  0  0  0
   -0.8296    1.0684    3.0049 H   0  0  0  0  0  0  0  0  0  0  0  0
   -5.0966   -2.4126    2.6379 H   0  0  0  0  0  0  0  0  0  0  0  0
   -7.3623   -2.5365    3.3218 H   0  0  0  0  0  0  0  0  0  0  0  0
   -7.4806    1.6589    3.3938 H   0  0  0  0  0  0  0  0  0  0  0  0
   -5.2116    1.6847    2.7093 H   0  0  0  0  0  0  0  0  0  0  0  0
   -3.9340   -1.6187    0.6252 H   0  0  0  0  0  0  0  0  0  0  0  0
   -1.6440   -1.5487   -0.0862 H   0  0  0  0  0  0  0  0  0  0  0  0
    7.0745    1.8993    0.6879 H   0  0  0  0  0  0  0  0  0  0  0  0
    7.0761    0.8299    1.9220 H   0  0  0  0  0  0  0  0  0  0  0  0
    7.0749    0.2958    0.3789 H   0  0  0  0  0  0  0  0  0  0  0  0
  1  2  1  0  0  0  0
  2  3  1  0  0  0  0
  3  4  2  0  0  0  0
  4  5  1  0  0  0  0
  5  6  2  0  0  0  0
  6  7  1  0  0  0  0
  7  2  2  0  0  0  0
  3  8  1  0  0  0  0
  8  9  2  0  0  0  0
  8 10  1  0  0  0  0
 10 11  1  0  0  0  0
 11 12  1  0  0  0  0
 12 13  2  0  0  0  0
 13 14  1  0  0  0  0
 14 15  2  0  0  0  0
 15 16  1  0  0  0  0
 16 11  2  0  0  0  0
 15 17  1  0  0  0  0
 17 18  2  0  0  0  0
 17 19  1  0  0  0  0
 19 20  1  0  0  0  0
 20 21  1  0  0  0  0
 21 22  2  0  0  0  0
 22 23  1  0  0  0  0
 23 24  1  0  0  0  0
 24 25  1  0  0  0  0
 25 26  2  0  0  0  0
 26 27  1  0  0  0  0
 27 28  2  0  0  0  0
 27 29  1  0  0  0  0
 29 30  2  0  0  0  0
 30 24  1  0  0  0  0
 23 31  2  0  0  0  0
 31 32  1  0  0  0  0
 32 20  2  0  0  0  0
 12 33  1  0  0  0  0
  4 34  1  0  0  0  0
  5 35  1  0  0  0  0
  6 36  1  0  0  0  0
  7 37  1  0  0  0  0
 10 38  1  0  0  0  0
 13 39  1  0  0  0  0
 14 40  1  0  0  0  0
 16 41  1  0  0  0  0
 19 42  1  0  0  0  0
 21 43  1  0  0  0  0
 25 44  1  0  0  0  0
 26 45  1  0  0  0  0
 29 46  1  0  0  0  0
 30 47  1  0  0  0  0
 31 48  1  0  0  0  0
 32 49  1  0  0  0  0
 33 50  1  0  0  0  0
 33 51  1  0  0  0  0
 33 52  1  0  0  0  0
M  END
>  <result-rank>
64

>  <similarity>
0.870

>  <query-name>


>  <query-smiles>
S1C(C(=O)NC2=Nc3c(N2CCC(=O)N)ccc(N(C(=O)c4ccccc4)C)c3)=CC=C1/C=C/c5ncc(N)cn5

>  <source>
REALspace_2019-12

>  <similarity-descriptor>
0.866;0.967;0.920;0.483;0.993;0.866;1.000;0.0;0.0;0.0;0.0;0.993;0.852;0.995;0.920;0.920;0.0;0.0

>  <similarity-descriptor-smiles>
c1cccnc1;Fc1ccccc1;N1C=CC(C=C1)=O;C=O;c1ccccc1;c1cccnc1;N;;;;;c1ccccc1;C(=O)N;C;N1C=CC(C=C1)=O;N1C=CC(C=C1)=O;;

>  <reaction-name>
s_22

>  <reagent1-name>
8765756

>  <reagent1-smiles>
[R1*]Nc1cnc(N2C=CC(=O)C=C2)cc1

>  <reagent2-name>
736388

>  <reagent2-smiles>
[R1*]C(=O)c1cc(NC(=O)c2c(F)cccc2)c(cc1)C

$$$$
s_40____14935132____6361044
          04022017353D 1   1.00000     0.00000     0
            
 52 56  0  0  0  0            999 V2000
    6.2526    0.9970   -0.6662 Br  0  0  0  0  0  0  0  0  0  0  0  0
    7.4401    2.0216    0.5100 C   0  0  0  0  0  0  0  0  0  0  0  0
    7.2926    1.9939    1.8929 C   0  0  0  0  0  0  0  0  0  0  0  0
    6.0209    1.0256    2.5812 S   0  0  0  0  0  0  0  0  0  0  0  0
    6.1923    0.9530    4.0092 O   0  0  0  0  0  0  0  0  0  0  0  0
    6.0723   -0.3010    2.0236 O   0  0  0  0  0  0  0  0  0  0  0  0
    4.4627    1.7564    2.2138 N   0  0  0  0  0  0  0  0  0  0  0  0
    4.4183    3.1079    2.7854 C   0  0  0  0  0  0  0  0  0  0  0  0
    3.0382    3.7407    2.6331 C   0  0  0  0  0  0  0  0  0  0  0  0
    1.9131    2.9753    2.3685 C   0  0  0  0  0  0  0  0  0  0  0  0
    0.6539    3.5478    2.2621 C   0  0  0  0  0  0  0  0  0  0  0  0
    0.5461    4.9255    2.4113 C   0  0  0  0  0  0  0  0  0  0  0  0
   -0.6670    5.5053    2.3105 O   0  0  0  0  0  0  0  0  0  0  0  0
   -0.7965    6.9114    2.4600 C   0  0  0  0  0  0  0  0  0  0  0  0
   -2.2559    7.3053    2.3025 C   0  0  0  0  0  0  0  0  0  0  0  0
   -3.0786    7.3403    3.4234 C   0  0  0  0  0  0  0  0  0  0  0  0
   -4.4152    7.7003    3.2855 C   0  0  0  0  0  0  0  0  0  0  0  0
   -4.9120    8.0213    2.0264 C   0  0  0  0  0  0  0  0  0  0  0  0
   -6.1889    8.3673    1.8873 F   0  0  0  0  0  0  0  0  0  0  0  0
   -4.0936    7.9870    0.9021 C   0  0  0  0  0  0  0  0  0  0  0  0
   -2.7580    7.6267    1.0460 C   0  0  0  0  0  0  0  0  0  0  0  0
    1.6655    5.7115    2.6605 C   0  0  0  0  0  0  0  0  0  0  0  0
    2.9191    5.1189    2.7725 C   0  0  0  0  0  0  0  0  0  0  0  0
    2.0545    1.4779    2.1719 C   0  0  0  0  0  0  0  0  0  0  0  0
    3.3559    0.9608    2.7659 C   0  0  0  0  0  0  0  0  0  0  0  0
    8.1577    2.7369    2.6907 C   0  0  0  0  0  0  0  0  0  0  0  0
    9.1734    3.5116    2.1384 C   0  0  0  0  0  0  0  0  0  0  0  0
   10.1412    4.3152    2.6631 N   0  0  0  0  0  0  0  0  0  0  0  0
   10.8562    4.8200    1.6187 C   0  0  0  0  0  0  0  0  0  0  0  0
   11.8034    5.5822    1.7154 O   0  0  0  0  0  0  0  0  0  0  0  0
   10.3475    4.3403    0.4484 N   0  0  0  0  0  0  0  0  0  0  0  0
    9.3020    3.5261    0.7695 C   0  0  0  0  0  0  0  0  0  0  0  0
    8.4514    2.7934   -0.0508 C   0  0  0  0  0  0  0  0  0  0  0  0
    5.0908    3.6803    2.3162 H   0  0  0  0  0  0  0  0  0  0  0  0
    4.6454    3.0559    3.7579 H   0  0  0  0  0  0  0  0  0  0  0  0
   -0.1533    2.9852    2.0832 H   0  0  0  0  0  0  0  0  0  0  0  0
   -0.2495    7.3727    1.7614 H   0  0  0  0  0  0  0  0  0  0  0  0
   -0.4745    7.1812    3.3675 H   0  0  0  0  0  0  0  0  0  0  0  0
   -2.7111    7.1078    4.3239 H   0  0  0  0  0  0  0  0  0  0  0  0
   -5.0145    7.7281    4.0856 H   0  0  0  0  0  0  0  0  0  0  0  0
   -4.4611    8.2187    0.0014 H   0  0  0  0  0  0  0  0  0  0  0  0
   -2.1587    7.5987    0.2460 H   0  0  0  0  0  0  0  0  0  0  0  0
    1.5696    6.7020    2.7591 H   0  0  0  0  0  0  0  0  0  0  0  0
    3.7277    5.6793    2.9518 H   0  0  0  0  0  0  0  0  0  0  0  0
    2.0407    1.2756    1.1926 H   0  0  0  0  0  0  0  0  0  0  0  0
    1.2874    1.0173    2.6183 H   0  0  0  0  0  0  0  0  0  0  0  0
    3.3347    1.0556    3.7611 H   0  0  0  0  0  0  0  0  0  0  0  0
    3.4785   -0.0020    2.5253 H   0  0  0  0  0  0  0  0  0  0  0  0
    8.0469    2.7135    3.6842 H   0  0  0  0  0  0  0  0  0  0  0  0
   10.2974    4.4998    3.6334 H   0  0  0  0  0  0  0  0  0  0  0  0
   10.6788    4.5468   -0.4722 H   0  0  0  0  0  0  0  0  0  0  0  0
    8.5670    2.8215   -1.0437 H   0  0  0  0  0  0  0  0  0  0  0  0
  1  2  1  0  0  0  0
  2  3  1  0  0  0  0
  3  4  1  0  0  0  0
  4  5  2  0  0  0  0
  4  6  2  0  0  0  0
  4  7  1  0  0  0  0
  7  8  1  0  0  0  0
  8  9  1  0  0  0  0
  9 10  1  0  0  0  0
 10 11  2  0  0  0  0
 11 12  1  0  0  0  0
 12 13  1  0  0  0  0
 13 14  1  0  0  0  0
 14 15  1  0  0  0  0
 15 16  1  0  0  0  0
 16 17  2  0  0  0  0
 17 18  1  0  0  0  0
 18 19  1  0  0  0  0
 18 20  2  0  0  0  0
 20 21  1  0  0  0  0
 21 15  2  0  0  0  0
 12 22  2  0  0  0  0
 22 23  1  0  0  0  0
 23  9  2  0  0  0  0
 10 24  1  0  0  0  0
 24 25  1  0  0  0  0
 25  7  1  0  0  0  0
  3 26  2  0  0  0  0
 26 27  1  0  0  0  0
 27 28  1  0  0  0  0
 28 29  1  0  0  0  0
 29 30  2  0  0  0  0
 29 31  1  0  0  0  0
 31 32  1  0  0  0  0
 32 27  2  0  0  0  0
 32 33  1  0  0  0  0
 33  2  2  0  0  0  0
  8 34  1  0  0  0  0
  8 35  1  0  0  0  0
 11 36  1  0  0  0  0
 14 37  1  0  0  0  0
 14 38  1  0  0  0  0
 16 39  1  0  0  0  0
 17 40  1  0  0  0  0
 20 41  1  0  0  0  0
 21 42  1  0  0  0  0
 22 43  1  0  0  0  0
 23 44  1  0  0  0  0
 24 45  1  0  0  0  0
 24 46  1  0  0  0  0
 25 47  1  0  0  0  0
 25 48  1  0  0  0  0
 26 49  1  0  0  0  0
 28 50  1  0  0  0  0
 31 51  1  0  0  0  0
 33 52  1  0  0  0  0
M  END
>  <result-rank>
65

>  <similarity>
0.869

>  <query-name>


>  <query-smiles>
S1C(C(=O)NC2=Nc3c(N2CCC(=O)N)ccc(N(C(=O)c4ccccc4)C)c3)=CC=C1/C=C/c5ncc(N)cn5

>  <source>
REALspace_2019-12

>  <similarity-descriptor>
1.000;0.967;0.863;0.839;0.989;0.621;0.621;0.839;0.839;0.0;0.0;0.989;0.568;0.0;1.000;0.863;0.863;0.0

>  <similarity-descriptor-smiles>
Brc1ccccc1;c1ccc(cc1)F;c1cNC(N1)=O;N1CCccC1;c1ccccc1;S(=O)=O;S(=O)=O;N1CCccC1;N1CCccC1;;;c1ccccc1;OC;;Brc1ccccc1;c1cNC(N1)=O;c1cNC(N1)=O;

>  <reaction-name>
s_40

>  <reagent1-name>
14935132

>  <reagent1-smiles>
[R1*]N1Cc2c(cc(OCc3ccc(F)cc3)cc2)CC1

>  <reagent2-name>
6361044

>  <reagent2-smiles>
[R1*]S(=O)(=O)c1c(Br)cc2NC(=O)Nc2c1

$$$$
s_51____14059366____77354
          04022017353D 1   1.00000     0.00000     0
            
 56 60  0  0  0  0            999 V2000
   13.2798   -2.7918    4.7904 F   0  0  0  0  0  0  0  0  0  0  0  0
   12.1531   -2.0909    4.6995 C   0  0  0  0  0  0  0  0  0  0  0  0
   11.3698   -2.1786    3.5534 C   0  0  0  0  0  0  0  0  0  0  0  0
   11.7551   -2.9661    2.5532 F   0  0  0  0  0  0  0  0  0  0  0  0
   10.1895   -1.4519    3.4442 C   0  0  0  0  0  0  0  0  0  0  0  0
    9.8076   -0.6353    4.5034 C   0  0  0  0  0  0  0  0  0  0  0  0
    8.5797    0.1259    4.4024 C   0  0  0  0  0  0  0  0  0  0  0  0
    8.1983    0.9425    5.4623 C   0  0  0  0  0  0  0  0  0  0  0  0
    7.0206    1.6776    5.3747 C   0  0  0  0  0  0  0  0  0  0  0  0
    6.2380    1.5864    4.2283 C   0  0  0  0  0  0  0  0  0  0  0  0
    5.0515    2.3221    4.1315 N   0  0  0  0  0  0  0  0  0  0  0  0
    4.2252    2.2263    2.9221 C   0  0  3  0  0  0  0  0  0  0  0  0
    3.2014    1.1115    3.0465 C   0  0  0  0  0  0  0  0  0  0  0  0
    3.4403   -0.0186    3.4185 O   0  0  0  0  0  0  0  0  0  0  0  0
    1.9504    1.6004    2.6725 N   0  0  0  0  0  0  0  0  0  0  0  0
    0.7816    0.8348    2.5870 C   0  0  0  0  0  0  0  0  0  0  0  0
   -0.4467    1.4424    2.8271 C   0  0  0  0  0  0  0  0  0  0  0  0
   -1.6083    0.6816    2.7418 C   0  0  0  0  0  0  0  0  0  0  0  0
   -1.5325   -0.6694    2.4197 C   0  0  0  0  0  0  0  0  0  0  0  0
   -2.7015   -1.4347    2.3339 N   0  0  0  0  0  0  0  0  0  0  0  0
   -2.6712   -2.6353    2.5992 N   0  0  0  0  0  0  0  0  0  0  0  0
   -3.8404   -3.4010    2.5133 C   0  0  0  0  0  0  0  0  0  0  0  0
   -3.7983   -4.7585    2.8150 C   0  0  0  0  0  0  0  0  0  0  0  0
   -4.9619   -5.5158    2.7287 C   0  0  0  0  0  0  0  0  0  0  0  0
   -6.1555   -4.9151    2.3430 C   0  0  0  0  0  0  0  0  0  0  0  0
   -6.1859   -3.5570    2.0443 C   0  0  0  0  0  0  0  0  0  0  0  0
   -5.0287   -2.7898    2.1270 C   0  0  0  0  0  0  0  0  0  0  0  0
   -0.3043   -1.2772    2.1795 C   0  0  0  0  0  0  0  0  0  0  0  0
    0.8573   -0.5163    2.2651 C   0  0  0  0  0  0  0  0  0  0  0  0
    2.0275    2.9584    2.3870 C   0  0  0  0  0  0  0  0  0  0  0  0
    1.1159    3.6374    1.9619 O   0  0  0  0  0  0  0  0  0  0  0  0
    3.4143    3.4805    2.6821 C   0  0  0  0  0  0  0  0  0  0  0  0
    6.6200    0.7694    3.1686 C   0  0  0  0  0  0  0  0  0  0  0  0
    7.7978    0.0345    3.2561 C   0  0  0  0  0  0  0  0  0  0  0  0
   10.5740   -0.5305    5.6586 C   0  0  0  0  0  0  0  0  0  0  0  0
   11.7505   -1.2668    5.7448 C   0  0  0  0  0  0  0  0  0  0  0  0
   12.5050   -1.1885    6.8372 F   0  0  0  0  0  0  0  0  0  0  0  0
    9.6262   -1.5151    2.6204 H   0  0  0  0  0  0  0  0  0  0  0  0
    8.7676    1.0007    6.2824 H   0  0  0  0  0  0  0  0  0  0  0  0
    6.7384    2.2678    6.1310 H   0  0  0  0  0  0  0  0  0  0  0  0
    4.7666    2.9130    4.8862 H   0  0  0  0  0  0  0  0  0  0  0  0
    4.8118    2.0528    2.1311 H   0  0  0  0  0  0  0  0  0  0  0  0
   -0.4941    2.4142    3.0581 H   0  0  0  0  0  0  0  0  0  0  0  0
   -2.4977    1.1059    2.9120 H   0  0  0  0  0  0  0  0  0  0  0  0
   -2.9380   -5.1866    3.0918 H   0  0  0  0  0  0  0  0  0  0  0  0
   -4.9402   -6.4921    2.9440 H   0  0  0  0  0  0  0  0  0  0  0  0
   -6.9918   -5.4597    2.2805 H   0  0  0  0  0  0  0  0  0  0  0  0
   -7.0463   -3.1289    1.7680 H   0  0  0  0  0  0  0  0  0  0  0  0
   -5.0506   -1.8134    1.9119 H   0  0  0  0  0  0  0  0  0  0  0  0
   -0.2570   -2.2490    1.9483 H   0  0  0  0  0  0  0  0  0  0  0  0
    1.7467   -0.9408    2.0953 H   0  0  0  0  0  0  0  0  0  0  0  0
    3.4105    4.0637    3.4944 H   0  0  0  0  0  0  0  0  0  0  0  0
    3.7748    3.9949    1.9040 H   0  0  0  0  0  0  0  0  0  0  0  0
    6.0508    0.7109    2.3484 H   0  0  0  0  0  0  0  0  0  0  0  0
    8.0803   -0.5555    2.4998 H   0  0  0  0  0  0  0  0  0  0  0  0
   10.2855    0.0614    6.4111 H   0  0  0  0  0  0  0  0  0  0  0  0
  1  2  1  0  0  0  0
  2  3  1  0  0  0  0
  3  4  1  0  0  0  0
  3  5  2  0  0  0  0
  5  6  1  0  0  0  0
  6  7  1  0  0  0  0
  7  8  1  0  0  0  0
  8  9  2  0  0  0  0
  9 10  1  0  0  0  0
 10 11  1  0  0  0  0
 11 12  1  0  0  0  0
 12 13  1  0  0  0  0
 13 14  2  0  0  0  0
 13 15  1  0  0  0  0
 15 16  1  0  0  0  0
 16 17  1  0  0  0  0
 17 18  2  0  0  0  0
 18 19  1  0  0  0  0
 19 20  1  0  0  0  0
 20 21  2  0  0  0  0
 21 22  1  0  0  0  0
 22 23  1  0  0  0  0
 23 24  2  0  0  0  0
 24 25  1  0  0  0  0
 25 26  2  0  0  0  0
 26 27  1  0  0  0  0
 27 22  2  0  0  0  0
 19 28  2  0  0  0  0
 28 29  1  0  0  0  0
 29 16  2  0  0  0  0
 15 30  1  0  0  0  0
 30 31  2  0  0  0  0
 30 32  1  0  0  0  0
 32 12  1  0  0  0  0
 10 33  2  0  0  0  0
 33 34  1  0  0  0  0
 34  7  2  0  0  0  0
  6 35  2  0  0  0  0
 35 36  1  0  0  0  0
 36  2  2  0  0  0  0
 36 37  1  0  0  0  0
  5 38  1  0  0  0  0
  8 39  1  0  0  0  0
  9 40  1  0  0  0  0
 11 41  1  0  0  0  0
 12 42  1  0  0  0  0
 17 43  1  0  0  0  0
 18 44  1  0  0  0  0
 23 45  1  0  0  0  0
 24 46  1  0  0  0  0
 25 47  1  0  0  0  0
 26 48  1  0  0  0  0
 27 49  1  0  0  0  0
 28 50  1  0  0  0  0
 29 51  1  0  0  0  0
 32 52  1  0  0  0  0
 32 53  1  0  0  0  0
 33 54  1  0  0  0  0
 34 55  1  0  0  0  0
 35 56  1  0  0  0  0
M  END
>  <result-rank>
66

>  <similarity>
0.869

>  <query-name>


>  <query-smiles>
S1C(C(=O)NC2=Nc3c(N2CCC(=O)N)ccc(N(C(=O)c4ccccc4)C)c3)=CC=C1/C=C/c5ncc(N)cn5

>  <source>
REALspace_2019-12

>  <similarity-descriptor>
0.850;0.998;0.832;0.809;0.946;0.850;0.990;0.809;0.809;0.809;0.0;0.946;0.835;0.0;0.832;0.832;0.0;0.0

>  <similarity-descriptor-smiles>
c1ccccc1;c1ccccc1;Fc1c(cccc1F)F;C1CC(NC1=O)=O;c1ccccc1;c1ccccc1;N;C1CC(NC1=O)=O;C1CC(NC1=O)=O;C1CC(NC1=O)=O;;c1ccccc1;N=N;;Fc1c(cccc1F)F;Fc1c(cccc1F)F;;

>  <reaction-name>
s_51

>  <reagent1-name>
14059366

>  <reagent1-smiles>
[R1*]Nc1ccc(c2cc(F)c(F)c(F)c2)cc1

>  <reagent2-name>
77354

>  <reagent2-smiles>
[R1*]C1C(=O)N(c2ccc(N=Nc3ccccc3)cc2)C(=O)C1

$$$$
m_274860b____17144820____12656616____17179884
          04022017353D 1   1.00000     0.00000     0
            
 64 68  0  0  0  0            999 V2000
   -1.0343   11.1269    2.5773 O   0  0  0  0  0  0  0  0  0  0  0  0
   -0.4953   10.0549    2.5687 C   0  0  0  0  0  0  0  0  0  0  0  0
    0.8724    9.9759    2.5604 N   0  0  0  0  0  0  0  0  0  0  0  0
    1.6413   11.1461    2.5618 C   0  0  0  0  0  0  0  0  0  0  0  0
    3.0297   11.0579    2.5533 C   0  0  0  0  0  0  0  0  0  0  0  0
    3.7901   12.2226    2.5545 C   0  0  0  0  0  0  0  0  0  0  0  0
    3.1617   13.4632    2.5644 C   0  0  0  0  0  0  0  0  0  0  0  0
    1.7730   13.5394    2.5723 C   0  0  0  0  0  0  0  0  0  0  0  0
    1.0023   12.3816    2.5713 C   0  0  0  0  0  0  0  0  0  0  0  0
   -1.3299    8.7845    2.5671 C   0  0  0  0  0  0  0  0  0  0  0  0
   -2.7209    8.8340    2.5755 C   0  0  0  0  0  0  0  0  0  0  0  0
   -3.4587    7.6550    2.5740 C   0  0  0  0  0  0  0  0  0  0  0  0
   -2.8064    6.4263    2.5641 C   0  0  0  0  0  0  0  0  0  0  0  0
   -1.4158    6.3876    2.5557 C   0  0  0  0  0  0  0  0  0  0  0  0
   -0.6685    7.5609    2.5572 C   0  0  0  0  0  0  0  0  0  0  0  0
   -0.7382    5.1051    2.5458 C   0  0  0  0  0  0  0  0  0  0  0  0
   -1.3355    3.8807    2.5432 N   0  0  0  0  0  0  0  0  0  0  0  0
   -0.4258    3.0052    2.5344 N   0  0  0  0  0  0  0  0  0  0  0  0
    0.7606    3.5620    2.5249 N   0  0  0  0  0  0  0  0  0  0  0  0
    1.9825    2.8774    2.5113 C   0  0  0  0  0  0  0  0  0  0  0  0
    3.1724    3.5978    2.5023 C   0  0  0  0  0  0  0  0  0  0  0  0
    4.3794    2.9069    2.4885 C   0  0  0  0  0  0  0  0  0  0  0  0
    4.4073    1.5164    2.4834 C   0  0  0  0  0  0  0  0  0  0  0  0
    3.2044    0.8172    2.4929 C   0  0  0  0  0  0  0  0  0  0  0  0
    1.9858    1.4868    2.5068 C   0  0  0  0  0  0  0  0  0  0  0  0
    5.6830    3.6885    2.4782 C   0  0  0  0  0  0  0  0  0  0  0  0
    6.1167    3.9364    3.8607 N   0  0  0  0  0  0  0  0  0  0  0  0
    6.9288    3.0343    4.4961 C   0  0  0  0  0  0  0  0  0  0  0  0
    7.2861    2.0418    3.9240 O   0  0  0  0  0  0  0  0  0  0  0  0
    7.3568    3.2789    5.8604 C   0  0  0  0  0  0  0  0  0  0  0  0
    8.1578    2.4751    6.6100 C   0  0  0  0  0  0  0  0  0  0  0  0
    8.2935    3.0903    7.8155 N   0  0  0  0  0  0  0  0  0  0  0  0
    7.6114    4.2109    7.8102 N   0  0  0  0  0  0  0  0  0  0  0  0
    7.0145    4.3945    6.6581 C   0  0  0  0  0  0  0  0  0  0  0  0
    9.0799    2.5799    8.9477 C   0  0  0  0  0  0  0  0  0  0  0  0
    8.7602    1.1991    6.1983 N   0  0  0  0  0  0  0  0  0  0  0  0
    0.6065    4.9129    2.5312 C   0  0  0  0  0  0  0  0  0  0  0  0
   -3.4682   10.1576    2.5866 C   0  0  0  0  0  0  0  0  0  0  0  0
    1.3216    9.0825    2.5532 H   0  0  0  0  0  0  0  0  0  0  0  0
    3.4776   10.1638    2.5463 H   0  0  0  0  0  0  0  0  0  0  0  0
    4.7886   12.1679    2.5483 H   0  0  0  0  0  0  0  0  0  0  0  0
    3.7084   14.3006    2.5659 H   0  0  0  0  0  0  0  0  0  0  0  0
    1.3251   14.4335    2.5788 H   0  0  0  0  0  0  0  0  0  0  0  0
    0.0038   12.4365    2.5773 H   0  0  0  0  0  0  0  0  0  0  0  0
   -4.4580    7.6906    2.5799 H   0  0  0  0  0  0  0  0  0  0  0  0
   -3.3336    5.5765    2.5631 H   0  0  0  0  0  0  0  0  0  0  0  0
    0.3308    7.5252    2.5511 H   0  0  0  0  0  0  0  0  0  0  0  0
    3.1601    4.5977    2.5056 H   0  0  0  0  0  0  0  0  0  0  0  0
    5.2790    1.0264    2.4730 H   0  0  0  0  0  0  0  0  0  0  0  0
    3.2165   -0.1827    2.4898 H   0  0  0  0  0  0  0  0  0  0  0  0
    1.1257    0.9766    2.5134 H   0  0  0  0  0  0  0  0  0  0  0  0
    6.3841    3.1610    1.9984 H   0  0  0  0  0  0  0  0  0  0  0  0
    5.5445    4.5616    2.0107 H   0  0  0  0  0  0  0  0  0  0  0  0
    5.8189    4.7634    4.3375 H   0  0  0  0  0  0  0  0  0  0  0  0
    6.4351    5.1665    6.3966 H   0  0  0  0  0  0  0  0  0  0  0  0
    9.5018    1.7092    8.6949 H   0  0  0  0  0  0  0  0  0  0  0  0
    9.7933    3.2401    9.1826 H   0  0  0  0  0  0  0  0  0  0  0  0
    8.4797    2.4431    9.7357 H   0  0  0  0  0  0  0  0  0  0  0  0
    8.5909    0.8392    5.2808 H   0  0  0  0  0  0  0  0  0  0  0  0
    9.3394    0.6909    6.8358 H   0  0  0  0  0  0  0  0  0  0  0  0
    1.3235    5.6100    2.5262 H   0  0  0  0  0  0  0  0  0  0  0  0
   -4.4531    9.9842    2.5914 H   0  0  0  0  0  0  0  0  0  0  0  0
   -3.2169   10.6755    3.4043 H   0  0  0  0  0  0  0  0  0  0  0  0
   -3.2264   10.6838    1.7713 H   0  0  0  0  0  0  0  0  0  0  0  0
  1  2  2  0  0  0  0
  2  3  1  0  0  0  0
  3  4  1  0  0  0  0
  4  5  1  0  0  0  0
  5  6  2  0  0  0  0
  6  7  1  0  0  0  0
  7  8  2  0  0  0  0
  8  9  1  0  0  0  0
  9  4  2  0  0  0  0
  2 10  1  0  0  0  0
 10 11  1  0  0  0  0
 11 12  2  0  0  0  0
 12 13  1  0  0  0  0
 13 14  2  0  0  0  0
 14 15  1  0  0  0  0
 15 10  2  0  0  0  0
 14 16  1  0  0  0  0
 16 17  1  0  0  0  0
 17 18  2  0  0  0  0
 18 19  1  0  0  0  0
 19 20  1  0  0  0  0
 20 21  1  0  0  0  0
 21 22  2  0  0  0  0
 22 23  1  0  0  0  0
 23 24  2  0  0  0  0
 24 25  1  0  0  0  0
 25 20  2  0  0  0  0
 22 26  1  0  0  0  0
 26 27  1  0  0  0  0
 27 28  1  0  0  0  0
 28 29  2  0  0  0  0
 28 30  1  0  0  0  0
 30 31  2  0  0  0  0
 31 32  1  0  0  0  0
 32 33  1  0  0  0  0
 33 34  2  0  0  0  0
 34 30  1  0  0  0  0
 32 35  1  0  0  0  0
 31 36  1  0  0  0  0
 19 37  1  0  0  0  0
 16 37  2  0  0  0  0
 11 38  1  0  0  0  0
  3 39  1  0  0  0  0
  5 40  1  0  0  0  0
  6 41  1  0  0  0  0
  7 42  1  0  0  0  0
  8 43  1  0  0  0  0
  9 44  1  0  0  0  0
 12 45  1  0  0  0  0
 13 46  1  0  0  0  0
 15 47  1  0  0  0  0
 21 48  1  0  0  0  0
 23 49  1  0  0  0  0
 24 50  1  0  0  0  0
 25 51  1  0  0  0  0
 26 52  1  0  0  0  0
 26 53  1  0  0  0  0
 27 54  1  0  0  0  0
 34 55  1  0  0  0  0
 35 56  1  0  0  0  0
 35 57  1  0  0  0  0
 35 58  1  0  0  0  0
 36 59  1  0  0  0  0
 36 60  1  0  0  0  0
 37 61  1  0  0  0  0
 38 62  1  0  0  0  0
 38 63  1  0  0  0  0
 38 64  1  0  0  0  0
M  END
>  <result-rank>
67

>  <similarity>
0.869

>  <query-name>


>  <query-smiles>
S1C(C(=O)NC2=Nc3c(N2CCC(=O)N)ccc(N(C(=O)c4ccccc4)C)c3)=CC=C1/C=C/c5ncc(N)cn5

>  <source>
REALspace_2019-12

>  <similarity-descriptor>
0.934;0.998;0.910;0.765;0.995;0.765;0.765;0.0;0.0;0.0;0.0;0.995;0.852;0.995;0.934;0.210;1.000;0.077

>  <similarity-descriptor-smiles>
c1ccccc1;c1ccccc1;C(=O)C=1C=NNC1;C1=CNN=N1;c1ccccc1;C1=CNN=N1;C1=CNN=N1;;;;;c1ccccc1;O=CN;C;c1ccccc1;CN;N;C

>  <reaction-name>
m_274860b

>  <reagent1-name>
17144820

>  <reagent1-smiles>
[R1*]N=NN([R2*])c1cc(ccc1)CN[R3*]

>  <reagent2-name>
12656616

>  <reagent2-smiles>
[R3*]C(=O)C1=C(N(N=C1)C)N

>  <reagent3-name>
17179884

>  <reagent3-smiles>
[R1*]C(c1cc(c(cc1)C)C(=O)Nc2ccccc2)=C[R2*]

$$$$
m_274860a____15212420____17209716____17180102
          04022017353D 1   1.00000     0.00000     0
            
 68 72  0  0  0  0            999 V2000
    2.6245    5.3395    4.5475 O   0  0  0  0  0  0  0  0  0  0  0  0
    1.6163    4.7005    4.6710 C   0  0  0  0  0  0  0  0  0  0  0  0
    1.3534    4.0572    5.8517 N   0  0  0  0  0  0  0  0  0  0  0  0
    0.1771    3.3115    5.9959 C   0  0  0  0  0  0  0  0  0  0  0  0
    0.1716    1.9618    5.6588 C   0  0  0  0  0  0  0  0  0  0  0  0
   -0.9989    1.2243    5.8036 C   0  0  0  0  0  0  0  0  0  0  0  0
   -2.1521    1.8370    6.2820 C   0  0  0  0  0  0  0  0  0  0  0  0
   -2.1349    3.1869    6.6165 C   0  0  0  0  0  0  0  0  0  0  0  0
   -0.9703    3.9344    6.4757 C   0  0  0  0  0  0  0  0  0  0  0  0
    2.3063    4.1497    6.9672 C   0  0  0  0  0  0  0  0  0  0  0  0
    0.6762    4.6091    3.5705 C   0  0  0  0  0  0  0  0  0  0  0  0
    0.9124    3.7211    2.5251 C   0  0  0  0  0  0  0  0  0  0  0  0
    2.0497    2.9042    2.5096 N   0  0  0  0  0  0  0  0  0  0  0  0
    3.2911    3.3246    2.5132 N   0  0  0  0  0  0  0  0  0  0  0  0
    4.0969    2.3529    2.4937 N   0  0  0  0  0  0  0  0  0  0  0  0
    3.3663    1.2031    2.4818 C   0  0  0  0  0  0  0  0  0  0  0  0
    3.8959   -0.1468    2.4591 C   0  0  0  0  0  0  0  0  0  0  0  0
    4.1683   -0.8387    3.6359 C   0  0  0  0  0  0  0  0  0  0  0  0
    4.6757   -2.1328    3.5807 C   0  0  0  0  0  0  0  0  0  0  0  0
    4.9129   -2.7394    2.3514 C   0  0  0  0  0  0  0  0  0  0  0  0
    4.6373   -2.0389    1.1813 C   0  0  0  0  0  0  0  0  0  0  0  0
    4.8774   -2.6534   -0.0537 N   0  0  0  0  0  0  0  0  0  0  0  0
    5.1178   -1.8692   -1.1930 C   0  0  0  0  0  0  0  0  0  0  0  0
    4.1326   -1.4487   -2.0047 N   0  0  0  0  0  0  0  0  0  0  0  0
    4.3628   -0.6975   -3.0952 C   0  0  0  0  0  0  0  0  0  0  0  0
    3.3623   -0.2814   -3.9036 O   0  0  0  0  0  0  0  0  0  0  0  0
    3.5339   -0.3001   -5.3130 C   0  0  0  0  0  0  0  0  0  0  0  0
    5.6237   -0.3487   -3.3939 N   0  0  0  0  0  0  0  0  0  0  0  0
    6.6562   -0.7328   -2.6293 C   0  0  0  0  0  0  0  0  0  0  0  0
    6.4265   -1.5101   -1.4988 C   0  0  0  0  0  0  0  0  0  0  0  0
    4.8777   -4.1198   -0.1573 C   0  0  0  0  0  0  0  0  0  0  0  0
    4.1294   -0.7443    1.2248 C   0  0  0  0  0  0  0  0  0  0  0  0
    3.9243   -0.2134    4.9999 C   0  0  0  0  0  0  0  0  0  0  0  0
    2.0516    1.5447    2.4890 C   0  0  0  0  0  0  0  0  0  0  0  0
    0.0149    3.6276    1.4660 C   0  0  0  0  0  0  0  0  0  0  0  0
   -1.1211    4.4306    1.4639 C   0  0  0  0  0  0  0  0  0  0  0  0
   -1.3652    5.3206    2.5048 C   0  0  0  0  0  0  0  0  0  0  0  0
   -0.4628    5.4088    3.5601 C   0  0  0  0  0  0  0  0  0  0  0  0
   -2.1071    4.3350    0.3105 C   0  0  0  0  0  0  0  0  0  0  0  0
    1.0029    1.5251    5.3149 H   0  0  0  0  0  0  0  0  0  0  0  0
   -1.0111    0.2536    5.5636 H   0  0  0  0  0  0  0  0  0  0  0  0
   -2.9937    1.3069    6.3856 H   0  0  0  0  0  0  0  0  0  0  0  0
   -2.9661    3.6234    6.9607 H   0  0  0  0  0  0  0  0  0  0  0  0
   -0.9582    4.9051    6.7159 H   0  0  0  0  0  0  0  0  0  0  0  0
    3.0842    4.7162    6.6950 H   0  0  0  0  0  0  0  0  0  0  0  0
    1.8544    4.5620    7.7583 H   0  0  0  0  0  0  0  0  0  0  0  0
    2.6286    3.2340    7.2071 H   0  0  0  0  0  0  0  0  0  0  0  0
    4.8706   -2.6284    4.4271 H   0  0  0  0  0  0  0  0  0  0  0  0
    5.2778   -3.6695    2.3091 H   0  0  0  0  0  0  0  0  0  0  0  0
    2.7027    0.0377   -5.7546 H   0  0  0  0  0  0  0  0  0  0  0  0
    4.3054    0.2850   -5.5627 H   0  0  0  0  0  0  0  0  0  0  0  0
    3.7144   -1.2364   -5.6144 H   0  0  0  0  0  0  0  0  0  0  0  0
    7.5878   -0.4614   -2.8709 H   0  0  0  0  0  0  0  0  0  0  0  0
    7.1858   -1.8045   -0.9184 H   0  0  0  0  0  0  0  0  0  0  0  0
    4.6912   -4.5174    0.7411 H   0  0  0  0  0  0  0  0  0  0  0  0
    4.1707   -4.4085   -0.8028 H   0  0  0  0  0  0  0  0  0  0  0  0
    5.7714   -4.4309   -0.4805 H   0  0  0  0  0  0  0  0  0  0  0  0
    3.9345   -0.2489    0.3783 H   0  0  0  0  0  0  0  0  0  0  0  0
    4.1800   -0.8636    5.7153 H   0  0  0  0  0  0  0  0  0  0  0  0
    4.4763    0.6156    5.0901 H   0  0  0  0  0  0  0  0  0  0  0  0
    2.9561    0.0193    5.0915 H   0  0  0  0  0  0  0  0  0  0  0  0
    1.2610    0.9324    2.4809 H   0  0  0  0  0  0  0  0  0  0  0  0
    0.1847    2.9900    0.7145 H   0  0  0  0  0  0  0  0  0  0  0  0
   -2.1846    5.8937    2.4946 H   0  0  0  0  0  0  0  0  0  0  0  0
   -0.6327    6.0468    4.3111 H   0  0  0  0  0  0  0  0  0  0  0  0
   -2.8612    4.9738    0.4628 H   0  0  0  0  0  0  0  0  0  0  0  0
   -1.6429    4.5651   -0.5448 H   0  0  0  0  0  0  0  0  0  0  0  0
   -2.4657    3.4031    0.2549 H   0  0  0  0  0  0  0  0  0  0  0  0
  1  2  2  0  0  0  0
  2  3  1  0  0  0  0
  3  4  1  0  0  0  0
  4  5  1  0  0  0  0
  5  6  2  0  0  0  0
  6  7  1  0  0  0  0
  7  8  2  0  0  0  0
  8  9  1  0  0  0  0
  9  4  2  0  0  0  0
  3 10  1  0  0  0  0
  2 11  1  0  0  0  0
 11 12  1  0  0  0  0
 12 13  1  0  0  0  0
 13 14  1  0  0  0  0
 14 15  2  0  0  0  0
 15 16  1  0  0  0  0
 16 17  1  0  0  0  0
 17 18  1  0  0  0  0
 18 19  2  0  0  0  0
 19 20  1  0  0  0  0
 20 21  2  0  0  0  0
 21 22  1  0  0  0  0
 22 23  1  0  0  0  0
 23 24  1  0  0  0  0
 24 25  2  0  0  0  0
 25 26  1  0  0  0  0
 26 27  1  0  0  0  0
 25 28  1  0  0  0  0
 28 29  2  0  0  0  0
 29 30  1  0  0  0  0
 30 23  2  0  0  0  0
 22 31  1  0  0  0  0
 21 32  1  0  0  0  0
 32 17  2  0  0  0  0
 18 33  1  0  0  0  0
 16 34  2  0  0  0  0
 34 13  1  0  0  0  0
 12 35  2  0  0  0  0
 35 36  1  0  0  0  0
 36 37  2  0  0  0  0
 37 38  1  0  0  0  0
 38 11  2  0  0  0  0
 36 39  1  0  0  0  0
  5 40  1  0  0  0  0
  6 41  1  0  0  0  0
  7 42  1  0  0  0  0
  8 43  1  0  0  0  0
  9 44  1  0  0  0  0
 10 45  1  0  0  0  0
 10 46  1  0  0  0  0
 10 47  1  0  0  0  0
 19 48  1  0  0  0  0
 20 49  1  0  0  0  0
 27 50  1  0  0  0  0
 27 51  1  0  0  0  0
 27 52  1  0  0  0  0
 29 53  1  0  0  0  0
 30 54  1  0  0  0  0
 31 55  1  0  0  0  0
 31 56  1  0  0  0  0
 31 57  1  0  0  0  0
 32 58  1  0  0  0  0
 33 59  1  0  0  0  0
 33 60  1  0  0  0  0
 33 61  1  0  0  0  0
 34 62  1  0  0  0  0
 35 63  1  0  0  0  0
 37 64  1  0  0  0  0
 38 65  1  0  0  0  0
 39 66  1  0  0  0  0
 39 67  1  0  0  0  0
 39 68  1  0  0  0  0
M  END
>  <result-rank>
68

>  <similarity>
0.869

>  <query-name>


>  <query-smiles>
S1C(C(=O)NC2=Nc3c(N2CCC(=O)N)ccc(N(C(=O)c4ccccc4)C)c3)=CC=C1/C=C/c5ncc(N)cn5

>  <source>
REALspace_2019-12

>  <similarity-descriptor>
0.949;0.992;0.998;0.765;0.993;0.765;0.765;0.0;0.0;0.0;0.0;0.993;1.000;0.995;0.949;0.132;0.224;0.286

>  <similarity-descriptor-smiles>
c1ccccc1;Nc1ccccc1;c1ccncn1;N1C=CN=N1;c1ccccc1;N1C=CN=N1;N1C=CN=N1;;;;;c1ccccc1;O=C;C;c1ccccc1;N;O;C.C.C.C

>  <reaction-name>
m_274860a

>  <reagent1-name>
15212420

>  <reagent1-smiles>
[R3*]N(c1ccccc1)C

>  <reagent2-name>
17209716

>  <reagent2-smiles>
[R1*]N=NN([R2*])c1c(ccc(c1)C)C([R3*])=O

>  <reagent3-name>
17180102

>  <reagent3-smiles>
[R1*]C(c1c(ccc(N(c2nc(OC)ncc2)C)c1)C)=C[R2*]

$$$$
s_270192____7716210____17111728
          04022017353D 1   1.00000     0.00000     0
            
 59 63  0  0  0  0            999 V2000
    6.1098    9.1647   14.2514 Cl  0  0  0  0  0  0  0  0  0  0  0  0
    5.2505    8.5715   12.8103 C   0  0  0  0  0  0  0  0  0  0  0  0
    5.1389    7.2027   12.5902 C   0  0  0  0  0  0  0  0  0  0  0  0
    4.4667    6.7452   11.4619 C   0  0  0  0  0  0  0  0  0  0  0  0
    3.9146    7.6572   10.5689 C   0  0  0  0  0  0  0  0  0  0  0  0
    3.2634    7.2055    9.4757 O   0  0  0  0  0  0  0  0  0  0  0  0
    3.9389    6.9957    8.3269 C   0  0  0  0  0  0  0  0  0  0  0  0
    3.2332    6.5308    7.2252 C   0  0  0  0  0  0  0  0  0  0  0  0
    3.8694    6.2933    6.0108 C   0  0  0  0  0  0  0  0  0  0  0  0
    5.2366    6.5297    5.9122 C   0  0  0  0  0  0  0  0  0  0  0  0
    5.8852    6.3035    4.7276 N   0  0  0  0  0  0  0  0  0  0  0  0
    5.2060    5.8442    3.6283 C   0  0  0  0  0  0  0  0  0  0  0  0
    5.8294    5.6579    2.5957 O   0  0  0  0  0  0  0  0  0  0  0  0
    3.8572    5.6056    3.7057 N   0  0  0  0  0  0  0  0  0  0  0  0
    3.1661    5.8174    4.8700 C   0  0  0  0  0  0  0  0  0  0  0  0
    1.9653    5.5897    4.8900 O   0  0  0  0  0  0  0  0  0  0  0  0
    3.1529    5.1134    2.5113 C   0  0  0  0  0  0  0  0  0  0  0  0
    3.1723    3.5933    2.5020 C   0  0  0  0  0  0  0  0  0  0  0  0
    1.9763    2.8820    2.5148 C   0  0  0  0  0  0  0  0  0  0  0  0
    1.9943    1.4909    2.5068 C   0  0  0  0  0  0  0  0  0  0  0  0
    3.2077    0.8109    2.4862 C   0  0  0  0  0  0  0  0  0  0  0  0
    4.4034    1.5219    2.4726 C   0  0  0  0  0  0  0  0  0  0  0  0
    4.3857    2.9133    2.4809 C   0  0  0  0  0  0  0  0  0  0  0  0
    0.6311    3.5899    2.5377 C   0  0  0  0  0  0  0  0  0  0  0  0
    0.1935    3.8179    1.2062 O   0  0  0  0  0  0  0  0  0  0  0  0
   -1.0629    4.4792    1.2276 C   0  0  0  0  0  0  0  0  0  0  0  0
   -1.5315    4.7233   -0.1980 C   0  0  0  0  0  0  0  0  0  0  0  0
   -2.3066    3.7646   -0.8423 C   0  0  0  0  0  0  0  0  0  0  0  0
   -2.7324    3.9916   -2.1470 C   0  0  0  0  0  0  0  0  0  0  0  0
   -2.3840    5.1708   -2.7971 C   0  0  0  0  0  0  0  0  0  0  0  0
   -1.6098    6.1215   -2.1435 C   0  0  0  0  0  0  0  0  0  0  0  0
   -1.1772    5.9061   -0.8391 C   0  0  0  0  0  0  0  0  0  0  0  0
    5.9452    6.9955    7.0151 C   0  0  0  0  0  0  0  0  0  0  0  0
    5.3060    7.2316    8.2278 C   0  0  0  0  0  0  0  0  0  0  0  0
    4.0300    9.0243   10.7946 C   0  0  0  0  0  0  0  0  0  0  0  0
    4.7010    9.4886   11.9208 C   0  0  0  0  0  0  0  0  0  0  0  0
    5.5382    6.5534   13.2374 H   0  0  0  0  0  0  0  0  0  0  0  0
    4.3807    5.7632   11.2933 H   0  0  0  0  0  0  0  0  0  0  0  0
    2.2505    6.3638    7.3059 H   0  0  0  0  0  0  0  0  0  0  0  0
    6.8682    6.4756    4.6632 H   0  0  0  0  0  0  0  0  0  0  0  0
    3.6084    5.4576    1.6903 H   0  0  0  0  0  0  0  0  0  0  0  0
    2.2061    5.4346    2.5266 H   0  0  0  0  0  0  0  0  0  0  0  0
    1.1348    0.9798    2.5159 H   0  0  0  0  0  0  0  0  0  0  0  0
    3.2204   -0.1890    2.4811 H   0  0  0  0  0  0  0  0  0  0  0  0
    5.2757    1.0331    2.4568 H   0  0  0  0  0  0  0  0  0  0  0  0
    5.2452    3.4244    2.4718 H   0  0  0  0  0  0  0  0  0  0  0  0
   -0.0374    3.0199    3.0153 H   0  0  0  0  0  0  0  0  0  0  0  0
    0.7230    4.4650    3.0128 H   0  0  0  0  0  0  0  0  0  0  0  0
   -0.9710    5.3543    1.7027 H   0  0  0  0  0  0  0  0  0  0  0  0
   -1.7315    3.9092    1.7052 H   0  0  0  0  0  0  0  0  0  0  0  0
   -2.5558    2.9185   -0.3710 H   0  0  0  0  0  0  0  0  0  0  0  0
   -3.2891    3.3069   -2.6174 H   0  0  0  0  0  0  0  0  0  0  0  0
   -2.6907    5.3343   -3.7348 H   0  0  0  0  0  0  0  0  0  0  0  0
   -1.3615    6.9679   -2.6148 H   0  0  0  0  0  0  0  0  0  0  0  0
   -0.6200    6.5909   -0.3695 H   0  0  0  0  0  0  0  0  0  0  0  0
    6.9278    7.1629    6.9350 H   0  0  0  0  0  0  0  0  0  0  0  0
    5.8217    7.5661    9.0166 H   0  0  0  0  0  0  0  0  0  0  0  0
    3.6306    9.6735   10.1474 H   0  0  0  0  0  0  0  0  0  0  0  0
    4.7874   10.4705   12.0890 H   0  0  0  0  0  0  0  0  0  0  0  0
  1  2  1  0  0  0  0
  2  3  1  0  0  0  0
  3  4  2  0  0  0  0
  4  5  1  0  0  0  0
  5  6  1  0  0  0  0
  6  7  1  0  0  0  0
  7  8  1  0  0  0  0
  8  9  2  0  0  0  0
  9 10  1  0  0  0  0
 10 11  1  0  0  0  0
 11 12  1  0  0  0  0
 12 13  2  0  0  0  0
 12 14  1  0  0  0  0
 14 15  1  0  0  0  0
 15  9  1  0  0  0  0
 15 16  2  0  0  0  0
 14 17  1  0  0  0  0
 17 18  1  0  0  0  0
 18 19  1  0  0  0  0
 19 20  2  0  0  0  0
 20 21  1  0  0  0  0
 21 22  2  0  0  0  0
 22 23  1  0  0  0  0
 23 18  2  0  0  0  0
 19 24  1  0  0  0  0
 24 25  1  0  0  0  0
 25 26  1  0  0  0  0
 26 27  1  0  0  0  0
 27 28  1  0  0  0  0
 28 29  2  0  0  0  0
 29 30  1  0  0  0  0
 30 31  2  0  0  0  0
 31 32  1  0  0  0  0
 32 27  2  0  0  0  0
 10 33  2  0  0  0  0
 33 34  1  0  0  0  0
 34  7  2  0  0  0  0
  5 35  2  0  0  0  0
 35 36  1  0  0  0  0
 36  2  2  0  0  0  0
  3 37  1  0  0  0  0
  4 38  1  0  0  0  0
  8 39  1  0  0  0  0
 11 40  1  0  0  0  0
 17 41  1  0  0  0  0
 17 42  1  0  0  0  0
 20 43  1  0  0  0  0
 21 44  1  0  0  0  0
 22 45  1  0  0  0  0
 23 46  1  0  0  0  0
 24 47  1  0  0  0  0
 24 48  1  0  0  0  0
 26 49  1  0  0  0  0
 26 50  1  0  0  0  0
 28 51  1  0  0  0  0
 29 52  1  0  0  0  0
 30 53  1  0  0  0  0
 31 54  1  0  0  0  0
 32 55  1  0  0  0  0
 33 56  1  0  0  0  0
 34 57  1  0  0  0  0
 35 58  1  0  0  0  0
 36 59  1  0  0  0  0
M  END
>  <result-rank>
69

>  <similarity>
0.869

>  <query-name>


>  <query-smiles>
S1C(C(=O)NC2=Nc3c(N2CCC(=O)N)ccc(N(C(=O)c4ccccc4)C)c3)=CC=C1/C=C/c5ncc(N)cn5

>  <source>
REALspace_2019-12

>  <similarity-descriptor>
0.917;1.000;0.798;0.915;0.877;0.915;0.915;0.0;0.0;0.0;0.0;0.934;0.770;0.934;0.798;0.798;0.0;0.0

>  <similarity-descriptor-smiles>
Oc1ccccc1;c1ccccc1;Clc1ccccc1;c1C(NC(Nc1)=O)=O;Cc1ccccc1;c1C(NC(Nc1)=O)=O;c1C(NC(Nc1)=O)=O;;;;;C;OC;C;Clc1ccccc1;Clc1ccccc1;;

>  <reaction-name>
s_270192

>  <reagent1-name>
7716210

>  <reagent1-smiles>
[R1*]N([R2*])Cc1c(cccc1)COCc2ccccc2

>  <reagent2-name>
17111728

>  <reagent2-smiles>
[R1*]C(=O)Nc1c(cc(Oc2ccc(Cl)cc2)cc1)C([R2*])=O

$$$$
s_708____1723544____238409
          04022017353D 1   1.00000     0.00000     0
            
 47 51  0  0  0  0            999 V2000
   -0.2816   -3.1448    2.5075 Cl  0  0  0  0  0  0  0  0  0  0  0  0
   -0.3893   -1.3678    2.5001 C   0  0  0  0  0  0  0  0  0  0  0  0
   -1.6103   -0.6992    2.4867 C   0  0  0  0  0  0  0  0  0  0  0  0
   -2.7396   -1.4465    2.4822 O   0  0  0  0  0  0  0  0  0  0  0  0
   -3.9276   -1.0397    3.1486 C   0  0  0  0  0  0  0  0  0  0  0  0
   -4.7221   -0.0651    2.2920 C   0  0  0  0  0  0  0  0  0  0  0  0
   -3.8213    0.9439    1.5953 C   0  0  0  0  0  0  0  0  0  0  0  0
   -2.7760    1.4134    2.4379 O   0  0  0  0  0  0  0  0  0  0  0  0
   -1.6343    0.6959    2.4792 C   0  0  0  0  0  0  0  0  0  0  0  0
   -0.4564    1.4308    2.5034 C   0  0  0  0  0  0  0  0  0  0  0  0
    0.7572    0.7541    2.5065 C   0  0  0  0  0  0  0  0  0  0  0  0
    0.7942   -0.6365    2.5068 C   0  0  0  0  0  0  0  0  0  0  0  0
    1.9928    1.5131    2.5007 C   0  0  0  0  0  0  0  0  0  0  0  0
    1.9860    2.8354    2.5006 N   0  0  0  0  0  0  0  0  0  0  0  0
    3.1479    3.5642    2.4955 C   0  0  0  0  0  0  0  0  0  0  0  0
    4.3714    2.9007    2.4900 C   0  0  0  0  0  0  0  0  0  0  0  0
    5.5511    3.6390    2.4849 C   0  0  0  0  0  0  0  0  0  0  0  0
    5.5301    5.0284    2.4838 C   0  0  0  0  0  0  0  0  0  0  0  0
    6.7060    5.6912    2.4778 O   0  0  0  0  0  0  0  0  0  0  0  0
    7.2994    6.0237    3.6441 C   0  0  0  0  0  0  0  0  0  0  0  0
    8.5111    6.7066    3.6309 C   0  0  0  0  0  0  0  0  0  0  0  0
    9.1188    7.0459    4.8361 C   0  0  0  0  0  0  0  0  0  0  0  0
    8.5143    6.7032    6.0415 C   0  0  0  0  0  0  0  0  0  0  0  0
    7.3031    6.0193    6.0471 C   0  0  0  0  0  0  0  0  0  0  0  0
    6.6903    5.6770    4.8458 C   0  0  0  0  0  0  0  0  0  0  0  0
    4.3085    5.6938    2.4888 C   0  0  0  0  0  0  0  0  0  0  0  0
    3.1292    4.9557    2.4948 C   0  0  0  0  0  0  0  0  0  0  0  0
    4.3730    1.4784    2.4906 C   0  0  0  0  0  0  0  0  0  0  0  0
    5.4013    0.8177    2.4878 O   0  0  0  0  0  0  0  0  0  0  0  0
    3.1736    0.8184    2.4956 N   0  0  0  0  0  0  0  0  0  0  0  0
   -3.6840   -0.5950    4.0106 H   0  0  0  0  0  0  0  0  0  0  0  0
   -4.4901   -1.8449    3.3363 H   0  0  0  0  0  0  0  0  0  0  0  0
   -5.3673    0.4271    2.8763 H   0  0  0  0  0  0  0  0  0  0  0  0
   -5.2263   -0.5806    1.5991 H   0  0  0  0  0  0  0  0  0  0  0  0
   -3.4147    0.5096    0.7915 H   0  0  0  0  0  0  0  0  0  0  0  0
   -4.3764    1.7244    1.3075 H   0  0  0  0  0  0  0  0  0  0  0  0
   -0.4811    2.4304    2.5183 H   0  0  0  0  0  0  0  0  0  0  0  0
    1.6740   -1.1119    2.5119 H   0  0  0  0  0  0  0  0  0  0  0  0
    6.4295    3.1611    2.4819 H   0  0  0  0  0  0  0  0  0  0  0  0
    8.9420    6.9518    2.7625 H   0  0  0  0  0  0  0  0  0  0  0  0
    9.9902    7.5364    4.8357 H   0  0  0  0  0  0  0  0  0  0  0  0
    8.9519    6.9493    6.9063 H   0  0  0  0  0  0  0  0  0  0  0  0
    6.8723    5.7734    6.9154 H   0  0  0  0  0  0  0  0  0  0  0  0
    5.8193    5.1857    4.8462 H   0  0  0  0  0  0  0  0  0  0  0  0
    4.2783    6.6933    2.4880 H   0  0  0  0  0  0  0  0  0  0  0  0
    2.2512    5.4344    2.4988 H   0  0  0  0  0  0  0  0  0  0  0  0
    3.1592   -0.1815    2.4955 H   0  0  0  0  0  0  0  0  0  0  0  0
  1  2  1  0  0  0  0
  2  3  1  0  0  0  0
  3  4  1  0  0  0  0
  4  5  1  0  0  0  0
  5  6  1  0  0  0  0
  6  7  1  0  0  0  0
  7  8  1  0  0  0  0
  8  9  1  0  0  0  0
  9  3  2  0  0  0  0
  9 10  1  0  0  0  0
 10 11  2  0  0  0  0
 11 12  1  0  0  0  0
 12  2  2  0  0  0  0
 11 13  1  0  0  0  0
 13 14  2  0  0  0  0
 14 15  1  0  0  0  0
 15 16  1  0  0  0  0
 16 17  2  0  0  0  0
 17 18  1  0  0  0  0
 18 19  1  0  0  0  0
 19 20  1  0  0  0  0
 20 21  1  0  0  0  0
 21 22  2  0  0  0  0
 22 23  1  0  0  0  0
 23 24  2  0  0  0  0
 24 25  1  0  0  0  0
 25 20  2  0  0  0  0
 18 26  2  0  0  0  0
 26 27  1  0  0  0  0
 27 15  2  0  0  0  0
 16 28  1  0  0  0  0
 28 29  2  0  0  0  0
 28 30  1  0  0  0  0
 30 13  1  0  0  0  0
  5 31  1  0  0  0  0
  5 32  1  0  0  0  0
  6 33  1  0  0  0  0
  6 34  1  0  0  0  0
  7 35  1  0  0  0  0
  7 36  1  0  0  0  0
 10 37  1  0  0  0  0
 12 38  1  0  0  0  0
 17 39  1  0  0  0  0
 21 40  1  0  0  0  0
 22 41  1  0  0  0  0
 23 42  1  0  0  0  0
 24 43  1  0  0  0  0
 25 44  1  0  0  0  0
 26 45  1  0  0  0  0
 27 46  1  0  0  0  0
 30 47  1  0  0  0  0
M  END
>  <result-rank>
70

>  <similarity>
0.869

>  <query-name>


>  <query-smiles>
S1C(C(=O)NC2=Nc3c(N2CCC(=O)N)ccc(N(C(=O)c4ccccc4)C)c3)=CC=C1/C=C/c5ncc(N)cn5

>  <source>
REALspace_2019-12

>  <similarity-descriptor>
0.991;0.998;0.722;0.987;0.990;0.987;0.987;0.0;0.0;0.0;0.0;0.990;0.156;0.0;0.991;0.722;0.0;0.0

>  <similarity-descriptor-smiles>
Clc1ccccc1;c1ccccc1;c1cOCCCO1;C=1NC(ccN1)=O;c1ccccc1;C=1NC(ccN1)=O;C=1NC(ccN1)=O;;;;;c1ccccc1;O;;Clc1ccccc1;c1cOCCCO1;;

>  <reaction-name>
s_708

>  <reagent1-name>
1723544

>  <reagent1-smiles>
[R1*]=Nc1c(cc(Oc2ccccc2)cc1)C([R2*])=O

>  <reagent2-name>
238409

>  <reagent2-smiles>
[R1*]=C(N[R2*])c1cc(Cl)c2OCCCOc2c1

$$$$
s_40____14935132____6166886
          04022017353D 1   1.00000     0.00000     0
            
 53 57  0  0  0  0            999 V2000
   12.0011   -7.6042   -1.7743 Cl  0  0  0  0  0  0  0  0  0  0  0  0
   11.3020   -6.1336   -1.0553 C   0  0  0  0  0  0  0  0  0  0  0  0
   11.1528   -4.9986   -1.7580 N   0  0  0  0  0  0  0  0  0  0  0  0
   10.6257   -3.8862   -1.2206 C   0  0  0  0  0  0  0  0  0  0  0  0
   10.2121   -3.8836    0.1091 C   0  0  0  0  0  0  0  0  0  0  0  0
    9.6614   -2.7526    0.7023 C   0  0  0  0  0  0  0  0  0  0  0  0
    9.5236   -1.5961   -0.0588 C   0  0  0  0  0  0  0  0  0  0  0  0
    8.8373   -0.1688    0.6620 S   0  0  0  0  0  0  0  0  0  0  0  0
    9.3977    1.0013    0.0372 O   0  0  0  0  0  0  0  0  0  0  0  0
    9.1368   -0.1509    2.0704 O   0  0  0  0  0  0  0  0  0  0  0  0
    7.2212   -0.1766    0.4501 N   0  0  0  0  0  0  0  0  0  0  0  0
    6.6345    1.0307    1.0590 C   0  0  0  0  0  0  0  0  0  0  0  0
    5.1177    1.0326    1.0223 C   0  0  0  0  0  0  0  0  0  0  0  0
    4.4268   -0.1605    0.8284 C   0  0  0  0  0  0  0  0  0  0  0  0
    3.0367   -0.1930    0.8201 C   0  0  0  0  0  0  0  0  0  0  0  0
    2.3471    1.0000    1.0000 C   0  0  0  0  0  0  0  0  0  0  0  0
    1.0000    1.0000    1.0000 O   0  0  0  0  0  0  0  0  0  0  0  0
    0.2900    2.2160    1.1834 C   0  0  0  0  0  0  0  0  0  0  0  0
    0.0367    2.8635   -0.1681 C   0  0  0  0  0  0  0  0  0  0  0  0
   -1.1264    2.5554   -0.8657 C   0  0  0  0  0  0  0  0  0  0  0  0
   -1.3639    3.1450   -2.1031 C   0  0  0  0  0  0  0  0  0  0  0  0
   -0.4334    4.0366   -2.6270 C   0  0  0  0  0  0  0  0  0  0  0  0
   -0.6543    4.6048   -3.8091 F   0  0  0  0  0  0  0  0  0  0  0  0
    0.7319    4.3475   -1.9338 C   0  0  0  0  0  0  0  0  0  0  0  0
    0.9637    3.7551   -0.6969 C   0  0  0  0  0  0  0  0  0  0  0  0
    3.0325    2.1942    1.1798 C   0  0  0  0  0  0  0  0  0  0  0  0
    4.4208    2.2177    1.1884 C   0  0  0  0  0  0  0  0  0  0  0  0
    5.1735   -1.4618    0.5972 C   0  0  0  0  0  0  0  0  0  0  0  0
    6.6142   -1.3660    1.0702 C   0  0  0  0  0  0  0  0  0  0  0  0
    9.9319   -1.5773   -1.3884 C   0  0  0  0  0  0  0  0  0  0  0  0
    9.7936   -0.4629   -2.1010 F   0  0  0  0  0  0  0  0  0  0  0  0
   10.4795   -2.7193   -1.9635 C   0  0  0  0  0  0  0  0  0  0  0  0
   10.3555   -5.0463    0.8580 C   0  0  0  0  0  0  0  0  0  0  0  0
   10.9049   -6.1842    0.2770 C   0  0  0  0  0  0  0  0  0  0  0  0
    9.3696   -2.7703    1.6587 H   0  0  0  0  0  0  0  0  0  0  0  0
    6.9667    1.8323    0.5620 H   0  0  0  0  0  0  0  0  0  0  0  0
    6.9307    1.0833    2.0126 H   0  0  0  0  0  0  0  0  0  0  0  0
    2.5453   -1.0538    0.6879 H   0  0  0  0  0  0  0  0  0  0  0  0
    0.8304    2.8348    1.7534 H   0  0  0  0  0  0  0  0  0  0  0  0
   -0.5838    2.0275    1.6317 H   0  0  0  0  0  0  0  0  0  0  0  0
   -1.7887    1.9132   -0.4797 H   0  0  0  0  0  0  0  0  0  0  0  0
   -2.1972    2.9296   -2.6121 H   0  0  0  0  0  0  0  0  0  0  0  0
    1.3947    4.9889   -2.3200 H   0  0  0  0  0  0  0  0  0  0  0  0
    1.7971    3.9704   -0.1879 H   0  0  0  0  0  0  0  0  0  0  0  0
    2.5217    3.0449    1.3043 H   0  0  0  0  0  0  0  0  0  0  0  0
    4.9115    3.0800    1.3129 H   0  0  0  0  0  0  0  0  0  0  0  0
    5.1654   -1.6723   -0.3804 H   0  0  0  0  0  0  0  0  0  0  0  0
    4.7141   -2.1942    1.0997 H   0  0  0  0  0  0  0  0  0  0  0  0
    6.6389   -1.2790    2.0661 H   0  0  0  0  0  0  0  0  0  0  0  0
    7.1166   -2.1856    0.7947 H   0  0  0  0  0  0  0  0  0  0  0  0
   10.7707   -2.7014   -2.9200 H   0  0  0  0  0  0  0  0  0  0  0  0
   10.0638   -5.0643    1.8144 H   0  0  0  0  0  0  0  0  0  0  0  0
   11.0125   -7.0247    0.8080 H   0  0  0  0  0  0  0  0  0  0  0  0
  1  2  1  0  0  0  0
  2  3  1  0  0  0  0
  3  4  2  0  0  0  0
  4  5  1  0  0  0  0
  5  6  1  0  0  0  0
  6  7  2  0  0  0  0
  7  8  1  0  0  0  0
  8  9  2  0  0  0  0
  8 10  2  0  0  0  0
  8 11  1  0  0  0  0
 11 12  1  0  0  0  0
 12 13  1  0  0  0  0
 13 14  1  0  0  0  0
 14 15  2  0  0  0  0
 15 16  1  0  0  0  0
 16 17  1  0  0  0  0
 17 18  1  0  0  0  0
 18 19  1  0  0  0  0
 19 20  1  0  0  0  0
 20 21  2  0  0  0  0
 21 22  1  0  0  0  0
 22 23  1  0  0  0  0
 22 24  2  0  0  0  0
 24 25  1  0  0  0  0
 25 19  2  0  0  0  0
 16 26  2  0  0  0  0
 26 27  1  0  0  0  0
 27 13  2  0  0  0  0
 14 28  1  0  0  0  0
 28 29  1  0  0  0  0
 29 11  1  0  0  0  0
  7 30  1  0  0  0  0
 30 31  1  0  0  0  0
 30 32  2  0  0  0  0
 32  4  1  0  0  0  0
  5 33  2  0  0  0  0
 33 34  1  0  0  0  0
 34  2  2  0  0  0  0
  6 35  1  0  0  0  0
 12 36  1  0  0  0  0
 12 37  1  0  0  0  0
 15 38  1  0  0  0  0
 18 39  1  0  0  0  0
 18 40  1  0  0  0  0
 20 41  1  0  0  0  0
 21 42  1  0  0  0  0
 24 43  1  0  0  0  0
 25 44  1  0  0  0  0
 26 45  1  0  0  0  0
 27 46  1  0  0  0  0
 28 47  1  0  0  0  0
 28 48  1  0  0  0  0
 29 49  1  0  0  0  0
 29 50  1  0  0  0  0
 32 51  1  0  0  0  0
 33 52  1  0  0  0  0
 34 53  1  0  0  0  0
M  END
>  <result-rank>
71

>  <similarity>
0.869

>  <query-name>


>  <query-smiles>
S1C(C(=O)NC2=Nc3c(N2CCC(=O)N)ccc(N(C(=O)c4ccccc4)C)c3)=CC=C1/C=C/c5ncc(N)cn5

>  <source>
REALspace_2019-12

>  <similarity-descriptor>
0.970;0.967;0.908;0.839;0.989;0.621;0.621;0.839;0.839;0.0;0.0;0.989;0.568;0.0;0.970;0.908;0.0;0.0

>  <similarity-descriptor-smiles>
c1cc(ccc1)F;c1ccc(cc1)F;Clc1ccccn1;N1CCccC1;c1ccccc1;S(=O)=O;S(=O)=O;N1CCccC1;N1CCccC1;;;c1ccccc1;OC;;c1cc(ccc1)F;Clc1ccccn1;;

>  <reaction-name>
s_40

>  <reagent1-name>
14935132

>  <reagent1-smiles>
[R1*]N1Cc2c(cc(OCc3ccc(F)cc3)cc2)CC1

>  <reagent2-name>
6166886

>  <reagent2-smiles>
[R1*]S(=O)(=O)c1c(F)cc2nc(Cl)ccc2c1

$$$$
s_708____10973714____9437332
          04022017353D 1   1.00000     0.00000     0
            
 47 51  0  0  0  0            999 V2000
   -4.8755   -4.7625    2.5197 Cl  0  0  0  0  0  0  0  0  0  0  0  0
   -4.1775   -3.1261    2.5176 C   0  0  0  0  0  0  0  0  0  0  0  0
   -4.8934   -1.9052    2.5111 C   0  0  0  0  0  0  0  0  0  0  0  0
   -4.0032   -0.9406    2.5121 N   0  0  0  0  0  0  0  0  0  0  0  0
   -2.7853   -1.4398    2.5157 N   0  0  0  0  0  0  0  0  0  0  0  0
   -1.5944   -0.6980    2.5161 C   0  0  0  0  0  0  0  0  0  0  0  0
   -0.5223   -1.1180    1.7371 C   0  0  0  0  0  0  0  0  0  0  0  0
   -0.6289   -2.2181    0.9978 F   0  0  0  0  0  0  0  0  0  0  0  0
    0.6649   -0.3934    1.7262 C   0  0  0  0  0  0  0  0  0  0  0  0
    0.7581    0.7541    2.5064 C   0  0  0  0  0  0  0  0  0  0  0  0
   -0.3120    1.1770    3.2877 C   0  0  0  0  0  0  0  0  0  0  0  0
   -1.4979    0.4495    3.2961 C   0  0  0  0  0  0  0  0  0  0  0  0
    1.9931    1.5138    2.5006 C   0  0  0  0  0  0  0  0  0  0  0  0
    1.9875    2.8361    2.5009 N   0  0  0  0  0  0  0  0  0  0  0  0
    3.1498    3.5633    2.4948 C   0  0  0  0  0  0  0  0  0  0  0  0
    4.3728    2.8982    2.4892 C   0  0  0  0  0  0  0  0  0  0  0  0
    5.5522    3.6395    2.4842 C   0  0  0  0  0  0  0  0  0  0  0  0
    5.5304    5.0278    2.4845 C   0  0  0  0  0  0  0  0  0  0  0  0
    6.7921    5.7425    2.4792 C   0  0  0  0  0  0  0  0  0  0  0  0
    6.7909    7.1333    2.4793 C   0  0  0  0  0  0  0  0  0  0  0  0
    8.0077    7.8072    2.4740 C   0  0  0  0  0  0  0  0  0  0  0  0
    9.2123    7.1116    2.4696 C   0  0  0  0  0  0  0  0  0  0  0  0
    9.1880    5.7209    2.4698 C   0  0  0  0  0  0  0  0  0  0  0  0
    7.9837    5.0251    2.4744 C   0  0  0  0  0  0  0  0  0  0  0  0
    8.0159    9.3276    2.4739 C   0  0  0  0  0  0  0  0  0  0  0  0
    8.0237    9.7710    3.7278 F   0  0  0  0  0  0  0  0  0  0  0  0
    9.1015    9.7650    1.8422 F   0  0  0  0  0  0  0  0  0  0  0  0
    6.9297    9.7768    1.8516 F   0  0  0  0  0  0  0  0  0  0  0  0
    4.3097    5.6944    2.4910 C   0  0  0  0  0  0  0  0  0  0  0  0
    3.1319    4.9545    2.4962 C   0  0  0  0  0  0  0  0  0  0  0  0
    4.3737    1.4760    2.4890 C   0  0  0  0  0  0  0  0  0  0  0  0
    5.4008    0.8149    2.4834 O   0  0  0  0  0  0  0  0  0  0  0  0
    3.1731    0.8178    2.4952 N   0  0  0  0  0  0  0  0  0  0  0  0
   -2.8543   -2.8026    2.5182 C   0  0  0  0  0  0  0  0  0  0  0  0
   -5.8876   -1.7980    2.5065 H   0  0  0  0  0  0  0  0  0  0  0  0
    1.4381   -0.6924    1.1670 H   0  0  0  0  0  0  0  0  0  0  0  0
   -0.2290    2.0041    3.8436 H   0  0  0  0  0  0  0  0  0  0  0  0
   -2.2710    0.7478    3.8558 H   0  0  0  0  0  0  0  0  0  0  0  0
    6.4313    3.1628    2.4803 H   0  0  0  0  0  0  0  0  0  0  0  0
    5.9292    7.6406    2.4832 H   0  0  0  0  0  0  0  0  0  0  0  0
   10.0827    7.6040    2.4662 H   0  0  0  0  0  0  0  0  0  0  0  0
   10.0497    5.2135    2.4667 H   0  0  0  0  0  0  0  0  0  0  0  0
    7.9747    4.0251    2.4742 H   0  0  0  0  0  0  0  0  0  0  0  0
    4.2791    6.6939    2.4919 H   0  0  0  0  0  0  0  0  0  0  0  0
    2.2536    5.4326    2.5011 H   0  0  0  0  0  0  0  0  0  0  0  0
    3.1574   -0.1821    2.4957 H   0  0  0  0  0  0  0  0  0  0  0  0
   -2.0836   -3.4397    2.5201 H   0  0  0  0  0  0  0  0  0  0  0  0
  1  2  1  0  0  0  0
  2  3  1  0  0  0  0
  3  4  2  0  0  0  0
  4  5  1  0  0  0  0
  5  6  1  0  0  0  0
  6  7  1  0  0  0  0
  7  8  1  0  0  0  0
  7  9  2  0  0  0  0
  9 10  1  0  0  0  0
 10 11  2  0  0  0  0
 11 12  1  0  0  0  0
 12  6  2  0  0  0  0
 10 13  1  0  0  0  0
 13 14  2  0  0  0  0
 14 15  1  0  0  0  0
 15 16  1  0  0  0  0
 16 17  2  0  0  0  0
 17 18  1  0  0  0  0
 18 19  1  0  0  0  0
 19 20  1  0  0  0  0
 20 21  2  0  0  0  0
 21 22  1  0  0  0  0
 22 23  2  0  0  0  0
 23 24  1  0  0  0  0
 24 19  2  0  0  0  0
 21 25  1  0  0  0  0
 25 26  1  0  0  0  0
 25 27  1  0  0  0  0
 25 28  1  0  0  0  0
 18 29  2  0  0  0  0
 29 30  1  0  0  0  0
 30 15  2  0  0  0  0
 16 31  1  0  0  0  0
 31 32  2  0  0  0  0
 31 33  1  0  0  0  0
 33 13  1  0  0  0  0
  5 34  1  0  0  0  0
  2 34  2  0  0  0  0
  3 35  1  0  0  0  0
  9 36  1  0  0  0  0
 11 37  1  0  0  0  0
 12 38  1  0  0  0  0
 17 39  1  0  0  0  0
 20 40  1  0  0  0  0
 22 41  1  0  0  0  0
 23 42  1  0  0  0  0
 24 43  1  0  0  0  0
 29 44  1  0  0  0  0
 30 45  1  0  0  0  0
 33 46  1  0  0  0  0
 34 47  1  0  0  0  0
M  END
>  <result-rank>
72

>  <similarity>
0.869

>  <query-name>


>  <query-smiles>
S1C(C(=O)NC2=Nc3c(N2CCC(=O)N)ccc(N(C(=O)c4ccccc4)C)c3)=CC=C1/C=C/c5ncc(N)cn5

>  <source>
REALspace_2019-12

>  <similarity-descriptor>
0.964;0.928;0.845;0.987;0.747;0.987;0.987;0.0;0.0;0.0;0.0;0.747;0.747;0.0;0.964;0.845;0.0;0.0

>  <similarity-descriptor-smiles>
c1ccccc1F;c1cccc(c1)C(F)(F)F;ClC1=CNN=C1;C=1NC(ccN1)=O;c1ccccc1;C=1NC(ccN1)=O;C=1NC(ccN1)=O;;;;;c1ccccc1;c1ccccc1;;c1ccccc1F;ClC1=CNN=C1;;

>  <reaction-name>
s_708

>  <reagent1-name>
10973714

>  <reagent1-smiles>
[R1*]=NC1=C(SN=C1c2cc(ccc2)C(F)(F)F)C([R2*])=O

>  <reagent2-name>
9437332

>  <reagent2-smiles>
[R1*]=C(N[R2*])c1cc(F)c(N2N=CC(Cl)=C2)cc1

$$$$
s_274090____12940278____16948036
          04022017353D 1   1.00000     0.00000     0
            
 54 58  0  0  0  0            999 V2000
   -0.3875   -3.1471    3.9505 F   0  0  0  0  0  0  0  0  0  0  0  0
    0.4748   -3.9476    4.5706 C   0  0  0  0  0  0  0  0  0  0  0  0
    1.6147   -4.3854    3.9066 C   0  0  0  0  0  0  0  0  0  0  0  0
    2.5260   -5.2222    4.5416 C   0  0  0  0  0  0  0  0  0  0  0  0
    2.2850   -5.6196    5.8529 C   0  0  0  0  0  0  0  0  0  0  0  0
    1.1433   -5.1798    6.5138 C   0  0  0  0  0  0  0  0  0  0  0  0
    0.2302   -4.3424    5.8816 C   0  0  0  0  0  0  0  0  0  0  0  0
    0.8976   -5.5970    7.8806 C   0  0  0  0  0  0  0  0  0  0  0  0
    1.6733   -6.3856    8.6023 O   0  0  0  0  0  0  0  0  0  0  0  0
    1.1359   -6.5437    9.7958 C   0  0  0  0  0  0  0  0  0  0  0  0
   -0.0256   -5.8231    9.8140 C   0  0  0  0  0  0  0  0  0  0  0  0
   -0.1523   -5.2364    8.5892 N   0  0  0  0  0  0  0  0  0  0  0  0
    1.8725   -3.9472    2.4744 C   0  0  0  0  0  0  0  0  0  0  0  0
    2.6504   -2.6999    2.4761 N   0  0  0  0  0  0  0  0  0  0  0  0
    3.9578   -2.6135    2.4673 N   0  0  0  0  0  0  0  0  0  0  0  0
    4.3419   -1.4103    2.4698 N   0  0  0  0  0  0  0  0  0  0  0  0
    3.2280   -0.6279    2.4827 C   0  0  0  0  0  0  0  0  0  0  0  0
    3.2059    0.8216    2.4889 C   0  0  0  0  0  0  0  0  0  0  0  0
    1.9867    1.4913    2.5023 C   0  0  0  0  0  0  0  0  0  0  0  0
    1.9786    2.8822    2.5077 C   0  0  0  0  0  0  0  0  0  0  0  0
    3.1745    3.5942    2.4999 C   0  0  0  0  0  0  0  0  0  0  0  0
    4.3882    2.9150    2.4865 C   0  0  0  0  0  0  0  0  0  0  0  0
    4.4067    1.5240    2.4809 C   0  0  0  0  0  0  0  0  0  0  0  0
    3.1938    5.1141    2.5055 C   0  0  0  0  0  0  0  0  0  0  0  0
    0.6362    3.5950    2.5223 C   0  0  0  0  0  0  0  0  0  0  0  0
    0.5937    4.7943    2.5272 O   0  0  0  0  0  0  0  0  0  0  0  0
   -0.5252    2.8684    2.5297 N   0  0  0  0  0  0  0  0  0  0  0  0
   -1.7618    3.5250    2.5431 C   0  0  0  0  0  0  0  0  0  0  0  0
   -2.9369    2.7803    2.5506 C   0  0  0  0  0  0  0  0  0  0  0  0
   -4.1635    3.4361    2.5642 C   0  0  0  0  0  0  0  0  0  0  0  0
   -4.2087    4.8261    2.5699 C   0  0  0  0  0  0  0  0  0  0  0  0
   -3.0275    5.5605    2.5628 C   0  0  0  0  0  0  0  0  0  0  0  0
   -1.7952    4.9155    2.5492 C   0  0  0  0  0  0  0  0  0  0  0  0
    2.1375   -1.4425    2.4850 C   0  0  0  0  0  0  0  0  0  0  0  0
    3.3453   -5.5348    4.0611 H   0  0  0  0  0  0  0  0  0  0  0  0
    2.9327   -6.2215    6.3200 H   0  0  0  0  0  0  0  0  0  0  0  0
   -0.5890   -4.0292    6.3620 H   0  0  0  0  0  0  0  0  0  0  0  0
    1.5082   -7.0886   10.5470 H   0  0  0  0  0  0  0  0  0  0  0  0
   -0.6624   -5.7416   10.5807 H   0  0  0  0  0  0  0  0  0  0  0  0
    2.3856   -4.6593    1.9951 H   0  0  0  0  0  0  0  0  0  0  0  0
    1.0000   -3.7952    2.0100 H   0  0  0  0  0  0  0  0  0  0  0  0
    1.1276    0.9796    2.5080 H   0  0  0  0  0  0  0  0  0  0  0  0
    5.2474    3.4265    2.4809 H   0  0  0  0  0  0  0  0  0  0  0  0
    5.2774    1.0322    2.4711 H   0  0  0  0  0  0  0  0  0  0  0  0
    4.1407    5.4355    2.4984 H   0  0  0  0  0  0  0  0  0  0  0  0
    2.7195    5.4565    1.6944 H   0  0  0  0  0  0  0  0  0  0  0  0
    2.7338    5.4503    3.3273 H   0  0  0  0  0  0  0  0  0  0  0  0
   -0.4897    1.8690    2.5256 H   0  0  0  0  0  0  0  0  0  0  0  0
   -2.9000    1.7810    2.5464 H   0  0  0  0  0  0  0  0  0  0  0  0
   -5.0127    2.9082    2.5698 H   0  0  0  0  0  0  0  0  0  0  0  0
   -5.0905    5.2976    2.5790 H   0  0  0  0  0  0  0  0  0  0  0  0
   -3.0645    6.5598    2.5676 H   0  0  0  0  0  0  0  0  0  0  0  0
   -0.9460    5.4437    2.5438 H   0  0  0  0  0  0  0  0  0  0  0  0
    1.1740   -1.1748    2.4918 H   0  0  0  0  0  0  0  0  0  0  0  0
  1  2  1  0  0  0  0
  2  3  1  0  0  0  0
  3  4  2  0  0  0  0
  4  5  1  0  0  0  0
  5  6  2  0  0  0  0
  6  7  1  0  0  0  0
  7  2  2  0  0  0  0
  6  8  1  0  0  0  0
  8  9  1  0  0  0  0
  9 10  1  0  0  0  0
 10 11  2  0  0  0  0
 11 12  1  0  0  0  0
  8 12  2  0  0  0  0
  3 13  1  0  0  0  0
 13 14  1  0  0  0  0
 14 15  1  0  0  0  0
 15 16  2  0  0  0  0
 16 17  1  0  0  0  0
 17 18  1  0  0  0  0
 18 19  1  0  0  0  0
 19 20  2  0  0  0  0
 20 21  1  0  0  0  0
 21 22  2  0  0  0  0
 22 23  1  0  0  0  0
 23 18  2  0  0  0  0
 21 24  1  0  0  0  0
 20 25  1  0  0  0  0
 25 26  2  0  0  0  0
 25 27  1  0  0  0  0
 27 28  1  0  0  0  0
 28 29  1  0  0  0  0
 29 30  2  0  0  0  0
 30 31  1  0  0  0  0
 31 32  2  0  0  0  0
 32 33  1  0  0  0  0
 33 28  2  0  0  0  0
 17 34  2  0  0  0  0
 34 14  1  0  0  0  0
  4 35  1  0  0  0  0
  5 36  1  0  0  0  0
  7 37  1  0  0  0  0
 10 38  1  0  0  0  0
 11 39  1  0  0  0  0
 13 40  1  0  0  0  0
 13 41  1  0  0  0  0
 19 42  1  0  0  0  0
 22 43  1  0  0  0  0
 23 44  1  0  0  0  0
 24 45  1  0  0  0  0
 24 46  1  0  0  0  0
 24 47  1  0  0  0  0
 27 48  1  0  0  0  0
 29 49  1  0  0  0  0
 30 50  1  0  0  0  0
 31 51  1  0  0  0  0
 32 52  1  0  0  0  0
 33 53  1  0  0  0  0
 34 54  1  0  0  0  0
M  END
>  <result-rank>
73

>  <similarity>
0.869

>  <query-name>


>  <query-smiles>
S1C(C(=O)NC2=Nc3c(N2CCC(=O)N)ccc(N(C(=O)c4ccccc4)C)c3)=CC=C1/C=C/c5ncc(N)cn5

>  <source>
REALspace_2019-12

>  <similarity-descriptor>
0.966;0.998;0.895;0.716;0.995;0.286;0.716;0.0;0.0;0.0;0.0;0.995;0.852;0.995;0.966;0.895;0.0;0.0

>  <similarity-descriptor-smiles>
Fc1ccccc1;c1ccccc1;C1=NC=CO1;N1C=CN=N1;c1ccccc1;C;N1C=CN=N1;;;;;c1ccccc1;C(=O)N;C;Fc1ccccc1;C1=NC=CO1;;

>  <reaction-name>
s_274090

>  <reagent1-name>
12940278

>  <reagent1-smiles>
[R1*]N=NN([R2*])Cc1c(F)cc(cc1)C=2OC=CN2

>  <reagent2-name>
16948036

>  <reagent2-smiles>
[R1*]C(c1cc(c(cc1)C)C(=O)Nc2ccccc2)=C[R2*]

$$$$
s_22____2007866____13263488
          04022017353D 1   1.00000     0.00000     0
            
 50 53  0  0  0  0            999 V2000
    6.7362   -7.3260   -0.2412 Br  0  0  0  0  0  0  0  0  0  0  0  0
    6.5492   -5.8656    1.0529 C   0  0  0  0  0  0  0  0  0  0  0  0
    7.0750   -5.9680    2.3384 C   0  0  0  0  0  0  0  0  0  0  0  0
    7.7313   -7.0639    2.7519 N   0  0  0  0  0  0  0  0  0  0  0  0
    8.2391   -7.1677    3.9893 C   0  0  0  0  0  0  0  0  0  0  0  0
    8.0813   -6.1049    4.8733 C   0  0  0  0  0  0  0  0  0  0  0  0
    7.4264   -5.0099    4.4602 N   0  0  0  0  0  0  0  0  0  0  0  0
    6.9172   -4.9039    3.2227 C   0  0  0  0  0  0  0  0  0  0  0  0
    6.2413   -3.7577    2.8153 C   0  0  0  0  0  0  0  0  0  0  0  0
    5.7192   -3.6615    1.5298 C   0  0  0  0  0  0  0  0  0  0  0  0
    5.8734   -4.7213    0.6414 C   0  0  0  0  0  0  0  0  0  0  0  0
    5.0179   -2.4638    1.1142 C   0  0  0  0  0  0  0  0  0  0  0  0
    4.2730   -2.5004    0.1741 O   0  0  0  0  0  0  0  0  0  0  0  0
    5.2051   -1.2895    1.7946 N   0  0  0  0  0  0  0  0  0  0  0  0
    4.5272   -0.1320    1.3929 C   0  0  0  0  0  0  0  0  0  0  0  0
    5.2222    1.0074    0.9980 C   0  0  0  0  0  0  0  0  0  0  0  0
    4.5255    2.1454    0.6027 C   0  0  0  0  0  0  0  0  0  0  0  0
    3.1345    2.1447    0.6027 C   0  0  0  0  0  0  0  0  0  0  0  0
    2.4504    1.0000    1.0000 C   0  0  0  0  0  0  0  0  0  0  0  0
    3.1363   -0.1436    1.3969 C   0  0  0  0  0  0  0  0  0  0  0  0
    1.0000    1.0000    1.0000 C   0  0  0  0  0  0  0  0  0  0  0  0
    0.4000    2.0391    1.0156 O   0  0  0  0  0  0  0  0  0  0  0  0
    0.3150   -0.1863    0.9822 N   0  0  0  0  0  0  0  0  0  0  0  0
   -1.0214   -0.2166    0.5671 C   0  0  0  0  0  0  0  0  0  0  0  0
   -1.3501    0.2015   -0.7181 C   0  0  0  0  0  0  0  0  0  0  0  0
   -2.6814    0.1670   -1.1191 C   0  0  0  0  0  0  0  0  0  0  0  0
   -3.6770   -0.2769   -0.2553 C   0  0  0  0  0  0  0  0  0  0  0  0
   -3.3242   -0.6905    1.0254 C   0  0  0  0  0  0  0  0  0  0  0  0
   -1.9997   -0.6647    1.4480 C   0  0  0  0  0  0  0  0  0  0  0  0
   -3.0471    0.6230   -2.5224 C   0  0  0  0  0  0  0  0  0  0  0  0
   -2.5765   -0.2496   -3.4089 F   0  0  0  0  0  0  0  0  0  0  0  0
   -4.3703    0.6979   -2.6335 F   0  0  0  0  0  0  0  0  0  0  0  0
   -2.5144    1.8198   -2.7525 F   0  0  0  0  0  0  0  0  0  0  0  0
    6.7418    1.0082    0.9966 C   0  0  0  0  0  0  0  0  0  0  0  0
    8.7232   -7.9958    4.2718 H   0  0  0  0  0  0  0  0  0  0  0  0
    8.4502   -6.1566    5.8013 H   0  0  0  0  0  0  0  0  0  0  0  0
    6.1299   -2.9956    3.4531 H   0  0  0  0  0  0  0  0  0  0  0  0
    5.5015   -4.6610   -0.2849 H   0  0  0  0  0  0  0  0  0  0  0  0
    5.8258   -1.2590    2.5780 H   0  0  0  0  0  0  0  0  0  0  0  0
    5.0250    2.9639    0.3186 H   0  0  0  0  0  0  0  0  0  0  0  0
    2.6301    2.9604    0.3195 H   0  0  0  0  0  0  0  0  0  0  0  0
    2.6366   -0.9619    1.6809 H   0  0  0  0  0  0  0  0  0  0  0  0
    0.7698   -1.0306    1.2658 H   0  0  0  0  0  0  0  0  0  0  0  0
   -0.6397    0.5221   -1.3446 H   0  0  0  0  0  0  0  0  0  0  0  0
   -4.6323   -0.2984   -0.5504 H   0  0  0  0  0  0  0  0  0  0  0  0
   -4.0345   -1.0113    1.6520 H   0  0  0  0  0  0  0  0  0  0  0  0
   -1.7546   -0.9636    2.3703 H   0  0  0  0  0  0  0  0  0  0  0  0
    7.0745    1.8993    0.6879 H   0  0  0  0  0  0  0  0  0  0  0  0
    7.0761    0.8299    1.9220 H   0  0  0  0  0  0  0  0  0  0  0  0
    7.0749    0.2958    0.3789 H   0  0  0  0  0  0  0  0  0  0  0  0
  1  2  1  0  0  0  0
  2  3  1  0  0  0  0
  3  4  2  0  0  0  0
  4  5  1  0  0  0  0
  5  6  2  0  0  0  0
  6  7  1  0  0  0  0
  7  8  2  0  0  0  0
  8  3  1  0  0  0  0
  8  9  1  0  0  0  0
  9 10  2  0  0  0  0
 10 11  1  0  0  0  0
 11  2  2  0  0  0  0
 10 12  1  0  0  0  0
 12 13  2  0  0  0  0
 12 14  1  0  0  0  0
 14 15  1  0  0  0  0
 15 16  1  0  0  0  0
 16 17  2  0  0  0  0
 17 18  1  0  0  0  0
 18 19  2  0  0  0  0
 19 20  1  0  0  0  0
 20 15  2  0  0  0  0
 19 21  1  0  0  0  0
 21 22  2  0  0  0  0
 21 23  1  0  0  0  0
 23 24  1  0  0  0  0
 24 25  1  0  0  0  0
 25 26  2  0  0  0  0
 26 27  1  0  0  0  0
 27 28  2  0  0  0  0
 28 29  1  0  0  0  0
 29 24  2  0  0  0  0
 26 30  1  0  0  0  0
 30 31  1  0  0  0  0
 30 32  1  0  0  0  0
 30 33  1  0  0  0  0
 16 34  1  0  0  0  0
  5 35  1  0  0  0  0
  6 36  1  0  0  0  0
  9 37  1  0  0  0  0
 11 38  1  0  0  0  0
 14 39  1  0  0  0  0
 17 40  1  0  0  0  0
 18 41  1  0  0  0  0
 20 42  1  0  0  0  0
 23 43  1  0  0  0  0
 25 44  1  0  0  0  0
 27 45  1  0  0  0  0
 28 46  1  0  0  0  0
 29 47  1  0  0  0  0
 34 48  1  0  0  0  0
 34 49  1  0  0  0  0
 34 50  1  0  0  0  0
M  END
>  <result-rank>
74

>  <similarity>
0.868

>  <query-name>


>  <query-smiles>
S1C(C(=O)NC2=Nc3c(N2CCC(=O)N)ccc(N(C(=O)c4ccccc4)C)c3)=CC=C1/C=C/c5ncc(N)cn5

>  <source>
REALspace_2019-12

>  <similarity-descriptor>
0.998;0.927;0.919;0.713;0.713;0.999;1.000;0.0;0.0;0.0;0.0;0.713;0.852;0.995;0.998;0.919;0.0;0.0

>  <similarity-descriptor-smiles>
Brc1ccccc1;c1cccc(c1)C(F)(F)F;c1cnccn1;c1ccccc1;c1ccccc1;C=O;N;;;;;c1ccccc1;C(=O)N;C;Brc1ccccc1;c1cnccn1;;

>  <reaction-name>
s_22

>  <reagent1-name>
2007866

>  <reagent1-smiles>
[R1*]Nc1c(ccc(c1)C(=O)Nc2cc(ccc2)C(F)(F)F)C

>  <reagent2-name>
13263488

>  <reagent2-smiles>
[R1*]C(=O)c1cc(Br)c2nccnc2c1

$$$$
s_22____14935126____8992344
          04022017353D 1   1.00000     0.00000     0
            
 55 59  0  0  0  0            999 V2000
    2.6960    2.4199    6.6165 F   0  0  0  0  0  0  0  0  0  0  0  0
    3.7427    3.1395    6.2206 C   0  0  0  0  0  0  0  0  0  0  0  0
    3.6981    3.8249    5.0109 C   0  0  0  0  0  0  0  0  0  0  0  0
    4.7924    4.5779    4.5976 C   0  0  0  0  0  0  0  0  0  0  0  0
    5.9331    4.6472    5.3904 C   0  0  0  0  0  0  0  0  0  0  0  0
    5.9653    3.9563    6.5976 C   0  0  0  0  0  0  0  0  0  0  0  0
    7.1532    4.0273    7.4248 C   0  0  0  0  0  0  0  0  0  0  0  0
    7.9572    5.1626    7.4065 C   0  0  0  0  0  0  0  0  0  0  0  0
    9.0520    5.2049    8.1804 N   0  0  0  0  0  0  0  0  0  0  0  0
    9.3890    4.1763    8.9721 C   0  0  0  0  0  0  0  0  0  0  0  0
    8.6250    3.0741    9.0012 N   0  0  0  0  0  0  0  0  0  0  0  0
    7.5178    2.9700    8.2511 C   0  0  0  0  0  0  0  0  0  0  0  0
    4.8778    3.2001    7.0227 C   0  0  0  0  0  0  0  0  0  0  0  0
    2.5106    3.7554    4.1810 C   0  0  0  0  0  0  0  0  0  0  0  0
    1.6310    4.5591    4.3237 O   0  0  0  0  0  0  0  0  0  0  0  0
    2.3904    2.7501    3.2131 N   0  0  0  0  0  0  0  0  0  0  0  0
    1.1615    2.7356    2.4051 C   0  0  0  0  0  0  0  0  0  0  0  0
    0.6466    1.3111    2.4514 C   0  0  0  0  0  0  0  0  0  0  0  0
    1.5191    0.2307    2.4962 C   0  0  0  0  0  0  0  0  0  0  0  0
    0.9765   -1.0453    2.6347 C   0  0  0  0  0  0  0  0  0  0  0  0
   -0.4025   -1.2197    2.7097 C   0  0  0  0  0  0  0  0  0  0  0  0
   -0.9180   -2.4534    2.8951 O   0  0  0  0  0  0  0  0  0  0  0  0
   -2.3244   -2.6470    2.8654 C   0  0  0  0  0  0  0  0  0  0  0  0
   -2.7886   -2.7698    1.4235 C   0  0  0  0  0  0  0  0  0  0  0  0
   -2.2841   -3.7933    0.6284 C   0  0  0  0  0  0  0  0  0  0  0  0
   -2.7053   -3.9109   -0.6922 C   0  0  0  0  0  0  0  0  0  0  0  0
   -3.6273   -3.0017   -1.2007 C   0  0  0  0  0  0  0  0  0  0  0  0
   -4.0352   -3.1085   -2.4624 F   0  0  0  0  0  0  0  0  0  0  0  0
   -4.1343   -1.9756   -0.4100 C   0  0  0  0  0  0  0  0  0  0  0  0
   -3.7097   -1.8633    0.9097 C   0  0  0  0  0  0  0  0  0  0  0  0
   -1.2619   -0.1302    2.6156 C   0  0  0  0  0  0  0  0  0  0  0  0
   -0.7327    1.1518    2.4789 C   0  0  0  0  0  0  0  0  0  0  0  0
    3.0237    0.4489    2.4079 C   0  0  0  0  0  0  0  0  0  0  0  0
    3.4702    1.7595    3.0467 C   0  0  0  0  0  0  0  0  0  0  0  0
    4.7588    5.0708    3.7282 H   0  0  0  0  0  0  0  0  0  0  0  0
    6.7213    5.1875    5.0960 H   0  0  0  0  0  0  0  0  0  0  0  0
    7.7213    5.9392    6.8224 H   0  0  0  0  0  0  0  0  0  0  0  0
   10.2098    4.2309    9.5407 H   0  0  0  0  0  0  0  0  0  0  0  0
    6.9603    2.1405    8.2858 H   0  0  0  0  0  0  0  0  0  0  0  0
    4.9114    2.7072    7.8922 H   0  0  0  0  0  0  0  0  0  0  0  0
    1.3625    3.0017    1.4624 H   0  0  0  0  0  0  0  0  0  0  0  0
    0.4846    3.3622    2.7913 H   0  0  0  0  0  0  0  0  0  0  0  0
    1.5814   -1.8403    2.6805 H   0  0  0  0  0  0  0  0  0  0  0  0
   -2.7775   -1.8665    3.2962 H   0  0  0  0  0  0  0  0  0  0  0  0
   -2.5563   -3.4831    3.3626 H   0  0  0  0  0  0  0  0  0  0  0  0
   -1.6218   -4.4416    1.0041 H   0  0  0  0  0  0  0  0  0  0  0  0
   -2.3481   -4.6434   -1.2716 H   0  0  0  0  0  0  0  0  0  0  0  0
   -4.7959   -1.3268   -0.7858 H   0  0  0  0  0  0  0  0  0  0  0  0
   -4.0668   -1.1307    1.4891 H   0  0  0  0  0  0  0  0  0  0  0  0
   -2.2522   -0.2658    2.6459 H   0  0  0  0  0  0  0  0  0  0  0  0
   -1.3370    1.9448    2.4018 H   0  0  0  0  0  0  0  0  0  0  0  0
    3.2892    0.4568    1.4438 H   0  0  0  0  0  0  0  0  0  0  0  0
    3.4839   -0.3067    2.8741 H   0  0  0  0  0  0  0  0  0  0  0  0
    3.8499    1.5551    3.9490 H   0  0  0  0  0  0  0  0  0  0  0  0
    4.1802    2.1635    2.4700 H   0  0  0  0  0  0  0  0  0  0  0  0
  1  2  1  0  0  0  0
  2  3  1  0  0  0  0
  3  4  2  0  0  0  0
  4  5  1  0  0  0  0
  5  6  2  0  0  0  0
  6  7  1  0  0  0  0
  7  8  1  0  0  0  0
  8  9  2  0  0  0  0
  9 10  1  0  0  0  0
 10 11  2  0  0  0  0
 11 12  1  0  0  0  0
 12  7  2  0  0  0  0
  6 13  1  0  0  0  0
 13  2  2  0  0  0  0
  3 14  1  0  0  0  0
 14 15  2  0  0  0  0
 14 16  1  0  0  0  0
 16 17  1  0  0  0  0
 17 18  1  0  0  0  0
 18 19  1  0  0  0  0
 19 20  2  0  0  0  0
 20 21  1  0  0  0  0
 21 22  1  0  0  0  0
 22 23  1  0  0  0  0
 23 24  1  0  0  0  0
 24 25  1  0  0  0  0
 25 26  2  0  0  0  0
 26 27  1  0  0  0  0
 27 28  1  0  0  0  0
 27 29  2  0  0  0  0
 29 30  1  0  0  0  0
 30 24  2  0  0  0  0
 21 31  2  0  0  0  0
 31 32  1  0  0  0  0
 32 18  2  0  0  0  0
 19 33  1  0  0  0  0
 33 34  1  0  0  0  0
 34 16  1  0  0  0  0
  4 35  1  0  0  0  0
  5 36  1  0  0  0  0
  8 37  1  0  0  0  0
 10 38  1  0  0  0  0
 12 39  1  0  0  0  0
 13 40  1  0  0  0  0
 17 41  1  0  0  0  0
 17 42  1  0  0  0  0
 20 43  1  0  0  0  0
 23 44  1  0  0  0  0
 23 45  1  0  0  0  0
 25 46  1  0  0  0  0
 26 47  1  0  0  0  0
 29 48  1  0  0  0  0
 30 49  1  0  0  0  0
 31 50  1  0  0  0  0
 32 51  1  0  0  0  0
 33 52  1  0  0  0  0
 33 53  1  0  0  0  0
 34 54  1  0  0  0  0
 34 55  1  0  0  0  0
M  END
>  <result-rank>
75

>  <similarity>
0.868

>  <query-name>


>  <query-smiles>
S1C(C(=O)NC2=Nc3c(N2CCC(=O)N)ccc(N(C(=O)c4ccccc4)C)c3)=CC=C1/C=C/c5ncc(N)cn5

>  <source>
REALspace_2019-12

>  <similarity-descriptor>
0.966;0.967;0.936;0.670;0.989;0.853;0.853;0.670;0.670;0.0;0.0;0.989;0.568;0.0;0.966;0.936;0.0;0.0

>  <similarity-descriptor-smiles>
Fc1ccccc1;c1ccc(cc1)F;c1cncnc1;N1CCccC1;c1ccccc1;C=O;C=O;N1CCccC1;N1CCccC1;;;c1ccccc1;OC;;Fc1ccccc1;c1cncnc1;;

>  <reaction-name>
s_22

>  <reagent1-name>
14935126

>  <reagent1-smiles>
[R1*]N1Cc2c(cc(OCc3ccc(F)cc3)cc2)CC1

>  <reagent2-name>
8992344

>  <reagent2-smiles>
[R1*]C(=O)c1c(F)cc(c2cncnc2)cc1

$$$$
s_270196____16887988____12307614
          04022017353D 1   1.00000     0.00000     0
            
 51 55  0  0  0  0            999 V2000
    0.2730    3.8348    2.5310 Br  0  0  0  0  0  0  0  0  0  0  0  0
    1.9835    2.8781    2.5099 C   0  0  0  0  0  0  0  0  0  0  0  0
    3.1729    3.5995    2.5004 C   0  0  0  0  0  0  0  0  0  0  0  0
    4.3838    2.9149    2.4856 C   0  0  0  0  0  0  0  0  0  0  0  0
    5.5877    3.6678    2.4762 O   0  0  0  0  0  0  0  0  0  0  0  0
    5.5377    5.0869    2.4819 C   0  0  0  0  0  0  0  0  0  0  0  0
    5.5344    5.5880    3.9173 C   0  0  0  0  0  0  0  0  0  0  0  0
    6.7405    5.8578    4.5557 C   0  0  0  0  0  0  0  0  0  0  0  0
    6.7330    6.3154    5.8693 C   0  0  0  0  0  0  0  0  0  0  0  0
    5.5256    6.5013    6.5342 C   0  0  0  0  0  0  0  0  0  0  0  0
    4.3269    6.2290    5.8864 C   0  0  0  0  0  0  0  0  0  0  0  0
    4.3211    5.7704    4.5732 C   0  0  0  0  0  0  0  0  0  0  0  0
    4.4048    1.5235    2.4803 C   0  0  0  0  0  0  0  0  0  0  0  0
    3.2106    0.8098    2.4898 C   0  0  0  0  0  0  0  0  0  0  0  0
    1.9954    1.4870    2.5047 C   0  0  0  0  0  0  0  0  0  0  0  0
    5.6545    0.7878    2.4650 C   0  0  0  0  0  0  0  0  0  0  0  0
    5.7863   -0.5180    2.4588 N   0  0  0  0  0  0  0  0  0  0  0  0
    7.0216   -0.8015    2.4425 O   0  0  0  0  0  0  0  0  0  0  0  0
    7.7253    0.3044    2.4391 C   0  0  0  0  0  0  0  0  0  0  0  0
    6.9034    1.3230    2.4515 N   0  0  0  0  0  0  0  0  0  0  0  0
    9.1733    0.3859    2.4230 C   0  0  0  0  0  0  0  0  0  0  0  0
    9.8490    1.6367    2.4205 C   0  0  0  0  0  0  0  0  0  0  0  0
    9.2199    2.6585    2.4318 O   0  0  0  0  0  0  0  0  0  0  0  0
   11.2198    1.6527    2.4045 N   0  0  0  0  0  0  0  0  0  0  0  0
   11.9470    0.4905    2.3912 C   0  0  0  0  0  0  0  0  0  0  0  0
   13.3965    0.5301    2.3741 C   0  0  0  0  0  0  0  0  0  0  0  0
   14.1070   -0.6659    2.3608 C   0  0  0  0  0  0  0  0  0  0  0  0
   15.4970   -0.6245    2.3445 C   0  0  0  0  0  0  0  0  0  0  0  0
   16.4227   -2.1448    2.3268 Cl  0  0  0  0  0  0  0  0  0  0  0  0
   16.1779    0.5888    2.3415 C   0  0  0  0  0  0  0  0  0  0  0  0
   15.4487    1.7733    2.3546 C   0  0  0  0  0  0  0  0  0  0  0  0
   14.0579    1.7539    2.3706 C   0  0  0  0  0  0  0  0  0  0  0  0
   11.3192   -0.7285    2.3936 C   0  0  0  0  0  0  0  0  0  0  0  0
    9.8990   -0.7773    2.4101 C   0  0  0  0  0  0  0  0  0  0  0  0
    3.1576    4.5994    2.5042 H   0  0  0  0  0  0  0  0  0  0  0  0
    4.7052    5.3930    2.0201 H   0  0  0  0  0  0  0  0  0  0  0  0
    6.3371    5.4506    2.0037 H   0  0  0  0  0  0  0  0  0  0  0  0
    7.6065    5.7238    4.0738 H   0  0  0  0  0  0  0  0  0  0  0  0
    7.5958    6.5106    6.3356 H   0  0  0  0  0  0  0  0  0  0  0  0
    5.5202    6.8308    7.4784 H   0  0  0  0  0  0  0  0  0  0  0  0
    3.4612    6.3640    6.3683 H   0  0  0  0  0  0  0  0  0  0  0  0
    3.4579    5.5747    4.1076 H   0  0  0  0  0  0  0  0  0  0  0  0
    3.2257   -0.1901    2.4860 H   0  0  0  0  0  0  0  0  0  0  0  0
    1.1354    0.9768    2.5117 H   0  0  0  0  0  0  0  0  0  0  0  0
   11.6992    2.5303    2.4026 H   0  0  0  0  0  0  0  0  0  0  0  0
   13.6254   -1.5423    2.3628 H   0  0  0  0  0  0  0  0  0  0  0  0
   17.1776    0.6091    2.3302 H   0  0  0  0  0  0  0  0  0  0  0  0
   15.9303    2.6496    2.3524 H   0  0  0  0  0  0  0  0  0  0  0  0
   13.5398    2.6092    2.3795 H   0  0  0  0  0  0  0  0  0  0  0  0
   11.8544   -1.5732    2.3839 H   0  0  0  0  0  0  0  0  0  0  0  0
    9.4290   -1.6599    2.4123 H   0  0  0  0  0  0  0  0  0  0  0  0
  1  2  1  0  0  0  0
  2  3  1  0  0  0  0
  3  4  2  0  0  0  0
  4  5  1  0  0  0  0
  5  6  1  0  0  0  0
  6  7  1  0  0  0  0
  7  8  1  0  0  0  0
  8  9  2  0  0  0  0
  9 10  1  0  0  0  0
 10 11  2  0  0  0  0
 11 12  1  0  0  0  0
 12  7  2  0  0  0  0
  4 13  1  0  0  0  0
 13 14  2  0  0  0  0
 14 15  1  0  0  0  0
 15  2  2  0  0  0  0
 13 16  1  0  0  0  0
 16 17  2  0  0  0  0
 17 18  1  0  0  0  0
 18 19  1  0  0  0  0
 19 20  2  0  0  0  0
 20 16  1  0  0  0  0
 19 21  1  0  0  0  0
 21 22  1  0  0  0  0
 22 23  2  0  0  0  0
 22 24  1  0  0  0  0
 24 25  1  0  0  0  0
 25 26  1  0  0  0  0
 26 27  1  0  0  0  0
 27 28  2  0  0  0  0
 28 29  1  0  0  0  0
 28 30  1  0  0  0  0
 30 31  2  0  0  0  0
 31 32  1  0  0  0  0
 32 26  2  0  0  0  0
 25 33  2  0  0  0  0
 33 34  1  0  0  0  0
 21 34  2  0  0  0  0
  3 35  1  0  0  0  0
  6 36  1  0  0  0  0
  6 37  1  0  0  0  0
  8 38  1  0  0  0  0
  9 39  1  0  0  0  0
 10 40  1  0  0  0  0
 11 41  1  0  0  0  0
 12 42  1  0  0  0  0
 14 43  1  0  0  0  0
 15 44  1  0  0  0  0
 24 45  1  0  0  0  0
 27 46  1  0  0  0  0
 30 47  1  0  0  0  0
 31 48  1  0  0  0  0
 32 49  1  0  0  0  0
 33 50  1  0  0  0  0
 34 51  1  0  0  0  0
M  END
>  <result-rank>
76

>  <similarity>
0.868

>  <query-name>


>  <query-smiles>
S1C(C(=O)NC2=Nc3c(N2CCC(=O)N)ccc(N(C(=O)c4ccccc4)C)c3)=CC=C1/C=C/c5ncc(N)cn5

>  <source>
REALspace_2019-12

>  <similarity-descriptor>
0.954;1.000;0.800;0.753;0.965;0.954;0.954;0.753;0.753;0.753;0.0;0.965;0.568;0.965;0.800;0.800;0.0;0.0

>  <similarity-descriptor-smiles>
C1=CC=CNC1=O;c1ccccc1;c1cccc(c1)Cl;C=1N=CON1;Brc1ccccc1;C1=CC=CNC1=O;C1=CC=CNC1=O;C=1N=CON1;C=1N=CON1;C=1N=CON1;;Brc1ccccc1;OC;Brc1ccccc1;c1cccc(c1)Cl;c1cccc(c1)Cl;;

>  <reaction-name>
s_270196

>  <reagent1-name>
16887988

>  <reagent1-smiles>
[R1*]=NC(=NO[R2*])c1c(OCc2ccccc2)cc(Br)cc1

>  <reagent2-name>
12307614

>  <reagent2-smiles>
[R1*]C([R2*])C=1C(=O)NC(c2cc(Cl)ccc2)=CC1

$$$$
s_265764____4558010____4565806
          04022017353D 1   1.00000     0.00000     0
            
 57 61  0  0  0  0            999 V2000
    0.8248    7.9434    2.6652 O   0  0  0  0  0  0  0  0  0  0  0  0
   -0.0359    7.3198    2.1079 C   0  0  0  0  0  0  0  0  0  0  0  0
   -0.9035    7.9567    1.2603 N   0  0  0  0  0  0  0  0  0  0  0  0
   -1.4564    7.2655    0.1754 C   0  0  0  0  0  0  0  0  0  0  0  0
   -0.6471    6.9090   -0.8987 C   0  0  0  0  0  0  0  0  0  0  0  0
   -1.1999    6.2222   -1.9746 C   0  0  0  0  0  0  0  0  0  0  0  0
   -2.5521    5.8972   -1.9713 C   0  0  0  0  0  0  0  0  0  0  0  0
   -3.3516    6.2581   -0.8919 C   0  0  0  0  0  0  0  0  0  0  0  0
   -2.8099    6.9452    0.1894 C   0  0  0  0  0  0  0  0  0  0  0  0
   -1.2541    9.3657    1.4898 C   0  0  0  0  0  0  0  0  0  0  0  0
   -0.1575    5.8920    2.3318 C   0  0  0  0  0  0  0  0  0  0  0  0
    0.9866    5.1013    2.3170 C   0  0  0  0  0  0  0  0  0  0  0  0
    0.8617    3.7327    2.5327 C   0  0  0  0  0  0  0  0  0  0  0  0
   -0.3816    3.1525    2.7608 C   0  0  0  0  0  0  0  0  0  0  0  0
   -1.5114    3.9634    2.7715 C   0  0  0  0  0  0  0  0  0  0  0  0
   -1.4115    5.3342    2.5584 C   0  0  0  0  0  0  0  0  0  0  0  0
    2.0463    2.8968    2.5180 C   0  0  0  0  0  0  0  0  0  0  0  0
    3.2848    3.3259    2.4991 O   0  0  0  0  0  0  0  0  0  0  0  0
    4.0764    2.3360    2.4914 N   0  0  0  0  0  0  0  0  0  0  0  0
    3.3683    1.2311    2.5037 C   0  0  0  0  0  0  0  0  0  0  0  0
    2.0573    1.5880    2.5200 N   0  0  0  0  0  0  0  0  0  0  0  0
    3.8899   -0.1215    2.4978 C   0  0  0  0  0  0  0  0  0  0  0  0
    2.9989   -1.1895    2.5128 C   0  0  0  0  0  0  0  0  0  0  0  0
    3.5039   -2.4849    2.5073 C   0  0  0  0  0  0  0  0  0  0  0  0
    2.6548   -3.5353    2.5203 O   0  0  0  0  0  0  0  0  0  0  0  0
    1.2522   -3.3142    2.5394 C   0  0  0  0  0  0  0  0  0  0  0  0
    0.5285   -4.6514    2.5509 C   0  0  0  0  0  0  0  0  0  0  0  0
    0.2004   -5.2866    3.7438 C   0  0  0  0  0  0  0  0  0  0  0  0
   -0.4382   -6.4659    3.7401 N   0  0  0  0  0  0  0  0  0  0  0  0
   -0.7811   -7.0727    2.5946 C   0  0  0  0  0  0  0  0  0  0  0  0
   -0.4817   -6.4886    1.3677 C   0  0  0  0  0  0  0  0  0  0  0  0
    0.1801   -5.2652    1.3529 C   0  0  0  0  0  0  0  0  0  0  0  0
    4.8755   -2.7153    2.4886 C   0  0  0  0  0  0  0  0  0  0  0  0
    5.7565   -1.6387    2.4741 C   0  0  0  0  0  0  0  0  0  0  0  0
    5.2642   -0.3383    2.4787 C   0  0  0  0  0  0  0  0  0  0  0  0
    0.3247    7.1448   -0.8972 H   0  0  0  0  0  0  0  0  0  0  0  0
   -0.6250    5.9622   -2.7504 H   0  0  0  0  0  0  0  0  0  0  0  0
   -2.9496    5.4039   -2.7451 H   0  0  0  0  0  0  0  0  0  0  0  0
   -4.3233    6.0219   -0.8933 H   0  0  0  0  0  0  0  0  0  0  0  0
   -3.3849    7.2049    0.9652 H   0  0  0  0  0  0  0  0  0  0  0  0
   -0.7739    9.7009    2.3004 H   0  0  0  0  0  0  0  0  0  0  0  0
   -0.9858    9.9097    0.6948 H   0  0  0  0  0  0  0  0  0  0  0  0
   -2.2410    9.4450    1.6304 H   0  0  0  0  0  0  0  0  0  0  0  0
    1.8846    5.5100    2.1539 H   0  0  0  0  0  0  0  0  0  0  0  0
   -0.4619    2.1677    2.9147 H   0  0  0  0  0  0  0  0  0  0  0  0
   -2.4093    3.5546    2.9349 H   0  0  0  0  0  0  0  0  0  0  0  0
   -2.2289    5.9101    2.5680 H   0  0  0  0  0  0  0  0  0  0  0  0
    2.0121   -1.0283    2.5273 H   0  0  0  0  0  0  0  0  0  0  0  0
    0.9851   -2.7976    1.7259 H   0  0  0  0  0  0  0  0  0  0  0  0
    1.0076   -2.7957    3.3587 H   0  0  0  0  0  0  0  0  0  0  0  0
    0.4434   -4.8589    4.6144 H   0  0  0  0  0  0  0  0  0  0  0  0
   -1.2559   -7.9524    2.6223 H   0  0  0  0  0  0  0  0  0  0  0  0
   -0.7376   -6.9397    0.5127 H   0  0  0  0  0  0  0  0  0  0  0  0
    0.4050   -4.8279    0.4822 H   0  0  0  0  0  0  0  0  0  0  0  0
    5.2271   -3.6514    2.4855 H   0  0  0  0  0  0  0  0  0  0  0  0
    6.7433   -1.7999    2.4603 H   0  0  0  0  0  0  0  0  0  0  0  0
    5.8950    0.4376    2.4683 H   0  0  0  0  0  0  0  0  0  0  0  0
  1  2  2  0  0  0  0
  2  3  1  0  0  0  0
  3  4  1  0  0  0  0
  4  5  1  0  0  0  0
  5  6  2  0  0  0  0
  6  7  1  0  0  0  0
  7  8  2  0  0  0  0
  8  9  1  0  0  0  0
  9  4  2  0  0  0  0
  3 10  1  0  0  0  0
  2 11  1  0  0  0  0
 11 12  1  0  0  0  0
 12 13  2  0  0  0  0
 13 14  1  0  0  0  0
 14 15  2  0  0  0  0
 15 16  1  0  0  0  0
 16 11  2  0  0  0  0
 13 17  1  0  0  0  0
 17 18  1  0  0  0  0
 18 19  1  0  0  0  0
 19 20  2  0  0  0  0
 20 21  1  0  0  0  0
 17 21  2  0  0  0  0
 20 22  1  0  0  0  0
 22 23  1  0  0  0  0
 23 24  2  0  0  0  0
 24 25  1  0  0  0  0
 25 26  1  0  0  0  0
 26 27  1  0  0  0  0
 27 28  1  0  0  0  0
 28 29  2  0  0  0  0
 29 30  1  0  0  0  0
 30 31  2  0  0  0  0
 31 32  1  0  0  0  0
 32 27  2  0  0  0  0
 24 33  1  0  0  0  0
 33 34  2  0  0  0  0
 34 35  1  0  0  0  0
 35 22  2  0  0  0  0
  5 36  1  0  0  0  0
  6 37  1  0  0  0  0
  7 38  1  0  0  0  0
  8 39  1  0  0  0  0
  9 40  1  0  0  0  0
 10 41  1  0  0  0  0
 10 42  1  0  0  0  0
 10 43  1  0  0  0  0
 12 44  1  0  0  0  0
 14 45  1  0  0  0  0
 15 46  1  0  0  0  0
 16 47  1  0  0  0  0
 23 48  1  0  0  0  0
 26 49  1  0  0  0  0
 26 50  1  0  0  0  0
 28 51  1  0  0  0  0
 30 52  1  0  0  0  0
 31 53  1  0  0  0  0
 32 54  1  0  0  0  0
 33 55  1  0  0  0  0
 34 56  1  0  0  0  0
 35 57  1  0  0  0  0
M  END
>  <result-rank>
77

>  <similarity>
0.868

>  <query-name>


>  <query-smiles>
S1C(C(=O)NC2=Nc3c(N2CCC(=O)N)ccc(N(C(=O)c4ccccc4)C)c3)=CC=C1/C=C/c5ncc(N)cn5

>  <source>
REALspace_2019-12

>  <similarity-descriptor>
0.880;0.992;0.841;0.801;0.950;0.801;0.801;0.0;0.0;0.0;0.0;0.950;1.000;0.0;0.880;0.880;0.0;0.100

>  <similarity-descriptor-smiles>
c1ccccc1;Nc1ccccc1;OCc1cccnc1;C1=NC=NO1;c1ccccc1;C1=NC=NO1;C1=NC=NO1;;;;;c1ccccc1;O=C;;c1ccccc1;c1ccccc1;;C

>  <reaction-name>
s_265764

>  <reagent1-name>
4558010

>  <reagent1-smiles>
[R1*]=NC(=NO[R2*])c1cc(OCc2cnccc2)ccc1

>  <reagent2-name>
4565806

>  <reagent2-smiles>
[R1*]C([R2*])c1cc(ccc1)C(=O)N(c2ccccc2)C

$$$$
m_274860a____15212420____17209716____12655638
          04022017353D 1   1.00000     0.00000     0
            
 58 62  0  0  0  0            999 V2000
    2.9767    5.6390    3.5398 O   0  0  0  0  0  0  0  0  0  0  0  0
    3.1550    5.0462    2.5117 C   0  0  0  0  0  0  0  0  0  0  0  0
    3.3402    5.7394    1.3446 N   0  0  0  0  0  0  0  0  0  0  0  0
    3.5483    5.0478    0.1451 C   0  0  0  0  0  0  0  0  0  0  0  0
    2.4583    4.6925   -0.6430 C   0  0  0  0  0  0  0  0  0  0  0  0
    2.6691    4.0057   -1.8341 C   0  0  0  0  0  0  0  0  0  0  0  0
    3.9619    3.6791   -2.2291 C   0  0  0  0  0  0  0  0  0  0  0  0
    5.0443    4.0398   -1.4335 C   0  0  0  0  0  0  0  0  0  0  0  0
    4.8457    4.7267   -0.2403 C   0  0  0  0  0  0  0  0  0  0  0  0
    3.3204    7.2092    1.3517 C   0  0  0  0  0  0  0  0  0  0  0  0
    3.1746    3.5961    2.5048 C   0  0  0  0  0  0  0  0  0  0  0  0
    1.9788    2.8838    2.5133 C   0  0  0  0  0  0  0  0  0  0  0  0
    0.7421    3.5413    2.5292 N   0  0  0  0  0  0  0  0  0  0  0  0
    0.4964    4.7171    2.0048 N   0  0  0  0  0  0  0  0  0  0  0  0
   -0.7097    5.0467    2.1804 N   0  0  0  0  0  0  0  0  0  0  0  0
   -1.3252    4.0376    2.8578 C   0  0  0  0  0  0  0  0  0  0  0  0
   -2.7169    4.0053    3.2659 C   0  0  0  0  0  0  0  0  0  0  0  0
   -3.1417    4.5934    4.4539 C   0  0  0  0  0  0  0  0  0  0  0  0
   -2.2135    5.2669    5.3417 C   0  0  0  0  0  0  0  0  0  0  0  0
   -1.1495    4.5596    5.8917 C   0  0  0  0  0  0  0  0  0  0  0  0
   -0.2621    5.2093    6.7434 C   0  0  0  0  0  0  0  0  0  0  0  0
   -0.4415    6.5567    7.0384 C   0  0  0  0  0  0  0  0  0  0  0  0
   -1.5076    7.2533    6.4828 C   0  0  0  0  0  0  0  0  0  0  0  0
   -2.4022    6.6148    5.6302 C   0  0  0  0  0  0  0  0  0  0  0  0
   -4.4836    4.5423    4.8143 C   0  0  0  0  0  0  0  0  0  0  0  0
   -5.4023    3.9051    3.9861 C   0  0  0  0  0  0  0  0  0  0  0  0
   -4.9784    3.3178    2.7984 C   0  0  0  0  0  0  0  0  0  0  0  0
   -3.6358    3.3677    2.4386 C   0  0  0  0  0  0  0  0  0  0  0  0
   -0.4027    3.0678    3.0895 C   0  0  0  0  0  0  0  0  0  0  0  0
    1.9895    1.4925    2.5064 C   0  0  0  0  0  0  0  0  0  0  0  0
    3.2081    0.8214    2.4901 C   0  0  0  0  0  0  0  0  0  0  0  0
    4.4078    1.5254    2.4811 C   0  0  0  0  0  0  0  0  0  0  0  0
    4.3891    2.9166    2.4886 C   0  0  0  0  0  0  0  0  0  0  0  0
    3.2290   -0.6987    2.4825 C   0  0  0  0  0  0  0  0  0  0  0  0
    1.5303    4.9291   -0.3554 H   0  0  0  0  0  0  0  0  0  0  0  0
    1.8910    3.7467   -2.4064 H   0  0  0  0  0  0  0  0  0  0  0  0
    4.1134    3.1848   -3.0851 H   0  0  0  0  0  0  0  0  0  0  0  0
    5.9723    3.8036   -1.7214 H   0  0  0  0  0  0  0  0  0  0  0  0
    5.6239    4.9857    0.3317 H   0  0  0  0  0  0  0  0  0  0  0  0
    3.1614    7.5360    2.2833 H   0  0  0  0  0  0  0  0  0  0  0  0
    4.1985    7.5560    1.0221 H   0  0  0  0  0  0  0  0  0  0  0  0
    2.5877    7.5356    0.7544 H   0  0  0  0  0  0  0  0  0  0  0  0
   -1.0234    3.5912    5.6764 H   0  0  0  0  0  0  0  0  0  0  0  0
    0.5048    4.7077    7.1437 H   0  0  0  0  0  0  0  0  0  0  0  0
    0.1968    7.0240    7.6502 H   0  0  0  0  0  0  0  0  0  0  0  0
   -1.6329    8.2219    6.6978 H   0  0  0  0  0  0  0  0  0  0  0  0
   -3.1693    7.1169    5.2308 H   0  0  0  0  0  0  0  0  0  0  0  0
   -4.7884    4.9634    5.6686 H   0  0  0  0  0  0  0  0  0  0  0  0
   -6.3676    3.8692    4.2448 H   0  0  0  0  0  0  0  0  0  0  0  0
   -5.6389    2.8598    2.2034 H   0  0  0  0  0  0  0  0  0  0  0  0
   -3.3309    2.9452    1.5850 H   0  0  0  0  0  0  0  0  0  0  0  0
   -0.5360    2.1988    3.5661 H   0  0  0  0  0  0  0  0  0  0  0  0
    1.1306    0.9805    2.5131 H   0  0  0  0  0  0  0  0  0  0  0  0
    5.2788    1.0344    2.4692 H   0  0  0  0  0  0  0  0  0  0  0  0
    5.2482    3.4282    2.4825 H   0  0  0  0  0  0  0  0  0  0  0  0
    4.1763   -1.0190    2.4707 H   0  0  0  0  0  0  0  0  0  0  0  0
    2.7710   -1.0425    3.3023 H   0  0  0  0  0  0  0  0  0  0  0  0
    2.7535   -1.0346    1.6694 H   0  0  0  0  0  0  0  0  0  0  0  0
  1  2  2  0  0  0  0
  2  3  1  0  0  0  0
  3  4  1  0  0  0  0
  4  5  1  0  0  0  0
  5  6  2  0  0  0  0
  6  7  1  0  0  0  0
  7  8  2  0  0  0  0
  8  9  1  0  0  0  0
  9  4  2  0  0  0  0
  3 10  1  0  0  0  0
  2 11  1  0  0  0  0
 11 12  1  0  0  0  0
 12 13  1  0  0  0  0
 13 14  1  0  0  0  0
 14 15  2  0  0  0  0
 15 16  1  0  0  0  0
 16 17  1  0  0  0  0
 17 18  1  0  0  0  0
 18 19  1  0  0  0  0
 19 20  1  0  0  0  0
 20 21  2  0  0  0  0
 21 22  1  0  0  0  0
 22 23  2  0  0  0  0
 23 24  1  0  0  0  0
 24 19  2  0  0  0  0
 18 25  2  0  0  0  0
 25 26  1  0  0  0  0
 26 27  2  0  0  0  0
 27 28  1  0  0  0  0
 28 17  2  0  0  0  0
 16 29  2  0  0  0  0
 29 13  1  0  0  0  0
 12 30  2  0  0  0  0
 30 31  1  0  0  0  0
 31 32  2  0  0  0  0
 32 33  1  0  0  0  0
 33 11  2  0  0  0  0
 31 34  1  0  0  0  0
  5 35  1  0  0  0  0
  6 36  1  0  0  0  0
  7 37  1  0  0  0  0
  8 38  1  0  0  0  0
  9 39  1  0  0  0  0
 10 40  1  0  0  0  0
 10 41  1  0  0  0  0
 10 42  1  0  0  0  0
 20 43  1  0  0  0  0
 21 44  1  0  0  0  0
 22 45  1  0  0  0  0
 23 46  1  0  0  0  0
 24 47  1  0  0  0  0
 25 48  1  0  0  0  0
 26 49  1  0  0  0  0
 27 50  1  0  0  0  0
 28 51  1  0  0  0  0
 29 52  1  0  0  0  0
 30 53  1  0  0  0  0
 32 54  1  0  0  0  0
 33 55  1  0  0  0  0
 34 56  1  0  0  0  0
 34 57  1  0  0  0  0
 34 58  1  0  0  0  0
M  END
>  <result-rank>
78

>  <similarity>
0.868

>  <query-name>


>  <query-smiles>
S1C(C(=O)NC2=Nc3c(N2CCC(=O)N)ccc(N(C(=O)c4ccccc4)C)c3)=CC=C1/C=C/c5ncc(N)cn5

>  <source>
REALspace_2019-12

>  <similarity-descriptor>
0.932;0.992;0.744;0.765;0.993;0.765;0.765;0.0;0.0;0.0;0.0;0.993;1.000;0.995;0.932;0.744;0.0;0.111

>  <similarity-descriptor-smiles>
c1ccccc1;Nc1ccccc1;c1ccccc1;N1C=CN=N1;c1ccccc1;N1C=CN=N1;N1C=CN=N1;;;;;c1ccccc1;O=C;C;c1ccccc1;c1ccccc1;;C

>  <reaction-name>
m_274860a

>  <reagent1-name>
15212420

>  <reagent1-smiles>
[R3*]N(c1ccccc1)C

>  <reagent2-name>
17209716

>  <reagent2-smiles>
[R1*]N=NN([R2*])c1c(ccc(c1)C)C([R3*])=O

>  <reagent3-name>
12655638

>  <reagent3-smiles>
[R1*]C(c1c(c2ccccc2)cccc1)=C[R2*]

$$$$
s_270196____8770750____12307614
          04022017353D 1   1.00000     0.00000     0
            
 53 57  0  0  0  0            999 V2000
   16.0213    4.0152    2.3621 Cl  0  0  0  0  0  0  0  0  0  0  0  0
   15.3139    2.3819    2.3622 C   0  0  0  0  0  0  0  0  0  0  0  0
   13.9313    2.2313    2.3768 C   0  0  0  0  0  0  0  0  0  0  0  0
   13.3923    0.9488    2.3771 C   0  0  0  0  0  0  0  0  0  0  0  0
   14.2159   -0.1721    2.3638 C   0  0  0  0  0  0  0  0  0  0  0  0
   15.5961    0.0003    2.3491 C   0  0  0  0  0  0  0  0  0  0  0  0
   16.1553    1.2740    2.3481 C   0  0  0  0  0  0  0  0  0  0  0  0
   11.9511    0.7884    2.3921 C   0  0  0  0  0  0  0  0  0  0  0  0
   11.3909   -0.4630    2.3928 N   0  0  0  0  0  0  0  0  0  0  0  0
   10.0309   -0.6361    2.4072 C   0  0  0  0  0  0  0  0  0  0  0  0
    9.5403   -1.7535    2.4080 O   0  0  0  0  0  0  0  0  0  0  0  0
    9.1894    0.5097    2.4218 C   0  0  0  0  0  0  0  0  0  0  0  0
    7.7441    0.3909    2.4378 C   0  0  0  0  0  0  0  0  0  0  0  0
    7.0691   -0.7329    2.4406 O   0  0  0  0  0  0  0  0  0  0  0  0
    5.8269   -0.4812    2.4568 N   0  0  0  0  0  0  0  0  0  0  0  0
    5.6615    0.8207    2.4636 C   0  0  0  0  0  0  0  0  0  0  0  0
    6.8961    1.3879    2.4505 N   0  0  0  0  0  0  0  0  0  0  0  0
    4.3934    1.5238    2.4792 C   0  0  0  0  0  0  0  0  0  0  0  0
    4.3889    2.9151    2.4847 C   0  0  0  0  0  0  0  0  0  0  0  0
    3.1774    3.5986    2.4996 C   0  0  0  0  0  0  0  0  0  0  0  0
    1.9850    2.8822    2.5096 C   0  0  0  0  0  0  0  0  0  0  0  0
    0.7615    3.5615    2.5249 N   0  0  0  0  0  0  0  0  0  0  0  0
    0.2750    4.0700    3.7003 C   0  0  0  0  0  0  0  0  0  0  0  0
   -0.5211    4.9677    3.6817 O   0  0  0  0  0  0  0  0  0  0  0  0
    0.7222    3.5232    4.9675 C   0  0  0  0  0  0  0  0  0  0  0  0
    0.2470    2.2878    5.3922 C   0  0  0  0  0  0  0  0  0  0  0  0
    0.6927    1.7872    6.6108 C   0  0  0  0  0  0  0  0  0  0  0  0
    1.5628    2.4811    7.3601 N   0  0  0  0  0  0  0  0  0  0  0  0
    2.0318    3.6743    6.9662 C   0  0  0  0  0  0  0  0  0  0  0  0
    1.6234    4.2284    5.7572 C   0  0  0  0  0  0  0  0  0  0  0  0
   -0.0015    3.7293    1.2797 C   0  0  0  0  0  0  0  0  0  0  0  0
    1.9902    1.4907    2.5042 C   0  0  0  0  0  0  0  0  0  0  0  0
    3.2017    0.8073    2.4891 C   0  0  0  0  0  0  0  0  0  0  0  0
    9.7481    1.7618    2.4207 C   0  0  0  0  0  0  0  0  0  0  0  0
   11.1615    1.9092    2.4057 C   0  0  0  0  0  0  0  0  0  0  0  0
   13.3337    3.0330    2.3869 H   0  0  0  0  0  0  0  0  0  0  0  0
   13.8206   -1.0907    2.3649 H   0  0  0  0  0  0  0  0  0  0  0  0
   16.1938   -0.8014    2.3391 H   0  0  0  0  0  0  0  0  0  0  0  0
   17.1483    1.3916    2.3373 H   0  0  0  0  0  0  0  0  0  0  0  0
   11.9866   -1.2662    2.3826 H   0  0  0  0  0  0  0  0  0  0  0  0
    5.2515    3.4208    2.4781 H   0  0  0  0  0  0  0  0  0  0  0  0
    3.1638    4.5985    2.5030 H   0  0  0  0  0  0  0  0  0  0  0  0
   -0.4013    1.7703    4.8337 H   0  0  0  0  0  0  0  0  0  0  0  0
    0.3610    0.9002    6.9321 H   0  0  0  0  0  0  0  0  0  0  0  0
    2.6795    4.1691    7.5455 H   0  0  0  0  0  0  0  0  0  0  0  0
    1.9718    5.1178    5.4615 H   0  0  0  0  0  0  0  0  0  0  0  0
   -0.8438    4.2336    1.4703 H   0  0  0  0  0  0  0  0  0  0  0  0
    0.5488    4.2378    0.6175 H   0  0  0  0  0  0  0  0  0  0  0  0
   -0.2288    2.8307    0.9043 H   0  0  0  0  0  0  0  0  0  0  0  0
    1.1277    0.9848    2.5111 H   0  0  0  0  0  0  0  0  0  0  0  0
    3.2155   -0.1926    2.4853 H   0  0  0  0  0  0  0  0  0  0  0  0
    9.1611    2.5713    2.4304 H   0  0  0  0  0  0  0  0  0  0  0  0
   11.5753    2.8196    2.4050 H   0  0  0  0  0  0  0  0  0  0  0  0
  1  2  1  0  0  0  0
  2  3  1  0  0  0  0
  3  4  2  0  0  0  0
  4  5  1  0  0  0  0
  5  6  2  0  0  0  0
  6  7  1  0  0  0  0
  7  2  2  0  0  0  0
  4  8  1  0  0  0  0
  8  9  1  0  0  0  0
  9 10  1  0  0  0  0
 10 11  2  0  0  0  0
 10 12  1  0  0  0  0
 12 13  1  0  0  0  0
 13 14  1  0  0  0  0
 14 15  1  0  0  0  0
 15 16  2  0  0  0  0
 16 17  1  0  0  0  0
 13 17  2  0  0  0  0
 16 18  1  0  0  0  0
 18 19  1  0  0  0  0
 19 20  2  0  0  0  0
 20 21  1  0  0  0  0
 21 22  1  0  0  0  0
 22 23  1  0  0  0  0
 23 24  2  0  0  0  0
 23 25  1  0  0  0  0
 25 26  1  0  0  0  0
 26 27  2  0  0  0  0
 27 28  1  0  0  0  0
 28 29  2  0  0  0  0
 29 30  1  0  0  0  0
 30 25  2  0  0  0  0
 22 31  1  0  0  0  0
 21 32  2  0  0  0  0
 32 33  1  0  0  0  0
 33 18  2  0  0  0  0
 12 34  2  0  0  0  0
 34 35  1  0  0  0  0
  8 35  2  0  0  0  0
  3 36  1  0  0  0  0
  5 37  1  0  0  0  0
  6 38  1  0  0  0  0
  7 39  1  0  0  0  0
  9 40  1  0  0  0  0
 19 41  1  0  0  0  0
 20 42  1  0  0  0  0
 26 43  1  0  0  0  0
 27 44  1  0  0  0  0
 29 45  1  0  0  0  0
 30 46  1  0  0  0  0
 31 47  1  0  0  0  0
 31 48  1  0  0  0  0
 31 49  1  0  0  0  0
 32 50  1  0  0  0  0
 33 51  1  0  0  0  0
 34 52  1  0  0  0  0
 35 53  1  0  0  0  0
M  END
>  <result-rank>
79

>  <similarity>
0.868

>  <query-name>


>  <query-smiles>
S1C(C(=O)NC2=Nc3c(N2CCC(=O)N)ccc(N(C(=O)c4ccccc4)C)c3)=CC=C1/C=C/c5ncc(N)cn5

>  <source>
REALspace_2019-12

>  <similarity-descriptor>
0.954;0.859;0.800;0.753;0.939;0.954;0.954;0.753;0.753;0.753;0.0;1.000;1.000;1.000;0.800;0.800;0.0;0.0

>  <similarity-descriptor-smiles>
C1=CC=CC(N1)=O;c1ccncc1;Clc1ccccc1;C1=NC=NO1;c1ccccc1;C1=CC=CC(N1)=O;C1=CC=CC(N1)=O;C1=NC=NO1;C1=NC=NO1;C1=NC=NO1;;N;C=O;C;Clc1ccccc1;Clc1ccccc1;;

>  <reaction-name>
s_270196

>  <reagent1-name>
8770750

>  <reagent1-smiles>
[R1*]=NC(=NO[R2*])c1ccc(N(C(=O)c2ccncc2)C)cc1

>  <reagent2-name>
12307614

>  <reagent2-smiles>
[R1*]C([R2*])C=1C(=O)NC(c2cc(Cl)ccc2)=CC1

$$$$
m_276010b____17281670____13624100____17280862
          04022017353D 1   1.00000     0.00000     0
            
 58 62  0  0  0  0            999 V2000
   -2.0745    7.7069    2.5950 O   0  0  0  0  0  0  0  0  0  0  0  0
   -0.9774    8.1929    2.5996 C   0  0  0  0  0  0  0  0  0  0  0  0
    0.1295    7.3858    2.5842 N   0  0  0  0  0  0  0  0  0  0  0  0
   -0.0268    5.9243    2.5620 C   0  0  0  0  0  0  0  0  0  0  0  0
    1.0934    5.0998    2.5464 C   0  0  0  0  0  0  0  0  0  0  0  0
    0.9129    3.7207    2.5251 C   0  0  0  0  0  0  0  0  0  0  0  0
   -0.3219    3.1969    2.5198 N   0  0  0  0  0  0  0  0  0  0  0  0
   -1.4141    3.9752    2.5352 C   0  0  0  0  0  0  0  0  0  0  0  0
   -1.2988    5.3610    2.5564 C   0  0  0  0  0  0  0  0  0  0  0  0
    2.0497    2.9042    2.5096 N   0  0  0  0  0  0  0  0  0  0  0  0
    3.2911    3.3246    2.5132 N   0  0  0  0  0  0  0  0  0  0  0  0
    4.0969    2.3529    2.4937 N   0  0  0  0  0  0  0  0  0  0  0  0
    3.3663    1.2031    2.4818 C   0  0  0  0  0  0  0  0  0  0  0  0
    3.8960   -0.1470    2.4591 C   0  0  0  0  0  0  0  0  0  0  0  0
    3.0220   -1.2293    2.4492 C   0  0  0  0  0  0  0  0  0  0  0  0
    3.5422   -2.5191    2.4277 C   0  0  0  0  0  0  0  0  0  0  0  0
    4.9188   -2.7240    2.4163 C   0  0  0  0  0  0  0  0  0  0  0  0
    5.7841   -1.6351    2.4264 C   0  0  0  0  0  0  0  0  0  0  0  0
    5.2735   -0.3411    2.4480 C   0  0  0  0  0  0  0  0  0  0  0  0
    5.5133   -4.1227    2.3930 C   0  0  0  0  0  0  0  0  0  0  0  0
    2.5706   -3.6879    2.4173 C   0  0  0  0  0  0  0  0  0  0  0  0
    2.9861   -4.8135    2.3989 O   0  0  0  0  0  0  0  0  0  0  0  0
    1.2203   -3.4564    2.4290 N   0  0  0  0  0  0  0  0  0  0  0  0
    0.3253   -4.5330    2.4194 C   0  0  0  0  0  0  0  0  0  0  0  0
   -1.0445   -4.2900    2.4313 C   0  0  0  0  0  0  0  0  0  0  0  0
   -1.9306   -5.3622    2.4215 C   0  0  0  0  0  0  0  0  0  0  0  0
   -1.4452   -6.6653    2.4001 C   0  0  0  0  0  0  0  0  0  0  0  0
   -0.0737   -6.8964    2.3878 C   0  0  0  0  0  0  0  0  0  0  0  0
    0.8219   -5.8322    2.3976 C   0  0  0  0  0  0  0  0  0  0  0  0
    2.0516    1.5447    2.4890 C   0  0  0  0  0  0  0  0  0  0  0  0
   -0.8232    9.6347    2.6215 C   0  0  0  0  0  0  0  0  0  0  0  0
   -1.9073   10.4252    2.6366 N   0  0  0  0  0  0  0  0  0  0  0  0
   -1.8112   11.7633    2.6563 C   0  0  0  0  0  0  0  0  0  0  0  0
   -0.5499   12.3505    2.6616 C   0  0  0  0  0  0  0  0  0  0  0  0
    0.5350   11.5615    2.6468 N   0  0  0  0  0  0  0  0  0  0  0  0
    0.4380   10.2232    2.6275 C   0  0  0  0  0  0  0  0  0  0  0  0
    1.6424    9.3806    2.6117 N   0  0  0  0  0  0  0  0  0  0  0  0
    1.0438    7.7909    2.5881 H   0  0  0  0  0  0  0  0  0  0  0  0
    2.0133    5.4920    2.5503 H   0  0  0  0  0  0  0  0  0  0  0  0
   -2.3212    3.5544    2.5314 H   0  0  0  0  0  0  0  0  0  0  0  0
   -2.1136    5.9407    2.5674 H   0  0  0  0  0  0  0  0  0  0  0  0
    2.0330   -1.0819    2.4573 H   0  0  0  0  0  0  0  0  0  0  0  0
    6.7731   -1.7823    2.4182 H   0  0  0  0  0  0  0  0  0  0  0  0
    5.8926    0.4442    2.4554 H   0  0  0  0  0  0  0  0  0  0  0  0
    6.5113   -4.0608    2.3877 H   0  0  0  0  0  0  0  0  0  0  0  0
    5.2148   -4.6253    3.2044 H   0  0  0  0  0  0  0  0  0  0  0  0
    5.2047   -4.6024    1.5716 H   0  0  0  0  0  0  0  0  0  0  0  0
    0.8740   -2.5184    2.4443 H   0  0  0  0  0  0  0  0  0  0  0  0
   -1.3895   -3.3515    2.4468 H   0  0  0  0  0  0  0  0  0  0  0  0
   -2.9167   -5.1960    2.4298 H   0  0  0  0  0  0  0  0  0  0  0  0
   -2.0822   -7.4361    2.3936 H   0  0  0  0  0  0  0  0  0  0  0  0
    0.2712   -7.8349    2.3718 H   0  0  0  0  0  0  0  0  0  0  0  0
    1.8079   -5.9985    2.3890 H   0  0  0  0  0  0  0  0  0  0  0  0
    1.2610    0.9324    2.4809 H   0  0  0  0  0  0  0  0  0  0  0  0
   -2.6347   12.3306    2.6671 H   0  0  0  0  0  0  0  0  0  0  0  0
   -0.4535   13.3458    2.6762 H   0  0  0  0  0  0  0  0  0  0  0  0
    1.5556    8.3844    2.5974 H   0  0  0  0  0  0  0  0  0  0  0  0
    2.5486    9.8034    2.6153 H   0  0  0  0  0  0  0  0  0  0  0  0
  1  2  2  0  0  0  0
  2  3  1  0  0  0  0
  3  4  1  0  0  0  0
  4  5  1  0  0  0  0
  5  6  2  0  0  0  0
  6  7  1  0  0  0  0
  7  8  2  0  0  0  0
  8  9  1  0  0  0  0
  9  4  2  0  0  0  0
  6 10  1  0  0  0  0
 10 11  1  0  0  0  0
 11 12  2  0  0  0  0
 12 13  1  0  0  0  0
 13 14  1  0  0  0  0
 14 15  1  0  0  0  0
 15 16  2  0  0  0  0
 16 17  1  0  0  0  0
 17 18  2  0  0  0  0
 18 19  1  0  0  0  0
 19 14  2  0  0  0  0
 17 20  1  0  0  0  0
 16 21  1  0  0  0  0
 21 22  2  0  0  0  0
 21 23  1  0  0  0  0
 23 24  1  0  0  0  0
 24 25  1  0  0  0  0
 25 26  2  0  0  0  0
 26 27  1  0  0  0  0
 27 28  2  0  0  0  0
 28 29  1  0  0  0  0
 29 24  2  0  0  0  0
 13 30  2  0  0  0  0
 30 10  1  0  0  0  0
  2 31  1  0  0  0  0
 31 32  1  0  0  0  0
 32 33  2  0  0  0  0
 33 34  1  0  0  0  0
 34 35  2  0  0  0  0
 35 36  1  0  0  0  0
 36 31  2  0  0  0  0
 36 37  1  0  0  0  0
  3 38  1  0  0  0  0
  5 39  1  0  0  0  0
  8 40  1  0  0  0  0
  9 41  1  0  0  0  0
 15 42  1  0  0  0  0
 18 43  1  0  0  0  0
 19 44  1  0  0  0  0
 20 45  1  0  0  0  0
 20 46  1  0  0  0  0
 20 47  1  0  0  0  0
 23 48  1  0  0  0  0
 25 49  1  0  0  0  0
 26 50  1  0  0  0  0
 27 51  1  0  0  0  0
 28 52  1  0  0  0  0
 29 53  1  0  0  0  0
 30 54  1  0  0  0  0
 33 55  1  0  0  0  0
 34 56  1  0  0  0  0
 37 57  1  0  0  0  0
 37 58  1  0  0  0  0
M  END
>  <result-rank>
80

>  <similarity>
0.868

>  <query-name>


>  <query-smiles>
S1C(C(=O)NC2=Nc3c(N2CCC(=O)N)ccc(N(C(=O)c4ccccc4)C)c3)=CC=C1/C=C/c5ncc(N)cn5

>  <source>
REALspace_2019-12

>  <similarity-descriptor>
0.854;0.998;1.000;0.765;0.995;0.765;0.765;0.0;0.0;0.0;0.0;0.995;0.852;0.995;0.381;0.381;1.000;0.0

>  <similarity-descriptor-smiles>
c1ccncc1;c1ccccc1;c1cnccn1;N1C=CN=N1;c1ccccc1;N1C=CN=N1;N1C=CN=N1;;;;;c1ccccc1;C(=O)N;C;O=CN;O=CN;N;

>  <reaction-name>
m_276010b

>  <reagent1-name>
17281670

>  <reagent1-smiles>
[R1*]N=NN([R2*])c1nccc(N[R3*])c1

>  <reagent2-name>
13624100

>  <reagent2-smiles>
[R3*]C(=O)c1nccnc1N

>  <reagent3-name>
17280862

>  <reagent3-smiles>
[R1*]C(c1cc(c(cc1)C)C(=O)Nc2ccccc2)=C[R2*]

$$$$
s_274090____15432746____16948036
          04022017353D 1   1.00000     0.00000     0
            
 54 58  0  0  0  0            999 V2000
    0.5937    4.7943    2.5272 O   0  0  0  0  0  0  0  0  0  0  0  0
    0.6362    3.5950    2.5223 C   0  0  0  0  0  0  0  0  0  0  0  0
   -0.5252    2.8684    2.5297 N   0  0  0  0  0  0  0  0  0  0  0  0
   -1.7618    3.5250    2.5431 C   0  0  0  0  0  0  0  0  0  0  0  0
   -2.9369    2.7803    2.5506 C   0  0  0  0  0  0  0  0  0  0  0  0
   -4.1635    3.4361    2.5642 C   0  0  0  0  0  0  0  0  0  0  0  0
   -4.2087    4.8261    2.5699 C   0  0  0  0  0  0  0  0  0  0  0  0
   -3.0275    5.5605    2.5628 C   0  0  0  0  0  0  0  0  0  0  0  0
   -1.7952    4.9155    2.5492 C   0  0  0  0  0  0  0  0  0  0  0  0
    1.9786    2.8822    2.5077 C   0  0  0  0  0  0  0  0  0  0  0  0
    3.1745    3.5942    2.4999 C   0  0  0  0  0  0  0  0  0  0  0  0
    4.3882    2.9150    2.4865 C   0  0  0  0  0  0  0  0  0  0  0  0
    4.4067    1.5240    2.4809 C   0  0  0  0  0  0  0  0  0  0  0  0
    3.2059    0.8216    2.4889 C   0  0  0  0  0  0  0  0  0  0  0  0
    1.9867    1.4913    2.5023 C   0  0  0  0  0  0  0  0  0  0  0  0
    3.2280   -0.6279    2.4827 C   0  0  0  0  0  0  0  0  0  0  0  0
    4.3419   -1.4103    2.4698 N   0  0  0  0  0  0  0  0  0  0  0  0
    3.9578   -2.6135    2.4673 N   0  0  0  0  0  0  0  0  0  0  0  0
    2.6504   -2.6999    2.4761 N   0  0  0  0  0  0  0  0  0  0  0  0
    2.1375   -1.4425    2.4850 C   0  0  0  0  0  0  0  0  0  0  0  0
    1.8725   -3.9472    2.4744 C   0  0  0  0  0  0  0  0  0  0  0  0
    1.6142   -4.3862    3.9094 C   0  0  0  0  0  0  0  0  0  0  0  0
    0.4819   -3.9640    4.5990 C   0  0  0  0  0  0  0  0  0  0  0  0
    0.2756   -4.3670    5.8622 N   0  0  0  0  0  0  0  0  0  0  0  0
    1.1380   -5.1775    6.4953 C   0  0  0  0  0  0  0  0  0  0  0  0
    2.2357   -5.5959    5.8474 N   0  0  0  0  0  0  0  0  0  0  0  0
    2.4958   -5.2259    4.5842 C   0  0  0  0  0  0  0  0  0  0  0  0
    0.8945   -5.6007    7.8599 C   0  0  0  0  0  0  0  0  0  0  0  0
    1.7944   -6.4410    8.5077 C   0  0  0  0  0  0  0  0  0  0  0  0
    1.5474   -6.8198    9.7705 N   0  0  0  0  0  0  0  0  0  0  0  0
    0.4512   -6.4060   10.4230 C   0  0  0  0  0  0  0  0  0  0  0  0
   -0.4267   -5.5961    9.8128 N   0  0  0  0  0  0  0  0  0  0  0  0
   -0.2370   -5.1818    8.5512 C   0  0  0  0  0  0  0  0  0  0  0  0
    3.1938    5.1141    2.5055 C   0  0  0  0  0  0  0  0  0  0  0  0
   -0.4897    1.8690    2.5256 H   0  0  0  0  0  0  0  0  0  0  0  0
   -2.9000    1.7810    2.5464 H   0  0  0  0  0  0  0  0  0  0  0  0
   -5.0127    2.9082    2.5698 H   0  0  0  0  0  0  0  0  0  0  0  0
   -5.0905    5.2976    2.5790 H   0  0  0  0  0  0  0  0  0  0  0  0
   -3.0645    6.5598    2.5676 H   0  0  0  0  0  0  0  0  0  0  0  0
   -0.9460    5.4437    2.5438 H   0  0  0  0  0  0  0  0  0  0  0  0
    5.2474    3.4265    2.4809 H   0  0  0  0  0  0  0  0  0  0  0  0
    5.2774    1.0322    2.4711 H   0  0  0  0  0  0  0  0  0  0  0  0
    1.1276    0.9796    2.5080 H   0  0  0  0  0  0  0  0  0  0  0  0
    1.1740   -1.1748    2.4918 H   0  0  0  0  0  0  0  0  0  0  0  0
    2.3856   -4.6593    1.9951 H   0  0  0  0  0  0  0  0  0  0  0  0
    1.0000   -3.7952    2.0100 H   0  0  0  0  0  0  0  0  0  0  0  0
   -0.1785   -3.3598    4.1530 H   0  0  0  0  0  0  0  0  0  0  0  0
    3.3229   -5.5535    4.1274 H   0  0  0  0  0  0  0  0  0  0  0  0
    2.6171   -6.7594    8.0367 H   0  0  0  0  0  0  0  0  0  0  0  0
    0.2884   -6.7013   11.3644 H   0  0  0  0  0  0  0  0  0  0  0  0
   -0.9024   -4.5779    8.1123 H   0  0  0  0  0  0  0  0  0  0  0  0
    4.1407    5.4355    2.4984 H   0  0  0  0  0  0  0  0  0  0  0  0
    2.7195    5.4565    1.6944 H   0  0  0  0  0  0  0  0  0  0  0  0
    2.7338    5.4503    3.3273 H   0  0  0  0  0  0  0  0  0  0  0  0
  1  2  2  0  0  0  0
  2  3  1  0  0  0  0
  3  4  1  0  0  0  0
  4  5  1  0  0  0  0
  5  6  2  0  0  0  0
  6  7  1  0  0  0  0
  7  8  2  0  0  0  0
  8  9  1  0  0  0  0
  9  4  2  0  0  0  0
  2 10  1  0  0  0  0
 10 11  1  0  0  0  0
 11 12  2  0  0  0  0
 12 13  1  0  0  0  0
 13 14  2  0  0  0  0
 14 15  1  0  0  0  0
 15 10  2  0  0  0  0
 14 16  1  0  0  0  0
 16 17  1  0  0  0  0
 17 18  2  0  0  0  0
 18 19  1  0  0  0  0
 19 20  1  0  0  0  0
 16 20  2  0  0  0  0
 19 21  1  0  0  0  0
 21 22  1  0  0  0  0
 22 23  1  0  0  0  0
 23 24  2  0  0  0  0
 24 25  1  0  0  0  0
 25 26  2  0  0  0  0
 26 27  1  0  0  0  0
 27 22  2  0  0  0  0
 25 28  1  0  0  0  0
 28 29  1  0  0  0  0
 29 30  2  0  0  0  0
 30 31  1  0  0  0  0
 31 32  2  0  0  0  0
 32 33  1  0  0  0  0
 33 28  2  0  0  0  0
 11 34  1  0  0  0  0
  3 35  1  0  0  0  0
  5 36  1  0  0  0  0
  6 37  1  0  0  0  0
  7 38  1  0  0  0  0
  8 39  1  0  0  0  0
  9 40  1  0  0  0  0
 12 41  1  0  0  0  0
 13 42  1  0  0  0  0
 15 43  1  0  0  0  0
 20 44  1  0  0  0  0
 21 45  1  0  0  0  0
 21 46  1  0  0  0  0
 23 47  1  0  0  0  0
 27 48  1  0  0  0  0
 29 49  1  0  0  0  0
 31 50  1  0  0  0  0
 33 51  1  0  0  0  0
 34 52  1  0  0  0  0
 34 53  1  0  0  0  0
 34 54  1  0  0  0  0
M  END
>  <result-rank>
81

>  <similarity>
0.868

>  <query-name>


>  <query-smiles>
S1C(C(=O)NC2=Nc3c(N2CCC(=O)N)ccc(N(C(=O)c4ccccc4)C)c3)=CC=C1/C=C/c5ncc(N)cn5

>  <source>
REALspace_2019-12

>  <similarity-descriptor>
0.874;0.998;0.889;0.773;0.995;0.874;0.155;0.773;0.0;0.0;0.0;0.995;0.852;0.995;0.889;0.889;0.0;0.0

>  <similarity-descriptor-smiles>
c1cncnc1;c1ccccc1;c1cncnc1;C1=CNN=N1;c1ccccc1;c1cncnc1;C;C1=CNN=N1;;;;c1ccccc1;O=CN;C;c1cncnc1;c1cncnc1;;

>  <reaction-name>
s_274090

>  <reagent1-name>
15432746

>  <reagent1-smiles>
[R1*]N=NN([R2*])Cc1cnc(nc1)c2cncnc2

>  <reagent2-name>
16948036

>  <reagent2-smiles>
[R1*]C(c1cc(c(cc1)C)C(=O)Nc2ccccc2)=C[R2*]

$$$$
s_270196____13456122____8776128
          04022017353D 1   1.00000     0.00000     0
            
 52 56  0  0  0  0            999 V2000
    5.6164   -5.7377   -3.2753 Cl  0  0  0  0  0  0  0  0  0  0  0  0
    5.3988   -5.1596   -1.6053 C   0  0  0  0  0  0  0  0  0  0  0  0
    6.1642   -4.1326   -1.0569 C   0  0  0  0  0  0  0  0  0  0  0  0
    5.9678   -3.7038    0.2548 C   0  0  0  0  0  0  0  0  0  0  0  0
    6.7238   -2.7112    0.7539 N   0  0  0  0  0  0  0  0  0  0  0  0
    7.6770   -2.0944    0.0393 C   0  0  0  0  0  0  0  0  0  0  0  0
    7.9185   -2.4774   -1.2765 C   0  0  0  0  0  0  0  0  0  0  0  0
    7.1490   -3.5053   -1.8119 C   0  0  0  0  0  0  0  0  0  0  0  0
    4.9822   -4.3265    1.0176 C   0  0  0  0  0  0  0  0  0  0  0  0
    4.2071   -5.3543    0.4905 C   0  0  0  0  0  0  0  0  0  0  0  0
    4.4219   -5.7644   -0.8214 C   0  0  0  0  0  0  0  0  0  0  0  0
    4.7088   -3.9138    2.4553 C   0  0  0  0  0  0  0  0  0  0  0  0
    3.8512   -2.6602    2.4678 C   0  0  0  0  0  0  0  0  0  0  0  0
    2.5427   -2.6213    2.4796 N   0  0  0  0  0  0  0  0  0  0  0  0
    2.1734   -1.4101    2.4899 O   0  0  0  0  0  0  0  0  0  0  0  0
    3.2281   -0.6290    2.4827 C   0  0  0  0  0  0  0  0  0  0  0  0
    4.3052   -1.3761    2.4691 N   0  0  0  0  0  0  0  0  0  0  0  0
    3.2062    0.8215    2.4897 C   0  0  0  0  0  0  0  0  0  0  0  0
    1.9856    1.4890    2.5053 C   0  0  0  0  0  0  0  0  0  0  0  0
    1.9769    2.8800    2.5117 C   0  0  0  0  0  0  0  0  0  0  0  0
    0.7417    3.5392    2.5275 N   0  0  0  0  0  0  0  0  0  0  0  0
   -0.1526    3.3428    1.5084 C   0  0  0  0  0  0  0  0  0  0  0  0
    0.1226    2.6058    0.6023 O   0  0  0  0  0  0  0  0  0  0  0  0
   -1.4320    4.0256    1.5248 C   0  0  0  0  0  0  0  0  0  0  0  0
   -1.9349    4.5327    2.7194 C   0  0  0  0  0  0  0  0  0  0  0  0
   -1.2427    4.3908    3.8463 F   0  0  0  0  0  0  0  0  0  0  0  0
   -3.1621    5.1870    2.7348 C   0  0  0  0  0  0  0  0  0  0  0  0
   -3.8860    5.3354    1.5567 C   0  0  0  0  0  0  0  0  0  0  0  0
   -3.3831    4.8285    0.3625 C   0  0  0  0  0  0  0  0  0  0  0  0
   -2.1556    4.1743    0.3469 C   0  0  0  0  0  0  0  0  0  0  0  0
    3.1722    3.5930    2.5023 C   0  0  0  0  0  0  0  0  0  0  0  0
    4.3872    2.9146    2.4871 C   0  0  0  0  0  0  0  0  0  0  0  0
    4.4074    1.5237    2.4807 C   0  0  0  0  0  0  0  0  0  0  0  0
    3.1505    5.1125    2.5107 C   0  0  0  0  0  0  0  0  0  0  0  0
    8.2142   -1.3591    0.4524 H   0  0  0  0  0  0  0  0  0  0  0  0
    8.6252   -2.0265   -1.8218 H   0  0  0  0  0  0  0  0  0  0  0  0
    7.3067   -3.7978   -2.7550 H   0  0  0  0  0  0  0  0  0  0  0  0
    3.5031   -5.7937    1.0485 H   0  0  0  0  0  0  0  0  0  0  0  0
    3.8674   -6.5027   -1.2054 H   0  0  0  0  0  0  0  0  0  0  0  0
    5.5751   -3.7298    2.9197 H   0  0  0  0  0  0  0  0  0  0  0  0
    4.2273   -4.6518    2.9281 H   0  0  0  0  0  0  0  0  0  0  0  0
    1.1270    0.9763    2.5117 H   0  0  0  0  0  0  0  0  0  0  0  0
    0.5124    4.1533    3.2826 H   0  0  0  0  0  0  0  0  0  0  0  0
   -3.5240    5.5507    3.5931 H   0  0  0  0  0  0  0  0  0  0  0  0
   -4.7680    5.8064    1.5678 H   0  0  0  0  0  0  0  0  0  0  0  0
   -3.9040    4.9345   -0.4845 H   0  0  0  0  0  0  0  0  0  0  0  0
   -1.7936    3.8109   -0.5116 H   0  0  0  0  0  0  0  0  0  0  0  0
    5.2458    3.4271    2.4808 H   0  0  0  0  0  0  0  0  0  0  0  0
    5.2783    1.0324    2.4696 H   0  0  0  0  0  0  0  0  0  0  0  0
    4.0884    5.4593    2.5022 H   0  0  0  0  0  0  0  0  0  0  0  0
    2.6653    5.4434    1.7013 H   0  0  0  0  0  0  0  0  0  0  0  0
    2.6834    5.4346    3.3342 H   0  0  0  0  0  0  0  0  0  0  0  0
  1  2  1  0  0  0  0
  2  3  1  0  0  0  0
  3  4  2  0  0  0  0
  4  5  1  0  0  0  0
  5  6  2  0  0  0  0
  6  7  1  0  0  0  0
  7  8  2  0  0  0  0
  8  3  1  0  0  0  0
  4  9  1  0  0  0  0
  9 10  2  0  0  0  0
 10 11  1  0  0  0  0
 11  2  2  0  0  0  0
  9 12  1  0  0  0  0
 12 13  1  0  0  0  0
 13 14  2  0  0  0  0
 14 15  1  0  0  0  0
 15 16  1  0  0  0  0
 16 17  2  0  0  0  0
 17 13  1  0  0  0  0
 16 18  1  0  0  0  0
 18 19  1  0  0  0  0
 19 20  2  0  0  0  0
 20 21  1  0  0  0  0
 21 22  1  0  0  0  0
 22 23  2  0  0  0  0
 22 24  1  0  0  0  0
 24 25  1  0  0  0  0
 25 26  1  0  0  0  0
 25 27  2  0  0  0  0
 27 28  1  0  0  0  0
 28 29  2  0  0  0  0
 29 30  1  0  0  0  0
 30 24  2  0  0  0  0
 20 31  1  0  0  0  0
 31 32  2  0  0  0  0
 32 33  1  0  0  0  0
 33 18  2  0  0  0  0
 31 34  1  0  0  0  0
  6 35  1  0  0  0  0
  7 36  1  0  0  0  0
  8 37  1  0  0  0  0
 10 38  1  0  0  0  0
 11 39  1  0  0  0  0
 12 40  1  0  0  0  0
 12 41  1  0  0  0  0
 19 42  1  0  0  0  0
 21 43  1  0  0  0  0
 27 44  1  0  0  0  0
 28 45  1  0  0  0  0
 29 46  1  0  0  0  0
 30 47  1  0  0  0  0
 32 48  1  0  0  0  0
 33 49  1  0  0  0  0
 34 50  1  0  0  0  0
 34 51  1  0  0  0  0
 34 52  1  0  0  0  0
M  END
>  <result-rank>
82

>  <similarity>
0.867

>  <query-name>


>  <query-smiles>
S1C(C(=O)NC2=Nc3c(N2CCC(=O)N)ccc(N(C(=O)c4ccccc4)C)c3)=CC=C1/C=C/c5ncc(N)cn5

>  <source>
REALspace_2019-12

>  <similarity-descriptor>
0.873;0.967;0.814;0.800;0.993;0.800;0.800;0.0;0.0;0.0;0.0;0.993;0.852;0.995;0.814;0.814;0.0;0.0

>  <similarity-descriptor-smiles>
Clc1ccc(cc1)C;c1ccccc1F;c1cccnc1;C=1N=CON1;c1ccccc1;C=1N=CON1;C=1N=CON1;;;;;c1ccccc1;NC=O;C;c1cccnc1;c1cccnc1;;

>  <reaction-name>
s_270196

>  <reagent1-name>
13456122

>  <reagent1-smiles>
[R1*]=NC(=NO[R2*])Cc1c2ncccc2c(Cl)cc1

>  <reagent2-name>
8776128

>  <reagent2-smiles>
[R1*]C([R2*])c1cc(NC(=O)c2c(F)cccc2)c(cc1)C

$$$$
s_708____5904736____8252306
          04022017353D 1   1.00000     0.00000     0
            
 49 53  0  0  0  0            999 V2000
   -7.1646    3.1479    2.5540 Cl  0  0  0  0  0  0  0  0  0  0  0  0
   -6.0049    1.7971    2.5502 C   0  0  0  0  0  0  0  0  0  0  0  0
   -5.5497    1.2745    3.7564 C   0  0  0  0  0  0  0  0  0  0  0  0
   -4.6434    0.2196    3.7446 C   0  0  0  0  0  0  0  0  0  0  0  0
   -4.2041   -0.3001    2.5314 C   0  0  0  0  0  0  0  0  0  0  0  0
   -3.0707   -1.6205    2.5267 S   0  0  0  0  0  0  0  0  0  0  0  0
   -1.5895   -0.7078    2.5187 C   0  0  0  0  0  0  0  0  0  0  0  0
   -0.3696   -1.3762    2.5130 C   0  0  0  0  0  0  0  0  0  0  0  0
    0.8085   -0.6363    2.5067 C   0  0  0  0  0  0  0  0  0  0  0  0
    0.7573    0.7541    2.5065 C   0  0  0  0  0  0  0  0  0  0  0  0
   -0.4653    1.4179    2.5118 C   0  0  0  0  0  0  0  0  0  0  0  0
   -1.6460    0.6822    2.5182 C   0  0  0  0  0  0  0  0  0  0  0  0
    1.9928    1.5131    2.5007 C   0  0  0  0  0  0  0  0  0  0  0  0
    1.9860    2.8354    2.5006 N   0  0  0  0  0  0  0  0  0  0  0  0
    3.1479    3.5642    2.4955 C   0  0  0  0  0  0  0  0  0  0  0  0
    4.3714    2.9007    2.4900 C   0  0  0  0  0  0  0  0  0  0  0  0
    5.5511    3.6390    2.4849 C   0  0  0  0  0  0  0  0  0  0  0  0
    5.5301    5.0284    2.4838 C   0  0  0  0  0  0  0  0  0  0  0  0
    6.7060    5.6912    2.4778 O   0  0  0  0  0  0  0  0  0  0  0  0
    7.2995    6.0237    3.6441 C   0  0  0  0  0  0  0  0  0  0  0  0
    7.0057    7.2470    4.2370 C   0  0  0  0  0  0  0  0  0  0  0  0
    7.6130    7.5966    5.4382 C   0  0  0  0  0  0  0  0  0  0  0  0
    8.5087    6.7142    6.0327 C   0  0  0  0  0  0  0  0  0  0  0  0
    9.2893    7.1541    7.5704 Cl  0  0  0  0  0  0  0  0  0  0  0  0
    8.8063    5.4892    5.4452 C   0  0  0  0  0  0  0  0  0  0  0  0
    8.1956    5.1460    4.2438 C   0  0  0  0  0  0  0  0  0  0  0  0
    4.3085    5.6938    2.4888 C   0  0  0  0  0  0  0  0  0  0  0  0
    3.1292    4.9557    2.4948 C   0  0  0  0  0  0  0  0  0  0  0  0
    4.3730    1.4784    2.4906 C   0  0  0  0  0  0  0  0  0  0  0  0
    5.4013    0.8177    2.4878 O   0  0  0  0  0  0  0  0  0  0  0  0
    3.1736    0.8184    2.4956 N   0  0  0  0  0  0  0  0  0  0  0  0
   -4.6577    0.2209    1.3243 C   0  0  0  0  0  0  0  0  0  0  0  0
   -5.5641    1.2760    1.3385 C   0  0  0  0  0  0  0  0  0  0  0  0
   -5.8712    1.6538    4.6240 H   0  0  0  0  0  0  0  0  0  0  0  0
   -4.3086   -0.1640    4.6054 H   0  0  0  0  0  0  0  0  0  0  0  0
   -0.3399   -2.3758    2.5135 H   0  0  0  0  0  0  0  0  0  0  0  0
    1.6924   -1.1039    2.5023 H   0  0  0  0  0  0  0  0  0  0  0  0
   -0.4952    2.4174    2.5110 H   0  0  0  0  0  0  0  0  0  0  0  0
   -2.5299    1.1497    2.5223 H   0  0  0  0  0  0  0  0  0  0  0  0
    6.4295    3.1611    2.4819 H   0  0  0  0  0  0  0  0  0  0  0  0
    6.3596    7.8734    3.8007 H   0  0  0  0  0  0  0  0  0  0  0  0
    7.4075    8.4746    5.8706 H   0  0  0  0  0  0  0  0  0  0  0  0
    9.4519    4.8625    5.8815 H   0  0  0  0  0  0  0  0  0  0  0  0
    8.4011    4.2680    3.8113 H   0  0  0  0  0  0  0  0  0  0  0  0
    4.2783    6.6933    2.4880 H   0  0  0  0  0  0  0  0  0  0  0  0
    2.2512    5.4344    2.4988 H   0  0  0  0  0  0  0  0  0  0  0  0
    3.1592   -0.1815    2.4955 H   0  0  0  0  0  0  0  0  0  0  0  0
   -4.3361   -0.1584    0.4567 H   0  0  0  0  0  0  0  0  0  0  0  0
   -5.8986    1.6596    0.4778 H   0  0  0  0  0  0  0  0  0  0  0  0
  1  2  1  0  0  0  0
  2  3  1  0  0  0  0
  3  4  2  0  0  0  0
  4  5  1  0  0  0  0
  5  6  1  0  0  0  0
  6  7  1  0  0  0  0
  7  8  1  0  0  0  0
  8  9  2  0  0  0  0
  9 10  1  0  0  0  0
 10 11  2  0  0  0  0
 11 12  1  0  0  0  0
 12  7  2  0  0  0  0
 10 13  1  0  0  0  0
 13 14  2  0  0  0  0
 14 15  1  0  0  0  0
 15 16  1  0  0  0  0
 16 17  2  0  0  0  0
 17 18  1  0  0  0  0
 18 19  1  0  0  0  0
 19 20  1  0  0  0  0
 20 21  1  0  0  0  0
 21 22  2  0  0  0  0
 22 23  1  0  0  0  0
 23 24  1  0  0  0  0
 23 25  2  0  0  0  0
 25 26  1  0  0  0  0
 26 20  2  0  0  0  0
 18 27  2  0  0  0  0
 27 28  1  0  0  0  0
 28 15  2  0  0  0  0
 16 29  1  0  0  0  0
 29 30  2  0  0  0  0
 29 31  1  0  0  0  0
 31 13  1  0  0  0  0
  5 32  2  0  0  0  0
 32 33  1  0  0  0  0
 33  2  2  0  0  0  0
  3 34  1  0  0  0  0
  4 35  1  0  0  0  0
  8 36  1  0  0  0  0
  9 37  1  0  0  0  0
 11 38  1  0  0  0  0
 12 39  1  0  0  0  0
 17 40  1  0  0  0  0
 21 41  1  0  0  0  0
 22 42  1  0  0  0  0
 25 43  1  0  0  0  0
 26 44  1  0  0  0  0
 27 45  1  0  0  0  0
 28 46  1  0  0  0  0
 31 47  1  0  0  0  0
 32 48  1  0  0  0  0
 33 49  1  0  0  0  0
M  END
>  <result-rank>
83

>  <similarity>
0.867

>  <query-name>


>  <query-smiles>
S1C(C(=O)NC2=Nc3c(N2CCC(=O)N)ccc(N(C(=O)c4ccccc4)C)c3)=CC=C1/C=C/c5ncc(N)cn5

>  <source>
REALspace_2019-12

>  <similarity-descriptor>
0.917;0.952;0.798;0.987;0.949;0.987;0.987;0.0;0.0;0.0;0.0;0.949;0.425;0.0;0.798;0.798;0.0;0.0

>  <similarity-descriptor-smiles>
c1ccc(cc1)O;Clc1ccccc1;c1ccc(cc1)Cl;C=1NC(ccN1)=O;c1ccccc1;C=1NC(ccN1)=O;C=1NC(ccN1)=O;;;;;c1ccccc1;S;;c1ccc(cc1)Cl;c1ccc(cc1)Cl;;

>  <reaction-name>
s_708

>  <reagent1-name>
5904736

>  <reagent1-smiles>
[R1*]=Nc1c(cc(Oc2ccc(Cl)cc2)cc1)C([R2*])=O

>  <reagent2-name>
8252306

>  <reagent2-smiles>
[R1*]=C(N[R2*])c1ccc(Sc2ccc(Cl)cc2)cc1

$$$$
s_51____503310____77354
          04022017353D 1   1.00000     0.00000     0
            
 57 60  0  0  0  0            999 V2000
   -2.6421   -2.7431   -4.6867 F   0  0  0  0  0  0  0  0  0  0  0  0
   -1.3996   -2.3781   -4.3861 C   0  0  0  0  0  0  0  0  0  0  0  0
   -1.1805   -1.2581   -3.5907 C   0  0  0  0  0  0  0  0  0  0  0  0
   -2.2160   -0.5587   -3.1363 F   0  0  0  0  0  0  0  0  0  0  0  0
    0.1215   -0.8810   -3.2787 C   0  0  0  0  0  0  0  0  0  0  0  0
    0.3268    0.2486   -2.4775 N   0  0  0  0  0  0  0  0  0  0  0  0
    0.9835    0.1296   -1.2810 C   0  0  0  0  0  0  0  0  0  0  0  0
    1.3826   -0.9428   -0.9197 O   0  0  0  0  0  0  0  0  0  0  0  0
    1.2064    1.3561   -0.4112 C   0  0  0  0  0  0  0  0  0  0  0  0
    1.0000    1.0000    1.0000 N   0  3  3  0  0  0  0  0  0  0  0  0
    1.8474    1.8474    1.8474 C   0  0  3  0  0  0  0  0  0  0  0  0
    3.3165    1.6627    1.5098 C   0  0  0  0  0  0  0  0  0  0  0  0
    3.8758    0.5932    1.3839 O   0  0  0  0  0  0  0  0  0  0  0  0
    3.9092    2.9161    1.3620 N   0  0  0  0  0  0  0  0  0  0  0  0
    5.2712    3.1378    1.1265 C   0  0  0  0  0  0  0  0  0  0  0  0
    6.1309    3.2921    2.2094 C   0  0  0  0  0  0  0  0  0  0  0  0
    7.4845    3.5121    1.9753 C   0  0  0  0  0  0  0  0  0  0  0  0
    7.9632    3.5753    0.6709 C   0  0  0  0  0  0  0  0  0  0  0  0
    9.3252    3.7966    0.4356 N   0  0  0  0  0  0  0  0  0  0  0  0
    9.7490    3.8525   -0.7177 N   0  0  0  0  0  0  0  0  0  0  0  0
   11.1114    4.0739   -0.9530 C   0  0  0  0  0  0  0  0  0  0  0  0
   11.5832    4.1359   -2.2603 C   0  0  0  0  0  0  0  0  0  0  0  0
   12.9373    4.3562   -2.4902 C   0  0  0  0  0  0  0  0  0  0  0  0
   13.8083    4.5124   -1.4172 C   0  0  0  0  0  0  0  0  0  0  0  0
   13.3253    4.4491   -0.1144 C   0  0  0  0  0  0  0  0  0  0  0  0
   11.9734    4.2292    0.1275 C   0  0  0  0  0  0  0  0  0  0  0  0
    7.1037    3.4209   -0.4123 C   0  0  0  0  0  0  0  0  0  0  0  0
    5.7501    3.2012   -0.1780 C   0  0  0  0  0  0  0  0  0  0  0  0
    2.9564    3.9198    1.4899 C   0  0  0  0  0  0  0  0  0  0  0  0
    3.1890    5.1108    1.4850 O   0  0  0  0  0  0  0  0  0  0  0  0
    1.5771    3.3206    1.6361 C   0  0  0  0  0  0  0  0  0  0  0  0
   -0.4112    1.2064    1.3561 C   0  0  0  0  0  0  0  0  0  0  0  0
    1.2043   -1.6134   -3.7548 C   0  0  0  0  0  0  0  0  0  0  0  0
    0.9903   -2.7340   -4.5505 C   0  0  0  0  0  0  0  0  0  0  0  0
   -0.3135   -3.1070   -4.8599 C   0  0  0  0  0  0  0  0  0  0  0  0
   -0.5363   -4.1760   -5.6190 F   0  0  0  0  0  0  0  0  0  0  0  0
    1.2422    0.0400    1.1404 H   0  0  0  0  0  0  0  0  0  0  0  0
   -0.0058    1.1423   -2.7786 H   0  0  0  0  0  0  0  0  0  0  0  0
    2.1408    1.6891   -0.5377 H   0  0  0  0  0  0  0  0  0  0  0  0
    0.5591    2.0721   -0.6724 H   0  0  0  0  0  0  0  0  0  0  0  0
    1.6951    1.6156    2.8082 H   0  0  0  0  0  0  0  0  0  0  0  0
    5.7801    3.2455    3.1447 H   0  0  0  0  0  0  0  0  0  0  0  0
    8.1132    3.6248    2.7447 H   0  0  0  0  0  0  0  0  0  0  0  0
   10.9537    4.0230   -3.0290 H   0  0  0  0  0  0  0  0  0  0  0  0
   13.2845    4.4023   -3.4268 H   0  0  0  0  0  0  0  0  0  0  0  0
   14.7818    4.6703   -1.5824 H   0  0  0  0  0  0  0  0  0  0  0  0
   13.9549    4.5626    0.6542 H   0  0  0  0  0  0  0  0  0  0  0  0
   11.6263    4.1834    1.0643 H   0  0  0  0  0  0  0  0  0  0  0  0
    7.4546    3.4673   -1.3475 H   0  0  0  0  0  0  0  0  0  0  0  0
    5.1213    3.0888   -0.9474 H   0  0  0  0  0  0  0  0  0  0  0  0
    1.0344    3.4687    0.8093 H   0  0  0  0  0  0  0  0  0  0  0  0
    1.0997    3.7122    2.4227 H   0  0  0  0  0  0  0  0  0  0  0  0
   -0.9886    0.6291    0.7787 H   0  0  0  0  0  0  0  0  0  0  0  0
   -0.5516    0.9642    2.3161 H   0  0  0  0  0  0  0  0  0  0  0  0
   -0.6534    2.1664    1.2156 H   0  0  0  0  0  0  0  0  0  0  0  0
    2.1366   -1.3341   -3.5249 H   0  0  0  0  0  0  0  0  0  0  0  0
    1.7642   -3.2649   -4.8959 H   0  0  0  0  0  0  0  0  0  0  0  0
  1  2  1  0  0  0  0
  2  3  1  0  0  0  0
  3  4  1  0  0  0  0
  3  5  2  0  0  0  0
  5  6  1  0  0  0  0
  6  7  1  0  0  0  0
  7  8  2  0  0  0  0
  7  9  1  0  0  0  0
  9 10  1  0  0  0  0
 10 11  1  0  0  0  0
 11 12  1  0  0  0  0
 12 13  2  0  0  0  0
 12 14  1  0  0  0  0
 14 15  1  0  0  0  0
 15 16  1  0  0  0  0
 16 17  2  0  0  0  0
 17 18  1  0  0  0  0
 18 19  1  0  0  0  0
 19 20  2  0  0  0  0
 20 21  1  0  0  0  0
 21 22  1  0  0  0  0
 22 23  2  0  0  0  0
 23 24  1  0  0  0  0
 24 25  2  0  0  0  0
 25 26  1  0  0  0  0
 26 21  2  0  0  0  0
 18 27  2  0  0  0  0
 27 28  1  0  0  0  0
 28 15  2  0  0  0  0
 14 29  1  0  0  0  0
 29 30  2  0  0  0  0
 29 31  1  0  0  0  0
 31 11  1  0  0  0  0
 10 32  1  0  0  0  0
  5 33  1  0  0  0  0
 33 34  2  0  0  0  0
 34 35  1  0  0  0  0
 35  2  2  0  0  0  0
 35 36  1  0  0  0  0
 10 37  1  0  0  0  0
  6 38  1  0  0  0  0
  9 39  1  0  0  0  0
  9 40  1  0  0  0  0
 11 41  1  0  0  0  0
 16 42  1  0  0  0  0
 17 43  1  0  0  0  0
 22 44  1  0  0  0  0
 23 45  1  0  0  0  0
 24 46  1  0  0  0  0
 25 47  1  0  0  0  0
 26 48  1  0  0  0  0
 27 49  1  0  0  0  0
 28 50  1  0  0  0  0
 31 51  1  0  0  0  0
 31 52  1  0  0  0  0
 32 53  1  0  0  0  0
 32 54  1  0  0  0  0
 32 55  1  0  0  0  0
 33 56  1  0  0  0  0
 34 57  1  0  0  0  0
M  CHG  1  10   1
M  END
>  <result-rank>
84

>  <similarity>
0.867

>  <query-name>


>  <query-smiles>
S1C(C(=O)NC2=Nc3c(N2CCC(=O)N)ccc(N(C(=O)c4ccccc4)C)c3)=CC=C1/C=C/c5ncc(N)cn5

>  <source>
REALspace_2019-12

>  <similarity-descriptor>
0.964;0.998;0.0;0.809;0.946;0.851;0.735;0.809;0.809;0.809;0.0;0.946;0.835;0.0;0.964;0.964;0.0;0.091

>  <similarity-descriptor-smiles>
Fc1c(cccc1F)F;c1ccccc1;;C1CC(NC1=O)=O;c1ccccc1;NC=O;C[NH+];C1CC(NC1=O)=O;C1CC(NC1=O)=O;C1CC(NC1=O)=O;;c1ccccc1;N=N;;Fc1c(cccc1F)F;Fc1c(cccc1F)F;;C

>  <reaction-name>
s_51

>  <reagent1-name>
503310

>  <reagent1-smiles>
[R1*]N(CC(=O)Nc1c(F)c(F)c(F)cc1)C

>  <reagent2-name>
77354

>  <reagent2-smiles>
[R1*]C1C(=O)N(c2ccc(N=Nc3ccccc3)cc2)C(=O)C1

$$$$
s_22____2335082____736388
          04022017353D 1   1.00000     0.00000     0
            
 52 55  0  0  0  0            999 V2000
    6.1419   -3.5690    1.2219 F   0  0  0  0  0  0  0  0  0  0  0  0
    6.3008   -3.8332    2.5158 C   0  0  0  0  0  0  0  0  0  0  0  0
    5.7732   -2.9708    3.4725 C   0  0  0  0  0  0  0  0  0  0  0  0
    5.9395   -3.2470    4.8250 C   0  0  0  0  0  0  0  0  0  0  0  0
    6.6320   -4.3861    5.2221 C   0  0  0  0  0  0  0  0  0  0  0  0
    7.1594   -5.2484    4.2660 C   0  0  0  0  0  0  0  0  0  0  0  0
    6.9933   -4.9720    2.9132 C   0  0  0  0  0  0  0  0  0  0  0  0
    5.0504   -1.7835    3.0585 C   0  0  0  0  0  0  0  0  0  0  0  0
    4.3014   -1.2402    3.8225 O   0  0  0  0  0  0  0  0  0  0  0  0
    5.2229   -1.2823    1.7952 N   0  0  0  0  0  0  0  0  0  0  0  0
    4.5252   -0.1360    1.3956 C   0  0  0  0  0  0  0  0  0  0  0  0
    5.2230    1.0001    0.9988 C   0  0  0  0  0  0  0  0  0  0  0  0
    4.5297    2.1386    0.6017 C   0  0  0  0  0  0  0  0  0  0  0  0
    3.1384    2.1416    0.6012 C   0  0  0  0  0  0  0  0  0  0  0  0
    2.4504    1.0000    1.0000 C   0  0  0  0  0  0  0  0  0  0  0  0
    3.1344   -0.1437    1.3987 C   0  0  0  0  0  0  0  0  0  0  0  0
    1.0000    1.0000    1.0000 C   0  0  0  0  0  0  0  0  0  0  0  0
    0.4000    2.0391    1.0141 O   0  0  0  0  0  0  0  0  0  0  0  0
    0.3150   -0.1863    0.9839 N   0  0  0  0  0  0  0  0  0  0  0  0
   -1.0680   -0.1863    0.9839 N   0  0  0  0  0  0  0  0  0  0  0  0
   -1.7530   -0.2025    2.1702 C   0  0  0  0  0  0  0  0  0  0  0  0
   -1.1530   -0.2166    3.2093 O   0  0  0  0  0  0  0  0  0  0  0  0
   -3.2033   -0.2025    2.1702 C   0  0  0  0  0  0  0  0  0  0  0  0
   -3.9352   -0.2186    3.3559 C   0  0  0  0  0  0  0  0  0  0  0  0
   -3.3479   -0.2319    4.5671 N   0  0  0  0  0  0  0  0  0  0  0  0
   -4.0477   -0.2495    5.7115 C   0  0  0  0  0  0  0  0  0  0  0  0
   -5.4386   -0.2512    5.6773 C   0  0  0  0  0  0  0  0  0  0  0  0
   -6.0759   -0.2365    4.4410 C   0  0  0  0  0  0  0  0  0  0  0  0
   -5.3241   -0.2196    3.2718 C   0  0  0  0  0  0  0  0  0  0  0  0
   -5.9791   -0.2054    2.0447 C   0  0  0  0  0  0  0  0  0  0  0  0
   -5.2304   -0.1896    0.8728 C   0  0  0  0  0  0  0  0  0  0  0  0
   -3.8409   -0.1882    0.9352 C   0  0  0  0  0  0  0  0  0  0  0  0
    6.7432    1.0197    0.9902 C   0  0  0  0  0  0  0  0  0  0  0  0
    5.5614   -2.6267    5.5122 H   0  0  0  0  0  0  0  0  0  0  0  0
    6.7508   -4.5853    6.1949 H   0  0  0  0  0  0  0  0  0  0  0  0
    7.6580   -6.0668    4.5515 H   0  0  0  0  0  0  0  0  0  0  0  0
    7.3718   -5.5921    2.2261 H   0  0  0  0  0  0  0  0  0  0  0  0
    5.8471   -1.7350    1.1585 H   0  0  0  0  0  0  0  0  0  0  0  0
    5.0314    2.9553    0.3166 H   0  0  0  0  0  0  0  0  0  0  0  0
    2.6366    2.9583    0.3163 H   0  0  0  0  0  0  0  0  0  0  0  0
    2.6329   -0.9605    1.6838 H   0  0  0  0  0  0  0  0  0  0  0  0
    0.8150   -1.0523    0.9721 H   0  0  0  0  0  0  0  0  0  0  0  0
   -1.5680   -0.1746    0.1179 H   0  0  0  0  0  0  0  0  0  0  0  0
   -3.5694   -0.2613    6.5896 H   0  0  0  0  0  0  0  0  0  0  0  0
   -5.9696   -0.2627    6.5247 H   0  0  0  0  0  0  0  0  0  0  0  0
   -7.0748   -0.2381    4.3932 H   0  0  0  0  0  0  0  0  0  0  0  0
   -6.9783   -0.2065    2.0056 H   0  0  0  0  0  0  0  0  0  0  0  0
   -5.6910   -0.1793   -0.0147 H   0  0  0  0  0  0  0  0  0  0  0  0
   -3.3016   -0.1770    0.0931 H   0  0  0  0  0  0  0  0  0  0  0  0
    7.0633    1.9141    0.6781 H   0  0  0  0  0  0  0  0  0  0  0  0
    7.0840    0.8476    1.9145 H   0  0  0  0  0  0  0  0  0  0  0  0
    7.0823    0.3101    0.3725 H   0  0  0  0  0  0  0  0  0  0  0  0
  1  2  1  0  0  0  0
  2  3  1  0  0  0  0
  3  4  2  0  0  0  0
  4  5  1  0  0  0  0
  5  6  2  0  0  0  0
  6  7  1  0  0  0  0
  7  2  2  0  0  0  0
  3  8  1  0  0  0  0
  8  9  2  0  0  0  0
  8 10  1  0  0  0  0
 10 11  1  0  0  0  0
 11 12  1  0  0  0  0
 12 13  2  0  0  0  0
 13 14  1  0  0  0  0
 14 15  2  0  0  0  0
 15 16  1  0  0  0  0
 16 11  2  0  0  0  0
 15 17  1  0  0  0  0
 17 18  2  0  0  0  0
 17 19  1  0  0  0  0
 19 20  1  0  0  0  0
 20 21  1  0  0  0  0
 21 22  2  0  0  0  0
 21 23  1  0  0  0  0
 23 24  1  0  0  0  0
 24 25  2  0  0  0  0
 25 26  1  0  0  0  0
 26 27  2  0  0  0  0
 27 28  1  0  0  0  0
 28 29  2  0  0  0  0
 29 24  1  0  0  0  0
 29 30  1  0  0  0  0
 30 31  2  0  0  0  0
 31 32  1  0  0  0  0
 32 23  2  0  0  0  0
 12 33  1  0  0  0  0
  4 34  1  0  0  0  0
  5 35  1  0  0  0  0
  6 36  1  0  0  0  0
  7 37  1  0  0  0  0
 10 38  1  0  0  0  0
 13 39  1  0  0  0  0
 14 40  1  0  0  0  0
 16 41  1  0  0  0  0
 19 42  1  0  0  0  0
 20 43  1  0  0  0  0
 26 44  1  0  0  0  0
 27 45  1  0  0  0  0
 28 46  1  0  0  0  0
 30 47  1  0  0  0  0
 31 48  1  0  0  0  0
 32 49  1  0  0  0  0
 33 50  1  0  0  0  0
 33 51  1  0  0  0  0
 33 52  1  0  0  0  0
M  END
>  <result-rank>
85

>  <similarity>
0.867

>  <query-name>


>  <query-smiles>
S1C(C(=O)NC2=Nc3c(N2CCC(=O)N)ccc(N(C(=O)c4ccccc4)C)c3)=CC=C1/C=C/c5ncc(N)cn5

>  <source>
REALspace_2019-12

>  <similarity-descriptor>
0.929;0.967;0.860;0.468;0.993;0.999;0.984;0.0;0.0;0.0;0.0;0.993;0.852;0.995;0.929;0.860;0.0;0.0

>  <similarity-descriptor-smiles>
c1ccccc1;Fc1ccccc1;c1ccccn1;C(=O)N;c1ccccc1;C=O;N;;;;;c1ccccc1;C(=O)N;C;c1ccccc1;c1ccccn1;;

>  <reaction-name>
s_22

>  <reagent1-name>
2335082

>  <reagent1-smiles>
[R1*]NNC(=O)c1c2ncccc2ccc1

>  <reagent2-name>
736388

>  <reagent2-smiles>
[R1*]C(=O)c1cc(NC(=O)c2c(F)cccc2)c(cc1)C

$$$$
s_22____4556042____10858084
          04022017353D 1   1.00000     0.00000     0
            
 58 62  0  0  0  0            999 V2000
    4.8882   -2.9742    8.8555 F   0  0  0  0  0  0  0  0  0  0  0  0
    4.3609   -1.8181    8.4602 C   0  0  0  0  0  0  0  0  0  0  0  0
    3.3018   -1.2581    9.1680 C   0  0  0  0  0  0  0  0  0  0  0  0
    2.7607   -1.9173   10.3416 C   0  0  0  0  0  0  0  0  0  0  0  0
    2.3002   -1.1563   11.4099 C   0  0  0  0  0  0  0  0  0  0  0  0
    1.7860   -1.8142   12.5221 C   0  0  0  0  0  0  0  0  0  0  0  0
    1.7350   -3.1542   12.5631 N   0  0  0  0  0  0  0  0  0  0  0  0
    2.1745   -3.9044   11.5419 C   0  0  0  0  0  0  0  0  0  0  0  0
    2.7001   -3.3051   10.4018 C   0  0  0  0  0  0  0  0  0  0  0  0
    2.7500   -0.0499    8.7548 C   0  0  0  0  0  0  0  0  0  0  0  0
    3.2563    0.5987    7.6332 C   0  0  0  0  0  0  0  0  0  0  0  0
    4.3153    0.0325    6.9310 C   0  0  0  0  0  0  0  0  0  0  0  0
    4.8728   -1.1751    7.3375 C   0  0  0  0  0  0  0  0  0  0  0  0
    4.8497    0.7016    5.7601 C   0  0  0  0  0  0  0  0  0  0  0  0
    5.5430    1.6727    5.8881 O   0  0  0  0  0  0  0  0  0  0  0  0
    4.5562    0.2135    4.4782 N   0  0  0  0  0  0  0  0  0  0  0  0
    5.4284    0.4553    3.3173 C   0  0  0  0  0  0  0  0  0  0  0  0
    4.5400    0.7218    2.1222 C   0  0  0  0  0  0  0  0  0  0  0  0
    3.1477    0.7089    2.1429 C   0  0  0  0  0  0  0  0  0  0  0  0
    2.4010    1.0000    1.0000 C   0  0  0  0  0  0  0  0  0  0  0  0
    1.0000    1.0000    1.0000 N   0  0  0  0  0  0  0  0  0  0  0  0
    0.3150    0.0984    0.2288 C   0  0  0  0  0  0  0  0  0  0  0  0
    0.8607   -0.8986   -0.1562 O   0  0  0  0  0  0  0  0  0  0  0  0
   -0.9930    0.3350   -0.1028 N   0  0  0  0  0  0  0  0  0  0  0  0
   -1.5093   -0.1553   -1.3085 C   0  0  0  0  0  0  0  0  0  0  0  0
   -0.8283    0.0849   -2.4976 C   0  0  0  0  0  0  0  0  0  0  0  0
   -1.3441   -0.4040   -3.6933 C   0  0  0  0  0  0  0  0  0  0  0  0
   -2.5323   -1.1267   -3.6941 C   0  0  0  0  0  0  0  0  0  0  0  0
   -3.2044   -1.3613   -2.4992 C   0  0  0  0  0  0  0  0  0  0  0  0
   -2.6982   -0.8773   -1.2974 C   0  0  0  0  0  0  0  0  0  0  0  0
    3.0555    1.3053   -0.1900 C   0  0  0  0  0  0  0  0  0  0  0  0
    4.4458    1.3109   -0.2280 C   0  0  0  0  0  0  0  0  0  0  0  0
    5.1750    1.0172    0.9213 C   0  0  0  0  0  0  0  0  0  0  0  0
    2.4370    0.3845    3.4426 C   0  0  0  0  0  0  0  0  0  0  0  0
    3.3551   -0.5741    4.1744 C   0  0  0  0  0  0  0  0  0  0  0  0
    2.3378   -0.1575   11.3794 H   0  0  0  0  0  0  0  0  0  0  0  0
    1.4506   -1.2826   13.2998 H   0  0  0  0  0  0  0  0  0  0  0  0
    2.1241   -4.9014   11.6005 H   0  0  0  0  0  0  0  0  0  0  0  0
    3.0284   -3.8624    9.6392 H   0  0  0  0  0  0  0  0  0  0  0  0
    1.9892    0.3524    9.2640 H   0  0  0  0  0  0  0  0  0  0  0  0
    2.8612    1.4671    7.3334 H   0  0  0  0  0  0  0  0  0  0  0  0
    5.6337   -1.5770    6.8281 H   0  0  0  0  0  0  0  0  0  0  0  0
    5.9979   -0.3486    3.1459 H   0  0  0  0  0  0  0  0  0  0  0  0
    6.0135    1.2476    3.4902 H   0  0  0  0  0  0  0  0  0  0  0  0
    0.5000    1.6581    1.5629 H   0  0  0  0  0  0  0  0  0  0  0  0
   -1.5791    0.8578    0.5162 H   0  0  0  0  0  0  0  0  0  0  0  0
    0.0257    0.6052   -2.4927 H   0  0  0  0  0  0  0  0  0  0  0  0
   -0.8607   -0.2357   -4.5523 H   0  0  0  0  0  0  0  0  0  0  0  0
   -2.9035   -1.4777   -4.5537 H   0  0  0  0  0  0  0  0  0  0  0  0
   -4.0582   -1.8820   -2.5041 H   0  0  0  0  0  0  0  0  0  0  0  0
   -3.1817   -1.0458   -0.4385 H   0  0  0  0  0  0  0  0  0  0  0  0
    2.5291    1.5193   -1.0128 H   0  0  0  0  0  0  0  0  0  0  0  0
    4.9218    1.5259   -1.0808 H   0  0  0  0  0  0  0  0  0  0  0  0
    6.1742    1.0187    0.8821 H   0  0  0  0  0  0  0  0  0  0  0  0
    1.5537   -0.0474    3.2602 H   0  0  0  0  0  0  0  0  0  0  0  0
    2.2969    1.2151    3.9816 H   0  0  0  0  0  0  0  0  0  0  0  0
    2.9252   -0.8997    5.0165 H   0  0  0  0  0  0  0  0  0  0  0  0
    3.5839   -1.3552    3.5934 H   0  0  0  0  0  0  0  0  0  0  0  0
  1  2  1  0  0  0  0
  2  3  1  0  0  0  0
  3  4  1  0  0  0  0
  4  5  1  0  0  0  0
  5  6  2  0  0  0  0
  6  7  1  0  0  0  0
  7  8  2  0  0  0  0
  8  9  1  0  0  0  0
  9  4  2  0  0  0  0
  3 10  2  0  0  0  0
 10 11  1  0  0  0  0
 11 12  2  0  0  0  0
 12 13  1  0  0  0  0
 13  2  2  0  0  0  0
 12 14  1  0  0  0  0
 14 15  2  0  0  0  0
 14 16  1  0  0  0  0
 16 17  1  0  0  0  0
 17 18  1  0  0  0  0
 18 19  1  0  0  0  0
 19 20  2  0  0  0  0
 20 21  1  0  0  0  0
 21 22  1  0  0  0  0
 22 23  2  0  0  0  0
 22 24  1  0  0  0  0
 24 25  1  0  0  0  0
 25 26  1  0  0  0  0
 26 27  2  0  0  0  0
 27 28  1  0  0  0  0
 28 29  2  0  0  0  0
 29 30  1  0  0  0  0
 30 25  2  0  0  0  0
 20 31  1  0  0  0  0
 31 32  2  0  0  0  0
 32 33  1  0  0  0  0
 33 18  2  0  0  0  0
 19 34  1  0  0  0  0
 34 35  1  0  0  0  0
 35 16  1  0  0  0  0
  5 36  1  0  0  0  0
  6 37  1  0  0  0  0
  8 38  1  0  0  0  0
  9 39  1  0  0  0  0
 10 40  1  0  0  0  0
 11 41  1  0  0  0  0
 13 42  1  0  0  0  0
 17 43  1  0  0  0  0
 17 44  1  0  0  0  0
 21 45  1  0  0  0  0
 24 46  1  0  0  0  0
 26 47  1  0  0  0  0
 27 48  1  0  0  0  0
 28 49  1  0  0  0  0
 29 50  1  0  0  0  0
 30 51  1  0  0  0  0
 31 52  1  0  0  0  0
 32 53  1  0  0  0  0
 33 54  1  0  0  0  0
 34 55  1  0  0  0  0
 34 56  1  0  0  0  0
 35 57  1  0  0  0  0
 35 58  1  0  0  0  0
M  END
>  <result-rank>
86

>  <similarity>
0.867

>  <query-name>


>  <query-smiles>
S1C(C(=O)NC2=Nc3c(N2CCC(=O)N)ccc(N(C(=O)c4ccccc4)C)c3)=CC=C1/C=C/c5ncc(N)cn5

>  <source>
REALspace_2019-12

>  <similarity-descriptor>
0.966;0.998;0.874;0.670;0.989;0.853;0.853;0.670;0.670;0.0;0.0;0.989;0.740;0.0;0.966;0.874;0.0;0.0

>  <similarity-descriptor-smiles>
Fc1ccccc1;c1ccccc1;c1ccncc1;N1CCccC1;c1ccccc1;C=O;C=O;N1CCccC1;N1CCccC1;;;c1ccccc1;NC(=O)N;;Fc1ccccc1;c1ccncc1;;

>  <reaction-name>
s_22

>  <reagent1-name>
4556042

>  <reagent1-smiles>
[R1*]N1Cc2c(c(NC(=O)Nc3ccccc3)ccc2)CC1

>  <reagent2-name>
10858084

>  <reagent2-smiles>
[R1*]C(=O)c1cc(F)c(c2ccncc2)cc1

$$$$
s_270196____8770012____8781142
          04022017353D 1   1.00000     0.00000     0
            
 56 60  0  0  0  0            999 V2000
    0.4000    2.0392    1.0014 O   0  0  0  0  0  0  0  0  0  0  0  0
    1.0000    1.0000    1.0000 C   0  0  0  0  0  0  0  0  0  0  0  0
    0.3150   -0.1865    0.9984 N   0  0  0  0  0  0  0  0  0  0  0  0
   -1.1550   -0.1865    0.9984 C   0  0  0  0  0  0  0  0  0  0  0  0
   -1.6617   -0.1845   -0.4348 C   0  0  0  0  0  0  0  0  0  0  0  0
   -1.8915   -1.3918   -1.0865 C   0  0  0  0  0  0  0  0  0  0  0  0
   -2.3542   -1.3843   -2.3980 C   0  0  0  0  0  0  0  0  0  0  0  0
   -2.5824   -0.1719   -3.0413 C   0  0  0  0  0  0  0  0  0  0  0  0
   -2.3546    1.0354   -2.3878 C   0  0  0  0  0  0  0  0  0  0  0  0
   -1.8904    1.0279   -1.0766 C   0  0  0  0  0  0  0  0  0  0  0  0
   -3.0867   -0.1702   -4.4752 C   0  0  0  0  0  0  0  0  0  0  0  0
    2.4499    1.0000    1.0000 C   0  0  0  0  0  0  0  0  0  0  0  0
    3.1346    2.2109    1.0017 C   0  0  0  0  0  0  0  0  0  0  0  0
    4.5254    2.1975    1.0035 C   0  0  0  0  0  0  0  0  0  0  0  0
    5.2307    0.9985    1.0028 C   0  0  0  0  0  0  0  0  0  0  0  0
    4.5242   -0.1995    1.0012 C   0  0  0  0  0  0  0  0  0  0  0  0
    3.1336   -0.2112    0.9999 C   0  0  0  0  0  0  0  0  0  0  0  0
    5.2469    3.4557    1.0050 C   0  0  0  0  0  0  0  0  0  0  0  0
    6.5511    3.6024    1.0068 N   0  0  0  0  0  0  0  0  0  0  0  0
    6.8206    4.8410    1.0049 O   0  0  0  0  0  0  0  0  0  0  0  0
    5.7066    5.5320    1.0034 C   0  0  0  0  0  0  0  0  0  0  0  0
    4.6975    4.6984    1.0019 N   0  0  0  0  0  0  0  0  0  0  0  0
    5.6086    6.9790    1.0020 C   0  0  0  0  0  0  0  0  0  0  0  0
    4.3502    7.6404    1.0004 C   0  0  0  0  0  0  0  0  0  0  0  0
    3.3356    6.9997    1.0000 O   0  0  0  0  0  0  0  0  0  0  0  0
    4.3186    9.0111    0.9988 N   0  0  0  0  0  0  0  0  0  0  0  0
    5.4725    9.7516    0.9989 C   0  0  0  0  0  0  0  0  0  0  0  0
    5.4164   11.2002    0.9968 C   0  0  0  0  0  0  0  0  0  0  0  0
    6.5322   11.9457    0.9969 N   0  0  0  0  0  0  0  0  0  0  0  0
    6.4860   13.2853    0.9946 C   0  0  0  0  0  0  0  0  0  0  0  0
    5.2665   13.9532    0.9924 C   0  0  0  0  0  0  0  0  0  0  0  0
    4.0974   13.1994    0.9926 C   0  0  0  0  0  0  0  0  0  0  0  0
    4.1658   11.8105    0.9945 C   0  0  0  0  0  0  0  0  0  0  0  0
    6.6986    9.1378    1.0008 C   0  0  0  0  0  0  0  0  0  0  0  0
    6.7635    7.7181    1.0026 C   0  0  0  0  0  0  0  0  0  0  0  0
    0.8150   -1.0525    0.9972 H   0  0  0  0  0  0  0  0  0  0  0  0
   -1.4883    0.6294    1.4709 H   0  0  0  0  0  0  0  0  0  0  0  0
   -1.4883   -1.0036    1.4686 H   0  0  0  0  0  0  0  0  0  0  0  0
   -1.7253   -2.2582   -0.6157 H   0  0  0  0  0  0  0  0  0  0  0  0
   -2.5222   -2.2462   -2.8764 H   0  0  0  0  0  0  0  0  0  0  0  0
   -2.5233    1.9020   -2.8574 H   0  0  0  0  0  0  0  0  0  0  0  0
   -1.7221    1.8896   -0.5980 H   0  0  0  0  0  0  0  0  0  0  0  0
   -3.1983    0.7730   -4.7882 H   0  0  0  0  0  0  0  0  0  0  0  0
   -2.4266   -0.6400   -5.0613 H   0  0  0  0  0  0  0  0  0  0  0  0
   -3.9671   -0.6425   -4.5195 H   0  0  0  0  0  0  0  0  0  0  0  0
    2.6349    3.0771    1.0016 H   0  0  0  0  0  0  0  0  0  0  0  0
    6.2307    0.9979    1.0035 H   0  0  0  0  0  0  0  0  0  0  0  0
    5.0239   -1.0658    1.0010 H   0  0  0  0  0  0  0  0  0  0  0  0
    2.6330   -1.0769    0.9988 H   0  0  0  0  0  0  0  0  0  0  0  0
    3.4356    9.4805    0.9975 H   0  0  0  0  0  0  0  0  0  0  0  0
    7.3374   13.8098    0.9946 H   0  0  0  0  0  0  0  0  0  0  0  0
    5.2306   14.9526    0.9906 H   0  0  0  0  0  0  0  0  0  0  0  0
    3.2079   13.6562    0.9915 H   0  0  0  0  0  0  0  0  0  0  0  0
    3.3310   11.2600    0.9941 H   0  0  0  0  0  0  0  0  0  0  0  0
    7.5371    9.6826    1.0010 H   0  0  0  0  0  0  0  0  0  0  0  0
    7.6515    7.2582    1.0043 H   0  0  0  0  0  0  0  0  0  0  0  0
  1  2  2  0  0  0  0
  2  3  1  0  0  0  0
  3  4  1  0  0  0  0
  4  5  1  0  0  0  0
  5  6  1  0  0  0  0
  6  7  2  0  0  0  0
  7  8  1  0  0  0  0
  8  9  2  0  0  0  0
  9 10  1  0  0  0  0
 10  5  2  0  0  0  0
  8 11  1  0  0  0  0
  2 12  1  0  0  0  0
 12 13  1  0  0  0  0
 13 14  2  0  0  0  0
 14 15  1  0  0  0  0
 15 16  2  0  0  0  0
 16 17  1  0  0  0  0
 17 12  2  0  0  0  0
 14 18  1  0  0  0  0
 18 19  2  0  0  0  0
 19 20  1  0  0  0  0
 20 21  1  0  0  0  0
 21 22  2  0  0  0  0
 22 18  1  0  0  0  0
 21 23  1  0  0  0  0
 23 24  1  0  0  0  0
 24 25  2  0  0  0  0
 24 26  1  0  0  0  0
 26 27  1  0  0  0  0
 27 28  1  0  0  0  0
 28 29  1  0  0  0  0
 29 30  2  0  0  0  0
 30 31  1  0  0  0  0
 31 32  2  0  0  0  0
 32 33  1  0  0  0  0
 33 28  2  0  0  0  0
 27 34  2  0  0  0  0
 34 35  1  0  0  0  0
 23 35  2  0  0  0  0
  3 36  1  0  0  0  0
  4 37  1  0  0  0  0
  4 38  1  0  0  0  0
  6 39  1  0  0  0  0
  7 40  1  0  0  0  0
  9 41  1  0  0  0  0
 10 42  1  0  0  0  0
 11 43  1  0  0  0  0
 11 44  1  0  0  0  0
 11 45  1  0  0  0  0
 13 46  1  0  0  0  0
 15 47  1  0  0  0  0
 16 48  1  0  0  0  0
 17 49  1  0  0  0  0
 26 50  1  0  0  0  0
 30 51  1  0  0  0  0
 31 52  1  0  0  0  0
 32 53  1  0  0  0  0
 33 54  1  0  0  0  0
 34 55  1  0  0  0  0
 35 56  1  0  0  0  0
M  END
>  <result-rank>
87

>  <similarity>
0.867

>  <query-name>


>  <query-smiles>
S1C(C(=O)NC2=Nc3c(N2CCC(=O)N)ccc(N(C(=O)c4ccccc4)C)c3)=CC=C1/C=C/c5ncc(N)cn5

>  <source>
REALspace_2019-12

>  <similarity-descriptor>
0.915;0.923;0.874;0.753;0.950;0.915;0.915;0.753;0.753;0.753;0.0;0.950;0.852;0.0;0.915;0.874;0.0;0.111

>  <similarity-descriptor-smiles>
C1=CC=CNC1=O;Cc1ccccc1;c1ccccn1;C=1N=CON1;c1ccccc1;C1=CC=CNC1=O;C1=CC=CNC1=O;C=1N=CON1;C=1N=CON1;C=1N=CON1;;c1ccccc1;O=CN;;C1=CC=CNC1=O;c1ccccn1;;C

>  <reaction-name>
s_270196

>  <reagent1-name>
8770012

>  <reagent1-smiles>
[R1*]=NC(=NO[R2*])c1cc(ccc1)C(=O)NCc2ccc(cc2)C

>  <reagent2-name>
8781142

>  <reagent2-smiles>
[R1*]C([R2*])C=1C(=O)NC(c2ncccc2)=CC1

$$$$
s_22____4601938____13263488
          04022017353D 1   1.00000     0.00000     0
            
 55 58  0  0  0  0            999 V2000
    0.2827   -8.4535    2.4219 Br  0  0  0  0  0  0  0  0  0  0  0  0
   -0.7499   -6.7875    2.4235 C   0  0  0  0  0  0  0  0  0  0  0  0
   -2.1424   -6.8009    2.4249 C   0  0  0  0  0  0  0  0  0  0  0  0
   -2.8415   -7.9472    2.4254 N   0  0  0  0  0  0  0  0  0  0  0  0
   -4.1829   -7.9656    2.4260 C   0  0  0  0  0  0  0  0  0  0  0  0
   -4.8729   -6.7573    2.4271 C   0  0  0  0  0  0  0  0  0  0  0  0
   -4.1747   -5.6122    2.4273 N   0  0  0  0  0  0  0  0  0  0  0  0
   -2.8326   -5.5914    2.4262 C   0  0  0  0  0  0  0  0  0  0  0  0
   -2.1285   -4.3910    2.4269 C   0  0  0  0  0  0  0  0  0  0  0  0
   -0.7378   -4.3846    2.4262 C   0  0  0  0  0  0  0  0  0  0  0  0
   -0.0422   -5.5898    2.4247 C   0  0  0  0  0  0  0  0  0  0  0  0
   -0.0133   -3.1299    2.4278 C   0  0  0  0  0  0  0  0  0  0  0  0
    1.1867   -3.1299    2.4278 O   0  0  0  0  0  0  0  0  0  0  0  0
   -0.6983   -1.9434    2.4293 N   0  0  0  0  0  0  0  0  0  0  0  0
    0.0367   -0.6704    2.4309 C   0  0  0  0  0  0  0  0  0  0  0  0
    0.2900   -0.2298    0.9984 C   0  0  0  0  0  0  0  0  0  0  0  0
    1.0000    1.0000    1.0000 O   0  0  0  0  0  0  0  0  0  0  0  0
    2.3509    1.0000    1.0000 C   0  0  0  0  0  0  0  0  0  0  0  0
    3.0400    2.1347    1.4146 C   0  0  0  0  0  0  0  0  0  0  0  0
    4.4310    2.1149    1.4060 C   0  0  0  0  0  0  0  0  0  0  0  0
    5.1297    3.2540    1.8214 N   0  0  0  0  0  0  0  0  0  0  0  0
    6.2600    3.1238    2.5846 C   0  0  0  0  0  0  0  0  0  0  0  0
    6.4593    2.1091    3.1934 O   0  0  0  0  0  0  0  0  0  0  0  0
    7.2154    4.2123    2.6569 C   0  0  0  0  0  0  0  0  0  0  0  0
    8.3566    4.0613    3.4370 C   0  0  0  0  0  0  0  0  0  0  0  0
    9.2787    5.1003    3.5137 C   0  0  0  0  0  0  0  0  0  0  0  0
    9.0480    6.2769    2.8086 C   0  0  0  0  0  0  0  0  0  0  0  0
    9.9838    7.3425    2.8790 O   0  0  0  0  0  0  0  0  0  0  0  0
    9.7479    8.5435    2.1590 C   0  0  0  0  0  0  0  0  0  0  0  0
    7.9060    6.4274    2.0285 C   0  0  0  0  0  0  0  0  0  0  0  0
    6.9838    5.3890    1.9520 C   0  0  0  0  0  0  0  0  0  0  0  0
    5.1275    0.9845    0.9913 C   0  0  0  0  0  0  0  0  0  0  0  0
    4.4256   -0.1417    0.5767 C   0  0  0  0  0  0  0  0  0  0  0  0
    3.0352   -0.1354    0.5815 C   0  0  0  0  0  0  0  0  0  0  0  0
   -4.6791   -8.8338    2.4258 H   0  0  0  0  0  0  0  0  0  0  0  0
   -5.8728   -6.7430    2.4276 H   0  0  0  0  0  0  0  0  0  0  0  0
   -2.6276   -3.5245    2.4278 H   0  0  0  0  0  0  0  0  0  0  0  0
    0.9578   -5.5949    2.4244 H   0  0  0  0  0  0  0  0  0  0  0  0
   -1.6983   -1.9434    2.4293 H   0  0  0  0  0  0  0  0  0  0  0  0
    0.9104   -0.7905    2.9022 H   0  0  0  0  0  0  0  0  0  0  0  0
   -0.5038    0.0260    2.9032 H   0  0  0  0  0  0  0  0  0  0  0  0
    0.8304   -0.9261    0.5261 H   0  0  0  0  0  0  0  0  0  0  0  0
   -0.5838   -0.1096    0.5272 H   0  0  0  0  0  0  0  0  0  0  0  0
    2.5445    2.9502    1.7136 H   0  0  0  0  0  0  0  0  0  0  0  0
    4.8041    4.1629    1.5611 H   0  0  0  0  0  0  0  0  0  0  0  0
    8.5136    3.2112    3.9397 H   0  0  0  0  0  0  0  0  0  0  0  0
   10.1022    5.0018    4.0723 H   0  0  0  0  0  0  0  0  0  0  0  0
   10.5004    9.1820    2.3200 H   0  0  0  0  0  0  0  0  0  0  0  0
    9.6868    8.3398    1.1819 H   0  0  0  0  0  0  0  0  0  0  0  0
    8.8902    8.9544    2.4681 H   0  0  0  0  0  0  0  0  0  0  0  0
    7.7490    7.2774    1.5256 H   0  0  0  0  0  0  0  0  0  0  0  0
    6.1599    5.4876    1.3940 H   0  0  0  0  0  0  0  0  0  0  0  0
    6.1275    0.9820    0.9913 H   0  0  0  0  0  0  0  0  0  0  0  0
    4.9208   -0.9565    0.2751 H   0  0  0  0  0  0  0  0  0  0  0  0
    2.5290   -0.9451    0.2847 H   0  0  0  0  0  0  0  0  0  0  0  0
  1  2  1  0  0  0  0
  2  3  1  0  0  0  0
  3  4  2  0  0  0  0
  4  5  1  0  0  0  0
  5  6  2  0  0  0  0
  6  7  1  0  0  0  0
  7  8  2  0  0  0  0
  8  3  1  0  0  0  0
  8  9  1  0  0  0  0
  9 10  2  0  0  0  0
 10 11  1  0  0  0  0
 11  2  2  0  0  0  0
 10 12  1  0  0  0  0
 12 13  2  0  0  0  0
 12 14  1  0  0  0  0
 14 15  1  0  0  0  0
 15 16  1  0  0  0  0
 16 17  1  0  0  0  0
 17 18  1  0  0  0  0
 18 19  1  0  0  0  0
 19 20  2  0  0  0  0
 20 21  1  0  0  0  0
 21 22  1  0  0  0  0
 22 23  2  0  0  0  0
 22 24  1  0  0  0  0
 24 25  1  0  0  0  0
 25 26  2  0  0  0  0
 26 27  1  0  0  0  0
 27 28  1  0  0  0  0
 28 29  1  0  0  0  0
 27 30  2  0  0  0  0
 30 31  1  0  0  0  0
 31 24  2  0  0  0  0
 20 32  1  0  0  0  0
 32 33  2  0  0  0  0
 33 34  1  0  0  0  0
 34 18  2  0  0  0  0
  5 35  1  0  0  0  0
  6 36  1  0  0  0  0
  9 37  1  0  0  0  0
 11 38  1  0  0  0  0
 14 39  1  0  0  0  0
 15 40  1  0  0  0  0
 15 41  1  0  0  0  0
 16 42  1  0  0  0  0
 16 43  1  0  0  0  0
 19 44  1  0  0  0  0
 21 45  1  0  0  0  0
 25 46  1  0  0  0  0
 26 47  1  0  0  0  0
 29 48  1  0  0  0  0
 29 49  1  0  0  0  0
 29 50  1  0  0  0  0
 30 51  1  0  0  0  0
 31 52  1  0  0  0  0
 32 53  1  0  0  0  0
 33 54  1  0  0  0  0
 34 55  1  0  0  0  0
M  END
>  <result-rank>
88

>  <similarity>
0.867

>  <query-name>


>  <query-smiles>
S1C(C(=O)NC2=Nc3c(N2CCC(=O)N)ccc(N(C(=O)c4ccccc4)C)c3)=CC=C1/C=C/c5ncc(N)cn5

>  <source>
REALspace_2019-12

>  <similarity-descriptor>
0.998;0.960;0.919;0.540;0.946;0.999;0.723;0.0;0.0;0.0;0.0;0.946;0.852;0.0;0.998;0.919;0.0;0.154

>  <similarity-descriptor-smiles>
Brc1ccccc1;c1ccccc1;c1cnccn1;CO;c1ccccc1;C=O;NC;;;;;c1ccccc1;NC=O;;Brc1ccccc1;c1cnccn1;;O.C

>  <reaction-name>
s_22

>  <reagent1-name>
4601938

>  <reagent1-smiles>
[R1*]NCCOc1cc(NC(=O)c2ccc(OC)cc2)ccc1

>  <reagent2-name>
13263488

>  <reagent2-smiles>
[R1*]C(=O)c1cc(Br)c2nccnc2c1

$$$$
s_270196____13074376____10226198
          04022017353D 1   1.00000     0.00000     0
            
 46 50  0  0  0  0            999 V2000
   10.6548    9.2117   -0.9227 Br  0  0  0  0  0  0  0  0  0  0  0  0
    9.5842    7.8521   -0.0021 C   0  0  0  0  0  0  0  0  0  0  0  0
   10.1693    7.0703    0.9884 C   0  0  0  0  0  0  0  0  0  0  0  0
    9.4009    6.1081    1.6358 C   0  0  0  0  0  0  0  0  0  0  0  0
   10.0045    5.3309    2.6279 N   0  0  0  0  0  0  0  0  0  0  0  0
   10.1247    4.0197    2.6214 N   0  0  0  0  0  0  0  0  0  0  0  0
   10.7443    3.6369    3.7147 C   0  0  0  0  0  0  0  0  0  0  0  0
   11.0128    4.7632    4.4405 N   0  0  0  0  0  0  0  0  0  0  0  0
   10.5631    5.8109    3.7781 C   0  0  0  0  0  0  0  0  0  0  0  0
    8.0629    5.9305    1.2966 C   0  0  0  0  0  0  0  0  0  0  0  0
    7.4865    6.7176    0.3045 C   0  0  0  0  0  0  0  0  0  0  0  0
    8.2475    7.6823   -0.3478 C   0  0  0  0  0  0  0  0  0  0  0  0
    7.2429    4.9336    1.9576 C   0  0  0  0  0  0  0  0  0  0  0  0
    7.5808    4.2501    3.0239 O   0  0  0  0  0  0  0  0  0  0  0  0
    6.6369    3.4661    3.3417 N   0  0  0  0  0  0  0  0  0  0  0  0
    5.6556    3.6198    2.4839 C   0  0  0  0  0  0  0  0  0  0  0  0
    6.0425    4.5653    1.5881 N   0  0  0  0  0  0  0  0  0  0  0  0
    4.3919    2.9082    2.4900 C   0  0  0  0  0  0  0  0  0  0  0  0
    3.1488    3.5978    2.5045 C   0  0  0  0  0  0  0  0  0  0  0  0
    3.1279    4.8179    2.5122 O   0  0  0  0  0  0  0  0  0  0  0  0
    1.9853    2.8725    2.5102 N   0  0  0  0  0  0  0  0  0  0  0  0
    1.9988    1.5016    2.5019 C   0  0  0  0  0  0  0  0  0  0  0  0
    0.7564    0.7539    2.5084 C   0  0  0  0  0  0  0  0  0  0  0  0
   -0.4543    1.4383    2.5231 C   0  0  0  0  0  0  0  0  0  0  0  0
   -1.6391    0.7097    2.5293 C   0  0  0  0  0  0  0  0  0  0  0  0
   -1.6253   -0.6813    2.5201 C   0  0  0  0  0  0  0  0  0  0  0  0
   -0.4023   -1.3434    2.5052 C   0  0  0  0  0  0  0  0  0  0  0  0
    0.7956   -0.6364    2.4994 C   0  0  0  0  0  0  0  0  0  0  0  0
   -2.9673    1.4496    2.5456 C   0  0  0  0  0  0  0  0  0  0  0  0
   -3.3658    1.6729    1.2965 F   0  0  0  0  0  0  0  0  0  0  0  0
   -3.8774    0.7129    3.1763 F   0  0  0  0  0  0  0  0  0  0  0  0
   -2.8204    2.6103    3.1782 F   0  0  0  0  0  0  0  0  0  0  0  0
    3.1844    0.8129    2.4875 C   0  0  0  0  0  0  0  0  0  0  0  0
    4.4071    1.5372    2.4813 C   0  0  0  0  0  0  0  0  0  0  0  0
   11.1306    7.1983    1.2322 H   0  0  0  0  0  0  0  0  0  0  0  0
   10.9759    2.6977    3.9682 H   0  0  0  0  0  0  0  0  0  0  0  0
   10.6199    6.7681    4.0620 H   0  0  0  0  0  0  0  0  0  0  0  0
    6.5252    6.5898    0.0604 H   0  0  0  0  0  0  0  0  0  0  0  0
    7.8361    8.2502   -1.0607 H   0  0  0  0  0  0  0  0  0  0  0  0
    1.1086    3.3535    2.5204 H   0  0  0  0  0  0  0  0  0  0  0  0
   -0.4727    2.4381    2.5290 H   0  0  0  0  0  0  0  0  0  0  0  0
   -2.4818   -1.1973    2.5243 H   0  0  0  0  0  0  0  0  0  0  0  0
   -0.3838   -2.3432    2.4984 H   0  0  0  0  0  0  0  0  0  0  0  0
    1.6709   -1.1199    2.4889 H   0  0  0  0  0  0  0  0  0  0  0  0
    3.1886   -0.1870    2.4815 H   0  0  0  0  0  0  0  0  0  0  0  0
    5.2786    1.0469    2.4706 H   0  0  0  0  0  0  0  0  0  0  0  0
  1  2  1  0  0  0  0
  2  3  1  0  0  0  0
  3  4  2  0  0  0  0
  4  5  1  0  0  0  0
  5  6  1  0  0  0  0
  6  7  2  0  0  0  0
  7  8  1  0  0  0  0
  8  9  2  0  0  0  0
  9  5  1  0  0  0  0
  4 10  1  0  0  0  0
 10 11  2  0  0  0  0
 11 12  1  0  0  0  0
 12  2  2  0  0  0  0
 10 13  1  0  0  0  0
 13 14  1  0  0  0  0
 14 15  1  0  0  0  0
 15 16  2  0  0  0  0
 16 17  1  0  0  0  0
 13 17  2  0  0  0  0
 16 18  1  0  0  0  0
 18 19  1  0  0  0  0
 19 20  2  0  0  0  0
 19 21  1  0  0  0  0
 21 22  1  0  0  0  0
 22 23  1  0  0  0  0
 23 24  1  0  0  0  0
 24 25  2  0  0  0  0
 25 26  1  0  0  0  0
 26 27  2  0  0  0  0
 27 28  1  0  0  0  0
 28 23  2  0  0  0  0
 25 29  1  0  0  0  0
 29 30  1  0  0  0  0
 29 31  1  0  0  0  0
 29 32  1  0  0  0  0
 22 33  2  0  0  0  0
 33 34  1  0  0  0  0
 18 34  2  0  0  0  0
  3 35  1  0  0  0  0
  7 36  1  0  0  0  0
  9 37  1  0  0  0  0
 11 38  1  0  0  0  0
 12 39  1  0  0  0  0
 21 40  1  0  0  0  0
 24 41  1  0  0  0  0
 26 42  1  0  0  0  0
 27 43  1  0  0  0  0
 28 44  1  0  0  0  0
 33 45  1  0  0  0  0
 34 46  1  0  0  0  0
M  END
>  <result-rank>
89

>  <similarity>
0.867

>  <query-name>


>  <query-smiles>
S1C(C(=O)NC2=Nc3c(N2CCC(=O)N)ccc(N(C(=O)c4ccccc4)C)c3)=CC=C1/C=C/c5ncc(N)cn5

>  <source>
REALspace_2019-12

>  <similarity-descriptor>
0.935;0.928;0.920;0.800;0.873;0.800;0.800;0.0;0.0;0.0;0.0;0.873;0.873;0.0;0.935;0.935;0.0;0.0

>  <similarity-descriptor-smiles>
Brc1ccccc1;c1cccc(c1)C(F)(F)F;N1C=NC=N1;C1=NC=NO1;C1=CC=CNC1=O;C1=NC=NO1;C1=NC=NO1;;;;;C1=CC=CNC1=O;C1=CC=CNC1=O;;Brc1ccccc1;Brc1ccccc1;;

>  <reaction-name>
s_270196

>  <reagent1-name>
13074376

>  <reagent1-smiles>
[R1*]=NC(=NO[R2*])C=1C(=O)NC(c2cc(ccc2)C(F)(F)F)=CC1

>  <reagent2-name>
10226198

>  <reagent2-smiles>
[R1*]C([R2*])c1c(N2N=CN=C2)cc(Br)cc1

$$$$
s_527a____1723392____626840
          04022017353D 1   1.00000     0.00000     0
            
 54 58  0  0  0  0            999 V2000
    5.4042   -8.4867    1.7443 S   0  0  0  0  0  0  0  0  0  0  0  0
    5.4760   -7.0820    2.5265 C   0  0  0  0  0  0  0  0  0  0  0  0
    5.0245   -5.9327    1.9328 N   0  0  0  0  0  0  0  0  0  0  0  0
    5.0825   -4.7334    2.5929 C   0  0  0  0  0  0  0  0  0  0  0  0
    5.6046   -4.6730    3.8819 C   0  0  0  0  0  0  0  0  0  0  0  0
    5.6565   -3.4456    4.5392 C   0  0  0  0  0  0  0  0  0  0  0  0
    5.2007   -2.2776    3.9413 C   0  0  0  0  0  0  0  0  0  0  0  0
    4.6843   -2.3663    2.6545 C   0  0  0  0  0  0  0  0  0  0  0  0
    4.6198   -3.5772    1.9731 C   0  0  0  0  0  0  0  0  0  0  0  0
    4.2080   -1.1501    2.0294 C   0  0  0  0  0  0  0  0  0  0  0  0
    4.0944   -1.0935    0.8362 O   0  0  0  0  0  0  0  0  0  0  0  0
    3.8868   -0.0641    2.8003 N   0  0  0  0  0  0  0  0  0  0  0  0
    3.4030    1.1711    2.1655 C   0  0  3  0  0  0  0  0  0  0  0  0
    2.0188    1.4945    2.6784 C   0  0  0  0  0  0  0  0  0  0  0  0
    1.9385    2.9493    2.5336 N   0  0  0  0  0  0  0  0  0  0  0  0
    0.7589    3.6950    2.4239 C   0  0  0  0  0  0  0  0  0  0  0  0
    0.1505    4.1764    3.5787 C   0  0  0  0  0  0  0  0  0  0  0  0
   -1.0217    4.9177    3.4695 C   0  0  0  0  0  0  0  0  0  0  0  0
   -1.5711    5.1694    2.2168 C   0  0  0  0  0  0  0  0  0  0  0  0
   -2.7084    5.8887    2.1112 O   0  0  0  0  0  0  0  0  0  0  0  0
   -3.2424    6.1335    0.8955 C   0  0  0  0  0  0  0  0  0  0  0  0
   -2.8654    7.2738    0.1939 C   0  0  0  0  0  0  0  0  0  0  0  0
   -3.4199    7.5216   -1.0585 C   0  0  0  0  0  0  0  0  0  0  0  0
   -4.3426    6.6321   -1.5998 C   0  0  0  0  0  0  0  0  0  0  0  0
   -4.7158    5.4942   -0.8920 C   0  0  0  0  0  0  0  0  0  0  0  0
   -4.1654    5.2407    0.3604 C   0  0  0  0  0  0  0  0  0  0  0  0
   -0.9629    4.6881    1.0618 C   0  0  0  0  0  0  0  0  0  0  0  0
    0.2092    3.9466    1.1710 C   0  0  0  0  0  0  0  0  0  0  0  0
    3.2236    3.4872    2.5190 C   0  0  0  0  0  0  0  0  0  0  0  0
    3.5114    4.6662    2.3942 O   0  0  0  0  0  0  0  0  0  0  0  0
    4.2041    2.3444    2.6836 C   0  0  0  0  0  0  0  0  0  0  0  0
    6.0717   -5.8722    4.4898 C   0  0  0  0  0  0  0  0  0  0  0  0
    6.5434   -5.8990    5.6168 O   0  0  0  0  0  0  0  0  0  0  0  0
    5.9948   -7.0500    3.7943 N   0  0  0  0  0  0  0  0  0  0  0  0
    4.6482   -5.9696    1.0070 H   0  0  0  0  0  0  0  0  0  0  0  0
    6.0316   -3.4045    5.4653 H   0  0  0  0  0  0  0  0  0  0  0  0
    5.2429   -1.4014    4.4213 H   0  0  0  0  0  0  0  0  0  0  0  0
    4.2445   -3.6162    1.0470 H   0  0  0  0  0  0  0  0  0  0  0  0
    3.9814   -0.1112    3.7947 H   0  0  0  0  0  0  0  0  0  0  0  0
    3.4277    1.1130    1.1675 H   0  0  0  0  0  0  0  0  0  0  0  0
    1.3177    1.0404    2.1286 H   0  0  0  0  0  0  0  0  0  0  0  0
    1.9189    1.2236    3.6358 H   0  0  0  0  0  0  0  0  0  0  0  0
    0.5509    3.9919    4.4763 H   0  0  0  0  0  0  0  0  0  0  0  0
   -1.4692    5.2696    4.2917 H   0  0  0  0  0  0  0  0  0  0  0  0
   -2.2014    7.9104    0.5861 H   0  0  0  0  0  0  0  0  0  0  0  0
   -3.1549    8.3393   -1.5694 H   0  0  0  0  0  0  0  0  0  0  0  0
   -4.7387    6.8112   -2.5004 H   0  0  0  0  0  0  0  0  0  0  0  0
   -5.3803    4.8579   -1.2837 H   0  0  0  0  0  0  0  0  0  0  0  0
   -4.4311    4.4234    0.8717 H   0  0  0  0  0  0  0  0  0  0  0  0
   -1.3631    4.8729    0.1642 H   0  0  0  0  0  0  0  0  0  0  0  0
    0.6565    3.5944    0.3489 H   0  0  0  0  0  0  0  0  0  0  0  0
    4.4571    2.2172    3.6426 H   0  0  0  0  0  0  0  0  0  0  0  0
    5.0291    2.4912    2.1378 H   0  0  0  0  0  0  0  0  0  0  0  0
    6.3208   -7.8957    4.2166 H   0  0  0  0  0  0  0  0  0  0  0  0
  1  2  2  0  0  0  0
  2  3  1  0  0  0  0
  3  4  1  0  0  0  0
  4  5  1  0  0  0  0
  5  6  2  0  0  0  0
  6  7  1  0  0  0  0
  7  8  2  0  0  0  0
  8  9  1  0  0  0  0
  9  4  2  0  0  0  0
  8 10  1  0  0  0  0
 10 11  2  0  0  0  0
 10 12  1  0  0  0  0
 12 13  1  0  0  0  0
 13 14  1  0  0  0  0
 14 15  1  0  0  0  0
 15 16  1  0  0  0  0
 16 17  1  0  0  0  0
 17 18  2  0  0  0  0
 18 19  1  0  0  0  0
 19 20  1  0  0  0  0
 20 21  1  0  0  0  0
 21 22  1  0  0  0  0
 22 23  2  0  0  0  0
 23 24  1  0  0  0  0
 24 25  2  0  0  0  0
 25 26  1  0  0  0  0
 26 21  2  0  0  0  0
 19 27  2  0  0  0  0
 27 28  1  0  0  0  0
 28 16  2  0  0  0  0
 15 29  1  0  0  0  0
 29 30  2  0  0  0  0
 29 31  1  0  0  0  0
 31 13  1  0  0  0  0
  5 32  1  0  0  0  0
 32 33  2  0  0  0  0
 32 34  1  0  0  0  0
 34  2  1  0  0  0  0
  3 35  1  0  0  0  0
  6 36  1  0  0  0  0
  7 37  1  0  0  0  0
  9 38  1  0  0  0  0
 12 39  1  0  0  0  0
 13 40  1  0  0  0  0
 14 41  1  0  0  0  0
 14 42  1  0  0  0  0
 17 43  1  0  0  0  0
 18 44  1  0  0  0  0
 22 45  1  0  0  0  0
 23 46  1  0  0  0  0
 24 47  1  0  0  0  0
 25 48  1  0  0  0  0
 26 49  1  0  0  0  0
 27 50  1  0  0  0  0
 28 51  1  0  0  0  0
 31 52  1  0  0  0  0
 31 53  1  0  0  0  0
 34 54  1  0  0  0  0
M  END
>  <result-rank>
90

>  <similarity>
0.867

>  <query-name>


>  <query-smiles>
S1C(C(=O)NC2=Nc3c(N2CCC(=O)N)ccc(N(C(=O)c4ccccc4)C)c3)=CC=C1/C=C/c5ncc(N)cn5

>  <source>
REALspace_2019-12

>  <similarity-descriptor>
0.930;0.998;0.863;0.772;0.946;0.999;1.000;0.772;0.772;0.772;0.0;0.946;0.156;0.0;0.930;0.863;0.863;0.0

>  <similarity-descriptor-smiles>
c1ccccc1;c1ccccc1;S=C1NC(ccN1)=O;C1CC(NC1)=O;c1ccccc1;C=O;N;C1CC(NC1)=O;C1CC(NC1)=O;C1CC(NC1)=O;;c1ccccc1;O;;c1ccccc1;S=C1NC(ccN1)=O;S=C1NC(ccN1)=O;

>  <reaction-name>
s_527a

>  <reagent1-name>
1723392

>  <reagent1-smiles>
[R1*]NC1CN(c2ccc(Oc3ccccc3)cc2)C(=O)C1

>  <reagent2-name>
626840

>  <reagent2-smiles>
[R1*]C(=O)c1cc2N=C(S)NC(=O)c2cc1

$$$$
s_270196____8770750____8783888
          04022017353D 1   1.00000     0.00000     0
            
 51 55  0  0  0  0            999 V2000
    9.4217   -1.8519    2.4025 F   0  0  0  0  0  0  0  0  0  0  0  0
    9.9724   -0.6404    2.4078 C   0  0  0  0  0  0  0  0  0  0  0  0
    9.1893    0.5097    2.4218 C   0  0  0  0  0  0  0  0  0  0  0  0
    9.8043    1.7579    2.4212 C   0  0  0  0  0  0  0  0  0  0  0  0
   11.1904    1.8772    2.4108 C   0  0  0  0  0  0  0  0  0  0  0  0
   11.9587    0.7167    2.4053 C   0  0  0  0  0  0  0  0  0  0  0  0
   13.3557    0.8042    2.4090 N   0  0  0  0  0  0  0  0  0  0  0  0
   14.0125    1.9810    2.0275 C   0  0  0  0  0  0  0  0  0  0  0  0
   15.2338    1.9991    2.0045 O   0  0  0  0  0  0  0  0  0  0  0  0
   13.1841    3.1971    1.6419 C   0  0  0  0  0  0  0  0  0  0  0  0
   11.8686    3.2388    2.4047 C   0  0  0  0  0  0  0  0  0  0  0  0
   11.3591   -0.5380    2.3999 C   0  0  0  0  0  0  0  0  0  0  0  0
    7.7441    0.3909    2.4378 C   0  0  0  0  0  0  0  0  0  0  0  0
    7.0691   -0.7329    2.4406 O   0  0  0  0  0  0  0  0  0  0  0  0
    5.8269   -0.4812    2.4568 N   0  0  0  0  0  0  0  0  0  0  0  0
    5.6615    0.8207    2.4636 C   0  0  0  0  0  0  0  0  0  0  0  0
    6.8961    1.3879    2.4505 N   0  0  0  0  0  0  0  0  0  0  0  0
    4.3934    1.5238    2.4792 C   0  0  0  0  0  0  0  0  0  0  0  0
    4.3889    2.9151    2.4847 C   0  0  0  0  0  0  0  0  0  0  0  0
    3.1774    3.5986    2.4996 C   0  0  0  0  0  0  0  0  0  0  0  0
    1.9850    2.8822    2.5096 C   0  0  0  0  0  0  0  0  0  0  0  0
    0.7615    3.5615    2.5249 N   0  0  0  0  0  0  0  0  0  0  0  0
    0.2750    4.0700    3.7003 C   0  0  0  0  0  0  0  0  0  0  0  0
   -0.4147    5.0520    3.6893 O   0  0  0  0  0  0  0  0  0  0  0  0
    0.5935    3.4214    4.9583 C   0  0  0  0  0  0  0  0  0  0  0  0
    1.5269    3.9953    5.8138 C   0  0  0  0  0  0  0  0  0  0  0  0
    1.8128    3.3525    7.0135 C   0  0  0  0  0  0  0  0  0  0  0  0
    1.2009    2.2036    7.3385 N   0  0  0  0  0  0  0  0  0  0  0  0
    0.2979    1.6356    6.5256 C   0  0  0  0  0  0  0  0  0  0  0  0
   -0.0306    2.2302    5.3116 C   0  0  0  0  0  0  0  0  0  0  0  0
   -0.0015    3.7293    1.2797 C   0  0  0  0  0  0  0  0  0  0  0  0
    1.9902    1.4907    2.5042 C   0  0  0  0  0  0  0  0  0  0  0  0
    3.2017    0.8073    2.4891 C   0  0  0  0  0  0  0  0  0  0  0  0
    9.2402    2.5835    2.4284 H   0  0  0  0  0  0  0  0  0  0  0  0
   13.8956    0.0106    2.6895 H   0  0  0  0  0  0  0  0  0  0  0  0
   12.9904    3.1610    0.6615 H   0  0  0  0  0  0  0  0  0  0  0  0
   13.7060    4.0248    1.8482 H   0  0  0  0  0  0  0  0  0  0  0  0
   12.0478    3.5178    3.3482 H   0  0  0  0  0  0  0  0  0  0  0  0
   11.2609    3.9035    1.9702 H   0  0  0  0  0  0  0  0  0  0  0  0
   11.9232   -1.3636    2.3904 H   0  0  0  0  0  0  0  0  0  0  0  0
    5.2515    3.4208    2.4781 H   0  0  0  0  0  0  0  0  0  0  0  0
    3.1638    4.5985    2.5030 H   0  0  0  0  0  0  0  0  0  0  0  0
    1.9828    4.8518    5.5719 H   0  0  0  0  0  0  0  0  0  0  0  0
    2.4818    3.7510    7.6408 H   0  0  0  0  0  0  0  0  0  0  0  0
   -0.1423    0.7787    6.7940 H   0  0  0  0  0  0  0  0  0  0  0  0
   -0.7036    1.8085    4.7039 H   0  0  0  0  0  0  0  0  0  0  0  0
   -0.8438    4.2336    1.4703 H   0  0  0  0  0  0  0  0  0  0  0  0
    0.5488    4.2378    0.6175 H   0  0  0  0  0  0  0  0  0  0  0  0
   -0.2288    2.8307    0.9043 H   0  0  0  0  0  0  0  0  0  0  0  0
    1.1277    0.9848    2.5111 H   0  0  0  0  0  0  0  0  0  0  0  0
    3.2155   -0.1926    2.4853 H   0  0  0  0  0  0  0  0  0  0  0  0
  1  2  1  0  0  0  0
  2  3  1  0  0  0  0
  3  4  2  0  0  0  0
  4  5  1  0  0  0  0
  5  6  2  0  0  0  0
  6  7  1  0  0  0  0
  7  8  1  0  0  0  0
  8  9  2  0  0  0  0
  8 10  1  0  0  0  0
 10 11  1  0  0  0  0
 11  5  1  0  0  0  0
  6 12  1  0  0  0  0
 12  2  2  0  0  0  0
  3 13  1  0  0  0  0
 13 14  1  0  0  0  0
 14 15  1  0  0  0  0
 15 16  2  0  0  0  0
 16 17  1  0  0  0  0
 13 17  2  0  0  0  0
 16 18  1  0  0  0  0
 18 19  1  0  0  0  0
 19 20  2  0  0  0  0
 20 21  1  0  0  0  0
 21 22  1  0  0  0  0
 22 23  1  0  0  0  0
 23 24  2  0  0  0  0
 23 25  1  0  0  0  0
 25 26  1  0  0  0  0
 26 27  2  0  0  0  0
 27 28  1  0  0  0  0
 28 29  2  0  0  0  0
 29 30  1  0  0  0  0
 30 25  2  0  0  0  0
 22 31  1  0  0  0  0
 21 32  2  0  0  0  0
 32 33  1  0  0  0  0
 33 18  2  0  0  0  0
  4 34  1  0  0  0  0
  7 35  1  0  0  0  0
 10 36  1  0  0  0  0
 10 37  1  0  0  0  0
 11 38  1  0  0  0  0
 11 39  1  0  0  0  0
 12 40  1  0  0  0  0
 19 41  1  0  0  0  0
 20 42  1  0  0  0  0
 26 43  1  0  0  0  0
 27 44  1  0  0  0  0
 29 45  1  0  0  0  0
 30 46  1  0  0  0  0
 31 47  1  0  0  0  0
 31 48  1  0  0  0  0
 31 49  1  0  0  0  0
 32 50  1  0  0  0  0
 33 51  1  0  0  0  0
M  END
>  <result-rank>
91

>  <similarity>
0.867

>  <query-name>


>  <query-smiles>
S1C(C(=O)NC2=Nc3c(N2CCC(=O)N)ccc(N(C(=O)c4ccccc4)C)c3)=CC=C1/C=C/c5ncc(N)cn5

>  <source>
REALspace_2019-12

>  <similarity-descriptor>
0.970;0.859;0.801;0.801;0.939;0.801;0.801;0.0;0.0;0.0;0.0;1.000;1.000;1.000;0.970;0.801;0.801;0.0

>  <similarity-descriptor-smiles>
Fc1ccccc1;c1ccncc1;c1CCC(Nc1)=O;C1=NC=NO1;c1ccccc1;C1=NC=NO1;C1=NC=NO1;;;;;N;C=O;C;Fc1ccccc1;c1CCC(Nc1)=O;c1CCC(Nc1)=O;

>  <reaction-name>
s_270196

>  <reagent1-name>
8770750

>  <reagent1-smiles>
[R1*]=NC(=NO[R2*])c1ccc(N(C(=O)c2ccncc2)C)cc1

>  <reagent2-name>
8783888

>  <reagent2-smiles>
[R1*]C([R2*])c1c(F)cc2NC(=O)CCc2c1

$$$$
m_274860a____15212420____17209716____17176702
          04022017353D 1   1.00000     0.00000     0
            
 60 64  0  0  0  0            999 V2000
    2.6245    5.3395    4.5475 O   0  0  0  0  0  0  0  0  0  0  0  0
    1.6163    4.7005    4.6710 C   0  0  0  0  0  0  0  0  0  0  0  0
    1.3534    4.0572    5.8517 N   0  0  0  0  0  0  0  0  0  0  0  0
    0.1771    3.3115    5.9959 C   0  0  0  0  0  0  0  0  0  0  0  0
    0.1716    1.9618    5.6588 C   0  0  0  0  0  0  0  0  0  0  0  0
   -0.9989    1.2243    5.8036 C   0  0  0  0  0  0  0  0  0  0  0  0
   -2.1521    1.8370    6.2820 C   0  0  0  0  0  0  0  0  0  0  0  0
   -2.1349    3.1869    6.6165 C   0  0  0  0  0  0  0  0  0  0  0  0
   -0.9703    3.9344    6.4757 C   0  0  0  0  0  0  0  0  0  0  0  0
    2.3063    4.1497    6.9672 C   0  0  0  0  0  0  0  0  0  0  0  0
    0.6762    4.6091    3.5705 C   0  0  0  0  0  0  0  0  0  0  0  0
    0.9124    3.7211    2.5251 C   0  0  0  0  0  0  0  0  0  0  0  0
    2.0497    2.9042    2.5096 N   0  0  0  0  0  0  0  0  0  0  0  0
    3.2911    3.3246    2.5132 N   0  0  0  0  0  0  0  0  0  0  0  0
    4.0969    2.3529    2.4937 N   0  0  0  0  0  0  0  0  0  0  0  0
    3.3663    1.2031    2.4818 C   0  0  0  0  0  0  0  0  0  0  0  0
    3.8960   -0.1472    2.4591 C   0  0  0  0  0  0  0  0  0  0  0  0
    5.2742   -0.3360    2.4477 C   0  0  0  0  0  0  0  0  0  0  0  0
    5.7775   -1.6324    2.4243 C   0  0  0  0  0  0  0  0  0  0  0  0
    7.1631   -1.8349    2.4120 N   0  0  0  0  0  0  0  0  0  0  0  0
    7.7061   -3.2007    2.3873 C   0  0  0  0  0  0  0  0  0  0  0  0
    9.2284   -3.1419    2.3781 C   0  0  0  0  0  0  0  0  0  0  0  0
   10.0096   -3.1283    3.4343 O   0  0  0  0  0  0  0  0  0  0  0  0
   11.2738   -3.0726    3.0753 C   0  0  0  0  0  0  0  0  0  0  0  0
   11.3240   -3.0431    1.7140 C   0  0  0  0  0  0  0  0  0  0  0  0
    9.9885   -3.0865    1.2509 C   0  0  0  0  0  0  0  0  0  0  0  0
    4.9261   -2.7322    2.4128 C   0  0  0  0  0  0  0  0  0  0  0  0
    3.5517   -2.5199    2.4251 C   0  0  0  0  0  0  0  0  0  0  0  0
    3.0263   -1.2322    2.4486 C   0  0  0  0  0  0  0  0  0  0  0  0
    2.0516    1.5447    2.4890 C   0  0  0  0  0  0  0  0  0  0  0  0
    0.0149    3.6276    1.4660 C   0  0  0  0  0  0  0  0  0  0  0  0
   -1.1211    4.4306    1.4639 C   0  0  0  0  0  0  0  0  0  0  0  0
   -1.3652    5.3206    2.5048 C   0  0  0  0  0  0  0  0  0  0  0  0
   -0.4628    5.4088    3.5601 C   0  0  0  0  0  0  0  0  0  0  0  0
   -2.1071    4.3350    0.3105 C   0  0  0  0  0  0  0  0  0  0  0  0
    1.0029    1.5251    5.3149 H   0  0  0  0  0  0  0  0  0  0  0  0
   -1.0111    0.2536    5.5636 H   0  0  0  0  0  0  0  0  0  0  0  0
   -2.9937    1.3069    6.3856 H   0  0  0  0  0  0  0  0  0  0  0  0
   -2.9661    3.6234    6.9607 H   0  0  0  0  0  0  0  0  0  0  0  0
   -0.9582    4.9051    6.7159 H   0  0  0  0  0  0  0  0  0  0  0  0
    3.0842    4.7162    6.6950 H   0  0  0  0  0  0  0  0  0  0  0  0
    1.8544    4.5620    7.7583 H   0  0  0  0  0  0  0  0  0  0  0  0
    2.6286    3.2340    7.2071 H   0  0  0  0  0  0  0  0  0  0  0  0
    5.8939    0.4487    2.4561 H   0  0  0  0  0  0  0  0  0  0  0  0
    7.7831   -1.0504    2.4200 H   0  0  0  0  0  0  0  0  0  0  0  0
    7.3858   -3.6720    1.5655 H   0  0  0  0  0  0  0  0  0  0  0  0
    7.3966   -3.6972    3.1983 H   0  0  0  0  0  0  0  0  0  0  0  0
   12.0600   -3.0551    3.6930 H   0  0  0  0  0  0  0  0  0  0  0  0
   12.1484   -2.9992    1.1498 H   0  0  0  0  0  0  0  0  0  0  0  0
    9.6720   -3.0782    0.3024 H   0  0  0  0  0  0  0  0  0  0  0  0
    5.2964   -3.6610    2.3960 H   0  0  0  0  0  0  0  0  0  0  0  0
    2.9319   -3.3046    2.4170 H   0  0  0  0  0  0  0  0  0  0  0  0
    2.0367   -1.0887    2.4577 H   0  0  0  0  0  0  0  0  0  0  0  0
    1.2610    0.9324    2.4809 H   0  0  0  0  0  0  0  0  0  0  0  0
    0.1847    2.9900    0.7145 H   0  0  0  0  0  0  0  0  0  0  0  0
   -2.1846    5.8937    2.4946 H   0  0  0  0  0  0  0  0  0  0  0  0
   -0.6327    6.0468    4.3111 H   0  0  0  0  0  0  0  0  0  0  0  0
   -2.8612    4.9738    0.4628 H   0  0  0  0  0  0  0  0  0  0  0  0
   -1.6429    4.5651   -0.5448 H   0  0  0  0  0  0  0  0  0  0  0  0
   -2.4657    3.4031    0.2549 H   0  0  0  0  0  0  0  0  0  0  0  0
  1  2  2  0  0  0  0
  2  3  1  0  0  0  0
  3  4  1  0  0  0  0
  4  5  1  0  0  0  0
  5  6  2  0  0  0  0
  6  7  1  0  0  0  0
  7  8  2  0  0  0  0
  8  9  1  0  0  0  0
  9  4  2  0  0  0  0
  3 10  1  0  0  0  0
  2 11  1  0  0  0  0
 11 12  1  0  0  0  0
 12 13  1  0  0  0  0
 13 14  1  0  0  0  0
 14 15  2  0  0  0  0
 15 16  1  0  0  0  0
 16 17  1  0  0  0  0
 17 18  1  0  0  0  0
 18 19  2  0  0  0  0
 19 20  1  0  0  0  0
 20 21  1  0  0  0  0
 21 22  1  0  0  0  0
 22 23  1  0  0  0  0
 23 24  1  0  0  0  0
 24 25  2  0  0  0  0
 25 26  1  0  0  0  0
 22 26  2  0  0  0  0
 19 27  1  0  0  0  0
 27 28  2  0  0  0  0
 28 29  1  0  0  0  0
 29 17  2  0  0  0  0
 16 30  2  0  0  0  0
 30 13  1  0  0  0  0
 12 31  2  0  0  0  0
 31 32  1  0  0  0  0
 32 33  2  0  0  0  0
 33 34  1  0  0  0  0
 34 11  2  0  0  0  0
 32 35  1  0  0  0  0
  5 36  1  0  0  0  0
  6 37  1  0  0  0  0
  7 38  1  0  0  0  0
  8 39  1  0  0  0  0
  9 40  1  0  0  0  0
 10 41  1  0  0  0  0
 10 42  1  0  0  0  0
 10 43  1  0  0  0  0
 18 44  1  0  0  0  0
 20 45  1  0  0  0  0
 21 46  1  0  0  0  0
 21 47  1  0  0  0  0
 24 48  1  0  0  0  0
 25 49  1  0  0  0  0
 26 50  1  0  0  0  0
 27 51  1  0  0  0  0
 28 52  1  0  0  0  0
 29 53  1  0  0  0  0
 30 54  1  0  0  0  0
 31 55  1  0  0  0  0
 33 56  1  0  0  0  0
 34 57  1  0  0  0  0
 35 58  1  0  0  0  0
 35 59  1  0  0  0  0
 35 60  1  0  0  0  0
M  END
>  <result-rank>
92

>  <similarity>
0.866

>  <query-name>


>  <query-smiles>
S1C(C(=O)NC2=Nc3c(N2CCC(=O)N)ccc(N(C(=O)c4ccccc4)C)c3)=CC=C1/C=C/c5ncc(N)cn5

>  <source>
REALspace_2019-12

>  <similarity-descriptor>
0.934;0.992;0.834;0.765;0.993;0.765;0.765;0.0;0.0;0.0;0.0;0.993;1.000;0.995;0.934;0.204;0.0;0.091

>  <similarity-descriptor-smiles>
c1ccccc1;Nc1ccccc1;CC1=CC=CO1;N1C=CN=N1;c1ccccc1;N1C=CN=N1;N1C=CN=N1;;;;;c1ccccc1;O=C;C;c1ccccc1;N;;C

>  <reaction-name>
m_274860a

>  <reagent1-name>
15212420

>  <reagent1-smiles>
[R3*]N(c1ccccc1)C

>  <reagent2-name>
17209716

>  <reagent2-smiles>
[R1*]N=NN([R2*])c1c(ccc(c1)C)C([R3*])=O

>  <reagent3-name>
17176702

>  <reagent3-smiles>
[R1*]C(c1cc(NCC=2OC=CC2)ccc1)=C[R2*]

$$$$
s_7a____1027186____5444
          04022017353D 1   1.00000     0.00000     0
            
 55 59  0  0  0  0            999 V2000
    1.0000    1.0000    1.0000 S   0  0  0  0  0  0  0  0  0  0  0  0
    1.0000    2.2303    2.2303 C   0  0  0  0  0  0  0  0  0  0  0  0
    0.2614    2.2260    3.3132 N   0  0  0  0  0  0  0  0  0  0  0  0
    0.5347    3.3494    4.0368 C   0  0  0  0  0  0  0  0  0  0  0  0
    1.4789    4.0577    3.3554 C   0  0  0  0  0  0  0  0  0  0  0  0
    1.7649    3.3562    2.2259 N   0  0  0  0  0  0  0  0  0  0  0  0
    2.6845    3.7239    1.2358 C   0  0  0  0  0  0  0  0  0  0  0  0
    2.5091    4.9196    0.5473 C   0  0  0  0  0  0  0  0  0  0  0  0
    3.4293    5.2748   -0.4336 C   0  0  0  0  0  0  0  0  0  0  0  0
    4.5112    4.4527   -0.7294 C   0  0  0  0  0  0  0  0  0  0  0  0
    4.6670    3.2616   -0.0282 C   0  0  0  0  0  0  0  0  0  0  0  0
    3.7595    2.8867    0.9569 C   0  0  0  0  0  0  0  0  0  0  0  0
    3.2516    6.5212   -1.1530 C   0  0  0  0  0  0  0  0  0  0  0  0
    2.6409    7.4229   -0.6492 O   0  0  0  0  0  0  0  0  0  0  0  0
    3.7810    6.6692   -2.4079 N   0  0  0  0  0  0  0  0  0  0  0  0
    3.9875    7.9503   -2.9340 C   0  0  0  0  0  0  0  0  0  0  0  0
    4.8348    8.8364   -2.2764 C   0  0  0  0  0  0  0  0  0  0  0  0
    5.0376   10.1081   -2.8022 C   0  0  0  0  0  0  0  0  0  0  0  0
    4.3954   10.4855   -3.9766 C   0  0  0  0  0  0  0  0  0  0  0  0
    3.5509    9.5912   -4.6258 C   0  0  0  0  0  0  0  0  0  0  0  0
    3.3404    8.3169   -4.1094 C   0  0  0  0  0  0  0  0  0  0  0  0
   -0.2385   -0.1118    1.7114 C   0  0  0  0  0  0  0  0  0  0  0  0
   -0.4299   -1.3096    0.7953 C   0  0  0  0  0  0  0  0  0  0  0  0
    0.4016   -2.1738    0.7561 O   0  0  0  0  0  0  0  0  0  0  0  0
   -1.5518   -1.4024    0.0145 N   0  0  0  0  0  0  0  0  0  0  0  0
   -1.9475   -2.6438   -0.4975 C   0  0  0  0  0  0  0  0  0  0  0  0
   -2.4316   -2.7012   -1.7997 C   0  0  0  0  0  0  0  0  0  0  0  0
   -2.8331   -3.9224   -2.3293 C   0  0  0  0  0  0  0  0  0  0  0  0
   -3.3359   -4.2259   -3.5594 N   0  0  0  0  0  0  0  0  0  0  0  0
   -3.5726   -5.5674   -3.5771 C   0  0  0  0  0  0  0  0  0  0  0  0
   -4.0255   -6.1903   -4.5248 O   0  0  0  0  0  0  0  0  0  0  0  0
   -3.2226   -6.1036   -2.3737 N   0  0  0  0  0  0  0  0  0  0  0  0
   -2.7614   -5.0833   -1.5959 C   0  0  0  0  0  0  0  0  0  0  0  0
   -2.2761   -5.0177   -0.2936 C   0  0  0  0  0  0  0  0  0  0  0  0
   -1.8690   -3.8080    0.2602 C   0  0  0  0  0  0  0  0  0  0  0  0
    0.1180    3.6067    4.9087 H   0  0  0  0  0  0  0  0  0  0  0  0
    1.8847    4.9284    3.6334 H   0  0  0  0  0  0  0  0  0  0  0  0
    1.7330    5.5152    0.7544 H   0  0  0  0  0  0  0  0  0  0  0  0
    5.1682    4.7142   -1.4364 H   0  0  0  0  0  0  0  0  0  0  0  0
    5.4429    2.6658   -0.2355 H   0  0  0  0  0  0  0  0  0  0  0  0
    3.8781    2.0288    1.4567 H   0  0  0  0  0  0  0  0  0  0  0  0
    4.0199    5.8623   -2.9482 H   0  0  0  0  0  0  0  0  0  0  0  0
    5.2946    8.5611   -1.4322 H   0  0  0  0  0  0  0  0  0  0  0  0
    5.6452   10.7510   -2.3358 H   0  0  0  0  0  0  0  0  0  0  0  0
    4.5408   11.4000   -4.3543 H   0  0  0  0  0  0  0  0  0  0  0  0
    3.0915    9.8664   -5.4704 H   0  0  0  0  0  0  0  0  0  0  0  0
    2.7329    7.6741   -4.5761 H   0  0  0  0  0  0  0  0  0  0  0  0
   -1.1065    0.3751    1.8092 H   0  0  0  0  0  0  0  0  0  0  0  0
    0.0711   -0.4249    2.6092 H   0  0  0  0  0  0  0  0  0  0  0  0
   -2.0881   -0.5834   -0.1897 H   0  0  0  0  0  0  0  0  0  0  0  0
   -2.4905   -1.8695   -2.3518 H   0  0  0  0  0  0  0  0  0  0  0  0
   -3.5003   -3.5841   -4.3084 H   0  0  0  0  0  0  0  0  0  0  0  0
   -3.2914   -7.0658   -2.1105 H   0  0  0  0  0  0  0  0  0  0  0  0
   -2.2190   -5.8531    0.2530 H   0  0  0  0  0  0  0  0  0  0  0  0
   -1.5220   -3.7756    1.1975 H   0  0  0  0  0  0  0  0  0  0  0  0
  1  2  1  0  0  0  0
  2  3  2  0  0  0  0
  3  4  1  0  0  0  0
  4  5  2  0  0  0  0
  5  6  1  0  0  0  0
  6  2  1  0  0  0  0
  6  7  1  0  0  0  0
  7  8  1  0  0  0  0
  8  9  2  0  0  0  0
  9 10  1  0  0  0  0
 10 11  2  0  0  0  0
 11 12  1  0  0  0  0
 12  7  2  0  0  0  0
  9 13  1  0  0  0  0
 13 14  2  0  0  0  0
 13 15  1  0  0  0  0
 15 16  1  0  0  0  0
 16 17  1  0  0  0  0
 17 18  2  0  0  0  0
 18 19  1  0  0  0  0
 19 20  2  0  0  0  0
 20 21  1  0  0  0  0
 21 16  2  0  0  0  0
  1 22  1  0  0  0  0
 22 23  1  0  0  0  0
 23 24  2  0  0  0  0
 23 25  1  0  0  0  0
 25 26  1  0  0  0  0
 26 27  1  0  0  0  0
 27 28  2  0  0  0  0
 28 29  1  0  0  0  0
 29 30  1  0  0  0  0
 30 31  2  0  0  0  0
 30 32  1  0  0  0  0
 32 33  1  0  0  0  0
 33 28  1  0  0  0  0
 33 34  2  0  0  0  0
 34 35  1  0  0  0  0
 35 26  2  0  0  0  0
  4 36  1  0  0  0  0
  5 37  1  0  0  0  0
  8 38  1  0  0  0  0
 10 39  1  0  0  0  0
 11 40  1  0  0  0  0
 12 41  1  0  0  0  0
 15 42  1  0  0  0  0
 17 43  1  0  0  0  0
 18 44  1  0  0  0  0
 19 45  1  0  0  0  0
 20 46  1  0  0  0  0
 21 47  1  0  0  0  0
 22 48  1  0  0  0  0
 22 49  1  0  0  0  0
 25 50  1  0  0  0  0
 27 51  1  0  0  0  0
 29 52  1  0  0  0  0
 32 53  1  0  0  0  0
 34 54  1  0  0  0  0
 35 55  1  0  0  0  0
M  END
>  <result-rank>
93

>  <similarity>
0.866

>  <query-name>


>  <query-smiles>
S1C(C(=O)NC2=Nc3c(N2CCC(=O)N)ccc(N(C(=O)c4ccccc4)C)c3)=CC=C1/C=C/c5ncc(N)cn5

>  <source>
REALspace_2019-12

>  <similarity-descriptor>
0.934;0.998;0.863;0.886;0.948;0.746;0.179;0.886;0.0;0.0;0.0;0.948;0.852;0.0;0.934;0.863;0.863;0.0

>  <similarity-descriptor-smiles>
c1ccccc1;c1ccccc1;c1cNC(N1)=O;C=1NC=CN1;c1ccccc1;CC(=O)N;S;C=1NC=CN1;;;;c1ccccc1;C(=O)N;;c1ccccc1;c1cNC(N1)=O;c1cNC(N1)=O;

>  <reaction-name>
s_7a

>  <reagent1-name>
1027186

>  <reagent1-smiles>
[R1*]SC1=NC=CN1c2cc(ccc2)C(=O)Nc3ccccc3

>  <reagent2-name>
5444

>  <reagent2-smiles>
[R1*]CC(=O)Nc1cc2NC(=O)Nc2cc1

$$$$
s_270196____9437302____10226442
          04022017353D 1   1.00000     0.00000     0
            
 46 51  0  0  0  0            999 V2000
    5.6258   -7.6879    1.1142 Cl  0  0  0  0  0  0  0  0  0  0  0  0
    5.7049   -6.1043    1.9211 C   0  0  0  0  0  0  0  0  0  0  0  0
    6.5135   -5.7647    3.0319 C   0  0  0  0  0  0  0  0  0  0  0  0
    6.2702   -4.5052    3.3103 N   0  0  0  0  0  0  0  0  0  0  0  0
    5.3768   -4.0151    2.4772 N   0  0  0  0  0  0  0  0  0  0  0  0
    4.8811   -2.7026    2.4845 C   0  0  0  0  0  0  0  0  0  0  0  0
    3.5152   -2.4826    2.3484 C   0  0  0  0  0  0  0  0  0  0  0  0
    2.6866   -3.5135    2.2112 F   0  0  0  0  0  0  0  0  0  0  0  0
    3.0080   -1.1874    2.3541 C   0  0  0  0  0  0  0  0  0  0  0  0
    3.8900   -0.1218    2.4978 C   0  0  0  0  0  0  0  0  0  0  0  0
    5.2572   -0.3378    2.6334 C   0  0  0  0  0  0  0  0  0  0  0  0
    5.7608   -1.6348    2.6271 C   0  0  0  0  0  0  0  0  0  0  0  0
    3.3683    1.2311    2.5037 C   0  0  0  0  0  0  0  0  0  0  0  0
    4.0764    2.3360    2.4914 N   0  0  0  0  0  0  0  0  0  0  0  0
    3.2848    3.3259    2.4991 O   0  0  0  0  0  0  0  0  0  0  0  0
    2.0463    2.8968    2.5180 C   0  0  0  0  0  0  0  0  0  0  0  0
    2.0573    1.5880    2.5200 N   0  0  0  0  0  0  0  0  0  0  0  0
    0.8598    3.7340    2.5327 C   0  0  0  0  0  0  0  0  0  0  0  0
    0.9710    5.1206    2.5274 C   0  0  0  0  0  0  0  0  0  0  0  0
   -0.1585    5.9310    2.5415 C   0  0  0  0  0  0  0  0  0  0  0  0
   -0.2943    7.2389    2.5438 O   0  0  0  0  0  0  0  0  0  0  0  0
   -1.5723    7.5365    2.5638 C   0  0  0  0  0  0  0  0  0  0  0  0
   -2.2908    6.4369    2.5754 N   0  0  0  0  0  0  0  0  0  0  0  0
   -1.4181    5.3874    2.5618 C   0  0  0  0  0  0  0  0  0  0  0  0
   -1.5467    4.0030    2.5670 C   0  0  0  0  0  0  0  0  0  0  0  0
   -0.4196    3.1884    2.5522 C   0  0  0  0  0  0  0  0  0  0  0  0
   -2.1122    8.8825    2.5723 C   0  0  0  0  0  0  0  0  0  0  0  0
   -3.4901    9.0722    2.5940 C   0  0  0  0  0  0  0  0  0  0  0  0
   -4.0037   10.3650    2.6012 C   0  0  0  0  0  0  0  0  0  0  0  0
   -3.1413   11.4561    2.5882 C   0  0  0  0  0  0  0  0  0  0  0  0
   -1.7667   11.2546    2.5671 C   0  0  0  0  0  0  0  0  0  0  0  0
   -1.2407    9.9669    2.5590 C   0  0  0  0  0  0  0  0  0  0  0  0
    4.9995   -4.9855    1.5953 C   0  0  0  0  0  0  0  0  0  0  0  0
    7.1488   -6.3689    3.5129 H   0  0  0  0  0  0  0  0  0  0  0  0
    2.0261   -1.0254    2.2565 H   0  0  0  0  0  0  0  0  0  0  0  0
    5.8784    0.4391    2.7355 H   0  0  0  0  0  0  0  0  0  0  0  0
    6.7428   -1.7972    2.7238 H   0  0  0  0  0  0  0  0  0  0  0  0
    1.8781    5.5412    2.5133 H   0  0  0  0  0  0  0  0  0  0  0  0
   -2.4572    3.5897    2.5815 H   0  0  0  0  0  0  0  0  0  0  0  0
   -0.5307    2.1946    2.5557 H   0  0  0  0  0  0  0  0  0  0  0  0
   -4.1068    8.2851    2.6043 H   0  0  0  0  0  0  0  0  0  0  0  0
   -4.9931   10.5098    2.6158 H   0  0  0  0  0  0  0  0  0  0  0  0
   -3.5104   12.3855    2.5940 H   0  0  0  0  0  0  0  0  0  0  0  0
   -1.1503   12.0420    2.5576 H   0  0  0  0  0  0  0  0  0  0  0  0
   -0.2512    9.8228    2.5439 H   0  0  0  0  0  0  0  0  0  0  0  0
    4.3346   -4.8934    0.8541 H   0  0  0  0  0  0  0  0  0  0  0  0
  1  2  1  0  0  0  0
  2  3  1  0  0  0  0
  3  4  2  0  0  0  0
  4  5  1  0  0  0  0
  5  6  1  0  0  0  0
  6  7  1  0  0  0  0
  7  8  1  0  0  0  0
  7  9  2  0  0  0  0
  9 10  1  0  0  0  0
 10 11  2  0  0  0  0
 11 12  1  0  0  0  0
 12  6  2  0  0  0  0
 10 13  1  0  0  0  0
 13 14  2  0  0  0  0
 14 15  1  0  0  0  0
 15 16  1  0  0  0  0
 16 17  2  0  0  0  0
 17 13  1  0  0  0  0
 16 18  1  0  0  0  0
 18 19  1  0  0  0  0
 19 20  2  0  0  0  0
 20 21  1  0  0  0  0
 21 22  1  0  0  0  0
 22 23  2  0  0  0  0
 23 24  1  0  0  0  0
 24 20  1  0  0  0  0
 24 25  2  0  0  0  0
 25 26  1  0  0  0  0
 26 18  2  0  0  0  0
 22 27  1  0  0  0  0
 27 28  1  0  0  0  0
 28 29  2  0  0  0  0
 29 30  1  0  0  0  0
 30 31  2  0  0  0  0
 31 32  1  0  0  0  0
 32 27  2  0  0  0  0
  5 33  1  0  0  0  0
  2 33  2  0  0  0  0
  3 34  1  0  0  0  0
  9 35  1  0  0  0  0
 11 36  1  0  0  0  0
 12 37  1  0  0  0  0
 19 38  1  0  0  0  0
 25 39  1  0  0  0  0
 26 40  1  0  0  0  0
 28 41  1  0  0  0  0
 29 42  1  0  0  0  0
 30 43  1  0  0  0  0
 31 44  1  0  0  0  0
 32 45  1  0  0  0  0
 33 46  1  0  0  0  0
M  END
>  <result-rank>
94

>  <similarity>
0.866

>  <query-name>


>  <query-smiles>
S1C(C(=O)NC2=Nc3c(N2CCC(=O)N)ccc(N(C(=O)c4ccccc4)C)c3)=CC=C1/C=C/c5ncc(N)cn5

>  <source>
REALspace_2019-12

>  <similarity-descriptor>
0.964;1.000;0.845;0.801;0.989;0.801;0.801;0.0;0.0;0.0;0.0;0.989;0.640;0.0;0.964;0.845;0.0;0.0

>  <similarity-descriptor-smiles>
c1ccccc1F;c1ccccc1;ClC1=CNN=C1;C=1N=CON1;c1ccccc1;C=1N=CON1;C=1N=CON1;;;;;c1ccccc1;c1cN=CO1;;c1ccccc1F;ClC1=CNN=C1;;

>  <reaction-name>
s_270196

>  <reagent1-name>
9437302

>  <reagent1-smiles>
[R1*]=NC(=NO[R2*])c1cc(F)c(N2N=CC(Cl)=C2)cc1

>  <reagent2-name>
10226442

>  <reagent2-smiles>
[R1*]C([R2*])c1cc2OC(=Nc2cc1)c3ccccc3

$$$$
s_270196____16763702____8785504
          04022017353D 1   1.00000     0.00000     0
            
 53 57  0  0  0  0            999 V2000
   -4.4638   12.5129    2.5771 Br  0  0  0  0  0  0  0  0  0  0  0  0
   -4.6513   10.5619    2.5876 C   0  0  0  0  0  0  0  0  0  0  0  0
   -3.5148    9.7603    2.5746 C   0  0  0  0  0  0  0  0  0  0  0  0
   -3.6638    8.3772    2.5816 C   0  0  0  0  0  0  0  0  0  0  0  0
   -4.9270    7.7953    2.6008 C   0  0  0  0  0  0  0  0  0  0  0  0
   -6.0511    8.6142    2.6134 C   0  0  0  0  0  0  0  0  0  0  0  0
   -5.9234    9.9992    2.6071 C   0  0  0  0  0  0  0  0  0  0  0  0
   -2.4807    7.5400    2.5673 C   0  0  0  0  0  0  0  0  0  0  0  0
   -1.3908    8.0418    2.5497 O   0  0  0  0  0  0  0  0  0  0  0  0
   -2.6067    6.1758    2.5740 N   0  0  0  0  0  0  0  0  0  0  0  0
   -1.4068    5.3267    2.5595 C   0  0  0  0  0  0  0  0  0  0  0  0
   -1.5442    3.9423    2.5663 C   0  0  0  0  0  0  0  0  0  0  0  0
   -0.4017    3.1486    2.5523 C   0  0  0  0  0  0  0  0  0  0  0  0
   -0.5577    1.7372    2.5589 O   0  0  0  0  0  0  0  0  0  0  0  0
    0.8618    3.7326    2.5327 C   0  0  0  0  0  0  0  0  0  0  0  0
    0.9881    5.1182    2.5269 C   0  0  0  0  0  0  0  0  0  0  0  0
   -0.1486    5.9202    2.5407 C   0  0  0  0  0  0  0  0  0  0  0  0
    2.0463    2.8968    2.5180 C   0  0  0  0  0  0  0  0  0  0  0  0
    3.2848    3.3259    2.4991 O   0  0  0  0  0  0  0  0  0  0  0  0
    4.0764    2.3360    2.4914 N   0  0  0  0  0  0  0  0  0  0  0  0
    3.3683    1.2311    2.5037 C   0  0  0  0  0  0  0  0  0  0  0  0
    2.0573    1.5880    2.5200 N   0  0  0  0  0  0  0  0  0  0  0  0
    3.8901   -0.1219    2.4978 C   0  0  0  0  0  0  0  0  0  0  0  0
    3.0110   -1.2000    2.5126 C   0  0  0  0  0  0  0  0  0  0  0  0
    3.5169   -2.4955    2.5078 C   0  0  0  0  0  0  0  0  0  0  0  0
    4.8933   -2.6978    2.4873 C   0  0  0  0  0  0  0  0  0  0  0  0
    5.7718   -1.6187    2.4700 C   0  0  0  0  0  0  0  0  0  0  0  0
    5.2659   -0.3230    2.4763 C   0  0  0  0  0  0  0  0  0  0  0  0
    5.4400   -4.1160    2.4836 C   0  0  0  0  0  0  0  0  0  0  0  0
    5.5950   -4.5781    1.0962 N   0  0  0  0  0  0  0  0  0  0  0  0
    6.6747   -4.4306    0.3647 N   0  0  0  0  0  0  0  0  0  0  0  0
    6.4232   -4.9691   -0.8049 C   0  0  0  0  0  0  0  0  0  0  0  0
    5.1555   -5.4692   -0.8112 N   0  0  0  0  0  0  0  0  0  0  0  0
    4.6404   -5.2264    0.3707 C   0  0  0  0  0  0  0  0  0  0  0  0
    7.3644   -5.0241   -1.9327 N   0  0  0  0  0  0  0  0  0  0  0  0
   -2.6037   10.1722    2.5604 H   0  0  0  0  0  0  0  0  0  0  0  0
   -5.0257    6.8002    2.6055 H   0  0  0  0  0  0  0  0  0  0  0  0
   -6.9622    8.2022    2.6272 H   0  0  0  0  0  0  0  0  0  0  0  0
   -6.7354   10.5828    2.6165 H   0  0  0  0  0  0  0  0  0  0  0  0
   -3.5150    5.7577    2.5887 H   0  0  0  0  0  0  0  0  0  0  0  0
   -2.4521    3.5233    2.5812 H   0  0  0  0  0  0  0  0  0  0  0  0
   -1.4733    1.3354    2.5730 H   0  0  0  0  0  0  0  0  0  0  0  0
    1.8958    5.5376    2.5128 H   0  0  0  0  0  0  0  0  0  0  0  0
   -0.0618    6.9164    2.5371 H   0  0  0  0  0  0  0  0  0  0  0  0
    2.0233   -1.0447    2.5266 H   0  0  0  0  0  0  0  0  0  0  0  0
    2.8943   -3.2779    2.5191 H   0  0  0  0  0  0  0  0  0  0  0  0
    6.7596   -1.7737    2.4532 H   0  0  0  0  0  0  0  0  0  0  0  0
    5.8883    0.4597    2.4653 H   0  0  0  0  0  0  0  0  0  0  0  0
    6.3290   -4.1318    2.9414 H   0  0  0  0  0  0  0  0  0  0  0  0
    4.8055   -4.7191    2.9669 H   0  0  0  0  0  0  0  0  0  0  0  0
    3.7215   -5.4706    0.6805 H   0  0  0  0  0  0  0  0  0  0  0  0
    7.0900   -5.4550   -2.7924 H   0  0  0  0  0  0  0  0  0  0  0  0
    8.2791   -4.6307   -1.8402 H   0  0  0  0  0  0  0  0  0  0  0  0
  1  2  1  0  0  0  0
  2  3  1  0  0  0  0
  3  4  2  0  0  0  0
  4  5  1  0  0  0  0
  5  6  2  0  0  0  0
  6  7  1  0  0  0  0
  7  2  2  0  0  0  0
  4  8  1  0  0  0  0
  8  9  2  0  0  0  0
  8 10  1  0  0  0  0
 10 11  1  0  0  0  0
 11 12  1  0  0  0  0
 12 13  2  0  0  0  0
 13 14  1  0  0  0  0
 13 15  1  0  0  0  0
 15 16  2  0  0  0  0
 16 17  1  0  0  0  0
 17 11  2  0  0  0  0
 15 18  1  0  0  0  0
 18 19  1  0  0  0  0
 19 20  1  0  0  0  0
 20 21  2  0  0  0  0
 21 22  1  0  0  0  0
 18 22  2  0  0  0  0
 21 23  1  0  0  0  0
 23 24  1  0  0  0  0
 24 25  2  0  0  0  0
 25 26  1  0  0  0  0
 26 27  2  0  0  0  0
 27 28  1  0  0  0  0
 28 23  2  0  0  0  0
 26 29  1  0  0  0  0
 29 30  1  0  0  0  0
 30 31  1  0  0  0  0
 31 32  2  0  0  0  0
 32 33  1  0  0  0  0
 33 34  2  0  0  0  0
 34 30  1  0  0  0  0
 32 35  1  0  0  0  0
  3 36  1  0  0  0  0
  5 37  1  0  0  0  0
  6 38  1  0  0  0  0
  7 39  1  0  0  0  0
 10 40  1  0  0  0  0
 12 41  1  0  0  0  0
 14 42  1  0  0  0  0
 16 43  1  0  0  0  0
 17 44  1  0  0  0  0
 24 45  1  0  0  0  0
 25 46  1  0  0  0  0
 27 47  1  0  0  0  0
 28 48  1  0  0  0  0
 29 49  1  0  0  0  0
 29 50  1  0  0  0  0
 34 51  1  0  0  0  0
 35 52  1  0  0  0  0
 35 53  1  0  0  0  0
M  END
>  <result-rank>
95

>  <similarity>
0.866

>  <query-name>


>  <query-smiles>
S1C(C(=O)NC2=Nc3c(N2CCC(=O)N)ccc(N(C(=O)c4ccccc4)C)c3)=CC=C1/C=C/c5ncc(N)cn5

>  <source>
REALspace_2019-12

>  <similarity-descriptor>
0.878;0.946;0.883;0.801;0.924;0.801;0.801;0.0;0.0;0.0;0.0;0.924;0.852;0.924;0.878;0.878;1.000;0.100

>  <similarity-descriptor-smiles>
c1ccccc1;Brc1ccccc1;CN1C=NC=N1;C1=NC=NO1;c1ccccc1;C1=NC=NO1;C1=NC=NO1;;;;;c1ccccc1;C(=O)N;c1ccccc1;c1ccccc1;c1ccccc1;N;O

>  <reaction-name>
s_270196

>  <reagent1-name>
16763702

>  <reagent1-smiles>
[R1*]=NC(=NO[R2*])c1ccc(cc1)CN2N=C(N=C2)N

>  <reagent2-name>
8785504

>  <reagent2-smiles>
[R1*]C([R2*])c1c(O)cc(NC(=O)c2cc(Br)ccc2)cc1

$$$$
s_2740a____3042536____13263494
          04022017353D 1   1.00000     0.00000     0
            
 47 50  0  0  0  0            999 V2000
   -2.0318    3.4066   -4.9570 Br  0  0  0  0  0  0  0  0  0  0  0  0
   -1.5759    4.4590   -3.3676 C   0  0  0  0  0  0  0  0  0  0  0  0
   -1.8164    5.8297   -3.3155 C   0  0  0  0  0  0  0  0  0  0  0  0
   -2.3687    6.4932   -4.3439 N   0  0  0  0  0  0  0  0  0  0  0  0
   -2.6019    7.8136   -4.2990 C   0  0  0  0  0  0  0  0  0  0  0  0
   -2.2611    8.5189   -3.1490 C   0  0  0  0  0  0  0  0  0  0  0  0
   -1.7102    7.8561   -2.1215 N   0  0  0  0  0  0  0  0  0  0  0  0
   -1.4755    6.5351   -2.1643 C   0  0  0  0  0  0  0  0  0  0  0  0
   -0.9029    5.8676   -1.0858 C   0  0  0  0  0  0  0  0  0  0  0  0
   -0.6660    4.4984   -1.1440 C   0  0  0  0  0  0  0  0  0  0  0  0
   -1.0041    3.7878   -2.2915 C   0  0  0  0  0  0  0  0  0  0  0  0
   -0.0702    3.8119   -0.0157 C   0  0  0  0  0  0  0  0  0  0  0  0
    0.1316    2.6303   -0.0708 O   0  0  0  0  0  0  0  0  0  0  0  0
    0.2627    4.5117    1.1140 N   0  0  0  0  0  0  0  0  0  0  0  0
    0.4648    3.7275    2.5286 S   0  0  0  0  0  0  0  0  0  0  0  0
   -0.6075    2.7840    2.7119 O   0  0  0  0  0  0  0  0  0  0  0  0
    0.4575    4.6784    3.6099 O   0  0  0  0  0  0  0  0  0  0  0  0
    1.9853    2.8812    2.5106 C   0  0  0  0  0  0  0  0  0  0  0  0
    3.1754    3.6010    2.5025 C   0  0  0  0  0  0  0  0  0  0  0  0
    4.3801    2.9063    2.4876 C   0  0  0  0  0  0  0  0  0  0  0  0
    5.5801    3.6272    2.4789 N   0  0  0  0  0  0  0  0  0  0  0  0
    6.6427    3.1975    3.2292 C   0  0  0  0  0  0  0  0  0  0  0  0
    6.4523    2.5957    4.2499 O   0  0  0  0  0  0  0  0  0  0  0  0
    7.9980    3.4699    2.7900 C   0  0  0  0  0  0  0  0  0  0  0  0
    9.0675    3.0277    3.5617 C   0  0  0  0  0  0  0  0  0  0  0  0
   10.3718    3.2813    3.1522 C   0  0  0  0  0  0  0  0  0  0  0  0
   10.5877    3.9788    1.9682 C   0  0  0  0  0  0  0  0  0  0  0  0
   12.2524    4.3110    1.4329 Cl  0  0  0  0  0  0  0  0  0  0  0  0
    9.5222    4.4235    1.1917 C   0  0  0  0  0  0  0  0  0  0  0  0
    8.2199    4.1667    1.6074 C   0  0  0  0  0  0  0  0  0  0  0  0
    4.4015    1.5153    2.4807 C   0  0  0  0  0  0  0  0  0  0  0  0
    3.2041    0.8073    2.4887 C   0  0  0  0  0  0  0  0  0  0  0  0
    1.9922    1.4901    2.5036 C   0  0  0  0  0  0  0  0  0  0  0  0
   -3.0140    8.2835   -5.0796 H   0  0  0  0  0  0  0  0  0  0  0  0
   -2.4243    9.5037   -3.0896 H   0  0  0  0  0  0  0  0  0  0  0  0
   -0.6594    6.3775   -0.2607 H   0  0  0  0  0  0  0  0  0  0  0  0
   -0.8376    2.8031   -2.3422 H   0  0  0  0  0  0  0  0  0  0  0  0
    0.3816    5.5037    1.0708 H   0  0  0  0  0  0  0  0  0  0  0  0
    3.1650    4.6009    2.5072 H   0  0  0  0  0  0  0  0  0  0  0  0
    5.6616    4.4557    1.9250 H   0  0  0  0  0  0  0  0  0  0  0  0
    8.8983    2.5275    4.4109 H   0  0  0  0  0  0  0  0  0  0  0  0
   11.1452    2.9661    3.7021 H   0  0  0  0  0  0  0  0  0  0  0  0
    9.6913    4.9234    0.3423 H   0  0  0  0  0  0  0  0  0  0  0  0
    7.4463    4.4819    1.0578 H   0  0  0  0  0  0  0  0  0  0  0  0
    5.2738    1.0266    2.4700 H   0  0  0  0  0  0  0  0  0  0  0  0
    3.2145   -0.1926    2.4838 H   0  0  0  0  0  0  0  0  0  0  0  0
    1.1301    0.9834    2.5091 H   0  0  0  0  0  0  0  0  0  0  0  0
  1  2  1  0  0  0  0
  2  3  1  0  0  0  0
  3  4  2  0  0  0  0
  4  5  1  0  0  0  0
  5  6  2  0  0  0  0
  6  7  1  0  0  0  0
  7  8  2  0  0  0  0
  8  3  1  0  0  0  0
  8  9  1  0  0  0  0
  9 10  2  0  0  0  0
 10 11  1  0  0  0  0
 11  2  2  0  0  0  0
 10 12  1  0  0  0  0
 12 13  2  0  0  0  0
 12 14  1  0  0  0  0
 14 15  1  0  0  0  0
 15 16  2  0  0  0  0
 15 17  2  0  0  0  0
 15 18  1  0  0  0  0
 18 19  1  0  0  0  0
 19 20  2  0  0  0  0
 20 21  1  0  0  0  0
 21 22  1  0  0  0  0
 22 23  2  0  0  0  0
 22 24  1  0  0  0  0
 24 25  1  0  0  0  0
 25 26  2  0  0  0  0
 26 27  1  0  0  0  0
 27 28  1  0  0  0  0
 27 29  2  0  0  0  0
 29 30  1  0  0  0  0
 30 24  2  0  0  0  0
 20 31  1  0  0  0  0
 31 32  2  0  0  0  0
 32 33  1  0  0  0  0
 33 18  2  0  0  0  0
  5 34  1  0  0  0  0
  6 35  1  0  0  0  0
  9 36  1  0  0  0  0
 11 37  1  0  0  0  0
 14 38  1  0  0  0  0
 19 39  1  0  0  0  0
 21 40  1  0  0  0  0
 25 41  1  0  0  0  0
 26 42  1  0  0  0  0
 29 43  1  0  0  0  0
 30 44  1  0  0  0  0
 31 45  1  0  0  0  0
 32 46  1  0  0  0  0
 33 47  1  0  0  0  0
M  END
>  <result-rank>
96

>  <similarity>
0.866

>  <query-name>


>  <query-smiles>
S1C(C(=O)NC2=Nc3c(N2CCC(=O)N)ccc(N(C(=O)c4ccccc4)C)c3)=CC=C1/C=C/c5ncc(N)cn5

>  <source>
REALspace_2019-12

>  <similarity-descriptor>
0.998;0.952;0.919;0.407;0.947;0.999;0.991;0.0;0.0;0.0;0.0;0.947;0.852;0.0;0.998;0.919;0.0;0.0

>  <similarity-descriptor-smiles>
Brc1ccccc1;c1ccc(cc1)Cl;c1cnccn1;S(=O)=O;c1ccccc1;C=O;N;;;;;c1ccccc1;NC=O;;Brc1ccccc1;c1cnccn1;;

>  <reaction-name>
s_2740a

>  <reagent1-name>
3042536

>  <reagent1-smiles>
[R1*]NS(=O)(=O)c1cc(NC(=O)c2ccc(Cl)cc2)ccc1

>  <reagent2-name>
13263494

>  <reagent2-smiles>
[R1*]C(=O)c1cc(Br)c2nccnc2c1

$$$$
s_22____16608454____13263488
          04022017353D 1   1.00000     0.00000     0
            
 56 59  0  0  0  0            999 V2000
   12.2117    7.1978   -3.8894 Br  0  0  0  0  0  0  0  0  0  0  0  0
   11.7578    5.8574   -2.5331 C   0  0  0  0  0  0  0  0  0  0  0  0
   12.4677    4.6636   -2.4314 C   0  0  0  0  0  0  0  0  0  0  0  0
   13.4908    4.3739   -3.2513 N   0  0  0  0  0  0  0  0  0  0  0  0
   14.1774    3.2252   -3.1579 C   0  0  0  0  0  0  0  0  0  0  0  0
   13.8184    2.3038   -2.1791 C   0  0  0  0  0  0  0  0  0  0  0  0
   12.7971    2.5933   -1.3597 N   0  0  0  0  0  0  0  0  0  0  0  0
   12.1083    3.7419   -1.4515 C   0  0  0  0  0  0  0  0  0  0  0  0
   11.0518    4.0216   -0.5900 C   0  0  0  0  0  0  0  0  0  0  0  0
   10.3473    5.2161   -0.6964 C   0  0  0  0  0  0  0  0  0  0  0  0
   10.7013    6.1413   -1.6736 C   0  0  0  0  0  0  0  0  0  0  0  0
    9.2493    5.4990    0.2056 C   0  0  0  0  0  0  0  0  0  0  0  0
    8.8803    6.6296    0.3655 O   0  0  0  0  0  0  0  0  0  0  0  0
    8.6324    4.4758    0.8759 N   0  0  0  0  0  0  0  0  0  0  0  0
    7.5178    4.7631    1.7916 C   0  0  3  0  0  0  0  0  0  0  0  0
    6.2654    4.0487    1.3415 C   0  0  0  0  0  0  0  0  0  0  0  0
    5.9208    3.8551    0.1862 O   0  0  0  0  0  0  0  0  0  0  0  0
    5.5814    3.6279    2.4789 N   0  0  0  0  0  0  0  0  0  0  0  0
    4.3785    2.9098    2.4867 C   0  0  0  0  0  0  0  0  0  0  0  0
    3.1725    3.6018    2.5019 C   0  0  0  0  0  0  0  0  0  0  0  0
    1.9839    2.8796    2.5108 C   0  0  0  0  0  0  0  0  0  0  0  0
    0.2728    3.8349    2.5310 Br  0  0  0  0  0  0  0  0  0  0  0  0
    1.9887    1.4888    2.5046 C   0  0  0  0  0  0  0  0  0  0  0  0
    3.2086    0.8209    2.4892 C   0  0  0  0  0  0  0  0  0  0  0  0
    4.4110    1.5195    2.4801 C   0  0  0  0  0  0  0  0  0  0  0  0
    3.2280   -0.6288    2.4827 C   0  0  0  0  0  0  0  0  0  0  0  0
    2.1970   -1.2427    2.4907 O   0  0  0  0  0  0  0  0  0  0  0  0
    4.3712   -1.2684    2.4682 O   0  0  0  0  0  0  0  0  0  0  0  0
    4.3903   -2.6883    2.4619 C   0  0  0  0  0  0  0  0  0  0  0  0
    3.6679   -3.1992    1.2259 C   0  0  0  0  0  0  0  0  0  0  0  0
    5.8299   -3.1756    2.4450 C   0  0  0  0  0  0  0  0  0  0  0  0
    3.6934   -3.2099    3.7079 C   0  0  0  0  0  0  0  0  0  0  0  0
    6.3222    4.0482    3.6660 C   0  0  0  0  0  0  0  0  0  0  0  0
    7.7403    4.1197    3.1376 C   0  0  0  0  0  0  0  0  0  0  0  0
   14.9352    3.0342   -3.7819 H   0  0  0  0  0  0  0  0  0  0  0  0
   14.3139    1.4399   -2.0882 H   0  0  0  0  0  0  0  0  0  0  0  0
   10.7966    3.3573    0.1124 H   0  0  0  0  0  0  0  0  0  0  0  0
   10.2006    7.0028   -1.7573 H   0  0  0  0  0  0  0  0  0  0  0  0
    8.9400    3.5337    0.7427 H   0  0  0  0  0  0  0  0  0  0  0  0
    7.3637    5.7472    1.8797 H   0  0  0  0  0  0  0  0  0  0  0  0
    3.1601    4.6017    2.5064 H   0  0  0  0  0  0  0  0  0  0  0  0
    1.1293    0.9775    2.5112 H   0  0  0  0  0  0  0  0  0  0  0  0
    5.2834    1.0309    2.4690 H   0  0  0  0  0  0  0  0  0  0  0  0
    3.6813   -4.1991    1.2215 H   0  0  0  0  0  0  0  0  0  0  0  0
    2.7207   -2.8786    1.2370 H   0  0  0  0  0  0  0  0  0  0  0  0
    4.1264   -2.8560    0.4062 H   0  0  0  0  0  0  0  0  0  0  0  0
    5.8434   -4.1755    2.4406 H   0  0  0  0  0  0  0  0  0  0  0  0
    6.2884   -2.8324    1.6253 H   0  0  0  0  0  0  0  0  0  0  0  0
    6.3052   -2.8394    3.2581 H   0  0  0  0  0  0  0  0  0  0  0  0
    3.7068   -4.2098    3.7035 H   0  0  0  0  0  0  0  0  0  0  0  0
    4.1686   -2.8738    4.5211 H   0  0  0  0  0  0  0  0  0  0  0  0
    2.7462   -2.8893    3.7190 H   0  0  0  0  0  0  0  0  0  0  0  0
    6.2414    3.3763    4.4023 H   0  0  0  0  0  0  0  0  0  0  0  0
    6.0101    4.9402    3.9930 H   0  0  0  0  0  0  0  0  0  0  0  0
    8.3216    4.6851    3.7227 H   0  0  0  0  0  0  0  0  0  0  0  0
    8.1440    3.2093    3.0466 H   0  0  0  0  0  0  0  0  0  0  0  0
  1  2  1  0  0  0  0
  2  3  1  0  0  0  0
  3  4  2  0  0  0  0
  4  5  1  0  0  0  0
  5  6  2  0  0  0  0
  6  7  1  0  0  0  0
  7  8  2  0  0  0  0
  8  3  1  0  0  0  0
  8  9  1  0  0  0  0
  9 10  2  0  0  0  0
 10 11  1  0  0  0  0
 11  2  2  0  0  0  0
 10 12  1  0  0  0  0
 12 13  2  0  0  0  0
 12 14  1  0  0  0  0
 14 15  1  0  0  0  0
 15 16  1  0  0  0  0
 16 17  2  0  0  0  0
 16 18  1  0  0  0  0
 18 19  1  0  0  0  0
 19 20  1  0  0  0  0
 20 21  2  0  0  0  0
 21 22  1  0  0  0  0
 21 23  1  0  0  0  0
 23 24  2  0  0  0  0
 24 25  1  0  0  0  0
 25 19  2  0  0  0  0
 24 26  1  0  0  0  0
 26 27  2  0  0  0  0
 26 28  1  0  0  0  0
 28 29  1  0  0  0  0
 29 30  1  0  0  0  0
 29 31  1  0  0  0  0
 29 32  1  0  0  0  0
 18 33  1  0  0  0  0
 33 34  1  0  0  0  0
 34 15  1  0  0  0  0
  5 35  1  0  0  0  0
  6 36  1  0  0  0  0
  9 37  1  0  0  0  0
 11 38  1  0  0  0  0
 14 39  1  0  0  0  0
 15 40  1  0  0  0  0
 20 41  1  0  0  0  0
 23 42  1  0  0  0  0
 25 43  1  0  0  0  0
 30 44  1  0  0  0  0
 30 45  1  0  0  0  0
 30 46  1  0  0  0  0
 31 47  1  0  0  0  0
 31 48  1  0  0  0  0
 31 49  1  0  0  0  0
 32 50  1  0  0  0  0
 32 51  1  0  0  0  0
 32 52  1  0  0  0  0
 33 53  1  0  0  0  0
 33 54  1  0  0  0  0
 34 55  1  0  0  0  0
 34 56  1  0  0  0  0
M  END
>  <result-rank>
97

>  <similarity>
0.866

>  <query-name>


>  <query-smiles>
S1C(C(=O)NC2=Nc3c(N2CCC(=O)N)ccc(N(C(=O)c4ccccc4)C)c3)=CC=C1/C=C/c5ncc(N)cn5

>  <source>
REALspace_2019-12

>  <similarity-descriptor>
0.998;0.0;0.919;0.772;0.965;0.999;1.000;0.772;0.772;0.772;0.0;0.965;0.825;0.965;0.998;0.919;0.0;0.250

>  <similarity-descriptor-smiles>
Brc1ccccc1;;c1cnccn1;C1CCNC1=O;c1cccc(c1)Br;C=O;N;C1CCNC1=O;C1CCNC1=O;C1CCNC1=O;;c1cccc(c1)Br;C(=O)OC;c1cccc(c1)Br;Brc1ccccc1;c1cnccn1;;C.C.C

>  <reaction-name>
s_22

>  <reagent1-name>
16608454

>  <reagent1-smiles>
[R1*]NC1C(=O)N(c2cc(Br)cc(c2)C(=O)OC(C)(C)C)CC1

>  <reagent2-name>
13263488

>  <reagent2-smiles>
[R1*]C(=O)c1cc(Br)c2nccnc2c1

$$$$
s_270196____8771036____8776074
          04022017353D 1   1.00000     0.00000     0
            
 50 54  0  0  0  0            999 V2000
   -2.6578   -0.1736   -1.6100 Cl  0  0  0  0  0  0  0  0  0  0  0  0
   -1.7425    1.1261   -0.8078 C   0  0  0  0  0  0  0  0  0  0  0  0
   -1.4439    2.3300   -1.4427 C   0  0  0  0  0  0  0  0  0  0  0  0
   -0.7252    3.3318   -0.7929 C   0  0  0  0  0  0  0  0  0  0  0  0
   -0.4503    4.4839   -1.4279 N   0  0  0  0  0  0  0  0  0  0  0  0
   -0.8420    4.7282   -2.6877 C   0  0  0  0  0  0  0  0  0  0  0  0
   -1.5611    3.7681   -3.3899 C   0  0  0  0  0  0  0  0  0  0  0  0
   -1.8540    2.5703   -2.7492 C   0  0  0  0  0  0  0  0  0  0  0  0
   -0.3082    3.1020    0.5164 C   0  0  0  0  0  0  0  0  0  0  0  0
    0.3916    4.0304    1.2040 O   0  0  0  0  0  0  0  0  0  0  0  0
    0.8024    3.7661    2.5373 C   0  0  0  0  0  0  0  0  0  0  0  0
    2.0477    2.8949    2.5205 C   0  0  0  0  0  0  0  0  0  0  0  0
    3.2835    3.3234    2.4970 O   0  0  0  0  0  0  0  0  0  0  0  0
    4.0809    2.3403    2.4912 N   0  0  0  0  0  0  0  0  0  0  0  0
    3.3747    1.2362    2.5070 C   0  0  0  0  0  0  0  0  0  0  0  0
    2.0607    1.5841    2.5273 N   0  0  0  0  0  0  0  0  0  0  0  0
    3.9020   -0.1148    2.5061 C   0  0  0  0  0  0  0  0  0  0  0  0
    3.6252   -0.9970    3.5468 C   0  0  0  0  0  0  0  0  0  0  0  0
    2.6349   -0.5234    4.8973 S   0  0  0  0  0  0  0  0  0  0  0  0
    2.6763   -2.0102    5.7998 C   0  0  0  0  0  0  0  0  0  0  0  0
    1.7101   -2.9850    5.5726 C   0  0  0  0  0  0  0  0  0  0  0  0
    1.7551   -4.1695    6.3011 C   0  0  0  0  0  0  0  0  0  0  0  0
    2.7539   -4.3770    7.2468 C   0  0  0  0  0  0  0  0  0  0  0  0
    3.7146   -3.3955    7.4667 C   0  0  0  0  0  0  0  0  0  0  0  0
    3.6793   -2.2077    6.7439 C   0  0  0  0  0  0  0  0  0  0  0  0
    4.1453   -2.2870    3.5181 C   0  0  0  0  0  0  0  0  0  0  0  0
    4.9398   -2.6851    2.4476 C   0  0  0  0  0  0  0  0  0  0  0  0
    5.2196   -1.8058    1.4062 C   0  0  0  0  0  0  0  0  0  0  0  0
    4.6972   -0.5165    1.4381 C   0  0  0  0  0  0  0  0  0  0  0  0
    5.5051   -4.0963    2.4235 C   0  0  0  0  0  0  0  0  0  0  0  0
   -0.6000    1.9046    1.1620 C   0  0  0  0  0  0  0  0  0  0  0  0
   -1.3178    0.9145    0.4996 C   0  0  0  0  0  0  0  0  0  0  0  0
   -0.6167    5.6007   -3.1213 H   0  0  0  0  0  0  0  0  0  0  0  0
   -1.8592    3.9346   -4.3297 H   0  0  0  0  0  0  0  0  0  0  0  0
   -2.3703    1.8669   -3.2377 H   0  0  0  0  0  0  0  0  0  0  0  0
    0.0695    3.2907    3.0239 H   0  0  0  0  0  0  0  0  0  0  0  0
    1.0054    4.6287    3.0008 H   0  0  0  0  0  0  0  0  0  0  0  0
    0.9914   -2.8360    4.8935 H   0  0  0  0  0  0  0  0  0  0  0  0
    1.0652   -4.8761    6.1439 H   0  0  0  0  0  0  0  0  0  0  0  0
    2.7811   -5.2302    7.7676 H   0  0  0  0  0  0  0  0  0  0  0  0
    4.4328   -3.5443    8.1465 H   0  0  0  0  0  0  0  0  0  0  0  0
    4.3692   -1.5012    6.9014 H   0  0  0  0  0  0  0  0  0  0  0  0
    3.9492   -2.9247    4.2629 H   0  0  0  0  0  0  0  0  0  0  0  0
    5.7921   -2.0983    0.6402 H   0  0  0  0  0  0  0  0  0  0  0  0
    4.8935    0.1212    0.6933 H   0  0  0  0  0  0  0  0  0  0  0  0
    6.0496   -4.2231    1.5944 H   0  0  0  0  0  0  0  0  0  0  0  0
    6.0835   -4.2374    3.2269 H   0  0  0  0  0  0  0  0  0  0  0  0
    4.7541   -4.7565    2.4333 H   0  0  0  0  0  0  0  0  0  0  0  0
   -0.2936    1.7559    2.1022 H   0  0  0  0  0  0  0  0  0  0  0  0
   -1.5278    0.0530    0.9619 H   0  0  0  0  0  0  0  0  0  0  0  0
  1  2  1  0  0  0  0
  2  3  1  0  0  0  0
  3  4  2  0  0  0  0
  4  5  1  0  0  0  0
  5  6  2  0  0  0  0
  6  7  1  0  0  0  0
  7  8  2  0  0  0  0
  8  3  1  0  0  0  0
  4  9  1  0  0  0  0
  9 10  1  0  0  0  0
 10 11  1  0  0  0  0
 11 12  1  0  0  0  0
 12 13  1  0  0  0  0
 13 14  1  0  0  0  0
 14 15  2  0  0  0  0
 15 16  1  0  0  0  0
 12 16  2  0  0  0  0
 15 17  1  0  0  0  0
 17 18  1  0  0  0  0
 18 19  1  0  0  0  0
 19 20  1  0  0  0  0
 20 21  1  0  0  0  0
 21 22  2  0  0  0  0
 22 23  1  0  0  0  0
 23 24  2  0  0  0  0
 24 25  1  0  0  0  0
 25 20  2  0  0  0  0
 18 26  2  0  0  0  0
 26 27  1  0  0  0  0
 27 28  2  0  0  0  0
 28 29  1  0  0  0  0
 29 17  2  0  0  0  0
 27 30  1  0  0  0  0
  9 31  2  0  0  0  0
 31 32  1  0  0  0  0
 32  2  2  0  0  0  0
  6 33  1  0  0  0  0
  7 34  1  0  0  0  0
  8 35  1  0  0  0  0
 11 36  1  0  0  0  0
 11 37  1  0  0  0  0
 21 38  1  0  0  0  0
 22 39  1  0  0  0  0
 23 40  1  0  0  0  0
 24 41  1  0  0  0  0
 25 42  1  0  0  0  0
 26 43  1  0  0  0  0
 28 44  1  0  0  0  0
 29 45  1  0  0  0  0
 30 46  1  0  0  0  0
 30 47  1  0  0  0  0
 30 48  1  0  0  0  0
 31 49  1  0  0  0  0
 32 50  1  0  0  0  0
M  END
>  <result-rank>
98

>  <similarity>
0.866

>  <query-name>


>  <query-smiles>
S1C(C(=O)NC2=Nc3c(N2CCC(=O)N)ccc(N(C(=O)c4ccccc4)C)c3)=CC=C1/C=C/c5ncc(N)cn5

>  <source>
REALspace_2019-12

>  <similarity-descriptor>
0.991;0.999;0.860;0.754;0.995;0.555;0.555;0.754;0.754;0.754;0.0;0.995;0.425;0.995;0.991;0.860;0.0;0.0

>  <similarity-descriptor-smiles>
Clc1ccccc1;c1ccccc1;c1cccnc1;C1=NC=NO1;c1ccccc1;OC;OC;C1=NC=NO1;C1=NC=NO1;C1=NC=NO1;;c1ccccc1;S;C;Clc1ccccc1;c1cccnc1;;

>  <reaction-name>
s_270196

>  <reagent1-name>
8771036

>  <reagent1-smiles>
[R1*]=NC(=NO[R2*])c1c(Sc2ccccc2)cc(cc1)C

>  <reagent2-name>
8776074

>  <reagent2-smiles>
[R1*]C([R2*])COc1c2ncccc2c(Cl)cc1

$$$$
s_22____4556042____1127500
          04022017353D 1   1.00000     0.00000     0
            
 53 57  0  0  0  0            999 V2000
    0.6190    4.6498    6.6913 S   0  0  0  0  0  0  0  0  0  0  0  0
    1.4245    3.3224    7.1179 C   0  0  0  0  0  0  0  0  0  0  0  0
    2.5134    2.8168    6.4728 N   0  0  0  0  0  0  0  0  0  0  0  0
    2.9007    1.6920    7.1407 C   0  0  0  0  0  0  0  0  0  0  0  0
    2.0435    1.5082    8.1999 C   0  0  0  0  0  0  0  0  0  0  0  0
    1.1308    2.5226    8.1827 N   0  0  0  0  0  0  0  0  0  0  0  0
    2.2575    0.4039    9.0217 C   0  0  0  0  0  0  0  0  0  0  0  0
    3.2969   -0.4973    8.8013 C   0  0  0  0  0  0  0  0  0  0  0  0
    3.5093   -1.5569    9.5813 F   0  0  0  0  0  0  0  0  0  0  0  0
    4.1466   -0.2821    7.7218 C   0  0  0  0  0  0  0  0  0  0  0  0
    3.9490    0.8136    6.8888 C   0  0  0  0  0  0  0  0  0  0  0  0
    4.8497    1.0136    5.7694 C   0  0  0  0  0  0  0  0  0  0  0  0
    5.8460    1.6675    5.9104 O   0  0  0  0  0  0  0  0  0  0  0  0
    4.5562    0.4427    4.5222 N   0  0  0  0  0  0  0  0  0  0  0  0
    5.4284    0.6080    3.3480 C   0  0  0  0  0  0  0  0  0  0  0  0
    4.5400    0.7958    2.1379 C   0  0  0  0  0  0  0  0  0  0  0  0
    3.1477    0.7842    2.1594 C   0  0  0  0  0  0  0  0  0  0  0  0
    2.4010    1.0000    1.0000 C   0  0  0  0  0  0  0  0  0  0  0  0
    1.0000    1.0000    1.0000 N   0  0  0  0  0  0  0  0  0  0  0  0
    0.3150    0.0984    0.2288 C   0  0  0  0  0  0  0  0  0  0  0  0
    0.7944   -0.9762   -0.0066 O   0  0  0  0  0  0  0  0  0  0  0  0
   -0.9173    0.4236   -0.2737 N   0  0  0  0  0  0  0  0  0  0  0  0
   -1.3455   -0.1261   -1.4882 C   0  0  0  0  0  0  0  0  0  0  0  0
   -0.6048    0.0976   -2.6444 C   0  0  0  0  0  0  0  0  0  0  0  0
   -1.0332   -0.4503   -3.8491 C   0  0  0  0  0  0  0  0  0  0  0  0
   -2.1941   -1.2149   -3.8914 C   0  0  0  0  0  0  0  0  0  0  0  0
   -2.9263   -1.4325   -2.7291 C   0  0  0  0  0  0  0  0  0  0  0  0
   -2.5078   -0.8896   -1.5188 C   0  0  0  0  0  0  0  0  0  0  0  0
    3.0555    1.2268   -0.2074 C   0  0  0  0  0  0  0  0  0  0  0  0
    4.4458    1.2299   -0.2457 C   0  0  0  0  0  0  0  0  0  0  0  0
    5.1750    1.0120    0.9203 C   0  0  0  0  0  0  0  0  0  0  0  0
    2.4370    0.5456    3.4776 C   0  0  0  0  0  0  0  0  0  0  0  0
    3.3551   -0.3631    4.2706 C   0  0  0  0  0  0  0  0  0  0  0  0
    2.9489    3.2003    5.6584 H   0  0  0  0  0  0  0  0  0  0  0  0
    0.3826    2.6553    8.8328 H   0  0  0  0  0  0  0  0  0  0  0  0
    1.6438    0.2527    9.7967 H   0  0  0  0  0  0  0  0  0  0  0  0
    4.8999   -0.9155    7.5445 H   0  0  0  0  0  0  0  0  0  0  0  0
    5.9979   -0.2054    3.2295 H   0  0  0  0  0  0  0  0  0  0  0  0
    6.0135    1.4099    3.4686 H   0  0  0  0  0  0  0  0  0  0  0  0
    0.5000    1.6581    1.5629 H   0  0  0  0  0  0  0  0  0  0  0  0
   -1.5111    1.0535    0.2270 H   0  0  0  0  0  0  0  0  0  0  0  0
    0.2293    0.6481   -2.6098 H   0  0  0  0  0  0  0  0  0  0  0  0
   -0.5064   -0.2943   -4.6847 H   0  0  0  0  0  0  0  0  0  0  0  0
   -2.5023   -1.6083   -4.7575 H   0  0  0  0  0  0  0  0  0  0  0  0
   -3.7602   -1.9835   -2.7638 H   0  0  0  0  0  0  0  0  0  0  0  0
   -3.0345   -1.0458   -0.6833 H   0  0  0  0  0  0  0  0  0  0  0  0
    2.5291    1.3866   -1.0425 H   0  0  0  0  0  0  0  0  0  0  0  0
    4.9218    1.3887   -1.1107 H   0  0  0  0  0  0  0  0  0  0  0  0
    6.1742    1.0110    0.8811 H   0  0  0  0  0  0  0  0  0  0  0  0
    1.5537    0.1027    3.3238 H   0  0  0  0  0  0  0  0  0  0  0  0
    2.2969    1.4097    3.9611 H   0  0  0  0  0  0  0  0  0  0  0  0
    2.9252   -0.6330    5.1322 H   0  0  0  0  0  0  0  0  0  0  0  0
    3.5839   -1.1806    3.7419 H   0  0  0  0  0  0  0  0  0  0  0  0
  1  2  2  0  0  0  0
  2  3  1  0  0  0  0
  3  4  1  0  0  0  0
  4  5  1  0  0  0  0
  5  6  1  0  0  0  0
  6  2  1  0  0  0  0
  5  7  2  0  0  0  0
  7  8  1  0  0  0  0
  8  9  1  0  0  0  0
  8 10  2  0  0  0  0
 10 11  1  0  0  0  0
 11  4  2  0  0  0  0
 11 12  1  0  0  0  0
 12 13  2  0  0  0  0
 12 14  1  0  0  0  0
 14 15  1  0  0  0  0
 15 16  1  0  0  0  0
 16 17  1  0  0  0  0
 17 18  2  0  0  0  0
 18 19  1  0  0  0  0
 19 20  1  0  0  0  0
 20 21  2  0  0  0  0
 20 22  1  0  0  0  0
 22 23  1  0  0  0  0
 23 24  1  0  0  0  0
 24 25  2  0  0  0  0
 25 26  1  0  0  0  0
 26 27  2  0  0  0  0
 27 28  1  0  0  0  0
 28 23  2  0  0  0  0
 18 29  1  0  0  0  0
 29 30  2  0  0  0  0
 30 31  1  0  0  0  0
 31 16  2  0  0  0  0
 17 32  1  0  0  0  0
 32 33  1  0  0  0  0
 33 14  1  0  0  0  0
  3 34  1  0  0  0  0
  6 35  1  0  0  0  0
  7 36  1  0  0  0  0
 10 37  1  0  0  0  0
 15 38  1  0  0  0  0
 15 39  1  0  0  0  0
 19 40  1  0  0  0  0
 22 41  1  0  0  0  0
 24 42  1  0  0  0  0
 25 43  1  0  0  0  0
 26 44  1  0  0  0  0
 27 45  1  0  0  0  0
 28 46  1  0  0  0  0
 29 47  1  0  0  0  0
 30 48  1  0  0  0  0
 31 49  1  0  0  0  0
 32 50  1  0  0  0  0
 32 51  1  0  0  0  0
 33 52  1  0  0  0  0
 33 53  1  0  0  0  0
M  END
>  <result-rank>
99

>  <similarity>
0.866

>  <query-name>


>  <query-smiles>
S1C(C(=O)NC2=Nc3c(N2CCC(=O)N)ccc(N(C(=O)c4ccccc4)C)c3)=CC=C1/C=C/c5ncc(N)cn5

>  <source>
REALspace_2019-12

>  <similarity-descriptor>
0.971;0.998;0.850;0.670;0.989;0.853;0.853;0.670;0.670;0.0;0.0;0.989;0.740;0.0;0.971;0.850;0.850;0.0

>  <similarity-descriptor-smiles>
c1ccc(cc1)F;c1ccccc1;S=C1NccN1;N1CCccC1;c1ccccc1;C=O;C=O;N1CCccC1;N1CCccC1;;;c1ccccc1;NC(=O)N;;c1ccc(cc1)F;S=C1NccN1;S=C1NccN1;

>  <reaction-name>
s_22

>  <reagent1-name>
4556042

>  <reagent1-smiles>
[R1*]N1Cc2c(c(NC(=O)Nc3ccccc3)ccc2)CC1

>  <reagent2-name>
1127500

>  <reagent2-smiles>
[R1*]C(=O)c1c2NC(=S)Nc2cc(F)c1

$$$$
s_232682____3004976____12905748
          04022017353D 1   1.00000     0.00000     0
            
 58 62  0  0  0  0            999 V2000
    7.8801    1.7744   -0.1649 Br  0  0  0  0  0  0  0  0  0  0  0  0
    6.6549    0.2470   -0.2773 C   0  0  0  0  0  0  0  0  0  0  0  0
    6.0350   -0.2240    0.8744 C   0  0  0  0  0  0  0  0  0  0  0  0
    6.3218    0.5459    2.4077 S   0  0  0  0  0  0  0  0  0  0  0  0
    7.7396    0.6893    2.6151 O   0  0  0  0  0  0  0  0  0  0  0  0
    5.7616   -0.2598    3.4616 O   0  0  0  0  0  0  0  0  0  0  0  0
    5.6199    2.0170    2.4168 N   0  0  0  0  0  0  0  0  0  0  0  0
    4.2262    2.1265    2.4440 C   0  0  0  0  0  0  0  0  0  0  0  0
    3.3287    3.5724    2.4687 S   0  0  0  0  0  0  0  0  0  0  0  0
    1.7793    2.8660    2.4982 C   0  0  0  0  0  0  0  0  0  0  0  0
    2.0377    1.5325    2.4911 C   0  0  0  0  0  0  0  0  0  0  0  0
    3.3528    1.1511    2.4644 N   0  0  0  0  0  0  0  0  0  0  0  0
    0.9124    0.6182    2.5170 C   0  0  0  0  0  0  0  0  0  0  0  0
   -0.3789    1.1337    2.5429 C   0  0  0  0  0  0  0  0  0  0  0  0
   -1.4650    0.2647    2.5690 C   0  0  0  0  0  0  0  0  0  0  0  0
   -1.2459   -1.1089    2.5680 C   0  0  0  0  0  0  0  0  0  0  0  0
   -2.2936   -1.9599    2.5917 O   0  0  0  0  0  0  0  0  0  0  0  0
   -2.0694   -3.3621    2.5907 C   0  0  0  0  0  0  0  0  0  0  0  0
   -3.4045   -4.0888    2.6199 C   0  0  0  0  0  0  0  0  0  0  0  0
   -4.0343   -4.4212    1.4250 C   0  0  0  0  0  0  0  0  0  0  0  0
   -5.2562   -5.0853    1.4562 C   0  0  0  0  0  0  0  0  0  0  0  0
   -5.8387   -5.4133    2.6760 C   0  0  0  0  0  0  0  0  0  0  0  0
   -5.2002   -5.0766    3.8633 C   0  0  0  0  0  0  0  0  0  0  0  0
   -3.9783   -4.4119    3.8454 C   0  0  0  0  0  0  0  0  0  0  0  0
    0.0460   -1.6240    2.5423 C   0  0  0  0  0  0  0  0  0  0  0  0
    1.1321   -0.7554    2.5166 C   0  0  0  0  0  0  0  0  0  0  0  0
    5.1812   -1.3187    0.7982 C   0  0  0  0  0  0  0  0  0  0  0  0
    4.9299   -1.9388   -0.4230 C   0  0  0  0  0  0  0  0  0  0  0  0
    4.0879   -3.0487   -0.5449 N   0  0  0  0  0  0  0  0  0  0  0  0
    4.5501   -4.1991   -1.2003 C   0  0  0  0  0  0  0  0  0  0  0  0
    3.8360   -5.1763   -1.3584 O   0  0  0  0  0  0  0  0  0  0  0  0
    5.9874   -4.1369   -1.7032 C   0  0  0  0  0  0  0  0  0  0  0  0
    5.9926   -3.4112   -3.0376 C   0  0  0  0  0  0  0  0  0  0  0  0
    5.1434   -2.1651   -2.8444 C   0  0  0  0  0  0  0  0  0  0  0  0
    5.5337   -1.4428   -1.5655 C   0  0  0  0  0  0  0  0  0  0  0  0
    6.4043   -0.3578   -1.5049 C   0  0  0  0  0  0  0  0  0  0  0  0
    6.1860    2.8412    2.4030 H   0  0  0  0  0  0  0  0  0  0  0  0
    0.8906    3.3240    2.5164 H   0  0  0  0  0  0  0  0  0  0  0  0
   -0.5258    2.1229    2.5428 H   0  0  0  0  0  0  0  0  0  0  0  0
   -2.3975    0.6254    2.5883 H   0  0  0  0  0  0  0  0  0  0  0  0
   -1.5347   -3.6148    3.3970 H   0  0  0  0  0  0  0  0  0  0  0  0
   -1.5681   -3.6189    1.7644 H   0  0  0  0  0  0  0  0  0  0  0  0
   -3.6119   -4.1845    0.5500 H   0  0  0  0  0  0  0  0  0  0  0  0
   -5.7159   -5.3270    0.6016 H   0  0  0  0  0  0  0  0  0  0  0  0
   -6.7167   -5.8912    2.6985 H   0  0  0  0  0  0  0  0  0  0  0  0
   -5.6226   -5.3142    4.7380 H   0  0  0  0  0  0  0  0  0  0  0  0
   -3.5195   -4.1700    4.7003 H   0  0  0  0  0  0  0  0  0  0  0  0
    0.1931   -2.6131    2.5422 H   0  0  0  0  0  0  0  0  0  0  0  0
    2.0646   -1.1160    2.4981 H   0  0  0  0  0  0  0  0  0  0  0  0
    4.7435   -1.6640    1.6283 H   0  0  0  0  0  0  0  0  0  0  0  0
    3.1623   -3.0221   -0.1673 H   0  0  0  0  0  0  0  0  0  0  0  0
    6.3454   -5.0633   -1.8203 H   0  0  0  0  0  0  0  0  0  0  0  0
    6.5548   -3.6409   -1.0459 H   0  0  0  0  0  0  0  0  0  0  0  0
    6.9263   -3.1588   -3.2915 H   0  0  0  0  0  0  0  0  0  0  0  0
    5.5990   -3.9922   -3.7500 H   0  0  0  0  0  0  0  0  0  0  0  0
    5.2788   -1.5516   -3.6224 H   0  0  0  0  0  0  0  0  0  0  0  0
    4.1803   -2.4290   -2.7917 H   0  0  0  0  0  0  0  0  0  0  0  0
    6.8449   -0.0167   -2.3352 H   0  0  0  0  0  0  0  0  0  0  0  0
  1  2  1  0  0  0  0
  2  3  1  0  0  0  0
  3  4  1  0  0  0  0
  4  5  2  0  0  0  0
  4  6  2  0  0  0  0
  4  7  1  0  0  0  0
  7  8  1  0  0  0  0
  8  9  1  0  0  0  0
  9 10  1  0  0  0  0
 10 11  2  0  0  0  0
 11 12  1  0  0  0  0
  8 12  2  0  0  0  0
 11 13  1  0  0  0  0
 13 14  1  0  0  0  0
 14 15  2  0  0  0  0
 15 16  1  0  0  0  0
 16 17  1  0  0  0  0
 17 18  1  0  0  0  0
 18 19  1  0  0  0  0
 19 20  1  0  0  0  0
 20 21  2  0  0  0  0
 21 22  1  0  0  0  0
 22 23  2  0  0  0  0
 23 24  1  0  0  0  0
 24 19  2  0  0  0  0
 16 25  2  0  0  0  0
 25 26  1  0  0  0  0
 26 13  2  0  0  0  0
  3 27  2  0  0  0  0
 27 28  1  0  0  0  0
 28 29  1  0  0  0  0
 29 30  1  0  0  0  0
 30 31  2  0  0  0  0
 30 32  1  0  0  0  0
 32 33  1  0  0  0  0
 33 34  1  0  0  0  0
 34 35  1  0  0  0  0
 35 28  2  0  0  0  0
 35 36  1  0  0  0  0
 36  2  2  0  0  0  0
  7 37  1  0  0  0  0
 10 38  1  0  0  0  0
 14 39  1  0  0  0  0
 15 40  1  0  0  0  0
 18 41  1  0  0  0  0
 18 42  1  0  0  0  0
 20 43  1  0  0  0  0
 21 44  1  0  0  0  0
 22 45  1  0  0  0  0
 23 46  1  0  0  0  0
 24 47  1  0  0  0  0
 25 48  1  0  0  0  0
 26 49  1  0  0  0  0
 27 50  1  0  0  0  0
 29 51  1  0  0  0  0
 32 52  1  0  0  0  0
 32 53  1  0  0  0  0
 33 54  1  0  0  0  0
 33 55  1  0  0  0  0
 34 56  1  0  0  0  0
 34 57  1  0  0  0  0
 36 58  1  0  0  0  0
M  END
>  <result-rank>
100

>  <similarity>
0.865

>  <query-name>


>  <query-smiles>
S1C(C(=O)NC2=Nc3c(N2CCC(=O)N)ccc(N(C(=O)c4ccccc4)C)c3)=CC=C1/C=C/c5ncc(N)cn5

>  <source>
REALspace_2019-12

>  <similarity-descriptor>
0.999;1.000;0.809;0.873;0.948;0.624;0.982;0.873;0.0;0.0;0.0;0.948;0.568;0.0;0.999;0.809;0.809;0.0

>  <similarity-descriptor-smiles>
Brc1ccccc1;c1ccccc1;c1cCCCC(N1)=O;C1=NC=CS1;c1ccccc1;S(=O)=O;N;C1=NC=CS1;;;;c1ccccc1;OC;;Brc1ccccc1;c1cCCCC(N1)=O;c1cCCCC(N1)=O;

>  <reaction-name>
s_232682

>  <reagent1-name>
3004976

>  <reagent1-smiles>
[R1*]NC=1SC=C(N1)c2ccc(OCc3ccccc3)cc2

>  <reagent2-name>
12905748

>  <reagent2-smiles>
[R1*]S(=O)(=O)c1c(Br)cc2c(NC(=O)CCC2)c1

$$$$
