m_274972____12934192____12615770____13047176
          04022017303D 1   1.00000     0.00000     0
            
 54 58  0  0  0  0            999 V2000
   10.2247    1.6719    2.3661 S   0  0  0  0  0  0  0  0  0  0  0  0
   10.8020    2.8102    3.0328 O   0  0  0  0  0  0  0  0  0  0  0  0
   10.6267    0.4653    3.0415 O   0  0  0  0  0  0  0  0  0  0  0  0
   10.7414    1.6275    0.8208 N   0  0  0  0  0  0  0  0  0  0  0  0
   12.2071    1.5178    0.7972 C   0  0  0  0  0  0  0  0  0  0  0  0
    8.4200    1.8069    2.3952 C   0  0  0  0  0  0  0  0  0  0  0  0
    7.6437    0.6529    2.4108 C   0  0  0  0  0  0  0  0  0  0  0  0
    6.2577    0.7683    2.4333 C   0  0  0  0  0  0  0  0  0  0  0  0
    5.6642    2.0267    2.4390 C   0  0  0  0  0  0  0  0  0  0  0  0
    6.4448    3.1781    2.4235 C   0  0  0  0  0  0  0  0  0  0  0  0
    7.8313    3.0673    2.4012 C   0  0  0  0  0  0  0  0  0  0  0  0
    4.2182    2.1329    2.4615 C   0  0  0  0  0  0  0  0  0  0  0  0
    3.3303    3.5831    2.4714 S   0  0  0  0  0  0  0  0  0  0  0  0
    1.7841    2.8690    2.4950 C   0  0  0  0  0  0  0  0  0  0  0  0
    2.0375    1.5302    2.4908 C   0  0  0  0  0  0  0  0  0  0  0  0
    3.3498    1.1464    2.4729 N   0  0  0  0  0  0  0  0  0  0  0  0
    0.9118    0.6170    2.5150 C   0  0  0  0  0  0  0  0  0  0  0  0
   -0.4029    0.9692    2.5332 N   0  0  0  0  0  0  0  0  0  0  0  0
   -1.0790   -0.0974    2.5525 N   0  0  0  0  0  0  0  0  0  0  0  0
   -0.3062   -1.1554    2.5502 N   0  0  0  0  0  0  0  0  0  0  0  0
    0.9871   -0.7420    2.5276 C   0  0  0  0  0  0  0  0  0  0  0  0
   -0.7634   -2.5524    2.5709 C   0  0  0  0  0  0  0  0  0  0  0  0
   -0.9440   -3.0477    1.1447 C   0  0  0  0  0  0  0  0  0  0  0  0
    0.1409   -3.6621    0.4633 C   0  0  0  0  0  0  0  0  0  0  0  0
    1.1916   -3.7797    1.0309 O   0  0  0  0  0  0  0  0  0  0  0  0
   -0.0299   -4.1065   -0.8230 N   0  0  0  0  0  0  0  0  0  0  0  0
   -1.2400   -3.9644   -1.4612 C   0  0  0  0  0  0  0  0  0  0  0  0
   -2.3178   -3.3665   -0.8140 C   0  0  0  0  0  0  0  0  0  0  0  0
   -3.5536   -3.2074   -1.4319 C   0  0  0  0  0  0  0  0  0  0  0  0
   -3.7143   -3.6619   -2.7365 C   0  0  0  0  0  0  0  0  0  0  0  0
   -2.6621   -4.2650   -3.4173 C   0  0  0  0  0  0  0  0  0  0  0  0
   -1.4412   -4.4061   -2.7670 C   0  0  0  0  0  0  0  0  0  0  0  0
   -2.1532   -2.9016    0.5171 C   0  0  0  0  0  0  0  0  0  0  0  0
    1.1265   -4.7340   -1.4787 C   0  0  0  0  0  0  0  0  0  0  0  0
   10.4622    2.4654    0.3518 H   0  0  0  0  0  0  0  0  0  0  0  0
   12.5241    1.4906   -0.1508 H   0  0  0  0  0  0  0  0  0  0  0  0
   12.6080    2.3083    1.2602 H   0  0  0  0  0  0  0  0  0  0  0  0
   12.4863    0.6799    1.2662 H   0  0  0  0  0  0  0  0  0  0  0  0
    8.0766   -0.2485    2.4058 H   0  0  0  0  0  0  0  0  0  0  0  0
    5.6878   -0.0533    2.4453 H   0  0  0  0  0  0  0  0  0  0  0  0
    6.0120    4.0795    2.4284 H   0  0  0  0  0  0  0  0  0  0  0  0
    8.4014    3.8888    2.3896 H   0  0  0  0  0  0  0  0  0  0  0  0
    0.8951    3.3268    2.5089 H   0  0  0  0  0  0  0  0  0  0  0  0
    1.8107   -1.3092    2.5215 H   0  0  0  0  0  0  0  0  0  0  0  0
   -1.6355   -2.6105    3.0569 H   0  0  0  0  0  0  0  0  0  0  0  0
   -0.0837   -3.1187    3.0369 H   0  0  0  0  0  0  0  0  0  0  0  0
   -4.3131   -2.7740   -0.9468 H   0  0  0  0  0  0  0  0  0  0  0  0
   -4.5983   -3.5536   -3.1912 H   0  0  0  0  0  0  0  0  0  0  0  0
   -2.7811   -4.5905   -4.3553 H   0  0  0  0  0  0  0  0  0  0  0  0
   -0.6821   -4.8392   -3.2530 H   0  0  0  0  0  0  0  0  0  0  0  0
   -2.9174   -2.4689    0.9953 H   0  0  0  0  0  0  0  0  0  0  0  0
    1.9038   -4.7400   -0.8495 H   0  0  0  0  0  0  0  0  0  0  0  0
    0.8963   -5.6733   -1.7331 H   0  0  0  0  0  0  0  0  0  0  0  0
    1.3661   -4.2155   -2.2996 H   0  0  0  0  0  0  0  0  0  0  0  0
  1  2  2  0  0  0  0
  1  3  2  0  0  0  0
  1  4  1  0  0  0  0
  4  5  1  0  0  0  0
  1  6  1  0  0  0  0
  6  7  1  0  0  0  0
  7  8  2  0  0  0  0
  8  9  1  0  0  0  0
  9 10  2  0  0  0  0
 10 11  1  0  0  0  0
 11  6  2  0  0  0  0
  9 12  1  0  0  0  0
 12 13  1  0  0  0  0
 13 14  1  0  0  0  0
 14 15  2  0  0  0  0
 15 16  1  0  0  0  0
 12 16  2  0  0  0  0
 15 17  1  0  0  0  0
 17 18  1  0  0  0  0
 18 19  2  0  0  0  0
 19 20  1  0  0  0  0
 20 21  1  0  0  0  0
 17 21  2  0  0  0  0
 20 22  1  0  0  0  0
 22 23  1  0  0  0  0
 23 24  1  0  0  0  0
 24 25  2  0  0  0  0
 24 26  1  0  0  0  0
 26 27  1  0  0  0  0
 27 28  1  0  0  0  0
 28 29  2  0  0  0  0
 29 30  1  0  0  0  0
 30 31  2  0  0  0  0
 31 32  1  0  0  0  0
 32 27  2  0  0  0  0
 28 33  1  0  0  0  0
 23 33  2  0  0  0  0
 26 34  1  0  0  0  0
  4 35  1  0  0  0  0
  5 36  1  0  0  0  0
  5 37  1  0  0  0  0
  5 38  1  0  0  0  0
  7 39  1  0  0  0  0
  8 40  1  0  0  0  0
 10 41  1  0  0  0  0
 11 42  1  0  0  0  0
 14 43  1  0  0  0  0
 21 44  1  0  0  0  0
 22 45  1  0  0  0  0
 22 46  1  0  0  0  0
 29 47  1  0  0  0  0
 30 48  1  0  0  0  0
 31 49  1  0  0  0  0
 32 50  1  0  0  0  0
 33 51  1  0  0  0  0
 34 52  1  0  0  0  0
 34 53  1  0  0  0  0
 34 54  1  0  0  0  0
M  END
>  <result-rank>
1

>  <similarity>
0.914

>  <query-name>


>  <query-smiles>
S(=O)(=O)(NC(=O)C)c1ccc(cc1)C=2N3C(=NC(=C3)COc4nc5c(cc4)cccc5)C(=NC2)N6CCOCC6

>  <source>
REALspace_2019-12

>  <similarity-descriptor>
1.000;0.0;0.832;0.976;0.960;0.999;1.000;0.733;0.733;0.733;0.999;0.960;0.100

>  <similarity-descriptor-smiles>
c1ccccc1;;C1=CNN=N1;C1=NC=CS1;C1=CccNC1=O;c1ccccc1;S(=O)=O;NC;NC;NC;C;C1=CccNC1=O;C

>  <reaction-name>
m_274972

>  <reagent1-name>
12934192

>  <reagent1-smiles>
[R1*]SC(=N[R2*])c1ccc(S(=O)(=O)NC)cc1

>  <reagent2-name>
12615770

>  <reagent2-smiles>
[R2*]C(C([R3*])=C[R4*])=C[R1*]

>  <reagent3-name>
13047176

>  <reagent3-smiles>
[R3*]N=NN([R4*])CC=1C(=O)N(c2c(cccc2)C1)C

$$$$
m_274972____12934192____12615770____16922018
          04022017303D 1   1.00000     0.00000     0
            
 48 52  0  0  0  0            999 V2000
    0.4648    3.7275    2.5286 S   0  0  0  0  0  0  0  0  0  0  0  0
   -0.5203    2.9301    3.2123 O   0  0  0  0  0  0  0  0  0  0  0  0
    0.6237    4.9846    3.2127 O   0  0  0  0  0  0  0  0  0  0  0  0
   -0.0241    4.0000    0.9977 N   0  0  0  0  0  0  0  0  0  0  0  0
    0.9815    4.8140    0.2998 C   0  0  0  0  0  0  0  0  0  0  0  0
    1.9848    2.8811    2.5100 C   0  0  0  0  0  0  0  0  0  0  0  0
    3.1740    3.6024    2.5029 C   0  0  0  0  0  0  0  0  0  0  0  0
    4.3836    2.9156    2.4883 C   0  0  0  0  0  0  0  0  0  0  0  0
    4.3937    1.5243    2.4800 C   0  0  0  0  0  0  0  0  0  0  0  0
    3.2017    0.8072    2.4872 C   0  0  0  0  0  0  0  0  0  0  0  0
    1.9898    1.4900    2.5021 C   0  0  0  0  0  0  0  0  0  0  0  0
    5.6630    0.8199    2.4636 C   0  0  0  0  0  0  0  0  0  0  0  0
    5.8598   -0.8692    2.4518 S   0  0  0  0  0  0  0  0  0  0  0  0
    7.5630   -0.8704    2.4327 C   0  0  0  0  0  0  0  0  0  0  0  0
    7.8952    0.4511    2.4332 C   0  0  0  0  0  0  0  0  0  0  0  0
    6.8653    1.3505    2.4501 N   0  0  0  0  0  0  0  0  0  0  0  0
    9.3014    0.8073    2.4258 C   0  0  0  0  0  0  0  0  0  0  0  0
   10.3504   -0.0619    2.4182 N   0  0  0  0  0  0  0  0  0  0  0  0
   11.4158    0.6157    2.4138 N   0  0  0  0  0  0  0  0  0  0  0  0
   11.1544    1.9000    2.4122 N   0  0  0  0  0  0  0  0  0  0  0  0
   12.1071    2.9252    2.4052 C   0  0  0  0  0  0  0  0  0  0  0  0
   12.7560    3.3543    1.3491 N   0  0  0  0  0  0  0  0  0  0  0  0
   13.5963    4.3556    1.7408 C   0  0  0  0  0  0  0  0  0  0  0  0
   13.4510    4.5453    3.0931 C   0  0  0  0  0  0  0  0  0  0  0  0
   12.5134    3.6395    3.4898 N   0  0  0  0  0  0  0  0  0  0  0  0
   12.0193    3.4572    4.8629 C   0  0  0  0  0  0  0  0  0  0  0  0
   14.2047    5.5196    3.7399 C   0  0  0  0  0  0  0  0  0  0  0  0
   15.1089    6.3102    3.0390 C   0  0  0  0  0  0  0  0  0  0  0  0
   15.2566    6.1181    1.6694 C   0  0  0  0  0  0  0  0  0  0  0  0
   14.4983    5.1416    1.0311 C   0  0  0  0  0  0  0  0  0  0  0  0
    9.8052    2.0687    2.4191 C   0  0  0  0  0  0  0  0  0  0  0  0
   -0.8977    4.4864    1.0084 H   0  0  0  0  0  0  0  0  0  0  0  0
    0.6816    4.9812   -0.6394 H   0  0  0  0  0  0  0  0  0  0  0  0
    1.0919    5.6870    0.7749 H   0  0  0  0  0  0  0  0  0  0  0  0
    1.8552    4.3276    0.2891 H   0  0  0  0  0  0  0  0  0  0  0  0
    3.1597    4.6022    2.5083 H   0  0  0  0  0  0  0  0  0  0  0  0
    5.2459    3.4219    2.4837 H   0  0  0  0  0  0  0  0  0  0  0  0
    3.2159   -0.1927    2.4818 H   0  0  0  0  0  0  0  0  0  0  0  0
    1.1273    0.9839    2.5071 H   0  0  0  0  0  0  0  0  0  0  0  0
    8.1776   -1.6592    2.4233 H   0  0  0  0  0  0  0  0  0  0  0  0
   11.3358    2.7274    4.8771 H   0  0  0  0  0  0  0  0  0  0  0  0
   12.7816    3.2117    5.4616 H   0  0  0  0  0  0  0  0  0  0  0  0
   11.6044    4.3087    5.1836 H   0  0  0  0  0  0  0  0  0  0  0  0
   14.0944    5.6536    4.7247 H   0  0  0  0  0  0  0  0  0  0  0  0
   15.6460    7.0077    3.5135 H   0  0  0  0  0  0  0  0  0  0  0  0
   15.9018    6.6767    1.1481 H   0  0  0  0  0  0  0  0  0  0  0  0
   14.6035    5.0025    0.0464 H   0  0  0  0  0  0  0  0  0  0  0  0
    9.2970    2.9299    2.4193 H   0  0  0  0  0  0  0  0  0  0  0  0
  1  2  2  0  0  0  0
  1  3  2  0  0  0  0
  1  4  1  0  0  0  0
  4  5  1  0  0  0  0
  1  6  1  0  0  0  0
  6  7  1  0  0  0  0
  7  8  2  0  0  0  0
  8  9  1  0  0  0  0
  9 10  2  0  0  0  0
 10 11  1  0  0  0  0
 11  6  2  0  0  0  0
  9 12  1  0  0  0  0
 12 13  1  0  0  0  0
 13 14  1  0  0  0  0
 14 15  2  0  0  0  0
 15 16  1  0  0  0  0
 12 16  2  0  0  0  0
 15 17  1  0  0  0  0
 17 18  1  0  0  0  0
 18 19  2  0  0  0  0
 19 20  1  0  0  0  0
 20 21  1  0  0  0  0
 21 22  2  0  0  0  0
 22 23  1  0  0  0  0
 23 24  1  0  0  0  0
 24 25  1  0  0  0  0
 25 21  1  0  0  0  0
 25 26  1  0  0  0  0
 24 27  2  0  0  0  0
 27 28  1  0  0  0  0
 28 29  2  0  0  0  0
 29 30  1  0  0  0  0
 30 23  2  0  0  0  0
 20 31  1  0  0  0  0
 17 31  2  0  0  0  0
  4 32  1  0  0  0  0
  5 33  1  0  0  0  0
  5 34  1  0  0  0  0
  5 35  1  0  0  0  0
  7 36  1  0  0  0  0
  8 37  1  0  0  0  0
 10 38  1  0  0  0  0
 11 39  1  0  0  0  0
 14 40  1  0  0  0  0
 26 41  1  0  0  0  0
 26 42  1  0  0  0  0
 26 43  1  0  0  0  0
 27 44  1  0  0  0  0
 28 45  1  0  0  0  0
 29 46  1  0  0  0  0
 30 47  1  0  0  0  0
 31 48  1  0  0  0  0
M  END
>  <result-rank>
2

>  <similarity>
0.900

>  <query-name>


>  <query-smiles>
S(=O)(=O)(NC(=O)C)c1ccc(cc1)C=2N3C(=NC(=C3)COc4nc5c(cc4)cccc5)C(=NC2)N6CCOCC6

>  <source>
REALspace_2019-12

>  <similarity-descriptor>
1.000;0.0;0.889;0.976;0.819;0.998;1.000;0.733;0.733;0.733;0.889;0.889;0.0

>  <similarity-descriptor-smiles>
c1ccccc1;;C1=CNN=N1;C1=NC=CS1;C=1N(ccN1)C;c1ccccc1;S(=O)=O;NC;NC;NC;C1=CNN=N1;C1=CNN=N1;

>  <reaction-name>
m_274972

>  <reagent1-name>
12934192

>  <reagent1-smiles>
[R1*]SC(=N[R2*])c1ccc(S(=O)(=O)NC)cc1

>  <reagent2-name>
12615770

>  <reagent2-smiles>
[R2*]C(C([R3*])=C[R4*])=C[R1*]

>  <reagent3-name>
16922018

>  <reagent3-smiles>
[R3*]N=NN([R4*])C1=Nc2c(N1C)cccc2

$$$$
m_274972____12934192____12615770____14472232
          04022017303D 1   1.00000     0.00000     0
            
 51 55  0  0  0  0            999 V2000
   10.1548    1.6771    2.3673 S   0  0  0  0  0  0  0  0  0  0  0  0
   10.7321    2.8155    3.0339 O   0  0  0  0  0  0  0  0  0  0  0  0
   10.5568    0.4705    3.0426 O   0  0  0  0  0  0  0  0  0  0  0  0
   10.6715    1.6327    0.8220 N   0  0  0  0  0  0  0  0  0  0  0  0
   10.0821    0.4706    0.1414 C   0  0  0  0  0  0  0  0  0  0  0  0
    8.4200    1.8069    2.3952 C   0  0  0  0  0  0  0  0  0  0  0  0
    7.6437    0.6529    2.4108 C   0  0  0  0  0  0  0  0  0  0  0  0
    6.2577    0.7683    2.4333 C   0  0  0  0  0  0  0  0  0  0  0  0
    5.6642    2.0267    2.4390 C   0  0  0  0  0  0  0  0  0  0  0  0
    6.4448    3.1781    2.4235 C   0  0  0  0  0  0  0  0  0  0  0  0
    7.8313    3.0673    2.4012 C   0  0  0  0  0  0  0  0  0  0  0  0
    4.2182    2.1329    2.4615 C   0  0  0  0  0  0  0  0  0  0  0  0
    3.3303    3.5831    2.4714 S   0  0  0  0  0  0  0  0  0  0  0  0
    1.7841    2.8690    2.4950 C   0  0  0  0  0  0  0  0  0  0  0  0
    2.0375    1.5302    2.4908 C   0  0  0  0  0  0  0  0  0  0  0  0
    3.3498    1.1464    2.4729 N   0  0  0  0  0  0  0  0  0  0  0  0
    0.9118    0.6170    2.5150 C   0  0  0  0  0  0  0  0  0  0  0  0
   -0.4027    0.9693    2.5423 N   0  0  0  0  0  0  0  0  0  0  0  0
   -1.0789   -0.0973    2.5583 N   0  0  0  0  0  0  0  0  0  0  0  0
   -0.3063   -1.1555    2.5452 N   0  0  0  0  0  0  0  0  0  0  0  0
    0.9870   -0.7420    2.5184 C   0  0  0  0  0  0  0  0  0  0  0  0
   -0.7636   -2.5524    2.5593 C   0  0  3  0  0  0  0  0  0  0  0  0
   -0.2679   -3.2591    1.3124 C   0  0  0  0  0  0  0  0  0  0  0  0
   -0.7812   -3.1072   -0.0071 C   0  0  0  0  0  0  0  0  0  0  0  0
   -0.1257   -3.8784   -0.9418 C   0  0  0  0  0  0  0  0  0  0  0  0
    1.0785   -4.7311   -0.0903 S   0  0  0  0  0  0  0  0  0  0  0  0
    0.7722   -4.1205    1.4705 C   0  0  0  0  0  0  0  0  0  0  0  0
   -0.3918   -3.9503   -2.3009 C   0  0  0  0  0  0  0  0  0  0  0  0
   -1.4297   -3.1566   -2.7655 C   0  0  0  0  0  0  0  0  0  0  0  0
   -2.1372   -2.3512   -1.8783 C   0  0  0  0  0  0  0  0  0  0  0  0
   -1.8132   -2.3325   -0.5257 C   0  0  0  0  0  0  0  0  0  0  0  0
   -0.2140   -3.2530    3.7911 C   0  0  0  0  0  0  0  0  0  0  0  0
   11.6685    1.5581    0.8059 H   0  0  0  0  0  0  0  0  0  0  0  0
   10.3991    0.4434   -0.8066 H   0  0  0  0  0  0  0  0  0  0  0  0
   10.3613   -0.3673    0.6104 H   0  0  0  0  0  0  0  0  0  0  0  0
    9.0850    0.5452    0.1575 H   0  0  0  0  0  0  0  0  0  0  0  0
    8.0766   -0.2485    2.4058 H   0  0  0  0  0  0  0  0  0  0  0  0
    5.6878   -0.0533    2.4453 H   0  0  0  0  0  0  0  0  0  0  0  0
    6.0120    4.0795    2.4284 H   0  0  0  0  0  0  0  0  0  0  0  0
    8.4014    3.8888    2.3896 H   0  0  0  0  0  0  0  0  0  0  0  0
    0.8951    3.3268    2.5089 H   0  0  0  0  0  0  0  0  0  0  0  0
    1.8104   -1.3093    2.5044 H   0  0  0  0  0  0  0  0  0  0  0  0
   -1.7631   -2.5757    2.5806 H   0  0  0  0  0  0  0  0  0  0  0  0
    1.2525   -4.3463    2.3180 H   0  0  0  0  0  0  0  0  0  0  0  0
    0.1351   -4.5413   -2.9117 H   0  0  0  0  0  0  0  0  0  0  0  0
   -1.6693   -3.1630   -3.7363 H   0  0  0  0  0  0  0  0  0  0  0  0
   -2.8856   -1.7805   -2.2163 H   0  0  0  0  0  0  0  0  0  0  0  0
   -2.3372   -1.7454    0.0914 H   0  0  0  0  0  0  0  0  0  0  0  0
   -0.5251   -4.2033    3.8007 H   0  0  0  0  0  0  0  0  0  0  0  0
    0.7855   -3.2296    3.7698 H   0  0  0  0  0  0  0  0  0  0  0  0
   -0.5409   -2.7869    4.6133 H   0  0  0  0  0  0  0  0  0  0  0  0
  1  2  2  0  0  0  0
  1  3  2  0  0  0  0
  1  4  1  0  0  0  0
  4  5  1  0  0  0  0
  1  6  1  0  0  0  0
  6  7  1  0  0  0  0
  7  8  2  0  0  0  0
  8  9  1  0  0  0  0
  9 10  2  0  0  0  0
 10 11  1  0  0  0  0
 11  6  2  0  0  0  0
  9 12  1  0  0  0  0
 12 13  1  0  0  0  0
 13 14  1  0  0  0  0
 14 15  2  0  0  0  0
 15 16  1  0  0  0  0
 12 16  2  0  0  0  0
 15 17  1  0  0  0  0
 17 18  1  0  0  0  0
 18 19  2  0  0  0  0
 19 20  1  0  0  0  0
 20 21  1  0  0  0  0
 17 21  2  0  0  0  0
 20 22  1  0  0  0  0
 22 23  1  0  0  0  0
 23 24  1  0  0  0  0
 24 25  1  0  0  0  0
 25 26  1  0  0  0  0
 26 27  1  0  0  0  0
 23 27  2  0  0  0  0
 25 28  2  0  0  0  0
 28 29  1  0  0  0  0
 29 30  2  0  0  0  0
 30 31  1  0  0  0  0
 31 24  2  0  0  0  0
 22 32  1  0  0  0  0
  4 33  1  0  0  0  0
  5 34  1  0  0  0  0
  5 35  1  0  0  0  0
  5 36  1  0  0  0  0
  7 37  1  0  0  0  0
  8 38  1  0  0  0  0
 10 39  1  0  0  0  0
 11 40  1  0  0  0  0
 14 41  1  0  0  0  0
 21 42  1  0  0  0  0
 22 43  1  0  0  0  0
 27 44  1  0  0  0  0
 28 45  1  0  0  0  0
 29 46  1  0  0  0  0
 30 47  1  0  0  0  0
 31 48  1  0  0  0  0
 32 49  1  0  0  0  0
 32 50  1  0  0  0  0
 32 51  1  0  0  0  0
M  END
>  <result-rank>
3

>  <similarity>
0.895

>  <query-name>


>  <query-smiles>
S(=O)(=O)(NC(=O)C)c1ccc(cc1)C=2N3C(=NC(=C3)COc4nc5c(cc4)cccc5)C(=NC2)N6CCOCC6

>  <source>
REALspace_2019-12

>  <similarity-descriptor>
1.000;0.0;0.889;0.976;0.815;1.000;1.000;0.733;0.733;0.733;0.889;0.889;0.100

>  <similarity-descriptor-smiles>
c1ccccc1;;C1=CNN=N1;C1=NC=CS1;CC1=CScc1;c1ccccc1;S(=O)=O;NC;NC;NC;C1=CNN=N1;C1=CNN=N1;C

>  <reaction-name>
m_274972

>  <reagent1-name>
12934192

>  <reagent1-smiles>
[R1*]SC(=N[R2*])c1ccc(S(=O)(=O)NC)cc1

>  <reagent2-name>
12615770

>  <reagent2-smiles>
[R2*]C(C([R3*])=C[R4*])=C[R1*]

>  <reagent3-name>
14472232

>  <reagent3-smiles>
[R3*]N=NN([R4*])C(C=1c2c(SC1)cccc2)C

$$$$
m_276096____13709592____16895042
          04022017303D 1   1.00000     0.00000     0
            
 57 61  0  0  0  0            999 V2000
    8.8343    5.3048    3.3042 S   0  0  0  0  0  0  0  0  0  0  0  0
    9.9943    5.1651    2.4625 O   0  0  0  0  0  0  0  0  0  0  0  0
    8.3711    6.6675    3.2608 O   0  0  0  0  0  0  0  0  0  0  0  0
    9.2250    4.9123    4.8373 N   0  0  0  0  0  0  0  0  0  0  0  0
    8.0408    5.0549    5.6965 C   0  0  0  0  0  0  0  0  0  0  0  0
    7.5755    4.2459    2.7373 C   0  0  0  0  0  0  0  0  0  0  0  0
    6.2433    4.5994    2.9233 C   0  0  0  0  0  0  0  0  0  0  0  0
    5.2450    3.7456    2.4660 C   0  0  0  0  0  0  0  0  0  0  0  0
    5.5845    2.5544    1.8322 C   0  0  0  0  0  0  0  0  0  0  0  0
    6.9185    2.2051    1.6483 C   0  0  0  0  0  0  0  0  0  0  0  0
    7.9201    3.0562    2.1039 C   0  0  0  0  0  0  0  0  0  0  0  0
    4.5340    1.6728    1.3612 C   0  0  0  0  0  0  0  0  0  0  0  0
    3.1928    1.9183    1.4899 N   0  0  0  0  0  0  0  0  0  0  0  0
    2.3983    1.0000    1.0000 C   0  0  0  0  0  0  0  0  0  0  0  0
    3.4065   -0.2152    0.3650 S   0  0  0  0  0  0  0  0  0  0  0  0
    4.8961    0.5148    0.7506 C   0  0  0  0  0  0  0  0  0  0  0  0
    1.0000    1.0000    1.0000 N   0  0  0  0  0  0  0  0  0  0  0  0
    0.2650    2.1283    1.5896 C   0  0  0  0  0  0  0  0  0  0  0  0
    0.0117    3.1810    0.5227 C   0  0  0  0  0  0  0  0  0  0  0  0
   -1.0350    3.2430   -0.2623 O   0  0  0  0  0  0  0  0  0  0  0  0
   -0.9484    4.2386   -1.0427 N   0  0  0  0  0  0  0  0  0  0  0  0
    0.1613    4.8967   -0.8206 C   0  0  0  0  0  0  0  0  0  0  0  0
    0.6133    6.0906   -1.5119 C   0  0  0  0  0  0  0  0  0  0  0  0
    0.2351    7.3247   -0.9931 C   0  0  0  0  0  0  0  0  0  0  0  0
   -0.5274    7.4096    0.1178 O   0  0  0  0  0  0  0  0  0  0  0  0
   -0.9001    8.6815    0.6276 C   0  0  0  0  0  0  0  0  0  0  0  0
    0.6372    8.5017   -1.6141 C   0  0  0  0  0  0  0  0  0  0  0  0
    1.4225    8.4494   -2.7596 C   0  0  0  0  0  0  0  0  0  0  0  0
    1.8060    7.2206   -3.2840 C   0  0  0  0  0  0  0  0  0  0  0  0
    1.4021    6.0425   -2.6610 C   0  0  0  0  0  0  0  0  0  0  0  0
    1.8096    4.8353   -3.2236 C   0  0  0  0  0  0  0  0  0  0  0  0
    2.5954    4.7843   -4.3696 C   0  0  0  0  0  0  0  0  0  0  0  0
    2.9816    5.9795   -4.9671 C   0  0  0  0  0  0  0  0  0  0  0  0
    2.5918    7.2027   -4.4316 C   0  0  0  0  0  0  0  0  0  0  0  0
    0.8310    4.2228    0.2191 C   0  0  0  0  0  0  0  0  0  0  0  0
    9.9485    5.5209    5.1631 H   0  0  0  0  0  0  0  0  0  0  0  0
    8.2805    4.8141    6.6370 H   0  0  0  0  0  0  0  0  0  0  0  0
    7.7191    6.0012    5.6663 H   0  0  0  0  0  0  0  0  0  0  0  0
    7.3173    4.4463    5.3707 H   0  0  0  0  0  0  0  0  0  0  0  0
    6.0061    5.4567    3.3802 H   0  0  0  0  0  0  0  0  0  0  0  0
    4.2831    3.9879    2.5928 H   0  0  0  0  0  0  0  0  0  0  0  0
    7.1558    1.3478    1.1915 H   0  0  0  0  0  0  0  0  0  0  0  0
    8.8821    2.8142    1.9770 H   0  0  0  0  0  0  0  0  0  0  0  0
    5.8182    0.1722    0.5703 H   0  0  0  0  0  0  0  0  0  0  0  0
    0.5000    0.2325    0.5989 H   0  0  0  0  0  0  0  0  0  0  0  0
    0.8054    2.5276    2.3302 H   0  0  0  0  0  0  0  0  0  0  0  0
   -0.6088    1.8040    1.9520 H   0  0  0  0  0  0  0  0  0  0  0  0
   -1.4596    8.5610    1.4477 H   0  0  0  0  0  0  0  0  0  0  0  0
   -0.0781    9.2020    0.8585 H   0  0  0  0  0  0  0  0  0  0  0  0
   -1.4252    9.1771   -0.0642 H   0  0  0  0  0  0  0  0  0  0  0  0
    0.3615    9.3858   -1.2367 H   0  0  0  0  0  0  0  0  0  0  0  0
    1.7117    9.2959   -3.2066 H   0  0  0  0  0  0  0  0  0  0  0  0
    1.5284    3.9791   -2.7902 H   0  0  0  0  0  0  0  0  0  0  0  0
    2.8772    3.9062   -4.7563 H   0  0  0  0  0  0  0  0  0  0  0  0
    3.5466    5.9592   -5.7919 H   0  0  0  0  0  0  0  0  0  0  0  0
    2.8730    8.0583   -4.8662 H   0  0  0  0  0  0  0  0  0  0  0  0
    1.7082    4.4570    0.6382 H   0  0  0  0  0  0  0  0  0  0  0  0
  1  2  2  0  0  0  0
  1  3  2  0  0  0  0
  1  4  1  0  0  0  0
  4  5  1  0  0  0  0
  1  6  1  0  0  0  0
  6  7  1  0  0  0  0
  7  8  2  0  0  0  0
  8  9  1  0  0  0  0
  9 10  2  0  0  0  0
 10 11  1  0  0  0  0
 11  6  2  0  0  0  0
  9 12  1  0  0  0  0
 12 13  1  0  0  0  0
 13 14  2  0  0  0  0
 14 15  1  0  0  0  0
 15 16  1  0  0  0  0
 12 16  2  0  0  0  0
 14 17  1  0  0  0  0
 17 18  1  0  0  0  0
 18 19  1  0  0  0  0
 19 20  1  0  0  0  0
 20 21  1  0  0  0  0
 21 22  2  0  0  0  0
 22 23  1  0  0  0  0
 23 24  1  0  0  0  0
 24 25  1  0  0  0  0
 25 26  1  0  0  0  0
 24 27  2  0  0  0  0
 27 28  1  0  0  0  0
 28 29  2  0  0  0  0
 29 30  1  0  0  0  0
 30 23  2  0  0  0  0
 30 31  1  0  0  0  0
 31 32  2  0  0  0  0
 32 33  1  0  0  0  0
 33 34  2  0  0  0  0
 34 29  1  0  0  0  0
 22 35  1  0  0  0  0
 19 35  2  0  0  0  0
  4 36  1  0  0  0  0
  5 37  1  0  0  0  0
  5 38  1  0  0  0  0
  5 39  1  0  0  0  0
  7 40  1  0  0  0  0
  8 41  1  0  0  0  0
 10 42  1  0  0  0  0
 11 43  1  0  0  0  0
 16 44  1  0  0  0  0
 17 45  1  0  0  0  0
 18 46  1  0  0  0  0
 18 47  1  0  0  0  0
 26 48  1  0  0  0  0
 26 49  1  0  0  0  0
 26 50  1  0  0  0  0
 27 51  1  0  0  0  0
 28 52  1  0  0  0  0
 31 53  1  0  0  0  0
 32 54  1  0  0  0  0
 33 55  1  0  0  0  0
 34 56  1  0  0  0  0
 35 57  1  0  0  0  0
M  END
>  <result-rank>
4

>  <similarity>
0.893

>  <query-name>


>  <query-smiles>
S(=O)(=O)(NC(=O)C)c1ccc(cc1)C=2N3C(=NC(=C3)COc4nc5c(cc4)cccc5)C(=NC2)N6CCOCC6

>  <source>
REALspace_2019-12

>  <similarity-descriptor>
1.000;0.0;0.922;0.798;0.956;0.999;1.000;0.733;0.733;0.733;0.922;0.922;0.083

>  <similarity-descriptor-smiles>
c1ccccc1;;C1=CC=NO1;C1=CSC(=N1)NC;c1ccccc1O;c1ccccc1;S(=O)=O;NC;NC;NC;C1=CC=NO1;C1=CC=NO1;C

>  <reaction-name>
m_276096

>  <reagent1-name>
13709592

>  <reagent1-smiles>
[R1*]SC(=N[R2*])NCC=1ON=C(c2c(OC)ccc3c2cccc3)C1

>  <reagent2-name>
16895042

>  <reagent2-smiles>
[R2*]C(c1ccc(S(=O)(=O)NC)cc1)=C[R1*]

$$$$
m_274972____12934254____12615770____13046748
          04022017303D 1   1.00000     0.00000     0
            
 51 55  0  0  0  0            999 V2000
    0.4035    3.7616    2.5294 S   0  0  0  0  0  0  0  0  0  0  0  0
   -0.5815    2.9642    3.2130 O   0  0  0  0  0  0  0  0  0  0  0  0
    0.5624    5.0187    3.2135 O   0  0  0  0  0  0  0  0  0  0  0  0
   -0.0853    4.0341    0.9985 N   0  0  0  0  0  0  0  0  0  0  0  0
   -1.3696    4.7492    1.0142 C   0  0  0  0  0  0  0  0  0  0  0  0
    0.9202    4.8481    0.3005 C   0  0  0  0  0  0  0  0  0  0  0  0
    1.9848    2.8811    2.5100 C   0  0  0  0  0  0  0  0  0  0  0  0
    3.1740    3.6024    2.5029 C   0  0  0  0  0  0  0  0  0  0  0  0
    4.3836    2.9156    2.4883 C   0  0  0  0  0  0  0  0  0  0  0  0
    4.3937    1.5243    2.4800 C   0  0  0  0  0  0  0  0  0  0  0  0
    3.2017    0.8072    2.4872 C   0  0  0  0  0  0  0  0  0  0  0  0
    1.9898    1.4900    2.5021 C   0  0  0  0  0  0  0  0  0  0  0  0
    5.6630    0.8199    2.4636 C   0  0  0  0  0  0  0  0  0  0  0  0
    5.8598   -0.8692    2.4518 S   0  0  0  0  0  0  0  0  0  0  0  0
    7.5630   -0.8704    2.4327 C   0  0  0  0  0  0  0  0  0  0  0  0
    7.8952    0.4511    2.4332 C   0  0  0  0  0  0  0  0  0  0  0  0
    6.8653    1.3505    2.4501 N   0  0  0  0  0  0  0  0  0  0  0  0
    9.3004    0.8070    2.4258 C   0  0  0  0  0  0  0  0  0  0  0  0
   10.3458   -0.0647    2.4091 N   0  0  0  0  0  0  0  0  0  0  0  0
   11.4075    0.6193    2.4085 N   0  0  0  0  0  0  0  0  0  0  0  0
   11.1507    1.9040    2.4255 N   0  0  0  0  0  0  0  0  0  0  0  0
    9.8031    2.0719    2.4383 C   0  0  0  0  0  0  0  0  0  0  0  0
   12.1526    2.9796    2.4317 C   0  0  0  0  0  0  0  0  0  0  0  0
   12.4886    3.3675    1.0006 C   0  0  0  0  0  0  0  0  0  0  0  0
   11.8515    4.3263    0.2686 N   0  0  0  0  0  0  0  0  0  0  0  0
   12.4229    4.3714   -0.9123 C   0  0  0  0  0  0  0  0  0  0  0  0
   13.4224    3.4579   -0.9642 N   0  0  0  0  0  0  0  0  0  0  0  0
   13.4730    2.8172    0.2381 C   0  0  0  0  0  0  0  0  0  0  0  0
   14.1772    3.3061   -2.0988 C   0  0  0  0  0  0  0  0  0  0  0  0
   13.9321    4.0793   -3.2043 C   0  0  0  0  0  0  0  0  0  0  0  0
   12.8905    5.0456   -3.1788 C   0  0  0  0  0  0  0  0  0  0  0  0
   12.1424    5.1875   -2.0396 C   0  0  0  0  0  0  0  0  0  0  0  0
   -1.6695    4.9164    0.0750 H   0  0  0  0  0  0  0  0  0  0  0  0
   -2.0537    4.1954    1.4889 H   0  0  0  0  0  0  0  0  0  0  0  0
   -1.2593    5.6222    1.4892 H   0  0  0  0  0  0  0  0  0  0  0  0
    0.6203    5.0153   -0.6387 H   0  0  0  0  0  0  0  0  0  0  0  0
    1.0306    5.7211    0.7756 H   0  0  0  0  0  0  0  0  0  0  0  0
    1.7939    4.3617    0.2899 H   0  0  0  0  0  0  0  0  0  0  0  0
    3.1597    4.6022    2.5083 H   0  0  0  0  0  0  0  0  0  0  0  0
    5.2459    3.4219    2.4837 H   0  0  0  0  0  0  0  0  0  0  0  0
    3.2159   -0.1927    2.4818 H   0  0  0  0  0  0  0  0  0  0  0  0
    1.1273    0.9839    2.5071 H   0  0  0  0  0  0  0  0  0  0  0  0
    8.1776   -1.6592    2.4233 H   0  0  0  0  0  0  0  0  0  0  0  0
    9.2940    2.9325    2.4535 H   0  0  0  0  0  0  0  0  0  0  0  0
   12.9803    2.6615    2.8940 H   0  0  0  0  0  0  0  0  0  0  0  0
   11.7854    3.7744    2.9150 H   0  0  0  0  0  0  0  0  0  0  0  0
   14.1053    2.0902    0.5058 H   0  0  0  0  0  0  0  0  0  0  0  0
   14.9110    2.6271   -2.1202 H   0  0  0  0  0  0  0  0  0  0  0  0
   14.4864    3.9632   -4.0285 H   0  0  0  0  0  0  0  0  0  0  0  0
   12.7061    5.6139   -3.9807 H   0  0  0  0  0  0  0  0  0  0  0  0
   11.4041    5.8610   -2.0025 H   0  0  0  0  0  0  0  0  0  0  0  0
  1  2  2  0  0  0  0
  1  3  2  0  0  0  0
  1  4  1  0  0  0  0
  4  5  1  0  0  0  0
  4  6  1  0  0  0  0
  1  7  1  0  0  0  0
  7  8  1  0  0  0  0
  8  9  2  0  0  0  0
  9 10  1  0  0  0  0
 10 11  2  0  0  0  0
 11 12  1  0  0  0  0
 12  7  2  0  0  0  0
 10 13  1  0  0  0  0
 13 14  1  0  0  0  0
 14 15  1  0  0  0  0
 15 16  2  0  0  0  0
 16 17  1  0  0  0  0
 13 17  2  0  0  0  0
 16 18  1  0  0  0  0
 18 19  1  0  0  0  0
 19 20  2  0  0  0  0
 20 21  1  0  0  0  0
 21 22  1  0  0  0  0
 18 22  2  0  0  0  0
 21 23  1  0  0  0  0
 23 24  1  0  0  0  0
 24 25  1  0  0  0  0
 25 26  2  0  0  0  0
 26 27  1  0  0  0  0
 27 28  1  0  0  0  0
 24 28  2  0  0  0  0
 27 29  1  0  0  0  0
 29 30  2  0  0  0  0
 30 31  1  0  0  0  0
 31 32  2  0  0  0  0
 32 26  1  0  0  0  0
  5 33  1  0  0  0  0
  5 34  1  0  0  0  0
  5 35  1  0  0  0  0
  6 36  1  0  0  0  0
  6 37  1  0  0  0  0
  6 38  1  0  0  0  0
  8 39  1  0  0  0  0
  9 40  1  0  0  0  0
 11 41  1  0  0  0  0
 12 42  1  0  0  0  0
 15 43  1  0  0  0  0
 22 44  1  0  0  0  0
 23 45  1  0  0  0  0
 23 46  1  0  0  0  0
 28 47  1  0  0  0  0
 29 48  1  0  0  0  0
 30 49  1  0  0  0  0
 31 50  1  0  0  0  0
 32 51  1  0  0  0  0
M  END
>  <result-rank>
5

>  <similarity>
0.892

>  <query-name>


>  <query-smiles>
S(=O)(=O)(NC(=O)C)c1ccc(cc1)C=2N3C(=NC(=C3)COc4nc5c(cc4)cccc5)C(=NC2)N6CCOCC6

>  <source>
REALspace_2019-12

>  <similarity-descriptor>
1.000;0.0;0.889;0.976;0.860;0.969;1.000;0.528;0.528;0.995;0.889;0.889;0.0

>  <similarity-descriptor-smiles>
c1ccccc1;;C1=CNN=N1;C1=NC=CS1;CC1=CNC=N1;C1C=CC=CN1;S(=O)=O;NC;NC;C;C1=CNN=N1;C1=CNN=N1;

>  <reaction-name>
m_274972

>  <reagent1-name>
12934254

>  <reagent1-smiles>
[R1*]SC(=N[R2*])c1ccc(S(=O)(=O)N(C)C)cc1

>  <reagent2-name>
12615770

>  <reagent2-smiles>
[R2*]C(C([R3*])=C[R4*])=C[R1*]

>  <reagent3-name>
13046748

>  <reagent3-smiles>
[R3*]N=NN([R4*])CC=1N=C2N(C1)C=CC=C2

$$$$
m_274972____12933802____12615770____13047176
          04022017303D 1   1.00000     0.00000     0
            
 49 53  0  0  0  0            999 V2000
    5.9272    3.4726    5.8718 S   0  0  0  0  0  0  0  0  0  0  0  0
    5.8615    1.7774    5.7349 C   0  0  0  0  0  0  0  0  0  0  0  0
    4.9454    1.5162    4.8365 N   0  0  0  0  0  0  0  0  0  0  0  0
    4.3318    2.6068    4.2800 C   0  0  0  0  0  0  0  0  0  0  0  0
    3.2991    2.5453    3.2760 C   0  0  0  0  0  0  0  0  0  0  0  0
    2.6732    3.6115    2.7067 N   0  0  0  0  0  0  0  0  0  0  0  0
    1.8344    3.1585    1.8782 N   0  0  0  0  0  0  0  0  0  0  0  0
    1.8486    1.8486    1.8486 N   0  0  0  0  0  0  0  0  0  0  0  0
    2.7783    1.4096    2.7359 C   0  0  0  0  0  0  0  0  0  0  0  0
    1.0000    1.0000    1.0000 C   0  0  0  0  0  0  0  0  0  0  0  0
    1.7036    0.7415   -0.3229 C   0  0  0  0  0  0  0  0  0  0  0  0
    2.5598   -0.3837   -0.4642 C   0  0  0  0  0  0  0  0  0  0  0  0
    2.7148   -1.1170    0.4729 O   0  0  0  0  0  0  0  0  0  0  0  0
    3.1909   -0.6102   -1.6607 N   0  0  0  0  0  0  0  0  0  0  0  0
    3.0040    0.2394   -2.7261 C   0  0  0  0  0  0  0  0  0  0  0  0
    2.1694    1.3479   -2.6122 C   0  0  0  0  0  0  0  0  0  0  0  0
    1.9605    2.2260   -3.6702 C   0  0  0  0  0  0  0  0  0  0  0  0
    2.6062    1.9857   -4.8784 C   0  0  0  0  0  0  0  0  0  0  0  0
    3.4477    0.8892   -5.0327 C   0  0  0  0  0  0  0  0  0  0  0  0
    3.6324    0.0336   -3.9523 C   0  0  0  0  0  0  0  0  0  0  0  0
    1.5115    1.5935   -1.3786 C   0  0  0  0  0  0  0  0  0  0  0  0
    4.0646   -1.7890   -1.7496 C   0  0  0  0  0  0  0  0  0  0  0  0
    4.7290    3.8305    4.7155 C   0  0  0  0  0  0  0  0  0  0  0  0
    6.6334    0.8569    6.4536 N   0  0  0  0  0  0  0  0  0  0  0  0
    6.4474   -0.5820    6.2095 C   0  0  0  0  0  0  0  0  0  0  0  0
    7.7554   -1.3381    6.3847 C   0  0  0  0  0  0  0  0  0  0  0  0
    8.4315   -0.9402    7.5706 O   0  0  0  0  0  0  0  0  0  0  0  0
    8.8293    0.4222    7.4898 C   0  0  0  0  0  0  0  0  0  0  0  0
    7.6277    1.3521    7.4176 C   0  0  0  0  0  0  0  0  0  0  0  0
    3.0251    0.4635    2.9455 H   0  0  0  0  0  0  0  0  0  0  0  0
    0.1300    1.4627    0.8300 H   0  0  0  0  0  0  0  0  0  0  0  0
    0.8300    0.1300    1.4627 H   0  0  0  0  0  0  0  0  0  0  0  0
    1.3567    3.0161   -3.5642 H   0  0  0  0  0  0  0  0  0  0  0  0
    2.4634    2.6098   -5.6467 H   0  0  0  0  0  0  0  0  0  0  0  0
    3.9105    0.7195   -5.9028 H   0  0  0  0  0  0  0  0  0  0  0  0
    4.2367   -0.7560   -4.0591 H   0  0  0  0  0  0  0  0  0  0  0  0
    0.9097    2.3861   -1.2803 H   0  0  0  0  0  0  0  0  0  0  0  0
    4.0641   -2.2711   -0.8735 H   0  0  0  0  0  0  0  0  0  0  0  0
    3.7284   -2.3998   -2.4664 H   0  0  0  0  0  0  0  0  0  0  0  0
    4.9957   -1.4979   -1.9694 H   0  0  0  0  0  0  0  0  0  0  0  0
    4.3969    4.7283    4.4261 H   0  0  0  0  0  0  0  0  0  0  0  0
    6.1153   -0.7151    5.2757 H   0  0  0  0  0  0  0  0  0  0  0  0
    5.7740   -0.9392    6.8568 H   0  0  0  0  0  0  0  0  0  0  0  0
    7.5605   -2.3176    6.4348 H   0  0  0  0  0  0  0  0  0  0  0  0
    8.3445   -1.1552    5.5977 H   0  0  0  0  0  0  0  0  0  0  0  0
    9.3879    0.5493    6.6702 H   0  0  0  0  0  0  0  0  0  0  0  0
    9.3690    0.6514    8.2999 H   0  0  0  0  0  0  0  0  0  0  0  0
    7.2051    1.4107    8.3220 H   0  0  0  0  0  0  0  0  0  0  0  0
    7.9342    2.2606    7.1334 H   0  0  0  0  0  0  0  0  0  0  0  0
  1  2  1  0  0  0  0
  2  3  2  0  0  0  0
  3  4  1  0  0  0  0
  4  5  1  0  0  0  0
  5  6  1  0  0  0  0
  6  7  2  0  0  0  0
  7  8  1  0  0  0  0
  8  9  1  0  0  0  0
  5  9  2  0  0  0  0
  8 10  1  0  0  0  0
 10 11  1  0  0  0  0
 11 12  1  0  0  0  0
 12 13  2  0  0  0  0
 12 14  1  0  0  0  0
 14 15  1  0  0  0  0
 15 16  1  0  0  0  0
 16 17  2  0  0  0  0
 17 18  1  0  0  0  0
 18 19  2  0  0  0  0
 19 20  1  0  0  0  0
 20 15  2  0  0  0  0
 16 21  1  0  0  0  0
 11 21  2  0  0  0  0
 14 22  1  0  0  0  0
  4 23  2  0  0  0  0
 23  1  1  0  0  0  0
  2 24  1  0  0  0  0
 24 25  1  0  0  0  0
 25 26  1  0  0  0  0
 26 27  1  0  0  0  0
 27 28  1  0  0  0  0
 28 29  1  0  0  0  0
 29 24  1  0  0  0  0
  9 30  1  0  0  0  0
 10 31  1  0  0  0  0
 10 32  1  0  0  0  0
 17 33  1  0  0  0  0
 18 34  1  0  0  0  0
 19 35  1  0  0  0  0
 20 36  1  0  0  0  0
 21 37  1  0  0  0  0
 22 38  1  0  0  0  0
 22 39  1  0  0  0  0
 22 40  1  0  0  0  0
 23 41  1  0  0  0  0
 25 42  1  0  0  0  0
 25 43  1  0  0  0  0
 26 44  1  0  0  0  0
 26 45  1  0  0  0  0
 28 46  1  0  0  0  0
 28 47  1  0  0  0  0
 29 48  1  0  0  0  0
 29 49  1  0  0  0  0
M  END
>  <result-rank>
6

>  <similarity>
0.891

>  <query-name>


>  <query-smiles>
S(=O)(=O)(NC(=O)C)c1ccc(cc1)C=2N3C(=NC(=C3)COc4nc5c(cc4)cccc5)C(=NC2)N6CCOCC6

>  <source>
REALspace_2019-12

>  <similarity-descriptor>
0.0;1.000;0.832;0.973;0.960;0.999;0.0;0.0;0.0;0.0;0.999;0.960;0.143

>  <similarity-descriptor-smiles>
;N1CCOCC1;C1=CNN=N1;S1C=CN=C1;C1=CccNC1=O;c1ccccc1;;;;;C;C1=CccNC1=O;C

>  <reaction-name>
m_274972

>  <reagent1-name>
12933802

>  <reagent1-smiles>
[R1*]SC(=N[R2*])N1CCOCC1

>  <reagent2-name>
12615770

>  <reagent2-smiles>
[R2*]C(C([R3*])=C[R4*])=C[R1*]

>  <reagent3-name>
13047176

>  <reagent3-smiles>
[R3*]N=NN([R4*])CC=1C(=O)N(c2c(cccc2)C1)C

$$$$
s_1458____478402____480860
          04022017303D 1   1.00000     0.00000     0
            
 59 63  0  0  0  0            999 V2000
    2.0433    6.9642   10.6184 Br  0  0  0  0  0  0  0  0  0  0  0  0
    2.5077    5.8987    9.0403 C   0  0  0  0  0  0  0  0  0  0  0  0
    3.8195    5.8888    8.5767 C   0  0  0  0  0  0  0  0  0  0  0  0
    4.1450    5.1323    7.4558 C   0  0  0  0  0  0  0  0  0  0  0  0
    3.1561    4.3951    6.8122 C   0  0  0  0  0  0  0  0  0  0  0  0
    1.8465    4.4081    7.2793 C   0  0  0  0  0  0  0  0  0  0  0  0
    1.5149    5.1635    8.3998 C   0  0  0  0  0  0  0  0  0  0  0  0
    3.4994    3.6082    5.6440 C   0  0  0  0  0  0  0  0  0  0  0  0
    2.6148    2.8448    4.9296 N   0  0  0  0  0  0  0  0  0  0  0  0
    3.1170    2.2050    3.9035 C   0  0  0  0  0  0  0  0  0  0  0  0
    4.7742    2.5909    3.8640 S   0  0  0  0  0  0  0  0  0  0  0  0
    4.7904    3.6186    5.2219 C   0  0  0  0  0  0  0  0  0  0  0  0
    2.4413    1.3627    3.0152 N   0  0  0  0  0  0  0  0  0  0  0  0
    1.8776    1.8776    1.8776 C   0  0  0  0  0  0  0  0  0  0  0  0
    2.0766    3.0213    1.5740 O   0  0  0  0  0  0  0  0  0  0  0  0
    1.0000    1.0000    1.0000 C   0  0  0  0  0  0  0  0  0  0  0  0
    0.7267    1.6734   -0.2199 O   0  0  0  0  0  0  0  0  0  0  0  0
   -0.0169    1.0991   -1.1328 C   0  0  0  0  0  0  0  0  0  0  0  0
   -0.4671    0.0039   -0.9381 O   0  0  0  0  0  0  0  0  0  0  0  0
   -0.2959    1.7867   -2.3786 C   0  0  0  0  0  0  0  0  0  0  0  0
   -1.0847    1.2539   -3.4233 C   0  0  0  0  0  0  0  0  0  0  0  0
   -1.0776    2.2377   -4.3915 C   0  0  0  0  0  0  0  0  0  0  0  0
   -0.3330    3.2979   -3.9536 N   0  0  0  0  0  0  0  0  0  0  0  0
    0.1547    3.0290   -2.7104 C   0  0  0  0  0  0  0  0  0  0  0  0
   -0.0853    4.5410   -4.6993 C   0  0  0  0  0  0  0  0  0  0  0  0
   -1.7650    2.0435   -5.5852 C   0  0  0  0  0  0  0  0  0  0  0  0
   -2.4681    0.8695   -5.8232 C   0  0  0  0  0  0  0  0  0  0  0  0
   -2.4860   -0.1267   -4.8527 C   0  0  0  0  0  0  0  0  0  0  0  0
   -1.7923    0.0780   -3.6653 C   0  0  0  0  0  0  0  0  0  0  0  0
    2.3357   -0.0751    3.3019 C   0  0  0  0  0  0  0  0  0  0  0  0
    3.6076   -0.7754    2.8546 C   0  0  3  0  0  0  0  0  0  0  0  0
    3.7477   -0.6942    1.4498 O   0  0  0  0  0  0  0  0  0  0  0  0
    4.6826   -1.7021    1.0891 C   0  0  0  0  0  0  0  0  0  0  0  0
    4.5772   -2.7771    2.1529 C   0  0  0  0  0  0  0  0  0  0  0  0
    3.4967   -2.2653    3.0860 C   0  0  0  0  0  0  0  0  0  0  0  0
    4.5234    6.4218    9.0462 H   0  0  0  0  0  0  0  0  0  0  0  0
    5.0848    5.1184    7.1143 H   0  0  0  0  0  0  0  0  0  0  0  0
    1.1429    3.8746    6.8099 H   0  0  0  0  0  0  0  0  0  0  0  0
    0.5749    5.1778    8.7406 H   0  0  0  0  0  0  0  0  0  0  0  0
    5.5660    4.1124    5.6151 H   0  0  0  0  0  0  0  0  0  0  0  0
    1.4742    0.1409    0.8075 H   0  0  0  0  0  0  0  0  0  0  0  0
    0.1409    0.8075    1.4742 H   0  0  0  0  0  0  0  0  0  0  0  0
    0.7302    3.6259   -2.1514 H   0  0  0  0  0  0  0  0  0  0  0  0
    0.4891    5.1494   -4.1517 H   0  0  0  0  0  0  0  0  0  0  0  0
    0.3797    4.3274   -5.5584 H   0  0  0  0  0  0  0  0  0  0  0  0
   -0.9564    4.9916   -4.8948 H   0  0  0  0  0  0  0  0  0  0  0  0
   -1.7528    2.7601   -6.2826 H   0  0  0  0  0  0  0  0  0  0  0  0
   -2.9576    0.7415   -6.6857 H   0  0  0  0  0  0  0  0  0  0  0  0
   -2.9897   -0.9767   -5.0066 H   0  0  0  0  0  0  0  0  0  0  0  0
   -1.8015   -0.6373   -2.9666 H   0  0  0  0  0  0  0  0  0  0  0  0
    1.5540   -0.4569    2.8088 H   0  0  0  0  0  0  0  0  0  0  0  0
    2.2085   -0.2106    4.2845 H   0  0  0  0  0  0  0  0  0  0  0  0
    4.4088   -0.3977    3.3188 H   0  0  0  0  0  0  0  0  0  0  0  0
    5.6084   -1.3247    1.0682 H   0  0  0  0  0  0  0  0  0  0  0  0
    4.4562   -2.0795    0.1912 H   0  0  0  0  0  0  0  0  0  0  0  0
    5.4450   -2.8832    2.6383 H   0  0  0  0  0  0  0  0  0  0  0  0
    4.3122   -3.6525    1.7486 H   0  0  0  0  0  0  0  0  0  0  0  0
    2.5943   -2.6117    2.8297 H   0  0  0  0  0  0  0  0  0  0  0  0
    3.6879   -2.5054    4.0377 H   0  0  0  0  0  0  0  0  0  0  0  0
  1  2  1  0  0  0  0
  2  3  1  0  0  0  0
  3  4  2  0  0  0  0
  4  5  1  0  0  0  0
  5  6  2  0  0  0  0
  6  7  1  0  0  0  0
  7  2  2  0  0  0  0
  5  8  1  0  0  0  0
  8  9  1  0  0  0  0
  9 10  2  0  0  0  0
 10 11  1  0  0  0  0
 11 12  1  0  0  0  0
  8 12  2  0  0  0  0
 10 13  1  0  0  0  0
 13 14  1  0  0  0  0
 14 15  2  0  0  0  0
 14 16  1  0  0  0  0
 16 17  1  0  0  0  0
 17 18  1  0  0  0  0
 18 19  2  0  0  0  0
 18 20  1  0  0  0  0
 20 21  1  0  0  0  0
 21 22  1  0  0  0  0
 22 23  1  0  0  0  0
 23 24  1  0  0  0  0
 20 24  2  0  0  0  0
 23 25  1  0  0  0  0
 22 26  2  0  0  0  0
 26 27  1  0  0  0  0
 27 28  2  0  0  0  0
 28 29  1  0  0  0  0
 29 21  2  0  0  0  0
 13 30  1  0  0  0  0
 30 31  1  0  0  0  0
 31 32  1  0  0  0  0
 32 33  1  0  0  0  0
 33 34  1  0  0  0  0
 34 35  1  0  0  0  0
 35 31  1  0  0  0  0
  3 36  1  0  0  0  0
  4 37  1  0  0  0  0
  6 38  1  0  0  0  0
  7 39  1  0  0  0  0
 12 40  1  0  0  0  0
 16 41  1  0  0  0  0
 16 42  1  0  0  0  0
 24 43  1  0  0  0  0
 25 44  1  0  0  0  0
 25 45  1  0  0  0  0
 25 46  1  0  0  0  0
 26 47  1  0  0  0  0
 27 48  1  0  0  0  0
 28 49  1  0  0  0  0
 29 50  1  0  0  0  0
 30 51  1  0  0  0  0
 30 52  1  0  0  0  0
 31 53  1  0  0  0  0
 33 54  1  0  0  0  0
 33 55  1  0  0  0  0
 34 56  1  0  0  0  0
 34 57  1  0  0  0  0
 35 58  1  0  0  0  0
 35 59  1  0  0  0  0
M  END
>  <result-rank>
7

>  <similarity>
0.887

>  <query-name>


>  <query-smiles>
S(=O)(=O)(NC(=O)C)c1ccc(cc1)C=2N3C(=NC(=C3)COc4nc5c(cc4)cccc5)C(=NC2)N6CCOCC6

>  <source>
REALspace_2019-12

>  <similarity-descriptor>
0.961;0.956;0.523;0.963;0.897;0.999;0.0;0.0;0.0;0.0;0.999;0.999;0.083

>  <similarity-descriptor-smiles>
Brc1ccccc1;CC1CCCO1;C=O;C1=CSC(=N1)N;C(=O)C1=CNcc1;c1ccccc1;;;;;CO;CO;C

>  <reaction-name>
s_1458

>  <reagent1-name>
478402

>  <reagent1-smiles>
[R1*]OC(=O)C=1c2c(N(C1)C)cccc2

>  <reagent2-name>
480860

>  <reagent2-smiles>
[R1*]CC(=O)N(C=1SC=C(N1)c2ccc(Br)cc2)CC3OCCC3

$$$$
s_2____11687950____16645038____10744010
          04022017303D 1   1.00000     0.00000     0
            
 62 66  0  0  0  0            999 V2000
   -1.9513    6.0842    0.4460 S   0  0  0  0  0  0  0  0  0  0  0  0
   -1.1728    7.0069   -0.3390 O   0  0  0  0  0  0  0  0  0  0  0  0
   -3.2098    5.8392   -0.2095 O   0  0  0  0  0  0  0  0  0  0  0  0
   -2.2222    6.7207    1.9220 N   0  0  0  0  0  0  0  0  0  0  0  0
   -1.0821    4.5864    0.6111 C   0  0  0  0  0  0  0  0  0  0  0  0
   -0.7377    4.1262    1.8777 C   0  0  0  0  0  0  0  0  0  0  0  0
   -0.0423    2.9284    2.0032 C   0  0  0  0  0  0  0  0  0  0  0  0
    0.2999    2.2052    0.8655 C   0  0  0  0  0  0  0  0  0  0  0  0
    1.0000    1.0000    1.0000 N   0  0  0  0  0  0  0  0  0  0  0  0
    2.2727    1.0000    1.0000 C   0  0  0  0  0  0  0  0  0  0  0  0
    3.2932    2.2218    0.3944 S   0  0  0  0  0  0  0  0  0  0  0  0
    4.7811    1.4716    0.7594 C   0  0  0  0  0  0  0  0  0  0  0  0
    4.4252    0.2929    1.3410 C   0  0  0  0  0  0  0  0  0  0  0  0
    3.0922    0.0268    1.4798 N   0  0  0  0  0  0  0  0  0  0  0  0
    2.5420   -1.1973    2.0819 C   0  0  3  0  0  0  0  0  0  0  0  0
    2.1572   -2.2311    1.0351 C   0  0  0  0  0  0  0  0  0  0  0  0
    3.1763   -2.4778    0.2163 F   0  0  0  0  0  0  0  0  0  0  0  0
    1.1262   -1.8387    0.2797 F   0  0  0  0  0  0  0  0  0  0  0  0
    1.8633   -3.5000    1.8237 C   0  0  0  0  0  0  0  0  0  0  0  0
    1.0582   -3.2107    3.0797 C   0  0  0  0  0  0  0  0  0  0  0  0
    0.4092   -1.9410    3.0620 O   0  0  0  0  0  0  0  0  0  0  0  0
    1.3177   -0.8514    2.9177 C   0  0  0  0  0  0  0  0  0  0  0  0
    5.4808   -0.5996    1.7731 C   0  0  0  0  0  0  0  0  0  0  0  0
    5.9403   -0.7409    3.0440 C   0  0  0  0  0  0  0  0  0  0  0  0
    6.9279   -1.6760    3.0286 N   0  0  0  0  0  0  0  0  0  0  0  0
    7.6580   -2.1078    4.1424 C   0  0  0  0  0  0  0  0  0  0  0  0
    8.6842   -1.3947    4.6336 N   0  0  0  0  0  0  0  0  0  0  0  0
    9.3836   -1.8094    5.7003 C   0  0  0  0  0  0  0  0  0  0  0  0
    9.0654   -3.0036    6.3394 C   0  0  0  0  0  0  0  0  0  0  0  0
    9.7434   -3.4367    7.3998 F   0  0  0  0  0  0  0  0  0  0  0  0
    8.0058   -3.7558    5.8453 C   0  0  0  0  0  0  0  0  0  0  0  0
    7.2922   -3.3103    4.7370 C   0  0  0  0  0  0  0  0  0  0  0  0
    7.0914   -2.1222    1.7533 C   0  0  0  0  0  0  0  0  0  0  0  0
    6.2098   -1.4771    0.9413 C   0  0  0  0  0  0  0  0  0  0  0  0
    8.0946   -3.1724    1.3036 C   0  0  0  0  0  0  0  0  0  0  0  0
    5.4381    0.0099    4.2673 C   0  0  0  0  0  0  0  0  0  0  0  0
   -0.0472    2.6709   -0.3977 C   0  0  0  0  0  0  0  0  0  0  0  0
   -0.7424    3.8680   -0.5304 C   0  0  0  0  0  0  0  0  0  0  0  0
   -2.7628    6.0799    2.4671 H   0  0  0  0  0  0  0  0  0  0  0  0
   -1.3483    6.8909    2.3772 H   0  0  0  0  0  0  0  0  0  0  0  0
   -0.9878    4.6519    2.6907 H   0  0  0  0  0  0  0  0  0  0  0  0
    0.2110    2.5881    2.9087 H   0  0  0  0  0  0  0  0  0  0  0  0
    5.7030    1.8179    0.5861 H   0  0  0  0  0  0  0  0  0  0  0  0
    3.2351   -1.5956    2.6827 H   0  0  0  0  0  0  0  0  0  0  0  0
    2.7292   -3.9263    2.0854 H   0  0  0  0  0  0  0  0  0  0  0  0
    1.3442   -4.1282    1.2441 H   0  0  0  0  0  0  0  0  0  0  0  0
    0.3610   -3.9207    3.1788 H   0  0  0  0  0  0  0  0  0  0  0  0
    1.6765   -3.2387    3.8651 H   0  0  0  0  0  0  0  0  0  0  0  0
    1.6232   -0.5700    3.8274 H   0  0  0  0  0  0  0  0  0  0  0  0
    0.8368   -0.0929    2.4781 H   0  0  0  0  0  0  0  0  0  0  0  0
   10.1424   -1.2539    6.0402 H   0  0  0  0  0  0  0  0  0  0  0  0
    7.7563   -4.6177    6.2866 H   0  0  0  0  0  0  0  0  0  0  0  0
    6.5294   -3.8457    4.3744 H   0  0  0  0  0  0  0  0  0  0  0  0
    6.1005   -1.6000   -0.0451 H   0  0  0  0  0  0  0  0  0  0  0  0
    8.0076   -3.3158    0.3177 H   0  0  0  0  0  0  0  0  0  0  0  0
    9.0210   -2.8604    1.5146 H   0  0  0  0  0  0  0  0  0  0  0  0
    7.9150   -4.0316    1.7826 H   0  0  0  0  0  0  0  0  0  0  0  0
    4.7080    0.6374    3.9968 H   0  0  0  0  0  0  0  0  0  0  0  0
    5.0852   -0.6430    4.9375 H   0  0  0  0  0  0  0  0  0  0  0  0
    6.1908    0.5291    4.6721 H   0  0  0  0  0  0  0  0  0  0  0  0
    0.2031    2.1451   -1.2107 H   0  0  0  0  0  0  0  0  0  0  0  0
   -0.9951    4.2084   -1.4360 H   0  0  0  0  0  0  0  0  0  0  0  0
  1  2  2  0  0  0  0
  1  3  2  0  0  0  0
  1  4  1  0  0  0  0
  1  5  1  0  0  0  0
  5  6  1  0  0  0  0
  6  7  2  0  0  0  0
  7  8  1  0  0  0  0
  8  9  1  0  0  0  0
  9 10  2  0  0  0  0
 10 11  1  0  0  0  0
 11 12  1  0  0  0  0
 12 13  2  0  0  0  0
 13 14  1  0  0  0  0
 14 10  1  0  0  0  0
 14 15  1  0  0  0  0
 15 16  1  0  0  0  0
 16 17  1  0  0  0  0
 16 18  1  0  0  0  0
 16 19  1  0  0  0  0
 19 20  1  0  0  0  0
 20 21  1  0  0  0  0
 21 22  1  0  0  0  0
 22 15  1  0  0  0  0
 13 23  1  0  0  0  0
 23 24  2  0  0  0  0
 24 25  1  0  0  0  0
 25 26  1  0  0  0  0
 26 27  1  0  0  0  0
 27 28  2  0  0  0  0
 28 29  1  0  0  0  0
 29 30  1  0  0  0  0
 29 31  2  0  0  0  0
 31 32  1  0  0  0  0
 32 26  2  0  0  0  0
 25 33  1  0  0  0  0
 33 34  2  0  0  0  0
 34 23  1  0  0  0  0
 33 35  1  0  0  0  0
 24 36  1  0  0  0  0
  8 37  2  0  0  0  0
 37 38  1  0  0  0  0
 38  5  2  0  0  0  0
  4 39  1  0  0  0  0
  4 40  1  0  0  0  0
  6 41  1  0  0  0  0
  7 42  1  0  0  0  0
 12 43  1  0  0  0  0
 15 44  1  0  0  0  0
 19 45  1  0  0  0  0
 19 46  1  0  0  0  0
 20 47  1  0  0  0  0
 20 48  1  0  0  0  0
 22 49  1  0  0  0  0
 22 50  1  0  0  0  0
 28 51  1  0  0  0  0
 31 52  1  0  0  0  0
 32 53  1  0  0  0  0
 34 54  1  0  0  0  0
 35 55  1  0  0  0  0
 35 56  1  0  0  0  0
 35 57  1  0  0  0  0
 36 58  1  0  0  0  0
 36 59  1  0  0  0  0
 36 60  1  0  0  0  0
 37 61  1  0  0  0  0
 38 62  1  0  0  0  0
M  END
>  <result-rank>
8

>  <similarity>
0.887

>  <query-name>


>  <query-smiles>
S(=O)(=O)(NC(=O)C)c1ccc(cc1)C=2N3C(=NC(=C3)COc4nc5c(cc4)cccc5)C(=NC2)N6CCOCC6

>  <source>
REALspace_2019-12

>  <similarity-descriptor>
0.998;0.981;0.803;0.961;0.876;0.0;1.000;0.588;0.0;0.0;0.876;0.876;0.200

>  <similarity-descriptor-smiles>
c1ccccc1;C1COCCC1(F)F;C=1C=CNC1;N=C1NC=CS1;c1ccc(cn1)F;;S(=O)=O;N;;;c1ccc(cn1)F;c1ccc(cn1)F;C.C

>  <reaction-name>
s_2

>  <reagent1-name>
11687950

>  <reagent1-smiles>
[R1*]SC([R3*])=Nc1ccc(S(=O)(=O)N)cc1

>  <reagent2-name>
16645038

>  <reagent2-smiles>
[R2*]N([R3*])C1C(F)(F)CCOC1

>  <reagent3-name>
10744010

>  <reagent3-smiles>
[R2*]C(C1=C(N(c2ncc(F)cc2)C(=C1)C)C)=C[R1*]

$$$$
s_2____11687950____16645038____6815526
          04022017303D 1   1.00000     0.00000     0
            
 58 62  0  0  0  0            999 V2000
    8.8234    6.6324    4.0978 S   0  0  0  0  0  0  0  0  0  0  0  0
    8.0202    7.5568    4.8555 O   0  0  0  0  0  0  0  0  0  0  0  0
    9.9187    6.1702    4.9104 O   0  0  0  0  0  0  0  0  0  0  0  0
    9.4078    7.3800    2.7725 N   0  0  0  0  0  0  0  0  0  0  0  0
    7.8467    5.2761    3.6152 C   0  0  0  0  0  0  0  0  0  0  0  0
    7.4230    4.3582    4.5705 C   0  0  0  0  0  0  0  0  0  0  0  0
    6.6430    3.2756    4.1785 C   0  0  0  0  0  0  0  0  0  0  0  0
    6.2951    3.1226    2.8406 C   0  0  0  0  0  0  0  0  0  0  0  0
    5.5094    2.0301    2.4537 N   0  0  0  0  0  0  0  0  0  0  0  0
    4.2406    2.1295    2.4468 C   0  0  0  0  0  0  0  0  0  0  0  0
    3.3299    3.5681    2.4036 S   0  0  0  0  0  0  0  0  0  0  0  0
    1.7813    2.8529    2.4247 C   0  0  0  0  0  0  0  0  0  0  0  0
    2.0334    1.5154    2.4653 C   0  0  0  0  0  0  0  0  0  0  0  0
    3.3388    1.1121    2.4746 N   0  0  0  0  0  0  0  0  0  0  0  0
    3.7809   -0.2906    2.5193 C   0  0  3  0  0  0  0  0  0  0  0  0
    4.1325   -0.8207    1.1397 C   0  0  0  0  0  0  0  0  0  0  0  0
    3.1162   -0.6567    0.2979 F   0  0  0  0  0  0  0  0  0  0  0  0
    5.2010   -0.2239    0.6156 F   0  0  0  0  0  0  0  0  0  0  0  0
    4.3331   -2.3159    1.3260 C   0  0  0  0  0  0  0  0  0  0  0  0
    5.0627   -2.6205    2.6295 C   0  0  0  0  0  0  0  0  0  0  0  0
    5.7936   -1.5213    3.1683 O   0  0  0  0  0  0  0  0  0  0  0  0
    4.9771   -0.3940    3.4574 C   0  0  0  0  0  0  0  0  0  0  0  0
    0.9034    0.6099    2.4960 C   0  0  0  0  0  0  0  0  0  0  0  0
    0.9647   -0.7504    2.5378 N   0  0  0  0  0  0  0  0  0  0  0  0
   -0.2181   -1.1918    2.5539 N   0  0  0  0  0  0  0  0  0  0  0  0
   -1.0854   -0.2094    2.5313 N   0  0  0  0  0  0  0  0  0  0  0  0
   -2.4778   -0.3514    2.5426 C   0  0  0  0  0  0  0  0  0  0  0  0
   -3.2831    0.7823    2.5155 C   0  0  0  0  0  0  0  0  0  0  0  0
   -4.6654    0.6286    2.5274 C   0  0  0  0  0  0  0  0  0  0  0  0
   -5.2439   -0.6356    2.5661 C   0  0  0  0  0  0  0  0  0  0  0  0
   -4.4181   -1.7551    2.5924 C   0  0  0  0  0  0  0  0  0  0  0  0
   -3.0336   -1.6255    2.5811 C   0  0  0  0  0  0  0  0  0  0  0  0
   -5.5510    1.8638    2.4983 C   0  0  0  0  0  0  0  0  0  0  0  0
   -0.4068    0.9683    2.4944 C   0  0  0  0  0  0  0  0  0  0  0  0
    6.7221    4.0437    1.8906 C   0  0  0  0  0  0  0  0  0  0  0  0
    7.5026    5.1284    2.2758 C   0  0  0  0  0  0  0  0  0  0  0  0
    9.9655    6.7381    2.2463 H   0  0  0  0  0  0  0  0  0  0  0  0
    8.6471    7.7010    2.2082 H   0  0  0  0  0  0  0  0  0  0  0  0
    7.6771    4.4756    5.5305 H   0  0  0  0  0  0  0  0  0  0  0  0
    6.3332    2.6091    4.8566 H   0  0  0  0  0  0  0  0  0  0  0  0
    0.8925    3.3109    2.4105 H   0  0  0  0  0  0  0  0  0  0  0  0
    3.0371   -0.8455    2.8919 H   0  0  0  0  0  0  0  0  0  0  0  0
    4.8715   -2.6698    0.5612 H   0  0  0  0  0  0  0  0  0  0  0  0
    3.4396   -2.7648    1.3405 H   0  0  0  0  0  0  0  0  0  0  0  0
    4.3854   -2.9074    3.3070 H   0  0  0  0  0  0  0  0  0  0  0  0
    5.7037   -3.3694    2.4612 H   0  0  0  0  0  0  0  0  0  0  0  0
    5.5294    0.4347    3.3669 H   0  0  0  0  0  0  0  0  0  0  0  0
    4.6433   -0.4712    4.3969 H   0  0  0  0  0  0  0  0  0  0  0  0
   -2.8743    1.6945    2.4880 H   0  0  0  0  0  0  0  0  0  0  0  0
   -6.2385   -0.7385    2.5749 H   0  0  0  0  0  0  0  0  0  0  0  0
   -4.8267   -2.6674    2.6198 H   0  0  0  0  0  0  0  0  0  0  0  0
   -2.4473   -2.4353    2.6004 H   0  0  0  0  0  0  0  0  0  0  0  0
   -6.5114    1.5858    2.5113 H   0  0  0  0  0  0  0  0  0  0  0  0
   -5.3575    2.4316    3.2985 H   0  0  0  0  0  0  0  0  0  0  0  0
   -5.3665    2.3867    1.6661 H   0  0  0  0  0  0  0  0  0  0  0  0
   -0.7876    1.8927    2.4712 H   0  0  0  0  0  0  0  0  0  0  0  0
    6.4680    3.9262    0.9306 H   0  0  0  0  0  0  0  0  0  0  0  0
    7.8128    5.7945    1.5975 H   0  0  0  0  0  0  0  0  0  0  0  0
  1  2  2  0  0  0  0
  1  3  2  0  0  0  0
  1  4  1  0  0  0  0
  1  5  1  0  0  0  0
  5  6  1  0  0  0  0
  6  7  2  0  0  0  0
  7  8  1  0  0  0  0
  8  9  1  0  0  0  0
  9 10  2  0  0  0  0
 10 11  1  0  0  0  0
 11 12  1  0  0  0  0
 12 13  2  0  0  0  0
 13 14  1  0  0  0  0
 14 10  1  0  0  0  0
 14 15  1  0  0  0  0
 15 16  1  0  0  0  0
 16 17  1  0  0  0  0
 16 18  1  0  0  0  0
 16 19  1  0  0  0  0
 19 20  1  0  0  0  0
 20 21  1  0  0  0  0
 21 22  1  0  0  0  0
 22 15  1  0  0  0  0
 13 23  1  0  0  0  0
 23 24  1  0  0  0  0
 24 25  2  0  0  0  0
 25 26  1  0  0  0  0
 26 27  1  0  0  0  0
 27 28  1  0  0  0  0
 28 29  2  0  0  0  0
 29 30  1  0  0  0  0
 30 31  2  0  0  0  0
 31 32  1  0  0  0  0
 32 27  2  0  0  0  0
 29 33  1  0  0  0  0
 26 34  1  0  0  0  0
 23 34  2  0  0  0  0
  8 35  2  0  0  0  0
 35 36  1  0  0  0  0
 36  5  2  0  0  0  0
  4 37  1  0  0  0  0
  4 38  1  0  0  0  0
  6 39  1  0  0  0  0
  7 40  1  0  0  0  0
 12 41  1  0  0  0  0
 15 42  1  0  0  0  0
 19 43  1  0  0  0  0
 19 44  1  0  0  0  0
 20 45  1  0  0  0  0
 20 46  1  0  0  0  0
 22 47  1  0  0  0  0
 22 48  1  0  0  0  0
 28 49  1  0  0  0  0
 30 50  1  0  0  0  0
 31 51  1  0  0  0  0
 32 52  1  0  0  0  0
 33 53  1  0  0  0  0
 33 54  1  0  0  0  0
 33 55  1  0  0  0  0
 34 56  1  0  0  0  0
 35 57  1  0  0  0  0
 36 58  1  0  0  0  0
M  END
>  <result-rank>
9

>  <similarity>
0.886

>  <query-name>


>  <query-smiles>
S(=O)(=O)(NC(=O)C)c1ccc(cc1)C=2N3C(=NC(=C3)COc4nc5c(cc4)cccc5)C(=NC2)N6CCOCC6

>  <source>
REALspace_2019-12

>  <similarity-descriptor>
0.998;0.981;0.889;0.961;0.775;0.0;1.000;0.588;0.0;0.0;0.889;0.889;0.111

>  <similarity-descriptor-smiles>
c1ccccc1;C1COCCC1(F)F;C1=CNN=N1;N=C1NC=CS1;c1ccccc1;;S(=O)=O;N;;;C1=CNN=N1;C1=CNN=N1;C

>  <reaction-name>
s_2

>  <reagent1-name>
11687950

>  <reagent1-smiles>
[R1*]SC([R3*])=Nc1ccc(S(=O)(=O)N)cc1

>  <reagent2-name>
16645038

>  <reagent2-smiles>
[R2*]N([R3*])C1C(F)(F)CCOC1

>  <reagent3-name>
6815526

>  <reagent3-smiles>
[R2*]C(C=1N=NN(c2cc(ccc2)C)C1)=C[R1*]

$$$$
s_1____86342____7594458____3124256
          04022017303D 1   1.00000     0.00000     0
            
 60 64  0  0  0  0            999 V2000
   -0.2810    3.3352    3.7573 S   0  0  0  0  0  0  0  0  0  0  0  0
   -1.5443    3.9470    3.4359 O   0  0  0  0  0  0  0  0  0  0  0  0
   -0.4718    1.9241    3.9717 O   0  0  0  0  0  0  0  0  0  0  0  0
    0.7615    3.5615    2.5249 N   0  0  0  0  0  0  0  0  0  0  0  0
    1.9850    2.8822    2.5096 C   0  0  0  0  0  0  0  0  0  0  0  0
    3.1774    3.5986    2.4996 C   0  0  0  0  0  0  0  0  0  0  0  0
    4.3889    2.9151    2.4847 C   0  0  0  0  0  0  0  0  0  0  0  0
    4.3934    1.5238    2.4792 C   0  0  0  0  0  0  0  0  0  0  0  0
    3.2017    0.8073    2.4891 C   0  0  0  0  0  0  0  0  0  0  0  0
    1.9902    1.4907    2.5042 C   0  0  0  0  0  0  0  0  0  0  0  0
    5.6543    0.8247    2.4637 C   0  0  0  0  0  0  0  0  0  0  0  0
    5.9894   -0.1912    3.3227 N   0  0  0  0  0  0  0  0  0  0  0  0
    5.1838   -0.6667    4.2953 N   0  0  0  0  0  0  0  0  0  0  0  0
    5.2203   -0.1632    5.4388 C   0  0  0  0  0  0  0  0  0  0  0  0
    4.3536   -0.6749    6.4854 C   0  0  0  0  0  0  0  0  0  0  0  0
    4.3430   -0.1599    7.7825 C   0  0  0  0  0  0  0  0  0  0  0  0
    3.4812   -0.7028    8.7323 C   0  0  0  0  0  0  0  0  0  0  0  0
    2.6521   -1.7522    8.3478 C   0  0  0  0  0  0  0  0  0  0  0  0
    2.6799   -2.2321    7.0953 N   0  0  0  0  0  0  0  0  0  0  0  0
    3.5014   -1.7256    6.1636 C   0  0  0  0  0  0  0  0  0  0  0  0
    3.4423   -0.2142   10.0339 C   0  0  0  0  0  0  0  0  0  0  0  0
    4.2799    0.8366   10.3921 C   0  0  0  0  0  0  0  0  0  0  0  0
    5.1515    1.4013    9.4680 C   0  0  0  0  0  0  0  0  0  0  0  0
    5.1694    0.8921    8.1742 C   0  0  0  0  0  0  0  0  0  0  0  0
    7.2328   -0.7065    3.1260 C   0  0  0  0  0  0  0  0  0  0  0  0
    7.8923    0.1661    1.8195 S   0  0  0  0  0  0  0  0  0  0  0  0
    6.5717    1.2005    1.5325 C   0  0  0  0  0  0  0  0  0  0  0  0
    7.7914   -1.6405    3.7786 N   0  0  0  0  0  0  0  0  0  0  0  0
    9.1526   -2.0702    3.4277 C   0  0  0  0  0  0  0  0  0  0  0  0
   10.1609   -1.2567    4.2213 C   0  0  3  0  0  0  0  0  0  0  0  0
   11.4791   -1.6543    3.8987 O   0  0  0  0  0  0  0  0  0  0  0  0
   12.3029   -1.1772    4.9540 C   0  0  0  0  0  0  0  0  0  0  0  0
   11.4156   -1.0986    6.1808 C   0  0  0  0  0  0  0  0  0  0  0  0
   10.0686   -1.5949    5.6918 C   0  0  0  0  0  0  0  0  0  0  0  0
    0.3891    4.0886    5.2605 C   0  0  0  0  0  0  0  0  0  0  0  0
    0.5269    4.1857    1.7797 H   0  0  0  0  0  0  0  0  0  0  0  0
    3.1638    4.5985    2.5030 H   0  0  0  0  0  0  0  0  0  0  0  0
    5.2515    3.4208    2.4781 H   0  0  0  0  0  0  0  0  0  0  0  0
    3.2155   -0.1926    2.4853 H   0  0  0  0  0  0  0  0  0  0  0  0
    1.1277    0.9848    2.5111 H   0  0  0  0  0  0  0  0  0  0  0  0
    5.8465    0.5920    5.6329 H   0  0  0  0  0  0  0  0  0  0  0  0
    2.0259   -2.1549    9.0154 H   0  0  0  0  0  0  0  0  0  0  0  0
    3.5010   -2.1036    5.2378 H   0  0  0  0  0  0  0  0  0  0  0  0
    2.8184   -0.6143   10.7052 H   0  0  0  0  0  0  0  0  0  0  0  0
    4.2549    1.1907   11.3269 H   0  0  0  0  0  0  0  0  0  0  0  0
    5.7525    2.1571    9.7280 H   0  0  0  0  0  0  0  0  0  0  0  0
    5.7943    1.2929    7.5043 H   0  0  0  0  0  0  0  0  0  0  0  0
    6.4893    1.9176    0.8404 H   0  0  0  0  0  0  0  0  0  0  0  0
    9.3054   -1.9280    2.4497 H   0  0  0  0  0  0  0  0  0  0  0  0
    9.2623   -3.0402    3.6446 H   0  0  0  0  0  0  0  0  0  0  0  0
   10.0329   -0.2768    4.0685 H   0  0  0  0  0  0  0  0  0  0  0  0
   12.6648   -0.2725    4.7293 H   0  0  0  0  0  0  0  0  0  0  0  0
   13.0612   -1.8090    5.1145 H   0  0  0  0  0  0  0  0  0  0  0  0
   11.3489   -0.1572    6.5115 H   0  0  0  0  0  0  0  0  0  0  0  0
   11.7665   -1.6845    6.9114 H   0  0  0  0  0  0  0  0  0  0  0  0
    9.9635   -2.5786    5.8376 H   0  0  0  0  0  0  0  0  0  0  0  0
    9.3145   -1.1098    6.1346 H   0  0  0  0  0  0  0  0  0  0  0  0
    1.2664    3.6637    5.4837 H   0  0  0  0  0  0  0  0  0  0  0  0
    0.5216    5.0685    5.1116 H   0  0  0  0  0  0  0  0  0  0  0  0
   -0.2505    3.9498    6.0166 H   0  0  0  0  0  0  0  0  0  0  0  0
  1  2  2  0  0  0  0
  1  3  2  0  0  0  0
  1  4  1  0  0  0  0
  4  5  1  0  0  0  0
  5  6  1  0  0  0  0
  6  7  2  0  0  0  0
  7  8  1  0  0  0  0
  8  9  2  0  0  0  0
  9 10  1  0  0  0  0
 10  5  2  0  0  0  0
  8 11  1  0  0  0  0
 11 12  1  0  0  0  0
 12 13  1  0  0  0  0
 13 14  2  0  0  0  0
 14 15  1  0  0  0  0
 15 16  1  0  0  0  0
 16 17  2  0  0  0  0
 17 18  1  0  0  0  0
 18 19  2  0  0  0  0
 19 20  1  0  0  0  0
 20 15  2  0  0  0  0
 17 21  1  0  0  0  0
 21 22  2  0  0  0  0
 22 23  1  0  0  0  0
 23 24  2  0  0  0  0
 24 16  1  0  0  0  0
 12 25  1  0  0  0  0
 25 26  1  0  0  0  0
 26 27  1  0  0  0  0
 11 27  2  0  0  0  0
 25 28  2  0  0  0  0
 28 29  1  0  0  0  0
 29 30  1  0  0  0  0
 30 31  1  0  0  0  0
 31 32  1  0  0  0  0
 32 33  1  0  0  0  0
 33 34  1  0  0  0  0
 34 30  1  0  0  0  0
  1 35  1  0  0  0  0
  4 36  1  0  0  0  0
  6 37  1  0  0  0  0
  7 38  1  0  0  0  0
  9 39  1  0  0  0  0
 10 40  1  0  0  0  0
 14 41  1  0  0  0  0
 18 42  1  0  0  0  0
 20 43  1  0  0  0  0
 21 44  1  0  0  0  0
 22 45  1  0  0  0  0
 23 46  1  0  0  0  0
 24 47  1  0  0  0  0
 27 48  1  0  0  0  0
 29 49  1  0  0  0  0
 29 50  1  0  0  0  0
 30 51  1  0  0  0  0
 32 52  1  0  0  0  0
 32 53  1  0  0  0  0
 33 54  1  0  0  0  0
 33 55  1  0  0  0  0
 34 56  1  0  0  0  0
 34 57  1  0  0  0  0
 35 58  1  0  0  0  0
 35 59  1  0  0  0  0
 35 60  1  0  0  0  0
M  END
>  <result-rank>
10

>  <similarity>
0.885

>  <query-name>


>  <query-smiles>
S(=O)(=O)(NC(=O)C)c1ccc(cc1)C=2N3C(=NC(=C3)COc4nc5c(cc4)cccc5)C(=NC2)N6CCOCC6

>  <source>
REALspace_2019-12

>  <similarity-descriptor>
0.999;0.956;0.586;0.959;0.838;0.999;0.790;0.0;0.0;0.0;0.838;0.838;0.0

>  <similarity-descriptor-smiles>
c1ccccc1;CC1CCCO1;N=C;C1=CSC(N1)=N;c1cnccc1;c1ccccc1;S(=O)(=O)(N)C;;;;c1cnccc1;c1cnccc1;

>  <reaction-name>
s_1

>  <reagent1-name>
86342

>  <reagent1-smiles>
[R3*]=NN([R2*])C(S[R1*])=NCC1OCCC1

>  <reagent2-name>
7594458

>  <reagent2-smiles>
[R3*]=Cc1c2c(cnc1)cccc2

>  <reagent3-name>
3124256

>  <reagent3-smiles>
[R2*]C(c1ccc(NS(=O)(=O)C)cc1)=C[R1*]

$$$$
s_1458____472176____846626
          04022017303D 1   1.00000     0.00000     0
            
 73 76  0  0  0  0            999 V2000
    2.4088   -3.9109    2.4410 S   0  0  0  0  0  0  0  0  0  0  0  0
    3.0243   -5.0314    3.1039 O   0  0  0  0  0  0  0  0  0  0  0  0
    1.1969   -3.5517    3.1308 O   0  0  0  0  0  0  0  0  0  0  0  0
    2.0582   -4.3159    0.9016 N   0  0  0  0  0  0  0  0  0  0  0  0
    1.1331   -5.4583    0.8940 C   0  0  0  0  0  0  0  0  0  0  0  0
    0.8061   -5.8360   -0.5415 C   0  0  0  0  0  0  0  0  0  0  0  0
    1.4299   -3.1721    0.2249 C   0  0  0  0  0  0  0  0  0  0  0  0
    1.1029   -3.5499   -1.2106 C   0  0  0  0  0  0  0  0  0  0  0  0
    3.5479   -2.5043    2.4503 C   0  0  0  0  0  0  0  0  0  0  0  0
    3.0413   -1.2092    2.4676 C   0  0  0  0  0  0  0  0  0  0  0  0
    3.9284   -0.1377    2.4741 C   0  0  0  0  0  0  0  0  0  0  0  0
    5.3034   -0.3486    2.4628 C   0  0  0  0  0  0  0  0  0  0  0  0
    5.7896   -1.6518    2.4457 C   0  0  0  0  0  0  0  0  0  0  0  0
    4.9196   -2.7371    2.4394 C   0  0  0  0  0  0  0  0  0  0  0  0
    3.4034    1.2140    2.4924 C   0  0  0  0  0  0  0  0  0  0  0  0
    4.1176    2.3111    2.5002 N   0  0  0  0  0  0  0  0  0  0  0  0
    3.2807    3.3236    2.5197 N   0  0  0  0  0  0  0  0  0  0  0  0
    2.0360    2.9153    2.5288 C   0  0  0  0  0  0  0  0  0  0  0  0
    0.5487    3.9464    2.5554 S   0  0  0  0  0  0  0  0  0  0  0  0
   -0.7026    2.6386    2.5553 C   0  0  0  0  0  0  0  0  0  0  0  0
   -1.0375    2.2577    3.9882 C   0  0  0  0  0  0  0  0  0  0  0  0
   -0.4189    1.3890    4.5383 O   0  0  0  0  0  0  0  0  0  0  0  0
   -2.0015    2.8778    4.6225 O   0  0  0  0  0  0  0  0  0  0  0  0
   -2.3143    2.5220    5.9611 C   0  0  0  0  0  0  0  0  0  0  0  0
   -1.4860    3.3672    6.9174 C   0  0  0  0  0  0  0  0  0  0  0  0
   -1.9219    4.5500    7.3815 N   0  0  0  0  0  0  0  0  0  0  0  0
   -1.1970    5.3017    8.2263 C   0  0  0  0  0  0  0  0  0  0  0  0
    0.0534    4.8615    8.6506 C   0  0  0  0  0  0  0  0  0  0  0  0
    0.5281    3.6402    8.1850 C   0  0  0  0  0  0  0  0  0  0  0  0
   -0.2433    2.8819    7.3109 C   0  0  0  0  0  0  0  0  0  0  0  0
    0.8283    5.6167    9.5247 C   0  0  0  0  0  0  0  0  0  0  0  0
    0.3364    6.8358    9.9792 C   0  0  0  0  0  0  0  0  0  0  0  0
   -0.9100    7.2987    9.5706 C   0  0  0  0  0  0  0  0  0  0  0  0
   -1.6661    6.5248    8.6960 C   0  0  0  0  0  0  0  0  0  0  0  0
    2.0870    1.5594    2.5105 N   0  0  0  0  0  0  0  0  0  0  0  0
    0.9385    0.6419    2.5134 C   0  0  3  0  0  0  0  0  0  0  0  0
    0.5241    0.3444    1.0816 C   0  0  0  0  0  0  0  0  0  0  0  0
   -0.5854   -0.5419    1.0844 O   0  0  0  0  0  0  0  0  0  0  0  0
   -0.9725   -0.8199   -0.2533 C   0  0  0  0  0  0  0  0  0  0  0  0
    1.3264   -0.6532    3.2081 C   0  0  0  0  0  0  0  0  0  0  0  0
    0.2915   -5.2089    1.3730 H   0  0  0  0  0  0  0  0  0  0  0  0
    1.5605   -6.2364    1.3543 H   0  0  0  0  0  0  0  0  0  0  0  0
    0.1768   -6.6131   -0.5466 H   0  0  0  0  0  0  0  0  0  0  0  0
    0.3787   -5.0579   -1.0018 H   0  0  0  0  0  0  0  0  0  0  0  0
    1.6477   -6.0855   -1.0205 H   0  0  0  0  0  0  0  0  0  0  0  0
    2.0592   -2.3950    0.2300 H   0  0  0  0  0  0  0  0  0  0  0  0
    0.5883   -2.9227    0.7039 H   0  0  0  0  0  0  0  0  0  0  0  0
    0.6755   -2.7718   -1.6710 H   0  0  0  0  0  0  0  0  0  0  0  0
    1.9445   -3.7993   -1.6897 H   0  0  0  0  0  0  0  0  0  0  0  0
    0.4736   -4.3270   -1.2158 H   0  0  0  0  0  0  0  0  0  0  0  0
    2.0539   -1.0506    2.4754 H   0  0  0  0  0  0  0  0  0  0  0  0
    5.9345    0.4271    2.4668 H   0  0  0  0  0  0  0  0  0  0  0  0
    6.7769   -1.8104    2.4379 H   0  0  0  0  0  0  0  0  0  0  0  0
    5.2750   -3.6717    2.4273 H   0  0  0  0  0  0  0  0  0  0  0  0
   -0.3481    1.8382    2.0718 H   0  0  0  0  0  0  0  0  0  0  0  0
   -1.5279    2.9670    2.0961 H   0  0  0  0  0  0  0  0  0  0  0  0
   -2.1068    1.5546    6.1061 H   0  0  0  0  0  0  0  0  0  0  0  0
   -3.2866    2.6833    6.1304 H   0  0  0  0  0  0  0  0  0  0  0  0
    1.4241    3.3072    8.4787 H   0  0  0  0  0  0  0  0  0  0  0  0
    0.0899    2.0025    6.9710 H   0  0  0  0  0  0  0  0  0  0  0  0
    1.7249    5.2884    9.8217 H   0  0  0  0  0  0  0  0  0  0  0  0
    0.8858    7.3864   10.6077 H   0  0  0  0  0  0  0  0  0  0  0  0
   -1.2580    8.1760    9.9012 H   0  0  0  0  0  0  0  0  0  0  0  0
   -2.5628    6.8535    8.3994 H   0  0  0  0  0  0  0  0  0  0  0  0
    0.1747    1.0656    3.0003 H   0  0  0  0  0  0  0  0  0  0  0  0
    0.2689    1.1964    0.6245 H   0  0  0  0  0  0  0  0  0  0  0  0
    1.2879   -0.0793    0.5947 H   0  0  0  0  0  0  0  0  0  0  0  0
   -1.7538   -1.4440   -0.2513 H   0  0  0  0  0  0  0  0  0  0  0  0
   -1.2277    0.0322   -0.7103 H   0  0  0  0  0  0  0  0  0  0  0  0
   -0.2087   -1.2435   -0.7402 H   0  0  0  0  0  0  0  0  0  0  0  0
    0.5451   -1.2773    3.2101 H   0  0  0  0  0  0  0  0  0  0  0  0
    2.0902   -1.0768    2.7212 H   0  0  0  0  0  0  0  0  0  0  0  0
    1.5990   -0.4574    4.1501 H   0  0  0  0  0  0  0  0  0  0  0  0
  1  2  2  0  0  0  0
  1  3  2  0  0  0  0
  1  4  1  0  0  0  0
  4  5  1  0  0  0  0
  5  6  1  0  0  0  0
  4  7  1  0  0  0  0
  7  8  1  0  0  0  0
  1  9  1  0  0  0  0
  9 10  1  0  0  0  0
 10 11  2  0  0  0  0
 11 12  1  0  0  0  0
 12 13  2  0  0  0  0
 13 14  1  0  0  0  0
 14  9  2  0  0  0  0
 11 15  1  0  0  0  0
 15 16  2  0  0  0  0
 16 17  1  0  0  0  0
 17 18  2  0  0  0  0
 18 19  1  0  0  0  0
 19 20  1  0  0  0  0
 20 21  1  0  0  0  0
 21 22  2  0  0  0  0
 21 23  1  0  0  0  0
 23 24  1  0  0  0  0
 24 25  1  0  0  0  0
 25 26  1  0  0  0  0
 26 27  2  0  0  0  0
 27 28  1  0  0  0  0
 28 29  2  0  0  0  0
 29 30  1  0  0  0  0
 30 25  2  0  0  0  0
 28 31  1  0  0  0  0
 31 32  2  0  0  0  0
 32 33  1  0  0  0  0
 33 34  2  0  0  0  0
 34 27  1  0  0  0  0
 18 35  1  0  0  0  0
 35 15  1  0  0  0  0
 35 36  1  0  0  0  0
 36 37  1  0  0  0  0
 37 38  1  0  0  0  0
 38 39  1  0  0  0  0
 36 40  1  0  0  0  0
  5 41  1  0  0  0  0
  5 42  1  0  0  0  0
  6 43  1  0  0  0  0
  6 44  1  0  0  0  0
  6 45  1  0  0  0  0
  7 46  1  0  0  0  0
  7 47  1  0  0  0  0
  8 48  1  0  0  0  0
  8 49  1  0  0  0  0
  8 50  1  0  0  0  0
 10 51  1  0  0  0  0
 12 52  1  0  0  0  0
 13 53  1  0  0  0  0
 14 54  1  0  0  0  0
 20 55  1  0  0  0  0
 20 56  1  0  0  0  0
 24 57  1  0  0  0  0
 24 58  1  0  0  0  0
 29 59  1  0  0  0  0
 30 60  1  0  0  0  0
 31 61  1  0  0  0  0
 32 62  1  0  0  0  0
 33 63  1  0  0  0  0
 34 64  1  0  0  0  0
 36 65  1  0  0  0  0
 37 66  1  0  0  0  0
 37 67  1  0  0  0  0
 39 68  1  0  0  0  0
 39 69  1  0  0  0  0
 39 70  1  0  0  0  0
 40 71  1  0  0  0  0
 40 72  1  0  0  0  0
 40 73  1  0  0  0  0
M  END
>  <result-rank>
11

>  <similarity>
0.883

>  <query-name>


>  <query-smiles>
S(=O)(=O)(NC(=O)C)c1ccc(cc1)C=2N3C(=NC(=C3)COc4nc5c(cc4)cccc5)C(=NC2)N6CCOCC6

>  <source>
REALspace_2019-12

>  <similarity-descriptor>
1.000;0.896;0.565;0.807;0.997;1.000;1.000;0.555;0.555;1.000;0.999;0.999;0.100

>  <similarity-descriptor-smiles>
c1ccccc1;C(COC)C;CC=O;C=1NC(=NN1)S;c1ccccn1;c1ccccc1;S(=O)=O;NC;NC;C;OC;OC;C.C

>  <reaction-name>
s_1458

>  <reagent1-name>
472176

>  <reagent1-smiles>
[R1*]OC(=O)CSC1=NN=C(N1C(COC)C)c2cc(S(=O)(=O)N(CC)CC)ccc2

>  <reagent2-name>
846626

>  <reagent2-smiles>
[R1*]Cc1nc2c(cc1)cccc2

$$$$
m_274972____12934192____12615770____15246888
          04022017303D 1   1.00000     0.00000     0
            
 52 56  0  0  0  0            999 V2000
   10.2247    1.6719    2.3661 S   0  0  0  0  0  0  0  0  0  0  0  0
   10.8020    2.8102    3.0328 O   0  0  0  0  0  0  0  0  0  0  0  0
   10.6267    0.4653    3.0415 O   0  0  0  0  0  0  0  0  0  0  0  0
   10.7414    1.6275    0.8208 N   0  0  0  0  0  0  0  0  0  0  0  0
   12.2071    1.5178    0.7972 C   0  0  0  0  0  0  0  0  0  0  0  0
    8.4200    1.8069    2.3952 C   0  0  0  0  0  0  0  0  0  0  0  0
    7.6437    0.6529    2.4108 C   0  0  0  0  0  0  0  0  0  0  0  0
    6.2577    0.7683    2.4333 C   0  0  0  0  0  0  0  0  0  0  0  0
    5.6642    2.0267    2.4390 C   0  0  0  0  0  0  0  0  0  0  0  0
    6.4448    3.1781    2.4235 C   0  0  0  0  0  0  0  0  0  0  0  0
    7.8313    3.0673    2.4012 C   0  0  0  0  0  0  0  0  0  0  0  0
    4.2182    2.1329    2.4615 C   0  0  0  0  0  0  0  0  0  0  0  0
    3.3303    3.5831    2.4714 S   0  0  0  0  0  0  0  0  0  0  0  0
    1.7841    2.8690    2.4950 C   0  0  0  0  0  0  0  0  0  0  0  0
    2.0375    1.5302    2.4908 C   0  0  0  0  0  0  0  0  0  0  0  0
    3.3498    1.1464    2.4729 N   0  0  0  0  0  0  0  0  0  0  0  0
    0.9118    0.6170    2.5150 C   0  0  0  0  0  0  0  0  0  0  0  0
   -0.4029    0.9692    2.5332 N   0  0  0  0  0  0  0  0  0  0  0  0
   -1.0790   -0.0974    2.5525 N   0  0  0  0  0  0  0  0  0  0  0  0
   -0.3062   -1.1554    2.5502 N   0  0  0  0  0  0  0  0  0  0  0  0
    0.9871   -0.7420    2.5276 C   0  0  0  0  0  0  0  0  0  0  0  0
   -0.7634   -2.5524    2.5709 C   0  0  0  0  0  0  0  0  0  0  0  0
   -0.9440   -3.0475    1.1453 C   0  0  0  0  0  0  0  0  0  0  0  0
    0.0142   -3.6504    0.3882 N   0  0  0  0  0  0  0  0  0  0  0  0
   -0.5272   -3.9269   -0.7752 N   0  0  0  0  0  0  0  0  0  0  0  0
   -1.7794   -3.5436   -0.8305 C   0  0  0  0  0  0  0  0  0  0  0  0
   -2.6806   -3.6907   -1.9573 C   0  0  0  0  0  0  0  0  0  0  0  0
   -3.9890   -3.2291   -1.8581 C   0  0  0  0  0  0  0  0  0  0  0  0
   -4.8503   -3.3730   -2.9410 C   0  0  0  0  0  0  0  0  0  0  0  0
   -4.4007   -3.9735   -4.1122 C   0  0  0  0  0  0  0  0  0  0  0  0
   -3.0915   -4.4304   -4.2001 C   0  0  0  0  0  0  0  0  0  0  0  0
   -2.2207   -4.2930   -3.1241 C   0  0  0  0  0  0  0  0  0  0  0  0
   -2.0901   -2.9587    0.4157 C   0  0  0  0  0  0  0  0  0  0  0  0
   10.4622    2.4654    0.3518 H   0  0  0  0  0  0  0  0  0  0  0  0
   12.5241    1.4906   -0.1508 H   0  0  0  0  0  0  0  0  0  0  0  0
   12.6080    2.3083    1.2602 H   0  0  0  0  0  0  0  0  0  0  0  0
   12.4863    0.6799    1.2662 H   0  0  0  0  0  0  0  0  0  0  0  0
    8.0766   -0.2485    2.4058 H   0  0  0  0  0  0  0  0  0  0  0  0
    5.6878   -0.0533    2.4453 H   0  0  0  0  0  0  0  0  0  0  0  0
    6.0120    4.0795    2.4284 H   0  0  0  0  0  0  0  0  0  0  0  0
    8.4014    3.8888    2.3896 H   0  0  0  0  0  0  0  0  0  0  0  0
    0.8951    3.3268    2.5089 H   0  0  0  0  0  0  0  0  0  0  0  0
    1.8107   -1.3092    2.5215 H   0  0  0  0  0  0  0  0  0  0  0  0
   -1.6355   -2.6105    3.0569 H   0  0  0  0  0  0  0  0  0  0  0  0
   -0.0837   -3.1187    3.0369 H   0  0  0  0  0  0  0  0  0  0  0  0
    0.9546   -3.8460    0.6665 H   0  0  0  0  0  0  0  0  0  0  0  0
   -4.3082   -2.7970   -1.0146 H   0  0  0  0  0  0  0  0  0  0  0  0
   -5.7927   -3.0446   -2.8773 H   0  0  0  0  0  0  0  0  0  0  0  0
   -5.0196   -4.0764   -4.8909 H   0  0  0  0  0  0  0  0  0  0  0  0
   -2.7725   -4.8617   -5.0441 H   0  0  0  0  0  0  0  0  0  0  0  0
   -1.2786   -4.6221   -3.1882 H   0  0  0  0  0  0  0  0  0  0  0  0
   -2.9635   -2.5643    0.7013 H   0  0  0  0  0  0  0  0  0  0  0  0
  1  2  2  0  0  0  0
  1  3  2  0  0  0  0
  1  4  1  0  0  0  0
  4  5  1  0  0  0  0
  1  6  1  0  0  0  0
  6  7  1  0  0  0  0
  7  8  2  0  0  0  0
  8  9  1  0  0  0  0
  9 10  2  0  0  0  0
 10 11  1  0  0  0  0
 11  6  2  0  0  0  0
  9 12  1  0  0  0  0
 12 13  1  0  0  0  0
 13 14  1  0  0  0  0
 14 15  2  0  0  0  0
 15 16  1  0  0  0  0
 12 16  2  0  0  0  0
 15 17  1  0  0  0  0
 17 18  1  0  0  0  0
 18 19  2  0  0  0  0
 19 20  1  0  0  0  0
 20 21  1  0  0  0  0
 17 21  2  0  0  0  0
 20 22  1  0  0  0  0
 22 23  1  0  0  0  0
 23 24  1  0  0  0  0
 24 25  1  0  0  0  0
 25 26  2  0  0  0  0
 26 27  1  0  0  0  0
 27 28  1  0  0  0  0
 28 29  2  0  0  0  0
 29 30  1  0  0  0  0
 30 31  2  0  0  0  0
 31 32  1  0  0  0  0
 32 27  2  0  0  0  0
 26 33  1  0  0  0  0
 23 33  2  0  0  0  0
  4 34  1  0  0  0  0
  5 35  1  0  0  0  0
  5 36  1  0  0  0  0
  5 37  1  0  0  0  0
  7 38  1  0  0  0  0
  8 39  1  0  0  0  0
 10 40  1  0  0  0  0
 11 41  1  0  0  0  0
 14 42  1  0  0  0  0
 21 43  1  0  0  0  0
 22 44  1  0  0  0  0
 22 45  1  0  0  0  0
 24 46  1  0  0  0  0
 28 47  1  0  0  0  0
 29 48  1  0  0  0  0
 30 49  1  0  0  0  0
 31 50  1  0  0  0  0
 32 51  1  0  0  0  0
 33 52  1  0  0  0  0
M  END
>  <result-rank>
12

>  <similarity>
0.883

>  <query-name>


>  <query-smiles>
S(=O)(=O)(NC(=O)C)c1ccc(cc1)C=2N3C(=NC(=C3)COc4nc5c(cc4)cccc5)C(=NC2)N6CCOCC6

>  <source>
REALspace_2019-12

>  <similarity-descriptor>
1.000;0.0;0.889;0.976;0.766;0.942;1.000;0.733;0.733;0.733;0.889;0.889;0.0

>  <similarity-descriptor-smiles>
c1ccccc1;;C1=CNN=N1;C1=NC=CS1;CC1=CC=NN1;c1ccccc1;S(=O)=O;NC;NC;NC;C1=CNN=N1;C1=CNN=N1;

>  <reaction-name>
m_274972

>  <reagent1-name>
12934192

>  <reagent1-smiles>
[R1*]SC(=N[R2*])c1ccc(S(=O)(=O)NC)cc1

>  <reagent2-name>
12615770

>  <reagent2-smiles>
[R2*]C(C([R3*])=C[R4*])=C[R1*]

>  <reagent3-name>
15246888

>  <reagent3-smiles>
[R3*]N=NN([R4*])CC=1NN=C(c2ccccc2)C1

$$$$
s_2____11687950____16645038____9284808
          04022017303D 1   1.00000     0.00000     0
            
 63 68  0  0  0  0            999 V2000
   -1.9409    6.0887    0.4320 S   0  0  0  0  0  0  0  0  0  0  0  0
   -1.1612    7.0098   -0.3536 O   0  0  0  0  0  0  0  0  0  0  0  0
   -3.1991    5.8436   -0.2242 O   0  0  0  0  0  0  0  0  0  0  0  0
   -2.2127    6.7272    1.9069 N   0  0  0  0  0  0  0  0  0  0  0  0
   -1.0729    4.5904    0.5997 C   0  0  0  0  0  0  0  0  0  0  0  0
    0.3148    4.6054    0.6936 C   0  0  0  0  0  0  0  0  0  0  0  0
    1.0031    3.4044    0.8269 C   0  0  0  0  0  0  0  0  0  0  0  0
    0.2999    2.2052    0.8655 C   0  0  0  0  0  0  0  0  0  0  0  0
    1.0000    1.0000    1.0000 N   0  0  0  0  0  0  0  0  0  0  0  0
    2.2727    1.0000    1.0000 C   0  0  0  0  0  0  0  0  0  0  0  0
    3.2932    2.2218    0.3944 S   0  0  0  0  0  0  0  0  0  0  0  0
    4.7811    1.4716    0.7594 C   0  0  0  0  0  0  0  0  0  0  0  0
    4.4252    0.2929    1.3410 C   0  0  0  0  0  0  0  0  0  0  0  0
    3.0922    0.0268    1.4798 N   0  0  0  0  0  0  0  0  0  0  0  0
    2.5418   -1.1977    2.0821 C   0  0  3  0  0  0  0  0  0  0  0  0
    2.1573   -0.9928    3.5375 C   0  0  0  0  0  0  0  0  0  0  0  0
    3.1879   -0.5265    4.2368 F   0  0  0  0  0  0  0  0  0  0  0  0
    1.1416   -0.1454    3.6874 F   0  0  0  0  0  0  0  0  0  0  0  0
    1.8397   -2.3823    4.0658 C   0  0  0  0  0  0  0  0  0  0  0  0
    1.0814   -3.2092    3.0334 C   0  0  0  0  0  0  0  0  0  0  0  0
    0.4356   -2.4416    2.0203 O   0  0  0  0  0  0  0  0  0  0  0  0
    1.3360   -1.6429    1.2637 C   0  0  0  0  0  0  0  0  0  0  0  0
    5.4822   -0.6008    1.7737 C   0  0  0  0  0  0  0  0  0  0  0  0
    6.6257   -0.0858    2.3765 C   0  0  0  0  0  0  0  0  0  0  0  0
    6.7858    1.2901    2.5799 N   0  0  0  0  0  0  0  0  0  0  0  0
    6.2186    2.0299    3.6134 C   0  0  0  0  0  0  0  0  0  0  0  0
    5.4985    1.5810    4.4895 O   0  0  0  0  0  0  0  0  0  0  0  0
    6.6250    3.4070    3.4673 C   0  0  0  0  0  0  0  0  0  0  0  0
    7.4157    3.4664    2.3498 C   0  0  0  0  0  0  0  0  0  0  0  0
    7.9126    4.7208    2.0102 C   0  0  0  0  0  0  0  0  0  0  0  0
    7.6161    5.8453    2.7721 C   0  0  0  0  0  0  0  0  0  0  0  0
    6.8084    5.7449    3.9003 C   0  0  0  0  0  0  0  0  0  0  0  0
    6.2963    4.5018    4.2574 C   0  0  0  0  0  0  0  0  0  0  0  0
    7.5422    2.1445    1.7834 C   0  0  0  0  0  0  0  0  0  0  0  0
    8.1902    1.8469    0.7928 O   0  0  0  0  0  0  0  0  0  0  0  0
    7.6390   -0.9428    2.7915 C   0  0  0  0  0  0  0  0  0  0  0  0
    7.5098   -2.3153    2.6041 C   0  0  0  0  0  0  0  0  0  0  0  0
    6.3668   -2.8304    2.0013 C   0  0  0  0  0  0  0  0  0  0  0  0
    5.3534   -1.9732    1.5854 C   0  0  0  0  0  0  0  0  0  0  0  0
   -1.0872    2.1970    0.7709 C   0  0  0  0  0  0  0  0  0  0  0  0
   -1.7818    3.3944    0.6372 C   0  0  0  0  0  0  0  0  0  0  0  0
   -2.7541    6.0875    2.4525 H   0  0  0  0  0  0  0  0  0  0  0  0
   -1.3389    6.8974    2.3626 H   0  0  0  0  0  0  0  0  0  0  0  0
    0.8130    5.4720    0.6655 H   0  0  0  0  0  0  0  0  0  0  0  0
    2.0008    3.4031    0.8947 H   0  0  0  0  0  0  0  0  0  0  0  0
    5.7030    1.8179    0.5861 H   0  0  0  0  0  0  0  0  0  0  0  0
    3.2380   -1.9140    2.0361 H   0  0  0  0  0  0  0  0  0  0  0  0
    1.2794   -2.2970    4.8897 H   0  0  0  0  0  0  0  0  0  0  0  0
    2.6953   -2.8482    4.2912 H   0  0  0  0  0  0  0  0  0  0  0  0
    1.7306   -3.8277    2.5907 H   0  0  0  0  0  0  0  0  0  0  0  0
    0.3849   -3.7439    3.5120 H   0  0  0  0  0  0  0  0  0  0  0  0
    0.8506   -0.8313    0.9386 H   0  0  0  0  0  0  0  0  0  0  0  0
    1.6577   -2.1750    0.4805 H   0  0  0  0  0  0  0  0  0  0  0  0
    8.4943    4.8154    1.2024 H   0  0  0  0  0  0  0  0  0  0  0  0
    7.9871    6.7351    2.5065 H   0  0  0  0  0  0  0  0  0  0  0  0
    6.5987    6.5555    4.4471 H   0  0  0  0  0  0  0  0  0  0  0  0
    5.7085    4.3989    5.0599 H   0  0  0  0  0  0  0  0  0  0  0  0
    8.4607   -0.5726    3.2248 H   0  0  0  0  0  0  0  0  0  0  0  0
    8.2386   -2.9316    2.9026 H   0  0  0  0  0  0  0  0  0  0  0  0
    6.2736   -3.8170    1.8671 H   0  0  0  0  0  0  0  0  0  0  0  0
    4.5322   -2.3434    1.1511 H   0  0  0  0  0  0  0  0  0  0  0  0
   -1.5854    1.3304    0.7990 H   0  0  0  0  0  0  0  0  0  0  0  0
   -2.7795    3.3955    0.5689 H   0  0  0  0  0  0  0  0  0  0  0  0
  1  2  2  0  0  0  0
  1  3  2  0  0  0  0
  1  4  1  0  0  0  0
  1  5  1  0  0  0  0
  5  6  1  0  0  0  0
  6  7  2  0  0  0  0
  7  8  1  0  0  0  0
  8  9  1  0  0  0  0
  9 10  2  0  0  0  0
 10 11  1  0  0  0  0
 11 12  1  0  0  0  0
 12 13  2  0  0  0  0
 13 14  1  0  0  0  0
 14 10  1  0  0  0  0
 14 15  1  0  0  0  0
 15 16  1  0  0  0  0
 16 17  1  0  0  0  0
 16 18  1  0  0  0  0
 16 19  1  0  0  0  0
 19 20  1  0  0  0  0
 20 21  1  0  0  0  0
 21 22  1  0  0  0  0
 22 15  1  0  0  0  0
 13 23  1  0  0  0  0
 23 24  1  0  0  0  0
 24 25  1  0  0  0  0
 25 26  1  0  0  0  0
 26 27  2  0  0  0  0
 26 28  1  0  0  0  0
 28 29  1  0  0  0  0
 29 30  2  0  0  0  0
 30 31  1  0  0  0  0
 31 32  2  0  0  0  0
 32 33  1  0  0  0  0
 33 28  2  0  0  0  0
 29 34  1  0  0  0  0
 34 25  1  0  0  0  0
 34 35  2  0  0  0  0
 24 36  2  0  0  0  0
 36 37  1  0  0  0  0
 37 38  2  0  0  0  0
 38 39  1  0  0  0  0
 39 23  2  0  0  0  0
  8 40  2  0  0  0  0
 40 41  1  0  0  0  0
 41  5  2  0  0  0  0
  4 42  1  0  0  0  0
  4 43  1  0  0  0  0
  6 44  1  0  0  0  0
  7 45  1  0  0  0  0
 12 46  1  0  0  0  0
 15 47  1  0  0  0  0
 19 48  1  0  0  0  0
 19 49  1  0  0  0  0
 20 50  1  0  0  0  0
 20 51  1  0  0  0  0
 22 52  1  0  0  0  0
 22 53  1  0  0  0  0
 30 54  1  0  0  0  0
 31 55  1  0  0  0  0
 32 56  1  0  0  0  0
 33 57  1  0  0  0  0
 36 58  1  0  0  0  0
 37 59  1  0  0  0  0
 38 60  1  0  0  0  0
 39 61  1  0  0  0  0
 40 62  1  0  0  0  0
 41 63  1  0  0  0  0
M  END
>  <result-rank>
13

>  <similarity>
0.881

>  <query-name>


>  <query-smiles>
S(=O)(=O)(NC(=O)C)c1ccc(cc1)C=2N3C(=NC(=C3)COc4nc5c(cc4)cccc5)C(=NC2)N6CCOCC6

>  <source>
REALspace_2019-12

>  <similarity-descriptor>
0.998;0.981;0.644;0.960;0.748;1.000;1.000;0.588;0.0;0.0;0.644;0.748;0.0

>  <similarity-descriptor-smiles>
c1ccccc1;C1COCCC1(F)F;c1ccccc1;N=C1NC=CS1;N1C(ccC1=O)=O;c1ccccc1;S(=O)=O;N;;;c1ccccc1;N1C(ccC1=O)=O;

>  <reaction-name>
s_2

>  <reagent1-name>
11687950

>  <reagent1-smiles>
[R1*]SC([R3*])=Nc1ccc(S(=O)(=O)N)cc1

>  <reagent2-name>
16645038

>  <reagent2-smiles>
[R2*]N([R3*])C1C(F)(F)CCOC1

>  <reagent3-name>
9284808

>  <reagent3-smiles>
[R2*]C(c1c(N2C(=O)c3c(cccc3)C2=O)cccc1)=C[R1*]

$$$$
s_1____86342____7594458____5126090
          04022017303D 1   1.00000     0.00000     0
            
 60 64  0  0  0  0            999 V2000
    7.8924    0.1662    1.8197 S   0  0  0  0  0  0  0  0  0  0  0  0
    7.2327   -0.7066    3.1258 C   0  0  0  0  0  0  0  0  0  0  0  0
    7.7912   -1.6408    3.7783 N   0  0  0  0  0  0  0  0  0  0  0  0
    9.1525   -2.0704    3.4275 C   0  0  0  0  0  0  0  0  0  0  0  0
   10.1606   -1.2571    4.2214 C   0  0  3  0  0  0  0  0  0  0  0  0
   10.0230    0.1198    3.9298 O   0  0  0  0  0  0  0  0  0  0  0  0
   11.2319    0.7344    4.3552 C   0  0  0  0  0  0  0  0  0  0  0  0
   12.3026   -0.3358    4.2720 C   0  0  0  0  0  0  0  0  0  0  0  0
   11.5652   -1.5525    3.7467 C   0  0  0  0  0  0  0  0  0  0  0  0
    5.9892   -0.1914    3.3225 N   0  0  0  0  0  0  0  0  0  0  0  0
    5.1836   -0.6672    4.2949 N   0  0  0  0  0  0  0  0  0  0  0  0
    5.5480   -0.6154    5.4895 C   0  0  0  0  0  0  0  0  0  0  0  0
    4.6810   -1.1273    6.5358 C   0  0  0  0  0  0  0  0  0  0  0  0
    5.0250   -1.1008    7.8880 C   0  0  0  0  0  0  0  0  0  0  0  0
    4.1391   -1.6098    8.8344 C   0  0  0  0  0  0  0  0  0  0  0  0
    2.9282   -2.1327    8.3907 C   0  0  0  0  0  0  0  0  0  0  0  0
    2.6188   -2.1487    7.0855 N   0  0  0  0  0  0  0  0  0  0  0  0
    3.4560   -1.6646    6.1558 C   0  0  0  0  0  0  0  0  0  0  0  0
    4.4475   -1.5987   10.1906 C   0  0  0  0  0  0  0  0  0  0  0  0
    5.6635   -1.0686   10.6080 C   0  0  0  0  0  0  0  0  0  0  0  0
    6.5700   -0.5523    9.6893 C   0  0  0  0  0  0  0  0  0  0  0  0
    6.2353   -0.5772    8.3399 C   0  0  0  0  0  0  0  0  0  0  0  0
    5.6543    0.8247    2.4637 C   0  0  0  0  0  0  0  0  0  0  0  0
    4.3934    1.5238    2.4792 C   0  0  0  0  0  0  0  0  0  0  0  0
    4.3898    2.9144    2.4850 C   0  0  0  0  0  0  0  0  0  0  0  0
    3.1783    3.5981    2.5011 C   0  0  0  0  0  0  0  0  0  0  0  0
    1.9856    2.8824    2.5103 C   0  0  0  0  0  0  0  0  0  0  0  0
    0.8052    3.5371    2.5243 O   0  0  0  0  0  0  0  0  0  0  0  0
    0.7807    4.9569    2.5297 C   0  0  0  0  0  0  0  0  0  0  0  0
   -0.6608    5.4387    2.5457 C   0  0  0  0  0  0  0  0  0  0  0  0
   -1.5593    4.6433    2.5517 O   0  0  0  0  0  0  0  0  0  0  0  0
   -0.9343    6.7811    2.5533 N   0  0  0  0  0  0  0  0  0  0  0  0
    1.9898    1.4913    2.5046 C   0  0  0  0  0  0  0  0  0  0  0  0
    3.2009    0.8075    2.4890 C   0  0  0  0  0  0  0  0  0  0  0  0
    6.5718    1.2007    1.5327 C   0  0  0  0  0  0  0  0  0  0  0  0
    9.3054   -1.9280    2.4495 H   0  0  0  0  0  0  0  0  0  0  0  0
    9.2621   -3.0405    3.6441 H   0  0  0  0  0  0  0  0  0  0  0  0
   10.0687   -1.4283    5.2023 H   0  0  0  0  0  0  0  0  0  0  0  0
   11.1419    1.0623    5.2956 H   0  0  0  0  0  0  0  0  0  0  0  0
   11.4607    1.5010    3.7553 H   0  0  0  0  0  0  0  0  0  0  0  0
   12.6930   -0.5189    5.1742 H   0  0  0  0  0  0  0  0  0  0  0  0
   13.0304   -0.0624    3.6431 H   0  0  0  0  0  0  0  0  0  0  0  0
   11.6125   -1.6097    2.7495 H   0  0  0  0  0  0  0  0  0  0  0  0
   11.9188   -2.3983    4.1462 H   0  0  0  0  0  0  0  0  0  0  0  0
    6.4365   -0.2214    5.7245 H   0  0  0  0  0  0  0  0  0  0  0  0
    2.2786   -2.5022    9.0551 H   0  0  0  0  0  0  0  0  0  0  0  0
    3.1992   -1.6900    5.1897 H   0  0  0  0  0  0  0  0  0  0  0  0
    3.8014   -1.9680   10.8586 H   0  0  0  0  0  0  0  0  0  0  0  0
    5.8890   -1.0588   11.5822 H   0  0  0  0  0  0  0  0  0  0  0  0
    7.4436   -0.1713    9.9921 H   0  0  0  0  0  0  0  0  0  0  0  0
    6.8827   -0.2081    7.6731 H   0  0  0  0  0  0  0  0  0  0  0  0
    5.2527    3.4198    2.4778 H   0  0  0  0  0  0  0  0  0  0  0  0
    3.1650    4.5980    2.5060 H   0  0  0  0  0  0  0  0  0  0  0  0
    1.2382    5.3012    1.7099 H   0  0  0  0  0  0  0  0  0  0  0  0
    1.2543    5.2953    3.3428 H   0  0  0  0  0  0  0  0  0  0  0  0
   -0.1856    7.4440    2.5482 H   0  0  0  0  0  0  0  0  0  0  0  0
   -1.8827    7.0981    2.5638 H   0  0  0  0  0  0  0  0  0  0  0  0
    1.1270    0.9859    2.5117 H   0  0  0  0  0  0  0  0  0  0  0  0
    3.2144   -0.1924    2.4849 H   0  0  0  0  0  0  0  0  0  0  0  0
    6.4895    1.9180    0.8408 H   0  0  0  0  0  0  0  0  0  0  0  0
  1  2  1  0  0  0  0
  2  3  2  0  0  0  0
  3  4  1  0  0  0  0
  4  5  1  0  0  0  0
  5  6  1  0  0  0  0
  6  7  1  0  0  0  0
  7  8  1  0  0  0  0
  8  9  1  0  0  0  0
  9  5  1  0  0  0  0
  2 10  1  0  0  0  0
 10 11  1  0  0  0  0
 11 12  2  0  0  0  0
 12 13  1  0  0  0  0
 13 14  1  0  0  0  0
 14 15  2  0  0  0  0
 15 16  1  0  0  0  0
 16 17  2  0  0  0  0
 17 18  1  0  0  0  0
 18 13  2  0  0  0  0
 15 19  1  0  0  0  0
 19 20  2  0  0  0  0
 20 21  1  0  0  0  0
 21 22  2  0  0  0  0
 22 14  1  0  0  0  0
 10 23  1  0  0  0  0
 23 24  1  0  0  0  0
 24 25  1  0  0  0  0
 25 26  2  0  0  0  0
 26 27  1  0  0  0  0
 27 28  1  0  0  0  0
 28 29  1  0  0  0  0
 29 30  1  0  0  0  0
 30 31  2  0  0  0  0
 30 32  1  0  0  0  0
 27 33  2  0  0  0  0
 33 34  1  0  0  0  0
 34 24  2  0  0  0  0
 23 35  2  0  0  0  0
 35  1  1  0  0  0  0
  4 36  1  0  0  0  0
  4 37  1  0  0  0  0
  5 38  1  0  0  0  0
  7 39  1  0  0  0  0
  7 40  1  0  0  0  0
  8 41  1  0  0  0  0
  8 42  1  0  0  0  0
  9 43  1  0  0  0  0
  9 44  1  0  0  0  0
 12 45  1  0  0  0  0
 16 46  1  0  0  0  0
 18 47  1  0  0  0  0
 19 48  1  0  0  0  0
 20 49  1  0  0  0  0
 21 50  1  0  0  0  0
 22 51  1  0  0  0  0
 25 52  1  0  0  0  0
 26 53  1  0  0  0  0
 29 54  1  0  0  0  0
 29 55  1  0  0  0  0
 32 56  1  0  0  0  0
 32 57  1  0  0  0  0
 33 58  1  0  0  0  0
 34 59  1  0  0  0  0
 35 60  1  0  0  0  0
M  END
>  <result-rank>
14

>  <similarity>
0.881

>  <query-name>


>  <query-smiles>
S(=O)(=O)(NC(=O)C)c1ccc(cc1)C=2N3C(=NC(=C3)COc4nc5c(cc4)cccc5)C(=NC2)N6CCOCC6

>  <source>
REALspace_2019-12

>  <similarity-descriptor>
0.999;0.956;0.586;0.959;0.838;0.999;0.747;0.717;0.0;0.0;0.838;0.838;0.0

>  <similarity-descriptor-smiles>
c1ccccc1;CC1CCCO1;N=C;S1C=CNC1=N;c1cnccc1;c1ccccc1;OCC=O;N;;;c1cnccc1;c1cnccc1;

>  <reaction-name>
s_1

>  <reagent1-name>
86342

>  <reagent1-smiles>
[R3*]=NN([R2*])C(S[R1*])=NCC1OCCC1

>  <reagent2-name>
7594458

>  <reagent2-smiles>
[R3*]=Cc1c2c(cnc1)cccc2

>  <reagent3-name>
5126090

>  <reagent3-smiles>
[R2*]C(c1ccc(OCC(=O)N)cc1)=C[R1*]

$$$$
m_274972____12934192____12615770____13046846
          04022017303D 1   1.00000     0.00000     0
            
 51 55  0  0  0  0            999 V2000
    0.4035    3.7616    2.5294 S   0  0  0  0  0  0  0  0  0  0  0  0
   -0.5815    2.9642    3.2130 O   0  0  0  0  0  0  0  0  0  0  0  0
    0.5624    5.0187    3.2135 O   0  0  0  0  0  0  0  0  0  0  0  0
   -0.0853    4.0341    0.9985 N   0  0  0  0  0  0  0  0  0  0  0  0
   -1.3696    4.7492    1.0142 C   0  0  0  0  0  0  0  0  0  0  0  0
    1.9848    2.8811    2.5100 C   0  0  0  0  0  0  0  0  0  0  0  0
    3.1740    3.6024    2.5029 C   0  0  0  0  0  0  0  0  0  0  0  0
    4.3836    2.9156    2.4883 C   0  0  0  0  0  0  0  0  0  0  0  0
    4.3937    1.5243    2.4800 C   0  0  0  0  0  0  0  0  0  0  0  0
    3.2017    0.8072    2.4872 C   0  0  0  0  0  0  0  0  0  0  0  0
    1.9898    1.4900    2.5021 C   0  0  0  0  0  0  0  0  0  0  0  0
    5.6630    0.8199    2.4636 C   0  0  0  0  0  0  0  0  0  0  0  0
    5.8598   -0.8692    2.4518 S   0  0  0  0  0  0  0  0  0  0  0  0
    7.5630   -0.8704    2.4327 C   0  0  0  0  0  0  0  0  0  0  0  0
    7.8952    0.4511    2.4332 C   0  0  0  0  0  0  0  0  0  0  0  0
    6.8653    1.3505    2.4501 N   0  0  0  0  0  0  0  0  0  0  0  0
    9.3004    0.8070    2.4258 C   0  0  0  0  0  0  0  0  0  0  0  0
   10.3458   -0.0647    2.4091 N   0  0  0  0  0  0  0  0  0  0  0  0
   11.4075    0.6193    2.4085 N   0  0  0  0  0  0  0  0  0  0  0  0
   11.1507    1.9040    2.4255 N   0  0  0  0  0  0  0  0  0  0  0  0
    9.8031    2.0719    2.4383 C   0  0  0  0  0  0  0  0  0  0  0  0
   12.1526    2.9796    2.4317 C   0  0  0  0  0  0  0  0  0  0  0  0
   12.4889    3.3679    0.9993 C   0  0  3  0  0  0  0  0  0  0  0  0
   11.3396    3.8289    0.2968 O   0  0  0  0  0  0  0  0  0  0  0  0
   11.3253    3.9400   -1.0470 C   0  0  0  0  0  0  0  0  0  0  0  0
   12.3154    3.2780   -1.7676 C   0  0  0  0  0  0  0  0  0  0  0  0
   13.2531    2.5937   -1.0804 O   0  0  0  0  0  0  0  0  0  0  0  0
   13.0479    2.1706    0.2542 C   0  0  0  0  0  0  0  0  0  0  0  0
   12.3372    3.3463   -3.1575 C   0  0  0  0  0  0  0  0  0  0  0  0
   11.3794    4.0934   -3.8374 C   0  0  0  0  0  0  0  0  0  0  0  0
   10.3926    4.7714   -3.1276 C   0  0  0  0  0  0  0  0  0  0  0  0
   10.3753    4.6852   -1.7389 C   0  0  0  0  0  0  0  0  0  0  0  0
   -0.1957    3.1611    0.5234 H   0  0  0  0  0  0  0  0  0  0  0  0
   -1.6695    4.9164    0.0750 H   0  0  0  0  0  0  0  0  0  0  0  0
   -2.0537    4.1954    1.4889 H   0  0  0  0  0  0  0  0  0  0  0  0
   -1.2593    5.6222    1.4892 H   0  0  0  0  0  0  0  0  0  0  0  0
    3.1597    4.6022    2.5083 H   0  0  0  0  0  0  0  0  0  0  0  0
    5.2459    3.4219    2.4837 H   0  0  0  0  0  0  0  0  0  0  0  0
    3.2159   -0.1927    2.4818 H   0  0  0  0  0  0  0  0  0  0  0  0
    1.1273    0.9839    2.5071 H   0  0  0  0  0  0  0  0  0  0  0  0
    8.1776   -1.6592    2.4233 H   0  0  0  0  0  0  0  0  0  0  0  0
    9.2940    2.9325    2.4535 H   0  0  0  0  0  0  0  0  0  0  0  0
   12.9803    2.6615    2.8940 H   0  0  0  0  0  0  0  0  0  0  0  0
   11.7854    3.7744    2.9150 H   0  0  0  0  0  0  0  0  0  0  0  0
   13.1764    4.0940    1.0114 H   0  0  0  0  0  0  0  0  0  0  0  0
   13.9137    1.8818    0.6629 H   0  0  0  0  0  0  0  0  0  0  0  0
   12.3972    1.4117    0.2807 H   0  0  0  0  0  0  0  0  0  0  0  0
   13.0432    2.8569   -3.6695 H   0  0  0  0  0  0  0  0  0  0  0  0
   11.4004    4.1431   -4.8360 H   0  0  0  0  0  0  0  0  0  0  0  0
    9.7045    5.3137   -3.6098 H   0  0  0  0  0  0  0  0  0  0  0  0
    9.6653    5.1690   -1.2273 H   0  0  0  0  0  0  0  0  0  0  0  0
  1  2  2  0  0  0  0
  1  3  2  0  0  0  0
  1  4  1  0  0  0  0
  4  5  1  0  0  0  0
  1  6  1  0  0  0  0
  6  7  1  0  0  0  0
  7  8  2  0  0  0  0
  8  9  1  0  0  0  0
  9 10  2  0  0  0  0
 10 11  1  0  0  0  0
 11  6  2  0  0  0  0
  9 12  1  0  0  0  0
 12 13  1  0  0  0  0
 13 14  1  0  0  0  0
 14 15  2  0  0  0  0
 15 16  1  0  0  0  0
 12 16  2  0  0  0  0
 15 17  1  0  0  0  0
 17 18  1  0  0  0  0
 18 19  2  0  0  0  0
 19 20  1  0  0  0  0
 20 21  1  0  0  0  0
 17 21  2  0  0  0  0
 20 22  1  0  0  0  0
 22 23  1  0  0  0  0
 23 24  1  0  0  0  0
 24 25  1  0  0  0  0
 25 26  1  0  0  0  0
 26 27  1  0  0  0  0
 27 28  1  0  0  0  0
 28 23  1  0  0  0  0
 26 29  2  0  0  0  0
 29 30  1  0  0  0  0
 30 31  2  0  0  0  0
 31 32  1  0  0  0  0
 32 25  2  0  0  0  0
  4 33  1  0  0  0  0
  5 34  1  0  0  0  0
  5 35  1  0  0  0  0
  5 36  1  0  0  0  0
  7 37  1  0  0  0  0
  8 38  1  0  0  0  0
 10 39  1  0  0  0  0
 11 40  1  0  0  0  0
 14 41  1  0  0  0  0
 21 42  1  0  0  0  0
 22 43  1  0  0  0  0
 22 44  1  0  0  0  0
 23 45  1  0  0  0  0
 28 46  1  0  0  0  0
 28 47  1  0  0  0  0
 29 48  1  0  0  0  0
 30 49  1  0  0  0  0
 31 50  1  0  0  0  0
 32 51  1  0  0  0  0
M  END
>  <result-rank>
15

>  <similarity>
0.881

>  <query-name>


>  <query-smiles>
S(=O)(=O)(NC(=O)C)c1ccc(cc1)C=2N3C(=NC(=C3)COc4nc5c(cc4)cccc5)C(=NC2)N6CCOCC6

>  <source>
REALspace_2019-12

>  <similarity-descriptor>
1.000;0.0;0.832;0.976;0.736;0.998;1.000;0.733;0.733;0.733;1.000;0.736;0.0

>  <similarity-descriptor-smiles>
c1ccccc1;;C1=CNN=N1;C1=NC=CS1;C1COccO1;c1ccccc1;S(=O)=O;NC;NC;NC;C;C1COccO1;

>  <reaction-name>
m_274972

>  <reagent1-name>
12934192

>  <reagent1-smiles>
[R1*]SC(=N[R2*])c1ccc(S(=O)(=O)NC)cc1

>  <reagent2-name>
12615770

>  <reagent2-smiles>
[R2*]C(C([R3*])=C[R4*])=C[R1*]

>  <reagent3-name>
13046846

>  <reagent3-smiles>
[R3*]N=NN([R4*])CC1Oc2c(OC1)cccc2

$$$$
s_1458____7207170____9746902
          04022017303D 1   1.00000     0.00000     0
            
 60 64  0  0  0  0            999 V2000
    0.6517    1.8583   -0.5550 S   0  0  0  0  0  0  0  0  0  0  0  0
    2.1972    1.6566   -1.3295 C   0  0  0  0  0  0  0  0  0  0  0  0
    3.2377    2.4467   -1.0244 N   0  0  0  0  0  0  0  0  0  0  0  0
    4.4366    2.3073   -1.6111 C   0  0  0  0  0  0  0  0  0  0  0  0
    4.6044    1.3090   -2.5661 C   0  0  0  0  0  0  0  0  0  0  0  0
    3.5636    0.5191   -2.8703 N   0  0  0  0  0  0  0  0  0  0  0  0
    2.3647    0.6585   -2.2849 C   0  0  0  0  0  0  0  0  0  0  0  0
    1.2940   -0.1794   -2.6208 N   0  0  0  0  0  0  0  0  0  0  0  0
    0.3028    0.2984   -3.5976 C   0  0  0  0  0  0  0  0  0  0  0  0
   -1.0832   -0.2433   -3.2827 C   0  0  3  0  0  0  0  0  0  0  0  0
   -1.0429   -1.6338   -2.9891 O   0  0  0  0  0  0  0  0  0  0  0  0
   -0.2831   -1.8969   -1.8167 C   0  0  3  0  0  0  0  0  0  0  0  0
    1.1759   -1.5072   -1.9989 C   0  0  0  0  0  0  0  0  0  0  0  0
   -0.3340   -3.3736   -1.4579 C   0  0  0  0  0  0  0  0  0  0  0  0
   -1.9798    0.0272   -4.4802 C   0  0  0  0  0  0  0  0  0  0  0  0
    5.8437    1.1566   -3.1798 C   0  0  0  0  0  0  0  0  0  0  0  0
    6.9140    1.9833   -2.8534 C   0  0  0  0  0  0  0  0  0  0  0  0
    6.7375    2.9787   -1.8972 C   0  0  0  0  0  0  0  0  0  0  0  0
    5.5014    3.1391   -1.2795 C   0  0  0  0  0  0  0  0  0  0  0  0
    1.0000    1.0000    1.0000 C   0  0  0  0  0  0  0  0  0  0  0  0
    1.8776    1.8776    1.8776 C   0  0  0  0  0  0  0  0  0  0  0  0
    3.0725    1.7997    1.7997 O   0  0  0  0  0  0  0  0  0  0  0  0
    1.3294    2.7189    2.7189 O   0  0  0  0  0  0  0  0  0  0  0  0
    2.1493    3.5387    3.5387 C   0  0  0  0  0  0  0  0  0  0  0  0
    1.2716    4.4164    4.4164 C   0  0  0  0  0  0  0  0  0  0  0  0
    0.8543    3.9926    5.6747 C   0  0  0  0  0  0  0  0  0  0  0  0
    0.0801    4.7866    6.4306 N   0  0  0  0  0  0  0  0  0  0  0  0
   -0.3145    5.9992    6.0109 C   0  0  0  0  0  0  0  0  0  0  0  0
    0.0768    6.4679    4.7590 C   0  0  0  0  0  0  0  0  0  0  0  0
    0.8793    5.6673    3.9529 C   0  0  0  0  0  0  0  0  0  0  0  0
   -0.3144    7.7194    4.2949 C   0  0  0  0  0  0  0  0  0  0  0  0
   -1.1159    8.5213    5.1013 C   0  0  0  0  0  0  0  0  0  0  0  0
   -1.5161    8.0696    6.3554 C   0  0  0  0  0  0  0  0  0  0  0  0
   -1.1152    6.8150    6.8027 C   0  0  0  0  0  0  0  0  0  0  0  0
    0.5723   -0.0056   -4.5113 H   0  0  0  0  0  0  0  0  0  0  0  0
    0.2760    1.2977   -3.5732 H   0  0  0  0  0  0  0  0  0  0  0  0
   -1.4481    0.2440   -2.4893 H   0  0  0  0  0  0  0  0  0  0  0  0
   -0.6658   -1.3678   -1.0593 H   0  0  0  0  0  0  0  0  0  0  0  0
    1.6238   -1.4905   -1.1050 H   0  0  0  0  0  0  0  0  0  0  0  0
    1.6241   -2.1832   -2.5838 H   0  0  0  0  0  0  0  0  0  0  0  0
    0.2062   -3.5347   -0.6319 H   0  0  0  0  0  0  0  0  0  0  0  0
   -1.2826   -3.6443   -1.2939 H   0  0  0  0  0  0  0  0  0  0  0  0
    0.0410   -3.9130   -2.2118 H   0  0  0  0  0  0  0  0  0  0  0  0
   -1.9949    1.0089   -4.6703 H   0  0  0  0  0  0  0  0  0  0  0  0
   -1.6267   -0.4614   -5.2781 H   0  0  0  0  0  0  0  0  0  0  0  0
   -2.9075   -0.2879   -4.2800 H   0  0  0  0  0  0  0  0  0  0  0  0
    5.9672    0.4409   -3.8671 H   0  0  0  0  0  0  0  0  0  0  0  0
    7.8002    1.8634   -3.3008 H   0  0  0  0  0  0  0  0  0  0  0  0
    7.4994    3.5790   -1.6540 H   0  0  0  0  0  0  0  0  0  0  0  0
    5.3775    3.8561   -0.5935 H   0  0  0  0  0  0  0  0  0  0  0  0
    1.4742    0.1409    0.8075 H   0  0  0  0  0  0  0  0  0  0  0  0
    0.1409    0.8075    1.4742 H   0  0  0  0  0  0  0  0  0  0  0  0
    2.7266    4.1161    2.9614 H   0  0  0  0  0  0  0  0  0  0  0  0
    2.7266    2.9614    4.1161 H   0  0  0  0  0  0  0  0  0  0  0  0
    1.1319    3.0947    6.0163 H   0  0  0  0  0  0  0  0  0  0  0  0
    1.1704    5.9874    3.0514 H   0  0  0  0  0  0  0  0  0  0  0  0
   -0.0232    8.0387    3.3931 H   0  0  0  0  0  0  0  0  0  0  0  0
   -1.4046    9.4230    4.7796 H   0  0  0  0  0  0  0  0  0  0  0  0
   -2.0917    8.6468    6.9348 H   0  0  0  0  0  0  0  0  0  0  0  0
   -1.4063    6.4958    7.7045 H   0  0  0  0  0  0  0  0  0  0  0  0
  1  2  1  0  0  0  0
  2  3  1  0  0  0  0
  3  4  2  0  0  0  0
  4  5  1  0  0  0  0
  5  6  2  0  0  0  0
  6  7  1  0  0  0  0
  7  2  2  0  0  0  0
  7  8  1  0  0  0  0
  8  9  1  0  0  0  0
  9 10  1  0  0  0  0
 10 11  1  0  0  0  0
 11 12  1  0  0  0  0
 12 13  1  0  0  0  0
 13  8  1  0  0  0  0
 12 14  1  0  0  0  0
 10 15  1  0  0  0  0
  5 16  1  0  0  0  0
 16 17  2  0  0  0  0
 17 18  1  0  0  0  0
 18 19  2  0  0  0  0
 19  4  1  0  0  0  0
  1 20  1  0  0  0  0
 20 21  1  0  0  0  0
 21 22  2  0  0  0  0
 21 23  1  0  0  0  0
 23 24  1  0  0  0  0
 24 25  1  0  0  0  0
 25 26  1  0  0  0  0
 26 27  2  0  0  0  0
 27 28  1  0  0  0  0
 28 29  2  0  0  0  0
 29 30  1  0  0  0  0
 30 25  2  0  0  0  0
 29 31  1  0  0  0  0
 31 32  2  0  0  0  0
 32 33  1  0  0  0  0
 33 34  2  0  0  0  0
 34 28  1  0  0  0  0
  9 35  1  0  0  0  0
  9 36  1  0  0  0  0
 10 37  1  0  0  0  0
 12 38  1  0  0  0  0
 13 39  1  0  0  0  0
 13 40  1  0  0  0  0
 14 41  1  0  0  0  0
 14 42  1  0  0  0  0
 14 43  1  0  0  0  0
 15 44  1  0  0  0  0
 15 45  1  0  0  0  0
 15 46  1  0  0  0  0
 16 47  1  0  0  0  0
 17 48  1  0  0  0  0
 18 49  1  0  0  0  0
 19 50  1  0  0  0  0
 20 51  1  0  0  0  0
 20 52  1  0  0  0  0
 24 53  1  0  0  0  0
 24 54  1  0  0  0  0
 26 55  1  0  0  0  0
 30 56  1  0  0  0  0
 31 57  1  0  0  0  0
 32 58  1  0  0  0  0
 33 59  1  0  0  0  0
 34 60  1  0  0  0  0
M  END
>  <result-rank>
16

>  <similarity>
0.880

>  <query-name>


>  <query-smiles>
S(=O)(=O)(NC(=O)C)c1ccc(cc1)C=2N3C(=NC(=C3)COc4nc5c(cc4)cccc5)C(=NC2)N6CCOCC6

>  <source>
REALspace_2019-12

>  <similarity-descriptor>
0.985;0.974;0.580;0.848;0.997;1.000;0.0;0.0;0.0;0.0;0.999;0.999;0.167

>  <similarity-descriptor-smiles>
c1ccccc1;N1CCOCC1;SCC=O;c1cnccn1;c1cccnc1;c1ccccc1;;;;;OC;OC;C.C

>  <reaction-name>
s_1458

>  <reagent1-name>
7207170

>  <reagent1-smiles>
[R1*]OC(=O)CSc1nc2c(nc1N3CC(OC(C3)C)C)cccc2

>  <reagent2-name>
9746902

>  <reagent2-smiles>
[R1*]Cc1cnc2c(c1)cccc2

$$$$
s_11a____52406____132801
          04022017303D 1   1.00000     0.00000     0
            
 57 62  0  0  0  0            999 V2000
   -1.6512    0.8701    3.1832 S   0  0  0  0  0  0  0  0  0  0  0  0
   -3.2998    1.2544    2.9971 C   0  0  0  0  0  0  0  0  0  0  0  0
   -4.3579    0.7207    3.7584 N   0  0  0  0  0  0  0  0  0  0  0  0
   -5.0051   -0.5591    3.4298 C   0  0  0  0  0  0  0  0  0  0  0  0
   -6.4393   -0.5314    3.9316 C   0  0  0  0  0  0  0  0  0  0  0  0
   -6.5288   -0.4027    5.3480 O   0  0  0  0  0  0  0  0  0  0  0  0
   -5.4680    0.3618    5.9119 C   0  0  0  0  0  0  0  0  0  0  0  0
   -4.9062    1.3930    4.9444 C   0  0  0  0  0  0  0  0  0  0  0  0
   -3.3986    2.1616    1.9852 C   0  0  0  0  0  0  0  0  0  0  0  0
   -4.6756    2.7046    1.5635 C   0  0  0  0  0  0  0  0  0  0  0  0
   -5.3112    3.6606    2.3490 C   0  0  0  0  0  0  0  0  0  0  0  0
   -6.5363    4.1782    1.9411 C   0  0  0  0  0  0  0  0  0  0  0  0
   -7.1162    3.7403    0.7551 C   0  0  0  0  0  0  0  0  0  0  0  0
   -6.4719    2.7853   -0.0218 C   0  0  0  0  0  0  0  0  0  0  0  0
   -5.2469    2.2596    0.3755 C   0  0  0  0  0  0  0  0  0  0  0  0
   -2.1515    2.5087    1.4044 C   0  0  0  0  0  0  0  0  0  0  0  0
   -1.0704    1.8861    1.9480 C   0  0  0  0  0  0  0  0  0  0  0  0
    0.3150    2.0515    1.5495 C   0  0  0  0  0  0  0  0  0  0  0  0
    0.8607    3.1094    1.7013 O   0  0  0  0  0  0  0  0  0  0  0  0
    1.0000    1.0000    1.0000 N   0  0  0  0  0  0  0  0  0  0  0  0
    2.3983    1.0000    1.0000 C   0  0  0  0  0  0  0  0  0  0  0  0
    3.4065   -0.2152    0.3650 S   0  0  0  0  0  0  0  0  0  0  0  0
    4.8961    0.5148    0.7506 C   0  0  0  0  0  0  0  0  0  0  0  0
    4.5340    1.6728    1.3612 C   0  0  0  0  0  0  0  0  0  0  0  0
    3.1928    1.9183    1.4899 N   0  0  0  0  0  0  0  0  0  0  0  0
    5.5784    2.5492    1.8295 C   0  0  0  0  0  0  0  0  0  0  0  0
    6.5403    3.1116    0.9465 C   0  0  0  0  0  0  0  0  0  0  0  0
    6.4738    2.8399   -0.2420 O   0  0  0  0  0  0  0  0  0  0  0  0
    7.4871    3.9123    1.4057 O   0  0  0  0  0  0  0  0  0  0  0  0
    7.5832    4.2239    2.6873 C   0  0  0  0  0  0  0  0  0  0  0  0
    6.6796    3.7147    3.6153 C   0  0  0  0  0  0  0  0  0  0  0  0
    6.7596    4.0272    4.9685 C   0  0  0  0  0  0  0  0  0  0  0  0
    7.7725    4.8734    5.4069 C   0  0  0  0  0  0  0  0  0  0  0  0
    8.6868    5.3943    4.4964 C   0  0  0  0  0  0  0  0  0  0  0  0
    8.5880    5.0683    3.1477 C   0  0  0  0  0  0  0  0  0  0  0  0
    5.6475    2.8505    3.1647 C   0  0  0  0  0  0  0  0  0  0  0  0
   -4.5101   -1.3080    3.8703 H   0  0  0  0  0  0  0  0  0  0  0  0
   -4.9992   -0.6930    2.4388 H   0  0  0  0  0  0  0  0  0  0  0  0
   -6.9098    0.2439    3.5103 H   0  0  0  0  0  0  0  0  0  0  0  0
   -6.8890   -1.3821    3.6594 H   0  0  0  0  0  0  0  0  0  0  0  0
   -4.7322   -0.2606    6.1785 H   0  0  0  0  0  0  0  0  0  0  0  0
   -5.8121    0.8374    6.7215 H   0  0  0  0  0  0  0  0  0  0  0  0
   -5.6360    2.0166    4.6640 H   0  0  0  0  0  0  0  0  0  0  0  0
   -4.1804    1.9112    5.3968 H   0  0  0  0  0  0  0  0  0  0  0  0
   -4.8905    3.9735    3.2005 H   0  0  0  0  0  0  0  0  0  0  0  0
   -7.0001    4.8650    2.5007 H   0  0  0  0  0  0  0  0  0  0  0  0
   -7.9966    4.1128    0.4615 H   0  0  0  0  0  0  0  0  0  0  0  0
   -6.8925    2.4733   -0.8737 H   0  0  0  0  0  0  0  0  0  0  0  0
   -4.7839    1.5723   -0.1843 H   0  0  0  0  0  0  0  0  0  0  0  0
   -2.0728    3.1623    0.6516 H   0  0  0  0  0  0  0  0  0  0  0  0
    0.5000    0.2325    0.5989 H   0  0  0  0  0  0  0  0  0  0  0  0
    5.8182    0.1722    0.5703 H   0  0  0  0  0  0  0  0  0  0  0  0
    6.0986    3.6489    5.6165 H   0  0  0  0  0  0  0  0  0  0  0  0
    7.8437    5.1076    6.3765 H   0  0  0  0  0  0  0  0  0  0  0  0
    9.4150    6.0029    4.8116 H   0  0  0  0  0  0  0  0  0  0  0  0
    9.2490    5.4466    2.4996 H   0  0  0  0  0  0  0  0  0  0  0  0
    4.9842    2.4691    3.8086 H   0  0  0  0  0  0  0  0  0  0  0  0
  1  2  1  0  0  0  0
  2  3  1  0  0  0  0
  3  4  1  0  0  0  0
  4  5  1  0  0  0  0
  5  6  1  0  0  0  0
  6  7  1  0  0  0  0
  7  8  1  0  0  0  0
  8  3  1  0  0  0  0
  2  9  2  0  0  0  0
  9 10  1  0  0  0  0
 10 11  1  0  0  0  0
 11 12  2  0  0  0  0
 12 13  1  0  0  0  0
 13 14  2  0  0  0  0
 14 15  1  0  0  0  0
 15 10  2  0  0  0  0
  9 16  1  0  0  0  0
 16 17  2  0  0  0  0
 17  1  1  0  0  0  0
 17 18  1  0  0  0  0
 18 19  2  0  0  0  0
 18 20  1  0  0  0  0
 20 21  1  0  0  0  0
 21 22  1  0  0  0  0
 22 23  1  0  0  0  0
 23 24  2  0  0  0  0
 24 25  1  0  0  0  0
 21 25  2  0  0  0  0
 24 26  1  0  0  0  0
 26 27  1  0  0  0  0
 27 28  2  0  0  0  0
 27 29  1  0  0  0  0
 29 30  1  0  0  0  0
 30 31  1  0  0  0  0
 31 32  2  0  0  0  0
 32 33  1  0  0  0  0
 33 34  2  0  0  0  0
 34 35  1  0  0  0  0
 35 30  2  0  0  0  0
 31 36  1  0  0  0  0
 26 36  2  0  0  0  0
  4 37  1  0  0  0  0
  4 38  1  0  0  0  0
  5 39  1  0  0  0  0
  5 40  1  0  0  0  0
  7 41  1  0  0  0  0
  7 42  1  0  0  0  0
  8 43  1  0  0  0  0
  8 44  1  0  0  0  0
 11 45  1  0  0  0  0
 12 46  1  0  0  0  0
 13 47  1  0  0  0  0
 14 48  1  0  0  0  0
 15 49  1  0  0  0  0
 16 50  1  0  0  0  0
 20 51  1  0  0  0  0
 23 52  1  0  0  0  0
 32 53  1  0  0  0  0
 33 54  1  0  0  0  0
 34 55  1  0  0  0  0
 35 56  1  0  0  0  0
 36 57  1  0  0  0  0
M  END
>  <result-rank>
17

>  <similarity>
0.880

>  <query-name>


>  <query-smiles>
S(=O)(=O)(NC(=O)C)c1ccc(cc1)C=2N3C(=NC(=C3)COc4nc5c(cc4)cccc5)C(=NC2)N6CCOCC6

>  <source>
REALspace_2019-12

>  <similarity-descriptor>
0.959;1.000;0.926;0.687;0.906;0.999;0.0;0.0;0.0;0.0;0.926;0.906;0.0

>  <similarity-descriptor-smiles>
c1ccccc1;N1CCOCC1;C1=NC=CS1;S1C(=CC=C1)C(=O)N;C1=CccOC1=O;c1ccccc1;;;;;C1=NC=CS1;C1=CccOC1=O;

>  <reaction-name>
s_11a

>  <reagent1-name>
52406

>  <reagent1-smiles>
[R1*]NC=1SC=C(N1)C=2C(=O)Oc3c(cccc3)C2

>  <reagent2-name>
132801

>  <reagent2-smiles>
[R1*]C(=O)C=1SC(N2CCOCC2)=C(c3ccccc3)C1

$$$$
m_274972____12934192____12615770____13046590
          04022017303D 1   1.00000     0.00000     0
            
 47 51  0  0  0  0            999 V2000
    0.4035    3.7616    2.5294 S   0  0  0  0  0  0  0  0  0  0  0  0
   -0.5815    2.9642    3.2130 O   0  0  0  0  0  0  0  0  0  0  0  0
    0.5624    5.0187    3.2135 O   0  0  0  0  0  0  0  0  0  0  0  0
   -0.0853    4.0341    0.9985 N   0  0  0  0  0  0  0  0  0  0  0  0
   -1.3696    4.7492    1.0142 C   0  0  0  0  0  0  0  0  0  0  0  0
    1.9848    2.8811    2.5100 C   0  0  0  0  0  0  0  0  0  0  0  0
    3.1740    3.6024    2.5029 C   0  0  0  0  0  0  0  0  0  0  0  0
    4.3836    2.9156    2.4883 C   0  0  0  0  0  0  0  0  0  0  0  0
    4.3937    1.5243    2.4800 C   0  0  0  0  0  0  0  0  0  0  0  0
    3.2017    0.8072    2.4872 C   0  0  0  0  0  0  0  0  0  0  0  0
    1.9898    1.4900    2.5021 C   0  0  0  0  0  0  0  0  0  0  0  0
    5.6630    0.8199    2.4636 C   0  0  0  0  0  0  0  0  0  0  0  0
    5.8598   -0.8692    2.4518 S   0  0  0  0  0  0  0  0  0  0  0  0
    7.5630   -0.8704    2.4327 C   0  0  0  0  0  0  0  0  0  0  0  0
    7.8952    0.4511    2.4332 C   0  0  0  0  0  0  0  0  0  0  0  0
    6.8653    1.3505    2.4501 N   0  0  0  0  0  0  0  0  0  0  0  0
    9.3014    0.8073    2.4258 C   0  0  0  0  0  0  0  0  0  0  0  0
   10.3504   -0.0618    2.4091 N   0  0  0  0  0  0  0  0  0  0  0  0
   11.4157    0.6157    2.4080 N   0  0  0  0  0  0  0  0  0  0  0  0
   11.1545    1.9000    2.4172 N   0  0  0  0  0  0  0  0  0  0  0  0
   12.1084    2.9266    2.4165 C   0  0  0  0  0  0  0  0  0  0  0  0
   11.7505    4.2738    2.4267 C   0  0  0  0  0  0  0  0  0  0  0  0
   12.7363    5.2563    2.4259 C   0  0  0  0  0  0  0  0  0  0  0  0
   12.3521    6.5937    2.4385 C   0  0  0  0  0  0  0  0  0  0  0  0
   11.0574    6.9459    2.4506 N   0  0  0  0  0  0  0  0  0  0  0  0
   10.0782    6.0300    2.4508 C   0  0  0  0  0  0  0  0  0  0  0  0
   10.4206    4.6819    2.4384 C   0  0  0  0  0  0  0  0  0  0  0  0
   14.0815    4.9028    2.4152 C   0  0  0  0  0  0  0  0  0  0  0  0
   14.4268    3.5553    2.4044 C   0  0  0  0  0  0  0  0  0  0  0  0
   13.4515    2.5631    2.4054 C   0  0  0  0  0  0  0  0  0  0  0  0
    9.8053    2.0687    2.4282 C   0  0  0  0  0  0  0  0  0  0  0  0
   -0.1957    3.1611    0.5234 H   0  0  0  0  0  0  0  0  0  0  0  0
   -1.6695    4.9164    0.0750 H   0  0  0  0  0  0  0  0  0  0  0  0
   -2.0537    4.1954    1.4889 H   0  0  0  0  0  0  0  0  0  0  0  0
   -1.2593    5.6222    1.4892 H   0  0  0  0  0  0  0  0  0  0  0  0
    3.1597    4.6022    2.5083 H   0  0  0  0  0  0  0  0  0  0  0  0
    5.2459    3.4219    2.4837 H   0  0  0  0  0  0  0  0  0  0  0  0
    3.2159   -0.1927    2.4818 H   0  0  0  0  0  0  0  0  0  0  0  0
    1.1273    0.9839    2.5071 H   0  0  0  0  0  0  0  0  0  0  0  0
    8.1776   -1.6592    2.4233 H   0  0  0  0  0  0  0  0  0  0  0  0
   13.0542    7.3058    2.4384 H   0  0  0  0  0  0  0  0  0  0  0  0
    9.1185    6.3112    2.4596 H   0  0  0  0  0  0  0  0  0  0  0  0
    9.6964    3.9923    2.4380 H   0  0  0  0  0  0  0  0  0  0  0  0
   14.7908    5.6077    2.4153 H   0  0  0  0  0  0  0  0  0  0  0  0
   15.3924    3.2954    2.3959 H   0  0  0  0  0  0  0  0  0  0  0  0
   13.7132    1.5980    2.3981 H   0  0  0  0  0  0  0  0  0  0  0  0
    9.2970    2.9299    2.4364 H   0  0  0  0  0  0  0  0  0  0  0  0
  1  2  2  0  0  0  0
  1  3  2  0  0  0  0
  1  4  1  0  0  0  0
  4  5  1  0  0  0  0
  1  6  1  0  0  0  0
  6  7  1  0  0  0  0
  7  8  2  0  0  0  0
  8  9  1  0  0  0  0
  9 10  2  0  0  0  0
 10 11  1  0  0  0  0
 11  6  2  0  0  0  0
  9 12  1  0  0  0  0
 12 13  1  0  0  0  0
 13 14  1  0  0  0  0
 14 15  2  0  0  0  0
 15 16  1  0  0  0  0
 12 16  2  0  0  0  0
 15 17  1  0  0  0  0
 17 18  1  0  0  0  0
 18 19  2  0  0  0  0
 19 20  1  0  0  0  0
 20 21  1  0  0  0  0
 21 22  1  0  0  0  0
 22 23  2  0  0  0  0
 23 24  1  0  0  0  0
 24 25  2  0  0  0  0
 25 26  1  0  0  0  0
 26 27  2  0  0  0  0
 27 22  1  0  0  0  0
 23 28  1  0  0  0  0
 28 29  2  0  0  0  0
 29 30  1  0  0  0  0
 30 21  2  0  0  0  0
 20 31  1  0  0  0  0
 17 31  2  0  0  0  0
  4 32  1  0  0  0  0
  5 33  1  0  0  0  0
  5 34  1  0  0  0  0
  5 35  1  0  0  0  0
  7 36  1  0  0  0  0
  8 37  1  0  0  0  0
 10 38  1  0  0  0  0
 11 39  1  0  0  0  0
 14 40  1  0  0  0  0
 24 41  1  0  0  0  0
 26 42  1  0  0  0  0
 27 43  1  0  0  0  0
 28 44  1  0  0  0  0
 29 45  1  0  0  0  0
 30 46  1  0  0  0  0
 31 47  1  0  0  0  0
M  END
>  <result-rank>
18

>  <similarity>
0.878

>  <query-name>


>  <query-smiles>
S(=O)(=O)(NC(=O)C)c1ccc(cc1)C=2N3C(=NC(=C3)COc4nc5c(cc4)cccc5)C(=NC2)N6CCOCC6

>  <source>
REALspace_2019-12

>  <similarity-descriptor>
1.000;0.0;0.889;0.976;0.831;0.845;1.000;0.733;0.733;0.733;0.889;0.889;0.0

>  <similarity-descriptor-smiles>
c1ccccc1;;C1=CNN=N1;C1=NC=CS1;c1ccccc1;c1ccncc1;S(=O)=O;NC;NC;NC;C1=CNN=N1;C1=CNN=N1;

>  <reaction-name>
m_274972

>  <reagent1-name>
12934192

>  <reagent1-smiles>
[R1*]SC(=N[R2*])c1ccc(S(=O)(=O)NC)cc1

>  <reagent2-name>
12615770

>  <reagent2-smiles>
[R2*]C(C([R3*])=C[R4*])=C[R1*]

>  <reagent3-name>
13046590

>  <reagent3-smiles>
[R3*]N=NN([R4*])c1c2c(cncc2)ccc1

$$$$
m_273170____10756432____10759890____10766558
          04022017303D 1   1.00000     0.00000     0
            
 65 69  0  0  0  0            999 V2000
    7.1615   -2.0524    3.8245 S   0  0  0  0  0  0  0  0  0  0  0  0
    7.5449   -0.9459    4.6626 O   0  0  0  0  0  0  0  0  0  0  0  0
    7.0489   -3.2442    4.6249 O   0  0  0  0  0  0  0  0  0  0  0  0
    8.2911   -2.2773    2.6711 N   0  0  0  0  0  0  0  0  0  0  0  0
    8.4061   -1.0606    1.8541 C   0  0  0  0  0  0  0  0  0  0  0  0
    9.5862   -2.5671    3.3034 C   0  0  0  0  0  0  0  0  0  0  0  0
    5.6287   -1.7094    3.0761 C   0  0  0  0  0  0  0  0  0  0  0  0
    5.1351   -0.4092    3.0844 C   0  0  0  0  0  0  0  0  0  0  0  0
    3.9080   -0.1495    2.4826 C   0  0  0  0  0  0  0  0  0  0  0  0
    3.1781   -1.1688    1.8799 C   0  0  0  0  0  0  0  0  0  0  0  0
    3.6897   -2.4624    1.8823 C   0  0  0  0  0  0  0  0  0  0  0  0
    4.9150   -2.7431    2.4781 C   0  0  0  0  0  0  0  0  0  0  0  0
    3.3905    1.2051    2.4893 C   0  0  0  0  0  0  0  0  0  0  0  0
    4.1071    2.3065    2.4903 N   0  0  0  0  0  0  0  0  0  0  0  0
    3.2789    3.3271    2.4974 N   0  0  0  0  0  0  0  0  0  0  0  0
    2.0315    2.9267    2.5008 C   0  0  0  0  0  0  0  0  0  0  0  0
    2.0806    1.5694    2.4959 N   0  0  0  0  0  0  0  0  0  0  0  0
    0.9245    0.6605    2.4981 C   0  0  0  0  0  0  0  0  0  0  0  0
    0.6099    0.2441    3.9259 C   0  0  0  0  0  0  0  0  0  0  0  0
   -0.4421   -0.6177    4.2213 C   0  0  0  0  0  0  0  0  0  0  0  0
   -1.1996   -1.0940    3.2101 O   0  0  0  0  0  0  0  0  0  0  0  0
   -2.2256   -1.9321    3.4718 C   0  0  0  0  0  0  0  0  0  0  0  0
   -1.9916   -3.3034    3.4906 C   0  0  0  0  0  0  0  0  0  0  0  0
   -3.0499   -4.1648    3.7606 C   0  0  0  0  0  0  0  0  0  0  0  0
   -2.8390   -5.4781    3.7811 F   0  0  0  0  0  0  0  0  0  0  0  0
   -4.3263   -3.6729    4.0100 C   0  0  0  0  0  0  0  0  0  0  0  0
   -4.5393   -2.2987    3.9868 C   0  0  0  0  0  0  0  0  0  0  0  0
   -3.4948   -1.4202    3.7189 C   0  0  0  0  0  0  0  0  0  0  0  0
   -0.6918   -0.9645    5.4930 N   0  0  0  0  0  0  0  0  0  0  0  0
    0.0529   -0.5005    6.5074 C   0  0  0  0  0  0  0  0  0  0  0  0
    1.1171    0.3636    6.2730 C   0  0  0  0  0  0  0  0  0  0  0  0
    1.3946    0.7374    4.9625 C   0  0  0  0  0  0  0  0  0  0  0  0
    0.8797    3.7376    2.5048 N   0  0  0  0  0  0  0  0  0  0  0  0
    0.9024    5.1461    2.9293 C   0  0  0  0  0  0  0  0  0  0  0  0
   -0.4674    5.5222    3.4693 C   0  0  0  0  0  0  0  0  0  0  0  0
   -1.4956    5.4285    2.4870 O   0  0  0  0  0  0  0  0  0  0  0  0
   -1.2670    4.3998    1.5292 C   0  0  0  0  0  0  0  0  0  0  0  0
   -0.4415    3.2494    2.0861 C   0  0  0  0  0  0  0  0  0  0  0  0
    9.0991   -1.1986    1.1465 H   0  0  0  0  0  0  0  0  0  0  0  0
    7.5252   -0.8635    1.4240 H   0  0  0  0  0  0  0  0  0  0  0  0
    8.6723   -0.2922    2.4361 H   0  0  0  0  0  0  0  0  0  0  0  0
   10.2791   -2.7051    2.5958 H   0  0  0  0  0  0  0  0  0  0  0  0
    9.8523   -1.7987    3.8854 H   0  0  0  0  0  0  0  0  0  0  0  0
    9.5079   -3.3948    3.8592 H   0  0  0  0  0  0  0  0  0  0  0  0
    5.6545    0.3281    3.5164 H   0  0  0  0  0  0  0  0  0  0  0  0
    2.2964   -0.9741    1.4501 H   0  0  0  0  0  0  0  0  0  0  0  0
    3.1703   -3.1997    1.4504 H   0  0  0  0  0  0  0  0  0  0  0  0
    5.2777   -3.6750    2.4766 H   0  0  0  0  0  0  0  0  0  0  0  0
    1.1372   -0.1508    1.9535 H   0  0  0  0  0  0  0  0  0  0  0  0
    0.1325    1.1276    2.1049 H   0  0  0  0  0  0  0  0  0  0  0  0
   -1.0762   -3.6644    3.3125 H   0  0  0  0  0  0  0  0  0  0  0  0
   -5.0815   -4.2992    4.2035 H   0  0  0  0  0  0  0  0  0  0  0  0
   -5.4547   -1.9378    4.1650 H   0  0  0  0  0  0  0  0  0  0  0  0
   -3.6545   -0.4332    3.7040 H   0  0  0  0  0  0  0  0  0  0  0  0
   -0.1597   -0.7794    7.4439 H   0  0  0  0  0  0  0  0  0  0  0  0
    1.6710    0.7089    7.0307 H   0  0  0  0  0  0  0  0  0  0  0  0
    2.1543    1.3575    4.7668 H   0  0  0  0  0  0  0  0  0  0  0  0
    1.1261    5.7283    2.1477 H   0  0  0  0  0  0  0  0  0  0  0  0
    1.5902    5.2696    3.6446 H   0  0  0  0  0  0  0  0  0  0  0  0
   -0.6918    4.9079    4.2258 H   0  0  0  0  0  0  0  0  0  0  0  0
   -0.4308    6.4638    3.8041 H   0  0  0  0  0  0  0  0  0  0  0  0
   -0.7817    4.7926    0.7480 H   0  0  0  0  0  0  0  0  0  0  0  0
   -2.1507    4.0422    1.2272 H   0  0  0  0  0  0  0  0  0  0  0  0
   -0.9135    2.8537    2.8739 H   0  0  0  0  0  0  0  0  0  0  0  0
   -0.3281    2.5505    1.3799 H   0  0  0  0  0  0  0  0  0  0  0  0
  1  2  2  0  0  0  0
  1  3  2  0  0  0  0
  1  4  1  0  0  0  0
  4  5  1  0  0  0  0
  4  6  1  0  0  0  0
  1  7  1  0  0  0  0
  7  8  1  0  0  0  0
  8  9  2  0  0  0  0
  9 10  1  0  0  0  0
 10 11  2  0  0  0  0
 11 12  1  0  0  0  0
 12  7  2  0  0  0  0
  9 13  1  0  0  0  0
 13 14  2  0  0  0  0
 14 15  1  0  0  0  0
 15 16  2  0  0  0  0
 16 17  1  0  0  0  0
 17 13  1  0  0  0  0
 17 18  1  0  0  0  0
 18 19  1  0  0  0  0
 19 20  1  0  0  0  0
 20 21  1  0  0  0  0
 21 22  1  0  0  0  0
 22 23  1  0  0  0  0
 23 24  2  0  0  0  0
 24 25  1  0  0  0  0
 24 26  1  0  0  0  0
 26 27  2  0  0  0  0
 27 28  1  0  0  0  0
 28 22  2  0  0  0  0
 20 29  2  0  0  0  0
 29 30  1  0  0  0  0
 30 31  2  0  0  0  0
 31 32  1  0  0  0  0
 32 19  2  0  0  0  0
 16 33  1  0  0  0  0
 33 34  1  0  0  0  0
 34 35  1  0  0  0  0
 35 36  1  0  0  0  0
 36 37  1  0  0  0  0
 37 38  1  0  0  0  0
 38 33  1  0  0  0  0
  5 39  1  0  0  0  0
  5 40  1  0  0  0  0
  5 41  1  0  0  0  0
  6 42  1  0  0  0  0
  6 43  1  0  0  0  0
  6 44  1  0  0  0  0
  8 45  1  0  0  0  0
 10 46  1  0  0  0  0
 11 47  1  0  0  0  0
 12 48  1  0  0  0  0
 18 49  1  0  0  0  0
 18 50  1  0  0  0  0
 23 51  1  0  0  0  0
 26 52  1  0  0  0  0
 27 53  1  0  0  0  0
 28 54  1  0  0  0  0
 30 55  1  0  0  0  0
 31 56  1  0  0  0  0
 32 57  1  0  0  0  0
 34 58  1  0  0  0  0
 34 59  1  0  0  0  0
 35 60  1  0  0  0  0
 35 61  1  0  0  0  0
 37 62  1  0  0  0  0
 37 63  1  0  0  0  0
 38 64  1  0  0  0  0
 38 65  1  0  0  0  0
M  END
>  <result-rank>
19

>  <similarity>
0.878

>  <query-name>


>  <query-smiles>
S(=O)(=O)(NC(=O)C)c1ccc(cc1)C=2N3C(=NC(=C3)COc4nc5c(cc4)cccc5)C(=NC2)N6CCOCC6

>  <source>
REALspace_2019-12

>  <similarity-descriptor>
1.000;1.000;0.637;0.637;0.879;0.953;1.000;0.528;0.528;0.995;1.000;0.879;0.0

>  <similarity-descriptor-smiles>
c1ccccc1;N1CCOCC1;C=1NC=NN1;C=1NC=NN1;c1cccnc1;Oc1cccc(c1)F;S(=O)=O;NC;NC;C;C;c1cccnc1;

>  <reaction-name>
m_273170

>  <reagent1-name>
10756432

>  <reagent1-smiles>
[R2*]=C([R1*])N([R3*])Cc1c(Oc2cc(F)ccc2)nccc1

>  <reagent2-name>
10759890

>  <reagent2-smiles>
[R1*]N1CCOCC1

>  <reagent3-name>
10766558

>  <reagent3-smiles>
[R2*]=NN=C([R3*])c1cc(S(=O)(=O)N(C)C)ccc1

$$$$
s_265764____4903266____4559916
          04022017313D 1   1.00000     0.00000     0
            
 56 61  0  0  0  0            999 V2000
    1.0000    1.0000    1.0000 S   0  0  0  0  0  0  0  0  0  0  0  0
    1.0000    2.2301    2.2301 C   0  0  0  0  0  0  0  0  0  0  0  0
    2.0419    2.8438    2.7340 N   0  0  0  0  0  0  0  0  0  0  0  0
    1.6876    3.7194    3.6471 N   0  0  0  0  0  0  0  0  0  0  0  0
    0.3829    3.6748    3.7459 C   0  0  0  0  0  0  0  0  0  0  0  0
   -0.0820    2.7464    2.8658 N   0  0  0  0  0  0  0  0  0  0  0  0
   -1.4904    2.3736    2.6413 C   0  0  0  0  0  0  0  0  0  0  0  0
   -2.1194    3.3407    1.6449 C   0  0  3  0  0  0  0  0  0  0  0  0
   -1.4713    3.3443    0.3830 O   0  0  0  0  0  0  0  0  0  0  0  0
   -2.3849    3.9097   -0.5382 C   0  0  0  0  0  0  0  0  0  0  0  0
   -3.7772    3.6208   -0.0138 C   0  0  0  0  0  0  0  0  0  0  0  0
   -3.4852    2.8188    1.2370 C   0  0  0  0  0  0  0  0  0  0  0  0
   -0.4266    4.4828    4.6373 C   0  0  0  0  0  0  0  0  0  0  0  0
    0.0146    5.7531    4.9931 C   0  0  0  0  0  0  0  0  0  0  0  0
   -0.7503    6.5412    5.8471 C   0  0  0  0  0  0  0  0  0  0  0  0
   -1.9525    6.0418    6.3362 C   0  0  0  0  0  0  0  0  0  0  0  0
   -2.6930    6.7850    7.1532 F   0  0  0  0  0  0  0  0  0  0  0  0
   -2.3934    4.7718    5.9809 C   0  0  0  0  0  0  0  0  0  0  0  0
   -1.6294    3.9835    5.1273 C   0  0  0  0  0  0  0  0  0  0  0  0
    1.4404   -0.4254    2.0249 C   0  0  0  0  0  0  0  0  0  0  0  0
    2.8876   -0.3000    2.4721 C   0  0  0  0  0  0  0  0  0  0  0  0
    3.3247   -0.4230    3.6990 O   0  0  0  0  0  0  0  0  0  0  0  0
    4.5803   -0.2641    3.7274 N   0  0  0  0  0  0  0  0  0  0  0  0
    4.9939   -0.0273    2.5064 C   0  0  0  0  0  0  0  0  0  0  0  0
    3.9082   -0.0499    1.6886 N   0  0  0  0  0  0  0  0  0  0  0  0
    6.3666    0.2127    2.1006 C   0  0  0  0  0  0  0  0  0  0  0  0
    7.3368   -0.1970    2.9315 N   0  0  0  0  0  0  0  0  0  0  0  0
    8.6353   -0.0205    2.6444 C   0  0  0  0  0  0  0  0  0  0  0  0
    9.0215    0.6012    1.4612 C   0  0  0  0  0  0  0  0  0  0  0  0
    8.0361    1.0365    0.5803 C   0  0  0  0  0  0  0  0  0  0  0  0
    6.6959    0.8428    0.8993 C   0  0  0  0  0  0  0  0  0  0  0  0
    5.7370    1.2912   -0.0062 C   0  0  0  0  0  0  0  0  0  0  0  0
    6.0842    1.9147   -1.2000 C   0  0  0  0  0  0  0  0  0  0  0  0
    7.4306    2.0977   -1.4982 C   0  0  0  0  0  0  0  0  0  0  0  0
    8.4059    1.6589   -0.6083 C   0  0  0  0  0  0  0  0  0  0  0  0
   -1.9886    2.4164    3.5073 H   0  0  0  0  0  0  0  0  0  0  0  0
   -1.5350    1.4436    2.2767 H   0  0  0  0  0  0  0  0  0  0  0  0
   -2.1815    4.2639    2.0242 H   0  0  0  0  0  0  0  0  0  0  0  0
   -2.2644    3.4949   -1.4401 H   0  0  0  0  0  0  0  0  0  0  0  0
   -2.2403    4.8970   -0.6035 H   0  0  0  0  0  0  0  0  0  0  0  0
   -4.3091    3.0871   -0.6713 H   0  0  0  0  0  0  0  0  0  0  0  0
   -4.2661    4.4658    0.2027 H   0  0  0  0  0  0  0  0  0  0  0  0
   -4.1669    2.9945    1.9472 H   0  0  0  0  0  0  0  0  0  0  0  0
   -3.4542    1.8389    1.0399 H   0  0  0  0  0  0  0  0  0  0  0  0
    0.8815    6.0998    4.6351 H   0  0  0  0  0  0  0  0  0  0  0  0
   -0.4395    7.4557    6.1060 H   0  0  0  0  0  0  0  0  0  0  0  0
   -3.2603    4.4252    6.3394 H   0  0  0  0  0  0  0  0  0  0  0  0
   -1.9405    3.0690    4.8687 H   0  0  0  0  0  0  0  0  0  0  0  0
    1.3270   -1.2653    1.4942 H   0  0  0  0  0  0  0  0  0  0  0  0
    0.8448   -0.4554    2.8277 H   0  0  0  0  0  0  0  0  0  0  0  0
    9.3322   -0.3387    3.2870 H   0  0  0  0  0  0  0  0  0  0  0  0
    9.9895    0.7327    1.2476 H   0  0  0  0  0  0  0  0  0  0  0  0
    4.7691    1.1607    0.2087 H   0  0  0  0  0  0  0  0  0  0  0  0
    5.3768    2.2267   -1.8343 H   0  0  0  0  0  0  0  0  0  0  0  0
    7.6974    2.5447   -2.3520 H   0  0  0  0  0  0  0  0  0  0  0  0
    9.3736    1.7907   -0.8230 H   0  0  0  0  0  0  0  0  0  0  0  0
  1  2  1  0  0  0  0
  2  3  2  0  0  0  0
  3  4  1  0  0  0  0
  4  5  2  0  0  0  0
  5  6  1  0  0  0  0
  6  2  1  0  0  0  0
  6  7  1  0  0  0  0
  7  8  1  0  0  0  0
  8  9  1  0  0  0  0
  9 10  1  0  0  0  0
 10 11  1  0  0  0  0
 11 12  1  0  0  0  0
 12  8  1  0  0  0  0
  5 13  1  0  0  0  0
 13 14  1  0  0  0  0
 14 15  2  0  0  0  0
 15 16  1  0  0  0  0
 16 17  1  0  0  0  0
 16 18  2  0  0  0  0
 18 19  1  0  0  0  0
 19 13  2  0  0  0  0
  1 20  1  0  0  0  0
 20 21  1  0  0  0  0
 21 22  1  0  0  0  0
 22 23  1  0  0  0  0
 23 24  2  0  0  0  0
 24 25  1  0  0  0  0
 21 25  2  0  0  0  0
 24 26  1  0  0  0  0
 26 27  1  0  0  0  0
 27 28  2  0  0  0  0
 28 29  1  0  0  0  0
 29 30  2  0  0  0  0
 30 31  1  0  0  0  0
 31 26  2  0  0  0  0
 31 32  1  0  0  0  0
 32 33  2  0  0  0  0
 33 34  1  0  0  0  0
 34 35  2  0  0  0  0
 35 30  1  0  0  0  0
  7 36  1  0  0  0  0
  7 37  1  0  0  0  0
  8 38  1  0  0  0  0
 10 39  1  0  0  0  0
 10 40  1  0  0  0  0
 11 41  1  0  0  0  0
 11 42  1  0  0  0  0
 12 43  1  0  0  0  0
 12 44  1  0  0  0  0
 14 45  1  0  0  0  0
 15 46  1  0  0  0  0
 18 47  1  0  0  0  0
 19 48  1  0  0  0  0
 20 49  1  0  0  0  0
 20 50  1  0  0  0  0
 28 51  1  0  0  0  0
 29 52  1  0  0  0  0
 32 53  1  0  0  0  0
 33 54  1  0  0  0  0
 34 55  1  0  0  0  0
 35 56  1  0  0  0  0
M  END
>  <result-rank>
20

>  <similarity>
0.877

>  <query-name>


>  <query-smiles>
S(=O)(=O)(NC(=O)C)c1ccc(cc1)C=2N3C(=NC(=C3)COc4nc5c(cc4)cccc5)C(=NC2)N6CCOCC6

>  <source>
REALspace_2019-12

>  <similarity-descriptor>
0.982;0.956;0.767;0.739;0.999;0.999;0.0;0.0;0.0;0.0;0.767;0.767;0.0

>  <similarity-descriptor-smiles>
c1ccc(cc1)F;CC1CCCO1;C1=NC=NO1;S(C=1NC=NN1)C;c1ccccn1;c1ccccc1;;;;;C1=NC=NO1;C1=NC=NO1;

>  <reaction-name>
s_265764

>  <reagent1-name>
4903266

>  <reagent1-smiles>
[R1*]=NC(=NO[R2*])c1nccc2c1cccc2

>  <reagent2-name>
4559916

>  <reagent2-smiles>
[R1*]C([R2*])CSC1=NN=C(N1CC2OCCC2)c3ccc(F)cc3

$$$$
s_46____548782____14048698____12430982
          04022017313D 1   1.00000     0.00000     0
            
 55 59  0  0  0  0            999 V2000
    4.3765    2.3441    2.4956 S   0  0  0  0  0  0  0  0  0  0  0  0
    3.1474    3.5639    2.5524 C   0  0  0  0  0  0  0  0  0  0  0  0
    1.9137    2.9173    2.5293 N   0  0  0  0  0  0  0  0  0  0  0  0
    1.9586    1.5243    2.4686 C   0  0  0  0  0  0  0  0  0  0  0  0
    0.9613    0.8205    2.4494 O   0  0  0  0  0  0  0  0  0  0  0  0
    3.2995    0.9851    2.4289 C   0  0  0  0  0  0  0  0  0  0  0  0
    3.6456   -0.2893    2.3577 C   0  0  0  0  0  0  0  0  0  0  0  0
    3.6170   -0.9780    1.0823 C   0  0  0  0  0  0  0  0  0  0  0  0
    3.9834   -2.3183    1.0215 C   0  0  0  0  0  0  0  0  0  0  0  0
    3.9516   -2.9671   -0.2082 C   0  0  0  0  0  0  0  0  0  0  0  0
    4.3001   -4.2481   -0.2806 F   0  0  0  0  0  0  0  0  0  0  0  0
    3.5617   -2.2966   -1.3626 C   0  0  0  0  0  0  0  0  0  0  0  0
    3.1993   -0.9566   -1.2742 C   0  0  0  0  0  0  0  0  0  0  0  0
    2.8051   -0.2754   -2.4317 N   0  3  0  0  0  0  0  0  0  0  0  0
    2.4849    0.9002   -2.3685 O   0  5  0  0  0  0  0  0  0  0  0  0
    2.7819   -0.8524   -3.4950 O   0  0  0  0  0  0  0  0  0  0  0  0
    3.2227   -0.2848   -0.0569 C   0  0  0  0  0  0  0  0  0  0  0  0
    0.6577    3.6785    2.5692 C   0  0  0  0  0  0  0  0  0  0  0  0
    0.3454    4.2157    1.1789 C   0  0  0  0  0  0  0  0  0  0  0  0
   -0.4116    3.4773    0.2747 C   0  0  0  0  0  0  0  0  0  0  0  0
   -0.6752    3.9740   -0.9437 N   0  0  0  0  0  0  0  0  0  0  0  0
   -0.2267    5.1792   -1.3279 C   0  0  0  0  0  0  0  0  0  0  0  0
    0.5048    5.9068   -0.4704 N   0  0  0  0  0  0  0  0  0  0  0  0
    0.8011    5.4627    0.7606 C   0  0  0  0  0  0  0  0  0  0  0  0
   -0.5245    5.6964   -2.6497 C   0  0  0  0  0  0  0  0  0  0  0  0
   -0.0474    6.9485   -3.0234 C   0  0  0  0  0  0  0  0  0  0  0  0
   -0.3361    7.4411   -4.2919 C   0  0  0  0  0  0  0  0  0  0  0  0
   -1.0955    6.6825   -5.1764 C   0  0  0  0  0  0  0  0  0  0  0  0
   -1.5664    5.4329   -4.7925 C   0  0  0  0  0  0  0  0  0  0  0  0
   -1.2851    4.9294   -3.5266 C   0  0  0  0  0  0  0  0  0  0  0  0
    3.3477    4.8665    2.6124 C   0  0  0  0  0  0  0  0  0  0  0  0
    3.2378    5.5918    3.9437 C   0  0  0  0  0  0  0  0  0  0  0  0
    2.9688    4.9796    4.9401 O   0  0  0  0  0  0  0  0  0  0  0  0
    3.4687    7.0932    4.0128 C   0  0  0  0  0  0  0  0  0  0  0  0
    4.8516    7.4462    3.5486 C   0  0  0  0  0  0  0  0  0  0  0  0
    4.5240    7.4657    5.0141 C   0  0  0  0  0  0  0  0  0  0  0  0
    3.9270   -0.7779    3.1835 H   0  0  0  0  0  0  0  0  0  0  0  0
    4.2649   -2.8068    1.8474 H   0  0  0  0  0  0  0  0  0  0  0  0
    3.5423   -2.7707   -2.2429 H   0  0  0  0  0  0  0  0  0  0  0  0
    2.9609    0.6788   -0.0018 H   0  0  0  0  0  0  0  0  0  0  0  0
    0.7507    4.4419    3.2084 H   0  0  0  0  0  0  0  0  0  0  0  0
   -0.0851    3.0804    2.8700 H   0  0  0  0  0  0  0  0  0  0  0  0
   -0.7594    2.5760    0.5330 H   0  0  0  0  0  0  0  0  0  0  0  0
    1.3493    6.0275    1.3774 H   0  0  0  0  0  0  0  0  0  0  0  0
    0.4991    7.4904   -2.3849 H   0  0  0  0  0  0  0  0  0  0  0  0
    0.0024    8.3407   -4.5678 H   0  0  0  0  0  0  0  0  0  0  0  0
   -1.3025    7.0363   -6.0885 H   0  0  0  0  0  0  0  0  0  0  0  0
   -2.1121    4.8910   -5.4316 H   0  0  0  0  0  0  0  0  0  0  0  0
   -1.6244    4.0300   -3.2511 H   0  0  0  0  0  0  0  0  0  0  0  0
    3.5719    5.3766    1.7821 H   0  0  0  0  0  0  0  0  0  0  0  0
    2.7105    7.7204    3.8347 H   0  0  0  0  0  0  0  0  0  0  0  0
    5.0114    8.3043    3.0606 H   0  0  0  0  0  0  0  0  0  0  0  0
    5.4517    6.7363    3.1799 H   0  0  0  0  0  0  0  0  0  0  0  0
    4.9056    6.7687    5.6212 H   0  0  0  0  0  0  0  0  0  0  0  0
    4.4653    8.3367    5.5019 H   0  0  0  0  0  0  0  0  0  0  0  0
  1  2  1  0  0  0  0
  2  3  1  0  0  0  0
  3  4  1  0  0  0  0
  4  5  2  0  0  0  0
  4  6  1  0  0  0  0
  6  1  1  0  0  0  0
  6  7  2  0  0  0  0
  7  8  1  0  0  0  0
  8  9  1  0  0  0  0
  9 10  2  0  0  0  0
 10 11  1  0  0  0  0
 10 12  1  0  0  0  0
 12 13  2  0  0  0  0
 13 14  1  0  0  0  0
 14 15  1  0  0  0  0
 14 16  2  0  0  0  0
 13 17  1  0  0  0  0
 17  8  2  0  0  0  0
  3 18  1  0  0  0  0
 18 19  1  0  0  0  0
 19 20  1  0  0  0  0
 20 21  2  0  0  0  0
 21 22  1  0  0  0  0
 22 23  2  0  0  0  0
 23 24  1  0  0  0  0
 24 19  2  0  0  0  0
 22 25  1  0  0  0  0
 25 26  1  0  0  0  0
 26 27  2  0  0  0  0
 27 28  1  0  0  0  0
 28 29  2  0  0  0  0
 29 30  1  0  0  0  0
 30 25  2  0  0  0  0
  2 31  2  0  0  0  0
 31 32  1  0  0  0  0
 32 33  2  0  0  0  0
 32 34  1  0  0  0  0
 34 35  1  0  0  0  0
 35 36  1  0  0  0  0
 36 34  1  0  0  0  0
  7 37  1  0  0  0  0
  9 38  1  0  0  0  0
 12 39  1  0  0  0  0
 17 40  1  0  0  0  0
 18 41  1  0  0  0  0
 18 42  1  0  0  0  0
 20 43  1  0  0  0  0
 24 44  1  0  0  0  0
 26 45  1  0  0  0  0
 27 46  1  0  0  0  0
 28 47  1  0  0  0  0
 29 48  1  0  0  0  0
 30 49  1  0  0  0  0
 31 50  1  0  0  0  0
 34 51  1  0  0  0  0
 35 52  1  0  0  0  0
 35 53  1  0  0  0  0
 36 54  1  0  0  0  0
 36 55  1  0  0  0  0
M  CHG  2  14   1  15  -1
M  END
>  <result-rank>
21

>  <similarity>
0.877

>  <query-name>


>  <query-smiles>
S(=O)(=O)(NC(=O)C)c1ccc(cc1)C=2N3C(=NC(=C3)COc4nc5c(cc4)cccc5)C(=NC2)N6CCOCC6

>  <source>
REALspace_2019-12

>  <similarity-descriptor>
0.909;0.885;0.732;0.732;0.971;0.942;0.975;0.0;0.0;0.0;1.000;0.971;0.0

>  <similarity-descriptor-smiles>
Cc1cccc(c1)F;CC(=O)C1CC1;S1CC(NC1)=O;S1CC(NC1)=O;c1cncnc1;c1ccccc1;[N+]([O-])=O;;;;C;c1cncnc1;

>  <reaction-name>
s_46

>  <reagent1-name>
548782

>  <reagent1-smiles>
[R3*]=C1SC(N([R1*])C1=O)=CC(=O)C2CC2

>  <reagent2-name>
14048698

>  <reagent2-smiles>
[R3*]=Cc1cc(F)cc([N+]([O-])=O)c1

>  <reagent3-name>
12430982

>  <reagent3-smiles>
[R1*]Cc1cnc(nc1)c2ccccc2

$$$$
s_265764____4903266____4564808
          04022017313D 1   1.00000     0.00000     0
            
 50 56  0  0  0  0            999 V2000
    1.3505   -0.2484    0.4642 F   0  0  0  0  0  0  0  0  0  0  0  0
    0.4855   -0.1011    1.4638 C   0  0  0  0  0  0  0  0  0  0  0  0
    0.7670    0.7796    2.5041 C   0  0  0  0  0  0  0  0  0  0  0  0
    2.0059    1.5375    2.4987 C   0  0  0  0  0  0  0  0  0  0  0  0
    2.0536    2.8840    2.4950 N   0  0  0  0  0  0  0  0  0  0  0  0
    3.1970    3.5978    2.4935 C   0  0  0  0  0  0  0  0  0  0  0  0
    3.4982    4.8807    2.4805 O   0  0  0  0  0  0  0  0  0  0  0  0
    4.7434    5.0949    2.4928 N   0  0  0  0  0  0  0  0  0  0  0  0
    5.3692    3.9493    2.5053 C   0  0  0  0  0  0  0  0  0  0  0  0
    4.3921    2.9313    2.4970 C   0  0  0  0  0  0  0  0  0  0  0  0
    4.3886    1.5360    2.4984 C   0  0  0  0  0  0  0  0  0  0  0  0
    3.1969    0.8212    2.5003 C   0  0  0  0  0  0  0  0  0  0  0  0
    5.6123    0.7575    2.5000 C   0  0  0  0  0  0  0  0  0  0  0  0
    6.5427    0.7971    3.4226 O   0  0  0  0  0  0  0  0  0  0  0  0
    7.4751   -0.0061    3.1192 N   0  0  0  0  0  0  0  0  0  0  0  0
    7.1735   -0.5910    1.9837 C   0  0  0  0  0  0  0  0  0  0  0  0
    5.9725   -0.1007    1.5797 N   0  0  0  0  0  0  0  0  0  0  0  0
    7.9776   -1.5781    1.2867 C   0  0  0  0  0  0  0  0  0  0  0  0
    7.3515   -2.6725    0.8284 N   0  0  0  0  0  0  0  0  0  0  0  0
    8.0084   -3.6404    0.1718 C   0  0  0  0  0  0  0  0  0  0  0  0
    9.3769   -3.5387   -0.0573 C   0  0  0  0  0  0  0  0  0  0  0  0
   10.0523   -2.4141    0.4071 C   0  0  0  0  0  0  0  0  0  0  0  0
    9.3502   -1.4232    1.0858 C   0  0  0  0  0  0  0  0  0  0  0  0
   10.0589   -0.3116    1.5359 C   0  0  0  0  0  0  0  0  0  0  0  0
   11.4266   -0.1733    1.3240 C   0  0  0  0  0  0  0  0  0  0  0  0
   12.1081   -1.1767    0.6429 C   0  0  0  0  0  0  0  0  0  0  0  0
   11.4211   -2.2965    0.1849 C   0  0  0  0  0  0  0  0  0  0  0  0
    6.8800    3.7778    2.5227 C   0  0  0  0  0  0  0  0  0  0  0  0
    7.5430    4.9248    3.2278 C   0  0  0  0  0  0  0  0  0  0  0  0
    7.5869    4.8386    1.7291 C   0  0  0  0  0  0  0  0  0  0  0  0
   -0.1373    0.9333    3.5490 C   0  0  0  0  0  0  0  0  0  0  0  0
   -1.3243    0.2081    3.5539 C   0  0  0  0  0  0  0  0  0  0  0  0
   -1.6059   -0.6722    2.5139 C   0  0  0  0  0  0  0  0  0  0  0  0
   -0.7013   -0.8262    1.4690 C   0  0  0  0  0  0  0  0  0  0  0  0
    3.1963   -0.1788    2.5028 H   0  0  0  0  0  0  0  0  0  0  0  0
    7.5096   -4.4427   -0.1563 H   0  0  0  0  0  0  0  0  0  0  0  0
    9.8663   -4.2605   -0.5466 H   0  0  0  0  0  0  0  0  0  0  0  0
    9.5692    0.4091    2.0266 H   0  0  0  0  0  0  0  0  0  0  0  0
   11.9125    0.6351    1.6562 H   0  0  0  0  0  0  0  0  0  0  0  0
   13.0916   -1.0932    0.4826 H   0  0  0  0  0  0  0  0  0  0  0  0
   11.9114   -3.0177   -0.3046 H   0  0  0  0  0  0  0  0  0  0  0  0
    7.2745    2.8611    2.5873 H   0  0  0  0  0  0  0  0  0  0  0  0
    8.3741    4.7703    3.7620 H   0  0  0  0  0  0  0  0  0  0  0  0
    6.9870    5.6273    3.6721 H   0  0  0  0  0  0  0  0  0  0  0  0
    7.0599    5.4835    1.1755 H   0  0  0  0  0  0  0  0  0  0  0  0
    8.4471    4.6265    1.2653 H   0  0  0  0  0  0  0  0  0  0  0  0
    0.0656    1.5653    4.2970 H   0  0  0  0  0  0  0  0  0  0  0  0
   -1.9752    0.3194    4.3049 H   0  0  0  0  0  0  0  0  0  0  0  0
   -2.4589   -1.1942    2.5179 H   0  0  0  0  0  0  0  0  0  0  0  0
   -0.9042   -1.4584    0.7212 H   0  0  0  0  0  0  0  0  0  0  0  0
  1  2  1  0  0  0  0
  2  3  1  0  0  0  0
  3  4  1  0  0  0  0
  4  5  1  0  0  0  0
  5  6  2  0  0  0  0
  6  7  1  0  0  0  0
  7  8  1  0  0  0  0
  8  9  2  0  0  0  0
  9 10  1  0  0  0  0
 10  6  1  0  0  0  0
 10 11  2  0  0  0  0
 11 12  1  0  0  0  0
 12  4  2  0  0  0  0
 11 13  1  0  0  0  0
 13 14  1  0  0  0  0
 14 15  1  0  0  0  0
 15 16  2  0  0  0  0
 16 17  1  0  0  0  0
 13 17  2  0  0  0  0
 16 18  1  0  0  0  0
 18 19  1  0  0  0  0
 19 20  2  0  0  0  0
 20 21  1  0  0  0  0
 21 22  2  0  0  0  0
 22 23  1  0  0  0  0
 23 18  2  0  0  0  0
 23 24  1  0  0  0  0
 24 25  2  0  0  0  0
 25 26  1  0  0  0  0
 26 27  2  0  0  0  0
 27 22  1  0  0  0  0
  9 28  1  0  0  0  0
 28 29  1  0  0  0  0
 29 30  1  0  0  0  0
 30 28  1  0  0  0  0
  3 31  2  0  0  0  0
 31 32  1  0  0  0  0
 32 33  2  0  0  0  0
 33 34  1  0  0  0  0
 34  2  2  0  0  0  0
 12 35  1  0  0  0  0
 20 36  1  0  0  0  0
 21 37  1  0  0  0  0
 24 38  1  0  0  0  0
 25 39  1  0  0  0  0
 26 40  1  0  0  0  0
 27 41  1  0  0  0  0
 28 42  1  0  0  0  0
 29 43  1  0  0  0  0
 29 44  1  0  0  0  0
 30 45  1  0  0  0  0
 30 46  1  0  0  0  0
 31 47  1  0  0  0  0
 32 48  1  0  0  0  0
 33 49  1  0  0  0  0
 34 50  1  0  0  0  0
M  END
>  <result-rank>
22

>  <similarity>
0.877

>  <query-name>


>  <query-smiles>
S(=O)(=O)(NC(=O)C)c1ccc(cc1)C=2N3C(=NC(=C3)COc4nc5c(cc4)cccc5)C(=NC2)N6CCOCC6

>  <source>
REALspace_2019-12

>  <similarity-descriptor>
0.982;0.751;0.767;0.963;0.999;0.999;0.0;0.0;0.0;0.0;0.767;0.767;0.0

>  <similarity-descriptor-smiles>
Fc1ccccc1;c1cC(=NO1)C2CC2;C1=NC=NO1;c1ccccn1;c1ccccn1;c1ccccc1;;;;;C1=NC=NO1;C1=NC=NO1;

>  <reaction-name>
s_265764

>  <reagent1-name>
4903266

>  <reagent1-smiles>
[R1*]=NC(=NO[R2*])c1nccc2c1cccc2

>  <reagent2-name>
4564808

>  <reagent2-smiles>
[R1*]C([R2*])c1c2c(ON=C2C3CC3)nc(c4c(F)cccc4)c1

$$$$
m_274972____12934192____12615770____13046836
          04022017313D 1   1.00000     0.00000     0
            
 48 52  0  0  0  0            999 V2000
   10.2247    1.6719    2.3661 S   0  0  0  0  0  0  0  0  0  0  0  0
   10.8020    2.8102    3.0328 O   0  0  0  0  0  0  0  0  0  0  0  0
   10.6267    0.4653    3.0415 O   0  0  0  0  0  0  0  0  0  0  0  0
   10.7414    1.6275    0.8208 N   0  0  0  0  0  0  0  0  0  0  0  0
   12.2071    1.5178    0.7972 C   0  0  0  0  0  0  0  0  0  0  0  0
    8.4200    1.8069    2.3952 C   0  0  0  0  0  0  0  0  0  0  0  0
    7.6437    0.6529    2.4108 C   0  0  0  0  0  0  0  0  0  0  0  0
    6.2577    0.7683    2.4333 C   0  0  0  0  0  0  0  0  0  0  0  0
    5.6642    2.0267    2.4390 C   0  0  0  0  0  0  0  0  0  0  0  0
    6.4448    3.1781    2.4235 C   0  0  0  0  0  0  0  0  0  0  0  0
    7.8313    3.0673    2.4012 C   0  0  0  0  0  0  0  0  0  0  0  0
    4.2182    2.1329    2.4615 C   0  0  0  0  0  0  0  0  0  0  0  0
    3.3303    3.5831    2.4714 S   0  0  0  0  0  0  0  0  0  0  0  0
    1.7841    2.8690    2.4950 C   0  0  0  0  0  0  0  0  0  0  0  0
    2.0375    1.5302    2.4908 C   0  0  0  0  0  0  0  0  0  0  0  0
    3.3498    1.1464    2.4729 N   0  0  0  0  0  0  0  0  0  0  0  0
    0.9118    0.6170    2.5150 C   0  0  0  0  0  0  0  0  0  0  0  0
   -0.4029    0.9692    2.5332 N   0  0  0  0  0  0  0  0  0  0  0  0
   -1.0790   -0.0974    2.5525 N   0  0  0  0  0  0  0  0  0  0  0  0
   -0.3062   -1.1554    2.5502 N   0  0  0  0  0  0  0  0  0  0  0  0
    0.9871   -0.7420    2.5276 C   0  0  0  0  0  0  0  0  0  0  0  0
   -0.7634   -2.5524    2.5709 C   0  0  0  0  0  0  0  0  0  0  0  0
   -0.9440   -3.0476    1.1451 C   0  0  0  0  0  0  0  0  0  0  0  0
   -0.0382   -3.6290    0.3997 N   0  0  0  0  0  0  0  0  0  0  0  0
   -0.5278   -3.9149   -0.7388 O   0  0  0  0  0  0  0  0  0  0  0  0
   -1.7816   -3.5424   -0.8105 C   0  0  0  0  0  0  0  0  0  0  0  0
   -2.6566   -3.7106   -1.9573 C   0  0  0  0  0  0  0  0  0  0  0  0
   -3.9173   -3.3370   -2.0316 O   0  0  0  0  0  0  0  0  0  0  0  0
   -4.4238   -3.6452   -3.2037 C   0  0  0  0  0  0  0  0  0  0  0  0
   -3.4478   -4.2530   -3.9349 C   0  0  0  0  0  0  0  0  0  0  0  0
   -2.2874   -4.3013   -3.1288 C   0  0  0  0  0  0  0  0  0  0  0  0
   -2.1206   -2.9713    0.3730 C   0  0  0  0  0  0  0  0  0  0  0  0
   10.4622    2.4654    0.3518 H   0  0  0  0  0  0  0  0  0  0  0  0
   12.5241    1.4906   -0.1508 H   0  0  0  0  0  0  0  0  0  0  0  0
   12.6080    2.3083    1.2602 H   0  0  0  0  0  0  0  0  0  0  0  0
   12.4863    0.6799    1.2662 H   0  0  0  0  0  0  0  0  0  0  0  0
    8.0766   -0.2485    2.4058 H   0  0  0  0  0  0  0  0  0  0  0  0
    5.6878   -0.0533    2.4453 H   0  0  0  0  0  0  0  0  0  0  0  0
    6.0120    4.0795    2.4284 H   0  0  0  0  0  0  0  0  0  0  0  0
    8.4014    3.8888    2.3896 H   0  0  0  0  0  0  0  0  0  0  0  0
    0.8951    3.3268    2.5089 H   0  0  0  0  0  0  0  0  0  0  0  0
    1.8107   -1.3092    2.5215 H   0  0  0  0  0  0  0  0  0  0  0  0
   -1.6355   -2.6105    3.0569 H   0  0  0  0  0  0  0  0  0  0  0  0
   -0.0837   -3.1187    3.0369 H   0  0  0  0  0  0  0  0  0  0  0  0
   -5.3600   -3.4656   -3.5059 H   0  0  0  0  0  0  0  0  0  0  0  0
   -3.5359   -4.6005   -4.8685 H   0  0  0  0  0  0  0  0  0  0  0  0
   -1.3943   -4.6838   -3.3655 H   0  0  0  0  0  0  0  0  0  0  0  0
   -3.0041   -2.5844    0.6371 H   0  0  0  0  0  0  0  0  0  0  0  0
  1  2  2  0  0  0  0
  1  3  2  0  0  0  0
  1  4  1  0  0  0  0
  4  5  1  0  0  0  0
  1  6  1  0  0  0  0
  6  7  1  0  0  0  0
  7  8  2  0  0  0  0
  8  9  1  0  0  0  0
  9 10  2  0  0  0  0
 10 11  1  0  0  0  0
 11  6  2  0  0  0  0
  9 12  1  0  0  0  0
 12 13  1  0  0  0  0
 13 14  1  0  0  0  0
 14 15  2  0  0  0  0
 15 16  1  0  0  0  0
 12 16  2  0  0  0  0
 15 17  1  0  0  0  0
 17 18  1  0  0  0  0
 18 19  2  0  0  0  0
 19 20  1  0  0  0  0
 20 21  1  0  0  0  0
 17 21  2  0  0  0  0
 20 22  1  0  0  0  0
 22 23  1  0  0  0  0
 23 24  2  0  0  0  0
 24 25  1  0  0  0  0
 25 26  1  0  0  0  0
 26 27  1  0  0  0  0
 27 28  1  0  0  0  0
 28 29  1  0  0  0  0
 29 30  2  0  0  0  0
 30 31  1  0  0  0  0
 27 31  2  0  0  0  0
 26 32  2  0  0  0  0
 32 23  1  0  0  0  0
  4 33  1  0  0  0  0
  5 34  1  0  0  0  0
  5 35  1  0  0  0  0
  5 36  1  0  0  0  0
  7 37  1  0  0  0  0
  8 38  1  0  0  0  0
 10 39  1  0  0  0  0
 11 40  1  0  0  0  0
 14 41  1  0  0  0  0
 21 42  1  0  0  0  0
 22 43  1  0  0  0  0
 22 44  1  0  0  0  0
 29 45  1  0  0  0  0
 30 46  1  0  0  0  0
 31 47  1  0  0  0  0
 32 48  1  0  0  0  0
M  END
>  <result-rank>
23

>  <similarity>
0.877

>  <query-name>


>  <query-smiles>
S(=O)(=O)(NC(=O)C)c1ccc(cc1)C=2N3C(=NC(=C3)COc4nc5c(cc4)cccc5)C(=NC2)N6CCOCC6

>  <source>
REALspace_2019-12

>  <similarity-descriptor>
1.000;0.0;0.832;0.976;0.882;0.809;1.000;0.733;0.733;0.733;0.999;0.882;0.0

>  <similarity-descriptor-smiles>
c1ccccc1;;C1=CNN=N1;C1=NC=CS1;C=1C=CON1;C1=CC=CO1;S(=O)=O;NC;NC;NC;C;C=1C=CON1;

>  <reaction-name>
m_274972

>  <reagent1-name>
12934192

>  <reagent1-smiles>
[R1*]SC(=N[R2*])c1ccc(S(=O)(=O)NC)cc1

>  <reagent2-name>
12615770

>  <reagent2-smiles>
[R2*]C(C([R3*])=C[R4*])=C[R1*]

>  <reagent3-name>
13046836

>  <reagent3-smiles>
[R3*]N=NN([R4*])CC1=NOC(C=2OC=CC2)=C1

$$$$
s_11a____2263250____1723716
          04022017313D 1   1.00000     0.00000     0
            
 58 61  0  0  0  0            999 V2000
   -2.5891   -2.2013    2.5952 S   0  0  0  0  0  0  0  0  0  0  0  0
   -3.7158   -1.5913    1.9379 O   0  0  0  0  0  0  0  0  0  0  0  0
   -2.2359   -3.4186    1.9118 O   0  0  0  0  0  0  0  0  0  0  0  0
   -2.9798   -2.5399    4.1411 N   0  0  0  0  0  0  0  0  0  0  0  0
   -3.3404   -1.2973    4.8388 C   0  0  0  0  0  0  0  0  0  0  0  0
   -2.9884   -1.4230    6.3121 C   0  0  0  0  0  0  0  0  0  0  0  0
   -4.1218   -3.4652    4.1664 C   0  0  0  0  0  0  0  0  0  0  0  0
   -3.6136   -4.8976    4.1593 C   0  0  0  0  0  0  0  0  0  0  0  0
   -1.2375   -1.1062    2.5652 C   0  0  0  0  0  0  0  0  0  0  0  0
   -1.4635    0.2662    2.5668 C   0  0  0  0  0  0  0  0  0  0  0  0
   -0.3757    1.1326    2.5428 C   0  0  0  0  0  0  0  0  0  0  0  0
    0.9190    0.6236    2.5168 C   0  0  0  0  0  0  0  0  0  0  0  0
    1.1401   -0.7499    2.5155 C   0  0  0  0  0  0  0  0  0  0  0  0
    0.0550   -1.6201    2.5396 C   0  0  0  0  0  0  0  0  0  0  0  0
    2.0377    1.5325    2.4911 C   0  0  0  0  0  0  0  0  0  0  0  0
    3.3528    1.1511    2.4644 N   0  0  0  0  0  0  0  0  0  0  0  0
    4.2262    2.1265    2.4440 C   0  0  0  0  0  0  0  0  0  0  0  0
    3.3287    3.5724    2.4687 S   0  0  0  0  0  0  0  0  0  0  0  0
    1.7793    2.8660    2.4982 C   0  0  0  0  0  0  0  0  0  0  0  0
    5.6199    2.0170    2.4168 N   0  0  0  0  0  0  0  0  0  0  0  0
    6.2169    1.0613    1.6377 C   0  0  0  0  0  0  0  0  0  0  0  0
    5.6128    0.5669    0.7263 O   0  0  0  0  0  0  0  0  0  0  0  0
    7.6444    0.6272    1.9276 C   0  0  0  0  0  0  0  0  0  0  0  0
    7.6317   -0.5022    2.8717 N   0  0  0  0  0  0  0  0  0  0  0  0
    7.5799   -1.8117    2.4514 C   0  0  0  0  0  0  0  0  0  0  0  0
    7.5691   -2.8505    3.3800 C   0  0  0  0  0  0  0  0  0  0  0  0
    7.5130   -4.1716    2.9414 C   0  0  0  0  0  0  0  0  0  0  0  0
    7.4687   -4.4949    1.5898 C   0  0  0  0  0  0  0  0  0  0  0  0
    7.4810   -3.4664    0.6538 C   0  0  0  0  0  0  0  0  0  0  0  0
    7.5353   -2.1498    1.0988 C   0  0  0  0  0  0  0  0  0  0  0  0
    7.6142   -2.5287    4.7663 C   0  0  0  0  0  0  0  0  0  0  0  0
    7.6084   -3.3827    5.6399 O   0  0  0  0  0  0  0  0  0  0  0  0
    7.6672   -1.1668    5.1676 C   0  0  0  0  0  0  0  0  0  0  0  0
    7.6746   -0.1892    4.2061 C   0  0  0  0  0  0  0  0  0  0  0  0
   -4.3224   -1.1343    4.7434 H   0  0  0  0  0  0  0  0  0  0  0  0
   -2.8353   -0.5322    4.4395 H   0  0  0  0  0  0  0  0  0  0  0  0
   -3.2337   -0.5777    6.7867 H   0  0  0  0  0  0  0  0  0  0  0  0
   -3.4936   -2.1881    6.7114 H   0  0  0  0  0  0  0  0  0  0  0  0
   -2.0064   -1.5859    6.4075 H   0  0  0  0  0  0  0  0  0  0  0  0
   -4.6941   -3.3105    3.3611 H   0  0  0  0  0  0  0  0  0  0  0  0
   -4.6608   -3.3068    4.9938 H   0  0  0  0  0  0  0  0  0  0  0  0
   -4.3904   -5.5271    4.1765 H   0  0  0  0  0  0  0  0  0  0  0  0
   -3.0746   -5.0560    3.3320 H   0  0  0  0  0  0  0  0  0  0  0  0
   -3.0413   -5.0523    4.9646 H   0  0  0  0  0  0  0  0  0  0  0  0
   -2.3966    0.6255    2.5849 H   0  0  0  0  0  0  0  0  0  0  0  0
   -0.5241    2.1216    2.5443 H   0  0  0  0  0  0  0  0  0  0  0  0
    2.0731   -1.1093    2.4973 H   0  0  0  0  0  0  0  0  0  0  0  0
    0.2032   -2.6090    2.5385 H   0  0  0  0  0  0  0  0  0  0  0  0
    0.8906    3.3240    2.5164 H   0  0  0  0  0  0  0  0  0  0  0  0
    6.1809    2.6363    2.9662 H   0  0  0  0  0  0  0  0  0  0  0  0
    8.0864    0.3449    1.0762 H   0  0  0  0  0  0  0  0  0  0  0  0
    8.1502    1.3910    2.3285 H   0  0  0  0  0  0  0  0  0  0  0  0
    7.5045   -4.9081    3.6177 H   0  0  0  0  0  0  0  0  0  0  0  0
    7.4287   -5.4500    1.2960 H   0  0  0  0  0  0  0  0  0  0  0  0
    7.4513   -3.6704   -0.3247 H   0  0  0  0  0  0  0  0  0  0  0  0
    7.5428   -1.4148    0.4208 H   0  0  0  0  0  0  0  0  0  0  0  0
    7.6987   -0.9246    6.1374 H   0  0  0  0  0  0  0  0  0  0  0  0
    7.7121    0.7709    4.4834 H   0  0  0  0  0  0  0  0  0  0  0  0
  1  2  2  0  0  0  0
  1  3  2  0  0  0  0
  1  4  1  0  0  0  0
  4  5  1  0  0  0  0
  5  6  1  0  0  0  0
  4  7  1  0  0  0  0
  7  8  1  0  0  0  0
  1  9  1  0  0  0  0
  9 10  1  0  0  0  0
 10 11  2  0  0  0  0
 11 12  1  0  0  0  0
 12 13  2  0  0  0  0
 13 14  1  0  0  0  0
 14  9  2  0  0  0  0
 12 15  1  0  0  0  0
 15 16  1  0  0  0  0
 16 17  2  0  0  0  0
 17 18  1  0  0  0  0
 18 19  1  0  0  0  0
 15 19  2  0  0  0  0
 17 20  1  0  0  0  0
 20 21  1  0  0  0  0
 21 22  2  0  0  0  0
 21 23  1  0  0  0  0
 23 24  1  0  0  0  0
 24 25  1  0  0  0  0
 25 26  1  0  0  0  0
 26 27  2  0  0  0  0
 27 28  1  0  0  0  0
 28 29  2  0  0  0  0
 29 30  1  0  0  0  0
 30 25  2  0  0  0  0
 26 31  1  0  0  0  0
 31 32  2  0  0  0  0
 31 33  1  0  0  0  0
 33 34  2  0  0  0  0
 34 24  1  0  0  0  0
  5 35  1  0  0  0  0
  5 36  1  0  0  0  0
  6 37  1  0  0  0  0
  6 38  1  0  0  0  0
  6 39  1  0  0  0  0
  7 40  1  0  0  0  0
  7 41  1  0  0  0  0
  8 42  1  0  0  0  0
  8 43  1  0  0  0  0
  8 44  1  0  0  0  0
 10 45  1  0  0  0  0
 11 46  1  0  0  0  0
 13 47  1  0  0  0  0
 14 48  1  0  0  0  0
 19 49  1  0  0  0  0
 20 50  1  0  0  0  0
 23 51  1  0  0  0  0
 23 52  1  0  0  0  0
 27 53  1  0  0  0  0
 28 54  1  0  0  0  0
 29 55  1  0  0  0  0
 30 56  1  0  0  0  0
 33 57  1  0  0  0  0
 34 58  1  0  0  0  0
M  END
>  <result-rank>
24

>  <similarity>
0.876

>  <query-name>


>  <query-smiles>
S(=O)(=O)(NC(=O)C)c1ccc(cc1)C=2N3C(=NC(=C3)COc4nc5c(cc4)cccc5)C(=NC2)N6CCOCC6

>  <source>
REALspace_2019-12

>  <similarity-descriptor>
1.000;0.0;0.497;0.973;0.998;0.999;1.000;0.555;0.555;1.000;0.999;0.998;0.154

>  <similarity-descriptor-smiles>
c1ccccc1;;NC=O;C1=CSC=N1;N1C=CC(cc1)=O;c1ccccc1;S(=O)=O;NC;NC;C;C;N1C=CC(cc1)=O;C.C

>  <reaction-name>
s_11a

>  <reagent1-name>
2263250

>  <reagent1-smiles>
[R1*]NC=1SC=C(N1)c2ccc(S(=O)(=O)N(CC)CC)cc2

>  <reagent2-name>
1723716

>  <reagent2-smiles>
[R1*]C(=O)CN1c2c(cccc2)C(=O)C=C1

$$$$
m_273170____13187958____10763582____10766558
          04022017313D 1   1.00000     0.00000     0
            
 67 71  0  0  0  0            999 V2000
    7.1615   -2.0524    3.8245 S   0  0  0  0  0  0  0  0  0  0  0  0
    7.5449   -0.9459    4.6626 O   0  0  0  0  0  0  0  0  0  0  0  0
    7.0489   -3.2442    4.6249 O   0  0  0  0  0  0  0  0  0  0  0  0
    8.2911   -2.2773    2.6711 N   0  0  0  0  0  0  0  0  0  0  0  0
    8.4061   -1.0606    1.8541 C   0  0  0  0  0  0  0  0  0  0  0  0
    9.5862   -2.5671    3.3034 C   0  0  0  0  0  0  0  0  0  0  0  0
    5.6287   -1.7094    3.0761 C   0  0  0  0  0  0  0  0  0  0  0  0
    5.1351   -0.4092    3.0844 C   0  0  0  0  0  0  0  0  0  0  0  0
    3.9080   -0.1495    2.4826 C   0  0  0  0  0  0  0  0  0  0  0  0
    3.1781   -1.1688    1.8799 C   0  0  0  0  0  0  0  0  0  0  0  0
    3.6897   -2.4624    1.8823 C   0  0  0  0  0  0  0  0  0  0  0  0
    4.9150   -2.7431    2.4781 C   0  0  0  0  0  0  0  0  0  0  0  0
    3.3905    1.2051    2.4893 C   0  0  0  0  0  0  0  0  0  0  0  0
    4.1071    2.3065    2.4903 N   0  0  0  0  0  0  0  0  0  0  0  0
    3.2789    3.3271    2.4974 N   0  0  0  0  0  0  0  0  0  0  0  0
    2.0315    2.9267    2.5008 C   0  0  0  0  0  0  0  0  0  0  0  0
    2.0806    1.5694    2.4959 N   0  0  0  0  0  0  0  0  0  0  0  0
    0.9245    0.6605    2.4981 C   0  0  0  0  0  0  0  0  0  0  0  0
    0.6097    0.2438    3.9269 C   0  0  0  0  0  0  0  0  0  0  0  0
    1.4512   -0.4170    4.7777 N   0  0  0  0  0  0  0  0  0  0  0  0
    0.7849   -0.5948    5.8989 C   0  0  0  0  0  0  0  0  0  0  0  0
   -0.4225   -0.0652    5.7865 O   0  0  0  0  0  0  0  0  0  0  0  0
   -0.5751    0.4485    4.5802 C   0  0  0  0  0  0  0  0  0  0  0  0
    1.3189   -1.2671    7.0687 C   0  0  0  0  0  0  0  0  0  0  0  0
    0.7907   -0.9887    8.3252 C   0  0  0  0  0  0  0  0  0  0  0  0
    1.3068   -1.6353    9.4431 C   0  0  0  0  0  0  0  0  0  0  0  0
    2.3426   -2.5519    9.2921 C   0  0  0  0  0  0  0  0  0  0  0  0
    2.8687   -2.8316    8.0346 C   0  0  0  0  0  0  0  0  0  0  0  0
    2.3535   -2.1839    6.9166 C   0  0  0  0  0  0  0  0  0  0  0  0
    2.9035   -3.2544   10.5181 C   0  0  0  0  0  0  0  0  0  0  0  0
    0.8788    3.7382    2.5048 N   0  0  0  0  0  0  0  0  0  0  0  0
    0.9154    5.1444    2.9315 C   0  0  0  0  0  0  0  0  0  0  0  0
   -0.4663    5.5153    3.4474 C   0  0  3  0  0  0  0  0  0  0  0  0
   -1.4441    5.4733    2.4133 O   0  0  0  0  0  0  0  0  0  0  0  0
   -1.2521    4.4040    1.4941 C   0  0  0  0  0  0  0  0  0  0  0  0
   -0.4436    3.2526    2.0812 C   0  0  0  0  0  0  0  0  0  0  0  0
   -0.4371    6.9246    4.0173 C   0  0  0  0  0  0  0  0  0  0  0  0
    0.6138    7.0557    4.8218 F   0  0  0  0  0  0  0  0  0  0  0  0
   -0.3464    7.8031    3.0229 F   0  0  0  0  0  0  0  0  0  0  0  0
   -1.5530    7.1477    4.7056 F   0  0  0  0  0  0  0  0  0  0  0  0
    9.0991   -1.1986    1.1465 H   0  0  0  0  0  0  0  0  0  0  0  0
    7.5252   -0.8635    1.4240 H   0  0  0  0  0  0  0  0  0  0  0  0
    8.6723   -0.2922    2.4361 H   0  0  0  0  0  0  0  0  0  0  0  0
   10.2791   -2.7051    2.5958 H   0  0  0  0  0  0  0  0  0  0  0  0
    9.8523   -1.7987    3.8854 H   0  0  0  0  0  0  0  0  0  0  0  0
    9.5079   -3.3948    3.8592 H   0  0  0  0  0  0  0  0  0  0  0  0
    5.6545    0.3281    3.5164 H   0  0  0  0  0  0  0  0  0  0  0  0
    2.2964   -0.9741    1.4501 H   0  0  0  0  0  0  0  0  0  0  0  0
    3.1703   -3.1997    1.4504 H   0  0  0  0  0  0  0  0  0  0  0  0
    5.2777   -3.6750    2.4766 H   0  0  0  0  0  0  0  0  0  0  0  0
    1.1372   -0.1508    1.9535 H   0  0  0  0  0  0  0  0  0  0  0  0
    0.1325    1.1276    2.1049 H   0  0  0  0  0  0  0  0  0  0  0  0
   -1.3919    0.8968    4.2170 H   0  0  0  0  0  0  0  0  0  0  0  0
    0.0458   -0.3289    8.4238 H   0  0  0  0  0  0  0  0  0  0  0  0
    0.9352   -1.4423   10.3512 H   0  0  0  0  0  0  0  0  0  0  0  0
    3.6117   -3.4935    7.9353 H   0  0  0  0  0  0  0  0  0  0  0  0
    2.7250   -2.3765    6.0084 H   0  0  0  0  0  0  0  0  0  0  0  0
    3.6361   -3.8757   10.2403 H   0  0  0  0  0  0  0  0  0  0  0  0
    3.2669   -2.5743   11.1549 H   0  0  0  0  0  0  0  0  0  0  0  0
    2.1765   -3.7751   10.9657 H   0  0  0  0  0  0  0  0  0  0  0  0
    1.1560    5.7281    2.1560 H   0  0  0  0  0  0  0  0  0  0  0  0
    1.5916    5.2608    3.6589 H   0  0  0  0  0  0  0  0  0  0  0  0
   -0.7277    4.8758    4.1704 H   0  0  0  0  0  0  0  0  0  0  0  0
   -0.7696    4.7559    0.6920 H   0  0  0  0  0  0  0  0  0  0  0  0
   -2.1481    4.0562    1.2180 H   0  0  0  0  0  0  0  0  0  0  0  0
   -0.9276    2.8758    2.8710 H   0  0  0  0  0  0  0  0  0  0  0  0
   -0.3297    2.5399    1.3890 H   0  0  0  0  0  0  0  0  0  0  0  0
  1  2  2  0  0  0  0
  1  3  2  0  0  0  0
  1  4  1  0  0  0  0
  4  5  1  0  0  0  0
  4  6  1  0  0  0  0
  1  7  1  0  0  0  0
  7  8  1  0  0  0  0
  8  9  2  0  0  0  0
  9 10  1  0  0  0  0
 10 11  2  0  0  0  0
 11 12  1  0  0  0  0
 12  7  2  0  0  0  0
  9 13  1  0  0  0  0
 13 14  2  0  0  0  0
 14 15  1  0  0  0  0
 15 16  2  0  0  0  0
 16 17  1  0  0  0  0
 17 13  1  0  0  0  0
 17 18  1  0  0  0  0
 18 19  1  0  0  0  0
 19 20  1  0  0  0  0
 20 21  2  0  0  0  0
 21 22  1  0  0  0  0
 22 23  1  0  0  0  0
 19 23  2  0  0  0  0
 21 24  1  0  0  0  0
 24 25  1  0  0  0  0
 25 26  2  0  0  0  0
 26 27  1  0  0  0  0
 27 28  2  0  0  0  0
 28 29  1  0  0  0  0
 29 24  2  0  0  0  0
 27 30  1  0  0  0  0
 16 31  1  0  0  0  0
 31 32  1  0  0  0  0
 32 33  1  0  0  0  0
 33 34  1  0  0  0  0
 34 35  1  0  0  0  0
 35 36  1  0  0  0  0
 36 31  1  0  0  0  0
 33 37  1  0  0  0  0
 37 38  1  0  0  0  0
 37 39  1  0  0  0  0
 37 40  1  0  0  0  0
  5 41  1  0  0  0  0
  5 42  1  0  0  0  0
  5 43  1  0  0  0  0
  6 44  1  0  0  0  0
  6 45  1  0  0  0  0
  6 46  1  0  0  0  0
  8 47  1  0  0  0  0
 10 48  1  0  0  0  0
 11 49  1  0  0  0  0
 12 50  1  0  0  0  0
 18 51  1  0  0  0  0
 18 52  1  0  0  0  0
 23 53  1  0  0  0  0
 25 54  1  0  0  0  0
 26 55  1  0  0  0  0
 28 56  1  0  0  0  0
 29 57  1  0  0  0  0
 30 58  1  0  0  0  0
 30 59  1  0  0  0  0
 30 60  1  0  0  0  0
 32 61  1  0  0  0  0
 32 62  1  0  0  0  0
 33 63  1  0  0  0  0
 35 64  1  0  0  0  0
 35 65  1  0  0  0  0
 36 66  1  0  0  0  0
 36 67  1  0  0  0  0
M  END
>  <result-rank>
25

>  <similarity>
0.876

>  <query-name>


>  <query-smiles>
S(=O)(=O)(NC(=O)C)c1ccc(cc1)C=2N3C(=NC(=C3)COc4nc5c(cc4)cccc5)C(=NC2)N6CCOCC6

>  <source>
REALspace_2019-12

>  <similarity-descriptor>
1.000;0.961;0.637;0.637;0.884;0.984;1.000;0.528;0.528;0.995;0.999;0.884;0.083

>  <similarity-descriptor-smiles>
c1ccccc1;N1CCOC(C1)C(F)(F)F;C=1NC=NN1;C=1NC=NN1;C1=COC=N1;c1ccccc1;S(=O)=O;NC;NC;C;C;C1=COC=N1;C

>  <reaction-name>
m_273170

>  <reagent1-name>
13187958

>  <reagent1-smiles>
[R2*]=C([R1*])N([R3*])CC=1N=C(OC1)c2ccc(cc2)C

>  <reagent2-name>
10763582

>  <reagent2-smiles>
[R1*]N1CC(OCC1)C(F)(F)F

>  <reagent3-name>
10766558

>  <reagent3-smiles>
[R2*]=NN=C([R3*])c1cc(S(=O)(=O)N(C)C)ccc1

$$$$
m_274972____12934092____12615770____13047176
          04022017313D 1   1.00000     0.00000     0
            
 53 58  0  0  0  0            999 V2000
    5.4654   -1.9799    2.3778 S   0  0  0  0  0  0  0  0  0  0  0  0
    3.8152   -2.3901    2.3857 C   0  0  0  0  0  0  0  0  0  0  0  0
    3.1361   -1.2652    2.4150 N   0  0  0  0  0  0  0  0  0  0  0  0
    3.8973   -0.1294    2.4325 C   0  0  0  0  0  0  0  0  0  0  0  0
    3.3679    1.2133    2.4745 C   0  0  0  0  0  0  0  0  0  0  0  0
    4.0997    2.3609    2.4928 N   0  0  0  0  0  0  0  0  0  0  0  0
    3.2864    3.3264    2.5304 N   0  0  0  0  0  0  0  0  0  0  0  0
    2.0449    2.9079    2.5406 N   0  0  0  0  0  0  0  0  0  0  0  0
    2.0495    1.5504    2.5067 C   0  0  0  0  0  0  0  0  0  0  0  0
    0.8508    3.7642    2.5836 C   0  0  0  0  0  0  0  0  0  0  0  0
    0.4146    4.0972    1.1656 C   0  0  0  0  0  0  0  0  0  0  0  0
   -0.5066    3.2531    0.4889 C   0  0  0  0  0  0  0  0  0  0  0  0
   -0.9277    2.2819    1.0540 O   0  0  0  0  0  0  0  0  0  0  0  0
   -0.8953    3.5603   -0.7900 N   0  0  0  0  0  0  0  0  0  0  0  0
   -0.4038    4.6768   -1.4254 C   0  0  0  0  0  0  0  0  0  0  0  0
    0.4991    5.5194   -0.7827 C   0  0  0  0  0  0  0  0  0  0  0  0
    1.0149    6.6550   -1.3979 C   0  0  0  0  0  0  0  0  0  0  0  0
    0.6132    6.9558   -2.6951 C   0  0  0  0  0  0  0  0  0  0  0  0
   -0.2873    6.1395   -3.3712 C   0  0  0  0  0  0  0  0  0  0  0  0
   -0.7810    5.0124   -2.7237 C   0  0  0  0  0  0  0  0  0  0  0  0
    0.9098    5.2115    0.5408 C   0  0  0  0  0  0  0  0  0  0  0  0
   -1.8502    2.6518   -1.4411 C   0  0  0  0  0  0  0  0  0  0  0  0
    5.2502   -0.2907    2.4182 C   0  0  0  0  0  0  0  0  0  0  0  0
    3.2784   -3.7367    2.3590 C   0  0  0  0  0  0  0  0  0  0  0  0
    1.9001   -3.9248    2.3692 C   0  0  0  0  0  0  0  0  0  0  0  0
    1.3976   -5.2214    2.3415 C   0  0  0  0  0  0  0  0  0  0  0  0
    2.2502   -6.3199    2.3049 C   0  0  0  0  0  0  0  0  0  0  0  0
    3.6246   -6.1069    2.2952 C   0  0  0  0  0  0  0  0  0  0  0  0
    4.1503   -4.8197    2.3219 C   0  0  0  0  0  0  0  0  0  0  0  0
   -0.0377   -5.4260    2.3522 C   0  0  0  0  0  0  0  0  0  0  0  0
   -0.6400   -6.5912    2.3290 O   0  0  0  0  0  0  0  0  0  0  0  0
   -1.9301   -6.3519    2.3461 C   0  0  0  0  0  0  0  0  0  0  0  0
   -2.1246   -5.0537    2.3810 N   0  0  0  0  0  0  0  0  0  0  0  0
   -0.9445   -4.4765    2.3854 N   0  0  0  0  0  0  0  0  0  0  0  0
   -2.9862   -7.3743    2.3296 N   0  0  0  0  0  0  0  0  0  0  0  0
    1.2607    0.9357    2.5056 H   0  0  0  0  0  0  0  0  0  0  0  0
    1.0640    4.6092    3.0739 H   0  0  0  0  0  0  0  0  0  0  0  0
    0.1121    3.2825    3.0551 H   0  0  0  0  0  0  0  0  0  0  0  0
    1.6630    7.2449   -0.9162 H   0  0  0  0  0  0  0  0  0  0  0  0
    0.9768    7.7699   -3.1478 H   0  0  0  0  0  0  0  0  0  0  0  0
   -0.5738    6.3587   -4.3038 H   0  0  0  0  0  0  0  0  0  0  0  0
   -1.4287    4.4228   -3.2064 H   0  0  0  0  0  0  0  0  0  0  0  0
    1.5587    5.8061    1.0156 H   0  0  0  0  0  0  0  0  0  0  0  0
   -2.0818    1.9072   -0.8150 H   0  0  0  0  0  0  0  0  0  0  0  0
   -2.6798    3.1561   -1.6807 H   0  0  0  0  0  0  0  0  0  0  0  0
   -1.4384    2.2741   -2.2704 H   0  0  0  0  0  0  0  0  0  0  0  0
    5.9545    0.4191    2.4289 H   0  0  0  0  0  0  0  0  0  0  0  0
    1.2805   -3.1403    2.3961 H   0  0  0  0  0  0  0  0  0  0  0  0
    1.8805   -7.2488    2.2858 H   0  0  0  0  0  0  0  0  0  0  0  0
    4.2442   -6.8914    2.2687 H   0  0  0  0  0  0  0  0  0  0  0  0
    5.1398   -4.6750    2.3146 H   0  0  0  0  0  0  0  0  0  0  0  0
   -3.9478   -7.1002    2.3447 H   0  0  0  0  0  0  0  0  0  0  0  0
   -2.7430   -8.3439    2.3033 H   0  0  0  0  0  0  0  0  0  0  0  0
  1  2  1  0  0  0  0
  2  3  2  0  0  0  0
  3  4  1  0  0  0  0
  4  5  1  0  0  0  0
  5  6  1  0  0  0  0
  6  7  2  0  0  0  0
  7  8  1  0  0  0  0
  8  9  1  0  0  0  0
  5  9  2  0  0  0  0
  8 10  1  0  0  0  0
 10 11  1  0  0  0  0
 11 12  1  0  0  0  0
 12 13  2  0  0  0  0
 12 14  1  0  0  0  0
 14 15  1  0  0  0  0
 15 16  1  0  0  0  0
 16 17  2  0  0  0  0
 17 18  1  0  0  0  0
 18 19  2  0  0  0  0
 19 20  1  0  0  0  0
 20 15  2  0  0  0  0
 16 21  1  0  0  0  0
 11 21  2  0  0  0  0
 14 22  1  0  0  0  0
  4 23  2  0  0  0  0
 23  1  1  0  0  0  0
  2 24  1  0  0  0  0
 24 25  1  0  0  0  0
 25 26  2  0  0  0  0
 26 27  1  0  0  0  0
 27 28  2  0  0  0  0
 28 29  1  0  0  0  0
 29 24  2  0  0  0  0
 26 30  1  0  0  0  0
 30 31  1  0  0  0  0
 31 32  1  0  0  0  0
 32 33  2  0  0  0  0
 33 34  1  0  0  0  0
 30 34  2  0  0  0  0
 32 35  1  0  0  0  0
  9 36  1  0  0  0  0
 10 37  1  0  0  0  0
 10 38  1  0  0  0  0
 17 39  1  0  0  0  0
 18 40  1  0  0  0  0
 19 41  1  0  0  0  0
 20 42  1  0  0  0  0
 21 43  1  0  0  0  0
 22 44  1  0  0  0  0
 22 45  1  0  0  0  0
 22 46  1  0  0  0  0
 23 47  1  0  0  0  0
 25 48  1  0  0  0  0
 27 49  1  0  0  0  0
 28 50  1  0  0  0  0
 29 51  1  0  0  0  0
 35 52  1  0  0  0  0
 35 53  1  0  0  0  0
M  END
>  <result-rank>
26

>  <similarity>
0.876

>  <query-name>


>  <query-smiles>
S(=O)(=O)(NC(=O)C)c1ccc(cc1)C=2N3C(=NC(=C3)COc4nc5c(cc4)cccc5)C(=NC2)N6CCOCC6

>  <source>
REALspace_2019-12

>  <similarity-descriptor>
0.999;0.0;0.832;0.976;0.960;0.999;0.675;0.711;0.0;0.0;0.999;0.960;0.111

>  <similarity-descriptor-smiles>
c1ccccc1;;C1=CNN=N1;S1C=CN=C1;C1=CccNC1=O;c1ccccc1;C1=NN=CO1;N;;;C;C1=CccNC1=O;C

>  <reaction-name>
m_274972

>  <reagent1-name>
12934092

>  <reagent1-smiles>
[R1*]SC(=N[R2*])c1cc(ccc1)C=2OC(=NN2)N

>  <reagent2-name>
12615770

>  <reagent2-smiles>
[R2*]C(C([R3*])=C[R4*])=C[R1*]

>  <reagent3-name>
13047176

>  <reagent3-smiles>
[R3*]N=NN([R4*])CC=1C(=O)N(c2c(cccc2)C1)C

$$$$
s_11a____6885834____132801
          04022017313D 1   1.00000     0.00000     0
            
 57 61  0  0  0  0            999 V2000
    0.0767    3.3082    2.3230 S   0  0  0  0  0  0  0  0  0  0  0  0
   -0.8545    4.4785    1.5085 C   0  0  0  0  0  0  0  0  0  0  0  0
   -1.3612    5.6551    2.0730 N   0  0  0  0  0  0  0  0  0  0  0  0
   -0.4512    6.7856    2.3150 C   0  0  0  0  0  0  0  0  0  0  0  0
   -1.1737    8.1130    2.1442 C   0  0  0  0  0  0  0  0  0  0  0  0
   -2.4315    8.1098    2.8072 O   0  0  0  0  0  0  0  0  0  0  0  0
   -3.3096    7.1611    2.2156 C   0  0  0  0  0  0  0  0  0  0  0  0
   -2.7954    5.7400    2.3880 C   0  0  0  0  0  0  0  0  0  0  0  0
   -1.0114    4.0566    0.2224 C   0  0  0  0  0  0  0  0  0  0  0  0
   -1.7606    4.8266   -0.7518 C   0  0  0  0  0  0  0  0  0  0  0  0
   -1.2448    6.0291   -1.2240 C   0  0  0  0  0  0  0  0  0  0  0  0
   -1.9671    6.7649   -2.1578 C   0  0  0  0  0  0  0  0  0  0  0  0
   -3.1949    6.2962   -2.6135 C   0  0  0  0  0  0  0  0  0  0  0  0
   -3.7001    5.0935   -2.1352 C   0  0  0  0  0  0  0  0  0  0  0  0
   -2.9877    4.3488   -1.2009 C   0  0  0  0  0  0  0  0  0  0  0  0
   -0.3796    2.8165   -0.0538 C   0  0  0  0  0  0  0  0  0  0  0  0
    0.2745    2.2566    1.0000 C   0  0  0  0  0  0  0  0  0  0  0  0
    1.0000    1.0000    1.0000 C   0  0  0  0  0  0  0  0  0  0  0  0
    0.4000   -0.0392    1.0000 O   0  0  0  0  0  0  0  0  0  0  0  0
    2.3700    1.0000    1.0000 N   0  0  0  0  0  0  0  0  0  0  0  0
    3.0717    2.2153    1.0000 C   0  0  0  0  0  0  0  0  0  0  0  0
    3.4379    2.8496    2.1267 N   0  0  0  0  0  0  0  0  0  0  0  0
    4.0844    3.9708    2.1150 N   0  0  0  0  0  0  0  0  0  0  0  0
    4.4396    4.5871    0.9751 C   0  0  0  0  0  0  0  0  0  0  0  0
    5.1638    5.8433    0.9468 C   0  0  0  0  0  0  0  0  0  0  0  0
    5.4960    6.4198   -0.2748 C   0  0  0  0  0  0  0  0  0  0  0  0
    6.1914    7.6244   -0.2974 C   0  0  0  0  0  0  0  0  0  0  0  0
    6.5482    8.2440    0.8957 C   0  0  0  0  0  0  0  0  0  0  0  0
    6.2106    7.6592    2.1100 C   0  0  0  0  0  0  0  0  0  0  0  0
    5.5159    6.4546    2.1460 C   0  0  0  0  0  0  0  0  0  0  0  0
    4.0974    3.9953   -0.2360 C   0  0  0  0  0  0  0  0  0  0  0  0
    3.4029    2.7906   -0.2222 C   0  0  0  0  0  0  0  0  0  0  0  0
    3.1050   -0.2731    1.0000 C   0  0  0  0  0  0  0  0  0  0  0  0
    0.3071    6.7400    1.6648 H   0  0  0  0  0  0  0  0  0  0  0  0
   -0.0949    6.7247    3.2474 H   0  0  0  0  0  0  0  0  0  0  0  0
   -0.6069    8.8431    2.5260 H   0  0  0  0  0  0  0  0  0  0  0  0
   -1.3204    8.2802    1.1693 H   0  0  0  0  0  0  0  0  0  0  0  0
   -3.3925    7.3603    1.2392 H   0  0  0  0  0  0  0  0  0  0  0  0
   -4.2079    7.2361    2.6485 H   0  0  0  0  0  0  0  0  0  0  0  0
   -2.9395    5.4529    3.3350 H   0  0  0  0  0  0  0  0  0  0  0  0
   -3.3011    5.1329    1.7750 H   0  0  0  0  0  0  0  0  0  0  0  0
   -0.3613    6.3621   -0.8946 H   0  0  0  0  0  0  0  0  0  0  0  0
   -1.6037    7.6308   -2.5014 H   0  0  0  0  0  0  0  0  0  0  0  0
   -3.7139    6.8248   -3.2852 H   0  0  0  0  0  0  0  0  0  0  0  0
   -4.5833    4.7604   -2.4654 H   0  0  0  0  0  0  0  0  0  0  0  0
   -3.3520    3.4832   -0.8572 H   0  0  0  0  0  0  0  0  0  0  0  0
   -0.4126    2.3859   -0.9558 H   0  0  0  0  0  0  0  0  0  0  0  0
    5.2368    5.9717   -1.1304 H   0  0  0  0  0  0  0  0  0  0  0  0
    6.4348    8.0449   -1.1714 H   0  0  0  0  0  0  0  0  0  0  0  0
    7.0476    9.1103    0.8795 H   0  0  0  0  0  0  0  0  0  0  0  0
    6.4693    8.1081    2.9654 H   0  0  0  0  0  0  0  0  0  0  0  0
    5.2733    6.0344    3.0204 H   0  0  0  0  0  0  0  0  0  0  0  0
    4.3466    4.4288   -1.1020 H   0  0  0  0  0  0  0  0  0  0  0  0
    3.1453    2.3441   -1.0791 H   0  0  0  0  0  0  0  0  0  0  0  0
    2.4552   -1.0331    1.0000 H   0  0  0  0  0  0  0  0  0  0  0  0
    3.6799   -0.3260    0.1835 H   0  0  0  0  0  0  0  0  0  0  0  0
    3.6799   -0.3260    1.8165 H   0  0  0  0  0  0  0  0  0  0  0  0
  1  2  1  0  0  0  0
  2  3  1  0  0  0  0
  3  4  1  0  0  0  0
  4  5  1  0  0  0  0
  5  6  1  0  0  0  0
  6  7  1  0  0  0  0
  7  8  1  0  0  0  0
  8  3  1  0  0  0  0
  2  9  2  0  0  0  0
  9 10  1  0  0  0  0
 10 11  1  0  0  0  0
 11 12  2  0  0  0  0
 12 13  1  0  0  0  0
 13 14  2  0  0  0  0
 14 15  1  0  0  0  0
 15 10  2  0  0  0  0
  9 16  1  0  0  0  0
 16 17  2  0  0  0  0
 17  1  1  0  0  0  0
 17 18  1  0  0  0  0
 18 19  2  0  0  0  0
 18 20  1  0  0  0  0
 20 21  1  0  0  0  0
 21 22  1  0  0  0  0
 22 23  2  0  0  0  0
 23 24  1  0  0  0  0
 24 25  1  0  0  0  0
 25 26  1  0  0  0  0
 26 27  2  0  0  0  0
 27 28  1  0  0  0  0
 28 29  2  0  0  0  0
 29 30  1  0  0  0  0
 30 25  2  0  0  0  0
 24 31  2  0  0  0  0
 31 32  1  0  0  0  0
 32 21  2  0  0  0  0
 20 33  1  0  0  0  0
  4 34  1  0  0  0  0
  4 35  1  0  0  0  0
  5 36  1  0  0  0  0
  5 37  1  0  0  0  0
  7 38  1  0  0  0  0
  7 39  1  0  0  0  0
  8 40  1  0  0  0  0
  8 41  1  0  0  0  0
 11 42  1  0  0  0  0
 12 43  1  0  0  0  0
 13 44  1  0  0  0  0
 14 45  1  0  0  0  0
 15 46  1  0  0  0  0
 16 47  1  0  0  0  0
 26 48  1  0  0  0  0
 27 49  1  0  0  0  0
 28 50  1  0  0  0  0
 29 51  1  0  0  0  0
 30 52  1  0  0  0  0
 31 53  1  0  0  0  0
 32 54  1  0  0  0  0
 33 55  1  0  0  0  0
 33 56  1  0  0  0  0
 33 57  1  0  0  0  0
M  END
>  <result-rank>
27

>  <similarity>
0.876

>  <query-name>


>  <query-smiles>
S(=O)(=O)(NC(=O)C)c1ccc(cc1)C=2N3C(=NC(=C3)COc4nc5c(cc4)cccc5)C(=NC2)N6CCOCC6

>  <source>
REALspace_2019-12

>  <similarity-descriptor>
0.959;1.000;0.522;0.820;0.969;0.942;0.0;0.0;0.0;0.0;0.934;0.969;0.0

>  <similarity-descriptor-smiles>
c1ccccc1;N1CCOCC1;C=O;S1C=CC=C1;c1cccnn1;c1ccccc1;;;;;NC;c1cccnn1;

>  <reaction-name>
s_11a

>  <reagent1-name>
6885834

>  <reagent1-smiles>
[R1*]N(c1nnc(c2ccccc2)cc1)C

>  <reagent2-name>
132801

>  <reagent2-smiles>
[R1*]C(=O)C=1SC(N2CCOCC2)=C(c3ccccc3)C1

$$$$
m_274972____12933802____12615770____13046596
          04022017313D 1   1.00000     0.00000     0
            
 43 47  0  0  0  0            999 V2000
    5.4479   -1.9963    2.4324 S   0  0  0  0  0  0  0  0  0  0  0  0
    3.7977   -2.4130    2.4276 C   0  0  0  0  0  0  0  0  0  0  0  0
    3.1335   -1.2847    2.4477 N   0  0  0  0  0  0  0  0  0  0  0  0
    3.8960   -0.1472    2.4591 C   0  0  0  0  0  0  0  0  0  0  0  0
    3.3663    1.2031    2.4818 C   0  0  0  0  0  0  0  0  0  0  0  0
    4.0969    2.3529    2.4937 N   0  0  0  0  0  0  0  0  0  0  0  0
    3.2911    3.3246    2.5132 N   0  0  0  0  0  0  0  0  0  0  0  0
    2.0497    2.9042    2.5096 N   0  0  0  0  0  0  0  0  0  0  0  0
    0.9116    3.7217    2.5251 C   0  0  0  0  0  0  0  0  0  0  0  0
   -0.0342    3.6621    3.5461 C   0  0  0  0  0  0  0  0  0  0  0  0
   -1.1459    4.4999    3.5081 C   0  0  0  0  0  0  0  0  0  0  0  0
   -1.3185    5.3960    2.4579 C   0  0  0  0  0  0  0  0  0  0  0  0
   -0.3722    5.4536    1.4396 C   0  0  0  0  0  0  0  0  0  0  0  0
    0.7394    4.6176    1.4750 C   0  0  0  0  0  0  0  0  0  0  0  0
   -2.1074    4.4656    4.5117 C   0  0  0  0  0  0  0  0  0  0  0  0
   -1.9525    3.5770    5.5704 C   0  0  0  0  0  0  0  0  0  0  0  0
   -0.8531    2.7275    5.6361 C   0  0  0  0  0  0  0  0  0  0  0  0
    0.0937    2.7831    4.6192 C   0  0  0  0  0  0  0  0  0  0  0  0
    2.0516    1.5447    2.4890 C   0  0  0  0  0  0  0  0  0  0  0  0
    5.2451   -0.3055    2.4531 C   0  0  0  0  0  0  0  0  0  0  0  0
    3.2697   -3.7094    2.4143 N   0  0  0  0  0  0  0  0  0  0  0  0
    1.8096   -3.8904    2.4120 C   0  0  0  0  0  0  0  0  0  0  0  0
    1.4159   -5.1348    1.6311 C   0  0  0  0  0  0  0  0  0  0  0  0
    2.2298   -6.2472    1.9802 O   0  0  0  0  0  0  0  0  0  0  0  0
    3.5819   -6.0187    1.6052 C   0  0  0  0  0  0  0  0  0  0  0  0
    4.1880   -4.8578    2.3790 C   0  0  0  0  0  0  0  0  0  0  0  0
   -2.1186    5.9955    2.4351 H   0  0  0  0  0  0  0  0  0  0  0  0
   -0.4910    6.0959    0.6824 H   0  0  0  0  0  0  0  0  0  0  0  0
    1.4180    4.6610    0.7417 H   0  0  0  0  0  0  0  0  0  0  0  0
   -2.9011    5.0726    4.4727 H   0  0  0  0  0  0  0  0  0  0  0  0
   -2.6414    3.5485    6.2947 H   0  0  0  0  0  0  0  0  0  0  0  0
   -0.7458    2.0900    6.3990 H   0  0  0  0  0  0  0  0  0  0  0  0
    0.8874    2.1760    4.6593 H   0  0  0  0  0  0  0  0  0  0  0  0
    1.2610    0.9324    2.4809 H   0  0  0  0  0  0  0  0  0  0  0  0
    5.9513    0.4025    2.4594 H   0  0  0  0  0  0  0  0  0  0  0  0
    1.3816   -3.0909    1.9906 H   0  0  0  0  0  0  0  0  0  0  0  0
    1.4899   -3.9814    3.3551 H   0  0  0  0  0  0  0  0  0  0  0  0
    0.4611   -5.3552    1.8306 H   0  0  0  0  0  0  0  0  0  0  0  0
    1.5184   -4.9511    0.6535 H   0  0  0  0  0  0  0  0  0  0  0  0
    3.6170   -5.8109    0.6277 H   0  0  0  0  0  0  0  0  0  0  0  0
    4.1141   -6.8450    1.7897 H   0  0  0  0  0  0  0  0  0  0  0  0
    4.3782   -5.1530    3.3153 H   0  0  0  0  0  0  0  0  0  0  0  0
    5.0411   -4.5805    1.9370 H   0  0  0  0  0  0  0  0  0  0  0  0
  1  2  1  0  0  0  0
  2  3  2  0  0  0  0
  3  4  1  0  0  0  0
  4  5  1  0  0  0  0
  5  6  1  0  0  0  0
  6  7  2  0  0  0  0
  7  8  1  0  0  0  0
  8  9  1  0  0  0  0
  9 10  1  0  0  0  0
 10 11  2  0  0  0  0
 11 12  1  0  0  0  0
 12 13  2  0  0  0  0
 13 14  1  0  0  0  0
 14  9  2  0  0  0  0
 11 15  1  0  0  0  0
 15 16  2  0  0  0  0
 16 17  1  0  0  0  0
 17 18  2  0  0  0  0
 18 10  1  0  0  0  0
  8 19  1  0  0  0  0
  5 19  2  0  0  0  0
  4 20  2  0  0  0  0
 20  1  1  0  0  0  0
  2 21  1  0  0  0  0
 21 22  1  0  0  0  0
 22 23  1  0  0  0  0
 23 24  1  0  0  0  0
 24 25  1  0  0  0  0
 25 26  1  0  0  0  0
 26 21  1  0  0  0  0
 12 27  1  0  0  0  0
 13 28  1  0  0  0  0
 14 29  1  0  0  0  0
 15 30  1  0  0  0  0
 16 31  1  0  0  0  0
 17 32  1  0  0  0  0
 18 33  1  0  0  0  0
 19 34  1  0  0  0  0
 20 35  1  0  0  0  0
 22 36  1  0  0  0  0
 22 37  1  0  0  0  0
 23 38  1  0  0  0  0
 23 39  1  0  0  0  0
 25 40  1  0  0  0  0
 25 41  1  0  0  0  0
 26 42  1  0  0  0  0
 26 43  1  0  0  0  0
M  END
>  <result-rank>
28

>  <similarity>
0.875

>  <query-name>


>  <query-smiles>
S(=O)(=O)(NC(=O)C)c1ccc(cc1)C=2N3C(=NC(=C3)COc4nc5c(cc4)cccc5)C(=NC2)N6CCOCC6

>  <source>
REALspace_2019-12

>  <similarity-descriptor>
0.0;1.000;0.889;0.973;0.831;0.999;0.0;0.0;0.0;0.0;0.889;0.889;0.0

>  <similarity-descriptor-smiles>
;N1CCOCC1;C1=CNN=N1;S1C=CN=C1;c1ccccc1;c1ccccc1;;;;;C1=CNN=N1;C1=CNN=N1;

>  <reaction-name>
m_274972

>  <reagent1-name>
12933802

>  <reagent1-smiles>
[R1*]SC(=N[R2*])N1CCOCC1

>  <reagent2-name>
12615770

>  <reagent2-smiles>
[R2*]C(C([R3*])=C[R4*])=C[R1*]

>  <reagent3-name>
13046596

>  <reagent3-smiles>
[R3*]N=NN([R4*])c1c2c(ccc1)cccc2

$$$$
m_274972____12933802____12615770____13046748
          04022017313D 1   1.00000     0.00000     0
            
 43 47  0  0  0  0            999 V2000
    5.4512   -1.9733    2.3720 S   0  0  0  0  0  0  0  0  0  0  0  0
    3.8017   -2.3928    2.3767 C   0  0  0  0  0  0  0  0  0  0  0  0
    3.1357   -1.2661    2.4149 N   0  0  0  0  0  0  0  0  0  0  0  0
    3.8964   -0.1273    2.4326 C   0  0  0  0  0  0  0  0  0  0  0  0
    3.3679    1.2133    2.4745 C   0  0  0  0  0  0  0  0  0  0  0  0
    4.0997    2.3609    2.4928 N   0  0  0  0  0  0  0  0  0  0  0  0
    3.2864    3.3264    2.5304 N   0  0  0  0  0  0  0  0  0  0  0  0
    2.0449    2.9079    2.5406 N   0  0  0  0  0  0  0  0  0  0  0  0
    2.0495    1.5504    2.5067 C   0  0  0  0  0  0  0  0  0  0  0  0
    0.8508    3.7642    2.5836 C   0  0  0  0  0  0  0  0  0  0  0  0
    0.4146    4.0972    1.1657 C   0  0  0  0  0  0  0  0  0  0  0  0
   -0.4600    3.3689    0.4136 N   0  0  0  0  0  0  0  0  0  0  0  0
   -0.5845    3.9701   -0.7466 C   0  0  0  0  0  0  0  0  0  0  0  0
    0.1944    5.0789   -0.7651 N   0  0  0  0  0  0  0  0  0  0  0  0
    0.8308    5.1692    0.4371 C   0  0  0  0  0  0  0  0  0  0  0  0
    0.2421    5.8854   -1.8730 C   0  0  0  0  0  0  0  0  0  0  0  0
   -0.5005    5.5822   -2.9850 C   0  0  0  0  0  0  0  0  0  0  0  0
   -1.3265    4.4259   -2.9942 C   0  0  0  0  0  0  0  0  0  0  0  0
   -1.3652    3.6271   -1.8816 C   0  0  0  0  0  0  0  0  0  0  0  0
    5.2456   -0.2831    2.4133 C   0  0  0  0  0  0  0  0  0  0  0  0
    3.2759   -3.6900    2.3534 N   0  0  0  0  0  0  0  0  0  0  0  0
    1.8161   -3.8736    2.3615 C   0  0  0  0  0  0  0  0  0  0  0  0
    1.4180   -5.1100    1.5703 C   0  0  0  0  0  0  0  0  0  0  0  0
    2.2367   -6.2247    1.9000 O   0  0  0  0  0  0  0  0  0  0  0  0
    3.5851   -5.9896    1.5161 C   0  0  0  0  0  0  0  0  0  0  0  0
    4.1959   -4.8362    2.2975 C   0  0  0  0  0  0  0  0  0  0  0  0
    1.2607    0.9357    2.5056 H   0  0  0  0  0  0  0  0  0  0  0  0
    1.0640    4.6092    3.0739 H   0  0  0  0  0  0  0  0  0  0  0  0
    0.1121    3.2825    3.0551 H   0  0  0  0  0  0  0  0  0  0  0  0
    1.4733    5.8792    0.7255 H   0  0  0  0  0  0  0  0  0  0  0  0
    0.8223    6.6999   -1.8699 H   0  0  0  0  0  0  0  0  0  0  0  0
   -0.4608    6.1747   -3.7896 H   0  0  0  0  0  0  0  0  0  0  0  0
   -1.8717    4.1984   -3.8011 H   0  0  0  0  0  0  0  0  0  0  0  0
   -1.9393    2.8084   -1.8691 H   0  0  0  0  0  0  0  0  0  0  0  0
    5.9506    0.4260    2.4214 H   0  0  0  0  0  0  0  0  0  0  0  0
    1.3832   -3.0702    1.9527 H   0  0  0  0  0  0  0  0  0  0  0  0
    1.5046   -3.9756    3.3063 H   0  0  0  0  0  0  0  0  0  0  0  0
    0.4653   -5.3343    1.7754 H   0  0  0  0  0  0  0  0  0  0  0  0
    1.5117   -4.9152    0.5939 H   0  0  0  0  0  0  0  0  0  0  0  0
    3.6116   -5.7709    0.5407 H   0  0  0  0  0  0  0  0  0  0  0  0
    4.1203   -6.8169    1.6869 H   0  0  0  0  0  0  0  0  0  0  0  0
    4.3946   -5.1415    3.2288 H   0  0  0  0  0  0  0  0  0  0  0  0
    5.0447   -4.5525    1.8515 H   0  0  0  0  0  0  0  0  0  0  0  0
  1  2  1  0  0  0  0
  2  3  2  0  0  0  0
  3  4  1  0  0  0  0
  4  5  1  0  0  0  0
  5  6  1  0  0  0  0
  6  7  2  0  0  0  0
  7  8  1  0  0  0  0
  8  9  1  0  0  0  0
  5  9  2  0  0  0  0
  8 10  1  0  0  0  0
 10 11  1  0  0  0  0
 11 12  1  0  0  0  0
 12 13  2  0  0  0  0
 13 14  1  0  0  0  0
 14 15  1  0  0  0  0
 11 15  2  0  0  0  0
 14 16  1  0  0  0  0
 16 17  2  0  0  0  0
 17 18  1  0  0  0  0
 18 19  2  0  0  0  0
 19 13  1  0  0  0  0
  4 20  2  0  0  0  0
 20  1  1  0  0  0  0
  2 21  1  0  0  0  0
 21 22  1  0  0  0  0
 22 23  1  0  0  0  0
 23 24  1  0  0  0  0
 24 25  1  0  0  0  0
 25 26  1  0  0  0  0
 26 21  1  0  0  0  0
  9 27  1  0  0  0  0
 10 28  1  0  0  0  0
 10 29  1  0  0  0  0
 15 30  1  0  0  0  0
 16 31  1  0  0  0  0
 17 32  1  0  0  0  0
 18 33  1  0  0  0  0
 19 34  1  0  0  0  0
 20 35  1  0  0  0  0
 22 36  1  0  0  0  0
 22 37  1  0  0  0  0
 23 38  1  0  0  0  0
 23 39  1  0  0  0  0
 25 40  1  0  0  0  0
 25 41  1  0  0  0  0
 26 42  1  0  0  0  0
 26 43  1  0  0  0  0
M  END
>  <result-rank>
29

>  <similarity>
0.875

>  <query-name>


>  <query-smiles>
S(=O)(=O)(NC(=O)C)c1ccc(cc1)C=2N3C(=NC(=C3)COc4nc5c(cc4)cccc5)C(=NC2)N6CCOCC6

>  <source>
REALspace_2019-12

>  <similarity-descriptor>
0.0;1.000;0.889;0.973;0.860;0.969;0.0;0.0;0.0;0.0;0.889;0.889;0.0

>  <similarity-descriptor-smiles>
;N1CCOCC1;C1=CNN=N1;S1C=CN=C1;CC1=CNC=N1;C1C=CC=CN1;;;;;C1=CNN=N1;C1=CNN=N1;

>  <reaction-name>
m_274972

>  <reagent1-name>
12933802

>  <reagent1-smiles>
[R1*]SC(=N[R2*])N1CCOCC1

>  <reagent2-name>
12615770

>  <reagent2-smiles>
[R2*]C(C([R3*])=C[R4*])=C[R1*]

>  <reagent3-name>
13046748

>  <reagent3-smiles>
[R3*]N=NN([R4*])CC=1N=C2N(C1)C=CC=C2

$$$$
m_274860a____17158546____17212876____15233762
          04022017313D 1   1.00000     0.00000     0
            
 64 67  0  0  0  0            999 V2000
    3.9524   -3.1939   -1.7292 S   0  0  0  0  0  0  0  0  0  0  0  0
    3.7316   -4.6073   -1.5645 O   0  0  0  0  0  0  0  0  0  0  0  0
    3.0515   -2.6806   -2.7285 O   0  0  0  0  0  0  0  0  0  0  0  0
    5.4912   -2.9358   -2.2008 N   0  0  0  0  0  0  0  0  0  0  0  0
    5.7166   -1.4929   -2.3690 C   0  0  0  0  0  0  0  0  0  0  0  0
    7.1515   -1.2522   -2.8087 C   0  0  0  0  0  0  0  0  0  0  0  0
    3.6651   -2.3818   -0.2171 C   0  0  0  0  0  0  0  0  0  0  0  0
    3.2018   -1.0700   -0.2159 C   0  0  0  0  0  0  0  0  0  0  0  0
    2.9767   -0.4332    1.0000 C   0  0  0  0  0  0  0  0  0  0  0  0
    3.2073   -1.0894    2.2045 C   0  0  0  0  0  0  0  0  0  0  0  0
    3.6705   -2.4010    2.1810 C   0  0  0  0  0  0  0  0  0  0  0  0
    3.9026   -3.0562    0.9760 C   0  0  0  0  0  0  0  0  0  0  0  0
    2.4700    1.0000    1.0000 C   0  0  0  0  0  0  0  0  0  0  0  0
    1.0000    1.0000    1.0000 N   0  0  0  0  0  0  0  0  0  0  0  0
    0.3150    1.0000    2.1865 C   0  0  0  0  0  0  0  0  0  0  0  0
    0.9150    1.0000    3.2257 O   0  0  0  0  0  0  0  0  0  0  0  0
   -1.2050    1.0000    2.1865 C   0  0  3  0  0  0  0  0  0  0  0  0
   -1.6950    2.2002    1.4935 N   0  0  0  0  0  0  0  0  0  0  0  0
   -2.4514    2.2108    0.4238 N   0  0  0  0  0  0  0  0  0  0  0  0
   -2.7144    3.3897    0.0549 N   0  0  0  0  0  0  0  0  0  0  0  0
   -2.0981    4.2352    0.9257 C   0  0  0  0  0  0  0  0  0  0  0  0
   -2.1358    5.6860    0.8766 C   0  0  0  0  0  0  0  0  0  0  0  0
   -2.6436    6.4683    1.9148 C   0  0  0  0  0  0  0  0  0  0  0  0
   -2.6444    7.8558    1.7950 C   0  0  0  0  0  0  0  0  0  0  0  0
   -2.1323    8.4178    0.6295 C   0  0  0  0  0  0  0  0  0  0  0  0
   -1.6501    7.6461   -0.3562 N   0  0  0  0  0  0  0  0  0  0  0  0
   -1.6392    6.3079   -0.2636 C   0  0  0  0  0  0  0  0  0  0  0  0
   -3.1409    8.6671    2.8097 C   0  0  0  0  0  0  0  0  0  0  0  0
   -3.6453    8.0804    3.9653 C   0  0  0  0  0  0  0  0  0  0  0  0
   -3.6588    6.6986    4.1167 C   0  0  0  0  0  0  0  0  0  0  0  0
   -3.1565    5.9124    3.0857 C   0  0  0  0  0  0  0  0  0  0  0  0
   -1.4430    3.4851    1.8535 C   0  0  0  0  0  0  0  0  0  0  0  0
   -1.7117    1.0000    3.6195 C   0  0  0  0  0  0  0  0  0  0  0  0
   -3.1317    1.0000    3.6195 O   0  0  0  0  0  0  0  0  0  0  0  0
   -3.6050    1.0000    4.9583 C   0  0  0  0  0  0  0  0  0  0  0  0
   -3.7739   -0.4331    5.4360 C   0  0  0  0  0  0  0  0  0  0  0  0
    5.6563   -3.4024   -3.0697 H   0  0  0  0  0  0  0  0  0  0  0  0
    5.5515   -1.0263   -1.5001 H   0  0  0  0  0  0  0  0  0  0  0  0
    5.0910   -1.1364   -3.0629 H   0  0  0  0  0  0  0  0  0  0  0  0
    7.3049   -0.2706   -2.9231 H   0  0  0  0  0  0  0  0  0  0  0  0
    7.7771   -1.6086   -2.1148 H   0  0  0  0  0  0  0  0  0  0  0  0
    7.3166   -1.7188   -3.6776 H   0  0  0  0  0  0  0  0  0  0  0  0
    3.0330   -0.5913   -1.0775 H   0  0  0  0  0  0  0  0  0  0  0  0
    3.0426   -0.6251    3.0747 H   0  0  0  0  0  0  0  0  0  0  0  0
    3.8389   -2.8796    3.0427 H   0  0  0  0  0  0  0  0  0  0  0  0
    4.2358   -3.9990    0.9677 H   0  0  0  0  0  0  0  0  0  0  0  0
    2.8033    1.4714    1.8165 H   0  0  0  0  0  0  0  0  0  0  0  0
    2.8033    1.4714    0.1835 H   0  0  0  0  0  0  0  0  0  0  0  0
    0.5000    1.0000    0.1340 H   0  0  0  0  0  0  0  0  0  0  0  0
   -1.5383    0.1835    1.7151 H   0  0  0  0  0  0  0  0  0  0  0  0
   -2.1236    9.4123    0.5251 H   0  0  0  0  0  0  0  0  0  0  0  0
   -1.2739    5.7577   -1.0145 H   0  0  0  0  0  0  0  0  0  0  0  0
   -3.1352    9.6620    2.7094 H   0  0  0  0  0  0  0  0  0  0  0  0
   -4.0032    8.6603    4.6972 H   0  0  0  0  0  0  0  0  0  0  0  0
   -4.0216    6.2793    4.9489 H   0  0  0  0  0  0  0  0  0  0  0  0
   -3.1635    4.9176    3.1873 H   0  0  0  0  0  0  0  0  0  0  0  0
   -0.8979    3.8080    2.6272 H   0  0  0  0  0  0  0  0  0  0  0  0
   -1.3783    0.1835    4.0909 H   0  0  0  0  0  0  0  0  0  0  0  0
   -1.3783    1.8165    4.0909 H   0  0  0  0  0  0  0  0  0  0  0  0
   -4.4859    1.4714    5.0004 H   0  0  0  0  0  0  0  0  0  0  0  0
   -2.9463    1.4714    5.5447 H   0  0  0  0  0  0  0  0  0  0  0  0
   -4.1072   -0.4331    6.3788 H   0  0  0  0  0  0  0  0  0  0  0  0
   -4.4326   -0.9045    4.8496 H   0  0  0  0  0  0  0  0  0  0  0  0
   -2.8930   -0.9045    5.3939 H   0  0  0  0  0  0  0  0  0  0  0  0
  1  2  2  0  0  0  0
  1  3  2  0  0  0  0
  1  4  1  0  0  0  0
  4  5  1  0  0  0  0
  5  6  1  0  0  0  0
  1  7  1  0  0  0  0
  7  8  1  0  0  0  0
  8  9  2  0  0  0  0
  9 10  1  0  0  0  0
 10 11  2  0  0  0  0
 11 12  1  0  0  0  0
 12  7  2  0  0  0  0
  9 13  1  0  0  0  0
 13 14  1  0  0  0  0
 14 15  1  0  0  0  0
 15 16  2  0  0  0  0
 15 17  1  0  0  0  0
 17 18  1  0  0  0  0
 18 19  1  0  0  0  0
 19 20  2  0  0  0  0
 20 21  1  0  0  0  0
 21 22  1  0  0  0  0
 22 23  1  0  0  0  0
 23 24  2  0  0  0  0
 24 25  1  0  0  0  0
 25 26  2  0  0  0  0
 26 27  1  0  0  0  0
 27 22  2  0  0  0  0
 24 28  1  0  0  0  0
 28 29  2  0  0  0  0
 29 30  1  0  0  0  0
 30 31  2  0  0  0  0
 31 23  1  0  0  0  0
 21 32  2  0  0  0  0
 32 18  1  0  0  0  0
 17 33  1  0  0  0  0
 33 34  1  0  0  0  0
 34 35  1  0  0  0  0
 35 36  1  0  0  0  0
  4 37  1  0  0  0  0
  5 38  1  0  0  0  0
  5 39  1  0  0  0  0
  6 40  1  0  0  0  0
  6 41  1  0  0  0  0
  6 42  1  0  0  0  0
  8 43  1  0  0  0  0
 10 44  1  0  0  0  0
 11 45  1  0  0  0  0
 12 46  1  0  0  0  0
 13 47  1  0  0  0  0
 13 48  1  0  0  0  0
 14 49  1  0  0  0  0
 17 50  1  0  0  0  0
 25 51  1  0  0  0  0
 27 52  1  0  0  0  0
 28 53  1  0  0  0  0
 29 54  1  0  0  0  0
 30 55  1  0  0  0  0
 31 56  1  0  0  0  0
 32 57  1  0  0  0  0
 33 58  1  0  0  0  0
 33 59  1  0  0  0  0
 35 60  1  0  0  0  0
 35 61  1  0  0  0  0
 36 62  1  0  0  0  0
 36 63  1  0  0  0  0
 36 64  1  0  0  0  0
M  END
>  <result-rank>
30

>  <similarity>
0.875

>  <query-name>


>  <query-smiles>
S(=O)(=O)(NC(=O)C)c1ccc(cc1)C=2N3C(=NC(=C3)COc4nc5c(cc4)cccc5)C(=NC2)N6CCOCC6

>  <source>
REALspace_2019-12

>  <similarity-descriptor>
1.000;0.842;0.889;0.469;0.999;0.999;1.000;0.730;0.730;1.000;0.889;0.889;0.0

>  <similarity-descriptor-smiles>
c1ccccc1;COCC;N1C=CN=N1;CNC(=O)C;c1cnccc1;c1ccccc1;S(=O)=O;NC;NC;C;N1C=CN=N1;N1C=CN=N1;

>  <reaction-name>
m_274860a

>  <reagent1-name>
17158546

>  <reagent1-smiles>
[R3*]NCc1cc(S(=O)(=O)NCC)ccc1

>  <reagent2-name>
17212876

>  <reagent2-smiles>
[R1*]N=NN([R2*])C(C([R3*])=O)COCC

>  <reagent3-name>
15233762

>  <reagent3-smiles>
[R1*]C(c1c2c(cnc1)cccc2)=C[R2*]

$$$$
m_270942____9828442____15151558____14478696
          04022017313D 1   1.00000     0.00000     0
            
 61 66  0  0  0  0            999 V2000
   -3.3593    1.2153    5.4652 S   0  0  0  0  0  0  0  0  0  0  0  0
   -4.4693   -0.0025    5.8604 C   0  0  0  0  0  0  0  0  0  0  0  0
   -5.5522    0.2733    6.7103 C   0  0  0  0  0  0  0  0  0  0  0  0
   -6.3813   -0.8083    6.9503 C   0  0  0  0  0  0  0  0  0  0  0  0
   -6.1086   -2.0237    6.3724 N   0  0  0  0  0  0  0  0  0  0  0  0
   -5.0273   -2.2185    5.5496 C   0  0  0  0  0  0  0  0  0  0  0  0
   -4.8359   -3.3229    5.0644 O   0  0  0  0  0  0  0  0  0  0  0  0
   -4.1260   -1.1601    5.2518 C   0  0  0  0  0  0  0  0  0  0  0  0
   -2.9487   -1.0217    4.4634 C   0  0  0  0  0  0  0  0  0  0  0  0
   -2.3974    0.2231    4.4725 C   0  0  0  0  0  0  0  0  0  0  0  0
   -1.2065    0.6599    3.7721 C   0  0  0  0  0  0  0  0  0  0  0  0
   -0.2231    1.3648    4.2845 N   0  0  0  0  0  0  0  0  0  0  0  0
    0.6692    1.5596    3.3392 N   0  0  0  0  0  0  0  0  0  0  0  0
    0.2992    1.0000    2.2139 C   0  0  0  0  0  0  0  0  0  0  0  0
   -0.9010    0.4177    2.4696 N   0  0  0  0  0  0  0  0  0  0  0  0
   -1.7201   -0.3369    1.5092 C   0  0  0  0  0  0  0  0  0  0  0  0
   -1.0367   -1.6587    1.1879 C   0  0  3  0  0  0  0  0  0  0  0  0
   -1.6216   -2.8313    1.9547 C   0  0  0  0  0  0  0  0  0  0  0  0
   -1.2383   -3.9637    1.1939 O   0  0  0  0  0  0  0  0  0  0  0  0
   -1.0217   -3.5694   -0.1525 C   0  0  0  0  0  0  0  0  0  0  0  0
   -1.3365   -2.0913   -0.2320 C   0  0  0  0  0  0  0  0  0  0  0  0
    1.0000    1.0000    1.0000 N   0  0  0  0  0  0  0  0  0  0  0  0
    2.4700    1.0000    1.0000 C   0  0  0  0  0  0  0  0  0  0  0  0
    2.9767   -0.4113    0.7512 C   0  0  0  0  0  0  0  0  0  0  0  0
    3.5947   -0.7085   -0.4593 C   0  0  0  0  0  0  0  0  0  0  0  0
    4.0579   -2.0009   -0.6848 C   0  0  0  0  0  0  0  0  0  0  0  0
    3.9010   -2.9763    0.2943 C   0  0  0  0  0  0  0  0  0  0  0  0
    4.3687   -4.2761    0.0649 N   0  3  0  0  0  0  0  0  0  0  0  0
    4.6312   -5.0051    1.0072 O   0  5  0  0  0  0  0  0  0  0  0  0
    4.5126   -4.6761   -1.0680 O   0  0  0  0  0  0  0  0  0  0  0  0
    3.2829   -2.6760    1.5037 C   0  0  0  0  0  0  0  0  0  0  0  0
    2.8186   -1.3848    1.7320 C   0  0  0  0  0  0  0  0  0  0  0  0
    0.2650    1.0000   -0.2731 C   0  0  0  0  0  0  0  0  0  0  0  0
   -7.4613   -0.5676    7.7882 C   0  0  0  0  0  0  0  0  0  0  0  0
   -7.6737    0.6913    8.3408 C   0  0  0  0  0  0  0  0  0  0  0  0
   -6.8144    1.7522    8.0714 C   0  0  0  0  0  0  0  0  0  0  0  0
   -5.7251    1.5455    7.2374 C   0  0  0  0  0  0  0  0  0  0  0  0
   -6.7191   -2.7938    6.5575 H   0  0  0  0  0  0  0  0  0  0  0  0
   -2.5568   -1.7804    3.9430 H   0  0  0  0  0  0  0  0  0  0  0  0
   -1.8258    0.1964    0.6699 H   0  0  0  0  0  0  0  0  0  0  0  0
   -2.6203   -0.5150    1.9065 H   0  0  0  0  0  0  0  0  0  0  0  0
   -0.0502   -1.5935    1.3379 H   0  0  0  0  0  0  0  0  0  0  0  0
   -1.2404   -2.8779    2.8781 H   0  0  0  0  0  0  0  0  0  0  0  0
   -2.6176   -2.7597    2.0084 H   0  0  0  0  0  0  0  0  0  0  0  0
   -1.6248   -4.0830   -0.7628 H   0  0  0  0  0  0  0  0  0  0  0  0
   -0.0694   -3.7328   -0.4101 H   0  0  0  0  0  0  0  0  0  0  0  0
   -0.7466   -1.6246   -0.8909 H   0  0  0  0  0  0  0  0  0  0  0  0
   -2.2944   -1.9317   -0.4706 H   0  0  0  0  0  0  0  0  0  0  0  0
    2.8033    1.3225    1.8860 H   0  0  0  0  0  0  0  0  0  0  0  0
    2.8033    1.6060    0.2778 H   0  0  0  0  0  0  0  0  0  0  0  0
    3.7047   -0.0021   -1.1585 H   0  0  0  0  0  0  0  0  0  0  0  0
    4.5034   -2.2286   -1.5506 H   0  0  0  0  0  0  0  0  0  0  0  0
    3.1733   -3.3823    2.2030 H   0  0  0  0  0  0  0  0  0  0  0  0
    2.3729   -1.1573    2.5978 H   0  0  0  0  0  0  0  0  0  0  0  0
    0.9148    1.0000   -1.0331 H   0  0  0  0  0  0  0  0  0  0  0  0
   -0.3099    0.1835   -0.3260 H   0  0  0  0  0  0  0  0  0  0  0  0
   -0.3099    1.8165   -0.3260 H   0  0  0  0  0  0  0  0  0  0  0  0
   -8.0968   -1.3107    7.9978 H   0  0  0  0  0  0  0  0  0  0  0  0
   -8.4587    0.8366    8.9431 H   0  0  0  0  0  0  0  0  0  0  0  0
   -6.9799    2.6525    8.4740 H   0  0  0  0  0  0  0  0  0  0  0  0
   -5.0879    2.2861    7.0238 H   0  0  0  0  0  0  0  0  0  0  0  0
  1  2  1  0  0  0  0
  2  3  1  0  0  0  0
  3  4  1  0  0  0  0
  4  5  1  0  0  0  0
  5  6  1  0  0  0  0
  6  7  2  0  0  0  0
  6  8  1  0  0  0  0
  2  8  2  0  0  0  0
  8  9  1  0  0  0  0
  9 10  2  0  0  0  0
 10  1  1  0  0  0  0
 10 11  1  0  0  0  0
 11 12  2  0  0  0  0
 12 13  1  0  0  0  0
 13 14  2  0  0  0  0
 14 15  1  0  0  0  0
 15 11  1  0  0  0  0
 15 16  1  0  0  0  0
 16 17  1  0  0  0  0
 17 18  1  0  0  0  0
 18 19  1  0  0  0  0
 19 20  1  0  0  0  0
 20 21  1  0  0  0  0
 21 17  1  0  0  0  0
 14 22  1  0  0  0  0
 22 23  1  0  0  0  0
 23 24  1  0  0  0  0
 24 25  1  0  0  0  0
 25 26  2  0  0  0  0
 26 27  1  0  0  0  0
 27 28  1  0  0  0  0
 28 29  1  0  0  0  0
 28 30  2  0  0  0  0
 27 31  2  0  0  0  0
 31 32  1  0  0  0  0
 32 24  2  0  0  0  0
 22 33  1  0  0  0  0
  4 34  2  0  0  0  0
 34 35  1  0  0  0  0
 35 36  2  0  0  0  0
 36 37  1  0  0  0  0
 37  3  2  0  0  0  0
  5 38  1  0  0  0  0
  9 39  1  0  0  0  0
 16 40  1  0  0  0  0
 16 41  1  0  0  0  0
 17 42  1  0  0  0  0
 18 43  1  0  0  0  0
 18 44  1  0  0  0  0
 20 45  1  0  0  0  0
 20 46  1  0  0  0  0
 21 47  1  0  0  0  0
 21 48  1  0  0  0  0
 23 49  1  0  0  0  0
 23 50  1  0  0  0  0
 25 51  1  0  0  0  0
 26 52  1  0  0  0  0
 31 53  1  0  0  0  0
 32 54  1  0  0  0  0
 33 55  1  0  0  0  0
 33 56  1  0  0  0  0
 33 57  1  0  0  0  0
 34 58  1  0  0  0  0
 35 59  1  0  0  0  0
 36 60  1  0  0  0  0
 37 61  1  0  0  0  0
M  CHG  2  28   1  29  -1
M  END
>  <result-rank>
31

>  <similarity>
0.875

>  <query-name>


>  <query-smiles>
S(=O)(=O)(NC(=O)C)c1ccc(cc1)C=2N3C(=NC(=C3)COc4nc5c(cc4)cccc5)C(=NC2)N6CCOCC6

>  <source>
REALspace_2019-12

>  <similarity-descriptor>
0.928;0.956;0.735;0.765;0.884;0.999;0.975;0.0;0.0;0.0;0.735;0.884;0.091

>  <similarity-descriptor-smiles>
NCc1ccccc1;CC1CCOC1;S1C=CC=C1;C=1NC=NN1;C1=CC(Ncc1)=O;c1ccccc1;[N+]([O-])=O;;;;S1C=CC=C1;C1=CC(Ncc1)=O;C

>  <reaction-name>
m_270942

>  <reagent1-name>
9828442

>  <reagent1-smiles>
[R3*]=C([R2*])N([R1*])CC1COCC1

>  <reagent2-name>
15151558

>  <reagent2-smiles>
[R2*]N(Cc1ccc([N+]([O-])=O)cc1)C

>  <reagent3-name>
14478696

>  <reagent3-smiles>
[R3*]=NN=C([R1*])C=1SC=2c3c(NC(=O)C2C1)cccc3

$$$$
m_274972____12934254____12615770____14723110
          04022017313D 1   1.00000     0.00000     0
            
 55 59  0  0  0  0            999 V2000
    0.4648    3.7275    2.5286 S   0  0  0  0  0  0  0  0  0  0  0  0
    0.6112    4.9918    1.8552 O   0  0  0  0  0  0  0  0  0  0  0  0
   -0.5328    2.9373    1.8547 O   0  0  0  0  0  0  0  0  0  0  0  0
    0.0043    3.9835    4.0711 N   0  0  0  0  0  0  0  0  0  0  0  0
    1.0227    4.7901    4.7590 C   0  0  0  0  0  0  0  0  0  0  0  0
   -1.2799    4.6986    4.0868 C   0  0  0  0  0  0  0  0  0  0  0  0
    1.9848    2.8811    2.5100 C   0  0  0  0  0  0  0  0  0  0  0  0
    3.1740    3.6024    2.5029 C   0  0  0  0  0  0  0  0  0  0  0  0
    4.3836    2.9156    2.4883 C   0  0  0  0  0  0  0  0  0  0  0  0
    4.3937    1.5243    2.4800 C   0  0  0  0  0  0  0  0  0  0  0  0
    3.2017    0.8072    2.4872 C   0  0  0  0  0  0  0  0  0  0  0  0
    1.9898    1.4900    2.5021 C   0  0  0  0  0  0  0  0  0  0  0  0
    5.6630    0.8199    2.4636 C   0  0  0  0  0  0  0  0  0  0  0  0
    7.2005    1.5463    2.4531 S   0  0  0  0  0  0  0  0  0  0  0  0
    8.1025    0.1015    2.4387 C   0  0  0  0  0  0  0  0  0  0  0  0
    7.1568   -0.8795    2.4461 C   0  0  0  0  0  0  0  0  0  0  0  0
    5.8488   -0.4812    2.4593 N   0  0  0  0  0  0  0  0  0  0  0  0
    7.5984   -2.2612    2.4297 C   0  0  0  0  0  0  0  0  0  0  0  0
    8.7587   -2.7403    2.9589 N   0  0  0  0  0  0  0  0  0  0  0  0
    8.7949   -3.9852    2.7515 N   0  0  0  0  0  0  0  0  0  0  0  0
    7.7215   -4.3858    2.1150 N   0  0  0  0  0  0  0  0  0  0  0  0
    7.4449   -5.7042    1.7327 C   0  0  0  0  0  0  0  0  0  0  0  0
    7.3431   -6.7249    2.6728 C   0  0  0  0  0  0  0  0  0  0  0  0
    7.5242   -6.4339    4.0820 C   0  0  0  0  0  0  0  0  0  0  0  0
    6.5624   -5.6939    4.7619 C   0  0  0  0  0  0  0  0  0  0  0  0
    6.7404   -5.4163    6.1134 C   0  0  0  0  0  0  0  0  0  0  0  0
    7.8730   -5.8790    6.7752 C   0  0  0  0  0  0  0  0  0  0  0  0
    8.8268   -6.6177    6.0859 C   0  0  0  0  0  0  0  0  0  0  0  0
    8.6607   -6.9014    4.7343 C   0  0  0  0  0  0  0  0  0  0  0  0
    7.0670   -8.0247    2.2608 C   0  0  0  0  0  0  0  0  0  0  0  0
    6.8943   -8.3040    0.9091 C   0  0  0  0  0  0  0  0  0  0  0  0
    6.9962   -7.2834   -0.0305 C   0  0  0  0  0  0  0  0  0  0  0  0
    7.2716   -5.9834    0.3816 C   0  0  0  0  0  0  0  0  0  0  0  0
    6.9236   -3.3084    1.8881 C   0  0  0  0  0  0  0  0  0  0  0  0
    0.7402    4.9472    5.7053 H   0  0  0  0  0  0  0  0  0  0  0  0
    1.8963    4.3037    4.7483 H   0  0  0  0  0  0  0  0  0  0  0  0
    1.1243    5.6682    4.2913 H   0  0  0  0  0  0  0  0  0  0  0  0
   -1.5625    4.8557    5.0331 H   0  0  0  0  0  0  0  0  0  0  0  0
   -1.1783    5.5766    3.6191 H   0  0  0  0  0  0  0  0  0  0  0  0
   -1.9727    4.1499    3.6188 H   0  0  0  0  0  0  0  0  0  0  0  0
    3.1597    4.6022    2.5083 H   0  0  0  0  0  0  0  0  0  0  0  0
    5.2459    3.4219    2.4837 H   0  0  0  0  0  0  0  0  0  0  0  0
    3.2159   -0.1927    2.4818 H   0  0  0  0  0  0  0  0  0  0  0  0
    1.1273    0.9839    2.5071 H   0  0  0  0  0  0  0  0  0  0  0  0
    9.0970   -0.0027    2.4273 H   0  0  0  0  0  0  0  0  0  0  0  0
    5.7491   -5.3638    4.2828 H   0  0  0  0  0  0  0  0  0  0  0  0
    6.0541   -4.8841    6.6091 H   0  0  0  0  0  0  0  0  0  0  0  0
    8.0007   -5.6800    7.7468 H   0  0  0  0  0  0  0  0  0  0  0  0
    9.6396   -6.9483    6.5656 H   0  0  0  0  0  0  0  0  0  0  0  0
    9.3477   -7.4331    4.2390 H   0  0  0  0  0  0  0  0  0  0  0  0
    6.9926   -8.7582    2.9364 H   0  0  0  0  0  0  0  0  0  0  0  0
    6.6969   -9.2385    0.6129 H   0  0  0  0  0  0  0  0  0  0  0  0
    6.8716   -7.4841   -1.0022 H   0  0  0  0  0  0  0  0  0  0  0  0
    7.3448   -5.2497   -0.2940 H   0  0  0  0  0  0  0  0  0  0  0  0
    6.0372   -3.2908    1.4255 H   0  0  0  0  0  0  0  0  0  0  0  0
  1  2  2  0  0  0  0
  1  3  2  0  0  0  0
  1  4  1  0  0  0  0
  4  5  1  0  0  0  0
  4  6  1  0  0  0  0
  1  7  1  0  0  0  0
  7  8  1  0  0  0  0
  8  9  2  0  0  0  0
  9 10  1  0  0  0  0
 10 11  2  0  0  0  0
 11 12  1  0  0  0  0
 12  7  2  0  0  0  0
 10 13  1  0  0  0  0
 13 14  1  0  0  0  0
 14 15  1  0  0  0  0
 15 16  2  0  0  0  0
 16 17  1  0  0  0  0
 13 17  2  0  0  0  0
 16 18  1  0  0  0  0
 18 19  1  0  0  0  0
 19 20  2  0  0  0  0
 20 21  1  0  0  0  0
 21 22  1  0  0  0  0
 22 23  1  0  0  0  0
 23 24  1  0  0  0  0
 24 25  1  0  0  0  0
 25 26  2  0  0  0  0
 26 27  1  0  0  0  0
 27 28  2  0  0  0  0
 28 29  1  0  0  0  0
 29 24  2  0  0  0  0
 23 30  2  0  0  0  0
 30 31  1  0  0  0  0
 31 32  2  0  0  0  0
 32 33  1  0  0  0  0
 33 22  2  0  0  0  0
 21 34  1  0  0  0  0
 18 34  2  0  0  0  0
  5 35  1  0  0  0  0
  5 36  1  0  0  0  0
  5 37  1  0  0  0  0
  6 38  1  0  0  0  0
  6 39  1  0  0  0  0
  6 40  1  0  0  0  0
  8 41  1  0  0  0  0
  9 42  1  0  0  0  0
 11 43  1  0  0  0  0
 12 44  1  0  0  0  0
 15 45  1  0  0  0  0
 25 46  1  0  0  0  0
 26 47  1  0  0  0  0
 27 48  1  0  0  0  0
 28 49  1  0  0  0  0
 29 50  1  0  0  0  0
 30 51  1  0  0  0  0
 31 52  1  0  0  0  0
 32 53  1  0  0  0  0
 33 54  1  0  0  0  0
 34 55  1  0  0  0  0
M  END
>  <result-rank>
32

>  <similarity>
0.875

>  <query-name>


>  <query-smiles>
S(=O)(=O)(NC(=O)C)c1ccc(cc1)C=2N3C(=NC(=C3)COc4nc5c(cc4)cccc5)C(=NC2)N6CCOCC6

>  <source>
REALspace_2019-12

>  <similarity-descriptor>
1.000;0.0;0.889;0.976;0.775;0.942;1.000;0.528;0.528;0.995;0.889;0.889;0.0

>  <similarity-descriptor-smiles>
c1ccccc1;;C1=CNN=N1;C1=NC=CS1;c1ccccc1;c1ccccc1;S(=O)=O;NC;NC;C;C1=CNN=N1;C1=CNN=N1;

>  <reaction-name>
m_274972

>  <reagent1-name>
12934254

>  <reagent1-smiles>
[R1*]SC(=N[R2*])c1ccc(S(=O)(=O)N(C)C)cc1

>  <reagent2-name>
12615770

>  <reagent2-smiles>
[R2*]C(C([R3*])=C[R4*])=C[R1*]

>  <reagent3-name>
14723110

>  <reagent3-smiles>
[R3*]N=NN([R4*])c1c(c2ccccc2)cccc1

$$$$
m_274972____12934338____12615770____13047098
          04022017313D 1   1.00000     0.00000     0
            
 57 61  0  0  0  0            999 V2000
    7.2001    1.5470    2.4514 S   0  0  0  0  0  0  0  0  0  0  0  0
    5.6629    0.8199    2.4636 C   0  0  0  0  0  0  0  0  0  0  0  0
    5.8493   -0.4811    2.4614 N   0  0  0  0  0  0  0  0  0  0  0  0
    7.1575   -0.8788    2.4485 C   0  0  0  0  0  0  0  0  0  0  0  0
    7.5993   -2.2594    2.4343 C   0  0  0  0  0  0  0  0  0  0  0  0
    8.8922   -2.6848    2.4121 N   0  0  0  0  0  0  0  0  0  0  0  0
    8.8739   -3.9476    2.4047 N   0  0  0  0  0  0  0  0  0  0  0  0
    7.6479   -4.4098    2.4188 N   0  0  0  0  0  0  0  0  0  0  0  0
    6.7922   -3.3555    2.4369 C   0  0  0  0  0  0  0  0  0  0  0  0
    7.2656   -5.8290    2.4137 C   0  0  0  0  0  0  0  0  0  0  0  0
    7.1544   -6.3290    3.8448 C   0  0  0  0  0  0  0  0  0  0  0  0
    6.7718   -7.7489    3.8397 N   0  0  0  0  0  0  0  0  0  0  0  0
    7.7217   -8.7389    3.8187 C   0  0  0  0  0  0  0  0  0  0  0  0
    8.8980   -8.4091    3.8030 O   0  0  0  0  0  0  0  0  0  0  0  0
    7.3226  -10.1052    3.8148 C   0  0  0  0  0  0  0  0  0  0  0  0
    5.9630  -10.4047    3.8328 C   0  0  0  0  0  0  0  0  0  0  0  0
    5.5226  -11.7241    3.8303 C   0  0  0  0  0  0  0  0  0  0  0  0
    6.4562  -12.7546    3.8091 C   0  0  0  0  0  0  0  0  0  0  0  0
    7.8205  -12.4833    3.7906 C   0  0  0  0  0  0  0  0  0  0  0  0
    8.2362  -11.1566    3.7929 C   0  0  0  0  0  0  0  0  0  0  0  0
    5.0037   -9.3563    3.8546 C   0  0  0  0  0  0  0  0  0  0  0  0
    5.4356   -8.0548    3.8576 C   0  0  0  0  0  0  0  0  0  0  0  0
    8.1028    0.1026    2.4391 C   0  0  0  0  0  0  0  0  0  0  0  0
    4.3934    1.5238    2.4792 C   0  0  0  0  0  0  0  0  0  0  0  0
    4.3898    2.9144    2.4850 C   0  0  0  0  0  0  0  0  0  0  0  0
    3.1783    3.5981    2.5011 C   0  0  0  0  0  0  0  0  0  0  0  0
    1.9856    2.8824    2.5103 C   0  0  0  0  0  0  0  0  0  0  0  0
    0.8052    3.5371    2.5243 O   0  0  0  0  0  0  0  0  0  0  0  0
    0.7807    4.9569    2.5297 C   0  0  0  0  0  0  0  0  0  0  0  0
   -0.6608    5.4387    2.5457 C   0  0  0  0  0  0  0  0  0  0  0  0
   -0.6853    6.8585    2.5511 O   0  0  0  0  0  0  0  0  0  0  0  0
   -2.0320    7.3086    2.5660 C   0  0  0  0  0  0  0  0  0  0  0  0
    1.9898    1.4913    2.5046 C   0  0  0  0  0  0  0  0  0  0  0  0
    3.2009    0.8075    2.4890 C   0  0  0  0  0  0  0  0  0  0  0  0
    5.7926   -3.3790    2.4494 H   0  0  0  0  0  0  0  0  0  0  0  0
    7.9604   -6.3597    1.9283 H   0  0  0  0  0  0  0  0  0  0  0  0
    6.3838   -5.9351    1.9541 H   0  0  0  0  0  0  0  0  0  0  0  0
    8.0361   -6.2229    4.3044 H   0  0  0  0  0  0  0  0  0  0  0  0
    6.4595   -5.7983    4.3302 H   0  0  0  0  0  0  0  0  0  0  0  0
    4.5440  -11.9296    3.8436 H   0  0  0  0  0  0  0  0  0  0  0  0
    6.1423  -13.7041    3.8072 H   0  0  0  0  0  0  0  0  0  0  0  0
    8.4885  -13.2273    3.7759 H   0  0  0  0  0  0  0  0  0  0  0  0
    9.2150  -10.9521    3.7785 H   0  0  0  0  0  0  0  0  0  0  0  0
    4.0258   -9.5652    3.8675 H   0  0  0  0  0  0  0  0  0  0  0  0
    4.7631   -7.3148    3.8732 H   0  0  0  0  0  0  0  0  0  0  0  0
    9.0973   -0.0013    2.4277 H   0  0  0  0  0  0  0  0  0  0  0  0
    5.2527    3.4198    2.4778 H   0  0  0  0  0  0  0  0  0  0  0  0
    3.1650    4.5980    2.5060 H   0  0  0  0  0  0  0  0  0  0  0  0
    1.2382    5.3012    1.7099 H   0  0  0  0  0  0  0  0  0  0  0  0
    1.2543    5.2953    3.3428 H   0  0  0  0  0  0  0  0  0  0  0  0
   -1.1345    5.1002    1.7326 H   0  0  0  0  0  0  0  0  0  0  0  0
   -1.1183    5.0943    3.3655 H   0  0  0  0  0  0  0  0  0  0  0  0
   -2.0492    8.3085    2.5698 H   0  0  0  0  0  0  0  0  0  0  0  0
   -2.5056    6.9702    1.7529 H   0  0  0  0  0  0  0  0  0  0  0  0
   -2.4895    6.9643    3.3858 H   0  0  0  0  0  0  0  0  0  0  0  0
    1.1270    0.9859    2.5117 H   0  0  0  0  0  0  0  0  0  0  0  0
    3.2144   -0.1924    2.4849 H   0  0  0  0  0  0  0  0  0  0  0  0
  1  2  1  0  0  0  0
  2  3  2  0  0  0  0
  3  4  1  0  0  0  0
  4  5  1  0  0  0  0
  5  6  1  0  0  0  0
  6  7  2  0  0  0  0
  7  8  1  0  0  0  0
  8  9  1  0  0  0  0
  5  9  2  0  0  0  0
  8 10  1  0  0  0  0
 10 11  1  0  0  0  0
 11 12  1  0  0  0  0
 12 13  1  0  0  0  0
 13 14  2  0  0  0  0
 13 15  1  0  0  0  0
 15 16  1  0  0  0  0
 16 17  2  0  0  0  0
 17 18  1  0  0  0  0
 18 19  2  0  0  0  0
 19 20  1  0  0  0  0
 20 15  2  0  0  0  0
 16 21  1  0  0  0  0
 21 22  2  0  0  0  0
 22 12  1  0  0  0  0
  4 23  2  0  0  0  0
 23  1  1  0  0  0  0
  2 24  1  0  0  0  0
 24 25  1  0  0  0  0
 25 26  2  0  0  0  0
 26 27  1  0  0  0  0
 27 28  1  0  0  0  0
 28 29  1  0  0  0  0
 29 30  1  0  0  0  0
 30 31  1  0  0  0  0
 31 32  1  0  0  0  0
 27 33  2  0  0  0  0
 33 34  1  0  0  0  0
 34 24  2  0  0  0  0
  9 35  1  0  0  0  0
 10 36  1  0  0  0  0
 10 37  1  0  0  0  0
 11 38  1  0  0  0  0
 11 39  1  0  0  0  0
 17 40  1  0  0  0  0
 18 41  1  0  0  0  0
 19 42  1  0  0  0  0
 20 43  1  0  0  0  0
 21 44  1  0  0  0  0
 22 45  1  0  0  0  0
 23 46  1  0  0  0  0
 25 47  1  0  0  0  0
 26 48  1  0  0  0  0
 29 49  1  0  0  0  0
 29 50  1  0  0  0  0
 30 51  1  0  0  0  0
 30 52  1  0  0  0  0
 32 53  1  0  0  0  0
 32 54  1  0  0  0  0
 32 55  1  0  0  0  0
 33 56  1  0  0  0  0
 34 57  1  0  0  0  0
M  END
>  <result-rank>
33

>  <similarity>
0.874

>  <query-name>


>  <query-smiles>
S(=O)(=O)(NC(=O)C)c1ccc(cc1)C=2N3C(=NC(=C3)COc4nc5c(cc4)cccc5)C(=NC2)N6CCOCC6

>  <source>
REALspace_2019-12

>  <similarity-descriptor>
0.999;0.0;0.832;0.976;0.952;1.000;0.542;0.737;0.737;0.994;0.667;0.952;0.0

>  <similarity-descriptor-smiles>
c1ccccc1;;C1=CNN=N1;S1C=CN=C1;N1C=CccC1=O;c1ccccc1;OC;CO;CO;C;CC;N1C=CccC1=O;

>  <reaction-name>
m_274972

>  <reagent1-name>
12934338

>  <reagent1-smiles>
[R1*]SC(=N[R2*])c1ccc(OCCOC)cc1

>  <reagent2-name>
12615770

>  <reagent2-smiles>
[R2*]C(C([R3*])=C[R4*])=C[R1*]

>  <reagent3-name>
13047098

>  <reagent3-smiles>
[R3*]N=NN([R4*])CCN1C(=O)c2c(cccc2)C=C1

$$$$
m_274972____12934192____12615770____16521756
          04022017313D 1   1.00000     0.00000     0
            
 43 46  0  0  0  0            999 V2000
   -4.2547   -4.4562    2.6258 Cl  0  0  0  0  0  0  0  0  0  0  0  0
   -2.5104   -4.1033    2.5931 C   0  0  0  0  0  0  0  0  0  0  0  0
   -1.6009   -5.0894    2.5804 N   0  0  0  0  0  0  0  0  0  0  0  0
   -0.2855   -4.8291    2.5549 C   0  0  0  0  0  0  0  0  0  0  0  0
    0.1834   -3.5199    2.5421 C   0  0  0  0  0  0  0  0  0  0  0  0
   -0.7457   -2.4846    2.5551 C   0  0  0  0  0  0  0  0  0  0  0  0
   -0.3116   -1.1535    2.5421 N   0  0  0  0  0  0  0  0  0  0  0  0
   -1.0880   -0.0976    2.5522 N   0  0  0  0  0  0  0  0  0  0  0  0
   -0.4059    0.9647    2.5333 N   0  0  0  0  0  0  0  0  0  0  0  0
    0.9111    0.6164    2.5151 C   0  0  0  0  0  0  0  0  0  0  0  0
    2.0375    1.5302    2.4908 C   0  0  0  0  0  0  0  0  0  0  0  0
    3.3498    1.1464    2.4729 N   0  0  0  0  0  0  0  0  0  0  0  0
    4.2182    2.1329    2.4615 C   0  0  0  0  0  0  0  0  0  0  0  0
    3.3303    3.5831    2.4714 S   0  0  0  0  0  0  0  0  0  0  0  0
    1.7841    2.8690    2.4950 C   0  0  0  0  0  0  0  0  0  0  0  0
    5.6642    2.0267    2.4390 C   0  0  0  0  0  0  0  0  0  0  0  0
    6.2577    0.7683    2.4333 C   0  0  0  0  0  0  0  0  0  0  0  0
    7.6437    0.6529    2.4108 C   0  0  0  0  0  0  0  0  0  0  0  0
    8.4200    1.8069    2.3952 C   0  0  0  0  0  0  0  0  0  0  0  0
   10.2247    1.6719    2.3661 S   0  0  0  0  0  0  0  0  0  0  0  0
   10.8020    2.8102    3.0328 O   0  0  0  0  0  0  0  0  0  0  0  0
   10.6267    0.4653    3.0415 O   0  0  0  0  0  0  0  0  0  0  0  0
   10.7414    1.6275    0.8208 N   0  0  0  0  0  0  0  0  0  0  0  0
   12.2071    1.5178    0.7972 C   0  0  0  0  0  0  0  0  0  0  0  0
    7.8313    3.0673    2.4012 C   0  0  0  0  0  0  0  0  0  0  0  0
    6.4448    3.1781    2.4235 C   0  0  0  0  0  0  0  0  0  0  0  0
    0.9835   -0.7400    2.5176 C   0  0  0  0  0  0  0  0  0  0  0  0
   -2.1063   -2.7722    2.5807 C   0  0  0  0  0  0  0  0  0  0  0  0
    1.6755   -3.2310    2.5139 C   0  0  0  0  0  0  0  0  0  0  0  0
    2.4620   -4.1372    2.5031 O   0  0  0  0  0  0  0  0  0  0  0  0
    0.3670   -5.5868    2.5451 H   0  0  0  0  0  0  0  0  0  0  0  0
    0.8951    3.3268    2.5089 H   0  0  0  0  0  0  0  0  0  0  0  0
    5.6878   -0.0533    2.4453 H   0  0  0  0  0  0  0  0  0  0  0  0
    8.0766   -0.2485    2.4058 H   0  0  0  0  0  0  0  0  0  0  0  0
   10.4622    2.4654    0.3518 H   0  0  0  0  0  0  0  0  0  0  0  0
   12.5241    1.4906   -0.1508 H   0  0  0  0  0  0  0  0  0  0  0  0
   12.6080    2.3083    1.2602 H   0  0  0  0  0  0  0  0  0  0  0  0
   12.4863    0.6799    1.2662 H   0  0  0  0  0  0  0  0  0  0  0  0
    8.4014    3.8888    2.3896 H   0  0  0  0  0  0  0  0  0  0  0  0
    6.0120    4.0795    2.4284 H   0  0  0  0  0  0  0  0  0  0  0  0
    1.8064   -1.3082    2.5044 H   0  0  0  0  0  0  0  0  0  0  0  0
   -2.7820   -2.0351    2.5900 H   0  0  0  0  0  0  0  0  0  0  0  0
    2.0016   -2.2857    2.5045 H   0  0  0  0  0  0  0  0  0  0  0  0
  1  2  1  0  0  0  0
  2  3  1  0  0  0  0
  3  4  2  0  0  0  0
  4  5  1  0  0  0  0
  5  6  2  0  0  0  0
  6  7  1  0  0  0  0
  7  8  1  0  0  0  0
  8  9  2  0  0  0  0
  9 10  1  0  0  0  0
 10 11  1  0  0  0  0
 11 12  1  0  0  0  0
 12 13  2  0  0  0  0
 13 14  1  0  0  0  0
 14 15  1  0  0  0  0
 11 15  2  0  0  0  0
 13 16  1  0  0  0  0
 16 17  1  0  0  0  0
 17 18  2  0  0  0  0
 18 19  1  0  0  0  0
 19 20  1  0  0  0  0
 20 21  2  0  0  0  0
 20 22  2  0  0  0  0
 20 23  1  0  0  0  0
 23 24  1  0  0  0  0
 19 25  2  0  0  0  0
 25 26  1  0  0  0  0
 26 16  2  0  0  0  0
 10 27  2  0  0  0  0
 27  7  1  0  0  0  0
  6 28  1  0  0  0  0
 28  2  2  0  0  0  0
  5 29  1  0  0  0  0
 29 30  2  0  0  0  0
  4 31  1  0  0  0  0
 15 32  1  0  0  0  0
 17 33  1  0  0  0  0
 18 34  1  0  0  0  0
 23 35  1  0  0  0  0
 24 36  1  0  0  0  0
 24 37  1  0  0  0  0
 24 38  1  0  0  0  0
 25 39  1  0  0  0  0
 26 40  1  0  0  0  0
 27 41  1  0  0  0  0
 28 42  1  0  0  0  0
 29 43  1  0  0  0  0
M  END
>  <result-rank>
34

>  <similarity>
0.874

>  <query-name>


>  <query-smiles>
S(=O)(=O)(NC(=O)C)c1ccc(cc1)C=2N3C(=NC(=C3)COc4nc5c(cc4)cccc5)C(=NC2)N6CCOCC6

>  <source>
REALspace_2019-12

>  <similarity-descriptor>
1.000;0.0;0.889;0.976;0.939;0.0;1.000;0.733;0.733;0.733;0.889;0.889;0.125

>  <similarity-descriptor-smiles>
c1ccccc1;;N1C=CN=N1;C1=CSC=N1;Clc1ccccn1;;S(=O)=O;NC;NC;NC;N1C=CN=N1;N1C=CN=N1;C=O

>  <reaction-name>
m_274972

>  <reagent1-name>
12934192

>  <reagent1-smiles>
[R1*]SC(=N[R2*])c1ccc(S(=O)(=O)NC)cc1

>  <reagent2-name>
12615770

>  <reagent2-smiles>
[R2*]C(C([R3*])=C[R4*])=C[R1*]

>  <reagent3-name>
16521756

>  <reagent3-smiles>
[R3*]N=NN([R4*])c1c(cnc(Cl)c1)C=O

$$$$
s_11a____9193456____132801
          04022017313D 1   1.00000     0.00000     0
            
 54 59  0  0  0  0            999 V2000
    4.7700   -0.3417    1.0000 S   0  0  0  0  0  0  0  0  0  0  0  0
    3.0712   -0.2145    1.0000 C   0  0  0  0  0  0  0  0  0  0  0  0
    2.6008   -1.4356    0.9903 N   0  0  0  0  0  0  0  0  0  0  0  0
    3.4983   -2.4092    0.9881 N   0  0  0  0  0  0  0  0  0  0  0  0
    4.7559   -2.0417    0.9965 C   0  0  0  0  0  0  0  0  0  0  0  0
    5.9275   -2.8966    0.9977 C   0  0  0  0  0  0  0  0  0  0  0  0
    5.9138   -4.2079    0.9904 O   0  0  0  0  0  0  0  0  0  0  0  0
    7.1402   -4.6884    0.9924 C   0  0  0  0  0  0  0  0  0  0  0  0
    8.0187   -3.6307    0.9994 C   0  0  0  0  0  0  0  0  0  0  0  0
    9.3883   -3.8749    1.0057 C   0  0  0  0  0  0  0  0  0  0  0  0
    9.8867   -5.1739    1.0073 C   0  0  0  0  0  0  0  0  0  0  0  0
    8.9983   -6.2446    1.0013 C   0  0  0  0  0  0  0  0  0  0  0  0
    7.6305   -5.9909    0.9949 C   0  0  0  0  0  0  0  0  0  0  0  0
    7.2193   -2.4664    1.0019 C   0  0  0  0  0  0  0  0  0  0  0  0
    2.3700    1.0000    1.0000 N   0  0  0  0  0  0  0  0  0  0  0  0
    1.0000    1.0000    1.0000 C   0  0  0  0  0  0  0  0  0  0  0  0
    0.4000   -0.0392    1.0000 O   0  0  0  0  0  0  0  0  0  0  0  0
    0.2745    2.2566    1.0000 C   0  0  0  0  0  0  0  0  0  0  0  0
   -1.3054    2.5103    1.5789 S   0  0  0  0  0  0  0  0  0  0  0  0
   -1.3835    4.1731    1.2195 C   0  0  0  0  0  0  0  0  0  0  0  0
   -2.4854    5.0151    1.4662 N   0  0  0  0  0  0  0  0  0  0  0  0
   -3.5591    5.2255    0.4826 C   0  0  0  0  0  0  0  0  0  0  0  0
   -4.1704    6.5991    0.7036 C   0  0  0  0  0  0  0  0  0  0  0  0
   -4.7831    6.7341    1.9832 O   0  0  0  0  0  0  0  0  0  0  0  0
   -4.1397    5.9708    2.9987 C   0  0  0  0  0  0  0  0  0  0  0  0
   -2.6589    5.7548    2.7239 C   0  0  0  0  0  0  0  0  0  0  0  0
   -0.1953    4.5278    0.6546 C   0  0  0  0  0  0  0  0  0  0  0  0
    0.0752    5.8865    0.2256 C   0  0  0  0  0  0  0  0  0  0  0  0
    0.3470    6.8673    1.1738 C   0  0  0  0  0  0  0  0  0  0  0  0
    0.6050    8.1695    0.7579 C   0  0  0  0  0  0  0  0  0  0  0  0
    0.5914    8.4825   -0.5973 C   0  0  0  0  0  0  0  0  0  0  0  0
    0.3191    7.4944   -1.5355 C   0  0  0  0  0  0  0  0  0  0  0  0
    0.0589    6.1888   -1.1324 C   0  0  0  0  0  0  0  0  0  0  0  0
    0.7242    3.4538    0.5348 C   0  0  0  0  0  0  0  0  0  0  0  0
   10.0252   -3.1039    1.0091 H   0  0  0  0  0  0  0  0  0  0  0  0
   10.8734   -5.3363    1.0126 H   0  0  0  0  0  0  0  0  0  0  0  0
    9.3388   -7.1848    1.0017 H   0  0  0  0  0  0  0  0  0  0  0  0
    6.9885   -6.7577    0.9921 H   0  0  0  0  0  0  0  0  0  0  0  0
    7.5375   -1.5184    1.0060 H   0  0  0  0  0  0  0  0  0  0  0  0
    2.8700    1.8660    1.0000 H   0  0  0  0  0  0  0  0  0  0  0  0
   -4.2617    4.5234    0.5978 H   0  0  0  0  0  0  0  0  0  0  0  0
   -3.1821    5.1712   -0.4421 H   0  0  0  0  0  0  0  0  0  0  0  0
   -3.4488    7.2865    0.6213 H   0  0  0  0  0  0  0  0  0  0  0  0
   -4.8631    6.7571   -0.0001 H   0  0  0  0  0  0  0  0  0  0  0  0
   -4.5870    5.0785    3.0596 H   0  0  0  0  0  0  0  0  0  0  0  0
   -4.2362    6.4522    3.8698 H   0  0  0  0  0  0  0  0  0  0  0  0
   -2.2022    6.6416    2.6526 H   0  0  0  0  0  0  0  0  0  0  0  0
   -2.2554    5.2315    3.4745 H   0  0  0  0  0  0  0  0  0  0  0  0
    0.3568    6.6381    2.1471 H   0  0  0  0  0  0  0  0  0  0  0  0
    0.8004    8.8806    1.4334 H   0  0  0  0  0  0  0  0  0  0  0  0
    0.7775    9.4184   -0.8963 H   0  0  0  0  0  0  0  0  0  0  0  0
    0.3102    7.7239   -2.5087 H   0  0  0  0  0  0  0  0  0  0  0  0
   -0.1370    5.4783   -1.8083 H   0  0  0  0  0  0  0  0  0  0  0  0
    1.6350    3.5681    0.1380 H   0  0  0  0  0  0  0  0  0  0  0  0
  1  2  1  0  0  0  0
  2  3  2  0  0  0  0
  3  4  1  0  0  0  0
  4  5  2  0  0  0  0
  5  1  1  0  0  0  0
  5  6  1  0  0  0  0
  6  7  1  0  0  0  0
  7  8  1  0  0  0  0
  8  9  1  0  0  0  0
  9 10  2  0  0  0  0
 10 11  1  0  0  0  0
 11 12  2  0  0  0  0
 12 13  1  0  0  0  0
 13  8  2  0  0  0  0
  9 14  1  0  0  0  0
  6 14  2  0  0  0  0
  2 15  1  0  0  0  0
 15 16  1  0  0  0  0
 16 17  2  0  0  0  0
 16 18  1  0  0  0  0
 18 19  1  0  0  0  0
 19 20  1  0  0  0  0
 20 21  1  0  0  0  0
 21 22  1  0  0  0  0
 22 23  1  0  0  0  0
 23 24  1  0  0  0  0
 24 25  1  0  0  0  0
 25 26  1  0  0  0  0
 26 21  1  0  0  0  0
 20 27  2  0  0  0  0
 27 28  1  0  0  0  0
 28 29  1  0  0  0  0
 29 30  2  0  0  0  0
 30 31  1  0  0  0  0
 31 32  2  0  0  0  0
 32 33  1  0  0  0  0
 33 28  2  0  0  0  0
 27 34  1  0  0  0  0
 18 34  2  0  0  0  0
 10 35  1  0  0  0  0
 11 36  1  0  0  0  0
 12 37  1  0  0  0  0
 13 38  1  0  0  0  0
 14 39  1  0  0  0  0
 15 40  1  0  0  0  0
 22 41  1  0  0  0  0
 22 42  1  0  0  0  0
 23 43  1  0  0  0  0
 23 44  1  0  0  0  0
 25 45  1  0  0  0  0
 25 46  1  0  0  0  0
 26 47  1  0  0  0  0
 26 48  1  0  0  0  0
 29 49  1  0  0  0  0
 30 50  1  0  0  0  0
 31 51  1  0  0  0  0
 32 52  1  0  0  0  0
 33 53  1  0  0  0  0
 34 54  1  0  0  0  0
M  END
>  <result-rank>
35

>  <similarity>
0.873

>  <query-name>


>  <query-smiles>
S(=O)(=O)(NC(=O)C)c1ccc(cc1)C=2N3C(=NC(=C3)COc4nc5c(cc4)cccc5)C(=NC2)N6CCOCC6

>  <source>
REALspace_2019-12

>  <similarity-descriptor>
0.959;1.000;0.906;0.687;0.885;0.999;0.0;0.0;0.0;0.0;0.906;0.906;0.0

>  <similarity-descriptor-smiles>
c1ccccc1;N1CCOCC1;S1C=NN=C1;NC(=O)C1=CC=CS1;C1=CccO1;c1ccccc1;;;;;S1C=NN=C1;S1C=NN=C1;

>  <reaction-name>
s_11a

>  <reagent1-name>
9193456

>  <reagent1-smiles>
[R1*]NC=1SC(=NN1)C=2Oc3c(cccc3)C2

>  <reagent2-name>
132801

>  <reagent2-smiles>
[R1*]C(=O)C=1SC(N2CCOCC2)=C(c3ccccc3)C1

$$$$
m_271722____10195368____11366618
          04022017313D 1   1.00000     0.00000     0
            
 60 65  0  0  0  0            999 V2000
    4.6920    1.7154    1.0029 S   0  0  0  0  0  0  0  0  0  0  0  0
    4.4407    0.0336    0.9832 C   0  0  0  0  0  0  0  0  0  0  0  0
    5.5006   -0.9561    0.9645 C   0  0  0  0  0  0  0  0  0  0  0  0
    6.8290   -0.5433    0.9618 C   0  0  0  0  0  0  0  0  0  0  0  0
    7.8425   -1.4959    0.9429 C   0  0  0  0  0  0  0  0  0  0  0  0
    7.5243   -2.8498    0.9283 C   0  0  0  0  0  0  0  0  0  0  0  0
    6.1939   -3.2506    0.9316 C   0  0  0  0  0  0  0  0  0  0  0  0
    5.1713   -2.3078    0.9498 C   0  0  0  0  0  0  0  0  0  0  0  0
    3.0984   -0.1984    0.9856 C   0  0  0  0  0  0  0  0  0  0  0  0
    2.3410    1.0000    1.0000 C   0  0  0  0  0  0  0  0  0  0  0  0
    1.0000    1.0000    1.0000 O   0  0  0  0  0  0  0  0  0  0  0  0
    0.2900   -0.2297    0.9866 C   0  0  0  0  0  0  0  0  0  0  0  0
   -1.2044    0.0480    0.9896 C   0  0  0  0  0  0  0  0  0  0  0  0
   -1.6044    1.1794    1.0020 O   0  0  0  0  0  0  0  0  0  0  0  0
   -2.1130   -1.0146    0.9781 N   0  0  0  0  0  0  0  0  0  0  0  0
   -3.5537   -0.7126    0.9814 C   0  0  0  0  0  0  0  0  0  0  0  0
   -4.3567   -1.7784    1.7139 C   0  0  0  0  0  0  0  0  0  0  0  0
   -3.9516   -3.1858    1.3023 C   0  0  0  0  0  0  0  0  0  0  0  0
   -2.4933   -3.3563    1.7030 C   0  0  0  0  0  0  0  0  0  0  0  0
   -1.5799   -2.3866    0.9664 C   0  0  0  0  0  0  0  0  0  0  0  0
    3.0483    2.1689    1.0127 C   0  0  0  0  0  0  0  0  0  0  0  0
    2.5236    3.5203    1.0357 C   0  0  0  0  0  0  0  0  0  0  0  0
    1.2534    3.8477    1.0484 O   0  0  0  0  0  0  0  0  0  0  0  0
    1.1967    5.1588    1.0686 C   0  0  0  0  0  0  0  0  0  0  0  0
    2.4173    5.6400    1.0688 N   0  0  0  0  0  0  0  0  0  0  0  0
    3.2436    4.6185    1.0492 N   0  0  0  0  0  0  0  0  0  0  0  0
   -0.0201    5.9500    1.0861 C   0  0  0  0  0  0  0  0  0  0  0  0
    0.0047    7.2930    1.1065 N   0  0  0  0  0  0  0  0  0  0  0  0
   -1.1159    8.0339    1.1227 C   0  0  0  0  0  0  0  0  0  0  0  0
   -2.3613    7.4111    1.1186 C   0  0  0  0  0  0  0  0  0  0  0  0
   -2.4158    6.0213    1.0976 C   0  0  0  0  0  0  0  0  0  0  0  0
   -1.2389    5.2790    1.0815 C   0  0  0  0  0  0  0  0  0  0  0  0
   -3.5398    8.1497    1.1347 C   0  0  0  0  0  0  0  0  0  0  0  0
   -3.4641    9.5384    1.1558 C   0  0  0  0  0  0  0  0  0  0  0  0
   -2.2327   10.1849    1.1602 C   0  0  0  0  0  0  0  0  0  0  0  0
   -1.0681    9.4243    1.1437 C   0  0  0  0  0  0  0  0  0  0  0  0
    7.0537    0.4311    0.9734 H   0  0  0  0  0  0  0  0  0  0  0  0
    8.7999   -1.2073    0.9399 H   0  0  0  0  0  0  0  0  0  0  0  0
    8.2528   -3.5347    0.9154 H   0  0  0  0  0  0  0  0  0  0  0  0
    5.9696   -4.2251    0.9209 H   0  0  0  0  0  0  0  0  0  0  0  0
    4.2140   -2.5971    0.9522 H   0  0  0  0  0  0  0  0  0  0  0  0
    2.6924   -1.1123    0.9781 H   0  0  0  0  0  0  0  0  0  0  0  0
    0.5316   -0.7629    1.7974 H   0  0  0  0  0  0  0  0  0  0  0  0
    0.5316   -0.7451    0.1645 H   0  0  0  0  0  0  0  0  0  0  0  0
   -3.8748   -0.6591    0.0358 H   0  0  0  0  0  0  0  0  0  0  0  0
   -3.6982    0.1680    1.4327 H   0  0  0  0  0  0  0  0  0  0  0  0
   -5.3267   -1.6491    1.5083 H   0  0  0  0  0  0  0  0  0  0  0  0
   -4.2078   -1.6748    2.6973 H   0  0  0  0  0  0  0  0  0  0  0  0
   -4.0528   -3.2983    0.3138 H   0  0  0  0  0  0  0  0  0  0  0  0
   -4.5198   -3.8599    1.7744 H   0  0  0  0  0  0  0  0  0  0  0  0
   -2.4082   -3.1957    2.6864 H   0  0  0  0  0  0  0  0  0  0  0  0
   -2.2081   -4.2913    1.4922 H   0  0  0  0  0  0  0  0  0  0  0  0
   -0.6826   -2.3887    1.4079 H   0  0  0  0  0  0  0  0  0  0  0  0
   -1.4853   -2.6887    0.0178 H   0  0  0  0  0  0  0  0  0  0  0  0
   -3.3008    5.5556    1.0941 H   0  0  0  0  0  0  0  0  0  0  0  0
   -1.2687    4.2796    1.0669 H   0  0  0  0  0  0  0  0  0  0  0  0
   -4.4276    7.6895    1.1311 H   0  0  0  0  0  0  0  0  0  0  0  0
   -4.3055   10.0786    1.1680 H   0  0  0  0  0  0  0  0  0  0  0  0
   -2.1851   11.1837    1.1750 H   0  0  0  0  0  0  0  0  0  0  0  0
   -0.1805    9.8851    1.1470 H   0  0  0  0  0  0  0  0  0  0  0  0
  1  2  1  0  0  0  0
  2  3  1  0  0  0  0
  3  4  1  0  0  0  0
  4  5  2  0  0  0  0
  5  6  1  0  0  0  0
  6  7  2  0  0  0  0
  7  8  1  0  0  0  0
  8  3  2  0  0  0  0
  2  9  2  0  0  0  0
  9 10  1  0  0  0  0
 10 11  1  0  0  0  0
 11 12  1  0  0  0  0
 12 13  1  0  0  0  0
 13 14  2  0  0  0  0
 13 15  1  0  0  0  0
 15 16  1  0  0  0  0
 16 17  1  0  0  0  0
 17 18  1  0  0  0  0
 18 19  1  0  0  0  0
 19 20  1  0  0  0  0
 20 15  1  0  0  0  0
 10 21  2  0  0  0  0
 21  1  1  0  0  0  0
 21 22  1  0  0  0  0
 22 23  1  0  0  0  0
 23 24  1  0  0  0  0
 24 25  2  0  0  0  0
 25 26  1  0  0  0  0
 22 26  2  0  0  0  0
 24 27  1  0  0  0  0
 27 28  1  0  0  0  0
 28 29  2  0  0  0  0
 29 30  1  0  0  0  0
 30 31  2  0  0  0  0
 31 32  1  0  0  0  0
 32 27  2  0  0  0  0
 30 33  1  0  0  0  0
 33 34  2  0  0  0  0
 34 35  1  0  0  0  0
 35 36  2  0  0  0  0
 36 29  1  0  0  0  0
  4 37  1  0  0  0  0
  5 38  1  0  0  0  0
  6 39  1  0  0  0  0
  7 40  1  0  0  0  0
  8 41  1  0  0  0  0
  9 42  1  0  0  0  0
 12 43  1  0  0  0  0
 12 44  1  0  0  0  0
 16 45  1  0  0  0  0
 16 46  1  0  0  0  0
 17 47  1  0  0  0  0
 17 48  1  0  0  0  0
 18 49  1  0  0  0  0
 18 50  1  0  0  0  0
 19 51  1  0  0  0  0
 19 52  1  0  0  0  0
 20 53  1  0  0  0  0
 20 54  1  0  0  0  0
 31 55  1  0  0  0  0
 32 56  1  0  0  0  0
 33 57  1  0  0  0  0
 34 58  1  0  0  0  0
 35 59  1  0  0  0  0
 36 60  1  0  0  0  0
M  END
>  <result-rank>
36

>  <similarity>
0.873

>  <query-name>


>  <query-smiles>
S(=O)(=O)(NC(=O)C)c1ccc(cc1)C=2N3C(=NC(=C3)COc4nc5c(cc4)cccc5)C(=NC2)N6CCOCC6

>  <source>
REALspace_2019-12

>  <similarity-descriptor>
0.959;0.797;0.771;0.926;0.997;1.000;0.0;0.0;0.0;0.0;0.771;0.771;0.0

>  <similarity-descriptor-smiles>
c1ccccc1;CC(=O)N1CCCCC1;C1=NN=CO1;S1C=C(C=C1)O;c1ccccn1;c1ccccc1;;;;;C1=NN=CO1;C1=NN=CO1;

>  <reaction-name>
m_271722

>  <reagent1-name>
10195368

>  <reagent1-smiles>
[R1*]=NN=C(O[R2*])c1nc2c(cc1)cccc2

>  <reagent2-name>
11366618

>  <reagent2-smiles>
[R1*]C([R2*])C=1SC(c2ccccc2)=CC1OCC(=O)N3CCCCC3

$$$$
m_274972____12934192____12615770____13046566
          04022017313D 1   1.00000     0.00000     0
            
 52 56  0  0  0  0            999 V2000
   10.2247    1.6719    2.3661 S   0  0  0  0  0  0  0  0  0  0  0  0
   10.8020    2.8102    3.0328 O   0  0  0  0  0  0  0  0  0  0  0  0
   10.6267    0.4653    3.0415 O   0  0  0  0  0  0  0  0  0  0  0  0
   10.7414    1.6275    0.8208 N   0  0  0  0  0  0  0  0  0  0  0  0
   12.2071    1.5178    0.7972 C   0  0  0  0  0  0  0  0  0  0  0  0
    8.4200    1.8069    2.3952 C   0  0  0  0  0  0  0  0  0  0  0  0
    7.6437    0.6529    2.4108 C   0  0  0  0  0  0  0  0  0  0  0  0
    6.2577    0.7683    2.4333 C   0  0  0  0  0  0  0  0  0  0  0  0
    5.6642    2.0267    2.4390 C   0  0  0  0  0  0  0  0  0  0  0  0
    6.4448    3.1781    2.4235 C   0  0  0  0  0  0  0  0  0  0  0  0
    7.8313    3.0673    2.4012 C   0  0  0  0  0  0  0  0  0  0  0  0
    4.2182    2.1329    2.4615 C   0  0  0  0  0  0  0  0  0  0  0  0
    3.3303    3.5831    2.4714 S   0  0  0  0  0  0  0  0  0  0  0  0
    1.7841    2.8690    2.4950 C   0  0  0  0  0  0  0  0  0  0  0  0
    2.0375    1.5302    2.4908 C   0  0  0  0  0  0  0  0  0  0  0  0
    3.3498    1.1464    2.4729 N   0  0  0  0  0  0  0  0  0  0  0  0
    0.9118    0.6170    2.5150 C   0  0  0  0  0  0  0  0  0  0  0  0
   -0.4029    0.9692    2.5332 N   0  0  0  0  0  0  0  0  0  0  0  0
   -1.0790   -0.0974    2.5525 N   0  0  0  0  0  0  0  0  0  0  0  0
   -0.3062   -1.1554    2.5502 N   0  0  0  0  0  0  0  0  0  0  0  0
    0.9871   -0.7420    2.5276 C   0  0  0  0  0  0  0  0  0  0  0  0
   -0.7634   -2.5524    2.5709 C   0  0  0  0  0  0  0  0  0  0  0  0
   -0.9440   -3.0476    1.1452 C   0  0  0  0  0  0  0  0  0  0  0  0
   -1.4008   -4.4431    1.1659 N   0  0  0  0  0  0  0  0  0  0  0  0
   -2.7319   -4.8518    1.1911 C   0  0  0  0  0  0  0  0  0  0  0  0
   -2.8048   -6.2295    1.1753 C   0  0  0  0  0  0  0  0  0  0  0  0
   -4.0353   -6.8788    1.1980 C   0  0  0  0  0  0  0  0  0  0  0  0
   -5.2097   -6.1342    1.2318 C   0  0  0  0  0  0  0  0  0  0  0  0
   -5.1521   -4.7444    1.2442 C   0  0  0  0  0  0  0  0  0  0  0  0
   -3.9115   -4.1140    1.2246 C   0  0  0  0  0  0  0  0  0  0  0  0
   -1.4273   -6.6900    1.1821 C   0  0  0  0  0  0  0  0  0  0  0  0
   -1.0758   -7.8373    1.1894 O   0  0  0  0  0  0  0  0  0  0  0  0
   -0.5549   -5.5433    1.1540 C   0  0  0  0  0  0  0  0  0  0  0  0
    0.6450   -5.5482    1.1484 O   0  0  0  0  0  0  0  0  0  0  0  0
   10.4622    2.4654    0.3518 H   0  0  0  0  0  0  0  0  0  0  0  0
   12.5241    1.4906   -0.1508 H   0  0  0  0  0  0  0  0  0  0  0  0
   12.6080    2.3083    1.2602 H   0  0  0  0  0  0  0  0  0  0  0  0
   12.4863    0.6799    1.2662 H   0  0  0  0  0  0  0  0  0  0  0  0
    8.0766   -0.2485    2.4058 H   0  0  0  0  0  0  0  0  0  0  0  0
    5.6878   -0.0533    2.4453 H   0  0  0  0  0  0  0  0  0  0  0  0
    6.0120    4.0795    2.4284 H   0  0  0  0  0  0  0  0  0  0  0  0
    8.4014    3.8888    2.3896 H   0  0  0  0  0  0  0  0  0  0  0  0
    0.8951    3.3268    2.5089 H   0  0  0  0  0  0  0  0  0  0  0  0
    1.8107   -1.3092    2.5215 H   0  0  0  0  0  0  0  0  0  0  0  0
   -1.6355   -2.6105    3.0569 H   0  0  0  0  0  0  0  0  0  0  0  0
   -0.0837   -3.1187    3.0369 H   0  0  0  0  0  0  0  0  0  0  0  0
   -1.6238   -2.4812    0.6792 H   0  0  0  0  0  0  0  0  0  0  0  0
   -0.0720   -2.9894    0.6592 H   0  0  0  0  0  0  0  0  0  0  0  0
   -4.0752   -7.8780    1.1900 H   0  0  0  0  0  0  0  0  0  0  0  0
   -6.0955   -6.5980    1.2471 H   0  0  0  0  0  0  0  0  0  0  0  0
   -5.9932   -4.2040    1.2671 H   0  0  0  0  0  0  0  0  0  0  0  0
   -3.8669   -3.1151    1.2346 H   0  0  0  0  0  0  0  0  0  0  0  0
  1  2  2  0  0  0  0
  1  3  2  0  0  0  0
  1  4  1  0  0  0  0
  4  5  1  0  0  0  0
  1  6  1  0  0  0  0
  6  7  1  0  0  0  0
  7  8  2  0  0  0  0
  8  9  1  0  0  0  0
  9 10  2  0  0  0  0
 10 11  1  0  0  0  0
 11  6  2  0  0  0  0
  9 12  1  0  0  0  0
 12 13  1  0  0  0  0
 13 14  1  0  0  0  0
 14 15  2  0  0  0  0
 15 16  1  0  0  0  0
 12 16  2  0  0  0  0
 15 17  1  0  0  0  0
 17 18  1  0  0  0  0
 18 19  2  0  0  0  0
 19 20  1  0  0  0  0
 20 21  1  0  0  0  0
 17 21  2  0  0  0  0
 20 22  1  0  0  0  0
 22 23  1  0  0  0  0
 23 24  1  0  0  0  0
 24 25  1  0  0  0  0
 25 26  1  0  0  0  0
 26 27  2  0  0  0  0
 27 28  1  0  0  0  0
 28 29  2  0  0  0  0
 29 30  1  0  0  0  0
 30 25  2  0  0  0  0
 26 31  1  0  0  0  0
 31 32  2  0  0  0  0
 31 33  1  0  0  0  0
 33 24  1  0  0  0  0
 33 34  2  0  0  0  0
  4 35  1  0  0  0  0
  5 36  1  0  0  0  0
  5 37  1  0  0  0  0
  5 38  1  0  0  0  0
  7 39  1  0  0  0  0
  8 40  1  0  0  0  0
 10 41  1  0  0  0  0
 11 42  1  0  0  0  0
 14 43  1  0  0  0  0
 21 44  1  0  0  0  0
 22 45  1  0  0  0  0
 22 46  1  0  0  0  0
 23 47  1  0  0  0  0
 23 48  1  0  0  0  0
 27 49  1  0  0  0  0
 28 50  1  0  0  0  0
 29 51  1  0  0  0  0
 30 52  1  0  0  0  0
M  END
>  <result-rank>
37

>  <similarity>
0.873

>  <query-name>


>  <query-smiles>
S(=O)(=O)(NC(=O)C)c1ccc(cc1)C=2N3C(=NC(=C3)COc4nc5c(cc4)cccc5)C(=NC2)N6CCOCC6

>  <source>
REALspace_2019-12

>  <similarity-descriptor>
1.000;0.0;0.832;0.976;0.777;0.999;1.000;0.733;0.733;0.733;0.667;0.777;0.0

>  <similarity-descriptor-smiles>
c1ccccc1;;C1=CNN=N1;C1=NC=CS1;N1C(C(cc1)=O)=O;c1ccccc1;S(=O)=O;NC;NC;NC;CC;N1C(C(cc1)=O)=O;

>  <reaction-name>
m_274972

>  <reagent1-name>
12934192

>  <reagent1-smiles>
[R1*]SC(=N[R2*])c1ccc(S(=O)(=O)NC)cc1

>  <reagent2-name>
12615770

>  <reagent2-smiles>
[R2*]C(C([R3*])=C[R4*])=C[R1*]

>  <reagent3-name>
13046566

>  <reagent3-smiles>
[R3*]N=NN([R4*])CCN1c2c(cccc2)C(=O)C1=O

$$$$
s_265764____4903266____4564842
          04022017313D 1   1.00000     0.00000     0
            
 65 70  0  0  0  0            999 V2000
    0.4648    3.7275    2.5286 S   0  0  0  0  0  0  0  0  0  0  0  0
    0.6132    4.9899    1.8520 O   0  0  0  0  0  0  0  0  0  0  0  0
   -0.5345    2.9375    1.8570 O   0  0  0  0  0  0  0  0  0  0  0  0
    0.0053    3.9882    4.0706 N   0  0  0  0  0  0  0  0  0  0  0  0
    1.0246    4.7939    4.7556 C   0  0  0  0  0  0  0  0  0  0  0  0
    2.0541    3.8755    5.3973 C   0  0  0  0  0  0  0  0  0  0  0  0
    3.3034    4.5952    5.8860 C   0  0  0  0  0  0  0  0  0  0  0  0
    3.0569    5.5036    7.0881 C   0  0  0  0  0  0  0  0  0  0  0  0
    2.2065    4.8935    8.1909 C   0  0  0  0  0  0  0  0  0  0  0  0
    0.7754    5.4059    8.2148 C   0  0  0  0  0  0  0  0  0  0  0  0
   -0.0995    5.0636    7.0091 C   0  0  0  0  0  0  0  0  0  0  0  0
    0.3677    5.7572    5.7374 C   0  0  0  0  0  0  0  0  0  0  0  0
    1.9833    2.8783    2.5116 C   0  0  0  0  0  0  0  0  0  0  0  0
    3.1735    3.5977    2.5023 C   0  0  0  0  0  0  0  0  0  0  0  0
    4.3802    2.9056    2.4882 C   0  0  0  0  0  0  0  0  0  0  0  0
    4.4059    1.5148    2.4827 C   0  0  0  0  0  0  0  0  0  0  0  0
    3.2042    0.8141    2.4925 C   0  0  0  0  0  0  0  0  0  0  0  0
    1.9869    1.4870    2.5070 C   0  0  0  0  0  0  0  0  0  0  0  0
    5.6243    3.6536    2.4786 C   0  0  0  0  0  0  0  0  0  0  0  0
    5.7628    5.3484    2.4829 S   0  0  0  0  0  0  0  0  0  0  0  0
    7.4650    5.4086    2.4693 C   0  0  0  0  0  0  0  0  0  0  0  0
    7.8426    4.0993    2.4653 C   0  0  0  0  0  0  0  0  0  0  0  0
    6.8444    3.1649    2.4702 N   0  0  0  0  0  0  0  0  0  0  0  0
    9.2600    3.7921    2.4465 C   0  0  0  0  0  0  0  0  0  0  0  0
   10.2328    4.6707    2.4326 O   0  0  0  0  0  0  0  0  0  0  0  0
   11.3479    4.0682    2.4191 N   0  0  0  0  0  0  0  0  0  0  0  0
   11.1272    2.7745    2.4224 C   0  0  0  0  0  0  0  0  0  0  0  0
    9.7809    2.5914    2.4392 N   0  0  0  0  0  0  0  0  0  0  0  0
   12.1365    1.7316    2.4077 C   0  0  0  0  0  0  0  0  0  0  0  0
   13.4216    2.1162    2.3921 N   0  0  0  0  0  0  0  0  0  0  0  0
   14.4259    1.2270    2.3780 C   0  0  0  0  0  0  0  0  0  0  0  0
   14.1631   -0.1392    2.3789 C   0  0  0  0  0  0  0  0  0  0  0  0
   12.8391   -0.5669    2.3949 C   0  0  0  0  0  0  0  0  0  0  0  0
   11.8139    0.3735    2.4090 C   0  0  0  0  0  0  0  0  0  0  0  0
   10.5008   -0.0911    2.4250 C   0  0  0  0  0  0  0  0  0  0  0  0
   10.1986   -1.4487    2.4288 C   0  0  0  0  0  0  0  0  0  0  0  0
   11.2398   -2.3711    2.4145 C   0  0  0  0  0  0  0  0  0  0  0  0
   12.5593   -1.9303    2.3974 C   0  0  0  0  0  0  0  0  0  0  0  0
   -0.0977    3.1114    4.5405 H   0  0  0  0  0  0  0  0  0  0  0  0
    1.4953    5.3405    4.0631 H   0  0  0  0  0  0  0  0  0  0  0  0
    2.3290    3.1906    4.7226 H   0  0  0  0  0  0  0  0  0  0  0  0
    1.6268    3.4208    6.1787 H   0  0  0  0  0  0  0  0  0  0  0  0
    3.6601    5.1530    5.1366 H   0  0  0  0  0  0  0  0  0  0  0  0
    3.9833    3.9085    6.1433 H   0  0  0  0  0  0  0  0  0  0  0  0
    2.5972    6.3301    6.7632 H   0  0  0  0  0  0  0  0  0  0  0  0
    3.9441    5.7476    7.4796 H   0  0  0  0  0  0  0  0  0  0  0  0
    2.6319    5.1048    9.0709 H   0  0  0  0  0  0  0  0  0  0  0  0
    2.1846    3.9023    8.0607 H   0  0  0  0  0  0  0  0  0  0  0  0
    0.3321    5.0275    9.0273 H   0  0  0  0  0  0  0  0  0  0  0  0
    0.8120    6.4025    8.2887 H   0  0  0  0  0  0  0  0  0  0  0  0
   -0.0732    4.0745    6.8637 H   0  0  0  0  0  0  0  0  0  0  0  0
   -1.0387    5.3471    7.2030 H   0  0  0  0  0  0  0  0  0  0  0  0
   -0.4227    6.1788    5.2930 H   0  0  0  0  0  0  0  0  0  0  0  0
    1.0293    6.4657    5.9829 H   0  0  0  0  0  0  0  0  0  0  0  0
    3.1621    4.5976    2.5056 H   0  0  0  0  0  0  0  0  0  0  0  0
    5.2775    1.0247    2.4718 H   0  0  0  0  0  0  0  0  0  0  0  0
    3.2157   -0.1859    2.4890 H   0  0  0  0  0  0  0  0  0  0  0  0
    1.1263    0.9778    2.5141 H   0  0  0  0  0  0  0  0  0  0  0  0
    8.0519    6.2182    2.4651 H   0  0  0  0  0  0  0  0  0  0  0  0
   15.3725    1.5492    2.3669 H   0  0  0  0  0  0  0  0  0  0  0  0
   14.9121   -0.8018    2.3683 H   0  0  0  0  0  0  0  0  0  0  0  0
    9.7523    0.5720    2.4341 H   0  0  0  0  0  0  0  0  0  0  0  0
    9.2474   -1.7570    2.4416 H   0  0  0  0  0  0  0  0  0  0  0  0
   11.0399   -3.3509    2.4164 H   0  0  0  0  0  0  0  0  0  0  0  0
   13.3075   -2.5937    2.3870 H   0  0  0  0  0  0  0  0  0  0  0  0
  1  2  2  0  0  0  0
  1  3  2  0  0  0  0
  1  4  1  0  0  0  0
  4  5  1  0  0  0  0
  5  6  1  0  0  0  0
  6  7  1  0  0  0  0
  7  8  1  0  0  0  0
  8  9  1  0  0  0  0
  9 10  1  0  0  0  0
 10 11  1  0  0  0  0
 11 12  1  0  0  0  0
 12  5  1  0  0  0  0
  1 13  1  0  0  0  0
 13 14  1  0  0  0  0
 14 15  2  0  0  0  0
 15 16  1  0  0  0  0
 16 17  2  0  0  0  0
 17 18  1  0  0  0  0
 18 13  2  0  0  0  0
 15 19  1  0  0  0  0
 19 20  1  0  0  0  0
 20 21  1  0  0  0  0
 21 22  2  0  0  0  0
 22 23  1  0  0  0  0
 19 23  2  0  0  0  0
 22 24  1  0  0  0  0
 24 25  1  0  0  0  0
 25 26  1  0  0  0  0
 26 27  2  0  0  0  0
 27 28  1  0  0  0  0
 24 28  2  0  0  0  0
 27 29  1  0  0  0  0
 29 30  1  0  0  0  0
 30 31  2  0  0  0  0
 31 32  1  0  0  0  0
 32 33  2  0  0  0  0
 33 34  1  0  0  0  0
 34 29  2  0  0  0  0
 34 35  1  0  0  0  0
 35 36  2  0  0  0  0
 36 37  1  0  0  0  0
 37 38  2  0  0  0  0
 38 33  1  0  0  0  0
  4 39  1  0  0  0  0
  5 40  1  0  0  0  0
  6 41  1  0  0  0  0
  6 42  1  0  0  0  0
  7 43  1  0  0  0  0
  7 44  1  0  0  0  0
  8 45  1  0  0  0  0
  8 46  1  0  0  0  0
  9 47  1  0  0  0  0
  9 48  1  0  0  0  0
 10 49  1  0  0  0  0
 10 50  1  0  0  0  0
 11 51  1  0  0  0  0
 11 52  1  0  0  0  0
 12 53  1  0  0  0  0
 12 54  1  0  0  0  0
 14 55  1  0  0  0  0
 16 56  1  0  0  0  0
 17 57  1  0  0  0  0
 18 58  1  0  0  0  0
 21 59  1  0  0  0  0
 31 60  1  0  0  0  0
 32 61  1  0  0  0  0
 35 62  1  0  0  0  0
 36 63  1  0  0  0  0
 37 64  1  0  0  0  0
 38 65  1  0  0  0  0
M  END
>  <result-rank>
38

>  <similarity>
0.873

>  <query-name>


>  <query-smiles>
S(=O)(=O)(NC(=O)C)c1ccc(cc1)C=2N3C(=NC(=C3)COc4nc5c(cc4)cccc5)C(=NC2)N6CCOCC6

>  <source>
REALspace_2019-12

>  <similarity-descriptor>
1.000;0.0;0.767;0.976;0.999;0.999;1.000;0.757;0.0;0.0;0.767;0.767;0.125

>  <similarity-descriptor-smiles>
c1ccccc1;;C1=NC=NO1;C1=NC=CS1;c1ccccn1;c1ccccc1;S(=O)=O;N;;;C1=NC=NO1;C1=NC=NO1;C1CCCCCCC1

>  <reaction-name>
s_265764

>  <reagent1-name>
4903266

>  <reagent1-smiles>
[R1*]=NC(=NO[R2*])c1nccc2c1cccc2

>  <reagent2-name>
4564842

>  <reagent2-smiles>
[R1*]C([R2*])C=1N=C(SC1)c2cc(S(=O)(=O)NC3CCCCCCC3)ccc2

$$$$
m_274972____12934254____12615770____14584976
          04022017313D 1   1.00000     0.00000     0
            
 56 60  0  0  0  0            999 V2000
   10.2247    1.6719    2.3661 S   0  0  0  0  0  0  0  0  0  0  0  0
   10.8020    2.8102    3.0328 O   0  0  0  0  0  0  0  0  0  0  0  0
   10.6267    0.4653    3.0415 O   0  0  0  0  0  0  0  0  0  0  0  0
   10.7414    1.6275    0.8208 N   0  0  0  0  0  0  0  0  0  0  0  0
   12.2071    1.5178    0.7972 C   0  0  0  0  0  0  0  0  0  0  0  0
   10.1520    0.4654    0.1403 C   0  0  0  0  0  0  0  0  0  0  0  0
    8.4200    1.8069    2.3952 C   0  0  0  0  0  0  0  0  0  0  0  0
    7.6437    0.6529    2.4108 C   0  0  0  0  0  0  0  0  0  0  0  0
    6.2577    0.7683    2.4333 C   0  0  0  0  0  0  0  0  0  0  0  0
    5.6642    2.0267    2.4390 C   0  0  0  0  0  0  0  0  0  0  0  0
    6.4448    3.1781    2.4235 C   0  0  0  0  0  0  0  0  0  0  0  0
    7.8313    3.0673    2.4012 C   0  0  0  0  0  0  0  0  0  0  0  0
    4.2182    2.1329    2.4615 C   0  0  0  0  0  0  0  0  0  0  0  0
    3.3303    3.5831    2.4714 S   0  0  0  0  0  0  0  0  0  0  0  0
    1.7841    2.8690    2.4950 C   0  0  0  0  0  0  0  0  0  0  0  0
    2.0375    1.5302    2.4908 C   0  0  0  0  0  0  0  0  0  0  0  0
    3.3498    1.1464    2.4729 N   0  0  0  0  0  0  0  0  0  0  0  0
    0.9118    0.6170    2.5150 C   0  0  0  0  0  0  0  0  0  0  0  0
   -0.4029    0.9692    2.5332 N   0  0  0  0  0  0  0  0  0  0  0  0
   -1.0790   -0.0974    2.5525 N   0  0  0  0  0  0  0  0  0  0  0  0
   -0.3062   -1.1554    2.5502 N   0  0  0  0  0  0  0  0  0  0  0  0
    0.9871   -0.7420    2.5276 C   0  0  0  0  0  0  0  0  0  0  0  0
   -0.7638   -2.5535    2.5709 C   0  0  3  0  0  0  0  0  0  0  0  0
   -0.9872   -3.1819    1.2072 C   0  0  0  0  0  0  0  0  0  0  0  0
   -0.2883   -4.3683    1.1481 C   0  0  0  0  0  0  0  0  0  0  0  0
    0.4037   -4.5767    2.3394 N   0  0  0  0  0  0  0  0  0  0  0  0
    0.1802   -3.5300    3.2268 C   0  0  0  0  0  0  0  0  0  0  0  0
    0.6760   -3.4140    4.3135 O   0  0  0  0  0  0  0  0  0  0  0  0
    1.2733   -5.7320    2.6042 C   0  0  0  0  0  0  0  0  0  0  0  0
   -0.3524   -5.1425   -0.0037 C   0  0  0  0  0  0  0  0  0  0  0  0
   -1.1016   -4.7286   -1.0989 C   0  0  0  0  0  0  0  0  0  0  0  0
   -1.7938   -3.5248   -1.0345 C   0  0  0  0  0  0  0  0  0  0  0  0
   -1.7393   -2.7524    0.1197 C   0  0  0  0  0  0  0  0  0  0  0  0
   -2.0820   -2.7021    3.3130 C   0  0  0  0  0  0  0  0  0  0  0  0
   12.5241    1.4906   -0.1508 H   0  0  0  0  0  0  0  0  0  0  0  0
   12.6080    2.3083    1.2602 H   0  0  0  0  0  0  0  0  0  0  0  0
   12.4863    0.6799    1.2662 H   0  0  0  0  0  0  0  0  0  0  0  0
   10.4690    0.4382   -0.8077 H   0  0  0  0  0  0  0  0  0  0  0  0
   10.4312   -0.3725    0.6093 H   0  0  0  0  0  0  0  0  0  0  0  0
    9.1550    0.5400    0.1564 H   0  0  0  0  0  0  0  0  0  0  0  0
    8.0766   -0.2485    2.4058 H   0  0  0  0  0  0  0  0  0  0  0  0
    5.6878   -0.0533    2.4453 H   0  0  0  0  0  0  0  0  0  0  0  0
    6.0120    4.0795    2.4284 H   0  0  0  0  0  0  0  0  0  0  0  0
    8.4014    3.8888    2.3896 H   0  0  0  0  0  0  0  0  0  0  0  0
    0.8951    3.3268    2.5089 H   0  0  0  0  0  0  0  0  0  0  0  0
    1.8107   -1.3092    2.5215 H   0  0  0  0  0  0  0  0  0  0  0  0
    1.6559   -5.6571    3.5251 H   0  0  0  0  0  0  0  0  0  0  0  0
    0.7394   -6.5745    2.5326 H   0  0  0  0  0  0  0  0  0  0  0  0
    2.0162   -5.7503    1.9350 H   0  0  0  0  0  0  0  0  0  0  0  0
    0.1465   -6.0082   -0.0454 H   0  0  0  0  0  0  0  0  0  0  0  0
   -1.1422   -5.2910   -1.9248 H   0  0  0  0  0  0  0  0  0  0  0  0
   -2.3311   -3.2145   -1.8188 H   0  0  0  0  0  0  0  0  0  0  0  0
   -2.2406   -1.8885    0.1679 H   0  0  0  0  0  0  0  0  0  0  0  0
   -2.3615   -3.6622    3.3069 H   0  0  0  0  0  0  0  0  0  0  0  0
   -1.9695   -2.3936    4.2575 H   0  0  0  0  0  0  0  0  0  0  0  0
   -2.7823   -2.1482    2.8626 H   0  0  0  0  0  0  0  0  0  0  0  0
  1  2  2  0  0  0  0
  1  3  2  0  0  0  0
  1  4  1  0  0  0  0
  4  5  1  0  0  0  0
  4  6  1  0  0  0  0
  1  7  1  0  0  0  0
  7  8  1  0  0  0  0
  8  9  2  0  0  0  0
  9 10  1  0  0  0  0
 10 11  2  0  0  0  0
 11 12  1  0  0  0  0
 12  7  2  0  0  0  0
 10 13  1  0  0  0  0
 13 14  1  0  0  0  0
 14 15  1  0  0  0  0
 15 16  2  0  0  0  0
 16 17  1  0  0  0  0
 13 17  2  0  0  0  0
 16 18  1  0  0  0  0
 18 19  1  0  0  0  0
 19 20  2  0  0  0  0
 20 21  1  0  0  0  0
 21 22  1  0  0  0  0
 18 22  2  0  0  0  0
 21 23  1  0  0  0  0
 23 24  1  0  0  0  0
 24 25  1  0  0  0  0
 25 26  1  0  0  0  0
 26 27  1  0  0  0  0
 27 23  1  0  0  0  0
 27 28  2  0  0  0  0
 26 29  1  0  0  0  0
 25 30  2  0  0  0  0
 30 31  1  0  0  0  0
 31 32  2  0  0  0  0
 32 33  1  0  0  0  0
 33 24  2  0  0  0  0
 23 34  1  0  0  0  0
  5 35  1  0  0  0  0
  5 36  1  0  0  0  0
  5 37  1  0  0  0  0
  6 38  1  0  0  0  0
  6 39  1  0  0  0  0
  6 40  1  0  0  0  0
  8 41  1  0  0  0  0
  9 42  1  0  0  0  0
 11 43  1  0  0  0  0
 12 44  1  0  0  0  0
 15 45  1  0  0  0  0
 22 46  1  0  0  0  0
 29 47  1  0  0  0  0
 29 48  1  0  0  0  0
 29 49  1  0  0  0  0
 30 50  1  0  0  0  0
 31 51  1  0  0  0  0
 32 52  1  0  0  0  0
 33 53  1  0  0  0  0
 34 54  1  0  0  0  0
 34 55  1  0  0  0  0
 34 56  1  0  0  0  0
M  END
>  <result-rank>
39

>  <similarity>
0.873

>  <query-name>


>  <query-smiles>
S(=O)(=O)(NC(=O)C)c1ccc(cc1)C=2N3C(=NC(=C3)COc4nc5c(cc4)cccc5)C(=NC2)N6CCOCC6

>  <source>
REALspace_2019-12

>  <similarity-descriptor>
1.000;0.0;0.889;0.976;0.740;0.999;1.000;0.528;0.528;0.995;0.889;0.889;0.091

>  <similarity-descriptor-smiles>
c1ccccc1;;C1=CNN=N1;C1=NC=CS1;C1(C(Ncc1)=O)C;c1ccccc1;S(=O)=O;NC;NC;C;C1=CNN=N1;C1=CNN=N1;C

>  <reaction-name>
m_274972

>  <reagent1-name>
12934254

>  <reagent1-smiles>
[R1*]SC(=N[R2*])c1ccc(S(=O)(=O)N(C)C)cc1

>  <reagent2-name>
12615770

>  <reagent2-smiles>
[R2*]C(C([R3*])=C[R4*])=C[R1*]

>  <reagent3-name>
14584976

>  <reagent3-smiles>
[R3*]N=NN([R4*])C1(c2c(N(C1=O)C)cccc2)C

$$$$
s_49a____12382322____13758886
          04022017313D 1   1.00000     0.00000     0
            
 43 47  0  0  0  0            999 V2000
    5.3976    3.5498    2.5144 O   0  0  0  0  0  0  0  0  0  0  0  0
    4.3512    2.9204    2.5028 C   0  0  0  0  0  0  0  0  0  0  0  0
    3.1339    3.5543    2.5128 N   0  0  0  0  0  0  0  0  0  0  0  0
    2.0131    2.8500    2.4992 N   0  0  0  0  0  0  0  0  0  0  0  0
    2.0048    1.5265    2.4744 C   0  0  0  0  0  0  0  0  0  0  0  0
    3.2041    0.7623    2.4627 C   0  0  0  0  0  0  0  0  0  0  0  0
    4.3968    1.5016    2.4808 C   0  0  0  0  0  0  0  0  0  0  0  0
    5.3915    0.6393    2.4636 N   0  0  0  0  0  0  0  0  0  0  0  0
    4.9220   -0.5862    2.4434 N   0  0  0  0  0  0  0  0  0  0  0  0
    3.5602   -0.5538    2.4397 C   0  0  0  0  0  0  0  0  0  0  0  0
    5.7397   -1.8102    2.4226 C   0  0  0  0  0  0  0  0  0  0  0  0
    5.4509   -2.6761    3.6387 C   0  0  0  0  0  0  0  0  0  0  0  0
    6.2567   -3.9635    3.5649 C   0  0  0  0  0  0  0  0  0  0  0  0
    5.9637   -4.6885    2.3779 O   0  0  0  0  0  0  0  0  0  0  0  0
    6.2275   -3.9362    1.2020 C   0  0  0  0  0  0  0  0  0  0  0  0
    5.4222   -2.6462    1.1929 C   0  0  0  0  0  0  0  0  0  0  0  0
    3.0854    4.9542    2.5373 C   0  0  0  0  0  0  0  0  0  0  0  0
    3.6486    5.7380    1.5325 C   0  0  0  0  0  0  0  0  0  0  0  0
    3.5592    7.1238    1.6273 C   0  0  0  0  0  0  0  0  0  0  0  0
    2.9405    7.6930    2.6722 N   0  0  0  0  0  0  0  0  0  0  0  0
    2.3926    6.9557    3.6490 C   0  0  0  0  0  0  0  0  0  0  0  0
    2.4483    5.5666    3.6108 C   0  0  0  0  0  0  0  0  0  0  0  0
    4.1157    7.9192    0.6310 C   0  0  0  0  0  0  0  0  0  0  0  0
    4.7610    7.3491   -0.4614 C   0  0  0  0  0  0  0  0  0  0  0  0
    4.8570    5.9656   -0.5679 C   0  0  0  0  0  0  0  0  0  0  0  0
    4.2975    5.1801    0.4339 C   0  0  0  0  0  0  0  0  0  0  0  0
    1.1265    1.0484    2.4635 H   0  0  0  0  0  0  0  0  0  0  0  0
    2.9430   -1.3404    2.4232 H   0  0  0  0  0  0  0  0  0  0  0  0
    6.7084   -1.5621    2.4142 H   0  0  0  0  0  0  0  0  0  0  0  0
    4.4759   -2.8969    3.6639 H   0  0  0  0  0  0  0  0  0  0  0  0
    5.7010   -2.1762    4.4679 H   0  0  0  0  0  0  0  0  0  0  0  0
    7.2312   -3.7391    3.5774 H   0  0  0  0  0  0  0  0  0  0  0  0
    6.0354   -4.5322    4.3571 H   0  0  0  0  0  0  0  0  0  0  0  0
    5.9805   -4.4823    0.4014 H   0  0  0  0  0  0  0  0  0  0  0  0
    7.2019   -3.7145    1.1666 H   0  0  0  0  0  0  0  0  0  0  0  0
    5.6491   -2.1226    0.3717 H   0  0  0  0  0  0  0  0  0  0  0  0
    4.4470   -2.8673    1.1884 H   0  0  0  0  0  0  0  0  0  0  0  0
    1.9381    7.4105    4.4148 H   0  0  0  0  0  0  0  0  0  0  0  0
    2.0385    5.0193    4.3406 H   0  0  0  0  0  0  0  0  0  0  0  0
    4.0510    8.9146    0.7011 H   0  0  0  0  0  0  0  0  0  0  0  0
    5.1558    7.9338   -1.1701 H   0  0  0  0  0  0  0  0  0  0  0  0
    5.3188    5.5445   -1.3486 H   0  0  0  0  0  0  0  0  0  0  0  0
    4.3630    4.1847    0.3633 H   0  0  0  0  0  0  0  0  0  0  0  0
  1  2  2  0  0  0  0
  2  3  1  0  0  0  0
  3  4  1  0  0  0  0
  4  5  2  0  0  0  0
  5  6  1  0  0  0  0
  6  7  1  0  0  0  0
  7  2  1  0  0  0  0
  7  8  2  0  0  0  0
  8  9  1  0  0  0  0
  9 10  1  0  0  0  0
  6 10  2  0  0  0  0
  9 11  1  0  0  0  0
 11 12  1  0  0  0  0
 12 13  1  0  0  0  0
 13 14  1  0  0  0  0
 14 15  1  0  0  0  0
 15 16  1  0  0  0  0
 16 11  1  0  0  0  0
  3 17  1  0  0  0  0
 17 18  1  0  0  0  0
 18 19  2  0  0  0  0
 19 20  1  0  0  0  0
 20 21  2  0  0  0  0
 21 22  1  0  0  0  0
 22 17  2  0  0  0  0
 19 23  1  0  0  0  0
 23 24  2  0  0  0  0
 24 25  1  0  0  0  0
 25 26  2  0  0  0  0
 26 18  1  0  0  0  0
  5 27  1  0  0  0  0
 10 28  1  0  0  0  0
 11 29  1  0  0  0  0
 12 30  1  0  0  0  0
 12 31  1  0  0  0  0
 13 32  1  0  0  0  0
 13 33  1  0  0  0  0
 15 34  1  0  0  0  0
 15 35  1  0  0  0  0
 16 36  1  0  0  0  0
 16 37  1  0  0  0  0
 21 38  1  0  0  0  0
 22 39  1  0  0  0  0
 23 40  1  0  0  0  0
 24 41  1  0  0  0  0
 25 42  1  0  0  0  0
 26 43  1  0  0  0  0
M  END
>  <result-rank>
40

>  <similarity>
0.872

>  <query-name>


>  <query-smiles>
S(=O)(=O)(NC(=O)C)c1ccc(cc1)C=2N3C(=NC(=C3)COc4nc5c(cc4)cccc5)C(=NC2)N6CCOCC6

>  <source>
REALspace_2019-12

>  <similarity-descriptor>
0.0;0.956;0.819;0.925;1.000;1.000;0.0;0.0;0.0;0.0;0.819;0.819;0.0

>  <similarity-descriptor-smiles>
;C1CCOCC1;O=C1CCC=NN1;C1=CNN=C1;c1ccncc1;c1ccccc1;;;;;O=C1CCC=NN1;O=C1CCC=NN1;

>  <reaction-name>
s_49a

>  <reagent1-name>
12382322

>  <reagent1-smiles>
[R1*]N(N[R2*])c1c2c(ncc1)cccc2

>  <reagent2-name>
13758886

>  <reagent2-smiles>
[R2*]=CC=1C(=NN(C1)C2CCOCC2)C([R1*])=O

$$$$
s_1458____478750____8366518
          04022017313D 1   1.00000     0.00000     0
            
 64 69  0  0  0  0            999 V2000
    2.8646    0.7519   -3.1905 S   0  0  0  0  0  0  0  0  0  0  0  0
    3.1870   -0.2815   -4.5052 C   0  0  0  0  0  0  0  0  0  0  0  0
    4.0459    0.0024   -5.5752 N   0  0  0  0  0  0  0  0  0  0  0  0
    5.4963    0.0413   -5.3330 C   0  0  0  0  0  0  0  0  0  0  0  0
    6.1715    1.0600   -6.2383 C   0  0  0  0  0  0  0  0  0  0  0  0
    5.7289    0.9300   -7.5826 O   0  0  0  0  0  0  0  0  0  0  0  0
    4.3525    1.2735   -7.6657 C   0  0  0  0  0  0  0  0  0  0  0  0
    3.4869    0.2790   -6.9073 C   0  0  0  0  0  0  0  0  0  0  0  0
    2.4598   -1.4191   -4.3216 C   0  0  0  0  0  0  0  0  0  0  0  0
    2.5025   -2.5181   -5.2670 C   0  0  0  0  0  0  0  0  0  0  0  0
    3.6160   -2.6808   -6.0848 C   0  0  0  0  0  0  0  0  0  0  0  0
    3.6524   -3.7357   -6.9908 C   0  0  0  0  0  0  0  0  0  0  0  0
    2.5811   -4.6191   -7.0733 C   0  0  0  0  0  0  0  0  0  0  0  0
    1.4743   -4.4470   -6.2511 C   0  0  0  0  0  0  0  0  0  0  0  0
    1.4255   -3.3957   -5.3415 C   0  0  0  0  0  0  0  0  0  0  0  0
    1.6777   -1.4132   -3.1378 C   0  0  0  0  0  0  0  0  0  0  0  0
    1.7811   -0.2840   -2.3855 C   0  0  0  0  0  0  0  0  0  0  0  0
    1.0958   -0.0104   -1.1360 C   0  0  0  0  0  0  0  0  0  0  0  0
    0.0025   -0.4643   -0.9394 O   0  0  0  0  0  0  0  0  0  0  0  0
    1.6706    0.7322   -0.2227 O   0  0  0  0  0  0  0  0  0  0  0  0
    1.0000    1.0000    1.0000 C   0  0  0  0  0  0  0  0  0  0  0  0
    1.8776    1.8776    1.8776 C   0  0  0  0  0  0  0  0  0  0  0  0
    1.8845    3.1873    1.8920 O   0  0  0  0  0  0  0  0  0  0  0  0
    2.7283    3.6194    2.7339 N   0  0  0  0  0  0  0  0  0  0  0  0
    3.3309    2.6210    3.3288 C   0  0  0  0  0  0  0  0  0  0  0  0
    4.3573    2.7141    4.3510 C   0  0  0  0  0  0  0  0  0  0  0  0
    3.9473    2.7512    5.6799 C   0  0  0  0  0  0  0  0  0  0  0  0
    2.6398    2.7027    6.0139 O   0  0  0  0  0  0  0  0  0  0  0  0
    2.2539    2.7426    7.3799 C   0  0  0  0  0  0  0  0  0  0  0  0
    4.8880    2.8390    6.7004 C   0  0  0  0  0  0  0  0  0  0  0  0
    6.2442    2.8913    6.3942 C   0  0  0  0  0  0  0  0  0  0  0  0
    6.6597    2.8552    5.0681 C   0  0  0  0  0  0  0  0  0  0  0  0
    5.7180    2.7662    4.0454 C   0  0  0  0  0  0  0  0  0  0  0  0
    6.1863    2.7323    2.7336 C   0  0  0  0  0  0  0  0  0  0  0  0
    7.5417    2.7841    2.4296 C   0  0  0  0  0  0  0  0  0  0  0  0
    8.4536    2.8732    3.4757 C   0  0  0  0  0  0  0  0  0  0  0  0
    8.0228    2.9094    4.7978 C   0  0  0  0  0  0  0  0  0  0  0  0
    2.7900    1.4394    2.7856 C   0  0  0  0  0  0  0  0  0  0  0  0
    5.8826   -0.8633   -5.5130 H   0  0  0  0  0  0  0  0  0  0  0  0
    5.6622    0.2907   -4.3789 H   0  0  0  0  0  0  0  0  0  0  0  0
    5.9550    1.9800   -5.9117 H   0  0  0  0  0  0  0  0  0  0  0  0
    7.1610    0.9191   -6.2061 H   0  0  0  0  0  0  0  0  0  0  0  0
    4.0758    1.2795   -8.6266 H   0  0  0  0  0  0  0  0  0  0  0  0
    4.2201    2.1845   -7.2751 H   0  0  0  0  0  0  0  0  0  0  0  0
    2.5673    0.6581   -6.8038 H   0  0  0  0  0  0  0  0  0  0  0  0
    3.4390   -0.5748   -7.4257 H   0  0  0  0  0  0  0  0  0  0  0  0
    4.3845   -2.0441   -6.0218 H   0  0  0  0  0  0  0  0  0  0  0  0
    4.4488   -3.8590   -7.5829 H   0  0  0  0  0  0  0  0  0  0  0  0
    2.6075   -5.3778   -7.7241 H   0  0  0  0  0  0  0  0  0  0  0  0
    0.7063   -5.0844   -6.3138 H   0  0  0  0  0  0  0  0  0  0  0  0
    0.6286   -3.2727   -4.7501 H   0  0  0  0  0  0  0  0  0  0  0  0
    1.0939   -2.1817   -2.8758 H   0  0  0  0  0  0  0  0  0  0  0  0
    0.8114    0.1390    1.4723 H   0  0  0  0  0  0  0  0  0  0  0  0
    0.1390    1.4723    0.8114 H   0  0  0  0  0  0  0  0  0  0  0  0
    1.2572    2.6976    7.4461 H   0  0  0  0  0  0  0  0  0  0  0  0
    2.6556    1.9644    7.8626 H   0  0  0  0  0  0  0  0  0  0  0  0
    2.5773    3.5940    7.7928 H   0  0  0  0  0  0  0  0  0  0  0  0
    4.5896    2.8646    7.6545 H   0  0  0  0  0  0  0  0  0  0  0  0
    6.9202    2.9550    7.1284 H   0  0  0  0  0  0  0  0  0  0  0  0
    5.5253    2.6685    1.9860 H   0  0  0  0  0  0  0  0  0  0  0  0
    7.8539    2.7580    1.4799 H   0  0  0  0  0  0  0  0  0  0  0  0
    9.4325    2.9117    3.2747 H   0  0  0  0  0  0  0  0  0  0  0  0
    8.6849    2.9736    5.5444 H   0  0  0  0  0  0  0  0  0  0  0  0
    3.0235    0.4945    3.0152 H   0  0  0  0  0  0  0  0  0  0  0  0
  1  2  1  0  0  0  0
  2  3  1  0  0  0  0
  3  4  1  0  0  0  0
  4  5  1  0  0  0  0
  5  6  1  0  0  0  0
  6  7  1  0  0  0  0
  7  8  1  0  0  0  0
  8  3  1  0  0  0  0
  2  9  2  0  0  0  0
  9 10  1  0  0  0  0
 10 11  1  0  0  0  0
 11 12  2  0  0  0  0
 12 13  1  0  0  0  0
 13 14  2  0  0  0  0
 14 15  1  0  0  0  0
 15 10  2  0  0  0  0
  9 16  1  0  0  0  0
 16 17  2  0  0  0  0
 17  1  1  0  0  0  0
 17 18  1  0  0  0  0
 18 19  2  0  0  0  0
 18 20  1  0  0  0  0
 20 21  1  0  0  0  0
 21 22  1  0  0  0  0
 22 23  1  0  0  0  0
 23 24  1  0  0  0  0
 24 25  2  0  0  0  0
 25 26  1  0  0  0  0
 26 27  1  0  0  0  0
 27 28  1  0  0  0  0
 28 29  1  0  0  0  0
 27 30  2  0  0  0  0
 30 31  1  0  0  0  0
 31 32  2  0  0  0  0
 32 33  1  0  0  0  0
 33 26  2  0  0  0  0
 33 34  1  0  0  0  0
 34 35  2  0  0  0  0
 35 36  1  0  0  0  0
 36 37  2  0  0  0  0
 37 32  1  0  0  0  0
 25 38  1  0  0  0  0
 22 38  2  0  0  0  0
  4 39  1  0  0  0  0
  4 40  1  0  0  0  0
  5 41  1  0  0  0  0
  5 42  1  0  0  0  0
  7 43  1  0  0  0  0
  7 44  1  0  0  0  0
  8 45  1  0  0  0  0
  8 46  1  0  0  0  0
 11 47  1  0  0  0  0
 12 48  1  0  0  0  0
 13 49  1  0  0  0  0
 14 50  1  0  0  0  0
 15 51  1  0  0  0  0
 16 52  1  0  0  0  0
 21 53  1  0  0  0  0
 21 54  1  0  0  0  0
 29 55  1  0  0  0  0
 29 56  1  0  0  0  0
 29 57  1  0  0  0  0
 30 58  1  0  0  0  0
 31 59  1  0  0  0  0
 34 60  1  0  0  0  0
 35 61  1  0  0  0  0
 36 62  1  0  0  0  0
 37 63  1  0  0  0  0
 38 64  1  0  0  0  0
M  END
>  <result-rank>
41

>  <similarity>
0.872

>  <query-name>


>  <query-smiles>
S(=O)(=O)(NC(=O)C)c1ccc(cc1)C=2N3C(=NC(=C3)COc4nc5c(cc4)cccc5)C(=NC2)N6CCOCC6

>  <source>
REALspace_2019-12

>  <similarity-descriptor>
0.959;1.000;0.922;0.642;0.956;0.999;0.0;0.0;0.0;0.0;0.922;0.922;0.091

>  <similarity-descriptor-smiles>
c1ccccc1;N1CCOCC1;C1=CC=NO1;S1C(=CC=C1)C(=O)OC;c1ccccc1O;c1ccccc1;;;;;C1=CC=NO1;C1=CC=NO1;C

>  <reaction-name>
s_1458

>  <reagent1-name>
478750

>  <reagent1-smiles>
[R1*]OC(=O)C=1SC(N2CCOCC2)=C(c3ccccc3)C1

>  <reagent2-name>
8366518

>  <reagent2-smiles>
[R1*]CC=1ON=C(c2c(OC)ccc3c2cccc3)C1

$$$$
s_270196____10855104____8773378
          04022017313D 1   1.00000     0.00000     0
            
 55 59  0  0  0  0            999 V2000
    0.4036    3.7617    2.5293 S   0  0  0  0  0  0  0  0  0  0  0  0
   -0.5826    2.9678    3.2153 O   0  0  0  0  0  0  0  0  0  0  0  0
    0.5651    5.0202    3.2103 O   0  0  0  0  0  0  0  0  0  0  0  0
   -0.0853    4.0313    0.9979 N   0  0  0  0  0  0  0  0  0  0  0  0
   -1.3682    4.7488    1.0123 C   0  0  0  0  0  0  0  0  0  0  0  0
   -1.8241    5.0003   -0.4157 C   0  0  0  0  0  0  0  0  0  0  0  0
    1.9833    2.8783    2.5116 C   0  0  0  0  0  0  0  0  0  0  0  0
    3.1735    3.5977    2.5023 C   0  0  0  0  0  0  0  0  0  0  0  0
    4.3802    2.9056    2.4882 C   0  0  0  0  0  0  0  0  0  0  0  0
    4.4059    1.5148    2.4827 C   0  0  0  0  0  0  0  0  0  0  0  0
    3.2042    0.8141    2.4925 C   0  0  0  0  0  0  0  0  0  0  0  0
    1.9869    1.4870    2.5070 C   0  0  0  0  0  0  0  0  0  0  0  0
    5.6239    3.6533    2.4786 C   0  0  0  0  0  0  0  0  0  0  0  0
    6.8343    3.1409    2.4651 N   0  0  0  0  0  0  0  0  0  0  0  0
    7.6696    4.0911    2.4577 O   0  0  0  0  0  0  0  0  0  0  0  0
    7.0390    5.2398    2.4670 C   0  0  0  0  0  0  0  0  0  0  0  0
    5.7508    5.0064    2.4789 N   0  0  0  0  0  0  0  0  0  0  0  0
    7.6632    6.5493    2.4629 C   0  0  0  0  0  0  0  0  0  0  0  0
    7.0221    7.6952    2.4723 O   0  0  0  0  0  0  0  0  0  0  0  0
    7.8829    8.6855    2.4643 C   0  0  0  0  0  0  0  0  0  0  0  0
    9.1483    8.1796    2.4515 C   0  0  0  0  0  0  0  0  0  0  0  0
    9.0045    6.7760    2.4507 C   0  0  0  0  0  0  0  0  0  0  0  0
    7.5259   10.1630    2.4700 C   0  0  0  0  0  0  0  0  0  0  0  0
    7.4291   10.6214    3.8105 O   0  0  0  0  0  0  0  0  0  0  0  0
    8.5195   11.1139    4.4359 C   0  0  0  0  0  0  0  0  0  0  0  0
    8.4098   11.5594    5.7494 C   0  0  0  0  0  0  0  0  0  0  0  0
    9.5349   12.0662    6.3914 C   0  0  0  0  0  0  0  0  0  0  0  0
   10.7520   12.1231    5.7192 C   0  0  0  0  0  0  0  0  0  0  0  0
   10.8523   11.6760    4.4052 C   0  0  0  0  0  0  0  0  0  0  0  0
    9.7319   11.1673    3.7561 C   0  0  0  0  0  0  0  0  0  0  0  0
   11.8807   12.6285    6.3559 C   0  0  0  0  0  0  0  0  0  0  0  0
   11.7737   13.0739    7.6691 C   0  0  0  0  0  0  0  0  0  0  0  0
   10.5582   13.0182    8.3438 C   0  0  0  0  0  0  0  0  0  0  0  0
    9.4304   12.5125    7.7052 C   0  0  0  0  0  0  0  0  0  0  0  0
   -0.1974    3.1574    0.5250 H   0  0  0  0  0  0  0  0  0  0  0  0
   -1.2561    5.6228    1.4852 H   0  0  0  0  0  0  0  0  0  0  0  0
   -2.0531    4.1975    1.4887 H   0  0  0  0  0  0  0  0  0  0  0  0
   -2.6969    5.4883   -0.4059 H   0  0  0  0  0  0  0  0  0  0  0  0
   -1.1392    5.5516   -0.8921 H   0  0  0  0  0  0  0  0  0  0  0  0
   -1.9363    4.1263   -0.8886 H   0  0  0  0  0  0  0  0  0  0  0  0
    3.1621    4.5976    2.5056 H   0  0  0  0  0  0  0  0  0  0  0  0
    5.2775    1.0247    2.4718 H   0  0  0  0  0  0  0  0  0  0  0  0
    3.2157   -0.1859    2.4890 H   0  0  0  0  0  0  0  0  0  0  0  0
    1.1263    0.9778    2.5141 H   0  0  0  0  0  0  0  0  0  0  0  0
   10.0038    8.6973    2.4442 H   0  0  0  0  0  0  0  0  0  0  0  0
    9.7342    6.0923    2.4429 H   0  0  0  0  0  0  0  0  0  0  0  0
    8.2362   10.6794    1.9916 H   0  0  0  0  0  0  0  0  0  0  0  0
    6.6490   10.2958    2.0082 H   0  0  0  0  0  0  0  0  0  0  0  0
    7.5321   11.5157    6.2265 H   0  0  0  0  0  0  0  0  0  0  0  0
   11.7298   11.7204    3.9276 H   0  0  0  0  0  0  0  0  0  0  0  0
    9.7974   10.8439    2.8121 H   0  0  0  0  0  0  0  0  0  0  0  0
   12.7571   12.6709    5.8761 H   0  0  0  0  0  0  0  0  0  0  0  0
   12.5803   13.4388    8.1341 H   0  0  0  0  0  0  0  0  0  0  0  0
   10.4952   13.3416    9.2879 H   0  0  0  0  0  0  0  0  0  0  0  0
    8.5541   12.4702    8.1851 H   0  0  0  0  0  0  0  0  0  0  0  0
  1  2  2  0  0  0  0
  1  3  2  0  0  0  0
  1  4  1  0  0  0  0
  4  5  1  0  0  0  0
  5  6  1  0  0  0  0
  1  7  1  0  0  0  0
  7  8  1  0  0  0  0
  8  9  2  0  0  0  0
  9 10  1  0  0  0  0
 10 11  2  0  0  0  0
 11 12  1  0  0  0  0
 12  7  2  0  0  0  0
  9 13  1  0  0  0  0
 13 14  2  0  0  0  0
 14 15  1  0  0  0  0
 15 16  1  0  0  0  0
 16 17  2  0  0  0  0
 17 13  1  0  0  0  0
 16 18  1  0  0  0  0
 18 19  1  0  0  0  0
 19 20  1  0  0  0  0
 20 21  2  0  0  0  0
 21 22  1  0  0  0  0
 18 22  2  0  0  0  0
 20 23  1  0  0  0  0
 23 24  1  0  0  0  0
 24 25  1  0  0  0  0
 25 26  1  0  0  0  0
 26 27  2  0  0  0  0
 27 28  1  0  0  0  0
 28 29  2  0  0  0  0
 29 30  1  0  0  0  0
 30 25  2  0  0  0  0
 28 31  1  0  0  0  0
 31 32  2  0  0  0  0
 32 33  1  0  0  0  0
 33 34  2  0  0  0  0
 34 27  1  0  0  0  0
  4 35  1  0  0  0  0
  5 36  1  0  0  0  0
  5 37  1  0  0  0  0
  6 38  1  0  0  0  0
  6 39  1  0  0  0  0
  6 40  1  0  0  0  0
  8 41  1  0  0  0  0
 10 42  1  0  0  0  0
 11 43  1  0  0  0  0
 12 44  1  0  0  0  0
 21 45  1  0  0  0  0
 22 46  1  0  0  0  0
 23 47  1  0  0  0  0
 23 48  1  0  0  0  0
 26 49  1  0  0  0  0
 29 50  1  0  0  0  0
 30 51  1  0  0  0  0
 31 52  1  0  0  0  0
 32 53  1  0  0  0  0
 33 54  1  0  0  0  0
 34 55  1  0  0  0  0
M  END
>  <result-rank>
42

>  <similarity>
0.872

>  <query-name>


>  <query-smiles>
S(=O)(=O)(NC(=O)C)c1ccc(cc1)C=2N3C(=NC(=C3)COc4nc5c(cc4)cccc5)C(=NC2)N6CCOCC6

>  <source>
REALspace_2019-12

>  <similarity-descriptor>
1.000;0.0;0.880;0.700;0.831;0.999;1.000;0.730;0.730;1.000;1.000;1.000;0.0

>  <similarity-descriptor-smiles>
c1ccccc1;;C1=CC=CO1;C=1N=CON1;c1ccccc1;c1ccccc1;S(=O)=O;NC;NC;C;C;O;

>  <reaction-name>
s_270196

>  <reagent1-name>
10855104

>  <reagent1-smiles>
[R1*]=NC(=NO[R2*])c1cc(S(=O)(=O)NCC)ccc1

>  <reagent2-name>
8773378

>  <reagent2-smiles>
[R1*]C([R2*])C=1OC(=CC1)COc2cc3c(cc2)cccc3

$$$$
m_274972____12934408____12615770____13047176
          04022017313D 1   1.00000     0.00000     0
            
 52 56  0  0  0  0            999 V2000
    3.3488    3.5764    2.4811 S   0  0  0  0  0  0  0  0  0  0  0  0
    4.2329    2.1227    2.4665 C   0  0  0  0  0  0  0  0  0  0  0  0
    3.3592    1.1489    2.4754 N   0  0  0  0  0  0  0  0  0  0  0  0
    2.0484    1.5360    2.4980 C   0  0  0  0  0  0  0  0  0  0  0  0
    0.9214    0.6245    2.5209 C   0  0  0  0  0  0  0  0  0  0  0  0
   -0.3928    0.9787    2.5437 N   0  0  0  0  0  0  0  0  0  0  0  0
   -1.0705   -0.0869    2.5598 N   0  0  0  0  0  0  0  0  0  0  0  0
   -0.2994   -1.1462    2.5511 N   0  0  0  0  0  0  0  0  0  0  0  0
    0.9945   -0.7347    2.5273 C   0  0  0  0  0  0  0  0  0  0  0  0
   -0.7588   -2.5425    2.5667 C   0  0  0  0  0  0  0  0  0  0  0  0
   -0.9435   -3.0313    1.1388 C   0  0  0  0  0  0  0  0  0  0  0  0
    0.1389   -3.6444    0.4521 C   0  0  0  0  0  0  0  0  0  0  0  0
    1.1907   -3.7661    1.0168 O   0  0  0  0  0  0  0  0  0  0  0  0
   -0.0356   -4.0828   -0.8357 N   0  0  0  0  0  0  0  0  0  0  0  0
   -1.2469   -3.9360   -1.4704 C   0  0  0  0  0  0  0  0  0  0  0  0
   -2.3223   -3.3392   -0.8181 C   0  0  0  0  0  0  0  0  0  0  0  0
   -3.5593   -3.1755   -1.4324 C   0  0  0  0  0  0  0  0  0  0  0  0
   -3.7237   -3.6240   -2.7387 C   0  0  0  0  0  0  0  0  0  0  0  0
   -2.6740   -4.2257   -3.4245 C   0  0  0  0  0  0  0  0  0  0  0  0
   -1.4519   -4.3716   -2.7777 C   0  0  0  0  0  0  0  0  0  0  0  0
   -2.1539   -2.8805    0.5147 C   0  0  0  0  0  0  0  0  0  0  0  0
    1.1183   -4.7092   -1.4968 C   0  0  0  0  0  0  0  0  0  0  0  0
    1.7984    2.8696    2.5060 C   0  0  0  0  0  0  0  0  0  0  0  0
    5.7488    2.0141    2.4382 C   0  0  0  0  0  0  0  0  0  0  0  0
    6.2810    1.9799    3.8619 C   0  0  0  0  0  0  0  0  0  0  0  0
    6.4319    0.7534    4.5005 C   0  0  0  0  0  0  0  0  0  0  0  0
    6.9197    0.7258    5.8029 C   0  0  0  0  0  0  0  0  0  0  0  0
    7.2546    1.9023    6.4650 C   0  0  0  0  0  0  0  0  0  0  0  0
    7.0964    3.1183    5.8081 C   0  0  0  0  0  0  0  0  0  0  0  0
    6.6102    3.1682    4.5058 C   0  0  0  0  0  0  0  0  0  0  0  0
    7.0887   -0.6076    6.5126 C   0  0  0  0  0  0  0  0  0  0  0  0
    8.3089   -1.0825    6.2792 F   0  0  0  0  0  0  0  0  0  0  0  0
    6.9219   -0.4377    7.8211 F   0  0  0  0  0  0  0  0  0  0  0  0
    6.1832   -1.4695    6.0584 F   0  0  0  0  0  0  0  0  0  0  0  0
    1.8172   -1.3031    2.5168 H   0  0  0  0  0  0  0  0  0  0  0  0
   -1.6298   -2.6014    3.0545 H   0  0  0  0  0  0  0  0  0  0  0  0
   -0.0788   -3.1120    3.0286 H   0  0  0  0  0  0  0  0  0  0  0  0
   -4.3170   -2.7431   -0.9436 H   0  0  0  0  0  0  0  0  0  0  0  0
   -4.6086   -3.5123   -3.1908 H   0  0  0  0  0  0  0  0  0  0  0  0
   -2.7958   -4.5469   -4.3637 H   0  0  0  0  0  0  0  0  0  0  0  0
   -0.6946   -4.8038   -3.2673 H   0  0  0  0  0  0  0  0  0  0  0  0
   -2.9163   -2.4487    0.9966 H   0  0  0  0  0  0  0  0  0  0  0  0
    1.8970   -4.7192   -0.8695 H   0  0  0  0  0  0  0  0  0  0  0  0
    0.8860   -5.6470   -1.7548 H   0  0  0  0  0  0  0  0  0  0  0  0
    1.3568   -4.1875   -2.3160 H   0  0  0  0  0  0  0  0  0  0  0  0
    0.9111    3.3303    2.5226 H   0  0  0  0  0  0  0  0  0  0  0  0
    6.0141    1.1753    1.9629 H   0  0  0  0  0  0  0  0  0  0  0  0
    6.1307    2.8041    1.9585 H   0  0  0  0  0  0  0  0  0  0  0  0
    6.1932   -0.0962    4.0302 H   0  0  0  0  0  0  0  0  0  0  0  0
    7.6047    1.8743    7.4013 H   0  0  0  0  0  0  0  0  0  0  0  0
    7.3355    3.9679    6.2783 H   0  0  0  0  0  0  0  0  0  0  0  0
    6.4989    4.0456    4.0392 H   0  0  0  0  0  0  0  0  0  0  0  0
  1  2  1  0  0  0  0
  2  3  2  0  0  0  0
  3  4  1  0  0  0  0
  4  5  1  0  0  0  0
  5  6  1  0  0  0  0
  6  7  2  0  0  0  0
  7  8  1  0  0  0  0
  8  9  1  0  0  0  0
  5  9  2  0  0  0  0
  8 10  1  0  0  0  0
 10 11  1  0  0  0  0
 11 12  1  0  0  0  0
 12 13  2  0  0  0  0
 12 14  1  0  0  0  0
 14 15  1  0  0  0  0
 15 16  1  0  0  0  0
 16 17  2  0  0  0  0
 17 18  1  0  0  0  0
 18 19  2  0  0  0  0
 19 20  1  0  0  0  0
 20 15  2  0  0  0  0
 16 21  1  0  0  0  0
 11 21  2  0  0  0  0
 14 22  1  0  0  0  0
  4 23  2  0  0  0  0
 23  1  1  0  0  0  0
  2 24  1  0  0  0  0
 24 25  1  0  0  0  0
 25 26  1  0  0  0  0
 26 27  2  0  0  0  0
 27 28  1  0  0  0  0
 28 29  2  0  0  0  0
 29 30  1  0  0  0  0
 30 25  2  0  0  0  0
 27 31  1  0  0  0  0
 31 32  1  0  0  0  0
 31 33  1  0  0  0  0
 31 34  1  0  0  0  0
  9 35  1  0  0  0  0
 10 36  1  0  0  0  0
 10 37  1  0  0  0  0
 17 38  1  0  0  0  0
 18 39  1  0  0  0  0
 19 40  1  0  0  0  0
 20 41  1  0  0  0  0
 21 42  1  0  0  0  0
 22 43  1  0  0  0  0
 22 44  1  0  0  0  0
 22 45  1  0  0  0  0
 23 46  1  0  0  0  0
 24 47  1  0  0  0  0
 24 48  1  0  0  0  0
 26 49  1  0  0  0  0
 28 50  1  0  0  0  0
 29 51  1  0  0  0  0
 30 52  1  0  0  0  0
M  END
>  <result-rank>
43

>  <similarity>
0.872

>  <query-name>


>  <query-smiles>
S(=O)(=O)(NC(=O)C)c1ccc(cc1)C=2N3C(=NC(=C3)COc4nc5c(cc4)cccc5)C(=NC2)N6CCOCC6

>  <source>
REALspace_2019-12

>  <similarity-descriptor>
0.943;0.0;0.832;0.898;0.960;0.999;0.0;0.0;0.0;0.0;0.999;0.960;0.111

>  <similarity-descriptor-smiles>
c1cccc(c1)C(F)(F)F;;C1=CNN=N1;S1C=CN=C1C;C1=CccNC1=O;c1ccccc1;;;;;C;C1=CccNC1=O;C

>  <reaction-name>
m_274972

>  <reagent1-name>
12934408

>  <reagent1-smiles>
[R1*]SC(=N[R2*])Cc1cc(ccc1)C(F)(F)F

>  <reagent2-name>
12615770

>  <reagent2-smiles>
[R2*]C(C([R3*])=C[R4*])=C[R1*]

>  <reagent3-name>
13047176

>  <reagent3-smiles>
[R3*]N=NN([R4*])CC=1C(=O)N(c2c(cccc2)C1)C

$$$$
m_273170____10758966____10759890____10766558
          04022017313D 1   1.00000     0.00000     0
            
 58 62  0  0  0  0            999 V2000
    0.4648    3.7275    2.5286 S   0  0  0  0  0  0  0  0  0  0  0  0
    0.6132    4.9899    1.8520 O   0  0  0  0  0  0  0  0  0  0  0  0
   -0.5345    2.9375    1.8570 O   0  0  0  0  0  0  0  0  0  0  0  0
    0.0053    3.9882    4.0706 N   0  0  0  0  0  0  0  0  0  0  0  0
    1.0254    4.7946    4.7562 C   0  0  0  0  0  0  0  0  0  0  0  0
   -1.2776    4.7056    4.0850 C   0  0  0  0  0  0  0  0  0  0  0  0
    1.9833    2.8783    2.5116 C   0  0  0  0  0  0  0  0  0  0  0  0
    3.1735    3.5977    2.5023 C   0  0  0  0  0  0  0  0  0  0  0  0
    4.3802    2.9056    2.4882 C   0  0  0  0  0  0  0  0  0  0  0  0
    4.4059    1.5148    2.4827 C   0  0  0  0  0  0  0  0  0  0  0  0
    3.2042    0.8141    2.4925 C   0  0  0  0  0  0  0  0  0  0  0  0
    1.9869    1.4870    2.5070 C   0  0  0  0  0  0  0  0  0  0  0  0
    5.6236    3.6531    2.4786 C   0  0  0  0  0  0  0  0  0  0  0  0
    6.0035    4.5098    1.5576 N   0  0  0  0  0  0  0  0  0  0  0  0
    7.1830    4.9765    1.9022 N   0  0  0  0  0  0  0  0  0  0  0  0
    7.5919    4.4488    3.0295 C   0  0  0  0  0  0  0  0  0  0  0  0
    6.6068    3.5973    3.4160 N   0  0  0  0  0  0  0  0  0  0  0  0
    6.6067    2.7660    4.6291 C   0  0  0  0  0  0  0  0  0  0  0  0
    7.6343    1.6671    4.4869 C   0  0  0  0  0  0  0  0  0  0  0  0
    7.7157    0.8529    3.3944 N   0  0  0  0  0  0  0  0  0  0  0  0
    8.6688   -0.0513    3.4431 C   0  0  0  0  0  0  0  0  0  0  0  0
    9.4712    0.1525    4.9270 S   0  0  0  0  0  0  0  0  0  0  0  0
    8.5315    1.4605    5.4875 C   0  0  0  0  0  0  0  0  0  0  0  0
    9.0108   -1.0609    2.4666 C   0  0  0  0  0  0  0  0  0  0  0  0
    8.3118   -1.3700    1.3940 O   0  0  0  0  0  0  0  0  0  0  0  0
    8.8944   -2.3380    0.7241 C   0  0  0  0  0  0  0  0  0  0  0  0
   10.0318   -2.6830    1.3906 C   0  0  0  0  0  0  0  0  0  0  0  0
   10.1174   -1.8538    2.5324 C   0  0  0  0  0  0  0  0  0  0  0  0
    8.8008    4.7139    3.7015 N   0  0  0  0  0  0  0  0  0  0  0  0
   10.0326    3.9494    3.4537 C   0  0  0  0  0  0  0  0  0  0  0  0
   11.2397    4.8302    3.7356 C   0  0  0  0  0  0  0  0  0  0  0  0
   11.2900    5.2633    5.0929 O   0  0  0  0  0  0  0  0  0  0  0  0
   10.0113    5.3926    5.7048 C   0  0  0  0  0  0  0  0  0  0  0  0
    8.9304    5.7783    4.7063 C   0  0  0  0  0  0  0  0  0  0  0  0
    0.7436    4.9545    5.7022 H   0  0  0  0  0  0  0  0  0  0  0  0
    1.8982    4.3065    4.7464 H   0  0  0  0  0  0  0  0  0  0  0  0
    1.1285    5.6713    4.2864 H   0  0  0  0  0  0  0  0  0  0  0  0
   -1.5595    4.8655    5.0310 H   0  0  0  0  0  0  0  0  0  0  0  0
   -1.1745    5.5823    3.6152 H   0  0  0  0  0  0  0  0  0  0  0  0
   -1.9715    4.1570    3.6186 H   0  0  0  0  0  0  0  0  0  0  0  0
    3.1621    4.5976    2.5056 H   0  0  0  0  0  0  0  0  0  0  0  0
    5.2775    1.0247    2.4718 H   0  0  0  0  0  0  0  0  0  0  0  0
    3.2157   -0.1859    2.4890 H   0  0  0  0  0  0  0  0  0  0  0  0
    1.1263    0.9778    2.5141 H   0  0  0  0  0  0  0  0  0  0  0  0
    5.7011    2.3612    4.7557 H   0  0  0  0  0  0  0  0  0  0  0  0
    6.8321    3.3327    5.4216 H   0  0  0  0  0  0  0  0  0  0  0  0
    8.6197    1.9589    6.3499 H   0  0  0  0  0  0  0  0  0  0  0  0
    8.5622   -2.7490   -0.1249 H   0  0  0  0  0  0  0  0  0  0  0  0
   10.6847   -3.3912    1.1220 H   0  0  0  0  0  0  0  0  0  0  0  0
   10.8312   -1.8499    3.2328 H   0  0  0  0  0  0  0  0  0  0  0  0
   10.0534    3.6504    2.4997 H   0  0  0  0  0  0  0  0  0  0  0  0
   10.0555    3.1501    4.0542 H   0  0  0  0  0  0  0  0  0  0  0  0
   12.0702    4.3115    3.5328 H   0  0  0  0  0  0  0  0  0  0  0  0
   11.1960    5.6345    3.1431 H   0  0  0  0  0  0  0  0  0  0  0  0
   10.0628    6.0981    6.4116 H   0  0  0  0  0  0  0  0  0  0  0  0
    9.7653    4.5185    6.1236 H   0  0  0  0  0  0  0  0  0  0  0  0
    8.0598    5.8953    5.1841 H   0  0  0  0  0  0  0  0  0  0  0  0
    9.1812    6.6352    4.2559 H   0  0  0  0  0  0  0  0  0  0  0  0
  1  2  2  0  0  0  0
  1  3  2  0  0  0  0
  1  4  1  0  0  0  0
  4  5  1  0  0  0  0
  4  6  1  0  0  0  0
  1  7  1  0  0  0  0
  7  8  1  0  0  0  0
  8  9  2  0  0  0  0
  9 10  1  0  0  0  0
 10 11  2  0  0  0  0
 11 12  1  0  0  0  0
 12  7  2  0  0  0  0
  9 13  1  0  0  0  0
 13 14  2  0  0  0  0
 14 15  1  0  0  0  0
 15 16  2  0  0  0  0
 16 17  1  0  0  0  0
 17 13  1  0  0  0  0
 17 18  1  0  0  0  0
 18 19  1  0  0  0  0
 19 20  1  0  0  0  0
 20 21  2  0  0  0  0
 21 22  1  0  0  0  0
 22 23  1  0  0  0  0
 19 23  2  0  0  0  0
 21 24  1  0  0  0  0
 24 25  1  0  0  0  0
 25 26  1  0  0  0  0
 26 27  2  0  0  0  0
 27 28  1  0  0  0  0
 24 28  2  0  0  0  0
 16 29  1  0  0  0  0
 29 30  1  0  0  0  0
 30 31  1  0  0  0  0
 31 32  1  0  0  0  0
 32 33  1  0  0  0  0
 33 34  1  0  0  0  0
 34 29  1  0  0  0  0
  5 35  1  0  0  0  0
  5 36  1  0  0  0  0
  5 37  1  0  0  0  0
  6 38  1  0  0  0  0
  6 39  1  0  0  0  0
  6 40  1  0  0  0  0
  8 41  1  0  0  0  0
 10 42  1  0  0  0  0
 11 43  1  0  0  0  0
 12 44  1  0  0  0  0
 18 45  1  0  0  0  0
 18 46  1  0  0  0  0
 23 47  1  0  0  0  0
 26 48  1  0  0  0  0
 27 49  1  0  0  0  0
 28 50  1  0  0  0  0
 30 51  1  0  0  0  0
 30 52  1  0  0  0  0
 31 53  1  0  0  0  0
 31 54  1  0  0  0  0
 33 55  1  0  0  0  0
 33 56  1  0  0  0  0
 34 57  1  0  0  0  0
 34 58  1  0  0  0  0
M  END
>  <result-rank>
44

>  <similarity>
0.872

>  <query-name>


>  <query-smiles>
S(=O)(=O)(NC(=O)C)c1ccc(cc1)C=2N3C(=NC(=C3)COc4nc5c(cc4)cccc5)C(=NC2)N6CCOCC6

>  <source>
REALspace_2019-12

>  <similarity-descriptor>
1.000;1.000;0.923;0.729;0.870;0.0;1.000;0.528;0.528;0.995;0.923;0.870;0.0

>  <similarity-descriptor-smiles>
c1ccccc1;N1CCOCC1;C1=CSC=N1;C=1N(C=NN1)C;C1=CC=CO1;;S(=O)=O;NC;NC;C;C1=CSC=N1;C1=CC=CO1;

>  <reaction-name>
m_273170

>  <reagent1-name>
10758966

>  <reagent1-smiles>
[R2*]=C([R1*])N([R3*])CC=1N=C(SC1)C=2OC=CC2

>  <reagent2-name>
10759890

>  <reagent2-smiles>
[R1*]N1CCOCC1

>  <reagent3-name>
10766558

>  <reagent3-smiles>
[R2*]=NN=C([R3*])c1cc(S(=O)(=O)N(C)C)ccc1

$$$$
s_274090____12936282____14260840
          04022017313D 1   1.00000     0.00000     0
            
 52 56  0  0  0  0            999 V2000
    3.3565    3.5922    2.4839 S   0  0  0  0  0  0  0  0  0  0  0  0
    4.2306    2.1353    2.4537 C   0  0  0  0  0  0  0  0  0  0  0  0
    3.3504    1.1589    2.4688 N   0  0  0  0  0  0  0  0  0  0  0  0
    2.0451    1.5571    2.5007 C   0  0  0  0  0  0  0  0  0  0  0  0
    1.8007    2.8946    2.5111 C   0  0  0  0  0  0  0  0  0  0  0  0
    0.8828    0.5916    2.5269 C   0  0  0  0  0  0  0  0  0  0  0  0
    0.5391    0.2763    3.9208 N   0  0  0  0  0  0  0  0  0  0  0  0
   -0.3191    0.9304    4.6640 N   0  0  0  0  0  0  0  0  0  0  0  0
   -0.4082    0.4276    5.8191 N   0  0  0  0  0  0  0  0  0  0  0  0
    0.4428   -0.6337    5.8674 C   0  0  0  0  0  0  0  0  0  0  0  0
    0.6584   -1.5025    7.0108 C   0  0  0  0  0  0  0  0  0  0  0  0
    0.4182   -2.8768    6.9766 C   0  0  0  0  0  0  0  0  0  0  0  0
    0.6506   -3.6453    8.1145 C   0  0  0  0  0  0  0  0  0  0  0  0
    1.1198   -3.0060    9.2581 C   0  0  0  0  0  0  0  0  0  0  0  0
    1.3428   -1.6832    9.2684 N   0  0  0  0  0  0  0  0  0  0  0  0
    1.1260   -0.9225    8.1850 C   0  0  0  0  0  0  0  0  0  0  0  0
    0.4240   -5.0175    8.1169 C   0  0  0  0  0  0  0  0  0  0  0  0
   -0.0432   -5.6325    6.9603 C   0  0  0  0  0  0  0  0  0  0  0  0
   -0.2850   -4.8944    5.8074 C   0  0  0  0  0  0  0  0  0  0  0  0
   -0.0501   -3.5241    5.8343 C   0  0  0  0  0  0  0  0  0  0  0  0
    1.0545   -0.7423    4.6563 C   0  0  0  0  0  0  0  0  0  0  0  0
    5.6215    2.0524    2.4228 N   0  0  0  0  0  0  0  0  0  0  0  0
    6.3462    2.0014    3.6192 C   0  0  0  0  0  0  0  0  0  0  0  0
    6.6292    0.7686    4.1977 C   0  0  0  0  0  0  0  0  0  0  0  0
    7.3499    0.7306    5.3866 C   0  0  0  0  0  0  0  0  0  0  0  0
    7.7855    1.9023    5.9964 C   0  0  0  0  0  0  0  0  0  0  0  0
    7.4907    3.1238    5.3991 C   0  0  0  0  0  0  0  0  0  0  0  0
    6.7717    3.1860    4.2105 C   0  0  0  0  0  0  0  0  0  0  0  0
    7.6621   -0.6137    6.0240 C   0  0  0  0  0  0  0  0  0  0  0  0
    8.8233   -1.0657    5.5593 F   0  0  0  0  0  0  0  0  0  0  0  0
    7.7380   -0.4714    7.3442 F   0  0  0  0  0  0  0  0  0  0  0  0
    6.6979   -1.4801    5.7263 F   0  0  0  0  0  0  0  0  0  0  0  0
    6.2794    2.0209    1.2215 C   0  0  0  0  0  0  0  0  0  0  0  0
    5.6580    2.0646    0.1959 O   0  0  0  0  0  0  0  0  0  0  0  0
    7.7963    1.9305    1.1879 C   0  0  0  0  0  0  0  0  0  0  0  0
    0.9159    3.3602    2.5301 H   0  0  0  0  0  0  0  0  0  0  0  0
    0.0936    1.0075    2.0749 H   0  0  0  0  0  0  0  0  0  0  0  0
    1.1366   -0.2487    2.0479 H   0  0  0  0  0  0  0  0  0  0  0  0
    1.2933   -3.5409   10.0850 H   0  0  0  0  0  0  0  0  0  0  0  0
    1.3005    0.0614    8.2217 H   0  0  0  0  0  0  0  0  0  0  0  0
    0.5951   -5.5564    8.9417 H   0  0  0  0  0  0  0  0  0  0  0  0
   -0.2074   -6.6189    6.9580 H   0  0  0  0  0  0  0  0  0  0  0  0
   -0.6204   -5.3391    4.9769 H   0  0  0  0  0  0  0  0  0  0  0  0
   -0.2224   -2.9866    5.0089 H   0  0  0  0  0  0  0  0  0  0  0  0
    1.7320   -1.4206    4.3718 H   0  0  0  0  0  0  0  0  0  0  0  0
    6.3191   -0.0780    3.7651 H   0  0  0  0  0  0  0  0  0  0  0  0
    8.3028    1.8673    6.8515 H   0  0  0  0  0  0  0  0  0  0  0  0
    7.8009    3.9705    5.8314 H   0  0  0  0  0  0  0  0  0  0  0  0
    6.5639    4.0681    3.7878 H   0  0  0  0  0  0  0  0  0  0  0  0
    8.1494    1.9034    2.1231 H   0  0  0  0  0  0  0  0  0  0  0  0
    8.0701    1.0993    0.7040 H   0  0  0  0  0  0  0  0  0  0  0  0
    8.1674    2.7294    0.7145 H   0  0  0  0  0  0  0  0  0  0  0  0
  1  2  1  0  0  0  0
  2  3  2  0  0  0  0
  3  4  1  0  0  0  0
  4  5  2  0  0  0  0
  5  1  1  0  0  0  0
  4  6  1  0  0  0  0
  6  7  1  0  0  0  0
  7  8  1  0  0  0  0
  8  9  2  0  0  0  0
  9 10  1  0  0  0  0
 10 11  1  0  0  0  0
 11 12  1  0  0  0  0
 12 13  2  0  0  0  0
 13 14  1  0  0  0  0
 14 15  2  0  0  0  0
 15 16  1  0  0  0  0
 16 11  2  0  0  0  0
 13 17  1  0  0  0  0
 17 18  2  0  0  0  0
 18 19  1  0  0  0  0
 19 20  2  0  0  0  0
 20 12  1  0  0  0  0
 10 21  2  0  0  0  0
 21  7  1  0  0  0  0
  2 22  1  0  0  0  0
 22 23  1  0  0  0  0
 23 24  1  0  0  0  0
 24 25  2  0  0  0  0
 25 26  1  0  0  0  0
 26 27  2  0  0  0  0
 27 28  1  0  0  0  0
 28 23  2  0  0  0  0
 25 29  1  0  0  0  0
 29 30  1  0  0  0  0
 29 31  1  0  0  0  0
 29 32  1  0  0  0  0
 22 33  1  0  0  0  0
 33 34  2  0  0  0  0
 33 35  1  0  0  0  0
  5 36  1  0  0  0  0
  6 37  1  0  0  0  0
  6 38  1  0  0  0  0
 14 39  1  0  0  0  0
 16 40  1  0  0  0  0
 17 41  1  0  0  0  0
 18 42  1  0  0  0  0
 19 43  1  0  0  0  0
 20 44  1  0  0  0  0
 21 45  1  0  0  0  0
 24 46  1  0  0  0  0
 26 47  1  0  0  0  0
 27 48  1  0  0  0  0
 28 49  1  0  0  0  0
 35 50  1  0  0  0  0
 35 51  1  0  0  0  0
 35 52  1  0  0  0  0
M  END
>  <result-rank>
45

>  <similarity>
0.872

>  <query-name>


>  <query-smiles>
S(=O)(=O)(NC(=O)C)c1ccc(cc1)C=2N3C(=NC(=C3)COc4nc5c(cc4)cccc5)C(=NC2)N6CCOCC6

>  <source>
REALspace_2019-12

>  <similarity-descriptor>
0.937;0.0;0.889;0.895;0.999;0.999;0.623;0.0;0.0;0.0;0.889;0.889;0.0

>  <similarity-descriptor-smiles>
Nc1cccc(c1)C(F)(F)F;;N1C=CN=N1;S1C=C(N=C1)C;c1cnccc1;c1ccccc1;C(=O)C;;;;N1C=CN=N1;N1C=CN=N1;

>  <reaction-name>
s_274090

>  <reagent1-name>
12936282

>  <reagent1-smiles>
[R1*]N=NN([R2*])CC=1N=C(SC1)N(c2cc(ccc2)C(F)(F)F)C(=O)C

>  <reagent2-name>
14260840

>  <reagent2-smiles>
[R1*]C(c1c2c(cnc1)cccc2)=C[R2*]

$$$$
s_270196____10855104____8777480
          04022017313D 1   1.00000     0.00000     0
            
 47 51  0  0  0  0            999 V2000
    1.0000    1.0000    1.0000 S   0  0  0  0  0  0  0  0  0  0  0  0
   -0.2666    1.6504    0.7848 O   0  0  0  0  0  0  0  0  0  0  0  0
    0.7848   -0.2666    1.6504 O   0  0  0  0  0  0  0  0  0  0  0  0
    1.7363    0.7563   -0.4337 N   0  0  0  0  0  0  0  0  0  0  0  0
    0.8876   -0.0924   -1.2824 C   0  0  0  0  0  0  0  0  0  0  0  0
    1.5741   -0.3196   -2.6193 C   0  0  0  0  0  0  0  0  0  0  0  0
    2.0045    2.0045    2.0045 C   0  0  0  0  0  0  0  0  0  0  0  0
    1.8611    3.3871    1.9566 C   0  0  0  0  0  0  0  0  0  0  0  0
    2.6713    4.1779    2.7649 C   0  0  0  0  0  0  0  0  0  0  0  0
    3.6142    3.6035    3.6112 C   0  0  0  0  0  0  0  0  0  0  0  0
    3.7415    2.2187    3.6444 C   0  0  0  0  0  0  0  0  0  0  0  0
    2.9408    1.4099    2.8445 C   0  0  0  0  0  0  0  0  0  0  0  0
    2.5242    5.6200    2.7173 C   0  0  0  0  0  0  0  0  0  0  0  0
    3.2112    6.4936    3.4154 N   0  0  0  0  0  0  0  0  0  0  0  0
    2.8139    7.6585    3.1124 O   0  0  0  0  0  0  0  0  0  0  0  0
    1.8618    7.5774    2.2150 C   0  0  0  0  0  0  0  0  0  0  0  0
    1.6526    6.3148    1.9404 N   0  0  0  0  0  0  0  0  0  0  0  0
    1.1587    8.6992    1.6241 C   0  0  0  0  0  0  0  0  0  0  0  0
    0.1702    8.6266    0.6931 C   0  0  0  0  0  0  0  0  0  0  0  0
   -0.1757    9.9155    0.4402 N   0  0  0  0  0  0  0  0  0  0  0  0
    0.5459   10.7358    1.1718 N   0  0  0  0  0  0  0  0  0  0  0  0
    1.3833   10.0621    1.9213 C   0  0  0  0  0  0  0  0  0  0  0  0
   -1.1601   10.1870   -0.4764 C   0  0  0  0  0  0  0  0  0  0  0  0
   -1.8121    9.1613   -1.1543 C   0  0  0  0  0  0  0  0  0  0  0  0
   -2.8071    9.4531   -2.0817 C   0  0  0  0  0  0  0  0  0  0  0  0
   -3.1702   10.7682   -2.3505 C   0  0  0  0  0  0  0  0  0  0  0  0
   -2.5162   11.7908   -1.6725 C   0  0  0  0  0  0  0  0  0  0  0  0
   -1.5214   11.5019   -0.7447 C   0  0  0  0  0  0  0  0  0  0  0  0
   -1.4405    7.8179   -0.8833 C   0  0  0  0  0  0  0  0  0  0  0  0
   -1.9496    6.8757   -1.4247 O   0  0  0  0  0  0  0  0  0  0  0  0
   -0.4530    7.5938    0.0401 N   0  0  0  0  0  0  0  0  0  0  0  0
    2.6158    0.3047   -0.2842 H   0  0  0  0  0  0  0  0  0  0  0  0
    0.0080    0.3593   -1.4319 H   0  0  0  0  0  0  0  0  0  0  0  0
    0.7381   -0.9719   -0.8307 H   0  0  0  0  0  0  0  0  0  0  0  0
    0.9968   -0.8969   -3.1967 H   0  0  0  0  0  0  0  0  0  0  0  0
    1.7236    0.5600   -3.0710 H   0  0  0  0  0  0  0  0  0  0  0  0
    2.4537   -0.7713   -2.4698 H   0  0  0  0  0  0  0  0  0  0  0  0
    1.1857    3.8064    1.3500 H   0  0  0  0  0  0  0  0  0  0  0  0
    4.1933    4.1790    4.1886 H   0  0  0  0  0  0  0  0  0  0  0  0
    4.4170    1.7993    4.2508 H   0  0  0  0  0  0  0  0  0  0  0  0
    3.0369    0.4149    2.8728 H   0  0  0  0  0  0  0  0  0  0  0  0
    2.0456   10.4360    2.5705 H   0  0  0  0  0  0  0  0  0  0  0  0
   -3.2677    8.7066   -2.5618 H   0  0  0  0  0  0  0  0  0  0  0  0
   -3.8864   10.9740   -3.0173 H   0  0  0  0  0  0  0  0  0  0  0  0
   -2.7635   12.7427   -1.8536 H   0  0  0  0  0  0  0  0  0  0  0  0
   -1.0607   12.2488   -0.2652 H   0  0  0  0  0  0  0  0  0  0  0  0
   -0.1798    6.6535    0.2430 H   0  0  0  0  0  0  0  0  0  0  0  0
  1  2  2  0  0  0  0
  1  3  2  0  0  0  0
  1  4  1  0  0  0  0
  4  5  1  0  0  0  0
  5  6  1  0  0  0  0
  1  7  1  0  0  0  0
  7  8  1  0  0  0  0
  8  9  2  0  0  0  0
  9 10  1  0  0  0  0
 10 11  2  0  0  0  0
 11 12  1  0  0  0  0
 12  7  2  0  0  0  0
  9 13  1  0  0  0  0
 13 14  2  0  0  0  0
 14 15  1  0  0  0  0
 15 16  1  0  0  0  0
 16 17  2  0  0  0  0
 17 13  1  0  0  0  0
 16 18  1  0  0  0  0
 18 19  2  0  0  0  0
 19 20  1  0  0  0  0
 20 21  1  0  0  0  0
 21 22  2  0  0  0  0
 22 18  1  0  0  0  0
 20 23  1  0  0  0  0
 23 24  1  0  0  0  0
 24 25  2  0  0  0  0
 25 26  1  0  0  0  0
 26 27  2  0  0  0  0
 27 28  1  0  0  0  0
 28 23  2  0  0  0  0
 24 29  1  0  0  0  0
 29 30  2  0  0  0  0
 29 31  1  0  0  0  0
 31 19  1  0  0  0  0
  4 32  1  0  0  0  0
  5 33  1  0  0  0  0
  5 34  1  0  0  0  0
  6 35  1  0  0  0  0
  6 36  1  0  0  0  0
  6 37  1  0  0  0  0
  8 38  1  0  0  0  0
 10 39  1  0  0  0  0
 11 40  1  0  0  0  0
 12 41  1  0  0  0  0
 22 42  1  0  0  0  0
 25 43  1  0  0  0  0
 26 44  1  0  0  0  0
 27 45  1  0  0  0  0
 28 46  1  0  0  0  0
 31 47  1  0  0  0  0
M  END
>  <result-rank>
46

>  <similarity>
0.871

>  <query-name>


>  <query-smiles>
S(=O)(=O)(NC(=O)C)c1ccc(cc1)C=2N3C(=NC(=C3)COc4nc5c(cc4)cccc5)C(=NC2)N6CCOCC6

>  <source>
REALspace_2019-12

>  <similarity-descriptor>
1.000;0.0;0.902;0.700;0.860;0.999;1.000;0.730;0.730;1.000;0.902;0.860;0.0

>  <similarity-descriptor-smiles>
c1ccccc1;;C=1C=NNC1;C=1N=CON1;C1NC(ccN1)=O;c1ccccc1;S(=O)=O;NC;NC;C;C=1C=NNC1;C1NC(ccN1)=O;

>  <reaction-name>
s_270196

>  <reagent1-name>
10855104

>  <reagent1-smiles>
[R1*]=NC(=NO[R2*])c1cc(S(=O)(=O)NCC)ccc1

>  <reagent2-name>
8777480

>  <reagent2-smiles>
[R1*]C([R2*])C=1C2=NC(=O)c3c(N2NC1)cccc3

$$$$
m_274972____12934338____12615770____14584994
          04022017313D 1   1.00000     0.00000     0
            
 58 62  0  0  0  0            999 V2000
    7.2001    1.5470    2.4514 S   0  0  0  0  0  0  0  0  0  0  0  0
    5.6629    0.8199    2.4636 C   0  0  0  0  0  0  0  0  0  0  0  0
    5.8493   -0.4811    2.4614 N   0  0  0  0  0  0  0  0  0  0  0  0
    7.1575   -0.8788    2.4485 C   0  0  0  0  0  0  0  0  0  0  0  0
    7.5997   -2.2604    2.4343 C   0  0  0  0  0  0  0  0  0  0  0  0
    8.8922   -2.6902    2.4120 N   0  0  0  0  0  0  0  0  0  0  0  0
    8.8813   -3.9527    2.4050 N   0  0  0  0  0  0  0  0  0  0  0  0
    7.6535   -4.4110    2.4269 N   0  0  0  0  0  0  0  0  0  0  0  0
    7.2876   -5.7638    2.4288 C   0  0  0  0  0  0  0  0  0  0  0  0
    7.2412   -6.5842    1.3444 N   0  0  0  0  0  0  0  0  0  0  0  0
    6.8395   -7.8255    1.7389 C   0  0  0  0  0  0  0  0  0  0  0  0
    6.6174   -7.8111    3.0976 C   0  0  0  0  0  0  0  0  0  0  0  0
    6.1922   -8.9866    3.7128 C   0  0  0  0  0  0  0  0  0  0  0  0
    5.9930  -10.1560    2.9852 C   0  0  0  0  0  0  0  0  0  0  0  0
    6.2242  -10.1461    1.6132 C   0  0  0  0  0  0  0  0  0  0  0  0
    6.6496   -8.9807    0.9845 C   0  0  0  0  0  0  0  0  0  0  0  0
    6.9060   -6.4936    3.5117 C   0  0  0  0  0  0  0  0  0  0  0  0
    6.8127   -5.9963    4.8686 C   0  0  0  0  0  0  0  0  0  0  0  0
    6.4646   -6.7284    5.7534 O   0  0  0  0  0  0  0  0  0  0  0  0
    7.1084   -4.7471    5.1302 O   0  0  0  0  0  0  0  0  0  0  0  0
    7.0169   -4.2595    6.4606 C   0  0  0  0  0  0  0  0  0  0  0  0
    7.5711   -6.1776   -0.0312 C   0  0  0  0  0  0  0  0  0  0  0  0
    6.7963   -3.3557    2.4469 C   0  0  0  0  0  0  0  0  0  0  0  0
    8.1028    0.1026    2.4391 C   0  0  0  0  0  0  0  0  0  0  0  0
    4.3934    1.5238    2.4792 C   0  0  0  0  0  0  0  0  0  0  0  0
    4.3898    2.9144    2.4850 C   0  0  0  0  0  0  0  0  0  0  0  0
    3.1783    3.5981    2.5011 C   0  0  0  0  0  0  0  0  0  0  0  0
    1.9856    2.8824    2.5103 C   0  0  0  0  0  0  0  0  0  0  0  0
    0.8052    3.5371    2.5243 O   0  0  0  0  0  0  0  0  0  0  0  0
    0.7807    4.9569    2.5297 C   0  0  0  0  0  0  0  0  0  0  0  0
   -0.6608    5.4387    2.5457 C   0  0  0  0  0  0  0  0  0  0  0  0
   -0.6853    6.8585    2.5511 O   0  0  0  0  0  0  0  0  0  0  0  0
   -2.0320    7.3086    2.5660 C   0  0  0  0  0  0  0  0  0  0  0  0
    1.9898    1.4913    2.5046 C   0  0  0  0  0  0  0  0  0  0  0  0
    3.2009    0.8075    2.4890 C   0  0  0  0  0  0  0  0  0  0  0  0
    6.0264   -8.9900    4.6990 H   0  0  0  0  0  0  0  0  0  0  0  0
    5.6881  -10.9916    3.4420 H   0  0  0  0  0  0  0  0  0  0  0  0
    6.0841  -10.9790    1.0778 H   0  0  0  0  0  0  0  0  0  0  0  0
    6.8177   -8.9723   -0.0012 H   0  0  0  0  0  0  0  0  0  0  0  0
    7.2762   -3.2939    6.4803 H   0  0  0  0  0  0  0  0  0  0  0  0
    6.0774   -4.3590    6.7883 H   0  0  0  0  0  0  0  0  0  0  0  0
    7.6328   -4.7820    7.0503 H   0  0  0  0  0  0  0  0  0  0  0  0
    7.8358   -5.2133   -0.0393 H   0  0  0  0  0  0  0  0  0  0  0  0
    8.3294   -6.7343   -0.3705 H   0  0  0  0  0  0  0  0  0  0  0  0
    6.7723   -6.3090   -0.6182 H   0  0  0  0  0  0  0  0  0  0  0  0
    5.7968   -3.3804    2.4665 H   0  0  0  0  0  0  0  0  0  0  0  0
    9.0973   -0.0013    2.4277 H   0  0  0  0  0  0  0  0  0  0  0  0
    5.2527    3.4198    2.4778 H   0  0  0  0  0  0  0  0  0  0  0  0
    3.1650    4.5980    2.5060 H   0  0  0  0  0  0  0  0  0  0  0  0
    1.2382    5.3012    1.7099 H   0  0  0  0  0  0  0  0  0  0  0  0
    1.2543    5.2953    3.3428 H   0  0  0  0  0  0  0  0  0  0  0  0
   -1.1345    5.1002    1.7326 H   0  0  0  0  0  0  0  0  0  0  0  0
   -1.1183    5.0943    3.3655 H   0  0  0  0  0  0  0  0  0  0  0  0
   -2.0492    8.3085    2.5698 H   0  0  0  0  0  0  0  0  0  0  0  0
   -2.5056    6.9702    1.7529 H   0  0  0  0  0  0  0  0  0  0  0  0
   -2.4895    6.9643    3.3858 H   0  0  0  0  0  0  0  0  0  0  0  0
    1.1270    0.9859    2.5117 H   0  0  0  0  0  0  0  0  0  0  0  0
    3.2144   -0.1924    2.4849 H   0  0  0  0  0  0  0  0  0  0  0  0
  1  2  1  0  0  0  0
  2  3  2  0  0  0  0
  3  4  1  0  0  0  0
  4  5  1  0  0  0  0
  5  6  1  0  0  0  0
  6  7  2  0  0  0  0
  7  8  1  0  0  0  0
  8  9  1  0  0  0  0
  9 10  1  0  0  0  0
 10 11  1  0  0  0  0
 11 12  1  0  0  0  0
 12 13  2  0  0  0  0
 13 14  1  0  0  0  0
 14 15  2  0  0  0  0
 15 16  1  0  0  0  0
 16 11  2  0  0  0  0
 12 17  1  0  0  0  0
  9 17  2  0  0  0  0
 17 18  1  0  0  0  0
 18 19  2  0  0  0  0
 18 20  1  0  0  0  0
 20 21  1  0  0  0  0
 10 22  1  0  0  0  0
  8 23  1  0  0  0  0
  5 23  2  0  0  0  0
  4 24  2  0  0  0  0
 24  1  1  0  0  0  0
  2 25  1  0  0  0  0
 25 26  1  0  0  0  0
 26 27  2  0  0  0  0
 27 28  1  0  0  0  0
 28 29  1  0  0  0  0
 29 30  1  0  0  0  0
 30 31  1  0  0  0  0
 31 32  1  0  0  0  0
 32 33  1  0  0  0  0
 28 34  2  0  0  0  0
 34 35  1  0  0  0  0
 35 25  2  0  0  0  0
 13 36  1  0  0  0  0
 14 37  1  0  0  0  0
 15 38  1  0  0  0  0
 16 39  1  0  0  0  0
 21 40  1  0  0  0  0
 21 41  1  0  0  0  0
 21 42  1  0  0  0  0
 22 43  1  0  0  0  0
 22 44  1  0  0  0  0
 22 45  1  0  0  0  0
 23 46  1  0  0  0  0
 24 47  1  0  0  0  0
 26 48  1  0  0  0  0
 27 49  1  0  0  0  0
 30 50  1  0  0  0  0
 30 51  1  0  0  0  0
 31 52  1  0  0  0  0
 31 53  1  0  0  0  0
 33 54  1  0  0  0  0
 33 55  1  0  0  0  0
 33 56  1  0  0  0  0
 34 57  1  0  0  0  0
 35 58  1  0  0  0  0
M  END
>  <result-rank>
47

>  <similarity>
0.871

>  <query-name>


>  <query-smiles>
S(=O)(=O)(NC(=O)C)c1ccc(cc1)C=2N3C(=NC(=C3)COc4nc5c(cc4)cccc5)C(=NC2)N6CCOCC6

>  <source>
REALspace_2019-12

>  <similarity-descriptor>
0.999;0.0;0.889;0.976;0.907;0.999;0.542;0.737;0.737;0.994;0.889;0.889;0.214

>  <similarity-descriptor-smiles>
c1ccccc1;;C1=CNN=N1;S1C=CN=C1;C1=C(ccN1)C=O;c1ccccc1;OC;CO;CO;C;C1=CNN=N1;C1=CNN=N1;O.C.C

>  <reaction-name>
m_274972

>  <reagent1-name>
12934338

>  <reagent1-smiles>
[R1*]SC(=N[R2*])c1ccc(OCCOC)cc1

>  <reagent2-name>
12615770

>  <reagent2-smiles>
[R2*]C(C([R3*])=C[R4*])=C[R1*]

>  <reagent3-name>
14584994

>  <reagent3-smiles>
[R3*]N=NN([R4*])C=1N(c2c(cccc2)C1C(=O)OC)C

$$$$
m_274972____12934338____12615770____13046636
          04022017313D 1   1.00000     0.00000     0
            
 51 55  0  0  0  0            999 V2000
    7.5583   -0.4014    0.9946 S   0  0  0  0  0  0  0  0  0  0  0  0
    6.5663    0.9798    0.9971 C   0  0  0  0  0  0  0  0  0  0  0  0
    7.3601    2.0273    0.9933 N   0  0  0  0  0  0  0  0  0  0  0  0
    8.6971    1.7408    0.9908 C   0  0  0  0  0  0  0  0  0  0  0  0
    9.7538    2.7347    0.9960 C   0  0  0  0  0  0  0  0  0  0  0  0
   11.0928    2.4840    1.0028 N   0  0  0  0  0  0  0  0  0  0  0  0
   11.6954    3.5934    1.0062 N   0  0  0  0  0  0  0  0  0  0  0  0
   10.8436    4.5895    0.9963 N   0  0  0  0  0  0  0  0  0  0  0  0
   11.1791    5.9486    0.9944 C   0  0  0  0  0  0  0  0  0  0  0  0
   10.1650    6.9006    0.9834 C   0  0  0  0  0  0  0  0  0  0  0  0
   10.4991    8.2513    0.9817 C   0  0  0  0  0  0  0  0  0  0  0  0
   11.8366    8.6352    0.9916 C   0  0  0  0  0  0  0  0  0  0  0  0
   12.8443    7.6764    1.0026 C   0  0  0  0  0  0  0  0  0  0  0  0
   12.5184    6.3237    1.0039 C   0  0  0  0  0  0  0  0  0  0  0  0
   12.1778    9.9837    0.9911 C   0  0  0  0  0  0  0  0  0  0  0  0
   11.1651   10.9369    0.9802 C   0  0  0  0  0  0  0  0  0  0  0  0
    9.8273   10.5560    0.9707 C   0  0  0  0  0  0  0  0  0  0  0  0
    9.4889    9.2072    0.9712 C   0  0  0  0  0  0  0  0  0  0  0  0
    9.5821    4.0822    0.9889 C   0  0  0  0  0  0  0  0  0  0  0  0
    9.0481    0.4242    0.9927 C   0  0  0  0  0  0  0  0  0  0  0  0
    5.1146    0.9796    0.9975 C   0  0  0  0  0  0  0  0  0  0  0  0
    4.4370    2.1940    0.9996 C   0  0  0  0  0  0  0  0  0  0  0  0
    3.0459    2.2044    1.0013 C   0  0  0  0  0  0  0  0  0  0  0  0
    2.3499    1.0000    1.0000 C   0  0  0  0  0  0  0  0  0  0  0  0
    1.0000    1.0000    1.0000 O   0  0  0  0  0  0  0  0  0  0  0  0
    0.2900   -0.2298    0.9987 C   0  0  0  0  0  0  0  0  0  0  0  0
   -1.2044    0.0480    0.9990 C   0  0  0  0  0  0  0  0  0  0  0  0
   -1.5861    0.5833    2.2576 O   0  0  0  0  0  0  0  0  0  0  0  0
   -2.9822    0.8428    2.2579 C   0  0  0  0  0  0  0  0  0  0  0  0
    3.0283   -0.2145    0.9981 C   0  0  0  0  0  0  0  0  0  0  0  0
    4.4192   -0.2251    0.9969 C   0  0  0  0  0  0  0  0  0  0  0  0
    9.2060    6.6173    0.9767 H   0  0  0  0  0  0  0  0  0  0  0  0
   13.8034    7.9595    1.0097 H   0  0  0  0  0  0  0  0  0  0  0  0
   13.2384    5.6297    1.0115 H   0  0  0  0  0  0  0  0  0  0  0  0
   13.1378   10.2638    0.9986 H   0  0  0  0  0  0  0  0  0  0  0  0
   11.4017   11.9085    0.9791 H   0  0  0  0  0  0  0  0  0  0  0  0
    9.1091   11.2519    0.9635 H   0  0  0  0  0  0  0  0  0  0  0  0
    8.5289    8.9274    0.9641 H   0  0  0  0  0  0  0  0  0  0  0  0
    8.7198    4.5885    0.9802 H   0  0  0  0  0  0  0  0  0  0  0  0
    9.9684    0.0328    0.9930 H   0  0  0  0  0  0  0  0  0  0  0  0
    4.9466    3.0545    1.0000 H   0  0  0  0  0  0  0  0  0  0  0  0
    2.5493    3.0723    1.0034 H   0  0  0  0  0  0  0  0  0  0  0  0
    0.5316   -0.7550    1.8146 H   0  0  0  0  0  0  0  0  0  0  0  0
    0.5316   -0.7533    0.1817 H   0  0  0  0  0  0  0  0  0  0  0  0
   -1.4214    0.7055    0.2775 H   0  0  0  0  0  0  0  0  0  0  0  0
   -1.7018   -0.8038    0.8344 H   0  0  0  0  0  0  0  0  0  0  0  0
   -3.2510    1.2198    3.1442 H   0  0  0  0  0  0  0  0  0  0  0  0
   -3.1992    1.5003    1.5363 H   0  0  0  0  0  0  0  0  0  0  0  0
   -3.4796   -0.0090    2.0933 H   0  0  0  0  0  0  0  0  0  0  0  0
    2.5188   -1.0750    0.9976 H   0  0  0  0  0  0  0  0  0  0  0  0
    4.9159   -1.0930    0.9956 H   0  0  0  0  0  0  0  0  0  0  0  0
  1  2  1  0  0  0  0
  2  3  2  0  0  0  0
  3  4  1  0  0  0  0
  4  5  1  0  0  0  0
  5  6  1  0  0  0  0
  6  7  2  0  0  0  0
  7  8  1  0  0  0  0
  8  9  1  0  0  0  0
  9 10  1  0  0  0  0
 10 11  2  0  0  0  0
 11 12  1  0  0  0  0
 12 13  2  0  0  0  0
 13 14  1  0  0  0  0
 14  9  2  0  0  0  0
 12 15  1  0  0  0  0
 15 16  2  0  0  0  0
 16 17  1  0  0  0  0
 17 18  2  0  0  0  0
 18 11  1  0  0  0  0
  8 19  1  0  0  0  0
  5 19  2  0  0  0  0
  4 20  2  0  0  0  0
 20  1  1  0  0  0  0
  2 21  1  0  0  0  0
 21 22  1  0  0  0  0
 22 23  2  0  0  0  0
 23 24  1  0  0  0  0
 24 25  1  0  0  0  0
 25 26  1  0  0  0  0
 26 27  1  0  0  0  0
 27 28  1  0  0  0  0
 28 29  1  0  0  0  0
 24 30  2  0  0  0  0
 30 31  1  0  0  0  0
 31 21  2  0  0  0  0
 10 32  1  0  0  0  0
 13 33  1  0  0  0  0
 14 34  1  0  0  0  0
 15 35  1  0  0  0  0
 16 36  1  0  0  0  0
 17 37  1  0  0  0  0
 18 38  1  0  0  0  0
 19 39  1  0  0  0  0
 20 40  1  0  0  0  0
 22 41  1  0  0  0  0
 23 42  1  0  0  0  0
 26 43  1  0  0  0  0
 26 44  1  0  0  0  0
 27 45  1  0  0  0  0
 27 46  1  0  0  0  0
 29 47  1  0  0  0  0
 29 48  1  0  0  0  0
 29 49  1  0  0  0  0
 30 50  1  0  0  0  0
 31 51  1  0  0  0  0
M  END
>  <result-rank>
48

>  <similarity>
0.871

>  <query-name>


>  <query-smiles>
S(=O)(=O)(NC(=O)C)c1ccc(cc1)C=2N3C(=NC(=C3)COc4nc5c(cc4)cccc5)C(=NC2)N6CCOCC6

>  <source>
REALspace_2019-12

>  <similarity-descriptor>
0.999;0.0;0.889;0.976;0.831;0.999;0.542;0.737;0.737;0.994;0.889;0.889;0.0

>  <similarity-descriptor-smiles>
c1ccccc1;;C1=CNN=N1;S1C=CN=C1;c1ccccc1;c1ccccc1;OC;CO;CO;C;C1=CNN=N1;C1=CNN=N1;

>  <reaction-name>
m_274972

>  <reagent1-name>
12934338

>  <reagent1-smiles>
[R1*]SC(=N[R2*])c1ccc(OCCOC)cc1

>  <reagent2-name>
12615770

>  <reagent2-smiles>
[R2*]C(C([R3*])=C[R4*])=C[R1*]

>  <reagent3-name>
13046636

>  <reagent3-smiles>
[R3*]N=NN([R4*])c1cc2c(cc1)cccc2

$$$$
m_274972____12934338____12615770____13046748
          04022017313D 1   1.00000     0.00000     0
            
 51 55  0  0  0  0            999 V2000
    7.5583   -0.4014    0.9946 S   0  0  0  0  0  0  0  0  0  0  0  0
    6.5663    0.9798    0.9971 C   0  0  0  0  0  0  0  0  0  0  0  0
    7.3601    2.0273    0.9933 N   0  0  0  0  0  0  0  0  0  0  0  0
    8.6971    1.7408    0.9908 C   0  0  0  0  0  0  0  0  0  0  0  0
    9.7531    2.7340    0.9960 C   0  0  0  0  0  0  0  0  0  0  0  0
   11.0902    2.4792    1.0027 N   0  0  0  0  0  0  0  0  0  0  0  0
   11.6865    3.5926    1.0065 N   0  0  0  0  0  0  0  0  0  0  0  0
   10.8383    4.5912    1.0044 N   0  0  0  0  0  0  0  0  0  0  0  0
    9.5786    4.0840    0.9989 C   0  0  0  0  0  0  0  0  0  0  0  0
   11.1920    6.0178    1.0095 C   0  0  0  0  0  0  0  0  0  0  0  0
   11.3214    6.5130   -0.4222 C   0  0  0  0  0  0  0  0  0  0  0  0
   10.3113    7.0384   -1.1736 N   0  0  0  0  0  0  0  0  0  0  0  0
   10.8085    7.3492   -2.3480 C   0  0  0  0  0  0  0  0  0  0  0  0
   12.1265    7.0355   -2.3765 N   0  0  0  0  0  0  0  0  0  0  0  0
   12.4617    6.5059   -1.1658 C   0  0  0  0  0  0  0  0  0  0  0  0
   12.8788    7.2635   -3.4999 C   0  0  0  0  0  0  0  0  0  0  0  0
   12.3078    7.8151   -4.6178 C   0  0  0  0  0  0  0  0  0  0  0  0
   10.9278    8.1544   -4.6169 C   0  0  0  0  0  0  0  0  0  0  0  0
   10.1860    7.9210   -3.4887 C   0  0  0  0  0  0  0  0  0  0  0  0
    9.0481    0.4242    0.9927 C   0  0  0  0  0  0  0  0  0  0  0  0
    5.1146    0.9796    0.9975 C   0  0  0  0  0  0  0  0  0  0  0  0
    4.4370    2.1940    0.9996 C   0  0  0  0  0  0  0  0  0  0  0  0
    3.0459    2.2044    1.0013 C   0  0  0  0  0  0  0  0  0  0  0  0
    2.3499    1.0000    1.0000 C   0  0  0  0  0  0  0  0  0  0  0  0
    1.0000    1.0000    1.0000 O   0  0  0  0  0  0  0  0  0  0  0  0
    0.2900   -0.2298    0.9987 C   0  0  0  0  0  0  0  0  0  0  0  0
   -1.2044    0.0480    0.9990 C   0  0  0  0  0  0  0  0  0  0  0  0
   -1.5861    0.5833    2.2576 O   0  0  0  0  0  0  0  0  0  0  0  0
   -2.9822    0.8428    2.2579 C   0  0  0  0  0  0  0  0  0  0  0  0
    3.0283   -0.2145    0.9981 C   0  0  0  0  0  0  0  0  0  0  0  0
    4.4192   -0.2251    0.9969 C   0  0  0  0  0  0  0  0  0  0  0  0
    8.7156    4.5893    0.9972 H   0  0  0  0  0  0  0  0  0  0  0  0
   12.0623    6.1438    1.4857 H   0  0  0  0  0  0  0  0  0  0  0  0
   10.4774    6.5368    1.4784 H   0  0  0  0  0  0  0  0  0  0  0  0
   13.3628    6.1785   -0.8815 H   0  0  0  0  0  0  0  0  0  0  0  0
   13.8502    7.0260   -3.5039 H   0  0  0  0  0  0  0  0  0  0  0  0
   12.8623    7.9785   -5.4337 H   0  0  0  0  0  0  0  0  0  0  0  0
   10.5042    8.5578   -5.4279 H   0  0  0  0  0  0  0  0  0  0  0  0
    9.2132    8.1517   -3.4689 H   0  0  0  0  0  0  0  0  0  0  0  0
    9.9684    0.0328    0.9930 H   0  0  0  0  0  0  0  0  0  0  0  0
    4.9466    3.0545    1.0000 H   0  0  0  0  0  0  0  0  0  0  0  0
    2.5493    3.0723    1.0034 H   0  0  0  0  0  0  0  0  0  0  0  0
    0.5316   -0.7550    1.8146 H   0  0  0  0  0  0  0  0  0  0  0  0
    0.5316   -0.7533    0.1817 H   0  0  0  0  0  0  0  0  0  0  0  0
   -1.4214    0.7055    0.2775 H   0  0  0  0  0  0  0  0  0  0  0  0
   -1.7018   -0.8038    0.8344 H   0  0  0  0  0  0  0  0  0  0  0  0
   -3.2510    1.2198    3.1442 H   0  0  0  0  0  0  0  0  0  0  0  0
   -3.1992    1.5003    1.5363 H   0  0  0  0  0  0  0  0  0  0  0  0
   -3.4796   -0.0090    2.0933 H   0  0  0  0  0  0  0  0  0  0  0  0
    2.5188   -1.0750    0.9976 H   0  0  0  0  0  0  0  0  0  0  0  0
    4.9159   -1.0930    0.9956 H   0  0  0  0  0  0  0  0  0  0  0  0
  1  2  1  0  0  0  0
  2  3  2  0  0  0  0
  3  4  1  0  0  0  0
  4  5  1  0  0  0  0
  5  6  1  0  0  0  0
  6  7  2  0  0  0  0
  7  8  1  0  0  0  0
  8  9  1  0  0  0  0
  5  9  2  0  0  0  0
  8 10  1  0  0  0  0
 10 11  1  0  0  0  0
 11 12  1  0  0  0  0
 12 13  2  0  0  0  0
 13 14  1  0  0  0  0
 14 15  1  0  0  0  0
 11 15  2  0  0  0  0
 14 16  1  0  0  0  0
 16 17  2  0  0  0  0
 17 18  1  0  0  0  0
 18 19  2  0  0  0  0
 19 13  1  0  0  0  0
  4 20  2  0  0  0  0
 20  1  1  0  0  0  0
  2 21  1  0  0  0  0
 21 22  1  0  0  0  0
 22 23  2  0  0  0  0
 23 24  1  0  0  0  0
 24 25  1  0  0  0  0
 25 26  1  0  0  0  0
 26 27  1  0  0  0  0
 27 28  1  0  0  0  0
 28 29  1  0  0  0  0
 24 30  2  0  0  0  0
 30 31  1  0  0  0  0
 31 21  2  0  0  0  0
  9 32  1  0  0  0  0
 10 33  1  0  0  0  0
 10 34  1  0  0  0  0
 15 35  1  0  0  0  0
 16 36  1  0  0  0  0
 17 37  1  0  0  0  0
 18 38  1  0  0  0  0
 19 39  1  0  0  0  0
 20 40  1  0  0  0  0
 22 41  1  0  0  0  0
 23 42  1  0  0  0  0
 26 43  1  0  0  0  0
 26 44  1  0  0  0  0
 27 45  1  0  0  0  0
 27 46  1  0  0  0  0
 29 47  1  0  0  0  0
 29 48  1  0  0  0  0
 29 49  1  0  0  0  0
 30 50  1  0  0  0  0
 31 51  1  0  0  0  0
M  END
>  <result-rank>
49

>  <similarity>
0.871

>  <query-name>


>  <query-smiles>
S(=O)(=O)(NC(=O)C)c1ccc(cc1)C=2N3C(=NC(=C3)COc4nc5c(cc4)cccc5)C(=NC2)N6CCOCC6

>  <source>
REALspace_2019-12

>  <similarity-descriptor>
0.999;0.0;0.889;0.976;0.860;0.969;0.542;0.737;0.737;0.994;0.889;0.889;0.0

>  <similarity-descriptor-smiles>
c1ccccc1;;C1=CNN=N1;S1C=CN=C1;CC1=CNC=N1;C1C=CC=CN1;OC;CO;CO;C;C1=CNN=N1;C1=CNN=N1;

>  <reaction-name>
m_274972

>  <reagent1-name>
12934338

>  <reagent1-smiles>
[R1*]SC(=N[R2*])c1ccc(OCCOC)cc1

>  <reagent2-name>
12615770

>  <reagent2-smiles>
[R2*]C(C([R3*])=C[R4*])=C[R1*]

>  <reagent3-name>
13046748

>  <reagent3-smiles>
[R3*]N=NN([R4*])CC=1N=C2N(C1)C=CC=C2

$$$$
m_273170____14420506____14470620____10766558
          04022017313D 1   1.00000     0.00000     0
            
 72 77  0  0  0  0            999 V2000
    0.4648    3.7275    2.5286 S   0  0  0  0  0  0  0  0  0  0  0  0
    0.6132    4.9899    1.8520 O   0  0  0  0  0  0  0  0  0  0  0  0
   -0.5345    2.9375    1.8570 O   0  0  0  0  0  0  0  0  0  0  0  0
    0.0053    3.9882    4.0706 N   0  0  0  0  0  0  0  0  0  0  0  0
    1.0254    4.7946    4.7562 C   0  0  0  0  0  0  0  0  0  0  0  0
   -1.2776    4.7056    4.0850 C   0  0  0  0  0  0  0  0  0  0  0  0
    1.9833    2.8783    2.5116 C   0  0  0  0  0  0  0  0  0  0  0  0
    3.1735    3.5977    2.5023 C   0  0  0  0  0  0  0  0  0  0  0  0
    4.3802    2.9056    2.4882 C   0  0  0  0  0  0  0  0  0  0  0  0
    4.4059    1.5148    2.4827 C   0  0  0  0  0  0  0  0  0  0  0  0
    3.2042    0.8141    2.4925 C   0  0  0  0  0  0  0  0  0  0  0  0
    1.9869    1.4870    2.5070 C   0  0  0  0  0  0  0  0  0  0  0  0
    5.6236    3.6531    2.4786 C   0  0  0  0  0  0  0  0  0  0  0  0
    6.0035    4.5098    1.5576 N   0  0  0  0  0  0  0  0  0  0  0  0
    7.1830    4.9765    1.9022 N   0  0  0  0  0  0  0  0  0  0  0  0
    7.5919    4.4488    3.0295 C   0  0  0  0  0  0  0  0  0  0  0  0
    6.6068    3.5973    3.4160 N   0  0  0  0  0  0  0  0  0  0  0  0
    6.6067    2.7660    4.6291 C   0  0  0  0  0  0  0  0  0  0  0  0
    6.4531    3.6533    5.8503 C   0  0  3  0  0  0  0  0  0  0  0  0
    5.1735    4.2591    5.9023 O   0  0  0  0  0  0  0  0  0  0  0  0
    4.4969    3.7523    7.0407 C   0  0  0  0  0  0  0  0  0  0  0  0
    5.6190    3.5114    8.0228 C   0  0  0  0  0  0  0  0  0  0  0  0
    5.2275    2.7582    9.0498 F   0  0  0  0  0  0  0  0  0  0  0  0
    6.1387    4.6415    8.5019 F   0  0  0  0  0  0  0  0  0  0  0  0
    6.5326    2.7676    7.0685 C   0  0  0  0  0  0  0  0  0  0  0  0
    8.8020    4.7142    3.7021 N   0  0  0  0  0  0  0  0  0  0  0  0
    8.9195    5.7815    4.7060 C   0  0  0  0  0  0  0  0  0  0  0  0
   10.3686    6.2418    4.7355 C   0  0  3  0  0  0  0  0  0  0  0  0
   11.2395    5.2129    5.1938 O   0  0  0  0  0  0  0  0  0  0  0  0
   10.8769    3.9160    4.7335 C   0  0  0  0  0  0  0  0  0  0  0  0
   10.0356    3.9494    3.4624 C   0  0  0  0  0  0  0  0  0  0  0  0
   10.5068    7.4330    5.6703 C   0  0  0  0  0  0  0  0  0  0  0  0
   10.9344    8.6874    5.2377 C   0  0  0  0  0  0  0  0  0  0  0  0
   11.0457    9.7511    6.1287 C   0  0  0  0  0  0  0  0  0  0  0  0
   10.7241    9.5536    7.4674 C   0  0  0  0  0  0  0  0  0  0  0  0
   10.2970    8.3033    7.9031 C   0  0  0  0  0  0  0  0  0  0  0  0
   10.1870    7.2420    7.0104 C   0  0  0  0  0  0  0  0  0  0  0  0
   11.4734   11.0069    5.7087 C   0  0  0  0  0  0  0  0  0  0  0  0
   11.7953   11.2006    4.3700 C   0  0  0  0  0  0  0  0  0  0  0  0
   11.6932   10.1586    3.4542 C   0  0  0  0  0  0  0  0  0  0  0  0
   11.2627    8.9154    3.9046 C   0  0  0  0  0  0  0  0  0  0  0  0
    0.7436    4.9545    5.7022 H   0  0  0  0  0  0  0  0  0  0  0  0
    1.8982    4.3065    4.7464 H   0  0  0  0  0  0  0  0  0  0  0  0
    1.1285    5.6713    4.2864 H   0  0  0  0  0  0  0  0  0  0  0  0
   -1.5595    4.8655    5.0310 H   0  0  0  0  0  0  0  0  0  0  0  0
   -1.1745    5.5823    3.6152 H   0  0  0  0  0  0  0  0  0  0  0  0
   -1.9715    4.1570    3.6186 H   0  0  0  0  0  0  0  0  0  0  0  0
    3.1621    4.5976    2.5056 H   0  0  0  0  0  0  0  0  0  0  0  0
    5.2775    1.0247    2.4718 H   0  0  0  0  0  0  0  0  0  0  0  0
    3.2157   -0.1859    2.4890 H   0  0  0  0  0  0  0  0  0  0  0  0
    1.1263    0.9778    2.5141 H   0  0  0  0  0  0  0  0  0  0  0  0
    7.4690    2.2632    4.6888 H   0  0  0  0  0  0  0  0  0  0  0  0
    5.8454    2.1187    4.5896 H   0  0  0  0  0  0  0  0  0  0  0  0
    7.1722    4.3479    5.8729 H   0  0  0  0  0  0  0  0  0  0  0  0
    4.0188    2.9008    6.8253 H   0  0  0  0  0  0  0  0  0  0  0  0
    3.8439    4.4202    7.3978 H   0  0  0  0  0  0  0  0  0  0  0  0
    6.1929    1.8469    6.8766 H   0  0  0  0  0  0  0  0  0  0  0  0
    7.4664    2.7114    7.4220 H   0  0  0  0  0  0  0  0  0  0  0  0
    8.6560    5.4321    5.6052 H   0  0  0  0  0  0  0  0  0  0  0  0
    8.3253    6.5469    4.4586 H   0  0  0  0  0  0  0  0  0  0  0  0
   10.6432    6.5160    3.8139 H   0  0  0  0  0  0  0  0  0  0  0  0
   10.3521    3.4582    5.4511 H   0  0  0  0  0  0  0  0  0  0  0  0
   11.7122    3.3980    4.5493 H   0  0  0  0  0  0  0  0  0  0  0  0
   10.5587    4.3842    2.7293 H   0  0  0  0  0  0  0  0  0  0  0  0
    9.8004    3.0150    3.1952 H   0  0  0  0  0  0  0  0  0  0  0  0
   10.7999   10.3103    8.1168 H   0  0  0  0  0  0  0  0  0  0  0  0
   10.0670    8.1663    8.8665 H   0  0  0  0  0  0  0  0  0  0  0  0
    9.8795    6.3460    7.3307 H   0  0  0  0  0  0  0  0  0  0  0  0
   11.5483   11.7607    6.3615 H   0  0  0  0  0  0  0  0  0  0  0  0
   12.1040   12.1004    4.0616 H   0  0  0  0  0  0  0  0  0  0  0  0
   11.9247   10.3006    2.4918 H   0  0  0  0  0  0  0  0  0  0  0  0
   11.1866    8.1625    3.2509 H   0  0  0  0  0  0  0  0  0  0  0  0
  1  2  2  0  0  0  0
  1  3  2  0  0  0  0
  1  4  1  0  0  0  0
  4  5  1  0  0  0  0
  4  6  1  0  0  0  0
  1  7  1  0  0  0  0
  7  8  1  0  0  0  0
  8  9  2  0  0  0  0
  9 10  1  0  0  0  0
 10 11  2  0  0  0  0
 11 12  1  0  0  0  0
 12  7  2  0  0  0  0
  9 13  1  0  0  0  0
 13 14  2  0  0  0  0
 14 15  1  0  0  0  0
 15 16  2  0  0  0  0
 16 17  1  0  0  0  0
 17 13  1  0  0  0  0
 17 18  1  0  0  0  0
 18 19  1  0  0  0  0
 19 20  1  0  0  0  0
 20 21  1  0  0  0  0
 21 22  1  0  0  0  0
 22 23  1  0  0  0  0
 22 24  1  0  0  0  0
 22 25  1  0  0  0  0
 25 19  1  0  0  0  0
 16 26  1  0  0  0  0
 26 27  1  0  0  0  0
 27 28  1  0  0  0  0
 28 29  1  0  0  0  0
 29 30  1  0  0  0  0
 30 31  1  0  0  0  0
 31 26  1  0  0  0  0
 28 32  1  0  0  0  0
 32 33  1  0  0  0  0
 33 34  2  0  0  0  0
 34 35  1  0  0  0  0
 35 36  2  0  0  0  0
 36 37  1  0  0  0  0
 37 32  2  0  0  0  0
 34 38  1  0  0  0  0
 38 39  2  0  0  0  0
 39 40  1  0  0  0  0
 40 41  2  0  0  0  0
 41 33  1  0  0  0  0
  5 42  1  0  0  0  0
  5 43  1  0  0  0  0
  5 44  1  0  0  0  0
  6 45  1  0  0  0  0
  6 46  1  0  0  0  0
  6 47  1  0  0  0  0
  8 48  1  0  0  0  0
 10 49  1  0  0  0  0
 11 50  1  0  0  0  0
 12 51  1  0  0  0  0
 18 52  1  0  0  0  0
 18 53  1  0  0  0  0
 19 54  1  0  0  0  0
 21 55  1  0  0  0  0
 21 56  1  0  0  0  0
 25 57  1  0  0  0  0
 25 58  1  0  0  0  0
 27 59  1  0  0  0  0
 27 60  1  0  0  0  0
 28 61  1  0  0  0  0
 30 62  1  0  0  0  0
 30 63  1  0  0  0  0
 31 64  1  0  0  0  0
 31 65  1  0  0  0  0
 35 66  1  0  0  0  0
 36 67  1  0  0  0  0
 37 68  1  0  0  0  0
 38 69  1  0  0  0  0
 39 70  1  0  0  0  0
 40 71  1  0  0  0  0
 41 72  1  0  0  0  0
M  END
>  <result-rank>
50

>  <similarity>
0.871

>  <query-name>


>  <query-smiles>
S(=O)(=O)(NC(=O)C)c1ccc(cc1)C=2N3C(=NC(=C3)COc4nc5c(cc4)cccc5)C(=NC2)N6CCOCC6

>  <source>
REALspace_2019-12

>  <similarity-descriptor>
1.000;0.981;0.684;0.766;0.833;0.999;1.000;0.528;0.528;0.995;0.684;0.684;0.0

>  <similarity-descriptor-smiles>
c1ccccc1;CC1CC(CO1)(F)F;N1CCOCC1;C=1NC=NN1;c1ccccc1;c1ccccc1;S(=O)=O;NC;NC;C;N1CCOCC1;N1CCOCC1;

>  <reaction-name>
m_273170

>  <reagent1-name>
14420506

>  <reagent1-smiles>
[R2*]=C([R1*])N([R3*])CC1OCC(F)(F)C1

>  <reagent2-name>
14470620

>  <reagent2-smiles>
[R1*]N1CC(OCC1)c2c3c(ccc2)cccc3

>  <reagent3-name>
10766558

>  <reagent3-smiles>
[R2*]=NN=C([R3*])c1cc(S(=O)(=O)N(C)C)ccc1

$$$$
m_274972____12934080____12615770____13047098
          04022017313D 1   1.00000     0.00000     0
            
 73 78  0  0  0  0            999 V2000
    8.7921    4.4864    2.8560 S   0  0  0  0  0  0  0  0  0  0  0  0
    9.9509    4.4255    2.0033 O   0  0  0  0  0  0  0  0  0  0  0  0
    8.0204    5.6588    2.5342 O   0  0  0  0  0  0  0  0  0  0  0  0
    9.2669    4.5591    4.4136 N   0  0  0  0  0  0  0  0  0  0  0  0
    8.0846    4.6212    5.2837 C   0  0  0  0  0  0  0  0  0  0  0  0
    7.7775    3.2169    5.8015 C   0  0  0  0  0  0  0  0  0  0  0  0
    6.4533    3.1054    6.5546 C   0  0  0  0  0  0  0  0  0  0  0  0
    6.6049    3.0245    8.0686 C   0  0  0  0  0  0  0  0  0  0  0  0
    7.5722    4.0369    8.6648 C   0  0  0  0  0  0  0  0  0  0  0  0
    7.0867    5.4745    8.5630 C   0  0  0  0  0  0  0  0  0  0  0  0
    7.0399    6.0230    7.1396 C   0  0  0  0  0  0  0  0  0  0  0  0
    8.2925    5.7137    6.3277 C   0  0  0  0  0  0  0  0  0  0  0  0
    7.8176    3.0658    2.6125 C   0  0  0  0  0  0  0  0  0  0  0  0
    6.4309    3.1709    2.6347 C   0  0  0  0  0  0  0  0  0  0  0  0
    5.6643    2.0267    2.4390 C   0  0  0  0  0  0  0  0  0  0  0  0
    6.2667    0.7913    2.2243 C   0  0  0  0  0  0  0  0  0  0  0  0
    7.6551    0.7078    2.2055 C   0  0  0  0  0  0  0  0  0  0  0  0
    8.4399    1.8399    2.3986 C   0  0  0  0  0  0  0  0  0  0  0  0
    4.2182    2.1329    2.4615 C   0  0  0  0  0  0  0  0  0  0  0  0
    3.3303    3.5831    2.4714 S   0  0  0  0  0  0  0  0  0  0  0  0
    1.7841    2.8690    2.4950 C   0  0  0  0  0  0  0  0  0  0  0  0
    2.0375    1.5302    2.4908 C   0  0  0  0  0  0  0  0  0  0  0  0
    3.3498    1.1464    2.4729 N   0  0  0  0  0  0  0  0  0  0  0  0
    0.9118    0.6170    2.5150 C   0  0  0  0  0  0  0  0  0  0  0  0
   -0.4027    0.9693    2.5423 N   0  0  0  0  0  0  0  0  0  0  0  0
   -1.0789   -0.0973    2.5583 N   0  0  0  0  0  0  0  0  0  0  0  0
   -0.3063   -1.1555    2.5452 N   0  0  0  0  0  0  0  0  0  0  0  0
    0.9870   -0.7420    2.5184 C   0  0  0  0  0  0  0  0  0  0  0  0
   -0.7636   -2.5524    2.5593 C   0  0  0  0  0  0  0  0  0  0  0  0
   -0.9516   -3.0383    1.1314 C   0  0  0  0  0  0  0  0  0  0  0  0
   -1.4091   -4.4359    1.1455 N   0  0  0  0  0  0  0  0  0  0  0  0
   -2.7459   -4.7439    1.1748 C   0  0  0  0  0  0  0  0  0  0  0  0
   -3.5495   -3.8237    1.1903 O   0  0  0  0  0  0  0  0  0  0  0  0
   -3.1601   -6.1057    1.1873 C   0  0  0  0  0  0  0  0  0  0  0  0
   -2.1867   -7.1009    1.1691 C   0  0  0  0  0  0  0  0  0  0  0  0
   -2.5407   -8.4460    1.1798 C   0  0  0  0  0  0  0  0  0  0  0  0
   -3.8861   -8.7969    1.2095 C   0  0  0  0  0  0  0  0  0  0  0  0
   -4.8789   -7.8226    1.2285 C   0  0  0  0  0  0  0  0  0  0  0  0
   -4.5002   -6.4849    1.2179 C   0  0  0  0  0  0  0  0  0  0  0  0
   -0.8100   -6.7492    1.1385 C   0  0  0  0  0  0  0  0  0  0  0  0
   -0.4586   -5.4237    1.1274 C   0  0  0  0  0  0  0  0  0  0  0  0
    9.8271    5.3756    4.5536 H   0  0  0  0  0  0  0  0  0  0  0  0
    7.3125    4.9011    4.7132 H   0  0  0  0  0  0  0  0  0  0  0  0
    8.5141    2.9420    6.4194 H   0  0  0  0  0  0  0  0  0  0  0  0
    7.7478    2.5936    5.0201 H   0  0  0  0  0  0  0  0  0  0  0  0
    5.9821    2.2808    6.2414 H   0  0  0  0  0  0  0  0  0  0  0  0
    5.8992    3.9089    6.3367 H   0  0  0  0  0  0  0  0  0  0  0  0
    6.9307    2.1080    8.3006 H   0  0  0  0  0  0  0  0  0  0  0  0
    5.7057    3.1728    8.4802 H   0  0  0  0  0  0  0  0  0  0  0  0
    8.4449    3.9628    8.1822 H   0  0  0  0  0  0  0  0  0  0  0  0
    7.7057    3.8158    9.6309 H   0  0  0  0  0  0  0  0  0  0  0  0
    6.1646    5.5215    8.9471 H   0  0  0  0  0  0  0  0  0  0  0  0
    7.7016    6.0514    9.1007 H   0  0  0  0  0  0  0  0  0  0  0  0
    6.2523    5.6221    6.6717 H   0  0  0  0  0  0  0  0  0  0  0  0
    6.9301    7.0158    7.1864 H   0  0  0  0  0  0  0  0  0  0  0  0
    8.5806    6.5489    5.8593 H   0  0  0  0  0  0  0  0  0  0  0  0
    9.0124    5.4186    6.9559 H   0  0  0  0  0  0  0  0  0  0  0  0
    5.9915    4.0558    2.7891 H   0  0  0  0  0  0  0  0  0  0  0  0
    5.7085   -0.0266    2.0852 H   0  0  0  0  0  0  0  0  0  0  0  0
    8.0945   -0.1771    2.0512 H   0  0  0  0  0  0  0  0  0  0  0  0
    9.4376    1.7737    2.3839 H   0  0  0  0  0  0  0  0  0  0  0  0
    0.8951    3.3268    2.5089 H   0  0  0  0  0  0  0  0  0  0  0  0
    1.8104   -1.3093    2.5044 H   0  0  0  0  0  0  0  0  0  0  0  0
   -1.6331   -2.6135    3.0494 H   0  0  0  0  0  0  0  0  0  0  0  0
   -0.0815   -3.1218    3.0181 H   0  0  0  0  0  0  0  0  0  0  0  0
   -1.6337   -2.4689    0.6726 H   0  0  0  0  0  0  0  0  0  0  0  0
   -0.0822   -2.9772    0.6412 H   0  0  0  0  0  0  0  0  0  0  0  0
   -1.8345   -9.1539    1.1662 H   0  0  0  0  0  0  0  0  0  0  0  0
   -4.1434   -9.7632    1.2174 H   0  0  0  0  0  0  0  0  0  0  0  0
   -5.8452   -8.0792    1.2494 H   0  0  0  0  0  0  0  0  0  0  0  0
   -5.2071   -5.7777    1.2326 H   0  0  0  0  0  0  0  0  0  0  0  0
   -0.1062   -7.4595    1.1254 H   0  0  0  0  0  0  0  0  0  0  0  0
    0.5092   -5.1728    1.1056 H   0  0  0  0  0  0  0  0  0  0  0  0
  1  2  2  0  0  0  0
  1  3  2  0  0  0  0
  1  4  1  0  0  0  0
  4  5  1  0  0  0  0
  5  6  1  0  0  0  0
  6  7  1  0  0  0  0
  7  8  1  0  0  0  0
  8  9  1  0  0  0  0
  9 10  1  0  0  0  0
 10 11  1  0  0  0  0
 11 12  1  0  0  0  0
 12  5  1  0  0  0  0
  1 13  1  0  0  0  0
 13 14  1  0  0  0  0
 14 15  2  0  0  0  0
 15 16  1  0  0  0  0
 16 17  2  0  0  0  0
 17 18  1  0  0  0  0
 18 13  2  0  0  0  0
 15 19  1  0  0  0  0
 19 20  1  0  0  0  0
 20 21  1  0  0  0  0
 21 22  2  0  0  0  0
 22 23  1  0  0  0  0
 19 23  2  0  0  0  0
 22 24  1  0  0  0  0
 24 25  1  0  0  0  0
 25 26  2  0  0  0  0
 26 27  1  0  0  0  0
 27 28  1  0  0  0  0
 24 28  2  0  0  0  0
 27 29  1  0  0  0  0
 29 30  1  0  0  0  0
 30 31  1  0  0  0  0
 31 32  1  0  0  0  0
 32 33  2  0  0  0  0
 32 34  1  0  0  0  0
 34 35  1  0  0  0  0
 35 36  2  0  0  0  0
 36 37  1  0  0  0  0
 37 38  2  0  0  0  0
 38 39  1  0  0  0  0
 39 34  2  0  0  0  0
 35 40  1  0  0  0  0
 40 41  2  0  0  0  0
 41 31  1  0  0  0  0
  4 42  1  0  0  0  0
  5 43  1  0  0  0  0
  6 44  1  0  0  0  0
  6 45  1  0  0  0  0
  7 46  1  0  0  0  0
  7 47  1  0  0  0  0
  8 48  1  0  0  0  0
  8 49  1  0  0  0  0
  9 50  1  0  0  0  0
  9 51  1  0  0  0  0
 10 52  1  0  0  0  0
 10 53  1  0  0  0  0
 11 54  1  0  0  0  0
 11 55  1  0  0  0  0
 12 56  1  0  0  0  0
 12 57  1  0  0  0  0
 14 58  1  0  0  0  0
 16 59  1  0  0  0  0
 17 60  1  0  0  0  0
 18 61  1  0  0  0  0
 21 62  1  0  0  0  0
 28 63  1  0  0  0  0
 29 64  1  0  0  0  0
 29 65  1  0  0  0  0
 30 66  1  0  0  0  0
 30 67  1  0  0  0  0
 36 68  1  0  0  0  0
 37 69  1  0  0  0  0
 38 70  1  0  0  0  0
 39 71  1  0  0  0  0
 40 72  1  0  0  0  0
 41 73  1  0  0  0  0
M  END
>  <result-rank>
51

>  <similarity>
0.871

>  <query-name>


>  <query-smiles>
S(=O)(=O)(NC(=O)C)c1ccc(cc1)C=2N3C(=NC(=C3)COc4nc5c(cc4)cccc5)C(=NC2)N6CCOCC6

>  <source>
REALspace_2019-12

>  <similarity-descriptor>
1.000;0.0;0.832;0.976;0.952;1.000;1.000;0.757;0.0;0.0;0.667;0.952;0.100

>  <similarity-descriptor-smiles>
c1ccccc1;;C1=CNN=N1;C1=NC=CS1;N1C=CccC1=O;c1ccccc1;S(=O)=O;N;;;CC;N1C=CccC1=O;C1CCCCCCC1

>  <reaction-name>
m_274972

>  <reagent1-name>
12934080

>  <reagent1-smiles>
[R1*]SC(=N[R2*])c1cc(S(=O)(=O)NC2CCCCCCC2)ccc1

>  <reagent2-name>
12615770

>  <reagent2-smiles>
[R2*]C(C([R3*])=C[R4*])=C[R1*]

>  <reagent3-name>
13047098

>  <reagent3-smiles>
[R3*]N=NN([R4*])CCN1C(=O)c2c(cccc2)C=C1

$$$$
s_1____86342____7594458____6673174
          04022017313D 1   1.00000     0.00000     0
            
 65 69  0  0  0  0            999 V2000
    5.3165    6.2836    0.0816 S   0  0  0  0  0  0  0  0  0  0  0  0
    4.6429    7.1164    1.4067 C   0  0  0  0  0  0  0  0  0  0  0  0
    4.7688    8.3502    1.6757 N   0  0  0  0  0  0  0  0  0  0  0  0
    5.5662    9.2167    0.7959 C   0  0  0  0  0  0  0  0  0  0  0  0
    4.6718    9.8036   -0.2828 C   0  0  3  0  0  0  0  0  0  0  0  0
    4.0901    8.7726   -1.0565 O   0  0  0  0  0  0  0  0  0  0  0  0
    3.6428    9.3870   -2.2575 C   0  0  0  0  0  0  0  0  0  0  0  0
    4.5347   10.5940   -2.4728 C   0  0  0  0  0  0  0  0  0  0  0  0
    5.4999   10.5502   -1.3038 C   0  0  0  0  0  0  0  0  0  0  0  0
    3.9430    6.1856    2.1095 N   0  0  0  0  0  0  0  0  0  0  0  0
    3.2790    6.5174    3.2365 N   0  0  0  0  0  0  0  0  0  0  0  0
    2.3715    7.3761    3.1974 C   0  0  0  0  0  0  0  0  0  0  0  0
    1.6571    7.7331    4.4101 C   0  0  0  0  0  0  0  0  0  0  0  0
    0.6343    8.6822    4.4378 C   0  0  0  0  0  0  0  0  0  0  0  0
   -0.0060    8.9701    5.6406 C   0  0  0  0  0  0  0  0  0  0  0  0
    0.4032    8.2919    6.7848 C   0  0  0  0  0  0  0  0  0  0  0  0
    1.3894    7.3840    6.7348 N   0  0  0  0  0  0  0  0  0  0  0  0
    2.0208    7.0903    5.5883 C   0  0  0  0  0  0  0  0  0  0  0  0
   -1.0302    9.9088    5.7058 C   0  0  0  0  0  0  0  0  0  0  0  0
   -1.4215   10.5713    4.5474 C   0  0  0  0  0  0  0  0  0  0  0  0
   -0.8032   10.3070    3.3307 C   0  0  0  0  0  0  0  0  0  0  0  0
    0.2182    9.3641    3.2955 C   0  0  0  0  0  0  0  0  0  0  0  0
    3.9793    4.9240    1.5719 C   0  0  0  0  0  0  0  0  0  0  0  0
    3.3151    3.7763    2.1380 C   0  0  0  0  0  0  0  0  0  0  0  0
    2.5148    2.9826    1.3230 C   0  0  0  0  0  0  0  0  0  0  0  0
    1.8774    1.8774    1.8774 C   0  0  0  0  0  0  0  0  0  0  0  0
    2.0386    1.5727    3.2242 C   0  0  0  0  0  0  0  0  0  0  0  0
    1.4250    0.5132    3.7408 F   0  0  0  0  0  0  0  0  0  0  0  0
    2.8415    2.3749    4.0291 C   0  0  0  0  0  0  0  0  0  0  0  0
    3.4847    3.4832    3.4874 C   0  0  0  0  0  0  0  0  0  0  0  0
    1.0000    1.0000    1.0000 C   0  0  0  0  0  0  0  0  0  0  0  0
   -0.4273    1.5221    1.0276 C   0  0  0  0  0  0  0  0  0  0  0  0
   -1.2760    0.6734    0.1789 N   0  0  0  0  0  0  0  0  0  0  0  0
   -2.6109    0.9523    0.0484 C   0  0  0  0  0  0  0  0  0  0  0  0
   -3.0874    1.8895    0.6270 O   0  0  0  0  0  0  0  0  0  0  0  0
   -3.4885    0.0748   -0.8291 C   0  0  0  0  0  0  0  0  0  0  0  0
    4.6896    4.7395    0.4267 C   0  0  0  0  0  0  0  0  0  0  0  0
    6.2940    8.6795    0.3696 H   0  0  0  0  0  0  0  0  0  0  0  0
    5.9696    9.9570    1.3336 H   0  0  0  0  0  0  0  0  0  0  0  0
    3.9702   10.3955    0.1140 H   0  0  0  0  0  0  0  0  0  0  0  0
    2.6889    9.6727   -2.1662 H   0  0  0  0  0  0  0  0  0  0  0  0
    3.7285    8.7514   -3.0247 H   0  0  0  0  0  0  0  0  0  0  0  0
    3.9992   11.4384   -2.4602 H   0  0  0  0  0  0  0  0  0  0  0  0
    5.0250   10.5232   -3.3414 H   0  0  0  0  0  0  0  0  0  0  0  0
    6.3359   10.0526   -1.5349 H   0  0  0  0  0  0  0  0  0  0  0  0
    5.7356   11.4687   -0.9863 H   0  0  0  0  0  0  0  0  0  0  0  0
    2.1374    7.8171    2.3310 H   0  0  0  0  0  0  0  0  0  0  0  0
   -0.0450    8.4844    7.6578 H   0  0  0  0  0  0  0  0  0  0  0  0
    2.7530    6.4093    5.5809 H   0  0  0  0  0  0  0  0  0  0  0  0
   -1.4806   10.1054    6.5768 H   0  0  0  0  0  0  0  0  0  0  0  0
   -2.1575   11.2469    4.5902 H   0  0  0  0  0  0  0  0  0  0  0  0
   -1.0868   10.7845    2.4991 H   0  0  0  0  0  0  0  0  0  0  0  0
    0.6680    9.1692    2.4239 H   0  0  0  0  0  0  0  0  0  0  0  0
    2.3996    3.2028    0.3544 H   0  0  0  0  0  0  0  0  0  0  0  0
    2.9563    2.1546    4.9977 H   0  0  0  0  0  0  0  0  0  0  0  0
    4.0626    4.0629    4.0618 H   0  0  0  0  0  0  0  0  0  0  0  0
    1.0182    0.0610    1.3435 H   0  0  0  0  0  0  0  0  0  0  0  0
    1.3435    1.0182    0.0610 H   0  0  0  0  0  0  0  0  0  0  0  0
   -0.7707    1.5039    1.9666 H   0  0  0  0  0  0  0  0  0  0  0  0
   -0.4454    2.4611    0.6841 H   0  0  0  0  0  0  0  0  0  0  0  0
   -0.8789   -0.1076   -0.3032 H   0  0  0  0  0  0  0  0  0  0  0  0
   -2.9344   -0.6536   -1.2322 H   0  0  0  0  0  0  0  0  0  0  0  0
   -4.2169   -0.3283   -0.2751 H   0  0  0  0  0  0  0  0  0  0  0  0
   -3.8915    0.6288   -1.5575 H   0  0  0  0  0  0  0  0  0  0  0  0
    4.8144    3.8935   -0.0917 H   0  0  0  0  0  0  0  0  0  0  0  0
  1  2  1  0  0  0  0
  2  3  2  0  0  0  0
  3  4  1  0  0  0  0
  4  5  1  0  0  0  0
  5  6  1  0  0  0  0
  6  7  1  0  0  0  0
  7  8  1  0  0  0  0
  8  9  1  0  0  0  0
  9  5  1  0  0  0  0
  2 10  1  0  0  0  0
 10 11  1  0  0  0  0
 11 12  2  0  0  0  0
 12 13  1  0  0  0  0
 13 14  1  0  0  0  0
 14 15  2  0  0  0  0
 15 16  1  0  0  0  0
 16 17  2  0  0  0  0
 17 18  1  0  0  0  0
 18 13  2  0  0  0  0
 15 19  1  0  0  0  0
 19 20  2  0  0  0  0
 20 21  1  0  0  0  0
 21 22  2  0  0  0  0
 22 14  1  0  0  0  0
 10 23  1  0  0  0  0
 23 24  1  0  0  0  0
 24 25  1  0  0  0  0
 25 26  2  0  0  0  0
 26 27  1  0  0  0  0
 27 28  1  0  0  0  0
 27 29  2  0  0  0  0
 29 30  1  0  0  0  0
 30 24  2  0  0  0  0
 26 31  1  0  0  0  0
 31 32  1  0  0  0  0
 32 33  1  0  0  0  0
 33 34  1  0  0  0  0
 34 35  2  0  0  0  0
 34 36  1  0  0  0  0
 23 37  2  0  0  0  0
 37  1  1  0  0  0  0
  4 38  1  0  0  0  0
  4 39  1  0  0  0  0
  5 40  1  0  0  0  0
  7 41  1  0  0  0  0
  7 42  1  0  0  0  0
  8 43  1  0  0  0  0
  8 44  1  0  0  0  0
  9 45  1  0  0  0  0
  9 46  1  0  0  0  0
 12 47  1  0  0  0  0
 16 48  1  0  0  0  0
 18 49  1  0  0  0  0
 19 50  1  0  0  0  0
 20 51  1  0  0  0  0
 21 52  1  0  0  0  0
 22 53  1  0  0  0  0
 25 54  1  0  0  0  0
 29 55  1  0  0  0  0
 30 56  1  0  0  0  0
 31 57  1  0  0  0  0
 31 58  1  0  0  0  0
 32 59  1  0  0  0  0
 32 60  1  0  0  0  0
 33 61  1  0  0  0  0
 36 62  1  0  0  0  0
 36 63  1  0  0  0  0
 36 64  1  0  0  0  0
 37 65  1  0  0  0  0
M  END
>  <result-rank>
52

>  <similarity>
0.871

>  <query-name>


>  <query-smiles>
S(=O)(=O)(NC(=O)C)c1ccc(cc1)C=2N3C(=NC(=C3)COc4nc5c(cc4)cccc5)C(=NC2)N6CCOCC6

>  <source>
REALspace_2019-12

>  <similarity-descriptor>
0.903;0.956;0.586;0.959;0.838;0.999;0.471;0.471;1.000;1.000;0.838;0.838;0.0

>  <similarity-descriptor-smiles>
c1ccc(c(c1)C)F;CC1CCCO1;N=C;S1C=CNC1=N;c1cnccc1;c1ccccc1;CN;CN;C=O;C;c1cnccc1;c1cnccc1;

>  <reaction-name>
s_1

>  <reagent1-name>
86342

>  <reagent1-smiles>
[R3*]=NN([R2*])C(S[R1*])=NCC1OCCC1

>  <reagent2-name>
7594458

>  <reagent2-smiles>
[R3*]=Cc1c2c(cnc1)cccc2

>  <reagent3-name>
6673174

>  <reagent3-smiles>
[R2*]C(c1cc(c(F)cc1)CCNC(=O)C)=C[R1*]

$$$$
s_43____3014702____87511
          04022017313D 1   1.00000     0.00000     0
            
 64 68  0  0  0  0            999 V2000
   10.1594    1.7162    2.3712 S   0  0  0  0  0  0  0  0  0  0  0  0
   10.5433    0.5073    1.6896 O   0  0  0  0  0  0  0  0  0  0  0  0
   10.7123    2.8527    1.6810 O   0  0  0  0  0  0  0  0  0  0  0  0
   10.7245    1.6811    3.8997 N   0  0  0  0  0  0  0  0  0  0  0  0
   10.3325    2.9153    4.5955 C   0  0  0  0  0  0  0  0  0  0  0  0
    8.4242    1.8413    2.3972 C   0  0  0  0  0  0  0  0  0  0  0  0
    7.8247    3.0963    2.4030 C   0  0  0  0  0  0  0  0  0  0  0  0
    6.4367    3.1848    2.4236 C   0  0  0  0  0  0  0  0  0  0  0  0
    5.6658    2.0266    2.4390 C   0  0  0  0  0  0  0  0  0  0  0  0
    6.2700    0.7735    2.4330 C   0  0  0  0  0  0  0  0  0  0  0  0
    7.6578    0.6804    2.4122 C   0  0  0  0  0  0  0  0  0  0  0  0
    4.2182    2.1329    2.4615 C   0  0  0  0  0  0  0  0  0  0  0  0
    3.3303    3.5831    2.4714 S   0  0  0  0  0  0  0  0  0  0  0  0
    1.7841    2.8690    2.4950 C   0  0  0  0  0  0  0  0  0  0  0  0
    2.0375    1.5302    2.4908 C   0  0  0  0  0  0  0  0  0  0  0  0
    3.3498    1.1464    2.4729 N   0  0  0  0  0  0  0  0  0  0  0  0
    0.9114    0.6167    2.5151 C   0  0  0  0  0  0  0  0  0  0  0  0
   -0.0173    0.4635    1.5351 C   0  0  0  0  0  0  0  0  0  0  0  0
   -0.8991   -0.4888    1.9417 N   0  0  0  0  0  0  0  0  0  0  0  0
   -2.0079   -0.9370    1.2127 C   0  0  0  0  0  0  0  0  0  0  0  0
   -3.3278   -0.4580    1.3198 C   0  0  0  0  0  0  0  0  0  0  0  0
   -3.7265    0.4265    2.0616 O   0  0  0  0  0  0  0  0  0  0  0  0
   -4.0693   -1.1777    0.4363 N   0  0  0  0  0  0  0  0  0  0  0  0
   -3.2938   -2.0367   -0.1798 N   0  0  0  0  0  0  0  0  0  0  0  0
   -2.0186   -1.9144    0.2708 C   0  0  0  0  0  0  0  0  0  0  0  0
   -0.8184   -2.7275   -0.1907 C   0  0  0  0  0  0  0  0  0  0  0  0
   -3.7343   -2.9899   -1.2078 C   0  0  0  0  0  0  0  0  0  0  0  0
   -5.4440   -1.0230    0.2198 C   0  0  0  0  0  0  0  0  0  0  0  0
   -6.3476   -1.7676    0.9712 C   0  0  0  0  0  0  0  0  0  0  0  0
   -7.7125   -1.6110    0.7534 C   0  0  0  0  0  0  0  0  0  0  0  0
   -8.1647   -0.7155   -0.2097 C   0  0  0  0  0  0  0  0  0  0  0  0
   -7.2522    0.0242   -0.9546 C   0  0  0  0  0  0  0  0  0  0  0  0
   -5.8851   -0.1241   -0.7457 C   0  0  0  0  0  0  0  0  0  0  0  0
   -0.5290   -0.9341    3.1733 C   0  0  0  0  0  0  0  0  0  0  0  0
    0.5932   -0.2711    3.5658 C   0  0  0  0  0  0  0  0  0  0  0  0
   -1.2486   -2.0005    3.9835 C   0  0  0  0  0  0  0  0  0  0  0  0
   -0.0618    1.2194    0.2164 C   0  0  0  0  0  0  0  0  0  0  0  0
   11.7218    1.6092    3.8848 H   0  0  0  0  0  0  0  0  0  0  0  0
   10.6793    2.8938    5.5332 H   0  0  0  0  0  0  0  0  0  0  0  0
   10.7165    3.7045    4.1162 H   0  0  0  0  0  0  0  0  0  0  0  0
    9.3352    2.9872    4.6104 H   0  0  0  0  0  0  0  0  0  0  0  0
    8.3846    3.9248    2.3925 H   0  0  0  0  0  0  0  0  0  0  0  0
    5.9929    4.0808    2.4274 H   0  0  0  0  0  0  0  0  0  0  0  0
    5.7102   -0.0551    2.4436 H   0  0  0  0  0  0  0  0  0  0  0  0
    8.1019   -0.2156    2.4081 H   0  0  0  0  0  0  0  0  0  0  0  0
    0.8951    3.3268    2.5089 H   0  0  0  0  0  0  0  0  0  0  0  0
   -0.0033   -2.4302    0.3064 H   0  0  0  0  0  0  0  0  0  0  0  0
   -0.9835   -3.6971   -0.0106 H   0  0  0  0  0  0  0  0  0  0  0  0
   -0.6796   -2.5895   -1.1714 H   0  0  0  0  0  0  0  0  0  0  0  0
   -2.9524   -3.5307   -1.5180 H   0  0  0  0  0  0  0  0  0  0  0  0
   -4.4285   -3.5981   -0.8229 H   0  0  0  0  0  0  0  0  0  0  0  0
   -4.1218   -2.4897   -1.9821 H   0  0  0  0  0  0  0  0  0  0  0  0
   -6.0183   -2.4106    1.6627 H   0  0  0  0  0  0  0  0  0  0  0  0
   -8.3685   -2.1424    1.2894 H   0  0  0  0  0  0  0  0  0  0  0  0
   -9.1459   -0.6033   -0.3666 H   0  0  0  0  0  0  0  0  0  0  0  0
   -7.5816    0.6675   -1.6457 H   0  0  0  0  0  0  0  0  0  0  0  0
   -5.2292    0.4075   -1.2816 H   0  0  0  0  0  0  0  0  0  0  0  0
    1.0916   -0.3891    4.4247 H   0  0  0  0  0  0  0  0  0  0  0  0
   -0.7706   -2.1395    4.8507 H   0  0  0  0  0  0  0  0  0  0  0  0
   -2.1870   -1.7056    4.1636 H   0  0  0  0  0  0  0  0  0  0  0  0
   -1.2616   -2.8579    3.4689 H   0  0  0  0  0  0  0  0  0  0  0  0
    0.7045    1.8605    0.1737 H   0  0  0  0  0  0  0  0  0  0  0  0
    0.0035    0.5708   -0.5420 H   0  0  0  0  0  0  0  0  0  0  0  0
   -0.9226    1.7240    0.1503 H   0  0  0  0  0  0  0  0  0  0  0  0
  1  2  2  0  0  0  0
  1  3  2  0  0  0  0
  1  4  1  0  0  0  0
  4  5  1  0  0  0  0
  1  6  1  0  0  0  0
  6  7  1  0  0  0  0
  7  8  2  0  0  0  0
  8  9  1  0  0  0  0
  9 10  2  0  0  0  0
 10 11  1  0  0  0  0
 11  6  2  0  0  0  0
  9 12  1  0  0  0  0
 12 13  1  0  0  0  0
 13 14  1  0  0  0  0
 14 15  2  0  0  0  0
 15 16  1  0  0  0  0
 12 16  2  0  0  0  0
 15 17  1  0  0  0  0
 17 18  2  0  0  0  0
 18 19  1  0  0  0  0
 19 20  1  0  0  0  0
 20 21  1  0  0  0  0
 21 22  2  0  0  0  0
 21 23  1  0  0  0  0
 23 24  1  0  0  0  0
 24 25  1  0  0  0  0
 20 25  2  0  0  0  0
 25 26  1  0  0  0  0
 24 27  1  0  0  0  0
 23 28  1  0  0  0  0
 28 29  1  0  0  0  0
 29 30  2  0  0  0  0
 30 31  1  0  0  0  0
 31 32  2  0  0  0  0
 32 33  1  0  0  0  0
 33 28  2  0  0  0  0
 19 34  1  0  0  0  0
 34 35  2  0  0  0  0
 35 17  1  0  0  0  0
 34 36  1  0  0  0  0
 18 37  1  0  0  0  0
  4 38  1  0  0  0  0
  5 39  1  0  0  0  0
  5 40  1  0  0  0  0
  5 41  1  0  0  0  0
  7 42  1  0  0  0  0
  8 43  1  0  0  0  0
 10 44  1  0  0  0  0
 11 45  1  0  0  0  0
 14 46  1  0  0  0  0
 26 47  1  0  0  0  0
 26 48  1  0  0  0  0
 26 49  1  0  0  0  0
 27 50  1  0  0  0  0
 27 51  1  0  0  0  0
 27 52  1  0  0  0  0
 29 53  1  0  0  0  0
 30 54  1  0  0  0  0
 31 55  1  0  0  0  0
 32 56  1  0  0  0  0
 33 57  1  0  0  0  0
 35 58  1  0  0  0  0
 36 59  1  0  0  0  0
 36 60  1  0  0  0  0
 36 61  1  0  0  0  0
 37 62  1  0  0  0  0
 37 63  1  0  0  0  0
 37 64  1  0  0  0  0
M  END
>  <result-rank>
53

>  <similarity>
0.871

>  <query-name>


>  <query-smiles>
S(=O)(=O)(NC(=O)C)c1ccc(cc1)C=2N3C(=NC(=C3)COc4nc5c(cc4)cccc5)C(=NC2)N6CCOCC6

>  <source>
REALspace_2019-12

>  <similarity-descriptor>
1.000;0.0;0.751;0.976;0.911;0.941;1.000;0.733;0.733;0.733;0.751;0.911;0.333

>  <similarity-descriptor-smiles>
c1ccccc1;;C=1C=CNC1;C1=NC=CS1;C1=CNNC1=O;c1ccccc1;S(=O)=O;NC;NC;NC;C=1C=CNC1;C1=CNNC1=O;C.C.C.C

>  <reaction-name>
s_43

>  <reagent1-name>
3014702

>  <reagent1-smiles>
[R1*]SC(=N[R2*])c1ccc(S(=O)(=O)NC)cc1

>  <reagent2-name>
87511

>  <reagent2-smiles>
[R2*]C(C1=C(N(C=2C(=O)N(N(C2C)C)c3ccccc3)C(=C1)C)C)=C[R1*]

$$$$
s_274090____12936490____14260840
          04022017313D 1   1.00000     0.00000     0
            
 59 63  0  0  0  0            999 V2000
    0.4648    3.7275    2.5286 S   0  0  0  0  0  0  0  0  0  0  0  0
   -0.5169    2.9240    3.2101 O   0  0  0  0  0  0  0  0  0  0  0  0
    0.6165    4.9844    3.2147 O   0  0  0  0  0  0  0  0  0  0  0  0
   -0.0238    3.9996    0.9976 N   0  0  0  0  0  0  0  0  0  0  0  0
   -0.1786    2.7165    0.2972 C   0  0  0  0  0  0  0  0  0  0  0  0
   -1.3117    4.7081    1.0128 C   0  0  0  0  0  0  0  0  0  0  0  0
    1.9893    2.8889    2.5105 C   0  0  0  0  0  0  0  0  0  0  0  0
    3.1876    3.5937    2.5055 C   0  0  0  0  0  0  0  0  0  0  0  0
    4.4127    2.9382    2.4927 C   0  0  0  0  0  0  0  0  0  0  0  0
    5.6913    3.4239    2.4842 N   0  0  0  0  0  0  0  0  0  0  0  0
    6.5087    2.3979    2.4677 C   0  0  0  0  0  0  0  0  0  0  0  0
    5.7691    1.2537    2.4692 N   0  0  0  0  0  0  0  0  0  0  0  0
    4.4368    1.5579    2.4836 C   0  0  0  0  0  0  0  0  0  0  0  0
    3.2411    0.8459    2.4889 C   0  0  0  0  0  0  0  0  0  0  0  0
    2.0129    1.4982    2.5019 C   0  0  0  0  0  0  0  0  0  0  0  0
    6.3255   -0.1078    2.4543 C   0  0  0  0  0  0  0  0  0  0  0  0
    6.5040   -0.5666    1.0163 C   0  0  0  0  0  0  0  0  0  0  0  0
    7.0791   -1.9735    1.0009 C   0  0  0  0  0  0  0  0  0  0  0  0
    8.0258    2.4768    2.4544 C   0  0  0  0  0  0  0  0  0  0  0  0
    8.5279    2.4902    3.8358 N   0  0  0  0  0  0  0  0  0  0  0  0
    8.8444    1.4350    4.5451 N   0  0  0  0  0  0  0  0  0  0  0  0
    9.2481    1.7566    5.6978 N   0  0  0  0  0  0  0  0  0  0  0  0
    9.2026    3.1146    5.7804 C   0  0  0  0  0  0  0  0  0  0  0  0
    9.5809    3.9119    6.9336 C   0  0  0  0  0  0  0  0  0  0  0  0
   10.5943    4.8705    6.8949 C   0  0  0  0  0  0  0  0  0  0  0  0
   10.8990    5.5977    8.0430 C   0  0  0  0  0  0  0  0  0  0  0  0
   10.1722    5.3379    9.2009 C   0  0  0  0  0  0  0  0  0  0  0  0
    9.2027    4.4108    9.2152 N   0  0  0  0  0  0  0  0  0  0  0  0
    8.8917    3.6980    8.1223 C   0  0  0  0  0  0  0  0  0  0  0  0
   11.9013    6.5619    8.0413 C   0  0  0  0  0  0  0  0  0  0  0  0
   12.6116    6.8037    6.8703 C   0  0  0  0  0  0  0  0  0  0  0  0
   12.3322    6.0957    5.7071 C   0  0  0  0  0  0  0  0  0  0  0  0
   11.3252    5.1373    5.7383 C   0  0  0  0  0  0  0  0  0  0  0  0
    8.7444    3.5967    4.5928 C   0  0  0  0  0  0  0  0  0  0  0  0
   -0.4783    2.8835   -0.6421 H   0  0  0  0  0  0  0  0  0  0  0  0
    0.6976    2.2346    0.2868 H   0  0  0  0  0  0  0  0  0  0  0  0
   -0.8603    2.1586    0.7704 H   0  0  0  0  0  0  0  0  0  0  0  0
   -1.6114    4.8750    0.0735 H   0  0  0  0  0  0  0  0  0  0  0  0
   -1.9934    4.1501    1.4860 H   0  0  0  0  0  0  0  0  0  0  0  0
   -1.2064    5.5809    1.4893 H   0  0  0  0  0  0  0  0  0  0  0  0
    3.1675    4.5935    2.5112 H   0  0  0  0  0  0  0  0  0  0  0  0
    3.2655   -0.1538    2.4833 H   0  0  0  0  0  0  0  0  0  0  0  0
    1.1603    0.9757    2.5050 H   0  0  0  0  0  0  0  0  0  0  0  0
    5.7002   -0.7287    2.9271 H   0  0  0  0  0  0  0  0  0  0  0  0
    7.2117   -0.1108    2.9176 H   0  0  0  0  0  0  0  0  0  0  0  0
    7.1294    0.0543    0.5435 H   0  0  0  0  0  0  0  0  0  0  0  0
    5.6178   -0.5636    0.5530 H   0  0  0  0  0  0  0  0  0  0  0  0
    7.1965   -2.2753    0.0548 H   0  0  0  0  0  0  0  0  0  0  0  0
    7.9653   -1.9765    1.4642 H   0  0  0  0  0  0  0  0  0  0  0  0
    6.4537   -2.5944    1.4737 H   0  0  0  0  0  0  0  0  0  0  0  0
    8.3967    1.6829    1.9726 H   0  0  0  0  0  0  0  0  0  0  0  0
    8.3120    3.3136    1.9876 H   0  0  0  0  0  0  0  0  0  0  0  0
   10.3758    5.8502   10.0352 H   0  0  0  0  0  0  0  0  0  0  0  0
    8.1644    3.0128    8.1623 H   0  0  0  0  0  0  0  0  0  0  0  0
   12.1092    7.0760    8.8734 H   0  0  0  0  0  0  0  0  0  0  0  0
   13.3330    7.4961    6.8650 H   0  0  0  0  0  0  0  0  0  0  0  0
   12.8441    6.2718    4.8663 H   0  0  0  0  0  0  0  0  0  0  0  0
   11.1191    4.6236    4.9055 H   0  0  0  0  0  0  0  0  0  0  0  0
    8.5997    4.5520    4.3353 H   0  0  0  0  0  0  0  0  0  0  0  0
  1  2  2  0  0  0  0
  1  3  2  0  0  0  0
  1  4  1  0  0  0  0
  4  5  1  0  0  0  0
  4  6  1  0  0  0  0
  1  7  1  0  0  0  0
  7  8  1  0  0  0  0
  8  9  2  0  0  0  0
  9 10  1  0  0  0  0
 10 11  2  0  0  0  0
 11 12  1  0  0  0  0
 12 13  1  0  0  0  0
 13  9  1  0  0  0  0
 13 14  2  0  0  0  0
 14 15  1  0  0  0  0
 15  7  2  0  0  0  0
 12 16  1  0  0  0  0
 16 17  1  0  0  0  0
 17 18  1  0  0  0  0
 11 19  1  0  0  0  0
 19 20  1  0  0  0  0
 20 21  1  0  0  0  0
 21 22  2  0  0  0  0
 22 23  1  0  0  0  0
 23 24  1  0  0  0  0
 24 25  1  0  0  0  0
 25 26  2  0  0  0  0
 26 27  1  0  0  0  0
 27 28  2  0  0  0  0
 28 29  1  0  0  0  0
 29 24  2  0  0  0  0
 26 30  1  0  0  0  0
 30 31  2  0  0  0  0
 31 32  1  0  0  0  0
 32 33  2  0  0  0  0
 33 25  1  0  0  0  0
 23 34  2  0  0  0  0
 34 20  1  0  0  0  0
  5 35  1  0  0  0  0
  5 36  1  0  0  0  0
  5 37  1  0  0  0  0
  6 38  1  0  0  0  0
  6 39  1  0  0  0  0
  6 40  1  0  0  0  0
  8 41  1  0  0  0  0
 14 42  1  0  0  0  0
 15 43  1  0  0  0  0
 16 44  1  0  0  0  0
 16 45  1  0  0  0  0
 17 46  1  0  0  0  0
 17 47  1  0  0  0  0
 18 48  1  0  0  0  0
 18 49  1  0  0  0  0
 18 50  1  0  0  0  0
 19 51  1  0  0  0  0
 19 52  1  0  0  0  0
 27 53  1  0  0  0  0
 29 54  1  0  0  0  0
 30 55  1  0  0  0  0
 31 56  1  0  0  0  0
 32 57  1  0  0  0  0
 33 58  1  0  0  0  0
 34 59  1  0  0  0  0
M  END
>  <result-rank>
54

>  <similarity>
0.870

>  <query-name>


>  <query-smiles>
S(=O)(=O)(NC(=O)C)c1ccc(cc1)C=2N3C(=NC(=C3)COc4nc5c(cc4)cccc5)C(=NC2)N6CCOCC6

>  <source>
REALspace_2019-12

>  <similarity-descriptor>
0.939;0.0;0.889;0.801;0.999;0.999;1.000;0.528;0.528;0.995;0.889;0.889;0.154

>  <similarity-descriptor-smiles>
c1ccccc1;;N1C=CN=N1;c1cN(C(=N1)C)C;c1cnccc1;c1ccccc1;S(=O)=O;NC;NC;C;N1C=CN=N1;N1C=CN=N1;C.C

>  <reaction-name>
s_274090

>  <reagent1-name>
12936490

>  <reagent1-smiles>
[R1*]N=NN([R2*])CC1=Nc2c(N1CCC)ccc(S(=O)(=O)N(C)C)c2

>  <reagent2-name>
14260840

>  <reagent2-smiles>
[R1*]C(c1c2c(cnc1)cccc2)=C[R2*]

$$$$
m_273170____10756572____10759890____10755784
          04022017313D 1   1.00000     0.00000     0
            
 57 61  0  0  0  0            999 V2000
    0.4648    3.7275    2.5286 S   0  0  0  0  0  0  0  0  0  0  0  0
   -0.5215    2.9336    3.2145 O   0  0  0  0  0  0  0  0  0  0  0  0
    0.6266    4.9857    3.2099 O   0  0  0  0  0  0  0  0  0  0  0  0
   -0.0243    3.9976    0.9974 N   0  0  0  0  0  0  0  0  0  0  0  0
   -0.1894    2.7131    0.3019 C   0  0  0  0  0  0  0  0  0  0  0  0
    1.9834    2.8778    2.5111 C   0  0  0  0  0  0  0  0  0  0  0  0
    3.1753    3.5954    2.5018 C   0  0  0  0  0  0  0  0  0  0  0  0
    4.3816    2.9033    2.4878 C   0  0  0  0  0  0  0  0  0  0  0  0
    4.4082    1.5127    2.4838 C   0  0  0  0  0  0  0  0  0  0  0  0
    3.2052    0.8142    2.4933 C   0  0  0  0  0  0  0  0  0  0  0  0
    1.9876    1.4868    2.5069 C   0  0  0  0  0  0  0  0  0  0  0  0
    5.6831    3.6886    2.4782 C   0  0  0  0  0  0  0  0  0  0  0  0
    5.6323    4.7088    1.4202 N   0  0  0  0  0  0  0  0  0  0  0  0
    5.6610    4.4763    0.0823 C   0  0  0  0  0  0  0  0  0  0  0  0
    5.5943    5.6557   -0.4844 N   0  0  0  0  0  0  0  0  0  0  0  0
    5.5258    6.6130    0.4137 N   0  0  0  0  0  0  0  0  0  0  0  0
    5.5475    6.0535    1.6024 C   0  0  0  0  0  0  0  0  0  0  0  0
    5.4910    6.7490    2.8744 C   0  0  0  0  0  0  0  0  0  0  0  0
    4.3302    6.9733    3.5134 N   0  0  0  0  0  0  0  0  0  0  0  0
    4.2660    7.6164    4.6921 C   0  0  0  0  0  0  0  0  0  0  0  0
    5.4310    8.0794    5.2965 C   0  0  0  0  0  0  0  0  0  0  0  0
    6.6469    7.8618    4.6572 C   0  0  0  0  0  0  0  0  0  0  0  0
    6.6822    7.1928    3.4383 C   0  0  0  0  0  0  0  0  0  0  0  0
    5.4103    8.7479    6.5160 C   0  0  0  0  0  0  0  0  0  0  0  0
    4.1902    8.9606    7.1496 C   0  0  0  0  0  0  0  0  0  0  0  0
    3.0136    8.5066    6.5626 C   0  0  0  0  0  0  0  0  0  0  0  0
    3.0572    7.8396    5.3426 C   0  0  0  0  0  0  0  0  0  0  0  0
    5.7479    3.2344   -0.5604 N   0  0  0  0  0  0  0  0  0  0  0  0
    7.0636    2.5891   -0.6878 C   0  0  0  0  0  0  0  0  0  0  0  0
    7.1505    1.7806   -1.9731 C   0  0  0  0  0  0  0  0  0  0  0  0
    5.9966    0.9706   -2.1529 O   0  0  0  0  0  0  0  0  0  0  0  0
    4.8608    1.7994   -2.3588 C   0  0  0  0  0  0  0  0  0  0  0  0
    4.5358    2.6122   -1.1149 C   0  0  0  0  0  0  0  0  0  0  0  0
    0.6607    4.5489    0.5210 H   0  0  0  0  0  0  0  0  0  0  0  0
   -0.4895    2.8789   -0.6375 H   0  0  0  0  0  0  0  0  0  0  0  0
    0.6832    2.2249    0.2918 H   0  0  0  0  0  0  0  0  0  0  0  0
   -0.8744    2.1618    0.7782 H   0  0  0  0  0  0  0  0  0  0  0  0
    3.1648    4.5954    2.5052 H   0  0  0  0  0  0  0  0  0  0  0  0
    5.2795    1.0220    2.4742 H   0  0  0  0  0  0  0  0  0  0  0  0
    3.2159   -0.1857    2.4903 H   0  0  0  0  0  0  0  0  0  0  0  0
    1.1271    0.9773    2.5135 H   0  0  0  0  0  0  0  0  0  0  0  0
    5.8105    4.1336    3.3646 H   0  0  0  0  0  0  0  0  0  0  0  0
    6.4466    3.0664    2.3049 H   0  0  0  0  0  0  0  0  0  0  0  0
    7.4960    8.1865    5.0739 H   0  0  0  0  0  0  0  0  0  0  0  0
    7.5530    7.0330    2.9733 H   0  0  0  0  0  0  0  0  0  0  0  0
    6.2606    9.0711    6.9315 H   0  0  0  0  0  0  0  0  0  0  0  0
    4.1591    9.4397    8.0268 H   0  0  0  0  0  0  0  0  0  0  0  0
    2.1364    8.6596    7.0177 H   0  0  0  0  0  0  0  0  0  0  0  0
    2.2070    7.5160    4.9273 H   0  0  0  0  0  0  0  0  0  0  0  0
    7.2062    1.9798    0.0923 H   0  0  0  0  0  0  0  0  0  0  0  0
    7.7739    3.2929   -0.6953 H   0  0  0  0  0  0  0  0  0  0  0  0
    7.2319    2.4079   -2.7476 H   0  0  0  0  0  0  0  0  0  0  0  0
    7.9584    1.1926   -1.9340 H   0  0  0  0  0  0  0  0  0  0  0  0
    4.0750    1.2243   -2.5864 H   0  0  0  0  0  0  0  0  0  0  0  0
    5.0470    2.4246   -3.1167 H   0  0  0  0  0  0  0  0  0  0  0  0
    3.8807    3.3288   -1.3544 H   0  0  0  0  0  0  0  0  0  0  0  0
    4.1333    2.0093   -0.4261 H   0  0  0  0  0  0  0  0  0  0  0  0
  1  2  2  0  0  0  0
  1  3  2  0  0  0  0
  1  4  1  0  0  0  0
  4  5  1  0  0  0  0
  1  6  1  0  0  0  0
  6  7  1  0  0  0  0
  7  8  2  0  0  0  0
  8  9  1  0  0  0  0
  9 10  2  0  0  0  0
 10 11  1  0  0  0  0
 11  6  2  0  0  0  0
  8 12  1  0  0  0  0
 12 13  1  0  0  0  0
 13 14  1  0  0  0  0
 14 15  2  0  0  0  0
 15 16  1  0  0  0  0
 16 17  2  0  0  0  0
 17 13  1  0  0  0  0
 17 18  1  0  0  0  0
 18 19  1  0  0  0  0
 19 20  2  0  0  0  0
 20 21  1  0  0  0  0
 21 22  2  0  0  0  0
 22 23  1  0  0  0  0
 23 18  2  0  0  0  0
 21 24  1  0  0  0  0
 24 25  2  0  0  0  0
 25 26  1  0  0  0  0
 26 27  2  0  0  0  0
 27 20  1  0  0  0  0
 14 28  1  0  0  0  0
 28 29  1  0  0  0  0
 29 30  1  0  0  0  0
 30 31  1  0  0  0  0
 31 32  1  0  0  0  0
 32 33  1  0  0  0  0
 33 28  1  0  0  0  0
  4 34  1  0  0  0  0
  5 35  1  0  0  0  0
  5 36  1  0  0  0  0
  5 37  1  0  0  0  0
  7 38  1  0  0  0  0
  9 39  1  0  0  0  0
 10 40  1  0  0  0  0
 11 41  1  0  0  0  0
 12 42  1  0  0  0  0
 12 43  1  0  0  0  0
 22 44  1  0  0  0  0
 23 45  1  0  0  0  0
 24 46  1  0  0  0  0
 25 47  1  0  0  0  0
 26 48  1  0  0  0  0
 27 49  1  0  0  0  0
 29 50  1  0  0  0  0
 29 51  1  0  0  0  0
 30 52  1  0  0  0  0
 30 53  1  0  0  0  0
 32 54  1  0  0  0  0
 32 55  1  0  0  0  0
 33 56  1  0  0  0  0
 33 57  1  0  0  0  0
M  END
>  <result-rank>
55

>  <similarity>
0.870

>  <query-name>


>  <query-smiles>
S(=O)(=O)(NC(=O)C)c1ccc(cc1)C=2N3C(=NC(=C3)COc4nc5c(cc4)cccc5)C(=NC2)N6CCOCC6

>  <source>
REALspace_2019-12

>  <similarity-descriptor>
0.936;1.000;0.637;0.637;0.836;1.000;1.000;0.733;0.733;0.733;0.836;0.836;0.0

>  <similarity-descriptor-smiles>
c1cccc(c1)C;N1CCOCC1;N1C=NN=C1;N1C=NN=C1;c1ccccn1;c1ccccc1;S(=O)=O;NC;NC;NC;c1ccccn1;c1ccccn1;

>  <reaction-name>
m_273170

>  <reagent1-name>
10756572

>  <reagent1-smiles>
[R2*]=C([R1*])N([R3*])Cc1cc(S(=O)(=O)NC)ccc1

>  <reagent2-name>
10759890

>  <reagent2-smiles>
[R1*]N1CCOCC1

>  <reagent3-name>
10755784

>  <reagent3-smiles>
[R2*]=NN=C([R3*])c1nc2c(cc1)cccc2

$$$$
s_7a____31280____8366508
          04022017313D 1   1.00000     0.00000     0
            
 67 72  0  0  0  0            999 V2000
    1.0000    1.0000    1.0000 S   0  0  0  0  0  0  0  0  0  0  0  0
    1.0000    2.0228   -0.4078 C   0  0  0  0  0  0  0  0  0  0  0  0
   -0.1583    2.3965   -0.9222 N   0  0  0  0  0  0  0  0  0  0  0  0
   -0.2217    3.2022   -2.0300 C   0  0  0  0  0  0  0  0  0  0  0  0
    0.9512    3.6435   -2.6367 C   0  0  0  0  0  0  0  0  0  0  0  0
    0.8853    4.4600   -3.7619 C   0  0  0  0  0  0  0  0  0  0  0  0
   -0.3318    4.8534   -4.3035 C   0  0  0  0  0  0  0  0  0  0  0  0
   -1.4936    4.4055   -3.6876 C   0  0  0  0  0  0  0  0  0  0  0  0
   -1.4486    3.5874   -2.5619 C   0  0  0  0  0  0  0  0  0  0  0  0
   -2.7574    4.8210   -4.2597 C   0  0  0  0  0  0  0  0  0  0  0  0
   -3.7884    4.4599   -3.7631 O   0  0  0  0  0  0  0  0  0  0  0  0
   -2.7751    5.5911   -5.3193 O   0  0  0  0  0  0  0  0  0  0  0  0
   -4.0143    5.9985   -5.8803 C   0  0  0  0  0  0  0  0  0  0  0  0
    2.1924    3.2361   -2.0757 C   0  0  0  0  0  0  0  0  0  0  0  0
    3.2676    3.5784   -2.5470 O   0  0  0  0  0  0  0  0  0  0  0  0
    2.1832    2.4305   -0.9677 N   0  0  0  0  0  0  0  0  0  0  0  0
    3.4612    2.0026   -0.3793 C   0  0  0  0  0  0  0  0  0  0  0  0
    3.9016    0.6971   -1.0195 C   0  0  3  0  0  0  0  0  0  0  0  0
    2.9339   -0.3107   -0.8010 O   0  0  0  0  0  0  0  0  0  0  0  0
    3.5936   -1.5471   -1.0377 C   0  0  0  0  0  0  0  0  0  0  0  0
    5.0609   -1.3073   -0.7408 C   0  0  0  0  0  0  0  0  0  0  0  0
    5.1149    0.1448   -0.3065 C   0  0  0  0  0  0  0  0  0  0  0  0
    1.0000    2.2799    2.2799 C   0  0  0  0  0  0  0  0  0  0  0  0
   -0.3467    2.9848    2.2916 C   0  0  0  0  0  0  0  0  0  0  0  0
   -0.6647    4.0459    1.5927 O   0  0  0  0  0  0  0  0  0  0  0  0
   -1.8628    4.3898    1.8247 N   0  0  0  0  0  0  0  0  0  0  0  0
   -2.4110    3.5759    2.6913 C   0  0  0  0  0  0  0  0  0  0  0  0
   -3.7668    3.6436    3.2053 C   0  0  0  0  0  0  0  0  0  0  0  0
   -4.7573    2.9530    2.5145 C   0  0  0  0  0  0  0  0  0  0  0  0
   -4.4732    2.2418    1.4022 O   0  0  0  0  0  0  0  0  0  0  0  0
   -5.5071    1.5478    0.7198 C   0  0  0  0  0  0  0  0  0  0  0  0
   -6.0734    2.9822    2.9628 C   0  0  0  0  0  0  0  0  0  0  0  0
   -6.4037    3.7046    4.1050 C   0  0  0  0  0  0  0  0  0  0  0  0
   -5.4183    4.3972    4.7991 C   0  0  0  0  0  0  0  0  0  0  0  0
   -4.0995    4.3675    4.3512 C   0  0  0  0  0  0  0  0  0  0  0  0
   -3.1498    5.0774    5.0828 C   0  0  0  0  0  0  0  0  0  0  0  0
   -3.4815    5.7983    6.2241 C   0  0  0  0  0  0  0  0  0  0  0  0
   -4.8078    5.8061    6.6421 C   0  0  0  0  0  0  0  0  0  0  0  0
   -5.7832    5.1090    5.9367 C   0  0  0  0  0  0  0  0  0  0  0  0
   -1.4310    2.6218    3.0274 C   0  0  0  0  0  0  0  0  0  0  0  0
    1.7339    4.7705   -4.1903 H   0  0  0  0  0  0  0  0  0  0  0  0
   -0.3704    5.4409   -5.1118 H   0  0  0  0  0  0  0  0  0  0  0  0
   -2.2980    3.2766   -2.1356 H   0  0  0  0  0  0  0  0  0  0  0  0
   -3.8449    6.5779   -6.6775 H   0  0  0  0  0  0  0  0  0  0  0  0
   -4.5352    5.1917   -6.1592 H   0  0  0  0  0  0  0  0  0  0  0  0
   -4.5355    6.5127   -5.1991 H   0  0  0  0  0  0  0  0  0  0  0  0
    3.3469    1.8692    0.6052 H   0  0  0  0  0  0  0  0  0  0  0  0
    4.1548    2.7044   -0.5422 H   0  0  0  0  0  0  0  0  0  0  0  0
    4.0816    0.8177   -1.9957 H   0  0  0  0  0  0  0  0  0  0  0  0
    3.4740   -1.8270   -1.9903 H   0  0  0  0  0  0  0  0  0  0  0  0
    3.2291   -2.2558   -0.4337 H   0  0  0  0  0  0  0  0  0  0  0  0
    5.6177   -1.4547   -1.5583 H   0  0  0  0  0  0  0  0  0  0  0  0
    5.3784   -1.9094   -0.0083 H   0  0  0  0  0  0  0  0  0  0  0  0
    5.0320    0.2357    0.6859 H   0  0  0  0  0  0  0  0  0  0  0  0
    5.9564    0.5898   -0.6129 H   0  0  0  0  0  0  0  0  0  0  0  0
    1.7222    2.9441    2.0870 H   0  0  0  0  0  0  0  0  0  0  0  0
    1.1637    1.8590    3.1721 H   0  0  0  0  0  0  0  0  0  0  0  0
   -5.1243    1.0776   -0.0755 H   0  0  0  0  0  0  0  0  0  0  0  0
   -5.9216    0.8778    1.3356 H   0  0  0  0  0  0  0  0  0  0  0  0
   -6.2034    2.1993    0.4186 H   0  0  0  0  0  0  0  0  0  0  0  0
   -6.7826    2.4838    2.4641 H   0  0  0  0  0  0  0  0  0  0  0  0
   -7.3503    3.7257    4.4267 H   0  0  0  0  0  0  0  0  0  0  0  0
   -2.1979    5.0679    4.7768 H   0  0  0  0  0  0  0  0  0  0  0  0
   -2.7821    6.3001    6.7331 H   0  0  0  0  0  0  0  0  0  0  0  0
   -5.0639    6.3198    7.4610 H   0  0  0  0  0  0  0  0  0  0  0  0
   -6.7348    5.1196    6.2437 H   0  0  0  0  0  0  0  0  0  0  0  0
   -1.5137    1.8534    3.6619 H   0  0  0  0  0  0  0  0  0  0  0  0
  1  2  1  0  0  0  0
  2  3  2  0  0  0  0
  3  4  1  0  0  0  0
  4  5  1  0  0  0  0
  5  6  2  0  0  0  0
  6  7  1  0  0  0  0
  7  8  2  0  0  0  0
  8  9  1  0  0  0  0
  9  4  2  0  0  0  0
  8 10  1  0  0  0  0
 10 11  2  0  0  0  0
 10 12  1  0  0  0  0
 12 13  1  0  0  0  0
  5 14  1  0  0  0  0
 14 15  2  0  0  0  0
 14 16  1  0  0  0  0
 16  2  1  0  0  0  0
 16 17  1  0  0  0  0
 17 18  1  0  0  0  0
 18 19  1  0  0  0  0
 19 20  1  0  0  0  0
 20 21  1  0  0  0  0
 21 22  1  0  0  0  0
 22 18  1  0  0  0  0
  1 23  1  0  0  0  0
 23 24  1  0  0  0  0
 24 25  1  0  0  0  0
 25 26  1  0  0  0  0
 26 27  2  0  0  0  0
 27 28  1  0  0  0  0
 28 29  1  0  0  0  0
 29 30  1  0  0  0  0
 30 31  1  0  0  0  0
 29 32  2  0  0  0  0
 32 33  1  0  0  0  0
 33 34  2  0  0  0  0
 34 35  1  0  0  0  0
 35 28  2  0  0  0  0
 35 36  1  0  0  0  0
 36 37  2  0  0  0  0
 37 38  1  0  0  0  0
 38 39  2  0  0  0  0
 39 34  1  0  0  0  0
 27 40  1  0  0  0  0
 24 40  2  0  0  0  0
  6 41  1  0  0  0  0
  7 42  1  0  0  0  0
  9 43  1  0  0  0  0
 13 44  1  0  0  0  0
 13 45  1  0  0  0  0
 13 46  1  0  0  0  0
 17 47  1  0  0  0  0
 17 48  1  0  0  0  0
 18 49  1  0  0  0  0
 20 50  1  0  0  0  0
 20 51  1  0  0  0  0
 21 52  1  0  0  0  0
 21 53  1  0  0  0  0
 22 54  1  0  0  0  0
 22 55  1  0  0  0  0
 23 56  1  0  0  0  0
 23 57  1  0  0  0  0
 31 58  1  0  0  0  0
 31 59  1  0  0  0  0
 31 60  1  0  0  0  0
 32 61  1  0  0  0  0
 33 62  1  0  0  0  0
 36 63  1  0  0  0  0
 37 64  1  0  0  0  0
 38 65  1  0  0  0  0
 39 66  1  0  0  0  0
 40 67  1  0  0  0  0
M  END
>  <result-rank>
56

>  <similarity>
0.870

>  <query-name>


>  <query-smiles>
S(=O)(=O)(NC(=O)C)c1ccc(cc1)C=2N3C(=NC(=C3)COc4nc5c(cc4)cccc5)C(=NC2)N6CCOCC6

>  <source>
REALspace_2019-12

>  <similarity-descriptor>
0.937;0.956;0.922;0.697;0.956;0.999;0.724;0.0;0.0;0.0;0.922;0.922;0.071

>  <similarity-descriptor-smiles>
c1ccccc1;CC1CCCO1;C1=CC=NO1;S(C=1NC(ccN1)=O)C;c1ccccc1O;c1ccccc1;C(=O)OC;;;;C1=CC=NO1;C1=CC=NO1;C

>  <reaction-name>
s_7a

>  <reagent1-name>
31280

>  <reagent1-smiles>
[R1*]SC1=Nc2c(ccc(c2)C(=O)OC)C(=O)N1CC3OCCC3

>  <reagent2-name>
8366508

>  <reagent2-smiles>
[R1*]CC=1ON=C(c2c(OC)ccc3c2cccc3)C1

$$$$
m_274972____12934174____12615770____13047098
          04022017313D 1   1.00000     0.00000     0
            
 56 60  0  0  0  0            999 V2000
   12.2708    1.6700    2.2931 S   0  0  0  0  0  0  0  0  0  0  0  0
   12.5794    0.8844    3.4598 O   0  0  0  0  0  0  0  0  0  0  0  0
   12.5386    0.8960    1.1086 O   0  0  0  0  0  0  0  0  0  0  0  0
   13.1928    3.0142    2.2837 N   0  0  0  0  0  0  0  0  0  0  0  0
   10.5904    2.1195    2.3244 C   0  0  0  0  0  0  0  0  0  0  0  0
    9.9013    2.3042    1.1308 C   0  0  0  0  0  0  0  0  0  0  0  0
    8.5575    2.6638    1.1532 C   0  0  0  0  0  0  0  0  0  0  0  0
    7.9198    2.8347    2.3773 C   0  0  0  0  0  0  0  0  0  0  0  0
    8.6100    2.6502    3.5709 C   0  0  0  0  0  0  0  0  0  0  0  0
    9.9529    2.2903    3.5491 C   0  0  0  0  0  0  0  0  0  0  0  0
    6.4523    3.2286    2.4073 C   0  0  0  0  0  0  0  0  0  0  0  0
    5.6199    2.0170    2.4168 N   0  0  0  0  0  0  0  0  0  0  0  0
    4.2262    2.1265    2.4440 C   0  0  0  0  0  0  0  0  0  0  0  0
    3.3287    3.5724    2.4687 S   0  0  0  0  0  0  0  0  0  0  0  0
    1.7793    2.8660    2.4982 C   0  0  0  0  0  0  0  0  0  0  0  0
    2.0377    1.5325    2.4911 C   0  0  0  0  0  0  0  0  0  0  0  0
    3.3528    1.1511    2.4644 N   0  0  0  0  0  0  0  0  0  0  0  0
    0.9127    0.6185    2.5170 C   0  0  0  0  0  0  0  0  0  0  0  0
   -0.4020    0.9697    2.5482 N   0  0  0  0  0  0  0  0  0  0  0  0
   -1.0773   -0.0975    2.5643 N   0  0  0  0  0  0  0  0  0  0  0  0
   -0.3040   -1.1550    2.5476 N   0  0  0  0  0  0  0  0  0  0  0  0
    0.9889   -0.7405    2.5181 C   0  0  0  0  0  0  0  0  0  0  0  0
   -0.7602   -2.5522    2.5607 C   0  0  0  0  0  0  0  0  0  0  0  0
   -0.9516   -3.0362    1.1326 C   0  0  0  0  0  0  0  0  0  0  0  0
   -1.4080   -4.4341    1.1457 N   0  0  0  0  0  0  0  0  0  0  0  0
   -2.7445   -4.7431    1.1781 C   0  0  0  0  0  0  0  0  0  0  0  0
   -3.5487   -3.8235    1.1971 O   0  0  0  0  0  0  0  0  0  0  0  0
   -3.1577   -6.1052    1.1896 C   0  0  0  0  0  0  0  0  0  0  0  0
   -2.1835   -7.0997    1.1673 C   0  0  0  0  0  0  0  0  0  0  0  0
   -2.5365   -8.4451    1.1769 C   0  0  0  0  0  0  0  0  0  0  0  0
   -3.8815   -8.7970    1.2096 C   0  0  0  0  0  0  0  0  0  0  0  0
   -4.8750   -7.8236    1.2327 C   0  0  0  0  0  0  0  0  0  0  0  0
   -4.4974   -6.4855    1.2231 C   0  0  0  0  0  0  0  0  0  0  0  0
   -0.8072   -6.7469    1.1337 C   0  0  0  0  0  0  0  0  0  0  0  0
   -0.4568   -5.4211    1.1237 C   0  0  0  0  0  0  0  0  0  0  0  0
   12.9785    3.5597    1.4735 H   0  0  0  0  0  0  0  0  0  0  0  0
   13.0068    3.5516    3.1062 H   0  0  0  0  0  0  0  0  0  0  0  0
   10.3712    2.1788    0.2570 H   0  0  0  0  0  0  0  0  0  0  0  0
    8.0557    2.7978    0.2987 H   0  0  0  0  0  0  0  0  0  0  0  0
    8.1403    2.7765    4.4446 H   0  0  0  0  0  0  0  0  0  0  0  0
   10.4545    2.1557    4.4036 H   0  0  0  0  0  0  0  0  0  0  0  0
    6.2682    3.7660    3.2303 H   0  0  0  0  0  0  0  0  0  0  0  0
    6.2370    3.7746    1.5977 H   0  0  0  0  0  0  0  0  0  0  0  0
    6.0504    1.1145    2.4039 H   0  0  0  0  0  0  0  0  0  0  0  0
    0.8906    3.3240    2.5164 H   0  0  0  0  0  0  0  0  0  0  0  0
    1.8127   -1.3071    2.5010 H   0  0  0  0  0  0  0  0  0  0  0  0
   -1.6283   -2.6148    3.0530 H   0  0  0  0  0  0  0  0  0  0  0  0
   -0.0765   -3.1218    3.0169 H   0  0  0  0  0  0  0  0  0  0  0  0
   -1.6353   -2.4666    0.6764 H   0  0  0  0  0  0  0  0  0  0  0  0
   -0.0835   -2.9736    0.6402 H   0  0  0  0  0  0  0  0  0  0  0  0
   -1.8298   -9.1525    1.1604 H   0  0  0  0  0  0  0  0  0  0  0  0
   -4.1381   -9.7635    1.2166 H   0  0  0  0  0  0  0  0  0  0  0  0
   -5.8411   -8.0809    1.2557 H   0  0  0  0  0  0  0  0  0  0  0  0
   -5.2048   -5.7789    1.2407 H   0  0  0  0  0  0  0  0  0  0  0  0
   -0.1029   -7.4567    1.1176 H   0  0  0  0  0  0  0  0  0  0  0  0
    0.5107   -5.1695    1.0998 H   0  0  0  0  0  0  0  0  0  0  0  0
  1  2  2  0  0  0  0
  1  3  2  0  0  0  0
  1  4  1  0  0  0  0
  1  5  1  0  0  0  0
  5  6  1  0  0  0  0
  6  7  2  0  0  0  0
  7  8  1  0  0  0  0
  8  9  2  0  0  0  0
  9 10  1  0  0  0  0
 10  5  2  0  0  0  0
  8 11  1  0  0  0  0
 11 12  1  0  0  0  0
 12 13  1  0  0  0  0
 13 14  1  0  0  0  0
 14 15  1  0  0  0  0
 15 16  2  0  0  0  0
 16 17  1  0  0  0  0
 13 17  2  0  0  0  0
 16 18  1  0  0  0  0
 18 19  1  0  0  0  0
 19 20  2  0  0  0  0
 20 21  1  0  0  0  0
 21 22  1  0  0  0  0
 18 22  2  0  0  0  0
 21 23  1  0  0  0  0
 23 24  1  0  0  0  0
 24 25  1  0  0  0  0
 25 26  1  0  0  0  0
 26 27  2  0  0  0  0
 26 28  1  0  0  0  0
 28 29  1  0  0  0  0
 29 30  2  0  0  0  0
 30 31  1  0  0  0  0
 31 32  2  0  0  0  0
 32 33  1  0  0  0  0
 33 28  2  0  0  0  0
 29 34  1  0  0  0  0
 34 35  2  0  0  0  0
 35 25  1  0  0  0  0
  4 36  1  0  0  0  0
  4 37  1  0  0  0  0
  6 38  1  0  0  0  0
  7 39  1  0  0  0  0
  9 40  1  0  0  0  0
 10 41  1  0  0  0  0
 11 42  1  0  0  0  0
 11 43  1  0  0  0  0
 12 44  1  0  0  0  0
 15 45  1  0  0  0  0
 22 46  1  0  0  0  0
 23 47  1  0  0  0  0
 23 48  1  0  0  0  0
 24 49  1  0  0  0  0
 24 50  1  0  0  0  0
 30 51  1  0  0  0  0
 31 52  1  0  0  0  0
 32 53  1  0  0  0  0
 33 54  1  0  0  0  0
 34 55  1  0  0  0  0
 35 56  1  0  0  0  0
M  END
>  <result-rank>
57

>  <similarity>
0.870

>  <query-name>


>  <query-smiles>
S(=O)(=O)(NC(=O)C)c1ccc(cc1)C=2N3C(=NC(=C3)COc4nc5c(cc4)cccc5)C(=NC2)N6CCOCC6

>  <source>
REALspace_2019-12

>  <similarity-descriptor>
0.852;0.0;0.832;0.973;0.952;1.000;1.000;0.588;0.0;0.0;0.667;0.952;0.0

>  <similarity-descriptor-smiles>
c1ccc(cc1)CN;;C1=CNN=N1;C1=NC=CS1;N1C=CccC1=O;c1ccccc1;S(=O)=O;N;;;CC;N1C=CccC1=O;

>  <reaction-name>
m_274972

>  <reagent1-name>
12934174

>  <reagent1-smiles>
[R1*]SC(=N[R2*])NCc1ccc(S(=O)(=O)N)cc1

>  <reagent2-name>
12615770

>  <reagent2-smiles>
[R2*]C(C([R3*])=C[R4*])=C[R1*]

>  <reagent3-name>
13047098

>  <reagent3-smiles>
[R3*]N=NN([R4*])CCN1C(=O)c2c(cccc2)C=C1

$$$$
m_270942____9828442____13909302____14069338
          04022017313D 1   1.00000     0.00000     0
            
 60 64  0  0  0  0            999 V2000
    3.2033   -0.2950    5.1544 Cl  0  0  0  0  0  0  0  0  0  0  0  0
    3.8778   -0.9297    3.6338 C   0  0  0  0  0  0  0  0  0  0  0  0
    3.9079   -0.1493    2.4826 C   0  0  0  0  0  0  0  0  0  0  0  0
    4.4365   -0.6553    1.2990 C   0  0  0  0  0  0  0  0  0  0  0  0
    4.9379   -1.9525    1.2736 C   0  0  0  0  0  0  0  0  0  0  0  0
    4.9078   -2.7332    2.4244 C   0  0  0  0  0  0  0  0  0  0  0  0
    5.5344   -4.3565    2.3918 S   0  0  0  0  0  0  0  0  0  0  0  0
    6.7983   -4.3694    1.7017 O   0  0  0  0  0  0  0  0  0  0  0  0
    5.7190   -4.8270    3.7402 O   0  0  0  0  0  0  0  0  0  0  0  0
    4.4819   -5.3298    1.6160 N   0  0  0  0  0  0  0  0  0  0  0  0
    4.3789   -2.2274    3.6079 C   0  0  0  0  0  0  0  0  0  0  0  0
    3.3905    1.2051    2.4893 C   0  0  0  0  0  0  0  0  0  0  0  0
    4.1071    2.3065    2.4903 N   0  0  0  0  0  0  0  0  0  0  0  0
    3.2789    3.3271    2.4974 N   0  0  0  0  0  0  0  0  0  0  0  0
    2.0315    2.9267    2.5008 C   0  0  0  0  0  0  0  0  0  0  0  0
    2.0806    1.5694    2.4959 N   0  0  0  0  0  0  0  0  0  0  0  0
    0.9245    0.6605    2.4981 C   0  0  0  0  0  0  0  0  0  0  0  0
    0.2173    0.7373    1.1555 C   0  0  3  0  0  0  0  0  0  0  0  0
   -0.9878   -0.1785    1.0910 C   0  0  0  0  0  0  0  0  0  0  0  0
   -1.2228   -0.3634   -0.2935 O   0  0  0  0  0  0  0  0  0  0  0  0
   -0.0031   -0.1643   -0.9902 C   0  0  0  0  0  0  0  0  0  0  0  0
    1.0536    0.1380    0.0552 C   0  0  0  0  0  0  0  0  0  0  0  0
    0.8853    3.7336    2.5048 N   0  0  0  0  0  0  0  0  0  0  0  0
   -0.4485    3.1157    2.5084 C   0  0  0  0  0  0  0  0  0  0  0  0
   -1.5114    4.2039    2.5122 C   0  0  0  0  0  0  0  0  0  0  0  0
   -1.8532    4.9199    3.6585 C   0  0  0  0  0  0  0  0  0  0  0  0
   -2.8390    5.9015    3.5811 C   0  0  0  0  0  0  0  0  0  0  0  0
   -3.4482    6.1492    2.4112 N   0  0  0  0  0  0  0  0  0  0  0  0
   -3.1331    5.4717    1.2966 C   0  0  0  0  0  0  0  0  0  0  0  0
   -2.1576    4.4803    1.3128 C   0  0  0  0  0  0  0  0  0  0  0  0
   -3.1880    6.6197    4.7202 C   0  0  0  0  0  0  0  0  0  0  0  0
   -2.5655    6.3723    5.9391 C   0  0  0  0  0  0  0  0  0  0  0  0
   -1.5793    5.3963    6.0305 C   0  0  0  0  0  0  0  0  0  0  0  0
   -1.2376    4.6835    4.8863 C   0  0  0  0  0  0  0  0  0  0  0  0
    1.0172    5.1977    2.5052 C   0  0  0  0  0  0  0  0  0  0  0  0
    4.4557   -0.0910    0.4736 H   0  0  0  0  0  0  0  0  0  0  0  0
    5.3201   -2.3240    0.4276 H   0  0  0  0  0  0  0  0  0  0  0  0
    3.6042   -5.3208    2.0952 H   0  0  0  0  0  0  0  0  0  0  0  0
    4.3537   -5.0030    0.6796 H   0  0  0  0  0  0  0  0  0  0  0  0
    4.3592   -2.7920    4.4330 H   0  0  0  0  0  0  0  0  0  0  0  0
    0.2912    0.9284    3.2242 H   0  0  0  0  0  0  0  0  0  0  0  0
    1.2370   -0.2760    2.6571 H   0  0  0  0  0  0  0  0  0  0  0  0
   -0.0374    1.6797    0.9386 H   0  0  0  0  0  0  0  0  0  0  0  0
   -0.7910   -1.0525    1.5353 H   0  0  0  0  0  0  0  0  0  0  0  0
   -1.7789    0.2477    1.5295 H   0  0  0  0  0  0  0  0  0  0  0  0
   -0.0901    0.6042   -1.6241 H   0  0  0  0  0  0  0  0  0  0  0  0
    0.2417   -0.9898   -1.4987 H   0  0  0  0  0  0  0  0  0  0  0  0
    1.5164   -0.6946    0.3594 H   0  0  0  0  0  0  0  0  0  0  0  0
    1.7306    0.7898   -0.2864 H   0  0  0  0  0  0  0  0  0  0  0  0
   -0.5504    2.5474    3.3248 H   0  0  0  0  0  0  0  0  0  0  0  0
   -0.5552    2.5483    1.6919 H   0  0  0  0  0  0  0  0  0  0  0  0
   -3.6067    5.6828    0.4415 H   0  0  0  0  0  0  0  0  0  0  0  0
   -1.9263    3.9774    0.4799 H   0  0  0  0  0  0  0  0  0  0  0  0
   -3.8961    7.3234    4.6618 H   0  0  0  0  0  0  0  0  0  0  0  0
   -2.8270    6.8964    6.7497 H   0  0  0  0  0  0  0  0  0  0  0  0
   -1.1248    5.2106    6.9017 H   0  0  0  0  0  0  0  0  0  0  0  0
   -0.5292    3.9803    4.9463 H   0  0  0  0  0  0  0  0  0  0  0  0
    0.1080    5.6142    2.5082 H   0  0  0  0  0  0  0  0  0  0  0  0
    1.5190    5.4869    3.3204 H   0  0  0  0  0  0  0  0  0  0  0  0
    1.5141    5.4879    1.6874 H   0  0  0  0  0  0  0  0  0  0  0  0
  1  2  1  0  0  0  0
  2  3  1  0  0  0  0
  3  4  2  0  0  0  0
  4  5  1  0  0  0  0
  5  6  2  0  0  0  0
  6  7  1  0  0  0  0
  7  8  2  0  0  0  0
  7  9  2  0  0  0  0
  7 10  1  0  0  0  0
  6 11  1  0  0  0  0
 11  2  2  0  0  0  0
  3 12  1  0  0  0  0
 12 13  2  0  0  0  0
 13 14  1  0  0  0  0
 14 15  2  0  0  0  0
 15 16  1  0  0  0  0
 16 12  1  0  0  0  0
 16 17  1  0  0  0  0
 17 18  1  0  0  0  0
 18 19  1  0  0  0  0
 19 20  1  0  0  0  0
 20 21  1  0  0  0  0
 21 22  1  0  0  0  0
 22 18  1  0  0  0  0
 15 23  1  0  0  0  0
 23 24  1  0  0  0  0
 24 25  1  0  0  0  0
 25 26  1  0  0  0  0
 26 27  2  0  0  0  0
 27 28  1  0  0  0  0
 28 29  2  0  0  0  0
 29 30  1  0  0  0  0
 30 25  2  0  0  0  0
 27 31  1  0  0  0  0
 31 32  2  0  0  0  0
 32 33  1  0  0  0  0
 33 34  2  0  0  0  0
 34 26  1  0  0  0  0
 23 35  1  0  0  0  0
  4 36  1  0  0  0  0
  5 37  1  0  0  0  0
 10 38  1  0  0  0  0
 10 39  1  0  0  0  0
 11 40  1  0  0  0  0
 17 41  1  0  0  0  0
 17 42  1  0  0  0  0
 18 43  1  0  0  0  0
 19 44  1  0  0  0  0
 19 45  1  0  0  0  0
 21 46  1  0  0  0  0
 21 47  1  0  0  0  0
 22 48  1  0  0  0  0
 22 49  1  0  0  0  0
 24 50  1  0  0  0  0
 24 51  1  0  0  0  0
 29 52  1  0  0  0  0
 30 53  1  0  0  0  0
 31 54  1  0  0  0  0
 32 55  1  0  0  0  0
 33 56  1  0  0  0  0
 34 57  1  0  0  0  0
 35 58  1  0  0  0  0
 35 59  1  0  0  0  0
 35 60  1  0  0  0  0
M  END
>  <result-rank>
58

>  <similarity>
0.869

>  <query-name>


>  <query-smiles>
S(=O)(=O)(NC(=O)C)c1ccc(cc1)C=2N3C(=NC(=C3)COc4nc5c(cc4)cccc5)C(=NC2)N6CCOCC6

>  <source>
REALspace_2019-12

>  <similarity-descriptor>
0.948;0.956;0.637;0.637;0.902;1.000;1.000;0.588;0.0;0.0;0.973;0.902;0.091

>  <similarity-descriptor-smiles>
Clc1ccccc1;CC1CCOC1;C=1NC=NN1;C=1NC=NN1;c1ccncc1;c1ccccc1;S(=O)=O;N;;;NC;c1ccncc1;C

>  <reaction-name>
m_270942

>  <reagent1-name>
9828442

>  <reagent1-smiles>
[R3*]=C([R2*])N([R1*])CC1COCC1

>  <reagent2-name>
13909302

>  <reagent2-smiles>
[R2*]N(Cc1c2c(ncc1)cccc2)C

>  <reagent3-name>
14069338

>  <reagent3-smiles>
[R3*]=NN=C([R1*])c1c(Cl)cc(S(=O)(=O)N)cc1

$$$$
m_274972____15150082____12615770____14260852
          04022017313D 1   1.00000     0.00000     0
            
 43 47  0  0  0  0            999 V2000
    5.4654   -1.9798    2.3750 S   0  0  0  0  0  0  0  0  0  0  0  0
    3.8153   -2.3902    2.3889 C   0  0  0  0  0  0  0  0  0  0  0  0
    3.1362   -1.2653    2.4190 N   0  0  0  0  0  0  0  0  0  0  0  0
    3.8973   -0.1294    2.4325 C   0  0  0  0  0  0  0  0  0  0  0  0
    3.3679    1.2133    2.4745 C   0  0  0  0  0  0  0  0  0  0  0  0
    4.0997    2.3609    2.4928 N   0  0  0  0  0  0  0  0  0  0  0  0
    3.2864    3.3264    2.5304 N   0  0  0  0  0  0  0  0  0  0  0  0
    2.0449    2.9079    2.5406 N   0  0  0  0  0  0  0  0  0  0  0  0
    2.0495    1.5504    2.5067 C   0  0  0  0  0  0  0  0  0  0  0  0
    0.8509    3.7641    2.5836 C   0  0  0  0  0  0  0  0  0  0  0  0
    0.4156    4.0964    1.1686 C   0  0  3  0  0  0  0  0  0  0  0  0
    0.1007    2.9306    0.4280 O   0  0  0  0  0  0  0  0  0  0  0  0
   -1.2840    2.9674    0.1245 C   0  0  0  0  0  0  0  0  0  0  0  0
   -1.5608    4.4454   -0.0179 C   0  0  0  0  0  0  0  0  0  0  0  0
   -2.8668    4.7096   -0.0106 F   0  0  0  0  0  0  0  0  0  0  0  0
   -1.0307    4.9668   -1.1242 F   0  0  0  0  0  0  0  0  0  0  0  0
   -0.8707    4.8786    1.2607 C   0  0  0  0  0  0  0  0  0  0  0  0
    5.2502   -0.2906    2.4139 C   0  0  0  0  0  0  0  0  0  0  0  0
    3.2779   -3.7384    2.3657 C   0  0  0  0  0  0  0  0  0  0  0  0
    1.9561   -3.9778    2.3789 N   0  0  0  0  0  0  0  0  0  0  0  0
    1.4493   -5.2218    2.3575 C   0  0  0  0  0  0  0  0  0  0  0  0
    2.3041   -6.3204    2.3201 C   0  0  0  0  0  0  0  0  0  0  0  0
    3.6776   -6.1009    2.3056 C   0  0  0  0  0  0  0  0  0  0  0  0
    4.1748   -4.8015    2.3289 C   0  0  0  0  0  0  0  0  0  0  0  0
    1.8108   -7.6207    2.2969 C   0  0  0  0  0  0  0  0  0  0  0  0
    0.4342   -7.8192    2.3121 C   0  0  0  0  0  0  0  0  0  0  0  0
   -0.4412   -6.7390    2.3492 C   0  0  0  0  0  0  0  0  0  0  0  0
    0.0765   -5.4480    2.3718 C   0  0  0  0  0  0  0  0  0  0  0  0
    1.2607    0.9357    2.5056 H   0  0  0  0  0  0  0  0  0  0  0  0
    1.0641    4.6092    3.0739 H   0  0  0  0  0  0  0  0  0  0  0  0
    0.1121    3.2825    3.0551 H   0  0  0  0  0  0  0  0  0  0  0  0
    1.1194    4.6309    0.7006 H   0  0  0  0  0  0  0  0  0  0  0  0
   -1.8252    2.5701    0.8656 H   0  0  0  0  0  0  0  0  0  0  0  0
   -1.4783    2.4815   -0.7276 H   0  0  0  0  0  0  0  0  0  0  0  0
   -1.4001    4.6221    2.0694 H   0  0  0  0  0  0  0  0  0  0  0  0
   -0.7019    5.8642    1.2717 H   0  0  0  0  0  0  0  0  0  0  0  0
    5.9544    0.4193    2.4213 H   0  0  0  0  0  0  0  0  0  0  0  0
    4.3077   -6.8769    2.2786 H   0  0  0  0  0  0  0  0  0  0  0  0
    5.1607   -4.6344    2.3192 H   0  0  0  0  0  0  0  0  0  0  0  0
    2.4361   -8.4006    2.2696 H   0  0  0  0  0  0  0  0  0  0  0  0
    0.0694   -8.7501    2.2962 H   0  0  0  0  0  0  0  0  0  0  0  0
   -1.4299   -6.8885    2.3596 H   0  0  0  0  0  0  0  0  0  0  0  0
   -0.5493   -4.6685    2.3987 H   0  0  0  0  0  0  0  0  0  0  0  0
  1  2  1  0  0  0  0
  2  3  2  0  0  0  0
  3  4  1  0  0  0  0
  4  5  1  0  0  0  0
  5  6  1  0  0  0  0
  6  7  2  0  0  0  0
  7  8  1  0  0  0  0
  8  9  1  0  0  0  0
  5  9  2  0  0  0  0
  8 10  1  0  0  0  0
 10 11  1  0  0  0  0
 11 12  1  0  0  0  0
 12 13  1  0  0  0  0
 13 14  1  0  0  0  0
 14 15  1  0  0  0  0
 14 16  1  0  0  0  0
 14 17  1  0  0  0  0
 17 11  1  0  0  0  0
  4 18  2  0  0  0  0
 18  1  1  0  0  0  0
  2 19  1  0  0  0  0
 19 20  1  0  0  0  0
 20 21  2  0  0  0  0
 21 22  1  0  0  0  0
 22 23  2  0  0  0  0
 23 24  1  0  0  0  0
 24 19  2  0  0  0  0
 22 25  1  0  0  0  0
 25 26  2  0  0  0  0
 26 27  1  0  0  0  0
 27 28  2  0  0  0  0
 28 21  1  0  0  0  0
  9 29  1  0  0  0  0
 10 30  1  0  0  0  0
 10 31  1  0  0  0  0
 11 32  1  0  0  0  0
 13 33  1  0  0  0  0
 13 34  1  0  0  0  0
 17 35  1  0  0  0  0
 17 36  1  0  0  0  0
 18 37  1  0  0  0  0
 23 38  1  0  0  0  0
 24 39  1  0  0  0  0
 25 40  1  0  0  0  0
 26 41  1  0  0  0  0
 27 42  1  0  0  0  0
 28 43  1  0  0  0  0
M  END
>  <result-rank>
59

>  <similarity>
0.869

>  <query-name>


>  <query-smiles>
S(=O)(=O)(NC(=O)C)c1ccc(cc1)C=2N3C(=NC(=C3)COc4nc5c(cc4)cccc5)C(=NC2)N6CCOCC6

>  <source>
REALspace_2019-12

>  <similarity-descriptor>
0.0;0.981;0.923;0.827;0.902;1.000;0.0;0.0;0.0;0.0;0.923;0.902;0.0

>  <similarity-descriptor-smiles>
;CC1CC(CO1)(F)F;S1C=CN=C1;C1=CNN=N1;c1ccccn1;c1ccccc1;;;;;S1C=CN=C1;c1ccccn1;

>  <reaction-name>
m_274972

>  <reagent1-name>
15150082

>  <reagent1-smiles>
[R1*]SC(=N[R2*])c1nc2c(cc1)cccc2

>  <reagent2-name>
12615770

>  <reagent2-smiles>
[R2*]C(C([R3*])=C[R4*])=C[R1*]

>  <reagent3-name>
14260852

>  <reagent3-smiles>
[R3*]N=NN([R4*])CC1OCC(F)(F)C1

$$$$
m_274860a____17143510____17212876____15233762
          04022017313D 1   1.00000     0.00000     0
            
 56 60  0  0  0  0            999 V2000
   -0.6008   -7.1270   -2.7805 O   0  5  0  0  0  0  0  0  0  0  0  0
    0.3357   -6.3459   -2.7425 N   0  3  0  0  0  0  0  0  0  0  0  0
    1.4350   -6.7014   -3.1020 O   0  0  0  0  0  0  0  0  0  0  0  0
    0.1383   -5.0379   -2.2828 C   0  0  0  0  0  0  0  0  0  0  0  0
    1.2163   -4.1620   -2.2506 C   0  0  0  0  0  0  0  0  0  0  0  0
    1.0368   -2.8555   -1.8093 C   0  0  0  0  0  0  0  0  0  0  0  0
   -0.2190   -2.4485   -1.4016 C   0  0  0  0  0  0  0  0  0  0  0  0
   -1.2987   -3.3233   -1.4246 C   0  0  0  0  0  0  0  0  0  0  0  0
   -1.1257   -4.6309   -1.8700 C   0  0  0  0  0  0  0  0  0  0  0  0
   -0.1398   -0.9953   -0.9910 C   0  0  0  0  0  0  0  0  0  0  0  0
    1.2907   -0.7784   -0.7784 N   0  0  0  0  0  0  0  0  0  0  0  0
    1.8776    0.1224    0.1224 C   0  0  0  0  0  0  0  0  0  0  0  0
    3.0725    0.2003    0.2003 O   0  0  0  0  0  0  0  0  0  0  0  0
    1.0000    1.0000    1.0000 C   0  0  3  0  0  0  0  0  0  0  0  0
    0.1514    1.8486    0.1514 N   0  0  0  0  0  0  0  0  0  0  0  0
    0.5781    2.7246   -0.7246 N   0  0  0  0  0  0  0  0  0  0  0  0
   -0.3824    3.3032   -1.3057 N   0  0  0  0  0  0  0  0  0  0  0  0
   -1.5352    2.7917   -0.7935 C   0  0  0  0  0  0  0  0  0  0  0  0
   -2.8824    3.1731   -1.1784 C   0  0  0  0  0  0  0  0  0  0  0  0
   -3.8047    2.2708   -1.7101 C   0  0  0  0  0  0  0  0  0  0  0  0
   -5.0801    2.7118   -2.0542 C   0  0  0  0  0  0  0  0  0  0  0  0
   -5.3914    4.0531   -1.8526 C   0  0  0  0  0  0  0  0  0  0  0  0
   -4.4883    4.9029   -1.3408 N   0  0  0  0  0  0  0  0  0  0  0  0
   -3.2540    4.5014   -1.0023 C   0  0  0  0  0  0  0  0  0  0  0  0
   -6.0257    1.8409   -2.5852 C   0  0  0  0  0  0  0  0  0  0  0  0
   -5.6899    0.5047   -2.7750 C   0  0  0  0  0  0  0  0  0  0  0  0
   -4.4258    0.0322   -2.4416 C   0  0  0  0  0  0  0  0  0  0  0  0
   -3.5006    0.9257   -1.9134 C   0  0  0  0  0  0  0  0  0  0  0  0
   -1.2066    1.8571    0.1400 C   0  0  0  0  0  0  0  0  0  0  0  0
    1.8776    1.8776    1.8776 C   0  0  0  0  0  0  0  0  0  0  0  0
    1.0577    2.6974    2.6974 O   0  0  0  0  0  0  0  0  0  0  0  0
    1.8776    3.5172    3.5172 C   0  0  0  0  0  0  0  0  0  0  0  0
    1.0000    4.3948    4.3948 C   0  0  0  0  0  0  0  0  0  0  0  0
    1.9915   -1.6890   -1.6890 C   0  0  0  0  0  0  0  0  0  0  0  0
    2.1208   -4.4708   -2.5447 H   0  0  0  0  0  0  0  0  0  0  0  0
   -2.1998   -3.0135   -1.1213 H   0  0  0  0  0  0  0  0  0  0  0  0
   -1.8972   -5.2667   -1.8926 H   0  0  0  0  0  0  0  0  0  0  0  0
   -0.4879   -0.3998   -1.7149 H   0  0  0  0  0  0  0  0  0  0  0  0
   -0.6549   -0.8331   -0.1493 H   0  0  0  0  0  0  0  0  0  0  0  0
    0.4226    0.4226    1.5774 H   0  0  0  0  0  0  0  0  0  0  0  0
   -6.3022    4.3886   -2.0928 H   0  0  0  0  0  0  0  0  0  0  0  0
   -2.6011    5.1573   -0.6233 H   0  0  0  0  0  0  0  0  0  0  0  0
   -6.9375    2.1720   -2.8279 H   0  0  0  0  0  0  0  0  0  0  0  0
   -6.3670   -0.1246   -3.1564 H   0  0  0  0  0  0  0  0  0  0  0  0
   -4.1871   -0.9292   -2.5787 H   0  0  0  0  0  0  0  0  0  0  0  0
   -2.5890    0.5931   -1.6718 H   0  0  0  0  0  0  0  0  0  0  0  0
   -1.8265    1.3011    0.6936 H   0  0  0  0  0  0  0  0  0  0  0  0
    2.4549    1.3002    2.4549 H   0  0  0  0  0  0  0  0  0  0  0  0
    2.4549    2.4549    1.3002 H   0  0  0  0  0  0  0  0  0  0  0  0
    2.4549    4.0946    2.9399 H   0  0  0  0  0  0  0  0  0  0  0  0
    2.4549    2.9399    4.0946 H   0  0  0  0  0  0  0  0  0  0  0  0
    1.5774    4.9722    4.9722 H   0  0  0  0  0  0  0  0  0  0  0  0
    0.4226    4.9722    3.8175 H   0  0  0  0  0  0  0  0  0  0  0  0
    0.4226    3.8175    4.9722 H   0  0  0  0  0  0  0  0  0  0  0  0
    2.8668   -1.9799   -1.3026 H   0  0  0  0  0  0  0  0  0  0  0  0
    2.1463   -1.2587   -2.5783 H   0  0  0  0  0  0  0  0  0  0  0  0
  1  2  1  0  0  0  0
  2  3  2  0  0  0  0
  2  4  1  0  0  0  0
  4  5  1  0  0  0  0
  5  6  2  0  0  0  0
  6  7  1  0  0  0  0
  7  8  2  0  0  0  0
  8  9  1  0  0  0  0
  9  4  2  0  0  0  0
  7 10  1  0  0  0  0
 10 11  1  0  0  0  0
 11 12  1  0  0  0  0
 12 13  2  0  0  0  0
 12 14  1  0  0  0  0
 14 15  1  0  0  0  0
 15 16  1  0  0  0  0
 16 17  2  0  0  0  0
 17 18  1  0  0  0  0
 18 19  1  0  0  0  0
 19 20  1  0  0  0  0
 20 21  2  0  0  0  0
 21 22  1  0  0  0  0
 22 23  2  0  0  0  0
 23 24  1  0  0  0  0
 24 19  2  0  0  0  0
 21 25  1  0  0  0  0
 25 26  2  0  0  0  0
 26 27  1  0  0  0  0
 27 28  2  0  0  0  0
 28 20  1  0  0  0  0
 18 29  2  0  0  0  0
 29 15  1  0  0  0  0
 14 30  1  0  0  0  0
 30 31  1  0  0  0  0
 31 32  1  0  0  0  0
 32 33  1  0  0  0  0
 11 34  1  0  0  0  0
 34  6  1  0  0  0  0
  5 35  1  0  0  0  0
  8 36  1  0  0  0  0
  9 37  1  0  0  0  0
 10 38  1  0  0  0  0
 10 39  1  0  0  0  0
 14 40  1  0  0  0  0
 22 41  1  0  0  0  0
 24 42  1  0  0  0  0
 25 43  1  0  0  0  0
 26 44  1  0  0  0  0
 27 45  1  0  0  0  0
 28 46  1  0  0  0  0
 29 47  1  0  0  0  0
 30 48  1  0  0  0  0
 30 49  1  0  0  0  0
 32 50  1  0  0  0  0
 32 51  1  0  0  0  0
 33 52  1  0  0  0  0
 33 53  1  0  0  0  0
 33 54  1  0  0  0  0
 34 55  1  0  0  0  0
 34 56  1  0  0  0  0
M  CHG  2   1  -1   2   1
M  END
>  <result-rank>
60

>  <similarity>
0.869

>  <query-name>


>  <query-smiles>
S(=O)(=O)(NC(=O)C)c1ccc(cc1)C=2N3C(=NC(=C3)COc4nc5c(cc4)cccc5)C(=NC2)N6CCOCC6

>  <source>
REALspace_2019-12

>  <similarity-descriptor>
0.938;0.842;0.889;0.624;0.999;0.999;0.975;0.0;0.0;0.0;0.889;0.889;0.0

>  <similarity-descriptor-smiles>
c1ccccc1;COCC;N1C=CN=N1;c1CN(Cc1)C(=O)C;c1cnccc1;c1ccccc1;[O-][N+]=O;;;;N1C=CN=N1;N1C=CN=N1;

>  <reaction-name>
m_274860a

>  <reagent1-name>
17143510

>  <reagent1-smiles>
[R3*]N1Cc2c(ccc([N+]([O-])=O)c2)C1

>  <reagent2-name>
17212876

>  <reagent2-smiles>
[R1*]N=NN([R2*])C(C([R3*])=O)COCC

>  <reagent3-name>
15233762

>  <reagent3-smiles>
[R1*]C(c1c2c(cnc1)cccc2)=C[R2*]

$$$$
s_2____11687950____16645038____12433048
          04022017313D 1   1.00000     0.00000     0
            
 60 64  0  0  0  0            999 V2000
   -7.0559   -0.6476    5.8037 Cl  0  0  0  0  0  0  0  0  0  0  0  0
   -5.6236   -1.0425    4.8240 C   0  0  0  0  0  0  0  0  0  0  0  0
   -5.5561   -0.6183    3.5011 C   0  0  0  0  0  0  0  0  0  0  0  0
   -4.4345   -0.9305    2.7404 C   0  0  0  0  0  0  0  0  0  0  0  0
   -3.3955   -1.6602    3.3079 C   0  0  0  0  0  0  0  0  0  0  0  0
   -2.3097   -1.9595    2.5631 O   0  0  0  0  0  0  0  0  0  0  0  0
   -1.2568   -1.1152    2.5346 C   0  0  0  0  0  0  0  0  0  0  0  0
   -0.8473   -0.5537    1.3297 C   0  0  0  0  0  0  0  0  0  0  0  0
    0.2399    0.3140    1.3103 C   0  0  0  0  0  0  0  0  0  0  0  0
    0.9034    0.6099    2.4960 C   0  0  0  0  0  0  0  0  0  0  0  0
    0.4940    0.0492    3.7015 C   0  0  0  0  0  0  0  0  0  0  0  0
   -0.5928   -0.8187    3.7205 C   0  0  0  0  0  0  0  0  0  0  0  0
    2.0334    1.5154    2.4653 C   0  0  0  0  0  0  0  0  0  0  0  0
    3.3388    1.1121    2.4746 N   0  0  0  0  0  0  0  0  0  0  0  0
    4.2406    2.1295    2.4468 C   0  0  0  0  0  0  0  0  0  0  0  0
    3.3299    3.5681    2.4036 S   0  0  0  0  0  0  0  0  0  0  0  0
    1.7813    2.8529    2.4247 C   0  0  0  0  0  0  0  0  0  0  0  0
    5.5094    2.0301    2.4537 N   0  0  0  0  0  0  0  0  0  0  0  0
    6.2951    3.1226    2.8406 C   0  0  0  0  0  0  0  0  0  0  0  0
    6.6430    3.2756    4.1785 C   0  0  0  0  0  0  0  0  0  0  0  0
    7.4230    4.3582    4.5705 C   0  0  0  0  0  0  0  0  0  0  0  0
    7.8467    5.2761    3.6152 C   0  0  0  0  0  0  0  0  0  0  0  0
    8.8234    6.6324    4.0978 S   0  0  0  0  0  0  0  0  0  0  0  0
    8.0202    7.5568    4.8555 O   0  0  0  0  0  0  0  0  0  0  0  0
    9.9187    6.1702    4.9104 O   0  0  0  0  0  0  0  0  0  0  0  0
    9.4078    7.3800    2.7725 N   0  0  0  0  0  0  0  0  0  0  0  0
    7.5026    5.1284    2.2758 C   0  0  0  0  0  0  0  0  0  0  0  0
    6.7221    4.0437    1.8906 C   0  0  0  0  0  0  0  0  0  0  0  0
    3.7809   -0.2906    2.5193 C   0  0  3  0  0  0  0  0  0  0  0  0
    4.1325   -0.8207    1.1397 C   0  0  0  0  0  0  0  0  0  0  0  0
    3.1162   -0.6567    0.2979 F   0  0  0  0  0  0  0  0  0  0  0  0
    5.2010   -0.2239    0.6156 F   0  0  0  0  0  0  0  0  0  0  0  0
    4.3331   -2.3159    1.3260 C   0  0  0  0  0  0  0  0  0  0  0  0
    5.0627   -2.6205    2.6295 C   0  0  0  0  0  0  0  0  0  0  0  0
    5.7936   -1.5213    3.1683 O   0  0  0  0  0  0  0  0  0  0  0  0
    4.9771   -0.3940    3.4574 C   0  0  0  0  0  0  0  0  0  0  0  0
   -3.4693   -2.0815    4.6309 C   0  0  0  0  0  0  0  0  0  0  0  0
   -4.5881   -1.7730    5.3971 C   0  0  0  0  0  0  0  0  0  0  0  0
   -6.3072   -0.0935    3.1006 H   0  0  0  0  0  0  0  0  0  0  0  0
   -4.3753   -0.6311    1.7881 H   0  0  0  0  0  0  0  0  0  0  0  0
   -1.3315   -0.7725    0.4825 H   0  0  0  0  0  0  0  0  0  0  0  0
    0.5424    0.7224    0.4491 H   0  0  0  0  0  0  0  0  0  0  0  0
    0.9778    0.2686    4.5487 H   0  0  0  0  0  0  0  0  0  0  0  0
   -0.8951   -1.2271    4.5818 H   0  0  0  0  0  0  0  0  0  0  0  0
    0.8925    3.3109    2.4105 H   0  0  0  0  0  0  0  0  0  0  0  0
    6.3332    2.6091    4.8566 H   0  0  0  0  0  0  0  0  0  0  0  0
    7.6771    4.4756    5.5305 H   0  0  0  0  0  0  0  0  0  0  0  0
    9.9655    6.7381    2.2463 H   0  0  0  0  0  0  0  0  0  0  0  0
    8.6471    7.7010    2.2082 H   0  0  0  0  0  0  0  0  0  0  0  0
    7.8128    5.7945    1.5975 H   0  0  0  0  0  0  0  0  0  0  0  0
    6.4680    3.9262    0.9306 H   0  0  0  0  0  0  0  0  0  0  0  0
    3.0371   -0.8455    2.8919 H   0  0  0  0  0  0  0  0  0  0  0  0
    4.8715   -2.6698    0.5612 H   0  0  0  0  0  0  0  0  0  0  0  0
    3.4396   -2.7648    1.3405 H   0  0  0  0  0  0  0  0  0  0  0  0
    4.3854   -2.9074    3.3070 H   0  0  0  0  0  0  0  0  0  0  0  0
    5.7037   -3.3694    2.4612 H   0  0  0  0  0  0  0  0  0  0  0  0
    5.5294    0.4347    3.3669 H   0  0  0  0  0  0  0  0  0  0  0  0
    4.6433   -0.4712    4.3969 H   0  0  0  0  0  0  0  0  0  0  0  0
   -2.7182   -2.6063    5.0313 H   0  0  0  0  0  0  0  0  0  0  0  0
   -4.6474   -2.0729    6.3492 H   0  0  0  0  0  0  0  0  0  0  0  0
  1  2  1  0  0  0  0
  2  3  1  0  0  0  0
  3  4  2  0  0  0  0
  4  5  1  0  0  0  0
  5  6  1  0  0  0  0
  6  7  1  0  0  0  0
  7  8  1  0  0  0  0
  8  9  2  0  0  0  0
  9 10  1  0  0  0  0
 10 11  2  0  0  0  0
 11 12  1  0  0  0  0
 12  7  2  0  0  0  0
 10 13  1  0  0  0  0
 13 14  1  0  0  0  0
 14 15  1  0  0  0  0
 15 16  1  0  0  0  0
 16 17  1  0  0  0  0
 13 17  2  0  0  0  0
 15 18  2  0  0  0  0
 18 19  1  0  0  0  0
 19 20  1  0  0  0  0
 20 21  2  0  0  0  0
 21 22  1  0  0  0  0
 22 23  1  0  0  0  0
 23 24  2  0  0  0  0
 23 25  2  0  0  0  0
 23 26  1  0  0  0  0
 22 27  2  0  0  0  0
 27 28  1  0  0  0  0
 28 19  2  0  0  0  0
 14 29  1  0  0  0  0
 29 30  1  0  0  0  0
 30 31  1  0  0  0  0
 30 32  1  0  0  0  0
 30 33  1  0  0  0  0
 33 34  1  0  0  0  0
 34 35  1  0  0  0  0
 35 36  1  0  0  0  0
 36 29  1  0  0  0  0
  5 37  2  0  0  0  0
 37 38  1  0  0  0  0
 38  2  2  0  0  0  0
  3 39  1  0  0  0  0
  4 40  1  0  0  0  0
  8 41  1  0  0  0  0
  9 42  1  0  0  0  0
 11 43  1  0  0  0  0
 12 44  1  0  0  0  0
 17 45  1  0  0  0  0
 20 46  1  0  0  0  0
 21 47  1  0  0  0  0
 26 48  1  0  0  0  0
 26 49  1  0  0  0  0
 27 50  1  0  0  0  0
 28 51  1  0  0  0  0
 29 52  1  0  0  0  0
 33 53  1  0  0  0  0
 33 54  1  0  0  0  0
 34 55  1  0  0  0  0
 34 56  1  0  0  0  0
 36 57  1  0  0  0  0
 36 58  1  0  0  0  0
 37 59  1  0  0  0  0
 38 60  1  0  0  0  0
M  END
>  <result-rank>
61

>  <similarity>
0.868

>  <query-name>


>  <query-smiles>
S(=O)(=O)(NC(=O)C)c1ccc(cc1)C=2N3C(=NC(=C3)COc4nc5c(cc4)cccc5)C(=NC2)N6CCOCC6

>  <source>
REALspace_2019-12

>  <similarity-descriptor>
0.998;0.981;0.603;0.960;0.603;0.939;1.000;0.588;0.0;0.0;0.603;0.603;0.0

>  <similarity-descriptor-smiles>
c1ccccc1;C1COCCC1(F)F;c1ccccc1;C1=CSC(N1)=N;c1ccccc1;Clc1ccc(cc1)O;S(=O)=O;N;;;c1ccccc1;c1ccccc1;

>  <reaction-name>
s_2

>  <reagent1-name>
11687950

>  <reagent1-smiles>
[R1*]SC([R3*])=Nc1ccc(S(=O)(=O)N)cc1

>  <reagent2-name>
16645038

>  <reagent2-smiles>
[R2*]N([R3*])C1C(F)(F)CCOC1

>  <reagent3-name>
12433048

>  <reagent3-smiles>
[R2*]C(c1ccc(Oc2ccc(Cl)cc2)cc1)=C[R1*]

$$$$
s_22____3082040____138716
          04022017313D 1   1.00000     0.00000     0
            
 69 74  0  0  0  0            999 V2000
   -2.0761   -1.5841    0.4743 S   0  0  0  0  0  0  0  0  0  0  0  0
   -3.5209   -0.7579    0.1134 C   0  0  0  0  0  0  0  0  0  0  0  0
   -4.7651   -1.3601   -0.1572 N   0  0  0  0  0  0  0  0  0  0  0  0
   -5.0838   -2.7386    0.2461 C   0  0  0  0  0  0  0  0  0  0  0  0
   -6.1130   -3.3099   -0.7150 C   0  0  0  0  0  0  0  0  0  0  0  0
   -7.3492   -2.6014   -0.6891 O   0  0  0  0  0  0  0  0  0  0  0  0
   -7.1966   -1.2132   -0.4112 C   0  0  0  0  0  0  0  0  0  0  0  0
   -5.8508   -0.6663   -0.8637 C   0  0  0  0  0  0  0  0  0  0  0  0
   -3.2472    0.5768    0.1344 C   0  0  0  0  0  0  0  0  0  0  0  0
   -4.2663    1.5734   -0.1332 C   0  0  0  0  0  0  0  0  0  0  0  0
   -5.2854    1.7821    0.7903 C   0  0  0  0  0  0  0  0  0  0  0  0
   -6.2614    2.7384    0.5292 C   0  0  0  0  0  0  0  0  0  0  0  0
   -6.2128    3.4785   -0.6475 C   0  0  0  0  0  0  0  0  0  0  0  0
   -5.1899    3.2618   -1.5625 C   0  0  0  0  0  0  0  0  0  0  0  0
   -4.2084    2.3080   -1.3134 C   0  0  0  0  0  0  0  0  0  0  0  0
   -1.8945    0.8787    0.4383 C   0  0  0  0  0  0  0  0  0  0  0  0
   -1.0990   -0.2033    0.6582 C   0  0  0  0  0  0  0  0  0  0  0  0
    0.3150   -0.1863    0.9837 C   0  0  0  0  0  0  0  0  0  0  0  0
    0.8843   -1.2115    1.2387 O   0  0  0  0  0  0  0  0  0  0  0  0
    1.0000    1.0000    1.0000 N   0  0  0  0  0  0  0  0  0  0  0  0
    2.3997    1.0000    1.0000 C   0  0  0  0  0  0  0  0  0  0  0  0
    3.0784    2.1346    1.4306 C   0  0  0  0  0  0  0  0  0  0  0  0
    4.4691    2.1247    1.4280 C   0  0  0  0  0  0  0  0  0  0  0  0
    5.1464    3.2152    1.8422 O   0  0  0  0  0  0  0  0  0  0  0  0
    4.4561    4.4344    2.0731 C   0  0  0  0  0  0  0  0  0  0  0  0
    5.4436    5.4976    2.5294 C   0  0  0  0  0  0  0  0  0  0  0  0
    6.0826    6.3019    1.6634 N   0  0  0  0  0  0  0  0  0  0  0  0
    6.9557    7.2419    2.0623 C   0  0  0  0  0  0  0  0  0  0  0  0
    7.2267    7.4109    3.4169 C   0  0  0  0  0  0  0  0  0  0  0  0
    6.5843    6.5972    4.3437 C   0  0  0  0  0  0  0  0  0  0  0  0
    5.6876    5.6349    3.8920 C   0  0  0  0  0  0  0  0  0  0  0  0
    8.1240    8.3744    3.8653 C   0  0  0  0  0  0  0  0  0  0  0  0
    8.7655    9.1888    2.9379 C   0  0  0  0  0  0  0  0  0  0  0  0
    8.5066    9.0346    1.5801 C   0  0  0  0  0  0  0  0  0  0  0  0
    7.6061    8.0657    1.1491 C   0  0  0  0  0  0  0  0  0  0  0  0
    5.1658    0.9995    1.0017 C   0  0  0  0  0  0  0  0  0  0  0  0
    6.5147    1.0036    1.0040 O   0  0  0  0  0  0  0  0  0  0  0  0
    7.2290   -0.2235    0.9879 C   0  0  0  0  0  0  0  0  0  0  0  0
    4.4740   -0.1291    0.5727 C   0  0  0  0  0  0  0  0  0  0  0  0
    3.0827   -0.1335    0.5706 C   0  0  0  0  0  0  0  0  0  0  0  0
   -5.4554   -2.7389    1.1744 H   0  0  0  0  0  0  0  0  0  0  0  0
   -4.2540   -3.2962    0.2190 H   0  0  0  0  0  0  0  0  0  0  0  0
   -5.7410   -3.2688   -1.6423 H   0  0  0  0  0  0  0  0  0  0  0  0
   -6.2863   -4.2631   -0.4673 H   0  0  0  0  0  0  0  0  0  0  0  0
   -7.2832   -1.0733    0.5752 H   0  0  0  0  0  0  0  0  0  0  0  0
   -7.9209   -0.7111   -0.8839 H   0  0  0  0  0  0  0  0  0  0  0  0
   -5.7494   -0.8084   -1.8483 H   0  0  0  0  0  0  0  0  0  0  0  0
   -5.8056    0.3120   -0.6616 H   0  0  0  0  0  0  0  0  0  0  0  0
   -5.3162    1.2487    1.6355 H   0  0  0  0  0  0  0  0  0  0  0  0
   -6.9979    2.8938    1.1875 H   0  0  0  0  0  0  0  0  0  0  0  0
   -6.9140    4.1663   -0.8349 H   0  0  0  0  0  0  0  0  0  0  0  0
   -5.1590    3.7960   -2.4073 H   0  0  0  0  0  0  0  0  0  0  0  0
   -3.4725    2.1527   -1.9724 H   0  0  0  0  0  0  0  0  0  0  0  0
   -1.5513    1.8166    0.4872 H   0  0  0  0  0  0  0  0  0  0  0  0
    0.5000    1.8659    1.0119 H   0  0  0  0  0  0  0  0  0  0  0  0
    2.5756    2.9430    1.7367 H   0  0  0  0  0  0  0  0  0  0  0  0
    3.7638    4.2965    2.7814 H   0  0  0  0  0  0  0  0  0  0  0  0
    4.0131    4.7320    1.2274 H   0  0  0  0  0  0  0  0  0  0  0  0
    6.7647    6.7026    5.3216 H   0  0  0  0  0  0  0  0  0  0  0  0
    5.2184    5.0420    4.5464 H   0  0  0  0  0  0  0  0  0  0  0  0
    8.3058    8.4804    4.8429 H   0  0  0  0  0  0  0  0  0  0  0  0
    9.4129    9.8853    3.2475 H   0  0  0  0  0  0  0  0  0  0  0  0
    8.9678    9.6203    0.9136 H   0  0  0  0  0  0  0  0  0  0  0  0
    7.4242    7.9601    0.1715 H   0  0  0  0  0  0  0  0  0  0  0  0
    8.2115   -0.0374    0.9922 H   0  0  0  0  0  0  0  0  0  0  0  0
    6.9879   -0.7602    1.7965 H   0  0  0  0  0  0  0  0  0  0  0  0
    6.9906   -0.7372    0.1637 H   0  0  0  0  0  0  0  0  0  0  0  0
    4.9769   -0.9371    0.2658 H   0  0  0  0  0  0  0  0  0  0  0  0
    2.5797   -0.9416    0.2641 H   0  0  0  0  0  0  0  0  0  0  0  0
  1  2  1  0  0  0  0
  2  3  1  0  0  0  0
  3  4  1  0  0  0  0
  4  5  1  0  0  0  0
  5  6  1  0  0  0  0
  6  7  1  0  0  0  0
  7  8  1  0  0  0  0
  8  3  1  0  0  0  0
  2  9  2  0  0  0  0
  9 10  1  0  0  0  0
 10 11  1  0  0  0  0
 11 12  2  0  0  0  0
 12 13  1  0  0  0  0
 13 14  2  0  0  0  0
 14 15  1  0  0  0  0
 15 10  2  0  0  0  0
  9 16  1  0  0  0  0
 16 17  2  0  0  0  0
 17  1  1  0  0  0  0
 17 18  1  0  0  0  0
 18 19  2  0  0  0  0
 18 20  1  0  0  0  0
 20 21  1  0  0  0  0
 21 22  1  0  0  0  0
 22 23  2  0  0  0  0
 23 24  1  0  0  0  0
 24 25  1  0  0  0  0
 25 26  1  0  0  0  0
 26 27  1  0  0  0  0
 27 28  2  0  0  0  0
 28 29  1  0  0  0  0
 29 30  2  0  0  0  0
 30 31  1  0  0  0  0
 31 26  2  0  0  0  0
 29 32  1  0  0  0  0
 32 33  2  0  0  0  0
 33 34  1  0  0  0  0
 34 35  2  0  0  0  0
 35 28  1  0  0  0  0
 23 36  1  0  0  0  0
 36 37  1  0  0  0  0
 37 38  1  0  0  0  0
 36 39  2  0  0  0  0
 39 40  1  0  0  0  0
 40 21  2  0  0  0  0
  4 41  1  0  0  0  0
  4 42  1  0  0  0  0
  5 43  1  0  0  0  0
  5 44  1  0  0  0  0
  7 45  1  0  0  0  0
  7 46  1  0  0  0  0
  8 47  1  0  0  0  0
  8 48  1  0  0  0  0
 11 49  1  0  0  0  0
 12 50  1  0  0  0  0
 13 51  1  0  0  0  0
 14 52  1  0  0  0  0
 15 53  1  0  0  0  0
 16 54  1  0  0  0  0
 20 55  1  0  0  0  0
 22 56  1  0  0  0  0
 25 57  1  0  0  0  0
 25 58  1  0  0  0  0
 30 59  1  0  0  0  0
 31 60  1  0  0  0  0
 32 61  1  0  0  0  0
 33 62  1  0  0  0  0
 34 63  1  0  0  0  0
 35 64  1  0  0  0  0
 38 65  1  0  0  0  0
 38 66  1  0  0  0  0
 38 67  1  0  0  0  0
 39 68  1  0  0  0  0
 40 69  1  0  0  0  0
M  END
>  <result-rank>
62

>  <similarity>
0.868

>  <query-name>


>  <query-smiles>
S(=O)(=O)(NC(=O)C)c1ccc(cc1)C=2N3C(=NC(=C3)COc4nc5c(cc4)cccc5)C(=NC2)N6CCOCC6

>  <source>
REALspace_2019-12

>  <similarity-descriptor>
0.959;1.000;0.745;0.687;0.997;1.000;0.0;0.0;0.0;0.0;1.000;1.000;0.083

>  <similarity-descriptor-smiles>
c1ccccc1;N1CCOCC1;c1ccc(cc1)O;S1C(=CC=C1)C(=O)N;c1ccccn1;c1ccccc1;;;;;OC;OC;C

>  <reaction-name>
s_22

>  <reagent1-name>
3082040

>  <reagent1-smiles>
[R1*]Nc1cc(OCc2nc3c(cc2)cccc3)c(OC)cc1

>  <reagent2-name>
138716

>  <reagent2-smiles>
[R1*]C(=O)C=1SC(N2CCOCC2)=C(c3ccccc3)C1

$$$$
m_271722____10195368____10188368
          04022017313D 1   1.00000     0.00000     0
            
 54 59  0  0  0  0            999 V2000
   -3.2223    0.4223    0.3529 O   0  0  0  0  0  0  0  0  0  0  0  0
   -3.2390    0.4197    1.6317 N   0  0  0  0  0  0  0  0  0  0  0  0
   -2.0395    0.2029    2.1192 C   0  0  0  0  0  0  0  0  0  0  0  0
   -1.2059    0.0483    0.9983 C   0  0  0  0  0  0  0  0  0  0  0  0
   -2.0072    0.1992   -0.0856 C   0  0  0  0  0  0  0  0  0  0  0  0
   -1.5768    0.1248   -1.5419 C   0  0  0  0  0  0  0  0  0  0  0  0
    0.2900   -0.2298    0.9978 C   0  0  0  0  0  0  0  0  0  0  0  0
    1.0000    1.0000    1.0000 O   0  0  0  0  0  0  0  0  0  0  0  0
    2.3502    1.0000    1.0000 C   0  0  0  0  0  0  0  0  0  0  0  0
    3.0689    2.1920    1.0022 C   0  0  0  0  0  0  0  0  0  0  0  0
    4.4599    2.1729    1.0021 C   0  0  0  0  0  0  0  0  0  0  0  0
    5.1245    0.9508    1.0005 C   0  0  0  0  0  0  0  0  0  0  0  0
    4.4055   -0.2403    0.9983 C   0  0  0  0  0  0  0  0  0  0  0  0
    3.0143   -0.2227    0.9978 C   0  0  0  0  0  0  0  0  0  0  0  0
    5.0684   -1.4634    0.9960 C   0  0  0  0  0  0  0  0  0  0  0  0
    6.4590   -1.4852    0.9962 C   0  0  0  0  0  0  0  0  0  0  0  0
    7.1735   -0.2918    0.9983 C   0  0  0  0  0  0  0  0  0  0  0  0
    6.5155    0.9338    1.0003 C   0  0  0  0  0  0  0  0  0  0  0  0
    2.3946    3.4755    1.0044 C   0  0  0  0  0  0  0  0  0  0  0  0
    2.9821    4.6484    1.0065 O   0  0  0  0  0  0  0  0  0  0  0  0
    2.0306    5.5525    1.0073 C   0  0  0  0  0  0  0  0  0  0  0  0
    0.8660    4.9483    1.0054 N   0  0  0  0  0  0  0  0  0  0  0  0
    1.0935    3.6541    1.0027 N   0  0  0  0  0  0  0  0  0  0  0  0
    2.2332    6.9898    1.0114 C   0  0  0  0  0  0  0  0  0  0  0  0
    1.2043    7.8534    1.0120 N   0  0  0  0  0  0  0  0  0  0  0  0
    1.3817    9.1851    1.0159 C   0  0  0  0  0  0  0  0  0  0  0  0
    2.6693    9.7150    1.0197 C   0  0  0  0  0  0  0  0  0  0  0  0
    3.7531    8.8431    1.0192 C   0  0  0  0  0  0  0  0  0  0  0  0
    3.5398    7.4680    1.0147 C   0  0  0  0  0  0  0  0  0  0  0  0
    2.8865   11.0889    1.0241 C   0  0  0  0  0  0  0  0  0  0  0  0
    1.7896   11.9441    1.0242 C   0  0  0  0  0  0  0  0  0  0  0  0
    0.4932   11.4404    1.0207 C   0  0  0  0  0  0  0  0  0  0  0  0
    0.3018   10.0625    1.0164 C   0  0  0  0  0  0  0  0  0  0  0  0
   -1.6363    0.1235    3.5837 C   0  0  0  0  0  0  0  0  0  0  0  0
   -0.5946   -0.0567   -1.5903 H   0  0  0  0  0  0  0  0  0  0  0  0
   -2.0748   -0.6119   -1.9995 H   0  0  0  0  0  0  0  0  0  0  0  0
   -1.7779    0.9939   -1.9937 H   0  0  0  0  0  0  0  0  0  0  0  0
    0.5316   -0.7556    1.8133 H   0  0  0  0  0  0  0  0  0  0  0  0
    0.5316   -0.7527    0.1803 H   0  0  0  0  0  0  0  0  0  0  0  0
    4.9768    3.0289    1.0032 H   0  0  0  0  0  0  0  0  0  0  0  0
    2.4977   -1.0789    0.9959 H   0  0  0  0  0  0  0  0  0  0  0  0
    4.5500   -2.3185    0.9941 H   0  0  0  0  0  0  0  0  0  0  0  0
    6.9452   -2.3590    0.9948 H   0  0  0  0  0  0  0  0  0  0  0  0
    8.1732   -0.3151    0.9983 H   0  0  0  0  0  0  0  0  0  0  0  0
    7.0341    1.7888    1.0017 H   0  0  0  0  0  0  0  0  0  0  0  0
    4.6856    9.2044    1.0221 H   0  0  0  0  0  0  0  0  0  0  0  0
    4.3130    6.8338    1.0139 H   0  0  0  0  0  0  0  0  0  0  0  0
    3.8167   11.4560    1.0272 H   0  0  0  0  0  0  0  0  0  0  0  0
    1.9349   12.9335    1.0269 H   0  0  0  0  0  0  0  0  0  0  0  0
   -0.2911   12.0607    1.0212 H   0  0  0  0  0  0  0  0  0  0  0  0
   -0.6286    9.6961    1.0136 H   0  0  0  0  0  0  0  0  0  0  0  0
   -0.6541   -0.0524    3.6500 H   0  0  0  0  0  0  0  0  0  0  0  0
   -1.8511    0.9892    4.0360 H   0  0  0  0  0  0  0  0  0  0  0  0
   -2.1385   -0.6183    4.0280 H   0  0  0  0  0  0  0  0  0  0  0  0
  1  2  1  0  0  0  0
  2  3  2  0  0  0  0
  3  4  1  0  0  0  0
  4  5  2  0  0  0  0
  5  1  1  0  0  0  0
  5  6  1  0  0  0  0
  4  7  1  0  0  0  0
  7  8  1  0  0  0  0
  8  9  1  0  0  0  0
  9 10  1  0  0  0  0
 10 11  2  0  0  0  0
 11 12  1  0  0  0  0
 12 13  2  0  0  0  0
 13 14  1  0  0  0  0
 14  9  2  0  0  0  0
 13 15  1  0  0  0  0
 15 16  2  0  0  0  0
 16 17  1  0  0  0  0
 17 18  2  0  0  0  0
 18 12  1  0  0  0  0
 10 19  1  0  0  0  0
 19 20  1  0  0  0  0
 20 21  1  0  0  0  0
 21 22  2  0  0  0  0
 22 23  1  0  0  0  0
 19 23  2  0  0  0  0
 21 24  1  0  0  0  0
 24 25  1  0  0  0  0
 25 26  2  0  0  0  0
 26 27  1  0  0  0  0
 27 28  2  0  0  0  0
 28 29  1  0  0  0  0
 29 24  2  0  0  0  0
 27 30  1  0  0  0  0
 30 31  2  0  0  0  0
 31 32  1  0  0  0  0
 32 33  2  0  0  0  0
 33 26  1  0  0  0  0
  3 34  1  0  0  0  0
  6 35  1  0  0  0  0
  6 36  1  0  0  0  0
  6 37  1  0  0  0  0
  7 38  1  0  0  0  0
  7 39  1  0  0  0  0
 11 40  1  0  0  0  0
 14 41  1  0  0  0  0
 15 42  1  0  0  0  0
 16 43  1  0  0  0  0
 17 44  1  0  0  0  0
 18 45  1  0  0  0  0
 28 46  1  0  0  0  0
 29 47  1  0  0  0  0
 30 48  1  0  0  0  0
 31 49  1  0  0  0  0
 32 50  1  0  0  0  0
 33 51  1  0  0  0  0
 34 52  1  0  0  0  0
 34 53  1  0  0  0  0
 34 54  1  0  0  0  0
M  END
>  <result-rank>
63

>  <similarity>
0.868

>  <query-name>


>  <query-smiles>
S(=O)(=O)(NC(=O)C)c1ccc(cc1)C=2N3C(=NC(=C3)COc4nc5c(cc4)cccc5)C(=NC2)N6CCOCC6

>  <source>
REALspace_2019-12

>  <similarity-descriptor>
0.982;0.794;0.771;0.874;0.997;1.000;0.0;0.0;0.0;0.0;0.771;0.771;0.0

>  <similarity-descriptor-smiles>
c1ccccc1;O1C(=C(C(=N1)C)C)C;C1=NN=CO1;Oc1ccccc1;c1ccccn1;c1ccccc1;;;;;C1=NN=CO1;C1=NN=CO1;

>  <reaction-name>
m_271722

>  <reagent1-name>
10195368

>  <reagent1-smiles>
[R1*]=NN=C(O[R2*])c1nc2c(cc1)cccc2

>  <reagent2-name>
10188368

>  <reagent2-smiles>
[R1*]C([R2*])c1c(OCC2=C(ON=C2C)C)cc3c(c1)cccc3

$$$$
m_274860b____15234900____17181660____15233636
          04022017313D 1   1.00000     0.00000     0
            
 57 61  0  0  0  0            999 V2000
    5.2767   -1.9319    0.5726 S   0  0  0  0  0  0  0  0  0  0  0  0
    5.9875   -2.2264   -0.9459 C   0  0  0  0  0  0  0  0  0  0  0  0
    5.1578   -1.8002   -1.8673 N   0  0  0  0  0  0  0  0  0  0  0  0
    3.9874   -1.2661   -1.3975 C   0  0  0  0  0  0  0  0  0  0  0  0
    2.9412   -0.7508   -2.2596 C   0  0  0  0  0  0  0  0  0  0  0  0
    3.0709    0.5162   -2.8189 C   0  0  0  0  0  0  0  0  0  0  0  0
    2.0646    1.0070   -3.6445 C   0  0  0  0  0  0  0  0  0  0  0  0
    0.9398    0.2317   -3.9064 C   0  0  0  0  0  0  0  0  0  0  0  0
    0.8212   -1.0326   -3.3425 C   0  0  0  0  0  0  0  0  0  0  0  0
    1.8203   -1.5344   -2.5148 C   0  0  0  0  0  0  0  0  0  0  0  0
    3.8494   -1.2407   -0.0455 C   0  0  0  0  0  0  0  0  0  0  0  0
    2.7286   -0.7286    0.7245 C   0  0  0  0  0  0  0  0  0  0  0  0
    2.5736   -1.0763    1.8626 O   0  0  0  0  0  0  0  0  0  0  0  0
    1.8487    0.1513    0.1513 N   0  0  0  0  0  0  0  0  0  0  0  0
    1.0000    1.0000    1.0000 C   0  0  0  0  0  0  0  0  0  0  0  0
    1.8776    1.8776    1.8776 C   0  0  0  0  0  0  0  0  0  0  0  0
    1.0289    2.7262    2.7262 N   0  0  0  0  0  0  0  0  0  0  0  0
    0.5872    2.4158    3.9201 N   0  0  0  0  0  0  0  0  0  0  0  0
   -0.1181    3.3431    4.4078 N   0  0  0  0  0  0  0  0  0  0  0  0
   -0.1615    4.3470    3.4895 C   0  0  0  0  0  0  0  0  0  0  0  0
   -0.8630    5.6074    3.6382 C   0  0  0  0  0  0  0  0  0  0  0  0
   -1.5702    5.8582    4.8095 C   0  0  0  0  0  0  0  0  0  0  0  0
   -2.2483    7.0626    4.9682 C   0  0  0  0  0  0  0  0  0  0  0  0
   -2.2091    8.0030    3.9446 C   0  0  0  0  0  0  0  0  0  0  0  0
   -2.8530    9.1581    4.0837 F   0  0  0  0  0  0  0  0  0  0  0  0
   -1.5026    7.7522    2.7735 C   0  0  0  0  0  0  0  0  0  0  0  0
   -0.8244    6.5486    2.6143 C   0  0  0  0  0  0  0  0  0  0  0  0
    0.5713    3.9646    2.4081 C   0  0  0  0  0  0  0  0  0  0  0  0
    7.2397   -2.8184   -1.1464 N   0  0  0  0  0  0  0  0  0  0  0  0
    7.8473   -3.5999   -0.0580 C   0  0  0  0  0  0  0  0  0  0  0  0
    8.6784   -4.7480   -0.6097 C   0  0  0  0  0  0  0  0  0  0  0  0
    9.5150   -4.3191   -1.6763 O   0  0  0  0  0  0  0  0  0  0  0  0
    8.7361   -3.8932   -2.7866 C   0  0  0  0  0  0  0  0  0  0  0  0
    7.9060   -2.6642   -2.4486 C   0  0  0  0  0  0  0  0  0  0  0  0
    3.8815    1.0701   -2.6290 H   0  0  0  0  0  0  0  0  0  0  0  0
    2.1498    1.9172   -4.0497 H   0  0  0  0  0  0  0  0  0  0  0  0
    0.2167    0.5843   -4.5003 H   0  0  0  0  0  0  0  0  0  0  0  0
    0.0108   -1.5865   -3.5334 H   0  0  0  0  0  0  0  0  0  0  0  0
    1.7341   -2.4445   -2.1095 H   0  0  0  0  0  0  0  0  0  0  0  0
    1.7838    0.2162   -0.8445 H   0  0  0  0  0  0  0  0  0  0  0  0
    0.4226    0.4226    1.5774 H   0  0  0  0  0  0  0  0  0  0  0  0
    0.4226    1.5774    0.4226 H   0  0  0  0  0  0  0  0  0  0  0  0
    2.4549    1.3002    2.4549 H   0  0  0  0  0  0  0  0  0  0  0  0
    2.4549    2.4549    1.3002 H   0  0  0  0  0  0  0  0  0  0  0  0
   -1.5911    5.1729    5.5374 H   0  0  0  0  0  0  0  0  0  0  0  0
   -2.7577    7.2497    5.8081 H   0  0  0  0  0  0  0  0  0  0  0  0
   -1.4821    8.4376    2.0455 H   0  0  0  0  0  0  0  0  0  0  0  0
   -0.3153    6.3619    1.7741 H   0  0  0  0  0  0  0  0  0  0  0  0
    0.7359    4.4803    1.5673 H   0  0  0  0  0  0  0  0  0  0  0  0
    7.1224   -3.9705    0.5227 H   0  0  0  0  0  0  0  0  0  0  0  0
    8.4362   -3.0014    0.4851 H   0  0  0  0  0  0  0  0  0  0  0  0
    9.2497   -5.1173    0.1233 H   0  0  0  0  0  0  0  0  0  0  0  0
    8.0641   -5.4621   -0.9453 H   0  0  0  0  0  0  0  0  0  0  0  0
    8.1225   -4.6352   -3.0566 H   0  0  0  0  0  0  0  0  0  0  0  0
    9.3475   -3.6729   -3.5467 H   0  0  0  0  0  0  0  0  0  0  0  0
    8.5049   -1.8640   -2.4165 H   0  0  0  0  0  0  0  0  0  0  0  0
    7.2125   -2.5333   -3.1570 H   0  0  0  0  0  0  0  0  0  0  0  0
  1  2  1  0  0  0  0
  2  3  2  0  0  0  0
  3  4  1  0  0  0  0
  4  5  1  0  0  0  0
  5  6  1  0  0  0  0
  6  7  2  0  0  0  0
  7  8  1  0  0  0  0
  8  9  2  0  0  0  0
  9 10  1  0  0  0  0
 10  5  2  0  0  0  0
  4 11  2  0  0  0  0
 11  1  1  0  0  0  0
 11 12  1  0  0  0  0
 12 13  2  0  0  0  0
 12 14  1  0  0  0  0
 14 15  1  0  0  0  0
 15 16  1  0  0  0  0
 16 17  1  0  0  0  0
 17 18  1  0  0  0  0
 18 19  2  0  0  0  0
 19 20  1  0  0  0  0
 20 21  1  0  0  0  0
 21 22  1  0  0  0  0
 22 23  2  0  0  0  0
 23 24  1  0  0  0  0
 24 25  1  0  0  0  0
 24 26  2  0  0  0  0
 26 27  1  0  0  0  0
 27 21  2  0  0  0  0
 20 28  2  0  0  0  0
 28 17  1  0  0  0  0
  2 29  1  0  0  0  0
 29 30  1  0  0  0  0
 30 31  1  0  0  0  0
 31 32  1  0  0  0  0
 32 33  1  0  0  0  0
 33 34  1  0  0  0  0
 34 29  1  0  0  0  0
  6 35  1  0  0  0  0
  7 36  1  0  0  0  0
  8 37  1  0  0  0  0
  9 38  1  0  0  0  0
 10 39  1  0  0  0  0
 14 40  1  0  0  0  0
 15 41  1  0  0  0  0
 15 42  1  0  0  0  0
 16 43  1  0  0  0  0
 16 44  1  0  0  0  0
 22 45  1  0  0  0  0
 23 46  1  0  0  0  0
 26 47  1  0  0  0  0
 27 48  1  0  0  0  0
 28 49  1  0  0  0  0
 30 50  1  0  0  0  0
 30 51  1  0  0  0  0
 31 52  1  0  0  0  0
 31 53  1  0  0  0  0
 33 54  1  0  0  0  0
 33 55  1  0  0  0  0
 34 56  1  0  0  0  0
 34 57  1  0  0  0  0
M  END
>  <result-rank>
64

>  <similarity>
0.868

>  <query-name>


>  <query-smiles>
S(=O)(=O)(NC(=O)C)c1ccc(cc1)C=2N3C(=NC(=C3)COc4nc5c(cc4)cccc5)C(=NC2)N6CCOCC6

>  <source>
REALspace_2019-12

>  <similarity-descriptor>
0.959;1.000;0.497;0.957;0.851;0.966;0.0;0.0;0.0;0.0;1.000;0.851;0.0

>  <similarity-descriptor-smiles>
c1ccccc1;N1CCOCC1;C(=O)NC;S1C=CN=C1;N1C=CN=N1;c1ccc(cc1)F;;;;;C;N1C=CN=N1;

>  <reaction-name>
m_274860b

>  <reagent1-name>
15234900

>  <reagent1-smiles>
[R1*]N=NN([R2*])CCN[R3*]

>  <reagent2-name>
17181660

>  <reagent2-smiles>
[R3*]C(=O)C=1SC(=NC1c2ccccc2)N3CCOCC3

>  <reagent3-name>
15233636

>  <reagent3-smiles>
[R1*]C(c1ccc(F)cc1)=C[R2*]

$$$$
m_273170____10759734____10760044____10766558
          04022017313D 1   1.00000     0.00000     0
            
 67 71  0  0  0  0            999 V2000
    7.1615   -2.0524    3.8245 S   0  0  0  0  0  0  0  0  0  0  0  0
    7.5449   -0.9459    4.6626 O   0  0  0  0  0  0  0  0  0  0  0  0
    7.0489   -3.2442    4.6249 O   0  0  0  0  0  0  0  0  0  0  0  0
    8.2911   -2.2773    2.6711 N   0  0  0  0  0  0  0  0  0  0  0  0
    8.4061   -1.0606    1.8541 C   0  0  0  0  0  0  0  0  0  0  0  0
    9.5862   -2.5671    3.3034 C   0  0  0  0  0  0  0  0  0  0  0  0
    5.6287   -1.7094    3.0761 C   0  0  0  0  0  0  0  0  0  0  0  0
    5.1351   -0.4092    3.0844 C   0  0  0  0  0  0  0  0  0  0  0  0
    3.9080   -0.1495    2.4826 C   0  0  0  0  0  0  0  0  0  0  0  0
    3.1781   -1.1688    1.8799 C   0  0  0  0  0  0  0  0  0  0  0  0
    3.6897   -2.4624    1.8823 C   0  0  0  0  0  0  0  0  0  0  0  0
    4.9150   -2.7431    2.4781 C   0  0  0  0  0  0  0  0  0  0  0  0
    3.3905    1.2051    2.4893 C   0  0  0  0  0  0  0  0  0  0  0  0
    4.1071    2.3065    2.4903 N   0  0  0  0  0  0  0  0  0  0  0  0
    3.2789    3.3271    2.4974 N   0  0  0  0  0  0  0  0  0  0  0  0
    2.0315    2.9267    2.5008 C   0  0  0  0  0  0  0  0  0  0  0  0
    2.0806    1.5694    2.4959 N   0  0  0  0  0  0  0  0  0  0  0  0
    0.9245    0.6605    2.4981 C   0  0  0  0  0  0  0  0  0  0  0  0
    0.6864    0.1467    3.9090 C   0  0  3  0  0  0  0  0  0  0  0  0
    1.1000    1.1080    4.8682 O   0  0  0  0  0  0  0  0  0  0  0  0
    1.3380   -1.2011    4.1290 C   0  0  0  0  0  0  0  0  0  0  0  0
    0.5336   -2.1019    3.3855 O   0  0  0  0  0  0  0  0  0  0  0  0
   -0.8071   -1.7207    3.6428 C   0  0  0  0  0  0  0  0  0  0  0  0
   -0.7505   -0.2832    4.1315 C   0  0  0  0  0  0  0  0  0  0  0  0
    0.8853    3.7336    2.5048 N   0  0  0  0  0  0  0  0  0  0  0  0
   -0.4485    3.1157    2.5084 C   0  0  0  0  0  0  0  0  0  0  0  0
   -1.5104    4.2029    2.5122 C   0  0  0  0  0  0  0  0  0  0  0  0
   -1.9932    4.6944    1.3843 N   0  0  0  0  0  0  0  0  0  0  0  0
   -2.9508    5.6754    1.3785 C   0  0  0  0  0  0  0  0  0  0  0  0
   -3.4371    6.1758    2.5813 C   0  0  0  0  0  0  0  0  0  0  0  0
   -4.4105    7.1728    2.5624 C   0  0  0  0  0  0  0  0  0  0  0  0
   -4.9142    7.6861    1.3731 C   0  0  0  0  0  0  0  0  0  0  0  0
   -4.4237    7.1817    0.1747 C   0  0  0  0  0  0  0  0  0  0  0  0
   -3.4520    6.1863    0.1851 C   0  0  0  0  0  0  0  0  0  0  0  0
   -2.9122    5.6402    3.7902 C   0  0  0  0  0  0  0  0  0  0  0  0
   -3.2787    6.0185    4.8927 O   0  0  0  0  0  0  0  0  0  0  0  0
   -1.9562    4.6616    3.7239 N   0  0  0  0  0  0  0  0  0  0  0  0
    1.0172    5.1977    2.5052 C   0  0  0  0  0  0  0  0  0  0  0  0
    9.0991   -1.1986    1.1465 H   0  0  0  0  0  0  0  0  0  0  0  0
    7.5252   -0.8635    1.4240 H   0  0  0  0  0  0  0  0  0  0  0  0
    8.6723   -0.2922    2.4361 H   0  0  0  0  0  0  0  0  0  0  0  0
   10.2791   -2.7051    2.5958 H   0  0  0  0  0  0  0  0  0  0  0  0
    9.8523   -1.7987    3.8854 H   0  0  0  0  0  0  0  0  0  0  0  0
    9.5079   -3.3948    3.8592 H   0  0  0  0  0  0  0  0  0  0  0  0
    5.6545    0.3281    3.5164 H   0  0  0  0  0  0  0  0  0  0  0  0
    2.2964   -0.9741    1.4501 H   0  0  0  0  0  0  0  0  0  0  0  0
    3.1703   -3.1997    1.4504 H   0  0  0  0  0  0  0  0  0  0  0  0
    5.2777   -3.6750    2.4766 H   0  0  0  0  0  0  0  0  0  0  0  0
    1.1060   -0.1112    1.8885 H   0  0  0  0  0  0  0  0  0  0  0  0
    0.1134    1.1521    2.1811 H   0  0  0  0  0  0  0  0  0  0  0  0
    0.6456    1.9796    4.6839 H   0  0  0  0  0  0  0  0  0  0  0  0
    2.2780   -1.2005    3.7878 H   0  0  0  0  0  0  0  0  0  0  0  0
    1.3358   -1.4419    5.0996 H   0  0  0  0  0  0  0  0  0  0  0  0
   -1.2068   -2.3103    4.3447 H   0  0  0  0  0  0  0  0  0  0  0  0
   -1.3518   -1.7817    2.8065 H   0  0  0  0  0  0  0  0  0  0  0  0
   -1.3758    0.2926    3.6047 H   0  0  0  0  0  0  0  0  0  0  0  0
   -0.9872   -0.2315    5.1017 H   0  0  0  0  0  0  0  0  0  0  0  0
   -0.5504    2.5474    3.3248 H   0  0  0  0  0  0  0  0  0  0  0  0
   -0.5552    2.5483    1.6919 H   0  0  0  0  0  0  0  0  0  0  0  0
   -4.7569    7.5293    3.4301 H   0  0  0  0  0  0  0  0  0  0  0  0
   -5.6129    8.4015    1.3796 H   0  0  0  0  0  0  0  0  0  0  0  0
   -4.7693    7.5341   -0.6950 H   0  0  0  0  0  0  0  0  0  0  0  0
   -3.1064    5.8305   -0.6832 H   0  0  0  0  0  0  0  0  0  0  0  0
   -1.5802    4.2783    4.5675 H   0  0  0  0  0  0  0  0  0  0  0  0
    0.1080    5.6142    2.5082 H   0  0  0  0  0  0  0  0  0  0  0  0
    1.5190    5.4869    3.3204 H   0  0  0  0  0  0  0  0  0  0  0  0
    1.5141    5.4879    1.6874 H   0  0  0  0  0  0  0  0  0  0  0  0
  1  2  2  0  0  0  0
  1  3  2  0  0  0  0
  1  4  1  0  0  0  0
  4  5  1  0  0  0  0
  4  6  1  0  0  0  0
  1  7  1  0  0  0  0
  7  8  1  0  0  0  0
  8  9  2  0  0  0  0
  9 10  1  0  0  0  0
 10 11  2  0  0  0  0
 11 12  1  0  0  0  0
 12  7  2  0  0  0  0
  9 13  1  0  0  0  0
 13 14  2  0  0  0  0
 14 15  1  0  0  0  0
 15 16  2  0  0  0  0
 16 17  1  0  0  0  0
 17 13  1  0  0  0  0
 17 18  1  0  0  0  0
 18 19  1  0  0  0  0
 19 20  1  0  0  0  0
 19 21  1  0  0  0  0
 21 22  1  0  0  0  0
 22 23  1  0  0  0  0
 23 24  1  0  0  0  0
 24 19  1  0  0  0  0
 16 25  1  0  0  0  0
 25 26  1  0  0  0  0
 26 27  1  0  0  0  0
 27 28  2  0  0  0  0
 28 29  1  0  0  0  0
 29 30  1  0  0  0  0
 30 31  2  0  0  0  0
 31 32  1  0  0  0  0
 32 33  2  0  0  0  0
 33 34  1  0  0  0  0
 34 29  2  0  0  0  0
 30 35  1  0  0  0  0
 35 36  2  0  0  0  0
 35 37  1  0  0  0  0
 37 27  1  0  0  0  0
 25 38  1  0  0  0  0
  5 39  1  0  0  0  0
  5 40  1  0  0  0  0
  5 41  1  0  0  0  0
  6 42  1  0  0  0  0
  6 43  1  0  0  0  0
  6 44  1  0  0  0  0
  8 45  1  0  0  0  0
 10 46  1  0  0  0  0
 11 47  1  0  0  0  0
 12 48  1  0  0  0  0
 18 49  1  0  0  0  0
 18 50  1  0  0  0  0
 20 51  1  0  0  0  0
 21 52  1  0  0  0  0
 21 53  1  0  0  0  0
 23 54  1  0  0  0  0
 23 55  1  0  0  0  0
 24 56  1  0  0  0  0
 24 57  1  0  0  0  0
 26 58  1  0  0  0  0
 26 59  1  0  0  0  0
 31 60  1  0  0  0  0
 32 61  1  0  0  0  0
 33 62  1  0  0  0  0
 34 63  1  0  0  0  0
 37 64  1  0  0  0  0
 38 65  1  0  0  0  0
 38 66  1  0  0  0  0
 38 67  1  0  0  0  0
M  END
>  <result-rank>
65

>  <similarity>
0.868

>  <query-name>


>  <query-smiles>
S(=O)(=O)(NC(=O)C)c1ccc(cc1)C=2N3C(=NC(=C3)COc4nc5c(cc4)cccc5)C(=NC2)N6CCOCC6

>  <source>
REALspace_2019-12

>  <similarity-descriptor>
1.000;0.999;0.637;0.637;0.837;0.999;1.000;0.528;0.528;0.995;0.973;0.837;0.143

>  <similarity-descriptor-smiles>
c1ccccc1;CC1CCOC1;C=1NC=NN1;C=1NC=NN1;C=1NC(ccN1)=O;c1ccccc1;S(=O)=O;NC;NC;C;NC;C=1NC(ccN1)=O;O.C

>  <reaction-name>
m_273170

>  <reagent1-name>
10759734

>  <reagent1-smiles>
[R2*]=C([R1*])N([R3*])CC1(O)COCC1

>  <reagent2-name>
10760044

>  <reagent2-smiles>
[R1*]N(CC1=Nc2c(cccc2)C(=O)N1)C

>  <reagent3-name>
10766558

>  <reagent3-smiles>
[R2*]=NN=C([R3*])c1cc(S(=O)(=O)N(C)C)ccc1

$$$$
s_60____90638____91064
          04022017313D 1   1.00000     0.00000     0
            
 64 70  0  0  0  0            999 V2000
    0.4648    3.7275    2.5286 S   0  0  0  0  0  0  0  0  0  0  0  0
   -0.5174    2.9258    3.2114 O   0  0  0  0  0  0  0  0  0  0  0  0
    0.6209    4.9834    3.2155 O   0  0  0  0  0  0  0  0  0  0  0  0
   -0.0658    4.0242    0.8756 N   0  0  0  0  0  0  0  0  0  0  0  0
    0.9022    4.8412    0.1284 C   0  0  0  0  0  0  0  0  0  0  0  0
    0.4129    5.0837   -1.2905 C   0  0  0  0  0  0  0  0  0  0  0  0
    0.1841    3.8470   -1.9508 O   0  0  0  0  0  0  0  0  0  0  0  0
   -0.7592    3.0360   -1.2652 C   0  0  0  0  0  0  0  0  0  0  0  0
   -0.2857    2.7621    0.1535 C   0  0  0  0  0  0  0  0  0  0  0  0
    1.9863    2.8858    2.5067 C   0  0  0  0  0  0  0  0  0  0  0  0
    3.1745    3.6064    2.5001 C   0  0  0  0  0  0  0  0  0  0  0  0
    4.3971    2.9456    2.4852 C   0  0  0  0  0  0  0  0  0  0  0  0
    5.6729    3.4308    2.4735 N   0  0  0  0  0  0  0  0  0  0  0  0
    6.4898    2.4034    2.4579 C   0  0  0  0  0  0  0  0  0  0  0  0
    5.7579    1.2555    2.4595 N   0  0  0  0  0  0  0  0  0  0  0  0
    4.4303    1.5734    2.4759 C   0  0  0  0  0  0  0  0  0  0  0  0
    3.2416    0.8509    2.4803 C   0  0  0  0  0  0  0  0  0  0  0  0
    2.0103    1.4959    2.4959 C   0  0  0  0  0  0  0  0  0  0  0  0
    6.3141   -0.1069    2.4448 C   0  0  0  0  0  0  0  0  0  0  0  0
    6.7205   -0.4726    1.0273 C   0  0  3  0  0  0  0  0  0  0  0  0
    5.6010   -0.4232    0.1647 O   0  0  0  0  0  0  0  0  0  0  0  0
    5.9613   -1.1691   -0.9901 C   0  0  0  0  0  0  0  0  0  0  0  0
    6.9912   -2.1840   -0.5338 C   0  0  0  0  0  0  0  0  0  0  0  0
    7.1243   -1.9277    0.9550 C   0  0  0  0  0  0  0  0  0  0  0  0
    7.9379    2.4796    2.4402 C   0  0  0  0  0  0  0  0  0  0  0  0
    8.7553    1.5150    2.7904 O   0  0  0  0  0  0  0  0  0  0  0  0
   10.0001    1.9095    2.6587 C   0  0  0  0  0  0  0  0  0  0  0  0
   11.1704    1.1054    2.9529 C   0  0  0  0  0  0  0  0  0  0  0  0
   12.7500    1.7163    3.1415 S   0  0  0  0  0  0  0  0  0  0  0  0
   13.4703    0.2110    3.4482 C   0  0  0  0  0  0  0  0  0  0  0  0
   12.4593   -0.7242    3.4066 C   0  0  0  0  0  0  0  0  0  0  0  0
   11.2198   -0.1923    3.1303 N   0  0  0  0  0  0  0  0  0  0  0  0
   12.9249   -2.0167    3.6406 C   0  0  0  0  0  0  0  0  0  0  0  0
   14.2694   -2.2779    3.8950 C   0  0  0  0  0  0  0  0  0  0  0  0
   15.2105   -1.2527    3.9229 C   0  0  0  0  0  0  0  0  0  0  0  0
   14.8194    0.0536    3.6919 C   0  0  0  0  0  0  0  0  0  0  0  0
   10.0203    3.1910    2.2005 C   0  0  0  0  0  0  0  0  0  0  0  0
    8.6666    3.5642    2.0570 C   0  0  0  0  0  0  0  0  0  0  0  0
    1.7802    4.3636    0.0964 H   0  0  0  0  0  0  0  0  0  0  0  0
    1.0175    5.7200    0.5913 H   0  0  0  0  0  0  0  0  0  0  0  0
   -0.4403    5.6046   -1.2608 H   0  0  0  0  0  0  0  0  0  0  0  0
    1.1035    5.6035   -1.7934 H   0  0  0  0  0  0  0  0  0  0  0  0
   -0.8639    2.1686   -1.7515 H   0  0  0  0  0  0  0  0  0  0  0  0
   -1.6398    3.5089   -1.2337 H   0  0  0  0  0  0  0  0  0  0  0  0
   -0.9788    2.2246    0.6337 H   0  0  0  0  0  0  0  0  0  0  0  0
    0.5714    2.2480    0.1208 H   0  0  0  0  0  0  0  0  0  0  0  0
    3.1497    4.6060    2.5060 H   0  0  0  0  0  0  0  0  0  0  0  0
    3.2733   -0.1486    2.4721 H   0  0  0  0  0  0  0  0  0  0  0  0
    1.1592    0.9709    2.4994 H   0  0  0  0  0  0  0  0  0  0  0  0
    5.6234   -0.7525    2.7706 H   0  0  0  0  0  0  0  0  0  0  0  0
    7.1152   -0.1463    3.0419 H   0  0  0  0  0  0  0  0  0  0  0  0
    7.4547    0.1215    0.6987 H   0  0  0  0  0  0  0  0  0  0  0  0
    6.3534   -0.5655   -1.6843 H   0  0  0  0  0  0  0  0  0  0  0  0
    5.1599   -1.6338   -1.3666 H   0  0  0  0  0  0  0  0  0  0  0  0
    7.8642   -2.0382   -0.9991 H   0  0  0  0  0  0  0  0  0  0  0  0
    6.6727   -3.1160   -0.7070 H   0  0  0  0  0  0  0  0  0  0  0  0
    6.5064   -2.5082    1.4853 H   0  0  0  0  0  0  0  0  0  0  0  0
    8.0634   -2.0654    1.2698 H   0  0  0  0  0  0  0  0  0  0  0  0
   12.2761   -2.7775    3.6254 H   0  0  0  0  0  0  0  0  0  0  0  0
   14.5638   -3.2191    4.0606 H   0  0  0  0  0  0  0  0  0  0  0  0
   16.1705   -1.4609    4.1103 H   0  0  0  0  0  0  0  0  0  0  0  0
   15.4610    0.8206    3.7007 H   0  0  0  0  0  0  0  0  0  0  0  0
   10.8256    3.7510    2.0061 H   0  0  0  0  0  0  0  0  0  0  0  0
    8.3148    4.4446    1.7391 H   0  0  0  0  0  0  0  0  0  0  0  0
  1  2  2  0  0  0  0
  1  3  2  0  0  0  0
  1  4  1  0  0  0  0
  4  5  1  0  0  0  0
  5  6  1  0  0  0  0
  6  7  1  0  0  0  0
  7  8  1  0  0  0  0
  8  9  1  0  0  0  0
  9  4  1  0  0  0  0
  1 10  1  0  0  0  0
 10 11  1  0  0  0  0
 11 12  2  0  0  0  0
 12 13  1  0  0  0  0
 13 14  2  0  0  0  0
 14 15  1  0  0  0  0
 15 16  1  0  0  0  0
 16 12  1  0  0  0  0
 16 17  2  0  0  0  0
 17 18  1  0  0  0  0
 18 10  2  0  0  0  0
 15 19  1  0  0  0  0
 19 20  1  0  0  0  0
 20 21  1  0  0  0  0
 21 22  1  0  0  0  0
 22 23  1  0  0  0  0
 23 24  1  0  0  0  0
 24 20  1  0  0  0  0
 14 25  1  0  0  0  0
 25 26  1  0  0  0  0
 26 27  1  0  0  0  0
 27 28  1  0  0  0  0
 28 29  1  0  0  0  0
 29 30  1  0  0  0  0
 30 31  1  0  0  0  0
 31 32  1  0  0  0  0
 28 32  2  0  0  0  0
 31 33  2  0  0  0  0
 33 34  1  0  0  0  0
 34 35  2  0  0  0  0
 35 36  1  0  0  0  0
 36 30  2  0  0  0  0
 27 37  2  0  0  0  0
 37 38  1  0  0  0  0
 25 38  2  0  0  0  0
  5 39  1  0  0  0  0
  5 40  1  0  0  0  0
  6 41  1  0  0  0  0
  6 42  1  0  0  0  0
  8 43  1  0  0  0  0
  8 44  1  0  0  0  0
  9 45  1  0  0  0  0
  9 46  1  0  0  0  0
 11 47  1  0  0  0  0
 17 48  1  0  0  0  0
 18 49  1  0  0  0  0
 19 50  1  0  0  0  0
 19 51  1  0  0  0  0
 20 52  1  0  0  0  0
 22 53  1  0  0  0  0
 22 54  1  0  0  0  0
 23 55  1  0  0  0  0
 23 56  1  0  0  0  0
 24 57  1  0  0  0  0
 24 58  1  0  0  0  0
 33 59  1  0  0  0  0
 34 60  1  0  0  0  0
 35 61  1  0  0  0  0
 36 62  1  0  0  0  0
 37 63  1  0  0  0  0
 38 64  1  0  0  0  0
M  END
>  <result-rank>
66

>  <similarity>
0.867

>  <query-name>


>  <query-smiles>
S(=O)(=O)(NC(=O)C)c1ccc(cc1)C=2N3C(=NC(=C3)COc4nc5c(cc4)cccc5)C(=NC2)N6CCOCC6

>  <source>
REALspace_2019-12

>  <similarity-descriptor>
0.939;0.977;0.885;0.881;0.768;0.999;0.890;0.890;0.559;0.559;0.885;0.768;0.0

>  <similarity-descriptor-smiles>
c1ccccc1;C1CCCO1;C1=CC=CO1;c1cN(C=N1)C;C1=NccS1;c1ccccc1;S(=O)=O;S(=O)=O;N1CCOCC1;N1CCOCC1;C1=CC=CO1;C1=NccS1;

>  <reaction-name>
s_60

>  <reagent1-name>
90638

>  <reagent1-smiles>
[R1*]C1=Nc2c(N1CC3OCCC3)ccc(S(=O)(=O)N4CCOCC4)c2

>  <reagent2-name>
91064

>  <reagent2-smiles>
[R1*]C=1OC(C=2Sc3c(N2)cccc3)=CC1

$$$$
m_274972____15150082____12615770____13046916
          04022017313D 1   1.00000     0.00000     0
            
 48 52  0  0  0  0            999 V2000
   -6.0714    2.3456    2.5860 S   0  0  0  0  0  0  0  0  0  0  0  0
   -5.3130    1.2173    3.6076 C   0  0  0  0  0  0  0  0  0  0  0  0
   -4.0694    1.0990    3.1992 N   0  0  0  0  0  0  0  0  0  0  0  0
   -3.7381    1.8709    2.1203 C   0  0  0  0  0  0  0  0  0  0  0  0
   -2.4357    1.8959    1.4975 C   0  0  0  0  0  0  0  0  0  0  0  0
   -2.0772    2.6528    0.4244 N   0  0  0  0  0  0  0  0  0  0  0  0
   -0.8652    2.4015    0.1734 N   0  0  0  0  0  0  0  0  0  0  0  0
   -0.3754    1.5185    1.0083 N   0  0  0  0  0  0  0  0  0  0  0  0
   -1.3542    1.1631    1.8799 C   0  0  0  0  0  0  0  0  0  0  0  0
    1.0000    1.0000    1.0000 C   0  0  0  0  0  0  0  0  0  0  0  0
    1.8776    1.8776    1.8776 C   0  0  0  0  0  0  0  0  0  0  0  0
    2.0337    1.5986    3.2313 C   0  0  0  0  0  0  0  0  0  0  0  0
    1.3696    0.4837    3.8079 O   0  0  0  0  0  0  0  0  0  0  0  0
    1.5292    0.1990    5.1899 C   0  0  0  0  0  0  0  0  0  0  0  0
    2.8403    2.4117    4.0207 C   0  0  0  0  0  0  0  0  0  0  0  0
    3.4907    3.5043    3.4562 C   0  0  0  0  0  0  0  0  0  0  0  0
    3.3279    3.7749    2.1016 C   0  0  0  0  0  0  0  0  0  0  0  0
    4.0161    4.9292    1.5058 N   0  3  0  0  0  0  0  0  0  0  0  0
    4.7232    5.6421    2.1987 O   0  5  0  0  0  0  0  0  0  0  0  0
    3.8812    5.1722    0.3282 O   0  0  0  0  0  0  0  0  0  0  0  0
    2.5237    2.9676    1.3039 C   0  0  0  0  0  0  0  0  0  0  0  0
   -4.7186    2.6613    1.6002 C   0  0  0  0  0  0  0  0  0  0  0  0
   -5.9394    0.5287    4.7214 C   0  0  0  0  0  0  0  0  0  0  0  0
   -5.2677   -0.3514    5.4822 N   0  0  0  0  0  0  0  0  0  0  0  0
   -5.8386   -0.9935    6.5150 C   0  0  0  0  0  0  0  0  0  0  0  0
   -7.1741   -0.7556    6.8292 C   0  0  0  0  0  0  0  0  0  0  0  0
   -7.8931    0.1512    6.0574 C   0  0  0  0  0  0  0  0  0  0  0  0
   -7.2764    0.8017    4.9931 C   0  0  0  0  0  0  0  0  0  0  0  0
   -7.7941   -1.4040    7.8922 C   0  0  0  0  0  0  0  0  0  0  0  0
   -7.0581   -2.3074    8.6517 C   0  0  0  0  0  0  0  0  0  0  0  0
   -5.7226   -2.5627    8.3590 C   0  0  0  0  0  0  0  0  0  0  0  0
   -5.1248   -1.9016    7.2908 C   0  0  0  0  0  0  0  0  0  0  0  0
   -1.2940    0.5092    2.6341 H   0  0  0  0  0  0  0  0  0  0  0  0
    1.3527    1.0056    0.0643 H   0  0  0  0  0  0  0  0  0  0  0  0
    1.0056    0.0643    1.3527 H   0  0  0  0  0  0  0  0  0  0  0  0
    0.9964   -0.6134    5.4266 H   0  0  0  0  0  0  0  0  0  0  0  0
    2.4955    0.0329    5.3867 H   0  0  0  0  0  0  0  0  0  0  0  0
    1.2080    0.9772    5.7297 H   0  0  0  0  0  0  0  0  0  0  0  0
    2.9527    2.2109    4.9938 H   0  0  0  0  0  0  0  0  0  0  0  0
    4.0712    4.0912    4.0206 H   0  0  0  0  0  0  0  0  0  0  0  0
    2.4116    3.1682    0.3306 H   0  0  0  0  0  0  0  0  0  0  0  0
   -4.6581    3.2834    0.8196 H   0  0  0  0  0  0  0  0  0  0  0  0
   -8.8533    0.3356    6.2674 H   0  0  0  0  0  0  0  0  0  0  0  0
   -7.7857    1.4547    4.4327 H   0  0  0  0  0  0  0  0  0  0  0  0
   -8.7539   -1.2235    8.1070 H   0  0  0  0  0  0  0  0  0  0  0  0
   -7.4946   -2.7791    9.4178 H   0  0  0  0  0  0  0  0  0  0  0  0
   -5.1989   -3.2130    8.9092 H   0  0  0  0  0  0  0  0  0  0  0  0
   -4.1649   -2.0824    7.0767 H   0  0  0  0  0  0  0  0  0  0  0  0
  1  2  1  0  0  0  0
  2  3  2  0  0  0  0
  3  4  1  0  0  0  0
  4  5  1  0  0  0  0
  5  6  1  0  0  0  0
  6  7  2  0  0  0  0
  7  8  1  0  0  0  0
  8  9  1  0  0  0  0
  5  9  2  0  0  0  0
  8 10  1  0  0  0  0
 10 11  1  0  0  0  0
 11 12  1  0  0  0  0
 12 13  1  0  0  0  0
 13 14  1  0  0  0  0
 12 15  2  0  0  0  0
 15 16  1  0  0  0  0
 16 17  2  0  0  0  0
 17 18  1  0  0  0  0
 18 19  1  0  0  0  0
 18 20  2  0  0  0  0
 17 21  1  0  0  0  0
 21 11  2  0  0  0  0
  4 22  2  0  0  0  0
 22  1  1  0  0  0  0
  2 23  1  0  0  0  0
 23 24  1  0  0  0  0
 24 25  2  0  0  0  0
 25 26  1  0  0  0  0
 26 27  2  0  0  0  0
 27 28  1  0  0  0  0
 28 23  2  0  0  0  0
 26 29  1  0  0  0  0
 29 30  2  0  0  0  0
 30 31  1  0  0  0  0
 31 32  2  0  0  0  0
 32 25  1  0  0  0  0
  9 33  1  0  0  0  0
 10 34  1  0  0  0  0
 10 35  1  0  0  0  0
 14 36  1  0  0  0  0
 14 37  1  0  0  0  0
 14 38  1  0  0  0  0
 15 39  1  0  0  0  0
 16 40  1  0  0  0  0
 21 41  1  0  0  0  0
 22 42  1  0  0  0  0
 27 43  1  0  0  0  0
 28 44  1  0  0  0  0
 29 45  1  0  0  0  0
 30 46  1  0  0  0  0
 31 47  1  0  0  0  0
 32 48  1  0  0  0  0
M  CHG  2  18   1  19  -1
M  END
>  <result-rank>
67

>  <similarity>
0.867

>  <query-name>


>  <query-smiles>
S(=O)(=O)(NC(=O)C)c1ccc(cc1)C=2N3C(=NC(=C3)COc4nc5c(cc4)cccc5)C(=NC2)N6CCOCC6

>  <source>
REALspace_2019-12

>  <similarity-descriptor>
0.914;0.0;0.923;0.827;0.902;1.000;0.975;0.0;0.0;0.0;0.923;0.902;0.222

>  <similarity-descriptor-smiles>
Cc1ccccc1;;S1C=CN=C1;C1=CNN=N1;c1ccccn1;c1ccccc1;[N+]([O-])=O;;;;S1C=CN=C1;c1ccccn1;O.C

>  <reaction-name>
m_274972

>  <reagent1-name>
15150082

>  <reagent1-smiles>
[R1*]SC(=N[R2*])c1nc2c(cc1)cccc2

>  <reagent2-name>
12615770

>  <reagent2-smiles>
[R2*]C(C([R3*])=C[R4*])=C[R1*]

>  <reagent3-name>
13046916

>  <reagent3-smiles>
[R3*]N=NN([R4*])Cc1c(OC)ccc([N+]([O-])=O)c1

$$$$
m_276010b____17281670____17249274____17280448
          04022017313D 1   1.00000     0.00000     0
            
 55 59  0  0  0  0            999 V2000
    5.9992    2.0707    2.4489 S   0  0  0  0  0  0  0  0  0  0  0  0
    6.5296    2.9184    3.4852 O   0  0  0  0  0  0  0  0  0  0  0  0
    6.4279    0.7143    2.6721 O   0  0  0  0  0  0  0  0  0  0  0  0
    6.5421    2.5806    0.9990 N   0  0  0  0  0  0  0  0  0  0  0  0
    6.0007    1.7153   -0.0588 C   0  0  0  0  0  0  0  0  0  0  0  0
    6.5069    2.1907   -1.4109 C   0  0  0  0  0  0  0  0  0  0  0  0
    6.0841    3.5283   -1.6309 O   0  0  0  0  0  0  0  0  0  0  0  0
    4.2586    2.1414    2.4750 C   0  0  0  0  0  0  0  0  0  0  0  0
    3.3597    3.5858    2.4950 S   0  0  0  0  0  0  0  0  0  0  0  0
    1.8191    2.8582    2.5252 C   0  0  0  0  0  0  0  0  0  0  0  0
    0.5423    3.5411    2.5481 C   0  0  0  0  0  0  0  0  0  0  0  0
    0.4996    4.7368    2.4563 O   0  0  0  0  0  0  0  0  0  0  0  0
   -0.6170    2.8220    2.6745 N   0  0  0  0  0  0  0  0  0  0  0  0
   -1.7883    3.4531    3.1120 C   0  0  0  0  0  0  0  0  0  0  0  0
   -1.7363    4.3993    4.1304 C   0  0  0  0  0  0  0  0  0  0  0  0
   -2.9167    5.0083    4.5432 C   0  0  0  0  0  0  0  0  0  0  0  0
   -4.0848    4.6869    3.9674 N   0  0  0  0  0  0  0  0  0  0  0  0
   -4.1553    3.7777    2.9840 C   0  0  0  0  0  0  0  0  0  0  0  0
   -3.0099    3.1341    2.5278 C   0  0  0  0  0  0  0  0  0  0  0  0
   -2.8482    5.9584    5.5688 N   0  0  0  0  0  0  0  0  0  0  0  0
   -1.7465    6.4476    6.0832 N   0  0  0  0  0  0  0  0  0  0  0  0
   -2.0054    7.2835    6.9933 N   0  0  0  0  0  0  0  0  0  0  0  0
   -3.3601    7.3758    7.1040 C   0  0  0  0  0  0  0  0  0  0  0  0
   -4.0879    8.2244    8.0306 C   0  0  0  0  0  0  0  0  0  0  0  0
   -4.9807    9.2130    7.6146 C   0  0  0  0  0  0  0  0  0  0  0  0
   -5.6435    9.9867    8.5642 C   0  0  0  0  0  0  0  0  0  0  0  0
   -5.3874    9.7421    9.9100 C   0  0  0  0  0  0  0  0  0  0  0  0
   -4.5242    8.7870   10.2870 N   0  0  0  0  0  0  0  0  0  0  0  0
   -3.8741    8.0296    9.3908 C   0  0  0  0  0  0  0  0  0  0  0  0
   -6.5412   10.9796    8.1865 C   0  0  0  0  0  0  0  0  0  0  0  0
   -6.7808   11.2027    6.8349 C   0  0  0  0  0  0  0  0  0  0  0  0
   -6.1362   10.4479    5.8618 C   0  0  0  0  0  0  0  0  0  0  0  0
   -5.2434    9.4624    6.2685 C   0  0  0  0  0  0  0  0  0  0  0  0
   -3.9111    6.5280    6.1969 C   0  0  0  0  0  0  0  0  0  0  0  0
    2.0229    1.5121    2.5191 C   0  0  0  0  0  0  0  0  0  0  0  0
    3.3817    1.0991    2.4937 C   0  0  0  0  0  0  0  0  0  0  0  0
    7.5412    2.5400    0.9841 H   0  0  0  0  0  0  0  0  0  0  0  0
    5.0016    1.7558   -0.0439 H   0  0  0  0  0  0  0  0  0  0  0  0
    6.2984    0.7733    0.0962 H   0  0  0  0  0  0  0  0  0  0  0  0
    7.5060    2.1501   -1.4258 H   0  0  0  0  0  0  0  0  0  0  0  0
    6.1386    1.6020   -2.1305 H   0  0  0  0  0  0  0  0  0  0  0  0
    6.4172    3.8411   -2.5205 H   0  0  0  0  0  0  0  0  0  0  0  0
   -0.6268    1.8466    2.4544 H   0  0  0  0  0  0  0  0  0  0  0  0
   -0.8646    4.6377    4.5586 H   0  0  0  0  0  0  0  0  0  0  0  0
   -5.0412    3.5602    2.5743 H   0  0  0  0  0  0  0  0  0  0  0  0
   -3.0634    2.4559    1.7949 H   0  0  0  0  0  0  0  0  0  0  0  0
   -5.8541   10.2868   10.6068 H   0  0  0  0  0  0  0  0  0  0  0  0
   -3.2357    7.3250    9.7008 H   0  0  0  0  0  0  0  0  0  0  0  0
   -7.0094   11.5275    8.8798 H   0  0  0  0  0  0  0  0  0  0  0  0
   -7.4256   11.9157    6.5594 H   0  0  0  0  0  0  0  0  0  0  0  0
   -6.3106   10.6100    4.8905 H   0  0  0  0  0  0  0  0  0  0  0  0
   -4.7755    8.9159    5.5741 H   0  0  0  0  0  0  0  0  0  0  0  0
   -4.8824    6.3601    6.0286 H   0  0  0  0  0  0  0  0  0  0  0  0
    1.2667    0.8579    2.5317 H   0  0  0  0  0  0  0  0  0  0  0  0
    3.6658    0.1403    2.4899 H   0  0  0  0  0  0  0  0  0  0  0  0
  1  2  2  0  0  0  0
  1  3  2  0  0  0  0
  1  4  1  0  0  0  0
  4  5  1  0  0  0  0
  5  6  1  0  0  0  0
  6  7  1  0  0  0  0
  1  8  1  0  0  0  0
  8  9  1  0  0  0  0
  9 10  1  0  0  0  0
 10 11  1  0  0  0  0
 11 12  2  0  0  0  0
 11 13  1  0  0  0  0
 13 14  1  0  0  0  0
 14 15  1  0  0  0  0
 15 16  2  0  0  0  0
 16 17  1  0  0  0  0
 17 18  2  0  0  0  0
 18 19  1  0  0  0  0
 19 14  2  0  0  0  0
 16 20  1  0  0  0  0
 20 21  1  0  0  0  0
 21 22  2  0  0  0  0
 22 23  1  0  0  0  0
 23 24  1  0  0  0  0
 24 25  1  0  0  0  0
 25 26  2  0  0  0  0
 26 27  1  0  0  0  0
 27 28  2  0  0  0  0
 28 29  1  0  0  0  0
 29 24  2  0  0  0  0
 26 30  1  0  0  0  0
 30 31  2  0  0  0  0
 31 32  1  0  0  0  0
 32 33  2  0  0  0  0
 33 25  1  0  0  0  0
 23 34  2  0  0  0  0
 34 20  1  0  0  0  0
 10 35  2  0  0  0  0
 35 36  1  0  0  0  0
  8 36  2  0  0  0  0
  4 37  1  0  0  0  0
  5 38  1  0  0  0  0
  5 39  1  0  0  0  0
  6 40  1  0  0  0  0
  6 41  1  0  0  0  0
  7 42  1  0  0  0  0
 13 43  1  0  0  0  0
 15 44  1  0  0  0  0
 18 45  1  0  0  0  0
 19 46  1  0  0  0  0
 27 47  1  0  0  0  0
 29 48  1  0  0  0  0
 30 49  1  0  0  0  0
 31 50  1  0  0  0  0
 32 51  1  0  0  0  0
 33 52  1  0  0  0  0
 34 53  1  0  0  0  0
 35 54  1  0  0  0  0
 36 55  1  0  0  0  0
M  END
>  <result-rank>
68

>  <similarity>
0.867

>  <query-name>


>  <query-smiles>
S(=O)(=O)(NC(=O)C)c1ccc(cc1)C=2N3C(=NC(=C3)COc4nc5c(cc4)cccc5)C(=NC2)N6CCOCC6

>  <source>
REALspace_2019-12

>  <similarity-descriptor>
0.784;0.0;0.889;0.850;0.999;0.999;0.999;0.730;0.730;0.957;0.889;0.889;0.083

>  <similarity-descriptor-smiles>
C1=CC=C(S1)C(=O)N;;N1C=CN=N1;c1ccncc1;c1cnccc1;c1ccccc1;S(=O)=O;NC;NC;C;N1C=CN=N1;N1C=CN=N1;O

>  <reaction-name>
m_276010b

>  <reagent1-name>
17281670

>  <reagent1-smiles>
[R1*]N=NN([R2*])c1nccc(N[R3*])c1

>  <reagent2-name>
17249274

>  <reagent2-smiles>
[R3*]C(=O)C=1SC(S(=O)(=O)NCCO)=CC1

>  <reagent3-name>
17280448

>  <reagent3-smiles>
[R1*]C(c1c2c(cnc1)cccc2)=C[R2*]

$$$$
s_22____57675____9780488
          04022017313D 1   1.00000     0.00000     0
            
 57 61  0  0  0  0            999 V2000
   -2.0272    2.3576   -0.7658 S   0  0  0  0  0  0  0  0  0  0  0  0
   -1.8499    2.7703   -2.4073 C   0  0  0  0  0  0  0  0  0  0  0  0
   -0.5811    3.0389   -2.6122 N   0  0  0  0  0  0  0  0  0  0  0  0
    0.2379    2.9169   -1.5175 C   0  0  0  0  0  0  0  0  0  0  0  0
    1.6669    3.1619   -1.5520 C   0  0  0  0  0  0  0  0  0  0  0  0
    2.4758    2.4052   -2.3934 C   0  0  0  0  0  0  0  0  0  0  0  0
    3.8461    2.6430   -2.4227 C   0  0  0  0  0  0  0  0  0  0  0  0
    4.3977    3.6322   -1.6153 C   0  0  0  0  0  0  0  0  0  0  0  0
    3.5800    4.3822   -0.7791 C   0  0  0  0  0  0  0  0  0  0  0  0
    2.2084    4.1537   -0.7402 C   0  0  0  0  0  0  0  0  0  0  0  0
   -0.3860    2.5395   -0.3655 C   0  0  0  0  0  0  0  0  0  0  0  0
    0.2400    2.3164    1.0000 C   0  0  0  0  0  0  0  0  0  0  0  0
    1.0000    1.0000    1.0000 C   0  0  0  0  0  0  0  0  0  0  0  0
    0.4000   -0.0392    1.0000 O   0  0  0  0  0  0  0  0  0  0  0  0
    2.3700    1.0000    1.0000 N   0  0  0  0  0  0  0  0  0  0  0  0
    3.0615   -0.1977    1.0000 N   0  0  0  0  0  0  0  0  0  0  0  0
    4.4315   -0.1977    1.0000 C   0  0  0  0  0  0  0  0  0  0  0  0
    5.0315    0.8415    1.0000 O   0  0  0  0  0  0  0  0  0  0  0  0
    5.1573   -1.4548    1.0000 C   0  0  0  0  0  0  0  0  0  0  0  0
    4.5262   -2.6407    1.0000 N   0  0  0  0  0  0  0  0  0  0  0  0
    5.1891   -3.8092    0.9998 C   0  0  0  0  0  0  0  0  0  0  0  0
    6.5814   -3.8189    0.9996 C   0  0  0  0  0  0  0  0  0  0  0  0
    7.2602   -2.6047    0.9995 C   0  0  0  0  0  0  0  0  0  0  0  0
    6.5479   -1.4093    1.0001 C   0  0  0  0  0  0  0  0  0  0  0  0
    7.2969   -5.0117    0.9991 C   0  0  0  0  0  0  0  0  0  0  0  0
    6.5997   -6.2152    0.9994 C   0  0  0  0  0  0  0  0  0  0  0  0
    5.2090   -6.2332    0.9994 C   0  0  0  0  0  0  0  0  0  0  0  0
    4.5159   -5.0270    0.9998 C   0  0  0  0  0  0  0  0  0  0  0  0
   -2.8929    2.8074   -3.3451 N   0  0  0  0  0  0  0  0  0  0  0  0
   -2.6296    3.3386   -4.6917 C   0  0  0  0  0  0  0  0  0  0  0  0
   -3.4778    2.6263   -5.7340 C   0  0  0  0  0  0  0  0  0  0  0  0
   -4.8303    2.5080   -5.3116 O   0  0  0  0  0  0  0  0  0  0  0  0
   -4.9276    1.6772   -4.1621 C   0  0  0  0  0  0  0  0  0  0  0  0
   -4.2174    2.2925   -2.9659 C   0  0  0  0  0  0  0  0  0  0  0  0
    2.0752    1.6956   -2.9731 H   0  0  0  0  0  0  0  0  0  0  0  0
    4.4345    2.1027   -3.0242 H   0  0  0  0  0  0  0  0  0  0  0  0
    5.3827    3.8036   -1.6368 H   0  0  0  0  0  0  0  0  0  0  0  0
    3.9809    5.0923   -0.2002 H   0  0  0  0  0  0  0  0  0  0  0  0
    1.6206    4.6939   -0.1381 H   0  0  0  0  0  0  0  0  0  0  0  0
    0.8705    3.0653    1.2041 H   0  0  0  0  0  0  0  0  0  0  0  0
   -0.4783    2.2866    1.6951 H   0  0  0  0  0  0  0  0  0  0  0  0
    2.8700    1.8660    1.0000 H   0  0  0  0  0  0  0  0  0  0  0  0
    2.5615   -1.0637    1.0000 H   0  0  0  0  0  0  0  0  0  0  0  0
    8.2601   -2.5909    0.9991 H   0  0  0  0  0  0  0  0  0  0  0  0
    7.0276   -0.5319    1.0006 H   0  0  0  0  0  0  0  0  0  0  0  0
    8.2969   -5.0040    0.9985 H   0  0  0  0  0  0  0  0  0  0  0  0
    7.1047   -7.0783    0.9995 H   0  0  0  0  0  0  0  0  0  0  0  0
    4.7137   -7.1019    0.9992 H   0  0  0  0  0  0  0  0  0  0  0  0
    3.5160   -5.0353    1.0001 H   0  0  0  0  0  0  0  0  0  0  0  0
   -1.6629    3.2075   -4.9116 H   0  0  0  0  0  0  0  0  0  0  0  0
   -2.8453    4.3149   -4.7061 H   0  0  0  0  0  0  0  0  0  0  0  0
   -3.4481    3.1462   -6.5877 H   0  0  0  0  0  0  0  0  0  0  0  0
   -3.1040    1.7116   -5.8875 H   0  0  0  0  0  0  0  0  0  0  0  0
   -4.5117    0.7909   -4.3660 H   0  0  0  0  0  0  0  0  0  0  0  0
   -5.8930    1.5482   -3.9355 H   0  0  0  0  0  0  0  0  0  0  0  0
   -4.7708    3.0452   -2.6091 H   0  0  0  0  0  0  0  0  0  0  0  0
   -4.1065    1.5954   -2.2576 H   0  0  0  0  0  0  0  0  0  0  0  0
  1  2  1  0  0  0  0
  2  3  2  0  0  0  0
  3  4  1  0  0  0  0
  4  5  1  0  0  0  0
  5  6  1  0  0  0  0
  6  7  2  0  0  0  0
  7  8  1  0  0  0  0
  8  9  2  0  0  0  0
  9 10  1  0  0  0  0
 10  5  2  0  0  0  0
  4 11  2  0  0  0  0
 11  1  1  0  0  0  0
 11 12  1  0  0  0  0
 12 13  1  0  0  0  0
 13 14  2  0  0  0  0
 13 15  1  0  0  0  0
 15 16  1  0  0  0  0
 16 17  1  0  0  0  0
 17 18  2  0  0  0  0
 17 19  1  0  0  0  0
 19 20  1  0  0  0  0
 20 21  2  0  0  0  0
 21 22  1  0  0  0  0
 22 23  2  0  0  0  0
 23 24  1  0  0  0  0
 24 19  2  0  0  0  0
 22 25  1  0  0  0  0
 25 26  2  0  0  0  0
 26 27  1  0  0  0  0
 27 28  2  0  0  0  0
 28 21  1  0  0  0  0
  2 29  1  0  0  0  0
 29 30  1  0  0  0  0
 30 31  1  0  0  0  0
 31 32  1  0  0  0  0
 32 33  1  0  0  0  0
 33 34  1  0  0  0  0
 34 29  1  0  0  0  0
  6 35  1  0  0  0  0
  7 36  1  0  0  0  0
  8 37  1  0  0  0  0
  9 38  1  0  0  0  0
 10 39  1  0  0  0  0
 12 40  1  0  0  0  0
 12 41  1  0  0  0  0
 15 42  1  0  0  0  0
 16 43  1  0  0  0  0
 23 44  1  0  0  0  0
 24 45  1  0  0  0  0
 25 46  1  0  0  0  0
 26 47  1  0  0  0  0
 27 48  1  0  0  0  0
 28 49  1  0  0  0  0
 30 50  1  0  0  0  0
 30 51  1  0  0  0  0
 31 52  1  0  0  0  0
 31 53  1  0  0  0  0
 33 54  1  0  0  0  0
 33 55  1  0  0  0  0
 34 56  1  0  0  0  0
 34 57  1  0  0  0  0
M  END
>  <result-rank>
69

>  <similarity>
0.867

>  <query-name>


>  <query-smiles>
S(=O)(=O)(NC(=O)C)c1ccc(cc1)C=2N3C(=NC(=C3)COc4nc5c(cc4)cccc5)C(=NC2)N6CCOCC6

>  <source>
REALspace_2019-12

>  <similarity-descriptor>
0.959;1.000;0.566;0.956;0.997;1.000;0.0;0.0;0.0;0.0;0.484;0.484;0.0

>  <similarity-descriptor-smiles>
c1ccccc1;N1CCOCC1;CC=O;S1C=CN=C1;c1ccccn1;c1ccccc1;;;;;NNC=O;NNC=O;

>  <reaction-name>
s_22

>  <reagent1-name>
57675

>  <reagent1-smiles>
[R1*]NNC(=O)c1nc2c(cc1)cccc2

>  <reagent2-name>
9780488

>  <reagent2-smiles>
[R1*]C(=O)CC=1SC(=NC1c2ccccc2)N3CCOCC3

$$$$
m_274972____12934292____12615770____13046826
          04022017313D 1   1.00000     0.00000     0
            
 57 61  0  0  0  0            999 V2000
    6.8482    3.6132    1.0010 S   0  0  0  0  0  0  0  0  0  0  0  0
    5.1561    3.4435    1.0023 C   0  0  0  0  0  0  0  0  0  0  0  0
    4.6450    4.6543    1.0004 N   0  0  0  0  0  0  0  0  0  0  0  0
    5.5608    5.6696    1.0001 C   0  0  0  0  0  0  0  0  0  0  0  0
    5.2276    7.0805    1.0076 C   0  0  0  0  0  0  0  0  0  0  0  0
    6.1161    8.1117    1.0074 N   0  0  0  0  0  0  0  0  0  0  0  0
    5.4493    9.1843    1.0161 N   0  0  0  0  0  0  0  0  0  0  0  0
    4.1606    8.9480    1.0238 N   0  0  0  0  0  0  0  0  0  0  0  0
    3.9709    7.6033    1.0199 C   0  0  0  0  0  0  0  0  0  0  0  0
    3.1011    9.9670    1.0367 C   0  0  0  0  0  0  0  0  0  0  0  0
    2.7260   10.3260   -0.3918 C   0  0  0  0  0  0  0  0  0  0  0  0
    1.7298    9.7018   -1.1757 C   0  0  0  0  0  0  0  0  0  0  0  0
    1.7384   10.3187   -2.3325 N   0  0  0  0  0  0  0  0  0  0  0  0
    2.6463   11.2671   -2.3433 N   0  0  0  0  0  0  0  0  0  0  0  0
    2.9167   12.1131   -3.4257 C   0  0  0  0  0  0  0  0  0  0  0  0
    3.9079   13.0826   -3.3111 C   0  0  0  0  0  0  0  0  0  0  0  0
    4.1738   13.9211   -4.3886 C   0  0  0  0  0  0  0  0  0  0  0  0
    3.4509   13.7869   -5.5691 C   0  0  0  0  0  0  0  0  0  0  0  0
    2.4626   12.8137   -5.6726 C   0  0  0  0  0  0  0  0  0  0  0  0
    2.1879   11.9696   -4.6017 C   0  0  0  0  0  0  0  0  0  0  0  0
    3.2881   11.3085   -1.1442 C   0  0  0  0  0  0  0  0  0  0  0  0
    6.8768    5.3162    1.0020 C   0  0  0  0  0  0  0  0  0  0  0  0
    4.4313    2.1857    1.0003 C   0  0  0  0  0  0  0  0  0  0  0  0
    3.0406    2.2072    1.0017 C   0  0  0  0  0  0  0  0  0  0  0  0
    2.3507    1.0000    1.0000 C   0  0  0  0  0  0  0  0  0  0  0  0
    1.0000    1.0000    1.0000 O   0  0  0  0  0  0  0  0  0  0  0  0
    0.2900   -0.2298    0.9982 C   0  0  0  0  0  0  0  0  0  0  0  0
    0.0367   -0.6706    2.4307 C   0  0  0  0  0  0  0  0  0  0  0  0
    0.8367   -1.3642    2.9953 O   0  0  0  0  0  0  0  0  0  0  0  0
   -1.0550   -0.2933    3.0487 O   0  0  0  0  0  0  0  0  0  0  0  0
   -1.2917   -0.7052    4.3869 C   0  0  0  0  0  0  0  0  0  0  0  0
   -0.7006    0.3173    5.3438 C   0  0  0  0  0  0  0  0  0  0  0  0
    3.0340   -0.2115    0.9982 C   0  0  0  0  0  0  0  0  0  0  0  0
    4.4251   -0.2198    0.9970 C   0  0  0  0  0  0  0  0  0  0  0  0
    5.1269    0.9806    0.9981 C   0  0  0  0  0  0  0  0  0  0  0  0
    3.1023    7.1080    1.0249 H   0  0  0  0  0  0  0  0  0  0  0  0
    3.4302   10.7840    1.5103 H   0  0  0  0  0  0  0  0  0  0  0  0
    2.2982    9.6070    1.5118 H   0  0  0  0  0  0  0  0  0  0  0  0
    1.1381    8.9431   -0.9033 H   0  0  0  0  0  0  0  0  0  0  0  0
    4.4253   13.1760   -2.4604 H   0  0  0  0  0  0  0  0  0  0  0  0
    4.8847   14.6205   -4.3144 H   0  0  0  0  0  0  0  0  0  0  0  0
    3.6417   14.3900   -6.3436 H   0  0  0  0  0  0  0  0  0  0  0  0
    1.9456   12.7201   -6.5235 H   0  0  0  0  0  0  0  0  0  0  0  0
    1.4771   11.2702   -4.6762 H   0  0  0  0  0  0  0  0  0  0  0  0
    4.0210   11.9324   -0.8728 H   0  0  0  0  0  0  0  0  0  0  0  0
    7.6754    5.9181    1.0037 H   0  0  0  0  0  0  0  0  0  0  0  0
    2.5454    3.0760    1.0040 H   0  0  0  0  0  0  0  0  0  0  0  0
    0.8304   -0.9260    0.5258 H   0  0  0  0  0  0  0  0  0  0  0  0
   -0.5838   -0.1095    0.5270 H   0  0  0  0  0  0  0  0  0  0  0  0
   -0.8623   -1.5948    4.5428 H   0  0  0  0  0  0  0  0  0  0  0  0
   -2.2766   -0.7783    4.5440 H   0  0  0  0  0  0  0  0  0  0  0  0
   -0.8672    0.0272    6.2862 H   0  0  0  0  0  0  0  0  0  0  0  0
    0.2843    0.3904    5.1868 H   0  0  0  0  0  0  0  0  0  0  0  0
   -1.1299    1.2069    5.1879 H   0  0  0  0  0  0  0  0  0  0  0  0
    2.5271   -1.0735    0.9976 H   0  0  0  0  0  0  0  0  0  0  0  0
    4.9202   -1.0887    0.9955 H   0  0  0  0  0  0  0  0  0  0  0  0
    6.1269    0.9778    0.9974 H   0  0  0  0  0  0  0  0  0  0  0  0
  1  2  1  0  0  0  0
  2  3  2  0  0  0  0
  3  4  1  0  0  0  0
  4  5  1  0  0  0  0
  5  6  1  0  0  0  0
  6  7  2  0  0  0  0
  7  8  1  0  0  0  0
  8  9  1  0  0  0  0
  5  9  2  0  0  0  0
  8 10  1  0  0  0  0
 10 11  1  0  0  0  0
 11 12  1  0  0  0  0
 12 13  2  0  0  0  0
 13 14  1  0  0  0  0
 14 15  1  0  0  0  0
 15 16  1  0  0  0  0
 16 17  2  0  0  0  0
 17 18  1  0  0  0  0
 18 19  2  0  0  0  0
 19 20  1  0  0  0  0
 20 15  2  0  0  0  0
 14 21  1  0  0  0  0
 11 21  2  0  0  0  0
  4 22  2  0  0  0  0
 22  1  1  0  0  0  0
  2 23  1  0  0  0  0
 23 24  1  0  0  0  0
 24 25  2  0  0  0  0
 25 26  1  0  0  0  0
 26 27  1  0  0  0  0
 27 28  1  0  0  0  0
 28 29  2  0  0  0  0
 28 30  1  0  0  0  0
 30 31  1  0  0  0  0
 31 32  1  0  0  0  0
 25 33  1  0  0  0  0
 33 34  2  0  0  0  0
 34 35  1  0  0  0  0
 35 23  2  0  0  0  0
  9 36  1  0  0  0  0
 10 37  1  0  0  0  0
 10 38  1  0  0  0  0
 12 39  1  0  0  0  0
 16 40  1  0  0  0  0
 17 41  1  0  0  0  0
 18 42  1  0  0  0  0
 19 43  1  0  0  0  0
 20 44  1  0  0  0  0
 21 45  1  0  0  0  0
 22 46  1  0  0  0  0
 24 47  1  0  0  0  0
 27 48  1  0  0  0  0
 27 49  1  0  0  0  0
 31 50  1  0  0  0  0
 31 51  1  0  0  0  0
 32 52  1  0  0  0  0
 32 53  1  0  0  0  0
 32 54  1  0  0  0  0
 33 55  1  0  0  0  0
 34 56  1  0  0  0  0
 35 57  1  0  0  0  0
M  END
>  <result-rank>
70

>  <similarity>
0.867

>  <query-name>


>  <query-smiles>
S(=O)(=O)(NC(=O)C)c1ccc(cc1)C=2N3C(=NC(=C3)COc4nc5c(cc4)cccc5)C(=NC2)N6CCOCC6

>  <source>
REALspace_2019-12

>  <similarity-descriptor>
0.999;0.0;0.889;0.976;0.863;0.941;0.746;0.559;0.559;1.000;0.889;0.889;0.0

>  <similarity-descriptor-smiles>
c1ccccc1;;C1=CNN=N1;S1C=CN=C1;CC1=CNN=C1;c1ccccc1;OCC=O;OC;OC;C;C1=CNN=N1;C1=CNN=N1;

>  <reaction-name>
m_274972

>  <reagent1-name>
12934292

>  <reagent1-smiles>
[R1*]SC(=N[R2*])c1cc(OCC(=O)OCC)ccc1

>  <reagent2-name>
12615770

>  <reagent2-smiles>
[R2*]C(C([R3*])=C[R4*])=C[R1*]

>  <reagent3-name>
13046826

>  <reagent3-smiles>
[R3*]N=NN([R4*])CC=1C=NN(c2ccccc2)C1

$$$$
m_274972____12934192____12615770____13423500
          04022017313D 1   1.00000     0.00000     0
            
 56 60  0  0  0  0            999 V2000
   10.2247    1.6719    2.3661 S   0  0  0  0  0  0  0  0  0  0  0  0
   10.8020    2.8102    3.0328 O   0  0  0  0  0  0  0  0  0  0  0  0
   10.6267    0.4653    3.0415 O   0  0  0  0  0  0  0  0  0  0  0  0
   10.7414    1.6275    0.8208 N   0  0  0  0  0  0  0  0  0  0  0  0
   12.2071    1.5178    0.7972 C   0  0  0  0  0  0  0  0  0  0  0  0
    8.4200    1.8069    2.3952 C   0  0  0  0  0  0  0  0  0  0  0  0
    7.6437    0.6529    2.4108 C   0  0  0  0  0  0  0  0  0  0  0  0
    6.2577    0.7683    2.4333 C   0  0  0  0  0  0  0  0  0  0  0  0
    5.6642    2.0267    2.4390 C   0  0  0  0  0  0  0  0  0  0  0  0
    6.4448    3.1781    2.4235 C   0  0  0  0  0  0  0  0  0  0  0  0
    7.8313    3.0673    2.4012 C   0  0  0  0  0  0  0  0  0  0  0  0
    4.2182    2.1329    2.4615 C   0  0  0  0  0  0  0  0  0  0  0  0
    3.3303    3.5831    2.4714 S   0  0  0  0  0  0  0  0  0  0  0  0
    1.7841    2.8690    2.4950 C   0  0  0  0  0  0  0  0  0  0  0  0
    2.0375    1.5302    2.4908 C   0  0  0  0  0  0  0  0  0  0  0  0
    3.3498    1.1464    2.4729 N   0  0  0  0  0  0  0  0  0  0  0  0
    0.9118    0.6170    2.5150 C   0  0  0  0  0  0  0  0  0  0  0  0
   -0.4029    0.9692    2.5332 N   0  0  0  0  0  0  0  0  0  0  0  0
   -1.0790   -0.0974    2.5525 N   0  0  0  0  0  0  0  0  0  0  0  0
   -0.3062   -1.1554    2.5502 N   0  0  0  0  0  0  0  0  0  0  0  0
    0.9871   -0.7420    2.5276 C   0  0  0  0  0  0  0  0  0  0  0  0
   -0.7639   -2.5537    2.5709 C   0  0  3  0  0  0  0  0  0  0  0  0
   -0.9682   -3.1229    1.1778 C   0  0  0  0  0  0  0  0  0  0  0  0
   -1.7406   -4.2693    1.0591 C   0  0  0  0  0  0  0  0  0  0  0  0
   -2.2705   -4.8275    2.2324 N   0  0  0  0  0  0  0  0  0  0  0  0
   -2.3571   -6.1814    2.4234 C   0  0  0  0  0  0  0  0  0  0  0  0
   -1.9725   -6.9334    1.5711 O   0  0  0  0  0  0  0  0  0  0  0  0
   -2.9404   -6.7309    3.7150 C   0  0  0  0  0  0  0  0  0  0  0  0
   -2.7691   -3.9372    3.2926 C   0  0  0  0  0  0  0  0  0  0  0  0
   -2.1315   -2.5554    3.2388 C   0  0  0  0  0  0  0  0  0  0  0  0
   -1.9492   -4.7942   -0.2158 C   0  0  0  0  0  0  0  0  0  0  0  0
   -1.4078   -4.2112   -1.3572 C   0  0  0  0  0  0  0  0  0  0  0  0
   -0.6326   -3.0638   -1.2301 C   0  0  0  0  0  0  0  0  0  0  0  0
   -0.4239   -2.5339    0.0391 C   0  0  0  0  0  0  0  0  0  0  0  0
   10.4622    2.4654    0.3518 H   0  0  0  0  0  0  0  0  0  0  0  0
   12.5241    1.4906   -0.1508 H   0  0  0  0  0  0  0  0  0  0  0  0
   12.6080    2.3083    1.2602 H   0  0  0  0  0  0  0  0  0  0  0  0
   12.4863    0.6799    1.2662 H   0  0  0  0  0  0  0  0  0  0  0  0
    8.0766   -0.2485    2.4058 H   0  0  0  0  0  0  0  0  0  0  0  0
    5.6878   -0.0533    2.4453 H   0  0  0  0  0  0  0  0  0  0  0  0
    6.0120    4.0795    2.4284 H   0  0  0  0  0  0  0  0  0  0  0  0
    8.4014    3.8888    2.3896 H   0  0  0  0  0  0  0  0  0  0  0  0
    0.8951    3.3268    2.5089 H   0  0  0  0  0  0  0  0  0  0  0  0
    1.8107   -1.3092    2.5215 H   0  0  0  0  0  0  0  0  0  0  0  0
   -0.1235   -3.1215    3.0881 H   0  0  0  0  0  0  0  0  0  0  0  0
   -3.2084   -5.9723    4.3090 H   0  0  0  0  0  0  0  0  0  0  0  0
   -3.7425   -7.2906    3.5069 H   0  0  0  0  0  0  0  0  0  0  0  0
   -2.2542   -7.2911    4.1789 H   0  0  0  0  0  0  0  0  0  0  0  0
   -2.5659   -4.3502    4.1804 H   0  0  0  0  0  0  0  0  0  0  0  0
   -3.7588   -3.8384    3.1897 H   0  0  0  0  0  0  0  0  0  0  0  0
   -2.7364   -1.9457    2.7266 H   0  0  0  0  0  0  0  0  0  0  0  0
   -2.0294   -2.2155    4.1737 H   0  0  0  0  0  0  0  0  0  0  0  0
   -2.5073   -5.6183   -0.3131 H   0  0  0  0  0  0  0  0  0  0  0  0
   -1.5742   -4.6124   -2.2579 H   0  0  0  0  0  0  0  0  0  0  0  0
   -0.2326   -2.6276   -2.0362 H   0  0  0  0  0  0  0  0  0  0  0  0
    0.1318   -1.7082    0.1364 H   0  0  0  0  0  0  0  0  0  0  0  0
  1  2  2  0  0  0  0
  1  3  2  0  0  0  0
  1  4  1  0  0  0  0
  4  5  1  0  0  0  0
  1  6  1  0  0  0  0
  6  7  1  0  0  0  0
  7  8  2  0  0  0  0
  8  9  1  0  0  0  0
  9 10  2  0  0  0  0
 10 11  1  0  0  0  0
 11  6  2  0  0  0  0
  9 12  1  0  0  0  0
 12 13  1  0  0  0  0
 13 14  1  0  0  0  0
 14 15  2  0  0  0  0
 15 16  1  0  0  0  0
 12 16  2  0  0  0  0
 15 17  1  0  0  0  0
 17 18  1  0  0  0  0
 18 19  2  0  0  0  0
 19 20  1  0  0  0  0
 20 21  1  0  0  0  0
 17 21  2  0  0  0  0
 20 22  1  0  0  0  0
 22 23  1  0  0  0  0
 23 24  1  0  0  0  0
 24 25  1  0  0  0  0
 25 26  1  0  0  0  0
 26 27  2  0  0  0  0
 26 28  1  0  0  0  0
 25 29  1  0  0  0  0
 29 30  1  0  0  0  0
 30 22  1  0  0  0  0
 24 31  2  0  0  0  0
 31 32  1  0  0  0  0
 32 33  2  0  0  0  0
 33 34  1  0  0  0  0
 34 23  2  0  0  0  0
  4 35  1  0  0  0  0
  5 36  1  0  0  0  0
  5 37  1  0  0  0  0
  5 38  1  0  0  0  0
  7 39  1  0  0  0  0
  8 40  1  0  0  0  0
 10 41  1  0  0  0  0
 11 42  1  0  0  0  0
 14 43  1  0  0  0  0
 21 44  1  0  0  0  0
 22 45  1  0  0  0  0
 28 46  1  0  0  0  0
 28 47  1  0  0  0  0
 28 48  1  0  0  0  0
 29 49  1  0  0  0  0
 29 50  1  0  0  0  0
 30 51  1  0  0  0  0
 30 52  1  0  0  0  0
 31 53  1  0  0  0  0
 32 54  1  0  0  0  0
 33 55  1  0  0  0  0
 34 56  1  0  0  0  0
M  END
>  <result-rank>
71

>  <similarity>
0.867

>  <query-name>


>  <query-smiles>
S(=O)(=O)(NC(=O)C)c1ccc(cc1)C=2N3C(=NC(=C3)COc4nc5c(cc4)cccc5)C(=NC2)N6CCOCC6

>  <source>
REALspace_2019-12

>  <similarity-descriptor>
1.000;0.0;0.889;0.976;0.664;0.999;1.000;0.733;0.733;0.733;0.889;0.889;0.100

>  <similarity-descriptor-smiles>
c1ccccc1;;C1=CNN=N1;C1=NC=CS1;C1CCN(cc1)C=O;c1ccccc1;S(=O)=O;NC;NC;NC;C1=CNN=N1;C1=CNN=N1;C

>  <reaction-name>
m_274972

>  <reagent1-name>
12934192

>  <reagent1-smiles>
[R1*]SC(=N[R2*])c1ccc(S(=O)(=O)NC)cc1

>  <reagent2-name>
12615770

>  <reagent2-smiles>
[R2*]C(C([R3*])=C[R4*])=C[R1*]

>  <reagent3-name>
13423500

>  <reagent3-smiles>
[R3*]N=NN([R4*])C1c2c(N(C(=O)C)CC1)cccc2

$$$$
m_274972____12934174____12615770____14584994
          04022017313D 1   1.00000     0.00000     0
            
 57 61  0  0  0  0            999 V2000
    7.6953    4.8589    8.0726 S   0  0  0  0  0  0  0  0  0  0  0  0
    6.4667    5.1257    8.7749 O   0  0  0  0  0  0  0  0  0  0  0  0
    8.4054    3.7954    8.7347 O   0  0  0  0  0  0  0  0  0  0  0  0
    8.6173    6.2030    8.0608 N   0  0  0  0  0  0  0  0  0  0  0  0
    7.3374    4.3867    6.4368 C   0  0  0  0  0  0  0  0  0  0  0  0
    8.1896    3.5166    5.7657 C   0  0  0  0  0  0  0  0  0  0  0  0
    7.9056    3.1376    4.4576 C   0  0  0  0  0  0  0  0  0  0  0  0
    6.7665    3.6386    3.8367 C   0  0  0  0  0  0  0  0  0  0  0  0
    5.9147    4.5093    4.5085 C   0  0  0  0  0  0  0  0  0  0  0  0
    6.1977    4.8880    5.8162 C   0  0  0  0  0  0  0  0  0  0  0  0
    6.4523    3.2286    2.4073 C   0  0  0  0  0  0  0  0  0  0  0  0
    5.6199    2.0170    2.4168 N   0  0  0  0  0  0  0  0  0  0  0  0
    4.2262    2.1265    2.4440 C   0  0  0  0  0  0  0  0  0  0  0  0
    3.3287    3.5724    2.4687 S   0  0  0  0  0  0  0  0  0  0  0  0
    1.7793    2.8660    2.4982 C   0  0  0  0  0  0  0  0  0  0  0  0
    2.0377    1.5325    2.4911 C   0  0  0  0  0  0  0  0  0  0  0  0
    3.3528    1.1511    2.4644 N   0  0  0  0  0  0  0  0  0  0  0  0
    0.9120    0.6179    2.5170 C   0  0  0  0  0  0  0  0  0  0  0  0
   -0.4050    0.9651    2.5483 N   0  0  0  0  0  0  0  0  0  0  0  0
   -1.0863   -0.0977    2.5640 N   0  0  0  0  0  0  0  0  0  0  0  0
   -0.3094   -1.1530    2.5395 N   0  0  0  0  0  0  0  0  0  0  0  0
   -0.7430   -2.4856    2.5453 C   0  0  0  0  0  0  0  0  0  0  0  0
   -1.1446   -3.1942    3.6351 N   0  0  0  0  0  0  0  0  0  0  0  0
   -1.4903   -4.4544    3.2473 C   0  0  0  0  0  0  0  0  0  0  0  0
   -1.3070   -4.5682    1.8875 C   0  0  0  0  0  0  0  0  0  0  0  0
   -1.5987   -5.7868    1.2785 C   0  0  0  0  0  0  0  0  0  0  0  0
   -2.0660   -6.8723    2.0133 C   0  0  0  0  0  0  0  0  0  0  0  0
   -2.2435   -6.7332    3.3862 C   0  0  0  0  0  0  0  0  0  0  0  0
   -1.9573   -5.5229    4.0088 C   0  0  0  0  0  0  0  0  0  0  0  0
   -0.8312   -3.3088    1.4657 C   0  0  0  0  0  0  0  0  0  0  0  0
   -0.4915   -2.9479    0.1049 C   0  0  0  0  0  0  0  0  0  0  0  0
   -0.6074   -3.7540   -0.7764 O   0  0  0  0  0  0  0  0  0  0  0  0
   -0.0579   -1.7413   -0.1639 O   0  0  0  0  0  0  0  0  0  0  0  0
    0.2751   -1.3874   -1.4981 C   0  0  0  0  0  0  0  0  0  0  0  0
   -1.1877   -2.6690    5.0094 C   0  0  0  0  0  0  0  0  0  0  0  0
    0.9852   -0.7385    2.5082 C   0  0  0  0  0  0  0  0  0  0  0  0
    9.4704    6.0177    7.5731 H   0  0  0  0  0  0  0  0  0  0  0  0
    8.1241    6.9415    7.6010 H   0  0  0  0  0  0  0  0  0  0  0  0
    9.0059    3.1636    6.2230 H   0  0  0  0  0  0  0  0  0  0  0  0
    8.5138    2.5118    3.9692 H   0  0  0  0  0  0  0  0  0  0  0  0
    5.0989    4.8630    4.0510 H   0  0  0  0  0  0  0  0  0  0  0  0
    5.5892    5.5133    6.3047 H   0  0  0  0  0  0  0  0  0  0  0  0
    5.9593    3.9682    1.9491 H   0  0  0  0  0  0  0  0  0  0  0  0
    7.3049    3.0434    1.9186 H   0  0  0  0  0  0  0  0  0  0  0  0
    6.0504    1.1145    2.4039 H   0  0  0  0  0  0  0  0  0  0  0  0
    0.8906    3.3240    2.5164 H   0  0  0  0  0  0  0  0  0  0  0  0
   -1.4695   -5.8836    0.2916 H   0  0  0  0  0  0  0  0  0  0  0  0
   -2.2713   -7.7402    1.5608 H   0  0  0  0  0  0  0  0  0  0  0  0
   -2.5777   -7.5054    3.9267 H   0  0  0  0  0  0  0  0  0  0  0  0
   -2.0858   -5.4208    4.9953 H   0  0  0  0  0  0  0  0  0  0  0  0
    0.5861   -0.4373   -1.5233 H   0  0  0  0  0  0  0  0  0  0  0  0
    1.0046   -1.9857   -1.8295 H   0  0  0  0  0  0  0  0  0  0  0  0
   -0.5308   -1.4899   -2.0812 H   0  0  0  0  0  0  0  0  0  0  0  0
   -0.8817   -1.7170    5.0121 H   0  0  0  0  0  0  0  0  0  0  0  0
   -2.1243   -2.7191    5.3561 H   0  0  0  0  0  0  0  0  0  0  0  0
   -0.5863   -3.2141    5.5935 H   0  0  0  0  0  0  0  0  0  0  0  0
    1.8083   -1.3060    2.4840 H   0  0  0  0  0  0  0  0  0  0  0  0
  1  2  2  0  0  0  0
  1  3  2  0  0  0  0
  1  4  1  0  0  0  0
  1  5  1  0  0  0  0
  5  6  1  0  0  0  0
  6  7  2  0  0  0  0
  7  8  1  0  0  0  0
  8  9  2  0  0  0  0
  9 10  1  0  0  0  0
 10  5  2  0  0  0  0
  8 11  1  0  0  0  0
 11 12  1  0  0  0  0
 12 13  1  0  0  0  0
 13 14  1  0  0  0  0
 14 15  1  0  0  0  0
 15 16  2  0  0  0  0
 16 17  1  0  0  0  0
 13 17  2  0  0  0  0
 16 18  1  0  0  0  0
 18 19  1  0  0  0  0
 19 20  2  0  0  0  0
 20 21  1  0  0  0  0
 21 22  1  0  0  0  0
 22 23  1  0  0  0  0
 23 24  1  0  0  0  0
 24 25  1  0  0  0  0
 25 26  2  0  0  0  0
 26 27  1  0  0  0  0
 27 28  2  0  0  0  0
 28 29  1  0  0  0  0
 29 24  2  0  0  0  0
 25 30  1  0  0  0  0
 22 30  2  0  0  0  0
 30 31  1  0  0  0  0
 31 32  2  0  0  0  0
 31 33  1  0  0  0  0
 33 34  1  0  0  0  0
 23 35  1  0  0  0  0
 21 36  1  0  0  0  0
 18 36  2  0  0  0  0
  4 37  1  0  0  0  0
  4 38  1  0  0  0  0
  6 39  1  0  0  0  0
  7 40  1  0  0  0  0
  9 41  1  0  0  0  0
 10 42  1  0  0  0  0
 11 43  1  0  0  0  0
 11 44  1  0  0  0  0
 12 45  1  0  0  0  0
 15 46  1  0  0  0  0
 26 47  1  0  0  0  0
 27 48  1  0  0  0  0
 28 49  1  0  0  0  0
 29 50  1  0  0  0  0
 34 51  1  0  0  0  0
 34 52  1  0  0  0  0
 34 53  1  0  0  0  0
 35 54  1  0  0  0  0
 35 55  1  0  0  0  0
 35 56  1  0  0  0  0
 36 57  1  0  0  0  0
M  END
>  <result-rank>
72

>  <similarity>
0.867

>  <query-name>


>  <query-smiles>
S(=O)(=O)(NC(=O)C)c1ccc(cc1)C=2N3C(=NC(=C3)COc4nc5c(cc4)cccc5)C(=NC2)N6CCOCC6

>  <source>
REALspace_2019-12

>  <similarity-descriptor>
0.852;0.0;0.889;0.973;0.907;0.999;1.000;0.588;0.0;0.0;0.889;0.889;0.231

>  <similarity-descriptor-smiles>
c1ccc(cc1)CN;;C1=CNN=N1;C1=NC=CS1;C1=C(ccN1)C=O;c1ccccc1;S(=O)=O;N;;;C1=CNN=N1;C1=CNN=N1;O.C.C

>  <reaction-name>
m_274972

>  <reagent1-name>
12934174

>  <reagent1-smiles>
[R1*]SC(=N[R2*])NCc1ccc(S(=O)(=O)N)cc1

>  <reagent2-name>
12615770

>  <reagent2-smiles>
[R2*]C(C([R3*])=C[R4*])=C[R1*]

>  <reagent3-name>
14584994

>  <reagent3-smiles>
[R3*]N=NN([R4*])C=1N(c2c(cccc2)C1C(=O)OC)C

$$$$
m_274972____12934342____12615770____13047176
          04022017313D 1   1.00000     0.00000     0
            
 59 63  0  0  0  0            999 V2000
   10.1573    1.7131    2.3581 S   0  0  0  0  0  0  0  0  0  0  0  0
    8.4221    1.8380    2.3858 C   0  0  0  0  0  0  0  0  0  0  0  0
    7.7900    2.8091    1.6162 C   0  0  0  0  0  0  0  0  0  0  0  0
    6.4021    2.9000    1.6461 C   0  0  0  0  0  0  0  0  0  0  0  0
    5.6642    2.0267    2.4390 C   0  0  0  0  0  0  0  0  0  0  0  0
    6.3011    1.0570    3.2067 C   0  0  0  0  0  0  0  0  0  0  0  0
    7.6888    0.9624    3.1800 C   0  0  0  0  0  0  0  0  0  0  0  0
    4.2182    2.1329    2.4615 C   0  0  0  0  0  0  0  0  0  0  0  0
    3.3303    3.5831    2.4714 S   0  0  0  0  0  0  0  0  0  0  0  0
    1.7841    2.8690    2.4950 C   0  0  0  0  0  0  0  0  0  0  0  0
    2.0375    1.5302    2.4908 C   0  0  0  0  0  0  0  0  0  0  0  0
    3.3498    1.1464    2.4729 N   0  0  0  0  0  0  0  0  0  0  0  0
    0.9118    0.6170    2.5150 C   0  0  0  0  0  0  0  0  0  0  0  0
   -0.4027    0.9693    2.5423 N   0  0  0  0  0  0  0  0  0  0  0  0
   -1.0789   -0.0973    2.5583 N   0  0  0  0  0  0  0  0  0  0  0  0
   -0.3063   -1.1555    2.5452 N   0  0  0  0  0  0  0  0  0  0  0  0
    0.9870   -0.7420    2.5184 C   0  0  0  0  0  0  0  0  0  0  0  0
   -0.7636   -2.5524    2.5593 C   0  0  0  0  0  0  0  0  0  0  0  0
   -0.9517   -3.0385    1.1309 C   0  0  0  0  0  0  0  0  0  0  0  0
   -2.1299   -2.6973    0.4136 C   0  0  0  0  0  0  0  0  0  0  0  0
   -2.9791   -2.0134    0.9631 O   0  0  0  0  0  0  0  0  0  0  0  0
   -2.2922   -3.1395   -0.8745 N   0  0  0  0  0  0  0  0  0  0  0  0
   -1.3271   -3.9096   -1.4804 C   0  0  0  0  0  0  0  0  0  0  0  0
   -0.1639   -4.2563   -0.7983 C   0  0  0  0  0  0  0  0  0  0  0  0
    0.8300   -5.0340   -1.3826 C   0  0  0  0  0  0  0  0  0  0  0  0
    0.6537   -5.4766   -2.6893 C   0  0  0  0  0  0  0  0  0  0  0  0
   -0.4939   -5.1516   -3.4046 C   0  0  0  0  0  0  0  0  0  0  0  0
   -1.4660   -4.3726   -2.7870 C   0  0  0  0  0  0  0  0  0  0  0  0
    0.0152   -3.8054    0.5357 C   0  0  0  0  0  0  0  0  0  0  0  0
   -3.5325   -2.7554   -1.5693 C   0  0  0  0  0  0  0  0  0  0  0  0
   10.3610    0.9347    0.7368 C   0  0  0  0  0  0  0  0  0  0  0  0
   10.5015    2.0106   -0.3277 C   0  0  0  0  0  0  0  0  0  0  0  0
   11.6074    0.0648    0.7454 C   0  0  0  0  0  0  0  0  0  0  0  0
    9.1453    0.0752    0.4310 C   0  0  0  0  0  0  0  0  0  0  0  0
    8.3263    3.4338    1.0487 H   0  0  0  0  0  0  0  0  0  0  0  0
    5.9346    3.5932    1.0975 H   0  0  0  0  0  0  0  0  0  0  0  0
    5.7649    0.4320    3.7741 H   0  0  0  0  0  0  0  0  0  0  0  0
    8.1563    0.2691    3.7284 H   0  0  0  0  0  0  0  0  0  0  0  0
    0.8951    3.3268    2.5089 H   0  0  0  0  0  0  0  0  0  0  0  0
    1.8104   -1.3093    2.5044 H   0  0  0  0  0  0  0  0  0  0  0  0
   -1.6331   -2.6135    3.0494 H   0  0  0  0  0  0  0  0  0  0  0  0
   -0.0815   -3.1218    3.0181 H   0  0  0  0  0  0  0  0  0  0  0  0
    1.6568   -5.2708   -0.8723 H   0  0  0  0  0  0  0  0  0  0  0  0
    1.3616   -6.0361   -3.1203 H   0  0  0  0  0  0  0  0  0  0  0  0
   -0.6174   -5.4717   -4.3439 H   0  0  0  0  0  0  0  0  0  0  0  0
   -2.2926   -4.1366   -3.2979 H   0  0  0  0  0  0  0  0  0  0  0  0
    0.8445   -4.0468    1.0396 H   0  0  0  0  0  0  0  0  0  0  0  0
   -4.0977   -2.1996   -0.9596 H   0  0  0  0  0  0  0  0  0  0  0  0
   -3.3063   -2.2271   -2.3877 H   0  0  0  0  0  0  0  0  0  0  0  0
   -4.0359   -3.5784   -1.8323 H   0  0  0  0  0  0  0  0  0  0  0  0
   10.6141    1.5806   -1.2234 H   0  0  0  0  0  0  0  0  0  0  0  0
    9.6815    2.5830   -0.3334 H   0  0  0  0  0  0  0  0  0  0  0  0
   11.3014    2.5762   -0.1265 H   0  0  0  0  0  0  0  0  0  0  0  0
   11.7200   -0.3653   -0.1503 H   0  0  0  0  0  0  0  0  0  0  0  0
   12.4072    0.6303    0.9466 H   0  0  0  0  0  0  0  0  0  0  0  0
   11.5150   -0.6431    1.4457 H   0  0  0  0  0  0  0  0  0  0  0  0
    9.2579   -0.3549   -0.4648 H   0  0  0  0  0  0  0  0  0  0  0  0
    9.0529   -0.6327    1.1313 H   0  0  0  0  0  0  0  0  0  0  0  0
    8.3253    0.6475    0.4253 H   0  0  0  0  0  0  0  0  0  0  0  0
  1  2  1  0  0  0  0
  2  3  1  0  0  0  0
  3  4  2  0  0  0  0
  4  5  1  0  0  0  0
  5  6  2  0  0  0  0
  6  7  1  0  0  0  0
  7  2  2  0  0  0  0
  5  8  1  0  0  0  0
  8  9  1  0  0  0  0
  9 10  1  0  0  0  0
 10 11  2  0  0  0  0
 11 12  1  0  0  0  0
  8 12  2  0  0  0  0
 11 13  1  0  0  0  0
 13 14  1  0  0  0  0
 14 15  2  0  0  0  0
 15 16  1  0  0  0  0
 16 17  1  0  0  0  0
 13 17  2  0  0  0  0
 16 18  1  0  0  0  0
 18 19  1  0  0  0  0
 19 20  1  0  0  0  0
 20 21  2  0  0  0  0
 20 22  1  0  0  0  0
 22 23  1  0  0  0  0
 23 24  1  0  0  0  0
 24 25  2  0  0  0  0
 25 26  1  0  0  0  0
 26 27  2  0  0  0  0
 27 28  1  0  0  0  0
 28 23  2  0  0  0  0
 24 29  1  0  0  0  0
 19 29  2  0  0  0  0
 22 30  1  0  0  0  0
  1 31  1  0  0  0  0
 31 32  1  0  0  0  0
 31 33  1  0  0  0  0
 31 34  1  0  0  0  0
  3 35  1  0  0  0  0
  4 36  1  0  0  0  0
  6 37  1  0  0  0  0
  7 38  1  0  0  0  0
 10 39  1  0  0  0  0
 17 40  1  0  0  0  0
 18 41  1  0  0  0  0
 18 42  1  0  0  0  0
 25 43  1  0  0  0  0
 26 44  1  0  0  0  0
 27 45  1  0  0  0  0
 28 46  1  0  0  0  0
 29 47  1  0  0  0  0
 30 48  1  0  0  0  0
 30 49  1  0  0  0  0
 30 50  1  0  0  0  0
 32 51  1  0  0  0  0
 32 52  1  0  0  0  0
 32 53  1  0  0  0  0
 33 54  1  0  0  0  0
 33 55  1  0  0  0  0
 33 56  1  0  0  0  0
 34 57  1  0  0  0  0
 34 58  1  0  0  0  0
 34 59  1  0  0  0  0
M  END
>  <result-rank>
73

>  <similarity>
0.867

>  <query-name>


>  <query-smiles>
S(=O)(=O)(NC(=O)C)c1ccc(cc1)C=2N3C(=NC(=C3)COc4nc5c(cc4)cccc5)C(=NC2)N6CCOCC6

>  <source>
REALspace_2019-12

>  <similarity-descriptor>
0.933;0.0;0.832;0.976;0.960;0.999;0.0;0.0;0.0;0.0;0.999;0.960;0.333

>  <similarity-descriptor-smiles>
S(c1ccccc1)C;;C1=CNN=N1;C1=NC=CS1;C1=CccNC1=O;c1ccccc1;;;;;C;C1=CccNC1=O;C.C.C.C

>  <reaction-name>
m_274972

>  <reagent1-name>
12934342

>  <reagent1-smiles>
[R1*]SC(=N[R2*])c1ccc(SC(C)(C)C)cc1

>  <reagent2-name>
12615770

>  <reagent2-smiles>
[R2*]C(C([R3*])=C[R4*])=C[R1*]

>  <reagent3-name>
13047176

>  <reagent3-smiles>
[R3*]N=NN([R4*])CC=1C(=O)N(c2c(cccc2)C1)C

$$$$
s_22____7874958____9780488
          04022017313D 1   1.00000     0.00000     0
            
 59 64  0  0  0  0            999 V2000
    3.6893    1.6898   -1.5332 S   0  0  0  0  0  0  0  0  0  0  0  0
    3.9580    0.5043   -2.7242 C   0  0  0  0  0  0  0  0  0  0  0  0
    3.5563   -0.6458   -2.2345 N   0  0  0  0  0  0  0  0  0  0  0  0
    3.0411   -0.6044   -0.9629 C   0  0  0  0  0  0  0  0  0  0  0  0
    2.5388   -1.7699   -0.2612 C   0  0  0  0  0  0  0  0  0  0  0  0
    3.1212   -2.1538    0.9423 C   0  0  0  0  0  0  0  0  0  0  0  0
    2.6369   -3.2729    1.6117 C   0  0  0  0  0  0  0  0  0  0  0  0
    1.5770   -3.9982    1.0776 C   0  0  0  0  0  0  0  0  0  0  0  0
    1.0027   -3.6052   -0.1250 C   0  0  0  0  0  0  0  0  0  0  0  0
    1.4784   -2.4884   -0.8043 C   0  0  0  0  0  0  0  0  0  0  0  0
    3.0262    0.6294   -0.3830 C   0  0  0  0  0  0  0  0  0  0  0  0
    2.5200    1.0000    1.0000 C   0  0  0  0  0  0  0  0  0  0  0  0
    1.0000    1.0000    1.0000 C   0  0  0  0  0  0  0  0  0  0  0  0
    0.4000    1.0000   -0.0392 O   0  0  0  0  0  0  0  0  0  0  0  0
    0.3150    1.0000    2.1865 N   0  0  0  0  0  0  0  0  0  0  0  0
   -1.0219    1.4147    2.2230 C   0  0  0  0  0  0  0  0  0  0  0  0
   -1.5806    2.4994    1.5108 C   0  0  0  0  0  0  0  0  0  0  0  0
   -2.8505    2.5329    1.8309 N   0  0  0  0  0  0  0  0  0  0  0  0
   -3.1376    1.5702    2.6758 N   0  0  0  0  0  0  0  0  0  0  0  0
   -4.4062    1.3264    3.2153 C   0  0  0  0  0  0  0  0  0  0  0  0
   -4.6056    1.1817    4.5353 N   0  0  0  0  0  0  0  0  0  0  0  0
   -5.8189    0.9470    5.0546 C   0  0  0  0  0  0  0  0  0  0  0  0
   -6.9134    0.8502    4.1998 C   0  0  0  0  0  0  0  0  0  0  0  0
   -6.7184    0.9949    2.8803 N   0  0  0  0  0  0  0  0  0  0  0  0
   -5.5024    1.2285    2.3636 C   0  0  0  0  0  0  0  0  0  0  0  0
   -8.1788    0.6087    4.7251 C   0  0  0  0  0  0  0  0  0  0  0  0
   -8.3704    0.4601    6.0948 C   0  0  0  0  0  0  0  0  0  0  0  0
   -7.2747    0.5566    6.9460 C   0  0  0  0  0  0  0  0  0  0  0  0
   -6.0085    0.7993    6.4246 C   0  0  0  0  0  0  0  0  0  0  0  0
   -2.0197    0.8425    2.9506 C   0  0  0  0  0  0  0  0  0  0  0  0
    4.5117    0.7466   -3.9905 N   0  0  0  0  0  0  0  0  0  0  0  0
    4.6645   -0.3722   -4.9337 C   0  0  0  0  0  0  0  0  0  0  0  0
    4.4903    0.0978   -6.3696 C   0  0  0  0  0  0  0  0  0  0  0  0
    5.2225    1.2909   -6.6189 O   0  0  0  0  0  0  0  0  0  0  0  0
    4.7132    2.3658   -5.8404 C   0  0  0  0  0  0  0  0  0  0  0  0
    4.9037    2.1173   -4.3519 C   0  0  0  0  0  0  0  0  0  0  0  0
    3.8824   -1.6291    1.3235 H   0  0  0  0  0  0  0  0  0  0  0  0
    3.0507   -3.5560    2.4769 H   0  0  0  0  0  0  0  0  0  0  0  0
    1.2284   -4.8024    1.5590 H   0  0  0  0  0  0  0  0  0  0  0  0
    0.2410   -4.1297   -0.5055 H   0  0  0  0  0  0  0  0  0  0  0  0
    1.0644   -2.2062   -1.6698 H   0  0  0  0  0  0  0  0  0  0  0  0
    2.8533    0.3333    1.6667 H   0  0  0  0  0  0  0  0  0  0  0  0
    2.8533    1.9107    1.2440 H   0  0  0  0  0  0  0  0  0  0  0  0
    0.7698    0.7038    3.0264 H   0  0  0  0  0  0  0  0  0  0  0  0
   -1.1025    3.1179    0.8872 H   0  0  0  0  0  0  0  0  0  0  0  0
   -5.3849    1.3313    1.3759 H   0  0  0  0  0  0  0  0  0  0  0  0
   -8.9629    0.5408    4.1082 H   0  0  0  0  0  0  0  0  0  0  0  0
   -9.2839    0.2862    6.4627 H   0  0  0  0  0  0  0  0  0  0  0  0
   -7.3973    0.4515    7.9329 H   0  0  0  0  0  0  0  0  0  0  0  0
   -5.2250    0.8686    7.0421 H   0  0  0  0  0  0  0  0  0  0  0  0
   -1.9472    0.0528    3.5597 H   0  0  0  0  0  0  0  0  0  0  0  0
    3.9746   -1.0672   -4.7311 H   0  0  0  0  0  0  0  0  0  0  0  0
    5.5769   -0.7674   -4.8273 H   0  0  0  0  0  0  0  0  0  0  0  0
    4.8150   -0.6181   -6.9877 H   0  0  0  0  0  0  0  0  0  0  0  0
    3.5201    0.2703   -6.5398 H   0  0  0  0  0  0  0  0  0  0  0  0
    3.7368    2.4697   -6.0299 H   0  0  0  0  0  0  0  0  0  0  0  0
    5.1931    3.2058   -6.0934 H   0  0  0  0  0  0  0  0  0  0  0  0
    5.8664    2.2543   -4.1184 H   0  0  0  0  0  0  0  0  0  0  0  0
    4.3407    2.7645   -3.8379 H   0  0  0  0  0  0  0  0  0  0  0  0
  1  2  1  0  0  0  0
  2  3  2  0  0  0  0
  3  4  1  0  0  0  0
  4  5  1  0  0  0  0
  5  6  1  0  0  0  0
  6  7  2  0  0  0  0
  7  8  1  0  0  0  0
  8  9  2  0  0  0  0
  9 10  1  0  0  0  0
 10  5  2  0  0  0  0
  4 11  2  0  0  0  0
 11  1  1  0  0  0  0
 11 12  1  0  0  0  0
 12 13  1  0  0  0  0
 13 14  2  0  0  0  0
 13 15  1  0  0  0  0
 15 16  1  0  0  0  0
 16 17  1  0  0  0  0
 17 18  2  0  0  0  0
 18 19  1  0  0  0  0
 19 20  1  0  0  0  0
 20 21  1  0  0  0  0
 21 22  2  0  0  0  0
 22 23  1  0  0  0  0
 23 24  2  0  0  0  0
 24 25  1  0  0  0  0
 25 20  2  0  0  0  0
 23 26  1  0  0  0  0
 26 27  2  0  0  0  0
 27 28  1  0  0  0  0
 28 29  2  0  0  0  0
 29 22  1  0  0  0  0
 19 30  1  0  0  0  0
 16 30  2  0  0  0  0
  2 31  1  0  0  0  0
 31 32  1  0  0  0  0
 32 33  1  0  0  0  0
 33 34  1  0  0  0  0
 34 35  1  0  0  0  0
 35 36  1  0  0  0  0
 36 31  1  0  0  0  0
  6 37  1  0  0  0  0
  7 38  1  0  0  0  0
  8 39  1  0  0  0  0
  9 40  1  0  0  0  0
 10 41  1  0  0  0  0
 12 42  1  0  0  0  0
 12 43  1  0  0  0  0
 15 44  1  0  0  0  0
 17 45  1  0  0  0  0
 25 46  1  0  0  0  0
 26 47  1  0  0  0  0
 27 48  1  0  0  0  0
 28 49  1  0  0  0  0
 29 50  1  0  0  0  0
 30 51  1  0  0  0  0
 32 52  1  0  0  0  0
 32 53  1  0  0  0  0
 33 54  1  0  0  0  0
 33 55  1  0  0  0  0
 35 56  1  0  0  0  0
 35 57  1  0  0  0  0
 36 58  1  0  0  0  0
 36 59  1  0  0  0  0
M  END
>  <result-rank>
74

>  <similarity>
0.867

>  <query-name>


>  <query-smiles>
S(=O)(=O)(NC(=O)C)c1ccc(cc1)C=2N3C(=NC(=C3)COc4nc5c(cc4)cccc5)C(=NC2)N6CCOCC6

>  <source>
REALspace_2019-12

>  <similarity-descriptor>
0.959;1.000;0.916;0.637;0.913;0.999;0.0;0.0;0.0;0.0;0.916;0.913;0.0

>  <similarity-descriptor-smiles>
c1ccccc1;N1CCOCC1;C1=CNN=C1;S1C(=CN=C1)CC(=O)N;c1cnccn1;c1ccccc1;;;;;C1=CNN=C1;c1cnccn1;

>  <reaction-name>
s_22

>  <reagent1-name>
7874958

>  <reagent1-smiles>
[R1*]NC=1C=NN(c2nc3c(nc2)cccc3)C1

>  <reagent2-name>
9780488

>  <reagent2-smiles>
[R1*]C(=O)CC=1SC(=NC1c2ccccc2)N3CCOCC3

$$$$
m_274972____12934174____12615770____13046636
          04022017313D 1   1.00000     0.00000     0
            
 50 54  0  0  0  0            999 V2000
    4.5044   -4.7455    1.0049 S   0  0  0  0  0  0  0  0  0  0  0  0
    4.0241   -5.4228    2.1814 O   0  0  0  0  0  0  0  0  0  0  0  0
    4.0258   -5.4265   -0.1701 O   0  0  0  0  0  0  0  0  0  0  0  0
    6.1344   -4.7442    1.0061 N   0  0  0  0  0  0  0  0  0  0  0  0
    3.8997   -3.0395    1.0018 C   0  0  0  0  0  0  0  0  0  0  0  0
    3.6694   -2.3893   -0.2058 C   0  0  0  0  0  0  0  0  0  0  0  0
    3.2047   -1.0780   -0.2108 C   0  0  0  0  0  0  0  0  0  0  0  0
    2.9766   -0.4329    1.0000 C   0  0  0  0  0  0  0  0  0  0  0  0
    3.2076   -1.0837    2.2075 C   0  0  0  0  0  0  0  0  0  0  0  0
    3.6715   -2.3946    2.2131 C   0  0  0  0  0  0  0  0  0  0  0  0
    2.4700    1.0000    1.0000 C   0  0  0  0  0  0  0  0  0  0  0  0
    1.0000    1.0000    1.0000 N   0  0  0  0  0  0  0  0  0  0  0  0
    0.3009    1.0000    2.2109 C   0  0  0  0  0  0  0  0  0  0  0  0
   -1.3907    1.0000    2.3985 S   0  0  0  0  0  0  0  0  0  0  0  0
   -1.4205    1.0037    4.1013 C   0  0  0  0  0  0  0  0  0  0  0  0
   -0.1058    1.0085    4.4423 C   0  0  0  0  0  0  0  0  0  0  0  0
    0.8049    1.0089    3.4194 N   0  0  0  0  0  0  0  0  0  0  0  0
    0.2348    1.0177    5.8524 C   0  0  0  0  0  0  0  0  0  0  0  0
   -0.6460    1.0177    6.8918 N   0  0  0  0  0  0  0  0  0  0  0  0
    0.0197    1.0276    7.9646 N   0  0  0  0  0  0  0  0  0  0  0  0
    1.3069    1.0287    7.7175 N   0  0  0  0  0  0  0  0  0  0  0  0
    2.3217    1.0363    8.6817 C   0  0  0  0  0  0  0  0  0  0  0  0
    3.6509    1.0364    8.2718 C   0  0  0  0  0  0  0  0  0  0  0  0
    4.6591    1.0442    9.2306 C   0  0  0  0  0  0  0  0  0  0  0  0
    4.3306    1.0523   10.5828 C   0  0  0  0  0  0  0  0  0  0  0  0
    2.9986    1.0521   10.9838 C   0  0  0  0  0  0  0  0  0  0  0  0
    1.9846    1.0439   10.0311 C   0  0  0  0  0  0  0  0  0  0  0  0
    5.3333    1.0612   11.5468 C   0  0  0  0  0  0  0  0  0  0  0  0
    6.6629    1.0615   11.1387 C   0  0  0  0  0  0  0  0  0  0  0  0
    6.9943    1.0538    9.7877 C   0  0  0  0  0  0  0  0  0  0  0  0
    5.9898    1.0450    8.8261 C   0  0  0  0  0  0  0  0  0  0  0  0
    1.4905    1.0219    6.3703 C   0  0  0  0  0  0  0  0  0  0  0  0
    6.4679   -4.2738    0.1891 H   0  0  0  0  0  0  0  0  0  0  0  0
    6.4668   -4.2712    1.8221 H   0  0  0  0  0  0  0  0  0  0  0  0
    3.8377   -2.8639   -1.0697 H   0  0  0  0  0  0  0  0  0  0  0  0
    3.0365   -0.6046   -1.0754 H   0  0  0  0  0  0  0  0  0  0  0  0
    3.0401   -0.6089    3.0714 H   0  0  0  0  0  0  0  0  0  0  0  0
    3.8391   -2.8681    3.0778 H   0  0  0  0  0  0  0  0  0  0  0  0
    2.8033    1.4714    1.8165 H   0  0  0  0  0  0  0  0  0  0  0  0
    2.8033    1.4714    0.1835 H   0  0  0  0  0  0  0  0  0  0  0  0
    0.5000    1.0000    0.1340 H   0  0  0  0  0  0  0  0  0  0  0  0
   -2.2168    1.0025    4.7063 H   0  0  0  0  0  0  0  0  0  0  0  0
    3.8795    1.0310    7.2982 H   0  0  0  0  0  0  0  0  0  0  0  0
    2.7698    1.0580   11.9573 H   0  0  0  0  0  0  0  0  0  0  0  0
    1.0252    1.0434   10.3131 H   0  0  0  0  0  0  0  0  0  0  0  0
    5.1015    1.0674   12.5196 H   0  0  0  0  0  0  0  0  0  0  0  0
    7.3900    1.0672   11.8252 H   0  0  0  0  0  0  0  0  0  0  0  0
    7.9544    1.0547    9.5081 H   0  0  0  0  0  0  0  0  0  0  0  0
    6.2219    1.0391    7.8534 H   0  0  0  0  0  0  0  0  0  0  0  0
    2.3573    1.0203    5.8716 H   0  0  0  0  0  0  0  0  0  0  0  0
  1  2  2  0  0  0  0
  1  3  2  0  0  0  0
  1  4  1  0  0  0  0
  1  5  1  0  0  0  0
  5  6  1  0  0  0  0
  6  7  2  0  0  0  0
  7  8  1  0  0  0  0
  8  9  2  0  0  0  0
  9 10  1  0  0  0  0
 10  5  2  0  0  0  0
  8 11  1  0  0  0  0
 11 12  1  0  0  0  0
 12 13  1  0  0  0  0
 13 14  1  0  0  0  0
 14 15  1  0  0  0  0
 15 16  2  0  0  0  0
 16 17  1  0  0  0  0
 13 17  2  0  0  0  0
 16 18  1  0  0  0  0
 18 19  1  0  0  0  0
 19 20  2  0  0  0  0
 20 21  1  0  0  0  0
 21 22  1  0  0  0  0
 22 23  1  0  0  0  0
 23 24  2  0  0  0  0
 24 25  1  0  0  0  0
 25 26  2  0  0  0  0
 26 27  1  0  0  0  0
 27 22  2  0  0  0  0
 25 28  1  0  0  0  0
 28 29  2  0  0  0  0
 29 30  1  0  0  0  0
 30 31  2  0  0  0  0
 31 24  1  0  0  0  0
 21 32  1  0  0  0  0
 18 32  2  0  0  0  0
  4 33  1  0  0  0  0
  4 34  1  0  0  0  0
  6 35  1  0  0  0  0
  7 36  1  0  0  0  0
  9 37  1  0  0  0  0
 10 38  1  0  0  0  0
 11 39  1  0  0  0  0
 11 40  1  0  0  0  0
 12 41  1  0  0  0  0
 15 42  1  0  0  0  0
 23 43  1  0  0  0  0
 26 44  1  0  0  0  0
 27 45  1  0  0  0  0
 28 46  1  0  0  0  0
 29 47  1  0  0  0  0
 30 48  1  0  0  0  0
 31 49  1  0  0  0  0
 32 50  1  0  0  0  0
M  END
>  <result-rank>
75

>  <similarity>
0.866

>  <query-name>


>  <query-smiles>
S(=O)(=O)(NC(=O)C)c1ccc(cc1)C=2N3C(=NC(=C3)COc4nc5c(cc4)cccc5)C(=NC2)N6CCOCC6

>  <source>
REALspace_2019-12

>  <similarity-descriptor>
0.852;0.0;0.889;0.973;0.831;0.999;1.000;0.588;0.0;0.0;0.889;0.889;0.0

>  <similarity-descriptor-smiles>
c1ccc(cc1)CN;;C1=CNN=N1;C1=NC=CS1;c1ccccc1;c1ccccc1;S(=O)=O;N;;;C1=CNN=N1;C1=CNN=N1;

>  <reaction-name>
m_274972

>  <reagent1-name>
12934174

>  <reagent1-smiles>
[R1*]SC(=N[R2*])NCc1ccc(S(=O)(=O)N)cc1

>  <reagent2-name>
12615770

>  <reagent2-smiles>
[R2*]C(C([R3*])=C[R4*])=C[R1*]

>  <reagent3-name>
13046636

>  <reagent3-smiles>
[R3*]N=NN([R4*])c1cc2c(cc1)cccc2

$$$$
m_274972____12934174____12615770____13046748
          04022017313D 1   1.00000     0.00000     0
            
 50 54  0  0  0  0            999 V2000
   -0.7479    6.3529   -2.6854 S   0  0  0  0  0  0  0  0  0  0  0  0
    0.5111    6.8193   -3.2059 O   0  0  0  0  0  0  0  0  0  0  0  0
   -1.5262    5.7803   -3.7531 O   0  0  0  0  0  0  0  0  0  0  0  0
   -1.5619    7.6039   -2.0302 N   0  0  0  0  0  0  0  0  0  0  0  0
   -0.4483    5.0973   -1.4167 C   0  0  0  0  0  0  0  0  0  0  0  0
   -1.3789    4.0843   -1.2124 C   0  0  0  0  0  0  0  0  0  0  0  0
   -1.1509    3.1181   -0.2378 C   0  0  0  0  0  0  0  0  0  0  0  0
    0.0117    3.1807    0.5229 C   0  0  0  0  0  0  0  0  0  0  0  0
    0.9419    4.1946    0.3183 C   0  0  0  0  0  0  0  0  0  0  0  0
    0.7149    5.1603   -0.6561 C   0  0  0  0  0  0  0  0  0  0  0  0
    0.2650    2.1283    1.5896 C   0  0  0  0  0  0  0  0  0  0  0  0
    1.0000    1.0000    1.0000 N   0  0  0  0  0  0  0  0  0  0  0  0
    2.3983    1.0000    1.0000 C   0  0  0  0  0  0  0  0  0  0  0  0
    3.4065   -0.2152    0.3650 S   0  0  0  0  0  0  0  0  0  0  0  0
    4.8961    0.5148    0.7506 C   0  0  0  0  0  0  0  0  0  0  0  0
    4.5340    1.6728    1.3612 C   0  0  0  0  0  0  0  0  0  0  0  0
    3.1928    1.9183    1.4899 N   0  0  0  0  0  0  0  0  0  0  0  0
    5.5842    2.5541    1.8321 C   0  0  0  0  0  0  0  0  0  0  0  0
    6.9228    2.3351    1.7176 N   0  0  0  0  0  0  0  0  0  0  0  0
    7.5127    3.3201    2.2440 N   0  0  0  0  0  0  0  0  0  0  0  0
    6.6587    4.1966    2.7121 N   0  0  0  0  0  0  0  0  0  0  0  0
    5.4020    3.7430    2.4694 C   0  0  0  0  0  0  0  0  0  0  0  0
    7.0043    5.4559    3.3871 C   0  0  0  0  0  0  0  0  0  0  0  0
    7.1256    6.5668    2.3561 C   0  0  0  0  0  0  0  0  0  0  0  0
    6.1097    7.3769    1.9404 N   0  0  0  0  0  0  0  0  0  0  0  0
    6.6008    8.2067    1.0498 C   0  0  0  0  0  0  0  0  0  0  0  0
    7.9205    7.9522    0.8765 N   0  0  0  0  0  0  0  0  0  0  0  0
    8.2631    6.9179    1.6959 C   0  0  0  0  0  0  0  0  0  0  0  0
    8.6673    8.6866   -0.0083 C   0  0  0  0  0  0  0  0  0  0  0  0
    8.0890    9.6951   -0.7353 C   0  0  0  0  0  0  0  0  0  0  0  0
    6.7071    9.9847   -0.5743 C   0  0  0  0  0  0  0  0  0  0  0  0
    5.9709    9.2433    0.3122 C   0  0  0  0  0  0  0  0  0  0  0  0
   -2.4362    7.2800   -1.6687 H   0  0  0  0  0  0  0  0  0  0  0  0
   -1.0214    8.0016   -1.2887 H   0  0  0  0  0  0  0  0  0  0  0  0
   -2.2113    4.0504   -1.7656 H   0  0  0  0  0  0  0  0  0  0  0  0
   -1.8156    2.3866   -0.0859 H   0  0  0  0  0  0  0  0  0  0  0  0
    1.7739    4.2289    0.8720 H   0  0  0  0  0  0  0  0  0  0  0  0
    1.3799    5.8914   -0.8084 H   0  0  0  0  0  0  0  0  0  0  0  0
    0.8054    2.5276    2.3302 H   0  0  0  0  0  0  0  0  0  0  0  0
   -0.6088    1.8040    1.9520 H   0  0  0  0  0  0  0  0  0  0  0  0
    0.5000    0.2325    0.5989 H   0  0  0  0  0  0  0  0  0  0  0  0
    5.8182    0.1722    0.5703 H   0  0  0  0  0  0  0  0  0  0  0  0
    4.5361    4.1839    2.7060 H   0  0  0  0  0  0  0  0  0  0  0  0
    7.8756    5.3492    3.8661 H   0  0  0  0  0  0  0  0  0  0  0  0
    6.2884    5.6887    4.0453 H   0  0  0  0  0  0  0  0  0  0  0  0
    9.1671    6.5014    1.7925 H   0  0  0  0  0  0  0  0  0  0  0  0
    9.6400    8.4855   -0.1240 H   0  0  0  0  0  0  0  0  0  0  0  0
    8.6396   10.2267   -1.3789 H   0  0  0  0  0  0  0  0  0  0  0  0
    6.2782   10.7191   -1.1003 H   0  0  0  0  0  0  0  0  0  0  0  0
    4.9968    9.4310    0.4386 H   0  0  0  0  0  0  0  0  0  0  0  0
  1  2  2  0  0  0  0
  1  3  2  0  0  0  0
  1  4  1  0  0  0  0
  1  5  1  0  0  0  0
  5  6  1  0  0  0  0
  6  7  2  0  0  0  0
  7  8  1  0  0  0  0
  8  9  2  0  0  0  0
  9 10  1  0  0  0  0
 10  5  2  0  0  0  0
  8 11  1  0  0  0  0
 11 12  1  0  0  0  0
 12 13  1  0  0  0  0
 13 14  1  0  0  0  0
 14 15  1  0  0  0  0
 15 16  2  0  0  0  0
 16 17  1  0  0  0  0
 13 17  2  0  0  0  0
 16 18  1  0  0  0  0
 18 19  1  0  0  0  0
 19 20  2  0  0  0  0
 20 21  1  0  0  0  0
 21 22  1  0  0  0  0
 18 22  2  0  0  0  0
 21 23  1  0  0  0  0
 23 24  1  0  0  0  0
 24 25  1  0  0  0  0
 25 26  2  0  0  0  0
 26 27  1  0  0  0  0
 27 28  1  0  0  0  0
 24 28  2  0  0  0  0
 27 29  1  0  0  0  0
 29 30  2  0  0  0  0
 30 31  1  0  0  0  0
 31 32  2  0  0  0  0
 32 26  1  0  0  0  0
  4 33  1  0  0  0  0
  4 34  1  0  0  0  0
  6 35  1  0  0  0  0
  7 36  1  0  0  0  0
  9 37  1  0  0  0  0
 10 38  1  0  0  0  0
 11 39  1  0  0  0  0
 11 40  1  0  0  0  0
 12 41  1  0  0  0  0
 15 42  1  0  0  0  0
 22 43  1  0  0  0  0
 23 44  1  0  0  0  0
 23 45  1  0  0  0  0
 28 46  1  0  0  0  0
 29 47  1  0  0  0  0
 30 48  1  0  0  0  0
 31 49  1  0  0  0  0
 32 50  1  0  0  0  0
M  END
>  <result-rank>
76

>  <similarity>
0.866

>  <query-name>


>  <query-smiles>
S(=O)(=O)(NC(=O)C)c1ccc(cc1)C=2N3C(=NC(=C3)COc4nc5c(cc4)cccc5)C(=NC2)N6CCOCC6

>  <source>
REALspace_2019-12

>  <similarity-descriptor>
0.852;0.0;0.889;0.973;0.860;0.969;1.000;0.588;0.0;0.0;0.889;0.889;0.0

>  <similarity-descriptor-smiles>
c1ccc(cc1)CN;;C1=CNN=N1;C1=NC=CS1;CC1=CNC=N1;C1C=CC=CN1;S(=O)=O;N;;;C1=CNN=N1;C1=CNN=N1;

>  <reaction-name>
m_274972

>  <reagent1-name>
12934174

>  <reagent1-smiles>
[R1*]SC(=N[R2*])NCc1ccc(S(=O)(=O)N)cc1

>  <reagent2-name>
12615770

>  <reagent2-smiles>
[R2*]C(C([R3*])=C[R4*])=C[R1*]

>  <reagent3-name>
13046748

>  <reagent3-smiles>
[R3*]N=NN([R4*])CC=1N=C2N(C1)C=CC=C2

$$$$
s_2230a____17321138____7466628
          04022017313D 1   1.00000     0.00000     0
            
 61 65  0  0  0  0            999 V2000
   -7.6971   -4.0149    2.2310 Br  0  0  0  0  0  0  0  0  0  0  0  0
   -6.2771   -2.6639    2.2207 C   0  0  0  0  0  0  0  0  0  0  0  0
   -6.6106   -1.3132    2.2113 C   0  0  0  0  0  0  0  0  0  0  0  0
   -5.6001   -0.3574    2.2028 C   0  0  0  0  0  0  0  0  0  0  0  0
   -4.2693   -0.7629    2.2042 C   0  0  0  0  0  0  0  0  0  0  0  0
   -3.9410   -2.1140    2.2137 C   0  0  0  0  0  0  0  0  0  0  0  0
   -4.9476   -3.0746    2.2216 C   0  0  0  0  0  0  0  0  0  0  0  0
   -3.2190    0.2365    2.1950 C   0  0  0  0  0  0  0  0  0  0  0  0
   -1.8778   -0.0408    2.1953 N   0  0  0  0  0  0  0  0  0  0  0  0
   -1.0833    1.0000    2.1865 C   0  0  0  0  0  0  0  0  0  0  0  0
   -2.0915    2.3712    2.1865 S   0  0  0  0  0  0  0  0  0  0  0  0
   -3.5811    1.5456    2.1901 C   0  0  0  0  0  0  0  0  0  0  0  0
    0.3150    1.0000    2.1865 N   0  0  0  0  0  0  0  0  0  0  0  0
    1.0000    1.0000    1.0000 C   0  0  0  0  0  0  0  0  0  0  0  0
    0.4000    1.0000   -0.0392 O   0  0  0  0  0  0  0  0  0  0  0  0
    2.5200    1.0000    1.0000 C   0  0  0  0  0  0  0  0  0  0  0  0
    3.0100    1.0000   -0.3859 N   0  3  0  0  0  0  0  0  0  0  0  0
    4.4800    1.0000   -0.3859 C   0  0  3  0  0  0  0  0  0  0  0  0
    4.9868    1.0000   -1.8194 C   0  0  0  0  0  0  0  0  0  0  0  0
    4.1782    1.0000   -2.9757 C   0  0  0  0  0  0  0  0  0  0  0  0
    5.0982    0.9987   -3.9985 C   0  0  0  0  0  0  0  0  0  0  0  0
    6.3155    0.9960   -3.5034 O   0  0  0  0  0  0  0  0  0  0  0  0
    6.2970    0.9970   -2.1926 C   0  0  0  0  0  0  0  0  0  0  0  0
    4.6353    0.9878   -5.3117 C   0  0  0  0  0  0  0  0  0  0  0  0
    3.2752    0.9812   -5.6072 C   0  0  0  0  0  0  0  0  0  0  0  0
    2.3515    0.9838   -4.5678 C   0  0  0  0  0  0  0  0  0  0  0  0
    2.8147    0.9936   -3.2569 C   0  0  0  0  0  0  0  0  0  0  0  0
    4.9867    2.2411    0.3306 C   0  0  0  0  0  0  0  0  0  0  0  0
    1.0500    1.0000    3.4595 C   0  0  0  0  0  0  0  0  0  0  0  0
    1.3032   -0.4323    3.8981 C   0  0  3  0  0  0  0  0  0  0  0  0
    0.0791   -1.1185    4.0734 O   0  0  0  0  0  0  0  0  0  0  0  0
    0.3774   -2.2576    4.8692 C   0  0  0  0  0  0  0  0  0  0  0  0
    1.5937   -1.8892    5.6960 C   0  0  0  0  0  0  0  0  0  0  0  0
    1.8947   -0.4596    5.2891 C   0  0  0  0  0  0  0  0  0  0  0  0
    2.6767    0.1835   -0.8573 H   0  0  0  0  0  0  0  0  0  0  0  0
    2.6767    1.8165   -0.8573 H   0  0  0  0  0  0  0  0  0  0  0  0
   -7.5701   -1.0315    2.2106 H   0  0  0  0  0  0  0  0  0  0  0  0
   -5.8290    0.6161    2.1959 H   0  0  0  0  0  0  0  0  0  0  0  0
   -2.9814   -2.3954    2.2149 H   0  0  0  0  0  0  0  0  0  0  0  0
   -4.7184   -4.0479    2.2279 H   0  0  0  0  0  0  0  0  0  0  0  0
   -4.5032    1.9326    2.1890 H   0  0  0  0  0  0  0  0  0  0  0  0
    2.8533    1.8165    1.4714 H   0  0  0  0  0  0  0  0  0  0  0  0
    2.8533    0.1835    1.4714 H   0  0  0  0  0  0  0  0  0  0  0  0
    4.8133    0.1835    0.0855 H   0  0  0  0  0  0  0  0  0  0  0  0
    7.0908    0.9959   -1.5845 H   0  0  0  0  0  0  0  0  0  0  0  0
    5.2968    0.9848   -6.0615 H   0  0  0  0  0  0  0  0  0  0  0  0
    2.9652    0.9746   -6.5579 H   0  0  0  0  0  0  0  0  0  0  0  0
    1.3701    0.9786   -4.7599 H   0  0  0  0  0  0  0  0  0  0  0  0
    2.1574    0.9962   -2.5032 H   0  0  0  0  0  0  0  0  0  0  0  0
    5.9867    2.2411    0.3306 H   0  0  0  0  0  0  0  0  0  0  0  0
    4.6533    3.0576   -0.1408 H   0  0  0  0  0  0  0  0  0  0  0  0
    4.6533    2.2411    1.2734 H   0  0  0  0  0  0  0  0  0  0  0  0
    0.5096    1.4714    4.1564 H   0  0  0  0  0  0  0  0  0  0  0  0
    1.9238    1.4714    3.3399 H   0  0  0  0  0  0  0  0  0  0  0  0
    1.8932   -0.9093    3.2466 H   0  0  0  0  0  0  0  0  0  0  0  0
    0.5799   -3.0444    4.2862 H   0  0  0  0  0  0  0  0  0  0  0  0
   -0.3947   -2.4751    5.4663 H   0  0  0  0  0  0  0  0  0  0  0  0
    2.3642   -2.4895    5.4817 H   0  0  0  0  0  0  0  0  0  0  0  0
    1.3894   -1.9451    6.6733 H   0  0  0  0  0  0  0  0  0  0  0  0
    1.4449    0.1978    5.8935 H   0  0  0  0  0  0  0  0  0  0  0  0
    2.8784   -0.2802    5.2745 H   0  0  0  0  0  0  0  0  0  0  0  0
  1  2  1  0  0  0  0
  2  3  1  0  0  0  0
  3  4  2  0  0  0  0
  4  5  1  0  0  0  0
  5  6  2  0  0  0  0
  6  7  1  0  0  0  0
  7  2  2  0  0  0  0
  5  8  1  0  0  0  0
  8  9  1  0  0  0  0
  9 10  2  0  0  0  0
 10 11  1  0  0  0  0
 11 12  1  0  0  0  0
  8 12  2  0  0  0  0
 10 13  1  0  0  0  0
 13 14  1  0  0  0  0
 14 15  2  0  0  0  0
 14 16  1  0  0  0  0
 16 17  1  0  0  0  0
 17 18  1  0  0  0  0
 18 19  1  0  0  0  0
 19 20  1  0  0  0  0
 20 21  1  0  0  0  0
 21 22  1  0  0  0  0
 22 23  1  0  0  0  0
 19 23  2  0  0  0  0
 21 24  2  0  0  0  0
 24 25  1  0  0  0  0
 25 26  2  0  0  0  0
 26 27  1  0  0  0  0
 27 20  2  0  0  0  0
 18 28  1  0  0  0  0
 13 29  1  0  0  0  0
 29 30  1  0  0  0  0
 30 31  1  0  0  0  0
 31 32  1  0  0  0  0
 32 33  1  0  0  0  0
 33 34  1  0  0  0  0
 34 30  1  0  0  0  0
 17 35  1  0  0  0  0
 17 36  1  0  0  0  0
  3 37  1  0  0  0  0
  4 38  1  0  0  0  0
  6 39  1  0  0  0  0
  7 40  1  0  0  0  0
 12 41  1  0  0  0  0
 16 42  1  0  0  0  0
 16 43  1  0  0  0  0
 18 44  1  0  0  0  0
 23 45  1  0  0  0  0
 24 46  1  0  0  0  0
 25 47  1  0  0  0  0
 26 48  1  0  0  0  0
 27 49  1  0  0  0  0
 28 50  1  0  0  0  0
 28 51  1  0  0  0  0
 28 52  1  0  0  0  0
 29 53  1  0  0  0  0
 29 54  1  0  0  0  0
 30 55  1  0  0  0  0
 32 56  1  0  0  0  0
 32 57  1  0  0  0  0
 33 58  1  0  0  0  0
 33 59  1  0  0  0  0
 34 60  1  0  0  0  0
 34 61  1  0  0  0  0
M  CHG  1  17   1
M  END
>  <result-rank>
77

>  <similarity>
0.866

>  <query-name>


>  <query-smiles>
S(=O)(=O)(NC(=O)C)c1ccc(cc1)C=2N3C(=NC(=C3)COc4nc5c(cc4)cccc5)C(=NC2)N6CCOCC6

>  <source>
REALspace_2019-12

>  <similarity-descriptor>
0.961;0.956;0.523;0.963;0.901;0.999;0.0;0.0;0.0;0.0;0.999;0.278;0.083

>  <similarity-descriptor-smiles>
Brc1ccccc1;CC1CCCO1;C=O;C1=CSC(=N1)N;CC1=COcc1;c1ccccc1;;;;;C;[NH2+];C

>  <reaction-name>
s_2230a

>  <reagent1-name>
17321138

>  <reagent1-smiles>
[R1*]NC(C=1c2c(OC1)cccc2)C

>  <reagent2-name>
7466628

>  <reagent2-smiles>
[R1*]CC(=O)N(C=1SC=C(N1)c2ccc(Br)cc2)CC3OCCC3

$$$$
s_1458____1722010____9746902
          04022017313D 1   1.00000     0.00000     0
            
 57 60  0  0  0  0            999 V2000
    5.4655   -1.3141   -6.8938 S   0  0  0  0  0  0  0  0  0  0  0  0
    4.6054   -2.1173   -7.7237 O   0  0  0  0  0  0  0  0  0  0  0  0
    5.6414   -0.0185   -7.4972 O   0  0  0  0  0  0  0  0  0  0  0  0
    6.9146   -2.0454   -6.7450 N   0  0  0  0  0  0  0  0  0  0  0  0
    4.7450   -1.1266   -5.3215 C   0  0  0  0  0  0  0  0  0  0  0  0
    5.2070   -0.1314   -4.4667 C   0  0  0  0  0  0  0  0  0  0  0  0
    4.6274    0.0131   -3.2108 C   0  0  0  0  0  0  0  0  0  0  0  0
    3.5953   -0.8351   -2.8239 C   0  0  0  0  0  0  0  0  0  0  0  0
    3.0168   -0.6833   -1.5579 N   0  0  0  0  0  0  0  0  0  0  0  0
    3.1513   -1.5251   -0.5605 N   0  0  0  0  0  0  0  0  0  0  0  0
    2.4864   -1.0940    0.4802 C   0  0  0  0  0  0  0  0  0  0  0  0
    1.8773    0.1227    0.1227 C   0  0  0  0  0  0  0  0  0  0  0  0
    2.2322    0.3543   -1.1718 C   0  0  0  0  0  0  0  0  0  0  0  0
    1.8232    1.5484   -2.0185 C   0  0  0  0  0  0  0  0  0  0  0  0
    1.0000    1.0000    1.0000 C   0  0  0  0  0  0  0  0  0  0  0  0
    1.8776    1.8776    1.8776 C   0  0  0  0  0  0  0  0  0  0  0  0
    1.0000    2.7551    2.7551 C   0  0  0  0  0  0  0  0  0  0  0  0
   -0.1949    2.6773    2.6773 O   0  0  0  0  0  0  0  0  0  0  0  0
    1.5481    3.5965    3.5965 O   0  0  0  0  0  0  0  0  0  0  0  0
    0.7283    4.4163    4.4163 C   0  0  0  0  0  0  0  0  0  0  0  0
    1.6059    5.2939    5.2939 C   0  0  0  0  0  0  0  0  0  0  0  0
    2.0232    6.5523    4.8702 C   0  0  0  0  0  0  0  0  0  0  0  0
    2.7974    7.3082    5.6642 N   0  0  0  0  0  0  0  0  0  0  0  0
    3.1921    6.8884    6.8768 C   0  0  0  0  0  0  0  0  0  0  0  0
    2.8008    5.6366    7.3455 C   0  0  0  0  0  0  0  0  0  0  0  0
    1.9983    4.8305    6.5449 C   0  0  0  0  0  0  0  0  0  0  0  0
    3.1919    5.1725    8.5969 C   0  0  0  0  0  0  0  0  0  0  0  0
    3.9935    5.9789    9.3989 C   0  0  0  0  0  0  0  0  0  0  0  0
    4.3937    7.2330    8.9472 C   0  0  0  0  0  0  0  0  0  0  0  0
    3.9928    7.6802    7.6926 C   0  0  0  0  0  0  0  0  0  0  0  0
    2.3905   -1.7797    1.8324 C   0  0  0  0  0  0  0  0  0  0  0  0
    3.1384   -1.8281   -3.6831 C   0  0  0  0  0  0  0  0  0  0  0  0
    3.7136   -1.9783   -4.9403 C   0  0  0  0  0  0  0  0  0  0  0  0
    7.5119   -1.4876   -6.1687 H   0  0  0  0  0  0  0  0  0  0  0  0
    6.7924   -2.9451   -6.3260 H   0  0  0  0  0  0  0  0  0  0  0  0
    5.9491    0.4748   -4.7526 H   0  0  0  0  0  0  0  0  0  0  0  0
    4.9518    0.7248   -2.5877 H   0  0  0  0  0  0  0  0  0  0  0  0
    1.2427    2.1572   -1.4778 H   0  0  0  0  0  0  0  0  0  0  0  0
    2.6405    2.0429   -2.3143 H   0  0  0  0  0  0  0  0  0  0  0  0
    1.3172    1.2307   -2.8204 H   0  0  0  0  0  0  0  0  0  0  0  0
    0.4226    0.4226    1.5774 H   0  0  0  0  0  0  0  0  0  0  0  0
    0.4226    1.5774    0.4226 H   0  0  0  0  0  0  0  0  0  0  0  0
    2.4549    1.3002    2.4549 H   0  0  0  0  0  0  0  0  0  0  0  0
    2.4549    2.4549    1.3002 H   0  0  0  0  0  0  0  0  0  0  0  0
    0.1510    3.8390    4.9937 H   0  0  0  0  0  0  0  0  0  0  0  0
    0.1510    4.9937    3.8390 H   0  0  0  0  0  0  0  0  0  0  0  0
    1.7456    6.8938    3.9723 H   0  0  0  0  0  0  0  0  0  0  0  0
    1.7072    3.9289    6.8649 H   0  0  0  0  0  0  0  0  0  0  0  0
    2.9008    4.2706    8.9163 H   0  0  0  0  0  0  0  0  0  0  0  0
    4.2822    5.6571   10.3006 H   0  0  0  0  0  0  0  0  0  0  0  0
    4.9692    7.8123    9.5244 H   0  0  0  0  0  0  0  0  0  0  0  0
    4.2839    8.5821    7.3734 H   0  0  0  0  0  0  0  0  0  0  0  0
    1.8188   -1.2327    2.4438 H   0  0  0  0  0  0  0  0  0  0  0  0
    1.9841   -2.6863    1.7184 H   0  0  0  0  0  0  0  0  0  0  0  0
    3.3056   -1.8716    2.2252 H   0  0  0  0  0  0  0  0  0  0  0  0
    2.3962   -2.4342   -3.3971 H   0  0  0  0  0  0  0  0  0  0  0  0
    3.3895   -2.6904   -5.5631 H   0  0  0  0  0  0  0  0  0  0  0  0
  1  2  2  0  0  0  0
  1  3  2  0  0  0  0
  1  4  1  0  0  0  0
  1  5  1  0  0  0  0
  5  6  1  0  0  0  0
  6  7  2  0  0  0  0
  7  8  1  0  0  0  0
  8  9  1  0  0  0  0
  9 10  1  0  0  0  0
 10 11  2  0  0  0  0
 11 12  1  0  0  0  0
 12 13  2  0  0  0  0
 13  9  1  0  0  0  0
 13 14  1  0  0  0  0
 12 15  1  0  0  0  0
 15 16  1  0  0  0  0
 16 17  1  0  0  0  0
 17 18  2  0  0  0  0
 17 19  1  0  0  0  0
 19 20  1  0  0  0  0
 20 21  1  0  0  0  0
 21 22  1  0  0  0  0
 22 23  2  0  0  0  0
 23 24  1  0  0  0  0
 24 25  2  0  0  0  0
 25 26  1  0  0  0  0
 26 21  2  0  0  0  0
 25 27  1  0  0  0  0
 27 28  2  0  0  0  0
 28 29  1  0  0  0  0
 29 30  2  0  0  0  0
 30 24  1  0  0  0  0
 11 31  1  0  0  0  0
  8 32  2  0  0  0  0
 32 33  1  0  0  0  0
 33  5  2  0  0  0  0
  4 34  1  0  0  0  0
  4 35  1  0  0  0  0
  6 36  1  0  0  0  0
  7 37  1  0  0  0  0
 14 38  1  0  0  0  0
 14 39  1  0  0  0  0
 14 40  1  0  0  0  0
 15 41  1  0  0  0  0
 15 42  1  0  0  0  0
 16 43  1  0  0  0  0
 16 44  1  0  0  0  0
 20 45  1  0  0  0  0
 20 46  1  0  0  0  0
 22 47  1  0  0  0  0
 26 48  1  0  0  0  0
 27 49  1  0  0  0  0
 28 50  1  0  0  0  0
 29 51  1  0  0  0  0
 30 52  1  0  0  0  0
 31 53  1  0  0  0  0
 31 54  1  0  0  0  0
 31 55  1  0  0  0  0
 32 56  1  0  0  0  0
 33 57  1  0  0  0  0
M  END
>  <result-rank>
78

>  <similarity>
0.866

>  <query-name>


>  <query-smiles>
S(=O)(=O)(NC(=O)C)c1ccc(cc1)C=2N3C(=NC(=C3)COc4nc5c(cc4)cccc5)C(=NC2)N6CCOCC6

>  <source>
REALspace_2019-12

>  <similarity-descriptor>
0.998;0.0;0.565;0.861;0.997;1.000;1.000;0.588;0.0;0.0;0.999;0.999;0.154

>  <similarity-descriptor-smiles>
c1ccccc1;;CC=O;N1C=C(C=N1)C;c1cccnc1;c1ccccc1;S(=O)=O;N;;;OC;OC;C.C

>  <reaction-name>
s_1458

>  <reagent1-name>
1722010

>  <reagent1-smiles>
[R1*]OC(=O)CCC=1C(=NN(c2ccc(S(=O)(=O)N)cc2)C1C)C

>  <reagent2-name>
9746902

>  <reagent2-smiles>
[R1*]Cc1cnc2c(c1)cccc2

$$$$
m_270942____9828442____12221226____9835902
          04022017313D 1   1.00000     0.00000     0
            
 66 70  0  0  0  0            999 V2000
    0.4648    3.7275    2.5286 S   0  0  0  0  0  0  0  0  0  0  0  0
    0.6132    4.9899    1.8520 O   0  0  0  0  0  0  0  0  0  0  0  0
   -0.5345    2.9375    1.8570 O   0  0  0  0  0  0  0  0  0  0  0  0
    0.0053    3.9882    4.0706 N   0  0  0  0  0  0  0  0  0  0  0  0
    1.0254    4.7946    4.7562 C   0  0  0  0  0  0  0  0  0  0  0  0
   -1.2776    4.7056    4.0850 C   0  0  0  0  0  0  0  0  0  0  0  0
    1.9833    2.8783    2.5116 C   0  0  0  0  0  0  0  0  0  0  0  0
    3.1735    3.5977    2.5023 C   0  0  0  0  0  0  0  0  0  0  0  0
    4.3802    2.9056    2.4882 C   0  0  0  0  0  0  0  0  0  0  0  0
    4.4059    1.5148    2.4827 C   0  0  0  0  0  0  0  0  0  0  0  0
    3.2042    0.8141    2.4925 C   0  0  0  0  0  0  0  0  0  0  0  0
    1.9869    1.4870    2.5070 C   0  0  0  0  0  0  0  0  0  0  0  0
    5.6236    3.6531    2.4786 C   0  0  0  0  0  0  0  0  0  0  0  0
    6.0215    4.5036    3.3978 N   0  0  0  0  0  0  0  0  0  0  0  0
    7.1938    4.9730    3.0331 N   0  0  0  0  0  0  0  0  0  0  0  0
    7.5807    4.4529    1.8946 C   0  0  0  0  0  0  0  0  0  0  0  0
    6.5883    3.6038    1.5218 N   0  0  0  0  0  0  0  0  0  0  0  0
    6.5638    2.7818    0.3026 C   0  0  0  0  0  0  0  0  0  0  0  0
    5.3894    3.2027   -0.5697 C   0  0  3  0  0  0  0  0  0  0  0  0
    5.6258    4.5187   -1.2892 C   0  0  0  0  0  0  0  0  0  0  0  0
    4.7131    4.4856   -2.3726 O   0  0  0  0  0  0  0  0  0  0  0  0
    4.4129    3.1346   -2.6886 C   0  0  0  0  0  0  0  0  0  0  0  0
    5.2360    2.2734   -1.7554 C   0  0  0  0  0  0  0  0  0  0  0  0
    8.7737    4.7162    1.2077 N   0  0  0  0  0  0  0  0  0  0  0  0
    9.8794    3.7578    1.3424 C   0  0  0  0  0  0  0  0  0  0  0  0
   11.1933    4.5179    1.4541 C   0  0  0  0  0  0  0  0  0  0  0  0
   11.7297    5.2486    0.3930 C   0  0  0  0  0  0  0  0  0  0  0  0
   11.0520    5.3295   -0.8347 N   0  0  0  0  0  0  0  0  0  0  0  0
    9.6790    5.6403   -0.8738 C   0  0  0  0  0  0  0  0  0  0  0  0
    9.1094    5.6689   -1.9542 O   0  0  0  0  0  0  0  0  0  0  0  0
    8.8725    5.9275    0.3785 C   0  0  0  0  0  0  0  0  0  0  0  0
   11.7520    5.1043   -2.1098 C   0  0  0  0  0  0  0  0  0  0  0  0
   12.9320    5.9191    0.6028 C   0  0  0  0  0  0  0  0  0  0  0  0
   13.5950    5.8703    1.8246 C   0  0  0  0  0  0  0  0  0  0  0  0
   13.0414    5.1373    2.8690 C   0  0  0  0  0  0  0  0  0  0  0  0
   11.8404    4.4617    2.6838 C   0  0  0  0  0  0  0  0  0  0  0  0
    0.7436    4.9545    5.7022 H   0  0  0  0  0  0  0  0  0  0  0  0
    1.8982    4.3065    4.7464 H   0  0  0  0  0  0  0  0  0  0  0  0
    1.1285    5.6713    4.2864 H   0  0  0  0  0  0  0  0  0  0  0  0
   -1.5595    4.8655    5.0310 H   0  0  0  0  0  0  0  0  0  0  0  0
   -1.1745    5.5823    3.6152 H   0  0  0  0  0  0  0  0  0  0  0  0
   -1.9715    4.1570    3.6186 H   0  0  0  0  0  0  0  0  0  0  0  0
    3.1621    4.5976    2.5056 H   0  0  0  0  0  0  0  0  0  0  0  0
    5.2775    1.0247    2.4718 H   0  0  0  0  0  0  0  0  0  0  0  0
    3.2157   -0.1859    2.4890 H   0  0  0  0  0  0  0  0  0  0  0  0
    1.1263    0.9778    2.5141 H   0  0  0  0  0  0  0  0  0  0  0  0
    6.4652    1.8184    0.5521 H   0  0  0  0  0  0  0  0  0  0  0  0
    7.4171    2.9096   -0.2028 H   0  0  0  0  0  0  0  0  0  0  0  0
    4.5451    3.2377   -0.0350 H   0  0  0  0  0  0  0  0  0  0  0  0
    5.4339    5.2930   -0.6862 H   0  0  0  0  0  0  0  0  0  0  0  0
    6.5677    4.5789   -1.6196 H   0  0  0  0  0  0  0  0  0  0  0  0
    4.6557    2.9413   -3.6392 H   0  0  0  0  0  0  0  0  0  0  0  0
    3.4384    2.9573   -2.5508 H   0  0  0  0  0  0  0  0  0  0  0  0
    4.7515    1.4351   -1.5054 H   0  0  0  0  0  0  0  0  0  0  0  0
    6.1218    2.0394   -2.1563 H   0  0  0  0  0  0  0  0  0  0  0  0
    9.9051    3.1625    0.5393 H   0  0  0  0  0  0  0  0  0  0  0  0
    9.7430    3.2039    2.1637 H   0  0  0  0  0  0  0  0  0  0  0  0
    9.3222    6.6508    0.9024 H   0  0  0  0  0  0  0  0  0  0  0  0
    7.9540    6.2258    0.1187 H   0  0  0  0  0  0  0  0  0  0  0  0
   11.1063    5.2043   -2.8668 H   0  0  0  0  0  0  0  0  0  0  0  0
   12.4881    5.7739   -2.2088 H   0  0  0  0  0  0  0  0  0  0  0  0
   12.1373    4.1815   -2.1201 H   0  0  0  0  0  0  0  0  0  0  0  0
   13.3297    6.4502   -0.1454 H   0  0  0  0  0  0  0  0  0  0  0  0
   14.4597    6.3566    1.9506 H   0  0  0  0  0  0  0  0  0  0  0  0
   13.5072    5.0961    3.7529 H   0  0  0  0  0  0  0  0  0  0  0  0
   11.4418    3.9354    3.4349 H   0  0  0  0  0  0  0  0  0  0  0  0
  1  2  2  0  0  0  0
  1  3  2  0  0  0  0
  1  4  1  0  0  0  0
  4  5  1  0  0  0  0
  4  6  1  0  0  0  0
  1  7  1  0  0  0  0
  7  8  1  0  0  0  0
  8  9  2  0  0  0  0
  9 10  1  0  0  0  0
 10 11  2  0  0  0  0
 11 12  1  0  0  0  0
 12  7  2  0  0  0  0
  9 13  1  0  0  0  0
 13 14  2  0  0  0  0
 14 15  1  0  0  0  0
 15 16  2  0  0  0  0
 16 17  1  0  0  0  0
 17 13  1  0  0  0  0
 17 18  1  0  0  0  0
 18 19  1  0  0  0  0
 19 20  1  0  0  0  0
 20 21  1  0  0  0  0
 21 22  1  0  0  0  0
 22 23  1  0  0  0  0
 23 19  1  0  0  0  0
 16 24  1  0  0  0  0
 24 25  1  0  0  0  0
 25 26  1  0  0  0  0
 26 27  1  0  0  0  0
 27 28  1  0  0  0  0
 28 29  1  0  0  0  0
 29 30  2  0  0  0  0
 29 31  1  0  0  0  0
 31 24  1  0  0  0  0
 28 32  1  0  0  0  0
 27 33  2  0  0  0  0
 33 34  1  0  0  0  0
 34 35  2  0  0  0  0
 35 36  1  0  0  0  0
 36 26  2  0  0  0  0
  5 37  1  0  0  0  0
  5 38  1  0  0  0  0
  5 39  1  0  0  0  0
  6 40  1  0  0  0  0
  6 41  1  0  0  0  0
  6 42  1  0  0  0  0
  8 43  1  0  0  0  0
 10 44  1  0  0  0  0
 11 45  1  0  0  0  0
 12 46  1  0  0  0  0
 18 47  1  0  0  0  0
 18 48  1  0  0  0  0
 19 49  1  0  0  0  0
 20 50  1  0  0  0  0
 20 51  1  0  0  0  0
 22 52  1  0  0  0  0
 22 53  1  0  0  0  0
 23 54  1  0  0  0  0
 23 55  1  0  0  0  0
 25 56  1  0  0  0  0
 25 57  1  0  0  0  0
 31 58  1  0  0  0  0
 31 59  1  0  0  0  0
 32 60  1  0  0  0  0
 32 61  1  0  0  0  0
 32 62  1  0  0  0  0
 33 63  1  0  0  0  0
 34 64  1  0  0  0  0
 35 65  1  0  0  0  0
 36 66  1  0  0  0  0
M  END
>  <result-rank>
79

>  <similarity>
0.866

>  <query-name>


>  <query-smiles>
S(=O)(=O)(NC(=O)C)c1ccc(cc1)C=2N3C(=NC(=C3)COc4nc5c(cc4)cccc5)C(=NC2)N6CCOCC6

>  <source>
REALspace_2019-12

>  <similarity-descriptor>
1.000;0.956;0.637;0.637;0.870;0.999;1.000;0.528;0.528;0.995;0.870;0.870;0.091

>  <similarity-descriptor-smiles>
c1ccccc1;CC1CCOC1;C=1NC=NN1;C=1NC=NN1;N1CC(NccC1)=O;c1ccccc1;S(=O)=O;NC;NC;C;N1CC(NccC1)=O;N1CC(NccC1)=O;C

>  <reaction-name>
m_270942

>  <reagent1-name>
9828442

>  <reagent1-smiles>
[R3*]=C([R2*])N([R1*])CC1COCC1

>  <reagent2-name>
12221226

>  <reagent2-smiles>
[R2*]N1Cc2c(N(C(=O)C1)C)cccc2

>  <reagent3-name>
9835902

>  <reagent3-smiles>
[R3*]=NN=C([R1*])c1cc(S(=O)(=O)N(C)C)ccc1

$$$$
m_274860a____17153220____17209716____15233762
          04022017313D 1   1.00000     0.00000     0
            
 72 77  0  0  0  0            999 V2000
    6.4675    0.1185    0.9982 O   0  5  0  0  0  0  0  0  0  0  0  0
    5.2719    0.3616    0.9990 N   0  3  0  0  0  0  0  0  0  0  0  0
    4.8879    1.5090    0.9990 O   0  0  0  0  0  0  0  0  0  0  0  0
    4.3442   -0.6873    1.0000 C   0  0  0  0  0  0  0  0  0  0  0  0
    2.9767   -0.4331    1.0000 C   0  0  0  0  0  0  0  0  0  0  0  0
    2.0731   -1.4901    0.9993 C   0  0  0  0  0  0  0  0  0  0  0  0
    2.5366   -2.8013    1.0001 C   0  0  0  0  0  0  0  0  0  0  0  0
    3.9037   -3.0555    1.0003 C   0  0  0  0  0  0  0  0  0  0  0  0
    4.8076   -1.9984    1.0000 C   0  0  0  0  0  0  0  0  0  0  0  0
    2.4700    1.0000    1.0000 C   0  0  0  0  0  0  0  0  0  0  0  0
    1.0000    1.0000    1.0000 N   0  0  0  0  0  0  0  0  0  0  0  0
    0.3150    1.0000    2.1865 C   0  0  0  0  0  0  0  0  0  0  0  0
    0.9150    1.0000    3.2257 O   0  0  0  0  0  0  0  0  0  0  0  0
   -1.1353    1.0000    2.1865 C   0  0  0  0  0  0  0  0  0  0  0  0
   -1.8313    2.2054    2.1865 C   0  0  0  0  0  0  0  0  0  0  0  0
   -1.1571    3.4331    2.1870 N   0  0  0  0  0  0  0  0  0  0  0  0
    0.1442    3.5889    2.1876 N   0  0  0  0  0  0  0  0  0  0  0  0
    0.4524    4.8133    2.1904 N   0  0  0  0  0  0  0  0  0  0  0  0
   -0.7025    5.5358    2.1857 C   0  0  0  0  0  0  0  0  0  0  0  0
   -0.8067    6.9841    2.1863 C   0  0  0  0  0  0  0  0  0  0  0  0
   -1.4407    7.7006    1.1703 C   0  0  0  0  0  0  0  0  0  0  0  0
   -1.5019    9.0901    1.2420 C   0  0  0  0  0  0  0  0  0  0  0  0
   -0.9210    9.7205    2.3382 C   0  0  0  0  0  0  0  0  0  0  0  0
   -0.3158    9.0115    3.3028 N   0  0  0  0  0  0  0  0  0  0  0  0
   -0.2441    7.6728    3.2553 C   0  0  0  0  0  0  0  0  0  0  0  0
   -2.1268    9.8368    0.2488 C   0  0  0  0  0  0  0  0  0  0  0  0
   -2.7012    9.1822   -0.8354 C   0  0  0  0  0  0  0  0  0  0  0  0
   -2.6580    7.7965   -0.9371 C   0  0  0  0  0  0  0  0  0  0  0  0
   -2.0261    7.0758    0.0702 C   0  0  0  0  0  0  0  0  0  0  0  0
   -1.7415    4.6608    2.1863 C   0  0  0  0  0  0  0  0  0  0  0  0
   -3.2227    2.2134    2.1861 C   0  0  0  0  0  0  0  0  0  0  0  0
   -3.9102    1.0040    2.1850 C   0  0  0  0  0  0  0  0  0  0  0  0
   -3.2225   -0.2052    2.1846 C   0  0  0  0  0  0  0  0  0  0  0  0
   -1.8312   -0.2053    2.1855 C   0  0  0  0  0  0  0  0  0  0  0  0
   -5.4305    1.0035    2.1847 C   0  0  0  0  0  0  0  0  0  0  0  0
    0.2651    1.0000   -0.2728 C   0  0  0  0  0  0  0  0  0  0  0  0
    0.6052   -0.2293   -1.1033 C   0  0  0  0  0  0  0  0  0  0  0  0
   -0.1524   -0.2522   -2.4231 C   0  0  0  0  0  0  0  0  0  0  0  0
   -0.8472    1.0729   -2.6986 C   0  0  0  0  0  0  0  0  0  0  0  0
   -1.3349    1.0673   -4.0319 O   0  0  0  0  0  0  0  0  0  0  0  0
    0.1744    2.1824   -2.4937 C   0  0  0  0  0  0  0  0  0  0  0  0
    0.6692    2.2410   -1.0564 C   0  0  0  0  0  0  0  0  0  0  0  0
    1.0899   -1.3073    0.9982 H   0  0  0  0  0  0  0  0  0  0  0  0
    1.8867   -3.5613    1.0006 H   0  0  0  0  0  0  0  0  0  0  0  0
    4.2369   -3.9983    1.0006 H   0  0  0  0  0  0  0  0  0  0  0  0
    5.7908   -2.1813    0.9998 H   0  0  0  0  0  0  0  0  0  0  0  0
    2.8033    1.4714    1.8165 H   0  0  0  0  0  0  0  0  0  0  0  0
    2.8033    1.4714    0.1835 H   0  0  0  0  0  0  0  0  0  0  0  0
   -0.9552   10.7175    2.4079 H   0  0  0  0  0  0  0  0  0  0  0  0
    0.2138    7.1702    3.9886 H   0  0  0  0  0  0  0  0  0  0  0  0
   -2.1626   10.8340    0.3137 H   0  0  0  0  0  0  0  0  0  0  0  0
   -3.1515    9.7156   -1.5516 H   0  0  0  0  0  0  0  0  0  0  0  0
   -3.0723    7.3283   -1.7176 H   0  0  0  0  0  0  0  0  0  0  0  0
   -1.9905    6.0787    0.0035 H   0  0  0  0  0  0  0  0  0  0  0  0
   -2.7189    4.8725    2.1864 H   0  0  0  0  0  0  0  0  0  0  0  0
   -3.7230    3.0792    2.1866 H   0  0  0  0  0  0  0  0  0  0  0  0
   -3.7253   -1.0696    2.1837 H   0  0  0  0  0  0  0  0  0  0  0  0
   -1.3312   -1.0713    2.1855 H   0  0  0  0  0  0  0  0  0  0  0  0
   -5.7636    0.0606    2.1838 H   0  0  0  0  0  0  0  0  0  0  0  0
   -5.7642    1.4742    3.0015 H   0  0  0  0  0  0  0  0  0  0  0  0
   -5.7638    1.4755    1.3685 H   0  0  0  0  0  0  0  0  0  0  0  0
   -0.7183    1.0220   -0.0928 H   0  0  0  0  0  0  0  0  0  0  0  0
    0.3680   -1.0480   -0.5804 H   0  0  0  0  0  0  0  0  0  0  0  0
    1.5868   -0.2286   -1.2943 H   0  0  0  0  0  0  0  0  0  0  0  0
    0.4930   -0.4395   -3.1636 H   0  0  0  0  0  0  0  0  0  0  0  0
   -0.8402   -0.9774   -2.3890 H   0  0  0  0  0  0  0  0  0  0  0  0
   -1.6085    1.1934   -2.0615 H   0  0  0  0  0  0  0  0  0  0  0  0
   -1.7937    1.9351   -4.2227 H   0  0  0  0  0  0  0  0  0  0  0  0
   -0.2488    3.0582   -2.7257 H   0  0  0  0  0  0  0  0  0  0  0  0
    0.9546    2.0188   -3.0975 H   0  0  0  0  0  0  0  0  0  0  0  0
    1.6667    2.3123   -1.0593 H   0  0  0  0  0  0  0  0  0  0  0  0
    0.2787    3.0470   -0.6115 H   0  0  0  0  0  0  0  0  0  0  0  0
  1  2  1  0  0  0  0
  2  3  2  0  0  0  0
  2  4  1  0  0  0  0
  4  5  1  0  0  0  0
  5  6  2  0  0  0  0
  6  7  1  0  0  0  0
  7  8  2  0  0  0  0
  8  9  1  0  0  0  0
  9  4  2  0  0  0  0
  5 10  1  0  0  0  0
 10 11  1  0  0  0  0
 11 12  1  0  0  0  0
 12 13  2  0  0  0  0
 12 14  1  0  0  0  0
 14 15  1  0  0  0  0
 15 16  1  0  0  0  0
 16 17  1  0  0  0  0
 17 18  2  0  0  0  0
 18 19  1  0  0  0  0
 19 20  1  0  0  0  0
 20 21  1  0  0  0  0
 21 22  2  0  0  0  0
 22 23  1  0  0  0  0
 23 24  2  0  0  0  0
 24 25  1  0  0  0  0
 25 20  2  0  0  0  0
 22 26  1  0  0  0  0
 26 27  2  0  0  0  0
 27 28  1  0  0  0  0
 28 29  2  0  0  0  0
 29 21  1  0  0  0  0
 19 30  2  0  0  0  0
 30 16  1  0  0  0  0
 15 31  2  0  0  0  0
 31 32  1  0  0  0  0
 32 33  2  0  0  0  0
 33 34  1  0  0  0  0
 34 14  2  0  0  0  0
 32 35  1  0  0  0  0
 11 36  1  0  0  0  0
 36 37  1  0  0  0  0
 37 38  1  0  0  0  0
 38 39  1  0  0  0  0
 39 40  1  0  0  0  0
 39 41  1  0  0  0  0
 41 42  1  0  0  0  0
 42 36  1  0  0  0  0
  6 43  1  0  0  0  0
  7 44  1  0  0  0  0
  8 45  1  0  0  0  0
  9 46  1  0  0  0  0
 10 47  1  0  0  0  0
 10 48  1  0  0  0  0
 23 49  1  0  0  0  0
 25 50  1  0  0  0  0
 26 51  1  0  0  0  0
 27 52  1  0  0  0  0
 28 53  1  0  0  0  0
 29 54  1  0  0  0  0
 30 55  1  0  0  0  0
 31 56  1  0  0  0  0
 33 57  1  0  0  0  0
 34 58  1  0  0  0  0
 35 59  1  0  0  0  0
 35 60  1  0  0  0  0
 35 61  1  0  0  0  0
 36 62  1  0  0  0  0
 37 63  1  0  0  0  0
 37 64  1  0  0  0  0
 38 65  1  0  0  0  0
 38 66  1  0  0  0  0
 39 67  1  0  0  0  0
 40 68  1  0  0  0  0
 41 69  1  0  0  0  0
 41 70  1  0  0  0  0
 42 71  1  0  0  0  0
 42 72  1  0  0  0  0
M  CHG  2   1  -1   2   1
M  END
>  <result-rank>
80

>  <similarity>
0.866

>  <query-name>


>  <query-smiles>
S(=O)(=O)(NC(=O)C)c1ccc(cc1)C=2N3C(=NC(=C3)COc4nc5c(cc4)cccc5)C(=NC2)N6CCOCC6

>  <source>
REALspace_2019-12

>  <similarity-descriptor>
0.935;0.829;0.889;0.672;0.999;0.999;0.975;0.0;0.0;0.0;0.889;0.889;0.083

>  <similarity-descriptor-smiles>
c1ccccc1C;C1CCC(CC1)O;N1C=CN=N1;NC(=O)c1ccccc1;c1cnccc1;c1ccccc1;[O-][N+]=O;;;;N1C=CN=N1;N1C=CN=N1;C

>  <reaction-name>
m_274860a

>  <reagent1-name>
17153220

>  <reagent1-smiles>
[R3*]N(C1CCC(O)CC1)Cc2c([N+]([O-])=O)cccc2

>  <reagent2-name>
17209716

>  <reagent2-smiles>
[R1*]N=NN([R2*])c1c(ccc(c1)C)C([R3*])=O

>  <reagent3-name>
15233762

>  <reagent3-smiles>
[R1*]C(c1c2c(cnc1)cccc2)=C[R2*]

$$$$
m_274972____15150082____12615770____13046584
          04022017313D 1   1.00000     0.00000     0
            
 53 58  0  0  0  0            999 V2000
    6.5130    3.7149    5.0702 S   0  0  0  0  0  0  0  0  0  0  0  0
    6.8091    2.1801    4.4004 C   0  0  0  0  0  0  0  0  0  0  0  0
    5.7436    1.8478    3.7063 N   0  0  0  0  0  0  0  0  0  0  0  0
    4.7375    2.7738    3.7107 C   0  0  0  0  0  0  0  0  0  0  0  0
    3.4754    2.6182    3.0268 C   0  0  0  0  0  0  0  0  0  0  0  0
    2.4554    3.5196    3.0165 N   0  0  0  0  0  0  0  0  0  0  0  0
    1.5259    3.0295    2.3157 N   0  0  0  0  0  0  0  0  0  0  0  0
    1.8486    1.8486    1.8486 N   0  0  0  0  0  0  0  0  0  0  0  0
    3.0981    1.5422    2.2834 C   0  0  0  0  0  0  0  0  0  0  0  0
    1.0000    1.0000    1.0000 C   0  0  3  0  0  0  0  0  0  0  0  0
   -0.3223    1.7033    0.7416 C   0  0  0  0  0  0  0  0  0  0  0  0
   -0.4470    2.5387   -0.3634 C   0  0  0  0  0  0  0  0  0  0  0  0
   -1.6549    3.1849   -0.6053 C   0  0  0  0  0  0  0  0  0  0  0  0
   -2.7238    2.9866    0.2626 C   0  0  0  0  0  0  0  0  0  0  0  0
   -3.8821    3.6007    0.0371 F   0  0  0  0  0  0  0  0  0  0  0  0
   -2.6041    2.1528    1.3697 C   0  0  0  0  0  0  0  0  0  0  0  0
   -1.3941    1.5090    1.6062 C   0  0  0  0  0  0  0  0  0  0  0  0
    1.7033    0.7415   -0.3225 C   0  0  0  0  0  0  0  0  0  0  0  0
    1.6496   -0.3453   -0.8283 O   0  0  0  0  0  0  0  0  0  0  0  0
    2.3987    1.7494   -0.9370 N   0  0  0  0  0  0  0  0  0  0  0  0
    3.0781    1.4998   -2.2145 C   0  0  0  0  0  0  0  0  0  0  0  0
    4.5565    1.7406   -2.1103 C   0  0  0  0  0  0  0  0  0  0  0  0
    3.6764    2.7524   -2.7872 C   0  0  0  0  0  0  0  0  0  0  0  0
    4.9505    3.9160    4.4225 C   0  0  0  0  0  0  0  0  0  0  0  0
    8.0221    1.4015    4.5714 C   0  0  0  0  0  0  0  0  0  0  0  0
    8.1771    0.1926    4.0063 N   0  0  0  0  0  0  0  0  0  0  0  0
    9.2959   -0.5354    4.1586 C   0  0  0  0  0  0  0  0  0  0  0  0
   10.3481   -0.0413    4.9251 C   0  0  0  0  0  0  0  0  0  0  0  0
   10.2139    1.2081    5.5217 C   0  0  0  0  0  0  0  0  0  0  0  0
    9.0436    1.9403    5.3473 C   0  0  0  0  0  0  0  0  0  0  0  0
   11.5195   -0.7703    5.1017 C   0  0  0  0  0  0  0  0  0  0  0  0
   11.6340   -2.0177    4.4972 C   0  0  0  0  0  0  0  0  0  0  0  0
   10.5979   -2.5339    3.7264 C   0  0  0  0  0  0  0  0  0  0  0  0
    9.4362   -1.7857    3.5645 C   0  0  0  0  0  0  0  0  0  0  0  0
    3.6236    0.7117    2.0987 H   0  0  0  0  0  0  0  0  0  0  0  0
    0.8300    0.1300    1.4627 H   0  0  0  0  0  0  0  0  0  0  0  0
    0.3278    2.6740   -0.9810 H   0  0  0  0  0  0  0  0  0  0  0  0
   -1.7540    3.7876   -1.3971 H   0  0  0  0  0  0  0  0  0  0  0  0
   -3.3785    2.0180    1.9879 H   0  0  0  0  0  0  0  0  0  0  0  0
   -1.2948    0.9065    2.3981 H   0  0  0  0  0  0  0  0  0  0  0  0
    2.4435    2.6552   -0.5155 H   0  0  0  0  0  0  0  0  0  0  0  0
    2.7338    0.7894   -2.8284 H   0  0  0  0  0  0  0  0  0  0  0  0
    5.1922    1.1896   -2.6509 H   0  0  0  0  0  0  0  0  0  0  0  0
    4.9678    1.9496   -1.2231 H   0  0  0  0  0  0  0  0  0  0  0  0
    3.5016    3.6349   -2.3506 H   0  0  0  0  0  0  0  0  0  0  0  0
    3.7261    2.8749   -3.7784 H   0  0  0  0  0  0  0  0  0  0  0  0
    4.3320    4.6933    4.5380 H   0  0  0  0  0  0  0  0  0  0  0  0
   10.9586    1.5802    6.0758 H   0  0  0  0  0  0  0  0  0  0  0  0
    8.9383    2.8391    5.7729 H   0  0  0  0  0  0  0  0  0  0  0  0
   12.2675   -0.4033    5.6546 H   0  0  0  0  0  0  0  0  0  0  0  0
   12.4719   -2.5500    4.6184 H   0  0  0  0  0  0  0  0  0  0  0  0
   10.6867   -3.4312    3.2941 H   0  0  0  0  0  0  0  0  0  0  0  0
    8.6887   -2.1532    3.0112 H   0  0  0  0  0  0  0  0  0  0  0  0
  1  2  1  0  0  0  0
  2  3  2  0  0  0  0
  3  4  1  0  0  0  0
  4  5  1  0  0  0  0
  5  6  1  0  0  0  0
  6  7  2  0  0  0  0
  7  8  1  0  0  0  0
  8  9  1  0  0  0  0
  5  9  2  0  0  0  0
  8 10  1  0  0  0  0
 10 11  1  0  0  0  0
 11 12  1  0  0  0  0
 12 13  2  0  0  0  0
 13 14  1  0  0  0  0
 14 15  1  0  0  0  0
 14 16  2  0  0  0  0
 16 17  1  0  0  0  0
 17 11  2  0  0  0  0
 10 18  1  0  0  0  0
 18 19  2  0  0  0  0
 18 20  1  0  0  0  0
 20 21  1  0  0  0  0
 21 22  1  0  0  0  0
 22 23  1  0  0  0  0
 23 21  1  0  0  0  0
  4 24  2  0  0  0  0
 24  1  1  0  0  0  0
  2 25  1  0  0  0  0
 25 26  1  0  0  0  0
 26 27  2  0  0  0  0
 27 28  1  0  0  0  0
 28 29  2  0  0  0  0
 29 30  1  0  0  0  0
 30 25  2  0  0  0  0
 28 31  1  0  0  0  0
 31 32  2  0  0  0  0
 32 33  1  0  0  0  0
 33 34  2  0  0  0  0
 34 27  1  0  0  0  0
  9 35  1  0  0  0  0
 10 36  1  0  0  0  0
 12 37  1  0  0  0  0
 13 38  1  0  0  0  0
 16 39  1  0  0  0  0
 17 40  1  0  0  0  0
 20 41  1  0  0  0  0
 21 42  1  0  0  0  0
 22 43  1  0  0  0  0
 22 44  1  0  0  0  0
 23 45  1  0  0  0  0
 23 46  1  0  0  0  0
 24 47  1  0  0  0  0
 29 48  1  0  0  0  0
 30 49  1  0  0  0  0
 31 50  1  0  0  0  0
 32 51  1  0  0  0  0
 33 52  1  0  0  0  0
 34 53  1  0  0  0  0
M  END
>  <result-rank>
81

>  <similarity>
0.866

>  <query-name>


>  <query-smiles>
S(=O)(=O)(NC(=O)C)c1ccc(cc1)C=2N3C(=NC(=C3)COc4nc5c(cc4)cccc5)C(=NC2)N6CCOCC6

>  <source>
REALspace_2019-12

>  <similarity-descriptor>
0.982;0.778;0.923;0.778;0.902;1.000;0.0;0.0;0.0;0.0;0.923;0.902;0.0

>  <similarity-descriptor-smiles>
c1ccc(cc1)F;C(=O)NC1CC1;S1C=CN=C1;C1=CN(N=N1)C;c1ccccn1;c1ccccc1;;;;;S1C=CN=C1;c1ccccn1;

>  <reaction-name>
m_274972

>  <reagent1-name>
15150082

>  <reagent1-smiles>
[R1*]SC(=N[R2*])c1nc2c(cc1)cccc2

>  <reagent2-name>
12615770

>  <reagent2-smiles>
[R2*]C(C([R3*])=C[R4*])=C[R1*]

>  <reagent3-name>
13046584

>  <reagent3-smiles>
[R3*]N=NN([R4*])C(c1ccc(F)cc1)C(=O)NC2CC2

$$$$
s_11a____117402____132801
          04022017313D 1   1.00000     0.00000     0
            
 61 66  0  0  0  0            999 V2000
   -0.7195    1.4250    3.7826 S   0  0  0  0  0  0  0  0  0  0  0  0
   -0.8336    2.5551    5.0515 C   0  0  0  0  0  0  0  0  0  0  0  0
   -1.3320    2.2946    6.3334 N   0  0  0  0  0  0  0  0  0  0  0  0
   -2.7670    2.4832    6.5982 C   0  0  0  0  0  0  0  0  0  0  0  0
   -3.2670    1.4831    7.6293 C   0  0  0  0  0  0  0  0  0  0  0  0
   -2.3847    1.3969    8.7410 O   0  0  0  0  0  0  0  0  0  0  0  0
   -1.1223    0.8788    8.3425 C   0  0  0  0  0  0  0  0  0  0  0  0
   -0.4128    1.8161    7.3772 C   0  0  0  0  0  0  0  0  0  0  0  0
   -0.3559    3.7438    4.5873 C   0  0  0  0  0  0  0  0  0  0  0  0
   -0.3097    4.9302    5.4202 C   0  0  0  0  0  0  0  0  0  0  0  0
    0.6617    5.0400    6.4098 C   0  0  0  0  0  0  0  0  0  0  0  0
    0.7019    6.1793    7.2070 C   0  0  0  0  0  0  0  0  0  0  0  0
   -0.2241    7.1985    7.0109 C   0  0  0  0  0  0  0  0  0  0  0  0
   -1.1897    7.0781    6.0191 C   0  0  0  0  0  0  0  0  0  0  0  0
   -1.2408    5.9436    5.2157 C   0  0  0  0  0  0  0  0  0  0  0  0
    0.0799    3.6974    3.2378 C   0  0  0  0  0  0  0  0  0  0  0  0
   -0.0478    2.4848    2.6334 C   0  0  0  0  0  0  0  0  0  0  0  0
    0.3150    2.1559    1.2674 C   0  0  0  0  0  0  0  0  0  0  0  0
    0.0150    2.8964    0.3721 O   0  0  0  0  0  0  0  0  0  0  0  0
    1.0000    1.0000    1.0000 N   0  0  0  0  0  0  0  0  0  0  0  0
    2.2719    1.0000    1.0000 C   0  0  0  0  0  0  0  0  0  0  0  0
    3.2906    2.3297    1.3076 S   0  0  0  0  0  0  0  0  0  0  0  0
    4.7778    1.5222    1.1180 C   0  0  0  0  0  0  0  0  0  0  0  0
    4.4376    0.2395    0.8145 C   0  0  0  0  0  0  0  0  0  0  0  0
    3.0974   -0.0507    0.7488 N   0  0  0  0  0  0  0  0  0  0  0  0
    2.5537   -1.3775    0.4376 C   0  0  0  0  0  0  0  0  0  0  0  0
    2.3606   -1.5066   -1.0662 C   0  0  0  0  0  0  0  0  0  0  0  0
    1.1185   -1.7499   -1.6505 C   0  0  0  0  0  0  0  0  0  0  0  0
    0.9876   -1.8598   -3.0320 C   0  0  0  0  0  0  0  0  0  0  0  0
    2.1151   -1.7237   -3.8350 C   0  0  0  0  0  0  0  0  0  0  0  0
    3.3564   -1.4808   -3.2559 C   0  0  0  0  0  0  0  0  0  0  0  0
    3.4843   -1.3718   -1.8749 C   0  0  0  0  0  0  0  0  0  0  0  0
   -0.2467   -2.1046   -3.6261 C   0  0  0  0  0  0  0  0  0  0  0  0
   -1.3715   -2.2413   -2.8203 C   0  0  0  0  0  0  0  0  0  0  0  0
   -1.2746   -2.1353   -1.4368 C   0  0  0  0  0  0  0  0  0  0  0  0
   -0.0272   -1.8901   -0.8730 C   0  0  0  0  0  0  0  0  0  0  0  0
   -3.2760    2.3571    5.7467 H   0  0  0  0  0  0  0  0  0  0  0  0
   -2.9170    3.4101    6.9422 H   0  0  0  0  0  0  0  0  0  0  0  0
   -4.1687    1.7716    7.9514 H   0  0  0  0  0  0  0  0  0  0  0  0
   -3.3386    0.5825    7.2005 H   0  0  0  0  0  0  0  0  0  0  0  0
   -1.2606   -0.0046    7.8947 H   0  0  0  0  0  0  0  0  0  0  0  0
   -0.5512    0.7554    9.1540 H   0  0  0  0  0  0  0  0  0  0  0  0
   -0.0581    2.6010    7.8851 H   0  0  0  0  0  0  0  0  0  0  0  0
    0.3457    1.3278    6.9457 H   0  0  0  0  0  0  0  0  0  0  0  0
    1.3263    4.3055    6.5470 H   0  0  0  0  0  0  0  0  0  0  0  0
    1.3965    6.2655    7.9212 H   0  0  0  0  0  0  0  0  0  0  0  0
   -0.1949    8.0177    7.5836 H   0  0  0  0  0  0  0  0  0  0  0  0
   -1.8536    7.8132    5.8816 H   0  0  0  0  0  0  0  0  0  0  0  0
   -1.9361    5.8578    4.5021 H   0  0  0  0  0  0  0  0  0  0  0  0
    0.4532    4.4962    2.7660 H   0  0  0  0  0  0  0  0  0  0  0  0
    5.6970    1.9052    1.2093 H   0  0  0  0  0  0  0  0  0  0  0  0
    5.1325   -0.4597    0.6470 H   0  0  0  0  0  0  0  0  0  0  0  0
    1.6736   -1.4935    0.8979 H   0  0  0  0  0  0  0  0  0  0  0  0
    3.1904   -2.0811    0.7534 H   0  0  0  0  0  0  0  0  0  0  0  0
    2.0334   -1.8004   -4.8287 H   0  0  0  0  0  0  0  0  0  0  0  0
    4.1641   -1.3838   -3.8375 H   0  0  0  0  0  0  0  0  0  0  0  0
    4.3799   -1.1973   -1.4655 H   0  0  0  0  0  0  0  0  0  0  0  0
   -0.3238   -2.1812   -4.6201 H   0  0  0  0  0  0  0  0  0  0  0  0
   -2.2614   -2.4181   -3.2407 H   0  0  0  0  0  0  0  0  0  0  0  0
   -2.0852   -2.2334   -0.8594 H   0  0  0  0  0  0  0  0  0  0  0  0
    0.0488   -1.8122    0.1211 H   0  0  0  0  0  0  0  0  0  0  0  0
  1  2  1  0  0  0  0
  2  3  1  0  0  0  0
  3  4  1  0  0  0  0
  4  5  1  0  0  0  0
  5  6  1  0  0  0  0
  6  7  1  0  0  0  0
  7  8  1  0  0  0  0
  8  3  1  0  0  0  0
  2  9  2  0  0  0  0
  9 10  1  0  0  0  0
 10 11  1  0  0  0  0
 11 12  2  0  0  0  0
 12 13  1  0  0  0  0
 13 14  2  0  0  0  0
 14 15  1  0  0  0  0
 15 10  2  0  0  0  0
  9 16  1  0  0  0  0
 16 17  2  0  0  0  0
 17  1  1  0  0  0  0
 17 18  1  0  0  0  0
 18 19  2  0  0  0  0
 18 20  1  0  0  0  0
 20 21  2  0  0  0  0
 21 22  1  0  0  0  0
 22 23  1  0  0  0  0
 23 24  2  0  0  0  0
 24 25  1  0  0  0  0
 25 21  1  0  0  0  0
 25 26  1  0  0  0  0
 26 27  1  0  0  0  0
 27 28  1  0  0  0  0
 28 29  2  0  0  0  0
 29 30  1  0  0  0  0
 30 31  2  0  0  0  0
 31 32  1  0  0  0  0
 32 27  2  0  0  0  0
 29 33  1  0  0  0  0
 33 34  2  0  0  0  0
 34 35  1  0  0  0  0
 35 36  2  0  0  0  0
 36 28  1  0  0  0  0
  4 37  1  0  0  0  0
  4 38  1  0  0  0  0
  5 39  1  0  0  0  0
  5 40  1  0  0  0  0
  7 41  1  0  0  0  0
  7 42  1  0  0  0  0
  8 43  1  0  0  0  0
  8 44  1  0  0  0  0
 11 45  1  0  0  0  0
 12 46  1  0  0  0  0
 13 47  1  0  0  0  0
 14 48  1  0  0  0  0
 15 49  1  0  0  0  0
 16 50  1  0  0  0  0
 23 51  1  0  0  0  0
 24 52  1  0  0  0  0
 26 53  1  0  0  0  0
 26 54  1  0  0  0  0
 30 55  1  0  0  0  0
 31 56  1  0  0  0  0
 32 57  1  0  0  0  0
 33 58  1  0  0  0  0
 34 59  1  0  0  0  0
 35 60  1  0  0  0  0
 36 61  1  0  0  0  0
M  END
>  <result-rank>
82

>  <similarity>
0.866

>  <query-name>


>  <query-smiles>
S(=O)(=O)(NC(=O)C)c1ccc(cc1)C=2N3C(=NC(=C3)COc4nc5c(cc4)cccc5)C(=NC2)N6CCOCC6

>  <source>
REALspace_2019-12

>  <similarity-descriptor>
0.959;1.000;0.843;0.752;0.782;0.999;0.0;0.0;0.0;0.0;1.000;0.782;0.0

>  <similarity-descriptor-smiles>
c1ccccc1;N1CCOCC1;N=C1NC=CS1;S1C(=CC=C1)C=O;c1ccccc1;c1ccccc1;;;;;C;c1ccccc1;

>  <reaction-name>
s_11a

>  <reagent1-name>
117402

>  <reagent1-smiles>
[R1*]N=C1SC=CN1Cc2c3c(ccc2)cccc3

>  <reagent2-name>
132801

>  <reagent2-smiles>
[R1*]C(=O)C=1SC(N2CCOCC2)=C(c3ccccc3)C1

$$$$
s_1458____9786070____1011832
          04022017313D 1   1.00000     0.00000     0
            
 63 67  0  0  0  0            999 V2000
   -0.8016    3.5322   -2.3280 S   0  0  0  0  0  0  0  0  0  0  0  0
   -1.2655    3.5631   -3.9654 C   0  0  0  0  0  0  0  0  0  0  0  0
   -1.1767    2.3408   -4.4313 N   0  0  0  0  0  0  0  0  0  0  0  0
   -0.7444    1.4028   -3.5319 C   0  0  0  0  0  0  0  0  0  0  0  0
   -0.5724    0.0006   -3.8596 C   0  0  0  0  0  0  0  0  0  0  0  0
    0.6811   -0.5886   -3.7306 C   0  0  0  0  0  0  0  0  0  0  0  0
    0.8418   -1.9337   -4.0468 C   0  0  0  0  0  0  0  0  0  0  0  0
   -0.2466   -2.6795   -4.4871 C   0  0  0  0  0  0  0  0  0  0  0  0
   -1.4941   -2.0806   -4.6117 C   0  0  0  0  0  0  0  0  0  0  0  0
   -1.6676   -0.7363   -4.2992 C   0  0  0  0  0  0  0  0  0  0  0  0
   -0.4770    1.8621   -2.2807 C   0  0  0  0  0  0  0  0  0  0  0  0
   -0.0169    1.0991   -1.1328 C   0  0  0  0  0  0  0  0  0  0  0  0
   -0.3181   -0.0571   -1.0211 O   0  0  0  0  0  0  0  0  0  0  0  0
    0.7267    1.6734   -0.2199 O   0  0  0  0  0  0  0  0  0  0  0  0
    1.0000    1.0000    1.0000 C   0  0  0  0  0  0  0  0  0  0  0  0
    1.8776    1.8776    1.8776 C   0  0  0  0  0  0  0  0  0  0  0  0
    2.2240    2.9588    1.4891 O   0  0  0  0  0  0  0  0  0  0  0  0
    2.2731    1.4341    3.1120 N   0  0  0  0  0  0  0  0  0  0  0  0
    1.8487    0.1096    3.5878 C   0  0  3  0  0  0  0  0  0  0  0  0
    3.0736   -0.7484    3.8567 C   0  0  0  0  0  0  0  0  0  0  0  0
    4.0728   -0.9316    3.0302 O   0  0  0  0  0  0  0  0  0  0  0  0
    4.9747   -1.7342    3.5605 C   0  0  0  0  0  0  0  0  0  0  0  0
    4.5632   -2.1057    4.8137 C   0  0  0  0  0  0  0  0  0  0  0  0
    5.3673   -2.9435    5.5860 C   0  0  0  0  0  0  0  0  0  0  0  0
    6.5831   -3.4202    5.1041 C   0  0  0  0  0  0  0  0  0  0  0  0
    6.9948   -3.0459    3.8296 C   0  0  0  0  0  0  0  0  0  0  0  0
    6.1880   -2.2061    3.0697 C   0  0  0  0  0  0  0  0  0  0  0  0
    3.3204   -1.4562    4.9968 C   0  0  0  0  0  0  0  0  0  0  0  0
    1.0474    0.2646    4.8701 C   0  0  0  0  0  0  0  0  0  0  0  0
    3.1218    2.2828    3.9607 C   0  0  0  0  0  0  0  0  0  0  0  0
   -1.6689    4.7058   -4.6656 N   0  0  0  0  0  0  0  0  0  0  0  0
   -1.1403    6.0186   -4.2632 C   0  0  0  0  0  0  0  0  0  0  0  0
   -0.9896    6.9373   -5.4659 C   0  0  0  0  0  0  0  0  0  0  0  0
   -2.1448    6.9038   -6.2942 O   0  0  0  0  0  0  0  0  0  0  0  0
   -2.3168    5.6136   -6.8658 C   0  0  0  0  0  0  0  0  0  0  0  0
   -2.5927    4.5628   -5.8011 C   0  0  0  0  0  0  0  0  0  0  0  0
    1.4609   -0.0492   -3.4128 H   0  0  0  0  0  0  0  0  0  0  0  0
    1.7399   -2.3644   -3.9577 H   0  0  0  0  0  0  0  0  0  0  0  0
   -0.1312   -3.6466   -4.7139 H   0  0  0  0  0  0  0  0  0  0  0  0
   -2.2738   -2.6205   -4.9287 H   0  0  0  0  0  0  0  0  0  0  0  0
   -2.5658   -0.3060   -4.3891 H   0  0  0  0  0  0  0  0  0  0  0  0
    1.4742    0.1409    0.8075 H   0  0  0  0  0  0  0  0  0  0  0  0
    0.1409    0.8075    1.4742 H   0  0  0  0  0  0  0  0  0  0  0  0
    1.2811   -0.3289    2.8910 H   0  0  0  0  0  0  0  0  0  0  0  0
    5.0650   -3.2066    6.5022 H   0  0  0  0  0  0  0  0  0  0  0  0
    7.1512   -4.0220    5.6653 H   0  0  0  0  0  0  0  0  0  0  0  0
    7.8638   -3.3779    3.4627 H   0  0  0  0  0  0  0  0  0  0  0  0
    6.4853   -1.9364    2.1538 H   0  0  0  0  0  0  0  0  0  0  0  0
    2.7350   -1.5062    5.8060 H   0  0  0  0  0  0  0  0  0  0  0  0
    0.7587   -0.6364    5.1938 H   0  0  0  0  0  0  0  0  0  0  0  0
    1.6150    0.7031    5.5670 H   0  0  0  0  0  0  0  0  0  0  0  0
    0.2412    0.8293    4.6932 H   0  0  0  0  0  0  0  0  0  0  0  0
    3.3142    1.8086    4.8198 H   0  0  0  0  0  0  0  0  0  0  0  0
    3.9809    2.4753    3.4865 H   0  0  0  0  0  0  0  0  0  0  0  0
    2.6475    3.1419    4.1532 H   0  0  0  0  0  0  0  0  0  0  0  0
   -0.2462    5.8934   -3.8333 H   0  0  0  0  0  0  0  0  0  0  0  0
   -1.7693    6.4377   -3.6084 H   0  0  0  0  0  0  0  0  0  0  0  0
   -0.8473    7.8734   -5.1442 H   0  0  0  0  0  0  0  0  0  0  0  0
   -0.1972    6.6447   -6.0012 H   0  0  0  0  0  0  0  0  0  0  0  0
   -1.4843    5.3639   -7.3603 H   0  0  0  0  0  0  0  0  0  0  0  0
   -3.0874    5.6406   -7.5026 H   0  0  0  0  0  0  0  0  0  0  0  0
   -3.5317    4.6680   -5.4737 H   0  0  0  0  0  0  0  0  0  0  0  0
   -2.4793    3.6537   -6.2021 H   0  0  0  0  0  0  0  0  0  0  0  0
  1  2  1  0  0  0  0
  2  3  2  0  0  0  0
  3  4  1  0  0  0  0
  4  5  1  0  0  0  0
  5  6  1  0  0  0  0
  6  7  2  0  0  0  0
  7  8  1  0  0  0  0
  8  9  2  0  0  0  0
  9 10  1  0  0  0  0
 10  5  2  0  0  0  0
  4 11  2  0  0  0  0
 11  1  1  0  0  0  0
 11 12  1  0  0  0  0
 12 13  2  0  0  0  0
 12 14  1  0  0  0  0
 14 15  1  0  0  0  0
 15 16  1  0  0  0  0
 16 17  2  0  0  0  0
 16 18  1  0  0  0  0
 18 19  1  0  0  0  0
 19 20  1  0  0  0  0
 20 21  1  0  0  0  0
 21 22  1  0  0  0  0
 22 23  1  0  0  0  0
 23 24  2  0  0  0  0
 24 25  1  0  0  0  0
 25 26  2  0  0  0  0
 26 27  1  0  0  0  0
 27 22  2  0  0  0  0
 23 28  1  0  0  0  0
 20 28  2  0  0  0  0
 19 29  1  0  0  0  0
 18 30  1  0  0  0  0
  2 31  1  0  0  0  0
 31 32  1  0  0  0  0
 32 33  1  0  0  0  0
 33 34  1  0  0  0  0
 34 35  1  0  0  0  0
 35 36  1  0  0  0  0
 36 31  1  0  0  0  0
  6 37  1  0  0  0  0
  7 38  1  0  0  0  0
  8 39  1  0  0  0  0
  9 40  1  0  0  0  0
 10 41  1  0  0  0  0
 15 42  1  0  0  0  0
 15 43  1  0  0  0  0
 19 44  1  0  0  0  0
 24 45  1  0  0  0  0
 25 46  1  0  0  0  0
 26 47  1  0  0  0  0
 27 48  1  0  0  0  0
 28 49  1  0  0  0  0
 29 50  1  0  0  0  0
 29 51  1  0  0  0  0
 29 52  1  0  0  0  0
 30 53  1  0  0  0  0
 30 54  1  0  0  0  0
 30 55  1  0  0  0  0
 32 56  1  0  0  0  0
 32 57  1  0  0  0  0
 33 58  1  0  0  0  0
 33 59  1  0  0  0  0
 35 60  1  0  0  0  0
 35 61  1  0  0  0  0
 36 62  1  0  0  0  0
 36 63  1  0  0  0  0
M  END
>  <result-rank>
83

>  <similarity>
0.865

>  <query-name>


>  <query-smiles>
S(=O)(=O)(NC(=O)C)c1ccc(cc1)C=2N3C(=NC(=C3)COc4nc5c(cc4)cccc5)C(=NC2)N6CCOCC6

>  <source>
REALspace_2019-12

>  <similarity-descriptor>
0.959;1.000;0.523;0.957;0.778;0.999;0.0;0.0;0.0;0.0;0.999;0.999;0.154

>  <similarity-descriptor-smiles>
c1ccccc1;N1CCOCC1;C=O;S1C=CN=C1;C(=O)NCC1=CccO1;c1ccccc1;;;;;OC;OC;C.C

>  <reaction-name>
s_1458

>  <reagent1-name>
9786070

>  <reagent1-smiles>
[R1*]OC(=O)C=1SC(=NC1c2ccccc2)N3CCOCC3

>  <reagent2-name>
1011832

>  <reagent2-smiles>
[R1*]CC(=O)N(C(C=1Oc2c(cccc2)C1)C)C

$$$$
m_274972____12934192____12615770____13047270
          04022017313D 1   1.00000     0.00000     0
            
 49 52  0  0  0  0            999 V2000
    1.5662   -7.9784    2.2730 S   0  0  0  0  0  0  0  0  0  0  0  0
    2.4864   -8.8770    2.9205 O   0  0  0  0  0  0  0  0  0  0  0  0
    0.3033   -8.0042    2.9644 O   0  0  0  0  0  0  0  0  0  0  0  0
    1.3486   -8.4450    0.7264 N   0  0  0  0  0  0  0  0  0  0  0  0
    0.8025   -9.8095    0.6985 C   0  0  0  0  0  0  0  0  0  0  0  0
    2.2386   -6.2983    2.3073 C   0  0  0  0  0  0  0  0  0  0  0  0
    1.3722   -5.2109    2.3429 C   0  0  0  0  0  0  0  0  0  0  0  0
    1.8997   -3.9241    2.3693 C   0  0  0  0  0  0  0  0  0  0  0  0
    3.2783   -3.7368    2.3590 C   0  0  0  0  0  0  0  0  0  0  0  0
    4.1410   -4.8276    2.3234 C   0  0  0  0  0  0  0  0  0  0  0  0
    3.6178   -6.1163    2.2972 C   0  0  0  0  0  0  0  0  0  0  0  0
    3.8152   -2.3901    2.3857 C   0  0  0  0  0  0  0  0  0  0  0  0
    5.4654   -1.9799    2.3778 S   0  0  0  0  0  0  0  0  0  0  0  0
    5.2502   -0.2907    2.4182 C   0  0  0  0  0  0  0  0  0  0  0  0
    3.8973   -0.1294    2.4325 C   0  0  0  0  0  0  0  0  0  0  0  0
    3.1361   -1.2652    2.4150 N   0  0  0  0  0  0  0  0  0  0  0  0
    3.3679    1.2133    2.4745 C   0  0  0  0  0  0  0  0  0  0  0  0
    4.0997    2.3609    2.4928 N   0  0  0  0  0  0  0  0  0  0  0  0
    3.2864    3.3264    2.5304 N   0  0  0  0  0  0  0  0  0  0  0  0
    2.0449    2.9079    2.5406 N   0  0  0  0  0  0  0  0  0  0  0  0
    2.0495    1.5504    2.5067 C   0  0  0  0  0  0  0  0  0  0  0  0
    0.8508    3.7642    2.5836 C   0  0  0  0  0  0  0  0  0  0  0  0
    0.4147    4.0971    1.1661 C   0  0  0  0  0  0  0  0  0  0  0  0
   -0.8214    4.9834    1.2106 C   0  0  0  0  0  0  0  0  0  0  0  0
   -0.7484    6.3251    1.2448 N   0  0  0  0  0  0  0  0  0  0  0  0
   -1.8369    7.1110    1.2836 C   0  0  0  0  0  0  0  0  0  0  0  0
   -3.0823    6.4894    1.2893 C   0  0  0  0  0  0  0  0  0  0  0  0
   -3.1809    5.1524    1.2557 N   0  0  0  0  0  0  0  0  0  0  0  0
   -2.0790    4.3890    1.2169 C   0  0  0  0  0  0  0  0  0  0  0  0
   -1.7408    8.6275    1.3222 C   0  0  0  0  0  0  0  0  0  0  0  0
    2.2256   -8.4271    0.2463 H   0  0  0  0  0  0  0  0  0  0  0  0
    0.6690  -10.0958   -0.2503 H   0  0  0  0  0  0  0  0  0  0  0  0
    1.4415  -10.4336    1.1482 H   0  0  0  0  0  0  0  0  0  0  0  0
   -0.0745   -9.8275    1.1787 H   0  0  0  0  0  0  0  0  0  0  0  0
    0.3823   -5.3524    2.3495 H   0  0  0  0  0  0  0  0  0  0  0  0
    1.2879   -3.1334    2.3956 H   0  0  0  0  0  0  0  0  0  0  0  0
    5.1310   -4.6862    2.3168 H   0  0  0  0  0  0  0  0  0  0  0  0
    4.2293   -6.9071    2.2712 H   0  0  0  0  0  0  0  0  0  0  0  0
    5.9545    0.4191    2.4289 H   0  0  0  0  0  0  0  0  0  0  0  0
    1.2607    0.9357    2.5056 H   0  0  0  0  0  0  0  0  0  0  0  0
    1.0640    4.6092    3.0739 H   0  0  0  0  0  0  0  0  0  0  0  0
    0.1121    3.2825    3.0551 H   0  0  0  0  0  0  0  0  0  0  0  0
    1.1534    4.5787    0.6945 H   0  0  0  0  0  0  0  0  0  0  0  0
    0.2015    3.2521    0.6758 H   0  0  0  0  0  0  0  0  0  0  0  0
   -3.9126    7.0459    1.3187 H   0  0  0  0  0  0  0  0  0  0  0  0
   -2.1615    3.3927    1.1926 H   0  0  0  0  0  0  0  0  0  0  0  0
   -2.6606    9.0192    1.3477 H   0  0  0  0  0  0  0  0  0  0  0  0
   -1.2359    8.9089    2.1382 H   0  0  0  0  0  0  0  0  0  0  0  0
   -1.2629    8.9521    0.5060 H   0  0  0  0  0  0  0  0  0  0  0  0
  1  2  2  0  0  0  0
  1  3  2  0  0  0  0
  1  4  1  0  0  0  0
  4  5  1  0  0  0  0
  1  6  1  0  0  0  0
  6  7  1  0  0  0  0
  7  8  2  0  0  0  0
  8  9  1  0  0  0  0
  9 10  2  0  0  0  0
 10 11  1  0  0  0  0
 11  6  2  0  0  0  0
  9 12  1  0  0  0  0
 12 13  1  0  0  0  0
 13 14  1  0  0  0  0
 14 15  2  0  0  0  0
 15 16  1  0  0  0  0
 12 16  2  0  0  0  0
 15 17  1  0  0  0  0
 17 18  1  0  0  0  0
 18 19  2  0  0  0  0
 19 20  1  0  0  0  0
 20 21  1  0  0  0  0
 17 21  2  0  0  0  0
 20 22  1  0  0  0  0
 22 23  1  0  0  0  0
 23 24  1  0  0  0  0
 24 25  1  0  0  0  0
 25 26  2  0  0  0  0
 26 27  1  0  0  0  0
 27 28  2  0  0  0  0
 28 29  1  0  0  0  0
 29 24  2  0  0  0  0
 26 30  1  0  0  0  0
  4 31  1  0  0  0  0
  5 32  1  0  0  0  0
  5 33  1  0  0  0  0
  5 34  1  0  0  0  0
  7 35  1  0  0  0  0
  8 36  1  0  0  0  0
 10 37  1  0  0  0  0
 11 38  1  0  0  0  0
 14 39  1  0  0  0  0
 21 40  1  0  0  0  0
 22 41  1  0  0  0  0
 22 42  1  0  0  0  0
 23 43  1  0  0  0  0
 23 44  1  0  0  0  0
 27 45  1  0  0  0  0
 29 46  1  0  0  0  0
 30 47  1  0  0  0  0
 30 48  1  0  0  0  0
 30 49  1  0  0  0  0
M  END
>  <result-rank>
84

>  <similarity>
0.865

>  <query-name>


>  <query-smiles>
S(=O)(=O)(NC(=O)C)c1ccc(cc1)C=2N3C(=NC(=C3)COc4nc5c(cc4)cccc5)C(=NC2)N6CCOCC6

>  <source>
REALspace_2019-12

>  <similarity-descriptor>
1.000;0.0;0.832;0.976;0.971;0.0;1.000;0.733;0.733;0.733;0.670;0.971;0.100

>  <similarity-descriptor-smiles>
c1ccccc1;;C1=CNN=N1;C1=NC=CS1;c1cnccn1;;S(=O)=O;NC;NC;NC;CC;c1cnccn1;C

>  <reaction-name>
m_274972

>  <reagent1-name>
12934192

>  <reagent1-smiles>
[R1*]SC(=N[R2*])c1ccc(S(=O)(=O)NC)cc1

>  <reagent2-name>
12615770

>  <reagent2-smiles>
[R2*]C(C([R3*])=C[R4*])=C[R1*]

>  <reagent3-name>
13047270

>  <reagent3-smiles>
[R3*]N=NN([R4*])CCc1nc(cnc1)C

$$$$
m_276010a____17282320____17275830____17280668
          04022017313D 1   1.00000     0.00000     0
            
 67 72  0  0  0  0            999 V2000
   -2.0219   -1.4290    4.5511 S   0  0  0  0  0  0  0  0  0  0  0  0
   -1.9267   -3.1088    4.8147 C   0  0  0  0  0  0  0  0  0  0  0  0
   -2.6143   -3.8196    5.8072 N   0  0  0  0  0  0  0  0  0  0  0  0
   -4.0788   -3.7034    5.8809 C   0  0  0  0  0  0  0  0  0  0  0  0
   -4.5613   -3.8141    7.3190 C   0  0  0  0  0  0  0  0  0  0  0  0
   -3.9507   -4.9108    7.9858 O   0  0  0  0  0  0  0  0  0  0  0  0
   -2.5569   -4.6688    8.1214 C   0  0  0  0  0  0  0  0  0  0  0  0
   -1.8649   -4.6445    6.7672 C   0  0  0  0  0  0  0  0  0  0  0  0
   -1.0657   -3.6215    3.8914 C   0  0  0  0  0  0  0  0  0  0  0  0
   -0.7547   -5.0370    3.8350 C   0  0  0  0  0  0  0  0  0  0  0  0
    0.5728   -5.4493    3.7830 C   0  0  0  0  0  0  0  0  0  0  0  0
    0.8666   -6.8079    3.7281 C   0  0  0  0  0  0  0  0  0  0  0  0
   -0.1633   -7.7428    3.7269 C   0  0  0  0  0  0  0  0  0  0  0  0
   -1.4856   -7.3193    3.7797 C   0  0  0  0  0  0  0  0  0  0  0  0
   -1.7925   -5.9636    3.8342 C   0  0  0  0  0  0  0  0  0  0  0  0
   -0.5210   -2.6481    3.0146 C   0  0  0  0  0  0  0  0  0  0  0  0
   -0.9439   -1.3736    3.2356 C   0  0  0  0  0  0  0  0  0  0  0  0
   -0.5495   -0.1898    2.4951 C   0  0  0  0  0  0  0  0  0  0  0  0
   -1.2303    0.7975    2.5350 O   0  0  0  0  0  0  0  0  0  0  0  0
    0.6003   -0.1993    1.7502 N   0  0  0  0  0  0  0  0  0  0  0  0
    1.0000    1.0000    1.0000 C   0  0  0  0  0  0  0  0  0  0  0  0
    1.8772    1.8772    1.8772 C   0  0  0  0  0  0  0  0  0  0  0  0
    3.2349    1.8118    1.9726 N   0  0  0  0  0  0  0  0  0  0  0  0
    3.6039    2.6924    2.7998 N   0  0  0  0  0  0  0  0  0  0  0  0
    2.5769    3.3544    3.2731 N   0  0  0  0  0  0  0  0  0  0  0  0
    1.4436    2.8630    2.7064 C   0  0  0  0  0  0  0  0  0  0  0  0
    2.6397    4.4460    4.2558 C   0  0  0  0  0  0  0  0  0  0  0  0
    2.7840    5.7740    3.5295 C   0  0  0  0  0  0  0  0  0  0  0  0
    4.0552    6.1845    3.0452 C   0  0  0  0  0  0  0  0  0  0  0  0
    5.0189    5.4563    3.2235 O   0  0  0  0  0  0  0  0  0  0  0  0
    4.1772    7.3838    2.3910 N   0  0  0  0  0  0  0  0  0  0  0  0
    3.0827    8.1940    2.1979 C   0  0  0  0  0  0  0  0  0  0  0  0
    1.8268    7.8131    2.6626 C   0  0  0  0  0  0  0  0  0  0  0  0
    0.7011    8.6100    2.4840 C   0  0  0  0  0  0  0  0  0  0  0  0
    0.8377    9.8240    1.8192 C   0  0  0  0  0  0  0  0  0  0  0  0
    2.0750   10.2403    1.3396 C   0  0  0  0  0  0  0  0  0  0  0  0
    3.1779    9.4169    1.5374 C   0  0  0  0  0  0  0  0  0  0  0  0
    1.6879    6.5746    3.3421 C   0  0  0  0  0  0  0  0  0  0  0  0
    5.5182    7.7579    1.9108 C   0  0  0  0  0  0  0  0  0  0  0  0
   -4.4929   -4.4352    5.3396 H   0  0  0  0  0  0  0  0  0  0  0  0
   -4.3558   -2.8169    5.5102 H   0  0  0  0  0  0  0  0  0  0  0  0
   -4.3340   -2.9701    7.8048 H   0  0  0  0  0  0  0  0  0  0  0  0
   -5.5529   -3.9431    7.3209 H   0  0  0  0  0  0  0  0  0  0  0  0
   -2.1535   -5.3935    8.6802 H   0  0  0  0  0  0  0  0  0  0  0  0
   -2.4220   -3.7863    8.5719 H   0  0  0  0  0  0  0  0  0  0  0  0
   -0.9458   -4.2657    6.8763 H   0  0  0  0  0  0  0  0  0  0  0  0
   -1.8008   -5.5785    6.4158 H   0  0  0  0  0  0  0  0  0  0  0  0
    1.3105   -4.7741    3.7850 H   0  0  0  0  0  0  0  0  0  0  0  0
    1.8183   -7.1125    3.6895 H   0  0  0  0  0  0  0  0  0  0  0  0
    0.0479   -8.7194    3.6881 H   0  0  0  0  0  0  0  0  0  0  0  0
   -2.2229   -7.9949    3.7784 H   0  0  0  0  0  0  0  0  0  0  0  0
   -2.7444   -5.6598    3.8721 H   0  0  0  0  0  0  0  0  0  0  0  0
    0.1256   -2.8811    2.2882 H   0  0  0  0  0  0  0  0  0  0  0  0
    1.1677   -1.0221    1.7169 H   0  0  0  0  0  0  0  0  0  0  0  0
    0.1842    1.5104    0.7281 H   0  0  0  0  0  0  0  0  0  0  0  0
    1.5104    0.7281    0.1842 H   0  0  0  0  0  0  0  0  0  0  0  0
    0.5019    3.1601    2.8641 H   0  0  0  0  0  0  0  0  0  0  0  0
    3.4264    4.3080    4.8575 H   0  0  0  0  0  0  0  0  0  0  0  0
    1.8009    4.4532    4.8001 H   0  0  0  0  0  0  0  0  0  0  0  0
   -0.1907    8.3154    2.8274 H   0  0  0  0  0  0  0  0  0  0  0  0
    0.0354   10.4055    1.6843 H   0  0  0  0  0  0  0  0  0  0  0  0
    2.1696   11.1138    0.8621 H   0  0  0  0  0  0  0  0  0  0  0  0
    4.0693    9.7125    1.1941 H   0  0  0  0  0  0  0  0  0  0  0  0
    0.7928    6.2872    3.6830 H   0  0  0  0  0  0  0  0  0  0  0  0
    6.1705    7.0386    2.1499 H   0  0  0  0  0  0  0  0  0  0  0  0
    5.4968    7.8719    0.9176 H   0  0  0  0  0  0  0  0  0  0  0  0
    5.7978    8.6172    2.3390 H   0  0  0  0  0  0  0  0  0  0  0  0
  1  2  1  0  0  0  0
  2  3  1  0  0  0  0
  3  4  1  0  0  0  0
  4  5  1  0  0  0  0
  5  6  1  0  0  0  0
  6  7  1  0  0  0  0
  7  8  1  0  0  0  0
  8  3  1  0  0  0  0
  2  9  2  0  0  0  0
  9 10  1  0  0  0  0
 10 11  1  0  0  0  0
 11 12  2  0  0  0  0
 12 13  1  0  0  0  0
 13 14  2  0  0  0  0
 14 15  1  0  0  0  0
 15 10  2  0  0  0  0
  9 16  1  0  0  0  0
 16 17  2  0  0  0  0
 17  1  1  0  0  0  0
 17 18  1  0  0  0  0
 18 19  2  0  0  0  0
 18 20  1  0  0  0  0
 20 21  1  0  0  0  0
 21 22  1  0  0  0  0
 22 23  1  0  0  0  0
 23 24  2  0  0  0  0
 24 25  1  0  0  0  0
 25 26  1  0  0  0  0
 22 26  2  0  0  0  0
 25 27  1  0  0  0  0
 27 28  1  0  0  0  0
 28 29  1  0  0  0  0
 29 30  2  0  0  0  0
 29 31  1  0  0  0  0
 31 32  1  0  0  0  0
 32 33  1  0  0  0  0
 33 34  2  0  0  0  0
 34 35  1  0  0  0  0
 35 36  2  0  0  0  0
 36 37  1  0  0  0  0
 37 32  2  0  0  0  0
 33 38  1  0  0  0  0
 28 38  2  0  0  0  0
 31 39  1  0  0  0  0
  4 40  1  0  0  0  0
  4 41  1  0  0  0  0
  5 42  1  0  0  0  0
  5 43  1  0  0  0  0
  7 44  1  0  0  0  0
  7 45  1  0  0  0  0
  8 46  1  0  0  0  0
  8 47  1  0  0  0  0
 11 48  1  0  0  0  0
 12 49  1  0  0  0  0
 13 50  1  0  0  0  0
 14 51  1  0  0  0  0
 15 52  1  0  0  0  0
 16 53  1  0  0  0  0
 20 54  1  0  0  0  0
 21 55  1  0  0  0  0
 21 56  1  0  0  0  0
 26 57  1  0  0  0  0
 27 58  1  0  0  0  0
 27 59  1  0  0  0  0
 34 60  1  0  0  0  0
 35 61  1  0  0  0  0
 36 62  1  0  0  0  0
 37 63  1  0  0  0  0
 38 64  1  0  0  0  0
 39 65  1  0  0  0  0
 39 66  1  0  0  0  0
 39 67  1  0  0  0  0
M  END
>  <result-rank>
85

>  <similarity>
0.865

>  <query-name>


>  <query-smiles>
S(=O)(=O)(NC(=O)C)c1ccc(cc1)C=2N3C(=NC(=C3)COc4nc5c(cc4)cccc5)C(=NC2)N6CCOCC6

>  <source>
REALspace_2019-12

>  <similarity-descriptor>
0.959;1.000;0.831;0.641;0.960;0.999;0.0;0.0;0.0;0.0;0.999;0.960;0.091

>  <similarity-descriptor-smiles>
c1ccccc1;N1CCOCC1;C1=CNN=N1;S1C(=CC=C1)C(=O)NC;C1=CccNC1=O;c1ccccc1;;;;;C;C1=CccNC1=O;C

>  <reaction-name>
m_276010a

>  <reagent1-name>
17282320

>  <reagent1-smiles>
[R1*]N=NN([R2*])CC=1C(=O)N(c2c(cccc2)C1)C

>  <reagent2-name>
17275830

>  <reagent2-smiles>
[R3*]C(=O)C=1SC(N2CCOCC2)=C(c3ccccc3)C1

>  <reagent3-name>
17280668

>  <reagent3-smiles>
[R3*]NCC([R1*])=C[R2*]

$$$$
m_274860a____17127486____17212876____15233762
          04022017313D 1   1.00000     0.00000     0
            
 62 66  0  0  0  0            999 V2000
    8.9662   -0.2109    0.9987 S   0  0  0  0  0  0  0  0  0  0  0  0
    9.4479    0.9645    1.6770 O   0  0  0  0  0  0  0  0  0  0  0  0
    9.4451   -1.3870    1.6777 O   0  0  0  0  0  0  0  0  0  0  0  0
    9.5089   -0.2120   -0.5383 N   0  0  0  0  0  0  0  0  0  0  0  0
    9.3521    0.9290   -1.3379 C   0  0  0  0  0  0  0  0  0  0  0  0
    9.8645    1.0854   -2.9551 S   0  0  0  0  0  0  0  0  0  0  0  0
    9.3129    2.6840   -3.1517 C   0  0  0  0  0  0  0  0  0  0  0  0
    8.7793    3.0024   -1.9975 N   0  0  0  0  0  0  0  0  0  0  0  0
    8.8032    2.0822   -1.0399 N   0  0  0  0  0  0  0  0  0  0  0  0
    7.2266   -0.2088    0.9994 C   0  0  0  0  0  0  0  0  0  0  0  0
    6.5367   -1.4166    1.0001 C   0  0  0  0  0  0  0  0  0  0  0  0
    5.1460   -1.4085    1.0000 C   0  0  0  0  0  0  0  0  0  0  0  0
    4.4617   -0.1977    1.0000 C   0  0  0  0  0  0  0  0  0  0  0  0
    3.0615   -0.1977    1.0000 N   0  0  0  0  0  0  0  0  0  0  0  0
    2.3700    1.0000    1.0000 N   0  0  0  0  0  0  0  0  0  0  0  0
    1.0000    1.0000    1.0000 C   0  0  0  0  0  0  0  0  0  0  0  0
    0.4000   -0.0392    1.0000 O   0  0  0  0  0  0  0  0  0  0  0  0
    0.2400    2.3164    1.0000 C   0  0  3  0  0  0  0  0  0  0  0  0
   -1.2051    2.0478    1.0000 N   0  0  0  0  0  0  0  0  0  0  0  0
   -1.8602    1.3851    0.0789 N   0  0  0  0  0  0  0  0  0  0  0  0
   -3.0918    1.3127    0.3489 N   0  0  0  0  0  0  0  0  0  0  0  0
   -3.2893    1.9676    1.5257 C   0  0  0  0  0  0  0  0  0  0  0  0
   -4.5605    2.1295    2.2086 C   0  0  0  0  0  0  0  0  0  0  0  0
   -4.7959    1.6525    3.4989 C   0  0  0  0  0  0  0  0  0  0  0  0
   -6.0422    1.8478    4.0889 C   0  0  0  0  0  0  0  0  0  0  0  0
   -7.0191    2.5199    3.3605 C   0  0  0  0  0  0  0  0  0  0  0  0
   -6.7708    2.9689    2.1210 N   0  0  0  0  0  0  0  0  0  0  0  0
   -5.5786    2.7924    1.5321 C   0  0  0  0  0  0  0  0  0  0  0  0
   -6.3123    1.3877    5.3733 C   0  0  0  0  0  0  0  0  0  0  0  0
   -5.3180    0.7206    6.0807 C   0  0  0  0  0  0  0  0  0  0  0  0
   -4.0632    0.5095    5.5210 C   0  0  0  0  0  0  0  0  0  0  0  0
   -3.8217    0.9799    4.2349 C   0  0  0  0  0  0  0  0  0  0  0  0
   -2.0875    2.4417    1.9542 C   0  0  0  0  0  0  0  0  0  0  0  0
    0.6072    3.1134   -0.2411 C   0  0  0  0  0  0  0  0  0  0  0  0
   -0.1028    4.3432   -0.2411 O   0  0  0  0  0  0  0  0  0  0  0  0
    0.2402    5.0878   -1.4005 C   0  0  0  0  0  0  0  0  0  0  0  0
   -0.5198    6.4041   -1.4005 C   0  0  0  0  0  0  0  0  0  0  0  0
    5.1574    1.0061    0.9991 C   0  0  0  0  0  0  0  0  0  0  0  0
    6.5481    1.0052    0.9989 C   0  0  0  0  0  0  0  0  0  0  0  0
    9.9538   -1.0264   -0.9109 H   0  0  0  0  0  0  0  0  0  0  0  0
    9.3811    3.2555   -3.9695 H   0  0  0  0  0  0  0  0  0  0  0  0
    7.0362   -2.2829    1.0006 H   0  0  0  0  0  0  0  0  0  0  0  0
    4.6395   -2.2708    0.9999 H   0  0  0  0  0  0  0  0  0  0  0  0
    2.5615   -1.0637    1.0000 H   0  0  0  0  0  0  0  0  0  0  0  0
    2.8700    1.8660    1.0000 H   0  0  0  0  0  0  0  0  0  0  0  0
    0.4816    2.8407    1.8165 H   0  0  0  0  0  0  0  0  0  0  0  0
   -7.9201    2.6705    3.7674 H   0  0  0  0  0  0  0  0  0  0  0  0
   -5.4219    3.1376    0.6067 H   0  0  0  0  0  0  0  0  0  0  0  0
   -7.2121    1.5350    5.7839 H   0  0  0  0  0  0  0  0  0  0  0  0
   -5.5082    0.3882    7.0045 H   0  0  0  0  0  0  0  0  0  0  0  0
   -3.3498    0.0299    6.0320 H   0  0  0  0  0  0  0  0  0  0  0  0
   -2.9216    0.8312    3.8255 H   0  0  0  0  0  0  0  0  0  0  0  0
   -1.8969    2.9635    2.7857 H   0  0  0  0  0  0  0  0  0  0  0  0
    1.5904    3.2961   -0.2411 H   0  0  0  0  0  0  0  0  0  0  0  0
    0.3656    2.5890   -1.0576 H   0  0  0  0  0  0  0  0  0  0  0  0
   -0.0013    4.5634   -2.2170 H   0  0  0  0  0  0  0  0  0  0  0  0
    1.2234    5.2705   -1.4005 H   0  0  0  0  0  0  0  0  0  0  0  0
   -0.2782    6.9285   -2.2170 H   0  0  0  0  0  0  0  0  0  0  0  0
   -1.5029    6.2214   -1.4005 H   0  0  0  0  0  0  0  0  0  0  0  0
   -0.2782    6.9285   -0.5840 H   0  0  0  0  0  0  0  0  0  0  0  0
    4.6578    1.8724    0.9986 H   0  0  0  0  0  0  0  0  0  0  0  0
    7.0544    1.8675    0.9984 H   0  0  0  0  0  0  0  0  0  0  0  0
  1  2  2  0  0  0  0
  1  3  2  0  0  0  0
  1  4  1  0  0  0  0
  4  5  1  0  0  0  0
  5  6  1  0  0  0  0
  6  7  1  0  0  0  0
  7  8  2  0  0  0  0
  8  9  1  0  0  0  0
  5  9  2  0  0  0  0
  1 10  1  0  0  0  0
 10 11  1  0  0  0  0
 11 12  2  0  0  0  0
 12 13  1  0  0  0  0
 13 14  1  0  0  0  0
 14 15  1  0  0  0  0
 15 16  1  0  0  0  0
 16 17  2  0  0  0  0
 16 18  1  0  0  0  0
 18 19  1  0  0  0  0
 19 20  1  0  0  0  0
 20 21  2  0  0  0  0
 21 22  1  0  0  0  0
 22 23  1  0  0  0  0
 23 24  1  0  0  0  0
 24 25  2  0  0  0  0
 25 26  1  0  0  0  0
 26 27  2  0  0  0  0
 27 28  1  0  0  0  0
 28 23  2  0  0  0  0
 25 29  1  0  0  0  0
 29 30  2  0  0  0  0
 30 31  1  0  0  0  0
 31 32  2  0  0  0  0
 32 24  1  0  0  0  0
 22 33  2  0  0  0  0
 33 19  1  0  0  0  0
 18 34  1  0  0  0  0
 34 35  1  0  0  0  0
 35 36  1  0  0  0  0
 36 37  1  0  0  0  0
 13 38  2  0  0  0  0
 38 39  1  0  0  0  0
 39 10  2  0  0  0  0
  4 40  1  0  0  0  0
  7 41  1  0  0  0  0
 11 42  1  0  0  0  0
 12 43  1  0  0  0  0
 14 44  1  0  0  0  0
 15 45  1  0  0  0  0
 18 46  1  0  0  0  0
 26 47  1  0  0  0  0
 28 48  1  0  0  0  0
 29 49  1  0  0  0  0
 30 50  1  0  0  0  0
 31 51  1  0  0  0  0
 32 52  1  0  0  0  0
 33 53  1  0  0  0  0
 34 54  1  0  0  0  0
 34 55  1  0  0  0  0
 36 56  1  0  0  0  0
 36 57  1  0  0  0  0
 37 58  1  0  0  0  0
 37 59  1  0  0  0  0
 37 60  1  0  0  0  0
 38 61  1  0  0  0  0
 39 62  1  0  0  0  0
M  END
>  <result-rank>
86

>  <similarity>
0.865

>  <query-name>


>  <query-smiles>
S(=O)(=O)(NC(=O)C)c1ccc(cc1)C=2N3C(=NC(=C3)COc4nc5c(cc4)cccc5)C(=NC2)N6CCOCC6

>  <source>
REALspace_2019-12

>  <similarity-descriptor>
0.998;0.842;0.889;0.467;0.999;0.999;1.000;0.991;0.686;0.686;0.889;0.889;0.0

>  <similarity-descriptor-smiles>
c1ccccc1;COCC;N1C=CN=N1;NNC(=O)C;c1cnccc1;c1ccccc1;S(=O)=O;N;C1=NN=CS1;C1=NN=CS1;N1C=CN=N1;N1C=CN=N1;

>  <reaction-name>
m_274860a

>  <reagent1-name>
17127486

>  <reagent1-smiles>
[R3*]NNc1ccc(S(=O)(=O)NC=2SC=NN2)cc1

>  <reagent2-name>
17212876

>  <reagent2-smiles>
[R1*]N=NN([R2*])C(C([R3*])=O)COCC

>  <reagent3-name>
15233762

>  <reagent3-smiles>
[R1*]C(c1c2c(cnc1)cccc2)=C[R2*]

$$$$
s_60____90638____17632246
          04022017313D 1   1.00000     0.00000     0
            
 81 87  0  0  0  0            999 V2000
   -3.2683   -3.6510    1.0414 S   0  0  0  0  0  0  0  0  0  0  0  0
   -4.6688   -3.5290    1.3534 O   0  0  0  0  0  0  0  0  0  0  0  0
   -3.0819   -3.5372   -0.3820 O   0  0  0  0  0  0  0  0  0  0  0  0
   -2.6796   -5.2188    1.5870 N   0  0  0  0  0  0  0  0  0  0  0  0
   -1.2500   -5.3990    1.2933 C   0  0  0  0  0  0  0  0  0  0  0  0
   -0.7749   -6.7621    1.7708 C   0  0  0  0  0  0  0  0  0  0  0  0
   -1.0246   -6.9114    3.1612 O   0  0  0  0  0  0  0  0  0  0  0  0
   -2.4000   -6.7593    3.4815 C   0  0  0  0  0  0  0  0  0  0  0  0
   -2.8980   -5.3953    3.0306 C   0  0  0  0  0  0  0  0  0  0  0  0
   -2.3832   -2.3880    1.8447 C   0  0  0  0  0  0  0  0  0  0  0  0
   -1.2180   -1.8903    1.2742 C   0  0  0  0  0  0  0  0  0  0  0  0
   -0.5030   -0.8791    1.9048 C   0  0  0  0  0  0  0  0  0  0  0  0
    0.6503   -0.2440    1.5442 N   0  0  0  0  0  0  0  0  0  0  0  0
    0.9271    0.6386    2.4756 C   0  0  0  0  0  0  0  0  0  0  0  0
   -0.0346    0.5837    3.4377 N   0  0  0  0  0  0  0  0  0  0  0  0
   -0.9503   -0.3704    3.0986 C   0  0  0  0  0  0  0  0  0  0  0  0
   -2.1155   -0.8692    3.6720 C   0  0  0  0  0  0  0  0  0  0  0  0
   -2.8431   -1.8798    3.0542 C   0  0  0  0  0  0  0  0  0  0  0  0
   -0.0747    1.4203    4.6477 C   0  0  0  0  0  0  0  0  0  0  0  0
    0.6757    0.7238    5.7701 C   0  0  3  0  0  0  0  0  0  0  0  0
    0.0841   -0.5284    6.0565 O   0  0  0  0  0  0  0  0  0  0  0  0
    0.5510   -0.8977    7.3471 C   0  0  0  0  0  0  0  0  0  0  0  0
    0.8593    0.3976    8.0721 C   0  0  0  0  0  0  0  0  0  0  0  0
    0.4945    1.4752    7.0694 C   0  0  0  0  0  0  0  0  0  0  0  0
    2.0728    1.5269    2.4793 C   0  0  0  0  0  0  0  0  0  0  0  0
    2.0374    2.9341    2.4895 C   0  0  0  0  0  0  0  0  0  0  0  0
    3.2849    3.3409    2.4887 N   0  0  0  0  0  0  0  0  0  0  0  0
    4.1018    2.3121    2.4818 N   0  0  0  0  0  0  0  0  0  0  0  0
    3.3827    1.1547    2.4737 C   0  0  0  0  0  0  0  0  0  0  0  0
    5.5705    2.3895    2.4785 C   0  0  0  0  0  0  0  0  0  0  0  0
    6.1172    1.6947    3.7150 C   0  0  0  0  0  0  0  0  0  0  0  0
    6.1112    1.7066    1.2329 C   0  0  0  0  0  0  0  0  0  0  0  0
    6.0010    3.8473    2.4845 C   0  0  0  0  0  0  0  0  0  0  0  0
    0.7993    3.8178    2.4966 C   0  0  0  0  0  0  0  0  0  0  0  0
    1.2059    5.2313    2.5065 N   0  0  0  0  0  0  0  0  0  0  0  0
    1.4279    6.0137    1.3743 C   0  0  0  0  0  0  0  0  0  0  0  0
    1.3115    5.6421    0.2190 O   0  0  0  0  0  0  0  0  0  0  0  0
    1.8075    7.3325    1.8217 C   0  0  0  0  0  0  0  0  0  0  0  0
    1.8120    7.3116    3.1919 C   0  0  0  0  0  0  0  0  0  0  0  0
    2.1513    8.5015    3.8304 C   0  0  0  0  0  0  0  0  0  0  0  0
    2.4692    9.6455    3.1059 C   0  0  0  0  0  0  0  0  0  0  0  0
    2.4557    9.6295    1.7148 C   0  0  0  0  0  0  0  0  0  0  0  0
    2.1168    8.4521    1.0573 C   0  0  0  0  0  0  0  0  0  0  0  0
    1.4295    5.9947    3.6495 C   0  0  0  0  0  0  0  0  0  0  0  0
    1.3150    5.6233    4.8043 O   0  0  0  0  0  0  0  0  0  0  0  0
   -0.7260   -4.6862    1.7596 H   0  0  0  0  0  0  0  0  0  0  0  0
   -1.1053   -5.3275    0.3064 H   0  0  0  0  0  0  0  0  0  0  0  0
   -1.2635   -7.4761    1.2693 H   0  0  0  0  0  0  0  0  0  0  0  0
    0.2068   -6.8476    1.6008 H   0  0  0  0  0  0  0  0  0  0  0  0
   -2.5199   -6.8440    4.4706 H   0  0  0  0  0  0  0  0  0  0  0  0
   -2.9273   -7.4724    3.0195 H   0  0  0  0  0  0  0  0  0  0  0  0
   -3.8756   -5.3203    3.2272 H   0  0  0  0  0  0  0  0  0  0  0  0
   -2.4025   -4.6831    3.5279 H   0  0  0  0  0  0  0  0  0  0  0  0
   -0.8921   -2.2619    0.4048 H   0  0  0  0  0  0  0  0  0  0  0  0
   -2.4347   -0.4948    4.5426 H   0  0  0  0  0  0  0  0  0  0  0  0
   -3.6801   -2.2339    3.4712 H   0  0  0  0  0  0  0  0  0  0  0  0
   -1.0255    1.5647    4.9218 H   0  0  0  0  0  0  0  0  0  0  0  0
    0.3549    2.3030    4.4571 H   0  0  0  0  0  0  0  0  0  0  0  0
    1.6448    0.6212    5.5458 H   0  0  0  0  0  0  0  0  0  0  0  0
    1.3765   -1.4569    7.2701 H   0  0  0  0  0  0  0  0  0  0  0  0
   -0.1541   -1.4100    7.8373 H   0  0  0  0  0  0  0  0  0  0  0  0
    1.8288    0.4487    8.3119 H   0  0  0  0  0  0  0  0  0  0  0  0
    0.3062    0.4813    8.9010 H   0  0  0  0  0  0  0  0  0  0  0  0
   -0.4493    1.7840    7.1877 H   0  0  0  0  0  0  0  0  0  0  0  0
    1.1120    2.2594    7.1305 H   0  0  0  0  0  0  0  0  0  0  0  0
    3.7434    0.2220    2.4654 H   0  0  0  0  0  0  0  0  0  0  0  0
    7.1158    1.7474    3.7128 H   0  0  0  0  0  0  0  0  0  0  0  0
    5.7615    2.1440    4.5345 H   0  0  0  0  0  0  0  0  0  0  0  0
    5.8340    0.7357    3.7111 H   0  0  0  0  0  0  0  0  0  0  0  0
    7.1098    1.7593    1.2307 H   0  0  0  0  0  0  0  0  0  0  0  0
    5.8279    0.7476    1.2290 H   0  0  0  0  0  0  0  0  0  0  0  0
    5.7515    2.1637    0.4194 H   0  0  0  0  0  0  0  0  0  0  0  0
    6.9996    3.8999    2.4823 H   0  0  0  0  0  0  0  0  0  0  0  0
    5.6413    4.3044    1.6710 H   0  0  0  0  0  0  0  0  0  0  0  0
    5.6453    4.2966    3.3040 H   0  0  0  0  0  0  0  0  0  0  0  0
    0.2536    3.6337    1.6791 H   0  0  0  0  0  0  0  0  0  0  0  0
    0.2546    3.6219    3.3120 H   0  0  0  0  0  0  0  0  0  0  0  0
    2.1667    8.5343    4.8298 H   0  0  0  0  0  0  0  0  0  0  0  0
    2.7097   10.4872    3.5893 H   0  0  0  0  0  0  0  0  0  0  0  0
    2.6862   10.4525    1.1955 H   0  0  0  0  0  0  0  0  0  0  0  0
    2.0959    8.4115    0.0583 H   0  0  0  0  0  0  0  0  0  0  0  0
  1  2  2  0  0  0  0
  1  3  2  0  0  0  0
  1  4  1  0  0  0  0
  4  5  1  0  0  0  0
  5  6  1  0  0  0  0
  6  7  1  0  0  0  0
  7  8  1  0  0  0  0
  8  9  1  0  0  0  0
  9  4  1  0  0  0  0
  1 10  1  0  0  0  0
 10 11  1  0  0  0  0
 11 12  2  0  0  0  0
 12 13  1  0  0  0  0
 13 14  2  0  0  0  0
 14 15  1  0  0  0  0
 15 16  1  0  0  0  0
 16 12  1  0  0  0  0
 16 17  2  0  0  0  0
 17 18  1  0  0  0  0
 18 10  2  0  0  0  0
 15 19  1  0  0  0  0
 19 20  1  0  0  0  0
 20 21  1  0  0  0  0
 21 22  1  0  0  0  0
 22 23  1  0  0  0  0
 23 24  1  0  0  0  0
 24 20  1  0  0  0  0
 14 25  1  0  0  0  0
 25 26  1  0  0  0  0
 26 27  2  0  0  0  0
 27 28  1  0  0  0  0
 28 29  1  0  0  0  0
 25 29  2  0  0  0  0
 28 30  1  0  0  0  0
 30 31  1  0  0  0  0
 30 32  1  0  0  0  0
 30 33  1  0  0  0  0
 26 34  1  0  0  0  0
 34 35  1  0  0  0  0
 35 36  1  0  0  0  0
 36 37  2  0  0  0  0
 36 38  1  0  0  0  0
 38 39  1  0  0  0  0
 39 40  2  0  0  0  0
 40 41  1  0  0  0  0
 41 42  2  0  0  0  0
 42 43  1  0  0  0  0
 43 38  2  0  0  0  0
 39 44  1  0  0  0  0
 44 35  1  0  0  0  0
 44 45  2  0  0  0  0
  5 46  1  0  0  0  0
  5 47  1  0  0  0  0
  6 48  1  0  0  0  0
  6 49  1  0  0  0  0
  8 50  1  0  0  0  0
  8 51  1  0  0  0  0
  9 52  1  0  0  0  0
  9 53  1  0  0  0  0
 11 54  1  0  0  0  0
 17 55  1  0  0  0  0
 18 56  1  0  0  0  0
 19 57  1  0  0  0  0
 19 58  1  0  0  0  0
 20 59  1  0  0  0  0
 22 60  1  0  0  0  0
 22 61  1  0  0  0  0
 23 62  1  0  0  0  0
 23 63  1  0  0  0  0
 24 64  1  0  0  0  0
 24 65  1  0  0  0  0
 29 66  1  0  0  0  0
 31 67  1  0  0  0  0
 31 68  1  0  0  0  0
 31 69  1  0  0  0  0
 32 70  1  0  0  0  0
 32 71  1  0  0  0  0
 32 72  1  0  0  0  0
 33 73  1  0  0  0  0
 33 74  1  0  0  0  0
 33 75  1  0  0  0  0
 34 76  1  0  0  0  0
 34 77  1  0  0  0  0
 40 78  1  0  0  0  0
 41 79  1  0  0  0  0
 42 80  1  0  0  0  0
 43 81  1  0  0  0  0
M  END
>  <result-rank>
87

>  <similarity>
0.865

>  <query-name>


>  <query-smiles>
S(=O)(=O)(NC(=O)C)c1ccc(cc1)C=2N3C(=NC(=C3)COc4nc5c(cc4)cccc5)C(=NC2)N6CCOCC6

>  <source>
REALspace_2019-12

>  <similarity-descriptor>
0.939;0.977;0.956;0.881;0.748;1.000;0.890;0.890;0.559;0.559;0.999;0.748;0.214

>  <similarity-descriptor-smiles>
c1ccccc1;C1CCCO1;C1=CN(N=C1)C;c1cN(C=N1)C;N1C(ccC1=O)=O;c1ccccc1;S(=O)=O;S(=O)=O;N1CCOCC1;N1CCOCC1;C;N1C(ccC1=O)=O;C.C.C

>  <reaction-name>
s_60

>  <reagent1-name>
90638

>  <reagent1-smiles>
[R1*]C1=Nc2c(N1CC3OCCC3)ccc(S(=O)(=O)N4CCOCC4)c2

>  <reagent2-name>
17632246

>  <reagent2-smiles>
[R1*]C=1C(=NN(C1)C(C)(C)C)CN2C(=O)c3c(cccc3)C2=O

$$$$
m_274972____12934494____12615770____13047176
          04022017313D 1   1.00000     0.00000     0
            
 61 65  0  0  0  0            999 V2000
   -0.8240    2.8664    2.5379 S   0  0  0  0  0  0  0  0  0  0  0  0
    0.7163    3.5868    2.5255 C   0  0  0  0  0  0  0  0  0  0  0  0
    0.5357    4.8886    2.5375 N   0  0  0  0  0  0  0  0  0  0  0  0
   -0.7707    5.2920    2.5538 C   0  0  0  0  0  0  0  0  0  0  0  0
   -1.2065    6.6745    2.5596 C   0  0  0  0  0  0  0  0  0  0  0  0
   -2.4976    7.1056    2.5757 N   0  0  0  0  0  0  0  0  0  0  0  0
   -2.4738    8.3684    2.5749 N   0  0  0  0  0  0  0  0  0  0  0  0
   -1.2459    8.8251    2.5576 N   0  0  0  0  0  0  0  0  0  0  0  0
   -0.3947    7.7670    2.5460 C   0  0  0  0  0  0  0  0  0  0  0  0
   -0.8574   10.2429    2.5498 C   0  0  0  0  0  0  0  0  0  0  0  0
   -0.7043   10.7342    3.9806 C   0  0  0  0  0  0  0  0  0  0  0  0
    0.5540   10.6386    4.6338 C   0  0  0  0  0  0  0  0  0  0  0  0
    1.4829   10.1661    4.0388 O   0  0  0  0  0  0  0  0  0  0  0  0
    0.6842   11.0841    5.9244 N   0  0  0  0  0  0  0  0  0  0  0  0
   -0.3896   11.6230    6.5939 C   0  0  0  0  0  0  0  0  0  0  0  0
   -1.6322   11.7279    5.9748 C   0  0  0  0  0  0  0  0  0  0  0  0
   -2.7372   12.2671    6.6248 C   0  0  0  0  0  0  0  0  0  0  0  0
   -2.5926   12.7152    7.9335 C   0  0  0  0  0  0  0  0  0  0  0  0
   -1.3679   12.6282    8.5869 C   0  0  0  0  0  0  0  0  0  0  0  0
   -0.2859   12.0828    7.9049 C   0  0  0  0  0  0  0  0  0  0  0  0
   -1.7798   11.2694    4.6396 C   0  0  0  0  0  0  0  0  0  0  0  0
    2.0087   10.9604    6.5500 C   0  0  0  0  0  0  0  0  0  0  0  0
   -1.7203    4.3148    2.5553 C   0  0  0  0  0  0  0  0  0  0  0  0
    1.9827    2.8773    2.5101 C   0  0  0  0  0  0  0  0  0  0  0  0
    3.1719    3.5991    2.5011 C   0  0  0  0  0  0  0  0  0  0  0  0
    4.3787    2.9077    2.4882 C   0  0  0  0  0  0  0  0  0  0  0  0
    4.4079    1.5169    2.4834 C   0  0  0  0  0  0  0  0  0  0  0  0
    3.2061    0.8170    2.4926 C   0  0  0  0  0  0  0  0  0  0  0  0
    1.9872    1.4865    2.5060 C   0  0  0  0  0  0  0  0  0  0  0  0
    5.6828    3.6885    2.4781 C   0  0  0  0  0  0  0  0  0  0  0  0
    5.6637    4.8884    2.4814 O   0  0  0  0  0  0  0  0  0  0  0  0
    6.8275    3.0517    2.4660 O   0  0  0  0  0  0  0  0  0  0  0  0
    8.0457    3.7811    2.4565 C   0  0  0  0  0  0  0  0  0  0  0  0
    8.4937    4.0378    3.8862 C   0  0  0  0  0  0  0  0  0  0  0  0
    9.1113    2.9785    1.7281 C   0  0  0  0  0  0  0  0  0  0  0  0
    7.8363    5.1080    1.7453 C   0  0  0  0  0  0  0  0  0  0  0  0
    0.6050    7.7862    2.5309 H   0  0  0  0  0  0  0  0  0  0  0  0
   -1.5631   10.7793    2.0869 H   0  0  0  0  0  0  0  0  0  0  0  0
    0.0117   10.3477    2.0665 H   0  0  0  0  0  0  0  0  0  0  0  0
   -3.6200   12.3314    6.1595 H   0  0  0  0  0  0  0  0  0  0  0  0
   -3.3798   13.1053    8.4112 H   0  0  0  0  0  0  0  0  0  0  0  0
   -1.2675   12.9513    9.5279 H   0  0  0  0  0  0  0  0  0  0  0  0
    0.5964   12.0185    8.3711 H   0  0  0  0  0  0  0  0  0  0  0  0
   -2.6660   11.3367    4.1813 H   0  0  0  0  0  0  0  0  0  0  0  0
    2.6467   10.5465    5.9006 H   0  0  0  0  0  0  0  0  0  0  0  0
    2.3400   11.8671    6.8109 H   0  0  0  0  0  0  0  0  0  0  0  0
    1.9403   10.3835    7.3639 H   0  0  0  0  0  0  0  0  0  0  0  0
   -2.7144    4.4230    2.5644 H   0  0  0  0  0  0  0  0  0  0  0  0
    3.1593    4.5990    2.5039 H   0  0  0  0  0  0  0  0  0  0  0  0
    5.2800    1.0277    2.4734 H   0  0  0  0  0  0  0  0  0  0  0  0
    3.2186   -0.1829    2.4895 H   0  0  0  0  0  0  0  0  0  0  0  0
    1.1274    0.9759    2.5127 H   0  0  0  0  0  0  0  0  0  0  0  0
    9.3516    4.5515    3.8796 H   0  0  0  0  0  0  0  0  0  0  0  0
    7.7926    4.5659    4.3654 H   0  0  0  0  0  0  0  0  0  0  0  0
    8.6315    3.1648    4.3541 H   0  0  0  0  0  0  0  0  0  0  0  0
    9.9692    3.4922    1.7215 H   0  0  0  0  0  0  0  0  0  0  0  0
    9.2491    2.1055    2.1960 H   0  0  0  0  0  0  0  0  0  0  0  0
    8.8166    2.8096    0.7875 H   0  0  0  0  0  0  0  0  0  0  0  0
    8.6942    5.6217    1.7387 H   0  0  0  0  0  0  0  0  0  0  0  0
    7.5416    4.9392    0.8047 H   0  0  0  0  0  0  0  0  0  0  0  0
    7.1352    5.6361    2.2245 H   0  0  0  0  0  0  0  0  0  0  0  0
  1  2  1  0  0  0  0
  2  3  2  0  0  0  0
  3  4  1  0  0  0  0
  4  5  1  0  0  0  0
  5  6  1  0  0  0  0
  6  7  2  0  0  0  0
  7  8  1  0  0  0  0
  8  9  1  0  0  0  0
  5  9  2  0  0  0  0
  8 10  1  0  0  0  0
 10 11  1  0  0  0  0
 11 12  1  0  0  0  0
 12 13  2  0  0  0  0
 12 14  1  0  0  0  0
 14 15  1  0  0  0  0
 15 16  1  0  0  0  0
 16 17  2  0  0  0  0
 17 18  1  0  0  0  0
 18 19  2  0  0  0  0
 19 20  1  0  0  0  0
 20 15  2  0  0  0  0
 16 21  1  0  0  0  0
 11 21  2  0  0  0  0
 14 22  1  0  0  0  0
  4 23  2  0  0  0  0
 23  1  1  0  0  0  0
  2 24  1  0  0  0  0
 24 25  1  0  0  0  0
 25 26  2  0  0  0  0
 26 27  1  0  0  0  0
 27 28  2  0  0  0  0
 28 29  1  0  0  0  0
 29 24  2  0  0  0  0
 26 30  1  0  0  0  0
 30 31  2  0  0  0  0
 30 32  1  0  0  0  0
 32 33  1  0  0  0  0
 33 34  1  0  0  0  0
 33 35  1  0  0  0  0
 33 36  1  0  0  0  0
  9 37  1  0  0  0  0
 10 38  1  0  0  0  0
 10 39  1  0  0  0  0
 17 40  1  0  0  0  0
 18 41  1  0  0  0  0
 19 42  1  0  0  0  0
 20 43  1  0  0  0  0
 21 44  1  0  0  0  0
 22 45  1  0  0  0  0
 22 46  1  0  0  0  0
 22 47  1  0  0  0  0
 23 48  1  0  0  0  0
 25 49  1  0  0  0  0
 27 50  1  0  0  0  0
 28 51  1  0  0  0  0
 29 52  1  0  0  0  0
 34 53  1  0  0  0  0
 34 54  1  0  0  0  0
 34 55  1  0  0  0  0
 35 56  1  0  0  0  0
 35 57  1  0  0  0  0
 35 58  1  0  0  0  0
 36 59  1  0  0  0  0
 36 60  1  0  0  0  0
 36 61  1  0  0  0  0
M  END
>  <result-rank>
88

>  <similarity>
0.864

>  <query-name>


>  <query-smiles>
S(=O)(=O)(NC(=O)C)c1ccc(cc1)C=2N3C(=NC(=C3)COc4nc5c(cc4)cccc5)C(=NC2)N6CCOCC6

>  <source>
REALspace_2019-12

>  <similarity-descriptor>
0.999;0.0;0.832;0.976;0.960;0.999;0.794;0.264;0.264;1.000;0.999;0.960;0.154

>  <similarity-descriptor-smiles>
c1ccccc1;;C1=CNN=N1;S1C=CN=C1;C1=CccNC1=O;c1ccccc1;C(=O)O;CC;CC;C;C;C1=CccNC1=O;C.C

>  <reaction-name>
m_274972

>  <reagent1-name>
12934494

>  <reagent1-smiles>
[R1*]SC(=N[R2*])c1cc(ccc1)C(=O)OC(C)(C)C

>  <reagent2-name>
12615770

>  <reagent2-smiles>
[R2*]C(C([R3*])=C[R4*])=C[R1*]

>  <reagent3-name>
13047176

>  <reagent3-smiles>
[R3*]N=NN([R4*])CC=1C(=O)N(c2c(cccc2)C1)C

$$$$
s_1458____474646____9746902
          04022017313D 1   1.00000     0.00000     0
            
 53 56  0  0  0  0            999 V2000
    4.7300    0.2308    0.9865 S   0  0  0  0  0  0  0  0  0  0  0  0
    4.5152    1.9191    1.0044 C   0  0  0  0  0  0  0  0  0  0  0  0
    3.2222    2.1253    1.0057 N   0  0  0  0  0  0  0  0  0  0  0  0
    2.4416    1.0000    1.0000 C   0  0  0  0  0  0  0  0  0  0  0  0
    1.0000    1.0000    1.0000 C   0  0  0  0  0  0  0  0  0  0  0  0
    0.3500    2.1258    1.0057 C   0  0  0  0  0  0  0  0  0  0  0  0
   -1.1700    2.1258    1.0057 C   0  0  0  0  0  0  0  0  0  0  0  0
   -1.7700    1.0866    1.0004 O   0  0  0  0  0  0  0  0  0  0  0  0
   -1.8250    3.2603    1.0115 O   0  0  0  0  0  0  0  0  0  0  0  0
   -3.2450    3.2603    1.0115 C   0  0  0  0  0  0  0  0  0  0  0  0
   -3.7517    4.6934    1.0188 C   0  0  0  0  0  0  0  0  0  0  0  0
   -3.9926    5.3809   -0.1671 C   0  0  0  0  0  0  0  0  0  0  0  0
   -4.4405    6.6456   -0.1338 N   0  0  0  0  0  0  0  0  0  0  0  0
   -4.6704    7.2857    1.0237 C   0  0  0  0  0  0  0  0  0  0  0  0
   -4.4441    6.6403    2.2371 C   0  0  0  0  0  0  0  0  0  0  0  0
   -3.9798    5.3291    2.2343 C   0  0  0  0  0  0  0  0  0  0  0  0
   -4.6729    7.2749    3.4534 C   0  0  0  0  0  0  0  0  0  0  0  0
   -5.1387    8.5860    3.4569 C   0  0  0  0  0  0  0  0  0  0  0  0
   -5.3709    9.2465    2.2541 C   0  0  0  0  0  0  0  0  0  0  0  0
   -5.1363    8.5956    1.0474 C   0  0  0  0  0  0  0  0  0  0  0  0
    3.0817   -0.1980    0.9891 C   0  0  0  0  0  0  0  0  0  0  0  0
    5.5282    2.8829    1.0074 N   0  0  0  0  0  0  0  0  0  0  0  0
    6.8707    2.4873    0.9950 C   0  0  0  0  0  0  0  0  0  0  0  0
    7.5210    2.3052   -0.2210 C   0  0  0  0  0  0  0  0  0  0  0  0
    8.8550    1.9117   -0.2206 C   0  0  0  0  0  0  0  0  0  0  0  0
    9.5377    1.7004    0.9725 C   0  0  0  0  0  0  0  0  0  0  0  0
    8.8666    1.8891    2.1766 C   0  0  0  0  0  0  0  0  0  0  0  0
    7.5330    2.2823    2.2004 C   0  0  0  0  0  0  0  0  0  0  0  0
    9.5711    1.7107   -1.5464 C   0  0  0  0  0  0  0  0  0  0  0  0
   10.1347    2.8548   -1.9238 F   0  0  0  0  0  0  0  0  0  0  0  0
   10.5099    0.7791   -1.4064 F   0  0  0  0  0  0  0  0  0  0  0  0
    8.6953    1.3224   -2.4689 F   0  0  0  0  0  0  0  0  0  0  0  0
    5.2066    4.2146    1.0224 C   0  0  0  0  0  0  0  0  0  0  0  0
    4.0556    4.5538    1.0330 O   0  0  0  0  0  0  0  0  0  0  0  0
    6.3078    5.2624    1.0257 C   0  0  0  0  0  0  0  0  0  0  0  0
    0.5000    0.1340    0.9956 H   0  0  0  0  0  0  0  0  0  0  0  0
    0.8500    2.9918    1.0101 H   0  0  0  0  0  0  0  0  0  0  0  0
   -3.5783    2.7847    1.8256 H   0  0  0  0  0  0  0  0  0  0  0  0
   -3.5783    2.7931    0.1926 H   0  0  0  0  0  0  0  0  0  0  0  0
   -3.8317    4.9316   -1.0459 H   0  0  0  0  0  0  0  0  0  0  0  0
   -3.8122    4.8496    3.0957 H   0  0  0  0  0  0  0  0  0  0  0  0
   -4.5047    6.7950    4.3145 H   0  0  0  0  0  0  0  0  0  0  0  0
   -5.3069    9.0541    4.3244 H   0  0  0  0  0  0  0  0  0  0  0  0
   -5.7063   10.1885    2.2573 H   0  0  0  0  0  0  0  0  0  0  0  0
   -5.3046    9.0756    0.1864 H   0  0  0  0  0  0  0  0  0  0  0  0
    2.6806   -1.1139    0.9838 H   0  0  0  0  0  0  0  0  0  0  0  0
    7.0365    2.4550   -1.0829 H   0  0  0  0  0  0  0  0  0  0  0  0
   10.4967    1.4171    0.9651 H   0  0  0  0  0  0  0  0  0  0  0  0
    9.3510    1.7395    3.0386 H   0  0  0  0  0  0  0  0  0  0  0  0
    7.0580    2.4155    3.0703 H   0  0  0  0  0  0  0  0  0  0  0  0
    7.1991    4.8092    1.0156 H   0  0  0  0  0  0  0  0  0  0  0  0
    6.2191    5.8416    0.2153 H   0  0  0  0  0  0  0  0  0  0  0  0
    6.2295    5.8256    1.8482 H   0  0  0  0  0  0  0  0  0  0  0  0
  1  2  1  0  0  0  0
  2  3  2  0  0  0  0
  3  4  1  0  0  0  0
  4  5  1  0  0  0  0
  5  6  2  0  0  0  0
  6  7  1  0  0  0  0
  7  8  2  0  0  0  0
  7  9  1  0  0  0  0
  9 10  1  0  0  0  0
 10 11  1  0  0  0  0
 11 12  1  0  0  0  0
 12 13  2  0  0  0  0
 13 14  1  0  0  0  0
 14 15  2  0  0  0  0
 15 16  1  0  0  0  0
 16 11  2  0  0  0  0
 15 17  1  0  0  0  0
 17 18  2  0  0  0  0
 18 19  1  0  0  0  0
 19 20  2  0  0  0  0
 20 14  1  0  0  0  0
  4 21  2  0  0  0  0
 21  1  1  0  0  0  0
  2 22  1  0  0  0  0
 22 23  1  0  0  0  0
 23 24  1  0  0  0  0
 24 25  2  0  0  0  0
 25 26  1  0  0  0  0
 26 27  2  0  0  0  0
 27 28  1  0  0  0  0
 28 23  2  0  0  0  0
 25 29  1  0  0  0  0
 29 30  1  0  0  0  0
 29 31  1  0  0  0  0
 29 32  1  0  0  0  0
 22 33  1  0  0  0  0
 33 34  2  0  0  0  0
 33 35  1  0  0  0  0
  5 36  1  0  0  0  0
  6 37  1  0  0  0  0
 10 38  1  0  0  0  0
 10 39  1  0  0  0  0
 12 40  1  0  0  0  0
 16 41  1  0  0  0  0
 17 42  1  0  0  0  0
 18 43  1  0  0  0  0
 19 44  1  0  0  0  0
 20 45  1  0  0  0  0
 21 46  1  0  0  0  0
 24 47  1  0  0  0  0
 26 48  1  0  0  0  0
 27 49  1  0  0  0  0
 28 50  1  0  0  0  0
 35 51  1  0  0  0  0
 35 52  1  0  0  0  0
 35 53  1  0  0  0  0
M  END
>  <result-rank>
89

>  <similarity>
0.864

>  <query-name>


>  <query-smiles>
S(=O)(=O)(NC(=O)C)c1ccc(cc1)C=2N3C(=NC(=C3)COc4nc5c(cc4)cccc5)C(=NC2)N6CCOCC6

>  <source>
REALspace_2019-12

>  <similarity-descriptor>
0.942;0.623;0.665;0.964;0.997;1.000;0.0;0.0;0.0;0.0;0.999;0.999;0.0

>  <similarity-descriptor-smiles>
c1cccc(c1)C(F)(F)F;C(=O)C;C=CC=O;S1C=CN=C1N;c1cccnc1;c1ccccc1;;;;;OC;OC;

>  <reaction-name>
s_1458

>  <reagent1-name>
474646

>  <reagent1-smiles>
[R1*]OC(=O)C=CC=1N=C(SC1)N(c2cc(ccc2)C(F)(F)F)C(=O)C

>  <reagent2-name>
9746902

>  <reagent2-smiles>
[R1*]Cc1cnc2c(c1)cccc2

$$$$
m_276010a____17281972____17271714____17280982
          04022017313D 1   1.00000     0.00000     0
            
 60 64  0  0  0  0            999 V2000
    5.1271   -3.4784   -0.6238 F   0  0  0  0  0  0  0  0  0  0  0  0
    4.4613   -2.3962   -0.2307 C   0  0  0  0  0  0  0  0  0  0  0  0
    3.5919   -1.7577   -1.1085 C   0  0  0  0  0  0  0  0  0  0  0  0
    2.8907   -0.6254   -0.7056 C   0  0  0  0  0  0  0  0  0  0  0  0
    3.0701   -0.1394    0.5853 C   0  0  0  0  0  0  0  0  0  0  0  0
    2.3700    1.0000    1.0000 N   0  0  0  0  0  0  0  0  0  0  0  0
    1.0000    1.0000    1.0000 C   0  0  0  0  0  0  0  0  0  0  0  0
    0.4000   -0.0392    1.0000 O   0  0  0  0  0  0  0  0  0  0  0  0
    0.2400    2.3164    1.0000 C   0  0  3  0  0  0  0  0  0  0  0  0
   -1.2052    2.0477    1.0000 N   0  0  0  0  0  0  0  0  0  0  0  0
   -1.9871    2.5058    2.0275 C   0  0  0  0  0  0  0  0  0  0  0  0
   -1.4922    3.1263    2.9275 O   0  0  0  0  0  0  0  0  0  0  0  0
   -3.4815    2.2281    2.0275 C   0  0  0  0  0  0  0  0  0  0  0  0
    0.6072    3.1134   -0.2411 C   0  0  0  0  0  0  0  0  0  0  0  0
   -0.1028    4.3432   -0.2411 O   0  0  0  0  0  0  0  0  0  0  0  0
    0.2402    5.0878   -1.4005 C   0  0  0  0  0  0  0  0  0  0  0  0
    3.9375   -0.7719    1.4702 C   0  0  0  0  0  0  0  0  0  0  0  0
    4.6340   -1.9037    1.0589 C   0  0  0  0  0  0  0  0  0  0  0  0
    3.3991   -2.2574   -2.4564 C   0  0  0  0  0  0  0  0  0  0  0  0
    2.3588   -3.0237   -2.8881 N   0  0  0  0  0  0  0  0  0  0  0  0
    2.5350   -3.2614   -4.1155 N   0  0  0  0  0  0  0  0  0  0  0  0
    3.6348   -2.6956   -4.5493 N   0  0  0  0  0  0  0  0  0  0  0  0
    4.1219   -2.7596   -5.8605 C   0  0  0  0  0  0  0  0  0  0  0  0
    4.9546   -3.7496   -6.2176 N   0  0  0  0  0  0  0  0  0  0  0  0
    5.4382   -3.8455   -7.4652 C   0  0  0  0  0  0  0  0  0  0  0  0
    5.0729   -2.9268   -8.3715 N   0  0  0  0  0  0  0  0  0  0  0  0
    4.2414   -1.9200   -8.0578 C   0  0  0  0  0  0  0  0  0  0  0  0
    3.7114   -0.8714   -8.7577 N   0  0  0  0  0  0  0  0  0  0  0  0
    2.9257   -0.1412   -7.9956 N   0  0  0  0  0  0  0  0  0  0  0  0
    2.8987   -0.6505   -6.7855 C   0  0  0  0  0  0  0  0  0  0  0  0
    3.7341   -1.7927   -6.7844 C   0  0  0  0  0  0  0  0  0  0  0  0
    3.9641   -0.6045  -10.1088 C   0  0  0  0  0  0  0  0  0  0  0  0
    5.2762   -0.5670  -10.5697 C   0  0  0  0  0  0  0  0  0  0  0  0
    5.5233   -0.3017  -11.9126 C   0  0  0  0  0  0  0  0  0  0  0  0
    4.4626   -0.0763  -12.7834 C   0  0  0  0  0  0  0  0  0  0  0  0
    3.1548   -0.1168  -12.3117 C   0  0  0  0  0  0  0  0  0  0  0  0
    2.8956   -0.3810  -10.9709 C   0  0  0  0  0  0  0  0  0  0  0  0
    4.2225   -2.0382   -3.5142 C   0  0  0  0  0  0  0  0  0  0  0  0
    2.2653   -0.1664   -1.3367 H   0  0  0  0  0  0  0  0  0  0  0  0
    2.8700    1.8138    1.2962 H   0  0  0  0  0  0  0  0  0  0  0  0
    0.4816    2.8407    1.8165 H   0  0  0  0  0  0  0  0  0  0  0  0
   -1.6177    1.5307    0.2500 H   0  0  0  0  0  0  0  0  0  0  0  0
   -3.7231    1.7037    1.2110 H   0  0  0  0  0  0  0  0  0  0  0  0
   -3.7231    1.7037    2.8440 H   0  0  0  0  0  0  0  0  0  0  0  0
   -3.9815    3.0941    2.0275 H   0  0  0  0  0  0  0  0  0  0  0  0
    1.5904    3.2961   -0.2411 H   0  0  0  0  0  0  0  0  0  0  0  0
    0.3656    2.5890   -1.0576 H   0  0  0  0  0  0  0  0  0  0  0  0
   -0.2598    5.9538   -1.4005 H   0  0  0  0  0  0  0  0  0  0  0  0
    1.2234    5.2705   -1.4005 H   0  0  0  0  0  0  0  0  0  0  0  0
   -0.0013    4.5634   -2.2170 H   0  0  0  0  0  0  0  0  0  0  0  0
    4.0596   -0.4151    2.3964 H   0  0  0  0  0  0  0  0  0  0  0  0
    5.2587   -2.3632    1.6902 H   0  0  0  0  0  0  0  0  0  0  0  0
    6.0596   -4.5882   -7.7149 H   0  0  0  0  0  0  0  0  0  0  0  0
    2.3817   -0.2957   -6.0065 H   0  0  0  0  0  0  0  0  0  0  0  0
    6.0360   -0.7295   -9.9402 H   0  0  0  0  0  0  0  0  0  0  0  0
    6.4635   -0.2731  -12.2519 H   0  0  0  0  0  0  0  0  0  0  0  0
    4.6403    0.1150  -13.7487 H   0  0  0  0  0  0  0  0  0  0  0  0
    2.3950    0.0452  -12.9414 H   0  0  0  0  0  0  0  0  0  0  0  0
    1.9553   -0.4098  -10.6319 H   0  0  0  0  0  0  0  0  0  0  0  0
    5.0719   -1.5108   -3.5286 H   0  0  0  0  0  0  0  0  0  0  0  0
  1  2  1  0  0  0  0
  2  3  1  0  0  0  0
  3  4  2  0  0  0  0
  4  5  1  0  0  0  0
  5  6  1  0  0  0  0
  6  7  1  0  0  0  0
  7  8  2  0  0  0  0
  7  9  1  0  0  0  0
  9 10  1  0  0  0  0
 10 11  1  0  0  0  0
 11 12  2  0  0  0  0
 11 13  1  0  0  0  0
  9 14  1  0  0  0  0
 14 15  1  0  0  0  0
 15 16  1  0  0  0  0
  5 17  2  0  0  0  0
 17 18  1  0  0  0  0
 18  2  2  0  0  0  0
  3 19  1  0  0  0  0
 19 20  1  0  0  0  0
 20 21  2  0  0  0  0
 21 22  1  0  0  0  0
 22 23  1  0  0  0  0
 23 24  1  0  0  0  0
 24 25  2  0  0  0  0
 25 26  1  0  0  0  0
 26 27  2  0  0  0  0
 27 28  1  0  0  0  0
 28 29  1  0  0  0  0
 29 30  2  0  0  0  0
 30 31  1  0  0  0  0
 31 27  1  0  0  0  0
 31 23  2  0  0  0  0
 28 32  1  0  0  0  0
 32 33  1  0  0  0  0
 33 34  2  0  0  0  0
 34 35  1  0  0  0  0
 35 36  2  0  0  0  0
 36 37  1  0  0  0  0
 37 32  2  0  0  0  0
 22 38  1  0  0  0  0
 19 38  2  0  0  0  0
  4 39  1  0  0  0  0
  6 40  1  0  0  0  0
  9 41  1  0  0  0  0
 10 42  1  0  0  0  0
 13 43  1  0  0  0  0
 13 44  1  0  0  0  0
 13 45  1  0  0  0  0
 14 46  1  0  0  0  0
 14 47  1  0  0  0  0
 16 48  1  0  0  0  0
 16 49  1  0  0  0  0
 16 50  1  0  0  0  0
 17 51  1  0  0  0  0
 18 52  1  0  0  0  0
 25 53  1  0  0  0  0
 30 54  1  0  0  0  0
 33 55  1  0  0  0  0
 34 56  1  0  0  0  0
 35 57  1  0  0  0  0
 36 58  1  0  0  0  0
 37 59  1  0  0  0  0
 38 60  1  0  0  0  0
M  END
>  <result-rank>
90

>  <similarity>
0.864

>  <query-name>


>  <query-smiles>
S(=O)(=O)(NC(=O)C)c1ccc(cc1)C=2N3C(=NC(=C3)COc4nc5c(cc4)cccc5)C(=NC2)N6CCOCC6

>  <source>
REALspace_2019-12

>  <similarity-descriptor>
0.963;0.0;0.903;0.828;0.847;0.941;0.718;0.991;1.000;1.000;0.903;0.903;0.071

>  <similarity-descriptor-smiles>
Fc1ccccc1;;c1ccncn1;C1=CNN=N1;c1cC=NN1;c1ccccc1;NC(=O)CCO;N;C=O;C;c1ccncn1;c1ccncn1;C

>  <reaction-name>
m_276010a

>  <reagent1-name>
17281972

>  <reagent1-smiles>
[R1*]N=NN([R2*])c1ncnc2N(N=Cc12)c3ccccc3

>  <reagent2-name>
17271714

>  <reagent2-smiles>
[R3*]C(=O)C(NC(=O)C)COC

>  <reagent3-name>
17280982

>  <reagent3-smiles>
[R3*]Nc1cc(c(F)cc1)C([R1*])=C[R2*]

$$$$
s_46____548782____7594472____12122144
          04022017313D 1   1.00000     0.00000     0
            
 58 62  0  0  0  0            999 V2000
    4.4740    4.4816    4.4796 S   0  0  0  0  0  0  0  0  0  0  0  0
    3.9843    4.4463    5.8334 O   0  0  0  0  0  0  0  0  0  0  0  0
    5.8290    3.9954    4.4466 O   0  0  0  0  0  0  0  0  0  0  0  0
    4.4330    6.0144    3.9267 N   0  0  0  0  0  0  0  0  0  0  0  0
    4.9330    6.0503    2.5448 C   0  0  0  0  0  0  0  0  0  0  0  0
    3.4722    3.4754    3.4742 C   0  0  0  0  0  0  0  0  0  0  0  0
    4.0202    2.8440    2.3629 C   0  0  0  0  0  0  0  0  0  0  0  0
    3.2212    2.0390    1.5574 C   0  0  0  0  0  0  0  0  0  0  0  0
    1.8774    1.8774    1.8774 C   0  0  0  0  0  0  0  0  0  0  0  0
    1.3299    2.5098    2.9889 C   0  0  0  0  0  0  0  0  0  0  0  0
    2.1282    3.3140    3.7948 C   0  0  0  0  0  0  0  0  0  0  0  0
    1.0000    1.0000    1.0000 C   0  0  0  0  0  0  0  0  0  0  0  0
    1.0354   -0.3817    1.4981 N   0  0  0  0  0  0  0  0  0  0  0  0
    0.2593   -0.7737    2.5865 C   0  0  0  0  0  0  0  0  0  0  0  0
    0.5675   -2.4553    2.8679 S   0  0  0  0  0  0  0  0  0  0  0  0
    1.7155   -2.6608    1.5830 C   0  0  0  0  0  0  0  0  0  0  0  0
    1.8295   -1.3769    0.9280 C   0  0  0  0  0  0  0  0  0  0  0  0
    2.5563   -1.1869   -0.0342 O   0  0  0  0  0  0  0  0  0  0  0  0
    2.3541   -3.7759    1.2704 C   0  0  0  0  0  0  0  0  0  0  0  0
    3.7247   -3.9743    1.7068 C   0  0  0  0  0  0  0  0  0  0  0  0
    4.7837   -4.1708    0.8194 C   0  0  0  0  0  0  0  0  0  0  0  0
    6.0726   -4.3526    1.3143 C   0  0  0  0  0  0  0  0  0  0  0  0
    6.2591   -4.3315    2.6932 C   0  0  0  0  0  0  0  0  0  0  0  0
    5.2261   -4.1420    3.5277 N   0  0  0  0  0  0  0  0  0  0  0  0
    3.9760   -3.9650    3.0745 C   0  0  0  0  0  0  0  0  0  0  0  0
    7.1523   -4.5495    0.4599 C   0  0  0  0  0  0  0  0  0  0  0  0
    6.9392   -4.5644   -0.9143 C   0  0  0  0  0  0  0  0  0  0  0  0
    5.6652   -4.3855   -1.4409 C   0  0  0  0  0  0  0  0  0  0  0  0
    4.6046   -4.1914   -0.5629 C   0  0  0  0  0  0  0  0  0  0  0  0
   -0.5653   -0.0089    3.2763 C   0  0  0  0  0  0  0  0  0  0  0  0
   -1.3500   -0.5931    4.4395 C   0  0  0  0  0  0  0  0  0  0  0  0
   -2.4980   -0.9092    4.2904 O   0  0  0  0  0  0  0  0  0  0  0  0
   -0.6804   -0.7771    5.7924 C   0  0  0  0  0  0  0  0  0  0  0  0
   -1.3890    0.0118    6.8545 C   0  0  0  0  0  0  0  0  0  0  0  0
   -0.0754    0.4958    6.3107 C   0  0  0  0  0  0  0  0  0  0  0  0
    5.0088    6.5927    4.5047 H   0  0  0  0  0  0  0  0  0  0  0  0
    4.9078    6.9907    2.2056 H   0  0  0  0  0  0  0  0  0  0  0  0
    5.8740    5.7127    2.5219 H   0  0  0  0  0  0  0  0  0  0  0  0
    4.3571    5.4720    1.9669 H   0  0  0  0  0  0  0  0  0  0  0  0
    4.9878    2.9685    2.1431 H   0  0  0  0  0  0  0  0  0  0  0  0
    3.6088    1.5815    0.7570 H   0  0  0  0  0  0  0  0  0  0  0  0
    0.3622    2.3860    3.2083 H   0  0  0  0  0  0  0  0  0  0  0  0
    1.7407    3.7710    4.5955 H   0  0  0  0  0  0  0  0  0  0  0  0
    0.0595    1.3390    1.0241 H   0  0  0  0  0  0  0  0  0  0  0  0
    1.3390    1.0241    0.0595 H   0  0  0  0  0  0  0  0  0  0  0  0
    1.8930   -4.4824    0.7335 H   0  0  0  0  0  0  0  0  0  0  0  0
    7.1775   -4.4597    3.0678 H   0  0  0  0  0  0  0  0  0  0  0  0
    3.2250   -3.8263    3.7200 H   0  0  0  0  0  0  0  0  0  0  0  0
    8.0723   -4.6791    0.8299 H   0  0  0  0  0  0  0  0  0  0  0  0
    7.7129   -4.7057   -1.5319 H   0  0  0  0  0  0  0  0  0  0  0  0
    5.5148   -4.3962   -2.4295 H   0  0  0  0  0  0  0  0  0  0  0  0
    3.6852   -4.0627   -0.9345 H   0  0  0  0  0  0  0  0  0  0  0  0
   -0.6740    0.9551    3.0337 H   0  0  0  0  0  0  0  0  0  0  0  0
   -0.2616   -1.6553    6.0232 H   0  0  0  0  0  0  0  0  0  0  0  0
   -1.4436   -0.3427    7.7879 H   0  0  0  0  0  0  0  0  0  0  0  0
   -2.2324    0.5019    6.6342 H   0  0  0  0  0  0  0  0  0  0  0  0
   -0.0441    1.3081    5.7282 H   0  0  0  0  0  0  0  0  0  0  0  0
    0.7447    0.4634    6.8819 H   0  0  0  0  0  0  0  0  0  0  0  0
  1  2  2  0  0  0  0
  1  3  2  0  0  0  0
  1  4  1  0  0  0  0
  4  5  1  0  0  0  0
  1  6  1  0  0  0  0
  6  7  1  0  0  0  0
  7  8  2  0  0  0  0
  8  9  1  0  0  0  0
  9 10  2  0  0  0  0
 10 11  1  0  0  0  0
 11  6  2  0  0  0  0
  9 12  1  0  0  0  0
 12 13  1  0  0  0  0
 13 14  1  0  0  0  0
 14 15  1  0  0  0  0
 15 16  1  0  0  0  0
 16 17  1  0  0  0  0
 17 13  1  0  0  0  0
 17 18  2  0  0  0  0
 16 19  2  0  0  0  0
 19 20  1  0  0  0  0
 20 21  1  0  0  0  0
 21 22  2  0  0  0  0
 22 23  1  0  0  0  0
 23 24  2  0  0  0  0
 24 25  1  0  0  0  0
 25 20  2  0  0  0  0
 22 26  1  0  0  0  0
 26 27  2  0  0  0  0
 27 28  1  0  0  0  0
 28 29  2  0  0  0  0
 29 21  1  0  0  0  0
 14 30  2  0  0  0  0
 30 31  1  0  0  0  0
 31 32  2  0  0  0  0
 31 33  1  0  0  0  0
 33 34  1  0  0  0  0
 34 35  1  0  0  0  0
 35 33  1  0  0  0  0
  4 36  1  0  0  0  0
  5 37  1  0  0  0  0
  5 38  1  0  0  0  0
  5 39  1  0  0  0  0
  7 40  1  0  0  0  0
  8 41  1  0  0  0  0
 10 42  1  0  0  0  0
 11 43  1  0  0  0  0
 12 44  1  0  0  0  0
 12 45  1  0  0  0  0
 19 46  1  0  0  0  0
 23 47  1  0  0  0  0
 25 48  1  0  0  0  0
 26 49  1  0  0  0  0
 27 50  1  0  0  0  0
 28 51  1  0  0  0  0
 29 52  1  0  0  0  0
 30 53  1  0  0  0  0
 33 54  1  0  0  0  0
 34 55  1  0  0  0  0
 34 56  1  0  0  0  0
 35 57  1  0  0  0  0
 35 58  1  0  0  0  0
M  END
>  <result-rank>
91

>  <similarity>
0.864

>  <query-name>


>  <query-smiles>
S(=O)(=O)(NC(=O)C)c1ccc(cc1)C=2N3C(=NC(=C3)COc4nc5c(cc4)cccc5)C(=NC2)N6CCOCC6

>  <source>
REALspace_2019-12

>  <similarity-descriptor>
0.936;0.885;0.732;0.732;0.999;0.999;1.000;0.733;0.733;0.733;0.212;0.212;0.0

>  <similarity-descriptor-smiles>
c1ccc(cc1)C;CC(=O)C1CC1;N1C(CSC1)=O;N1C(CSC1)=O;c1cnccc1;c1ccccc1;S(=O)=O;NC;NC;NC;C;C;

>  <reaction-name>
s_46

>  <reagent1-name>
548782

>  <reagent1-smiles>
[R3*]=C1SC(N([R1*])C1=O)=CC(=O)C2CC2

>  <reagent2-name>
7594472

>  <reagent2-smiles>
[R3*]=Cc1c2c(cnc1)cccc2

>  <reagent3-name>
12122144

>  <reagent3-smiles>
[R1*]Cc1ccc(S(=O)(=O)NC)cc1

$$$$
s_22____13909274____60379
          04022017313D 1   1.00000     0.00000     0
            
 61 65  0  0  0  0            999 V2000
    0.6517    1.8583   -0.5550 S   0  0  0  0  0  0  0  0  0  0  0  0
   -0.3360    0.6471   -1.3191 C   0  0  0  0  0  0  0  0  0  0  0  0
   -1.6057    0.4098   -1.1010 N   0  0  0  0  0  0  0  0  0  0  0  0
   -2.0445   -0.5773   -1.8486 N   0  0  0  0  0  0  0  0  0  0  0  0
   -1.0369   -0.9986   -2.5704 C   0  0  0  0  0  0  0  0  0  0  0  0
    0.0554   -0.2476   -2.2613 N   0  0  0  0  0  0  0  0  0  0  0  0
    1.4050   -0.3765   -2.8399 C   0  0  0  0  0  0  0  0  0  0  0  0
    1.4778    0.4146   -4.1409 C   0  0  3  0  0  0  0  0  0  0  0  0
    1.2159    1.7983   -3.9699 O   0  0  0  0  0  0  0  0  0  0  0  0
    1.7397    2.4521   -5.1106 C   0  0  0  0  0  0  0  0  0  0  0  0
    2.8852    1.6009   -5.6209 C   0  0  0  0  0  0  0  0  0  0  0  0
    2.9210    0.4763   -4.6073 C   0  0  0  0  0  0  0  0  0  0  0  0
   -1.0816   -2.0775   -3.5383 C   0  0  0  0  0  0  0  0  0  0  0  0
   -2.2679   -2.3327   -4.2183 C   0  0  0  0  0  0  0  0  0  0  0  0
   -2.3275   -3.3638   -5.1503 C   0  0  0  0  0  0  0  0  0  0  0  0
   -1.1915   -4.1298   -5.3879 C   0  0  0  0  0  0  0  0  0  0  0  0
   -1.2352   -5.1183   -6.2762 F   0  0  0  0  0  0  0  0  0  0  0  0
   -0.0056   -3.8752   -4.7079 C   0  0  0  0  0  0  0  0  0  0  0  0
    0.0547   -2.8445   -3.7762 C   0  0  0  0  0  0  0  0  0  0  0  0
    1.0000    1.0000    1.0000 C   0  0  0  0  0  0  0  0  0  0  0  0
    1.8776    1.8776    1.8776 C   0  0  0  0  0  0  0  0  0  0  0  0
    2.2240    2.9588    1.4891 O   0  0  0  0  0  0  0  0  0  0  0  0
    2.2731    1.4341    3.1120 N   0  0  0  0  0  0  0  0  0  0  0  0
    3.1218    2.2828    3.9607 C   0  0  0  0  0  0  0  0  0  0  0  0
    4.5856    1.9901    3.6680 C   0  0  0  0  0  0  0  0  0  0  0  0
    5.3110    1.0158    4.3520 C   0  0  0  0  0  0  0  0  0  0  0  0
    6.6482    0.8079    4.0246 C   0  0  0  0  0  0  0  0  0  0  0  0
    7.2250    1.5419    3.0615 N   0  0  0  0  0  0  0  0  0  0  0  0
    6.5470    2.4839    2.3901 C   0  0  0  0  0  0  0  0  0  0  0  0
    5.2088    2.7354    2.6735 C   0  0  0  0  0  0  0  0  0  0  0  0
    7.3874   -0.1592    4.6980 C   0  0  0  0  0  0  0  0  0  0  0  0
    6.8054   -0.9277    5.7009 C   0  0  0  0  0  0  0  0  0  0  0  0
    5.4706   -0.7334    6.0397 C   0  0  0  0  0  0  0  0  0  0  0  0
    4.7444    0.2369    5.3582 C   0  0  0  0  0  0  0  0  0  0  0  0
    1.8487    0.1096    3.5878 C   0  0  0  0  0  0  0  0  0  0  0  0
    1.5979   -1.3402   -3.0246 H   0  0  0  0  0  0  0  0  0  0  0  0
    2.0800   -0.0193   -2.1944 H   0  0  0  0  0  0  0  0  0  0  0  0
    0.8860    0.0166   -4.8419 H   0  0  0  0  0  0  0  0  0  0  0  0
    2.0718    3.3622   -4.8627 H   0  0  0  0  0  0  0  0  0  0  0  0
    1.0335    2.5350   -5.8137 H   0  0  0  0  0  0  0  0  0  0  0  0
    3.7441    2.1130   -5.6253 H   0  0  0  0  0  0  0  0  0  0  0  0
    2.6987    1.2549   -6.5404 H   0  0  0  0  0  0  0  0  0  0  0  0
    3.2017   -0.3847   -5.0314 H   0  0  0  0  0  0  0  0  0  0  0  0
    3.5375    0.6912   -3.8497 H   0  0  0  0  0  0  0  0  0  0  0  0
   -3.0779   -1.7749   -4.0372 H   0  0  0  0  0  0  0  0  0  0  0  0
   -3.1769   -3.5518   -5.6434 H   0  0  0  0  0  0  0  0  0  0  0  0
    0.8042   -4.4333   -4.8889 H   0  0  0  0  0  0  0  0  0  0  0  0
    0.9043   -2.6569   -3.2832 H   0  0  0  0  0  0  0  0  0  0  0  0
    1.4742    0.1409    0.8075 H   0  0  0  0  0  0  0  0  0  0  0  0
    0.1409    0.8075    1.4742 H   0  0  0  0  0  0  0  0  0  0  0  0
    2.9293    2.0904    4.9230 H   0  0  0  0  0  0  0  0  0  0  0  0
    2.9293    3.2451    3.7683 H   0  0  0  0  0  0  0  0  0  0  0  0
    7.0088    3.0117    1.6773 H   0  0  0  0  0  0  0  0  0  0  0  0
    4.7048    3.4386    2.1719 H   0  0  0  0  0  0  0  0  0  0  0  0
    8.3475   -0.3034    4.4586 H   0  0  0  0  0  0  0  0  0  0  0  0
    7.3467   -1.6199    6.1782 H   0  0  0  0  0  0  0  0  0  0  0  0
    5.0419   -1.2803    6.7588 H   0  0  0  0  0  0  0  0  0  0  0  0
    3.7843    0.3802    5.5983 H   0  0  0  0  0  0  0  0  0  0  0  0
    2.2239   -0.0527    4.5005 H   0  0  0  0  0  0  0  0  0  0  0  0
    0.8501    0.0735    3.6267 H   0  0  0  0  0  0  0  0  0  0  0  0
    2.1834   -0.5932    2.9600 H   0  0  0  0  0  0  0  0  0  0  0  0
  1  2  1  0  0  0  0
  2  3  2  0  0  0  0
  3  4  1  0  0  0  0
  4  5  2  0  0  0  0
  5  6  1  0  0  0  0
  6  2  1  0  0  0  0
  6  7  1  0  0  0  0
  7  8  1  0  0  0  0
  8  9  1  0  0  0  0
  9 10  1  0  0  0  0
 10 11  1  0  0  0  0
 11 12  1  0  0  0  0
 12  8  1  0  0  0  0
  5 13  1  0  0  0  0
 13 14  1  0  0  0  0
 14 15  2  0  0  0  0
 15 16  1  0  0  0  0
 16 17  1  0  0  0  0
 16 18  2  0  0  0  0
 18 19  1  0  0  0  0
 19 13  2  0  0  0  0
  1 20  1  0  0  0  0
 20 21  1  0  0  0  0
 21 22  2  0  0  0  0
 21 23  1  0  0  0  0
 23 24  1  0  0  0  0
 24 25  1  0  0  0  0
 25 26  1  0  0  0  0
 26 27  2  0  0  0  0
 27 28  1  0  0  0  0
 28 29  2  0  0  0  0
 29 30  1  0  0  0  0
 30 25  2  0  0  0  0
 27 31  1  0  0  0  0
 31 32  2  0  0  0  0
 32 33  1  0  0  0  0
 33 34  2  0  0  0  0
 34 26  1  0  0  0  0
 23 35  1  0  0  0  0
  7 36  1  0  0  0  0
  7 37  1  0  0  0  0
  8 38  1  0  0  0  0
 10 39  1  0  0  0  0
 10 40  1  0  0  0  0
 11 41  1  0  0  0  0
 11 42  1  0  0  0  0
 12 43  1  0  0  0  0
 12 44  1  0  0  0  0
 14 45  1  0  0  0  0
 15 46  1  0  0  0  0
 18 47  1  0  0  0  0
 19 48  1  0  0  0  0
 20 49  1  0  0  0  0
 20 50  1  0  0  0  0
 24 51  1  0  0  0  0
 24 52  1  0  0  0  0
 29 53  1  0  0  0  0
 30 54  1  0  0  0  0
 31 55  1  0  0  0  0
 32 56  1  0  0  0  0
 33 57  1  0  0  0  0
 34 58  1  0  0  0  0
 35 59  1  0  0  0  0
 35 60  1  0  0  0  0
 35 61  1  0  0  0  0
M  END
>  <result-rank>
92

>  <similarity>
0.863

>  <query-name>


>  <query-smiles>
S(=O)(=O)(NC(=O)C)c1ccc(cc1)C=2N3C(=NC(=C3)COc4nc5c(cc4)cccc5)C(=NC2)N6CCOCC6

>  <source>
REALspace_2019-12

>  <similarity-descriptor>
0.982;0.956;0.565;0.807;0.902;1.000;0.0;0.0;0.0;0.0;0.975;0.902;0.083

>  <similarity-descriptor-smiles>
c1ccc(cc1)F;CC1CCCO1;CC=O;SC=1NC=NN1;c1ccncc1;c1ccccc1;;;;;NC;c1ccncc1;C

>  <reaction-name>
s_22

>  <reagent1-name>
13909274

>  <reagent1-smiles>
[R1*]N(Cc1c2c(ncc1)cccc2)C

>  <reagent2-name>
60379

>  <reagent2-smiles>
[R1*]C(=O)CSC1=NN=C(N1CC2OCCC2)c3ccc(F)cc3

$$$$
s_1458____2008704____9746902
          04022017313D 1   1.00000     0.00000     0
            
 53 56  0  0  0  0            999 V2000
    0.1368    7.0993    0.0653 O   0  5  0  0  0  0  0  0  0  0  0  0
   -0.7426    6.3328    0.4223 N   0  3  0  0  0  0  0  0  0  0  0  0
   -1.8183    6.3459   -0.1317 O   0  0  0  0  0  0  0  0  0  0  0  0
   -0.5074    5.4384    1.4728 C   0  0  0  0  0  0  0  0  0  0  0  0
   -1.4131    5.3474    2.5235 C   0  0  0  0  0  0  0  0  0  0  0  0
   -2.5168    6.1251    2.5233 O   0  0  0  0  0  0  0  0  0  0  0  0
   -3.3918    6.1163    3.6416 C   0  0  0  0  0  0  0  0  0  0  0  0
   -1.1944    4.4642    3.5758 C   0  0  0  0  0  0  0  0  0  0  0  0
   -0.0541    3.6680    3.5662 C   0  0  0  0  0  0  0  0  0  0  0  0
    0.8505    3.7609    2.5130 C   0  0  0  0  0  0  0  0  0  0  0  0
    0.6340    4.6438    1.4596 C   0  0  0  0  0  0  0  0  0  0  0  0
    2.0395    2.9304    2.5027 C   0  0  0  0  0  0  0  0  0  0  0  0
    3.2836    3.3428    2.4888 N   0  0  0  0  0  0  0  0  0  0  0  0
    4.1104    2.3260    2.4855 N   0  0  0  0  0  0  0  0  0  0  0  0
    3.4043    1.1618    2.4946 C   0  0  0  0  0  0  0  0  0  0  0  0
    2.0918    1.5219    2.5058 C   0  0  0  0  0  0  0  0  0  0  0  0
    0.9557    0.6211    2.5174 C   0  0  0  0  0  0  0  0  0  0  0  0
   -0.0778    0.9522    2.0055 O   0  0  0  0  0  0  0  0  0  0  0  0
    1.0576   -0.5543    3.0867 O   0  0  0  0  0  0  0  0  0  0  0  0
   -0.0550   -1.4366    3.0981 C   0  0  0  0  0  0  0  0  0  0  0  0
    0.3250   -2.7221    3.8148 C   0  0  0  0  0  0  0  0  0  0  0  0
    0.1447   -2.8649    5.1874 C   0  0  0  0  0  0  0  0  0  0  0  0
    0.4877   -4.0105    5.7966 N   0  0  0  0  0  0  0  0  0  0  0  0
    1.0081   -5.0456    5.1182 C   0  0  0  0  0  0  0  0  0  0  0  0
    1.2080   -4.9513    3.7430 C   0  0  0  0  0  0  0  0  0  0  0  0
    0.8621   -3.7762    3.0840 C   0  0  0  0  0  0  0  0  0  0  0  0
    1.7444   -6.0053    3.0110 C   0  0  0  0  0  0  0  0  0  0  0  0
    2.0892   -7.1815    3.6694 C   0  0  0  0  0  0  0  0  0  0  0  0
    1.8960   -7.2939    5.0431 C   0  0  0  0  0  0  0  0  0  0  0  0
    1.3585   -6.2290    5.7586 C   0  0  0  0  0  0  0  0  0  0  0  0
    5.5778    2.4193    2.4707 C   0  0  0  0  0  0  0  0  0  0  0  0
    6.0975    2.4582    3.8986 C   0  0  0  0  0  0  0  0  0  0  0  0
    7.6143    2.5547    3.8832 C   0  0  0  0  0  0  0  0  0  0  0  0
    8.7520    2.6271    3.8718 N   0  0  0  0  0  0  0  0  0  0  0  0
   -4.1517    6.7447    3.4753 H   0  0  0  0  0  0  0  0  0  0  0  0
   -3.7476    5.1919    3.7792 H   0  0  0  0  0  0  0  0  0  0  0  0
   -2.8923    6.4061    4.4580 H   0  0  0  0  0  0  0  0  0  0  0  0
   -1.8488    4.4025    4.3295 H   0  0  0  0  0  0  0  0  0  0  0  0
    0.1157    3.0288    4.3162 H   0  0  0  0  0  0  0  0  0  0  0  0
    1.2881    4.7060    0.7057 H   0  0  0  0  0  0  0  0  0  0  0  0
    3.7741    0.2327    2.4933 H   0  0  0  0  0  0  0  0  0  0  0  0
   -0.3240   -1.6460    2.1580 H   0  0  0  0  0  0  0  0  0  0  0  0
   -0.8196   -1.0027    3.5748 H   0  0  0  0  0  0  0  0  0  0  0  0
   -0.2412   -2.1122    5.7209 H   0  0  0  0  0  0  0  0  0  0  0  0
    0.9981   -3.6905    2.0970 H   0  0  0  0  0  0  0  0  0  0  0  0
    1.8804   -5.9189    2.0241 H   0  0  0  0  0  0  0  0  0  0  0  0
    2.4763   -7.9469    3.1551 H   0  0  0  0  0  0  0  0  0  0  0  0
    2.1435   -8.1398    5.5155 H   0  0  0  0  0  0  0  0  0  0  0  0
    1.2224   -6.3156    6.7455 H   0  0  0  0  0  0  0  0  0  0  0  0
    5.8540    3.2532    1.9926 H   0  0  0  0  0  0  0  0  0  0  0  0
    5.9577    1.6235    1.9992 H   0  0  0  0  0  0  0  0  0  0  0  0
    5.7176    3.2541    4.3700 H   0  0  0  0  0  0  0  0  0  0  0  0
    5.8213    1.6244    4.3766 H   0  0  0  0  0  0  0  0  0  0  0  0
  1  2  1  0  0  0  0
  2  3  2  0  0  0  0
  2  4  1  0  0  0  0
  4  5  1  0  0  0  0
  5  6  1  0  0  0  0
  6  7  1  0  0  0  0
  5  8  2  0  0  0  0
  8  9  1  0  0  0  0
  9 10  2  0  0  0  0
 10 11  1  0  0  0  0
 11  4  2  0  0  0  0
 10 12  1  0  0  0  0
 12 13  2  0  0  0  0
 13 14  1  0  0  0  0
 14 15  1  0  0  0  0
 15 16  2  0  0  0  0
 16 12  1  0  0  0  0
 16 17  1  0  0  0  0
 17 18  2  0  0  0  0
 17 19  1  0  0  0  0
 19 20  1  0  0  0  0
 20 21  1  0  0  0  0
 21 22  1  0  0  0  0
 22 23  2  0  0  0  0
 23 24  1  0  0  0  0
 24 25  2  0  0  0  0
 25 26  1  0  0  0  0
 26 21  2  0  0  0  0
 25 27  1  0  0  0  0
 27 28  2  0  0  0  0
 28 29  1  0  0  0  0
 29 30  2  0  0  0  0
 30 24  1  0  0  0  0
 14 31  1  0  0  0  0
 31 32  1  0  0  0  0
 32 33  1  0  0  0  0
 33 34  3  0  0  0  0
  7 35  1  0  0  0  0
  7 36  1  0  0  0  0
  7 37  1  0  0  0  0
  8 38  1  0  0  0  0
  9 39  1  0  0  0  0
 11 40  1  0  0  0  0
 15 41  1  0  0  0  0
 20 42  1  0  0  0  0
 20 43  1  0  0  0  0
 22 44  1  0  0  0  0
 26 45  1  0  0  0  0
 27 46  1  0  0  0  0
 28 47  1  0  0  0  0
 29 48  1  0  0  0  0
 30 49  1  0  0  0  0
 31 50  1  0  0  0  0
 31 51  1  0  0  0  0
 32 52  1  0  0  0  0
 32 53  1  0  0  0  0
M  CHG  2   1  -1   2   1
M  END
>  <result-rank>
93

>  <similarity>
0.863

>  <query-name>


>  <query-smiles>
S(=O)(=O)(NC(=O)C)c1ccc(cc1)C=2N3C(=NC(=C3)COc4nc5c(cc4)cccc5)C(=NC2)N6CCOCC6

>  <source>
REALspace_2019-12

>  <similarity-descriptor>
0.958;0.626;0.523;0.955;0.997;1.000;0.975;0.0;0.0;0.0;0.999;0.999;0.154

>  <similarity-descriptor-smiles>
c1ccccc1;CCC#N;C=O;C=1C=CNN1;c1cccnc1;c1ccccc1;[O-][N+]=O;;;;OC;OC;O.C

>  <reaction-name>
s_1458

>  <reagent1-name>
2008704

>  <reagent1-smiles>
[R1*]OC(=O)C=1C(=NN(C1)CCC#N)c2cc([N+]([O-])=O)c(OC)cc2

>  <reagent2-name>
9746902

>  <reagent2-smiles>
[R1*]Cc1cnc2c(c1)cccc2

$$$$
m_273170____14188226____10759890____10766558
          04022017313D 1   1.00000     0.00000     0
            
 58 62  0  0  0  0            999 V2000
    8.2629   -1.7453    1.6026 Cl  0  0  0  0  0  0  0  0  0  0  0  0
    9.1715   -1.1939    3.0277 C   0  0  0  0  0  0  0  0  0  0  0  0
    8.6896   -0.0612    3.7300 C   0  0  0  0  0  0  0  0  0  0  0  0
    7.6453    0.7037    3.5151 N   0  0  0  0  0  0  0  0  0  0  0  0
    7.6402    1.6608    4.4861 C   0  0  0  0  0  0  0  0  0  0  0  0
    8.7113    1.4609    5.3024 C   0  0  0  0  0  0  0  0  0  0  0  0
    9.3704    0.3692    4.8193 N   0  0  0  0  0  0  0  0  0  0  0  0
   10.5081   -0.2680    5.2434 C   0  0  0  0  0  0  0  0  0  0  0  0
   10.9925   -1.3657    4.5793 C   0  0  0  0  0  0  0  0  0  0  0  0
   12.4625   -2.2306    5.0881 Cl  0  0  0  0  0  0  0  0  0  0  0  0
   10.3034   -1.8437    3.4354 C   0  0  0  0  0  0  0  0  0  0  0  0
    6.6067    2.7660    4.6291 C   0  0  0  0  0  0  0  0  0  0  0  0
    6.6068    3.5973    3.4160 N   0  0  0  0  0  0  0  0  0  0  0  0
    7.5919    4.4488    3.0295 C   0  0  0  0  0  0  0  0  0  0  0  0
    7.1830    4.9765    1.9022 N   0  0  0  0  0  0  0  0  0  0  0  0
    6.0035    4.5098    1.5576 N   0  0  0  0  0  0  0  0  0  0  0  0
    5.6236    3.6531    2.4786 C   0  0  0  0  0  0  0  0  0  0  0  0
    4.3802    2.9056    2.4882 C   0  0  0  0  0  0  0  0  0  0  0  0
    3.1735    3.5977    2.5023 C   0  0  0  0  0  0  0  0  0  0  0  0
    1.9833    2.8783    2.5116 C   0  0  0  0  0  0  0  0  0  0  0  0
    0.4648    3.7275    2.5286 S   0  0  0  0  0  0  0  0  0  0  0  0
    0.6132    4.9899    1.8520 O   0  0  0  0  0  0  0  0  0  0  0  0
   -0.5345    2.9375    1.8570 O   0  0  0  0  0  0  0  0  0  0  0  0
    0.0053    3.9882    4.0706 N   0  0  0  0  0  0  0  0  0  0  0  0
    1.0254    4.7946    4.7562 C   0  0  0  0  0  0  0  0  0  0  0  0
   -1.2776    4.7056    4.0850 C   0  0  0  0  0  0  0  0  0  0  0  0
    1.9869    1.4870    2.5070 C   0  0  0  0  0  0  0  0  0  0  0  0
    3.2042    0.8141    2.4925 C   0  0  0  0  0  0  0  0  0  0  0  0
    4.4059    1.5148    2.4827 C   0  0  0  0  0  0  0  0  0  0  0  0
    8.8008    4.7139    3.7015 N   0  0  0  0  0  0  0  0  0  0  0  0
   10.0326    3.9494    3.4537 C   0  0  0  0  0  0  0  0  0  0  0  0
   11.2397    4.8302    3.7356 C   0  0  0  0  0  0  0  0  0  0  0  0
   11.2900    5.2633    5.0929 O   0  0  0  0  0  0  0  0  0  0  0  0
   10.0113    5.3926    5.7048 C   0  0  0  0  0  0  0  0  0  0  0  0
    8.9304    5.7783    4.7063 C   0  0  0  0  0  0  0  0  0  0  0  0
    8.9651    2.0077    6.1003 H   0  0  0  0  0  0  0  0  0  0  0  0
   10.9920    0.0730    6.0494 H   0  0  0  0  0  0  0  0  0  0  0  0
   10.6395   -2.6421    2.9358 H   0  0  0  0  0  0  0  0  0  0  0  0
    5.7011    2.3612    4.7557 H   0  0  0  0  0  0  0  0  0  0  0  0
    6.8321    3.3327    5.4216 H   0  0  0  0  0  0  0  0  0  0  0  0
    3.1621    4.5976    2.5056 H   0  0  0  0  0  0  0  0  0  0  0  0
    0.7436    4.9545    5.7022 H   0  0  0  0  0  0  0  0  0  0  0  0
    1.8982    4.3065    4.7464 H   0  0  0  0  0  0  0  0  0  0  0  0
    1.1285    5.6713    4.2864 H   0  0  0  0  0  0  0  0  0  0  0  0
   -1.5595    4.8655    5.0310 H   0  0  0  0  0  0  0  0  0  0  0  0
   -1.1745    5.5823    3.6152 H   0  0  0  0  0  0  0  0  0  0  0  0
   -1.9715    4.1570    3.6186 H   0  0  0  0  0  0  0  0  0  0  0  0
    1.1263    0.9778    2.5141 H   0  0  0  0  0  0  0  0  0  0  0  0
    3.2157   -0.1859    2.4890 H   0  0  0  0  0  0  0  0  0  0  0  0
    5.2775    1.0247    2.4718 H   0  0  0  0  0  0  0  0  0  0  0  0
   10.0534    3.6504    2.4997 H   0  0  0  0  0  0  0  0  0  0  0  0
   10.0555    3.1501    4.0542 H   0  0  0  0  0  0  0  0  0  0  0  0
   12.0702    4.3115    3.5328 H   0  0  0  0  0  0  0  0  0  0  0  0
   11.1960    5.6345    3.1431 H   0  0  0  0  0  0  0  0  0  0  0  0
   10.0628    6.0981    6.4116 H   0  0  0  0  0  0  0  0  0  0  0  0
    9.7653    4.5185    6.1236 H   0  0  0  0  0  0  0  0  0  0  0  0
    8.0598    5.8953    5.1841 H   0  0  0  0  0  0  0  0  0  0  0  0
    9.1812    6.6352    4.2559 H   0  0  0  0  0  0  0  0  0  0  0  0
  1  2  1  0  0  0  0
  2  3  1  0  0  0  0
  3  4  2  0  0  0  0
  4  5  1  0  0  0  0
  5  6  2  0  0  0  0
  6  7  1  0  0  0  0
  7  3  1  0  0  0  0
  7  8  1  0  0  0  0
  8  9  2  0  0  0  0
  9 10  1  0  0  0  0
  9 11  1  0  0  0  0
  2 11  2  0  0  0  0
  5 12  1  0  0  0  0
 12 13  1  0  0  0  0
 13 14  1  0  0  0  0
 14 15  2  0  0  0  0
 15 16  1  0  0  0  0
 16 17  2  0  0  0  0
 17 13  1  0  0  0  0
 17 18  1  0  0  0  0
 18 19  1  0  0  0  0
 19 20  2  0  0  0  0
 20 21  1  0  0  0  0
 21 22  2  0  0  0  0
 21 23  2  0  0  0  0
 21 24  1  0  0  0  0
 24 25  1  0  0  0  0
 24 26  1  0  0  0  0
 20 27  1  0  0  0  0
 27 28  2  0  0  0  0
 28 29  1  0  0  0  0
 29 18  2  0  0  0  0
 14 30  1  0  0  0  0
 30 31  1  0  0  0  0
 31 32  1  0  0  0  0
 32 33  1  0  0  0  0
 33 34  1  0  0  0  0
 34 35  1  0  0  0  0
 35 30  1  0  0  0  0
  6 36  1  0  0  0  0
  8 37  1  0  0  0  0
 11 38  1  0  0  0  0
 12 39  1  0  0  0  0
 12 40  1  0  0  0  0
 19 41  1  0  0  0  0
 25 42  1  0  0  0  0
 25 43  1  0  0  0  0
 25 44  1  0  0  0  0
 26 45  1  0  0  0  0
 26 46  1  0  0  0  0
 26 47  1  0  0  0  0
 27 48  1  0  0  0  0
 28 49  1  0  0  0  0
 29 50  1  0  0  0  0
 31 51  1  0  0  0  0
 31 52  1  0  0  0  0
 32 53  1  0  0  0  0
 32 54  1  0  0  0  0
 34 55  1  0  0  0  0
 34 56  1  0  0  0  0
 35 57  1  0  0  0  0
 35 58  1  0  0  0  0
M  END
>  <result-rank>
94

>  <similarity>
0.863

>  <query-name>


>  <query-smiles>
S(=O)(=O)(NC(=O)C)c1ccc(cc1)C=2N3C(=NC(=C3)COc4nc5c(cc4)cccc5)C(=NC2)N6CCOCC6

>  <source>
REALspace_2019-12

>  <similarity-descriptor>
1.000;1.000;1.000;0.729;0.789;0.0;1.000;0.528;0.528;0.995;0.789;0.789;0.0

>  <similarity-descriptor-smiles>
c1ccccc1;N1CCOCC1;C=1NC=CN1;CN1C=NN=C1;ClC1=CC(=CNC1)Cl;;S(=O)=O;NC;NC;C;ClC1=CC(=CNC1)Cl;ClC1=CC(=CNC1)Cl;

>  <reaction-name>
m_273170

>  <reagent1-name>
14188226

>  <reagent1-smiles>
[R2*]=C([R1*])N([R3*])CC=1N=C2N(C=C(Cl)C=C2Cl)C1

>  <reagent2-name>
10759890

>  <reagent2-smiles>
[R1*]N1CCOCC1

>  <reagent3-name>
10766558

>  <reagent3-smiles>
[R2*]=NN=C([R3*])c1cc(S(=O)(=O)N(C)C)ccc1

$$$$
m_276096____13706896____16895042
          04022017313D 1   1.00000     0.00000     0
            
 50 54  0  0  0  0            999 V2000
   -2.6501   -2.2508    2.5966 S   0  0  0  0  0  0  0  0  0  0  0  0
   -2.2692   -3.4650    3.2705 O   0  0  0  0  0  0  0  0  0  0  0  0
   -3.7491   -1.6378    3.2966 O   0  0  0  0  0  0  0  0  0  0  0  0
   -3.1035   -2.5962    1.0695 N   0  0  0  0  0  0  0  0  0  0  0  0
   -4.2455   -3.5215    1.0949 C   0  0  0  0  0  0  0  0  0  0  0  0
   -1.2440   -1.1115    2.5654 C   0  0  0  0  0  0  0  0  0  0  0  0
   -1.4700    0.2609    2.5669 C   0  0  0  0  0  0  0  0  0  0  0  0
   -0.3822    1.1273    2.5430 C   0  0  0  0  0  0  0  0  0  0  0  0
    0.9125    0.6183    2.5170 C   0  0  0  0  0  0  0  0  0  0  0  0
    1.1336   -0.7552    2.5156 C   0  0  0  0  0  0  0  0  0  0  0  0
    0.0485   -1.6254    2.5397 C   0  0  0  0  0  0  0  0  0  0  0  0
    2.0377    1.5325    2.4911 C   0  0  0  0  0  0  0  0  0  0  0  0
    3.3528    1.1511    2.4644 N   0  0  0  0  0  0  0  0  0  0  0  0
    4.2262    2.1265    2.4440 C   0  0  0  0  0  0  0  0  0  0  0  0
    3.3287    3.5724    2.4687 S   0  0  0  0  0  0  0  0  0  0  0  0
    1.7793    2.8660    2.4982 C   0  0  0  0  0  0  0  0  0  0  0  0
    5.6914    2.0114    2.4155 N   0  0  0  0  0  0  0  0  0  0  0  0
    6.3242    0.6847    2.3964 C   0  0  0  0  0  0  0  0  0  0  0  0
    6.5150    0.2350    0.9573 C   0  0  0  0  0  0  0  0  0  0  0  0
    7.5755    0.4706    0.2212 O   0  0  0  0  0  0  0  0  0  0  0  0
    7.4151   -0.0569   -0.9705 C   0  0  0  0  0  0  0  0  0  0  0  0
    8.3805    0.0027   -2.0487 C   0  0  0  0  0  0  0  0  0  0  0  0
    8.1612   -0.6859   -3.5919 S   0  0  0  0  0  0  0  0  0  0  0  0
    9.6633   -0.1899   -4.2056 C   0  0  0  0  0  0  0  0  0  0  0  0
   10.2892    0.5080   -3.1957 C   0  0  0  0  0  0  0  0  0  0  0  0
    9.5538    0.5864   -2.0344 N   0  0  0  0  0  0  0  0  0  0  0  0
   11.5481    0.9705   -3.5744 C   0  0  0  0  0  0  0  0  0  0  0  0
   12.0638    0.7367   -4.8473 C   0  0  0  0  0  0  0  0  0  0  0  0
   11.3401    0.0240   -5.7989 C   0  0  0  0  0  0  0  0  0  0  0  0
   10.0864   -0.4708   -5.4886 C   0  0  0  0  0  0  0  0  0  0  0  0
    6.2016   -0.6677   -1.0406 C   0  0  0  0  0  0  0  0  0  0  0  0
    5.6107   -0.4757    0.2263 C   0  0  0  0  0  0  0  0  0  0  0  0
   -2.3404   -3.0219    0.5834 H   0  0  0  0  0  0  0  0  0  0  0  0
   -4.5237   -3.7334    0.1580 H   0  0  0  0  0  0  0  0  0  0  0  0
   -3.9810   -4.3647    1.5629 H   0  0  0  0  0  0  0  0  0  0  0  0
   -5.0087   -3.0958    1.5810 H   0  0  0  0  0  0  0  0  0  0  0  0
   -2.4031    0.6202    2.5850 H   0  0  0  0  0  0  0  0  0  0  0  0
   -0.5306    2.1163    2.5445 H   0  0  0  0  0  0  0  0  0  0  0  0
    2.0666   -1.1146    2.4974 H   0  0  0  0  0  0  0  0  0  0  0  0
    0.1967   -2.6143    2.5386 H   0  0  0  0  0  0  0  0  0  0  0  0
    0.8906    3.3240    2.5164 H   0  0  0  0  0  0  0  0  0  0  0  0
    6.2576    2.8356    2.4090 H   0  0  0  0  0  0  0  0  0  0  0  0
    5.7399    0.0298    2.8756 H   0  0  0  0  0  0  0  0  0  0  0  0
    7.2135    0.7330    2.8512 H   0  0  0  0  0  0  0  0  0  0  0  0
   12.0962    1.4842   -2.9144 H   0  0  0  0  0  0  0  0  0  0  0  0
   12.9705    1.0874   -5.0815 H   0  0  0  0  0  0  0  0  0  0  0  0
   11.7270   -0.1306   -6.7080 H   0  0  0  0  0  0  0  0  0  0  0  0
    9.5324   -0.9892   -6.1400 H   0  0  0  0  0  0  0  0  0  0  0  0
    5.8109   -1.1506   -1.8242 H   0  0  0  0  0  0  0  0  0  0  0  0
    4.7121   -0.7957    0.5263 H   0  0  0  0  0  0  0  0  0  0  0  0
  1  2  2  0  0  0  0
  1  3  2  0  0  0  0
  1  4  1  0  0  0  0
  4  5  1  0  0  0  0
  1  6  1  0  0  0  0
  6  7  1  0  0  0  0
  7  8  2  0  0  0  0
  8  9  1  0  0  0  0
  9 10  2  0  0  0  0
 10 11  1  0  0  0  0
 11  6  2  0  0  0  0
  9 12  1  0  0  0  0
 12 13  1  0  0  0  0
 13 14  2  0  0  0  0
 14 15  1  0  0  0  0
 15 16  1  0  0  0  0
 12 16  2  0  0  0  0
 14 17  1  0  0  0  0
 17 18  1  0  0  0  0
 18 19  1  0  0  0  0
 19 20  1  0  0  0  0
 20 21  1  0  0  0  0
 21 22  1  0  0  0  0
 22 23  1  0  0  0  0
 23 24  1  0  0  0  0
 24 25  1  0  0  0  0
 25 26  1  0  0  0  0
 22 26  2  0  0  0  0
 25 27  2  0  0  0  0
 27 28  1  0  0  0  0
 28 29  2  0  0  0  0
 29 30  1  0  0  0  0
 30 24  2  0  0  0  0
 21 31  2  0  0  0  0
 31 32  1  0  0  0  0
 19 32  2  0  0  0  0
  4 33  1  0  0  0  0
  5 34  1  0  0  0  0
  5 35  1  0  0  0  0
  5 36  1  0  0  0  0
  7 37  1  0  0  0  0
  8 38  1  0  0  0  0
 10 39  1  0  0  0  0
 11 40  1  0  0  0  0
 16 41  1  0  0  0  0
 17 42  1  0  0  0  0
 18 43  1  0  0  0  0
 18 44  1  0  0  0  0
 27 45  1  0  0  0  0
 28 46  1  0  0  0  0
 29 47  1  0  0  0  0
 30 48  1  0  0  0  0
 31 49  1  0  0  0  0
 32 50  1  0  0  0  0
M  END
>  <result-rank>
95

>  <similarity>
0.863

>  <query-name>


>  <query-smiles>
S(=O)(=O)(NC(=O)C)c1ccc(cc1)C=2N3C(=NC(=C3)COc4nc5c(cc4)cccc5)C(=NC2)N6CCOCC6

>  <source>
REALspace_2019-12

>  <similarity-descriptor>
1.000;0.0;0.885;0.798;0.768;0.999;1.000;0.733;0.733;0.733;0.885;0.768;0.0

>  <similarity-descriptor-smiles>
c1ccccc1;;C1=CC=CO1;C1=CSC(=N1)NC;C1=NccS1;c1ccccc1;S(=O)=O;NC;NC;NC;C1=CC=CO1;C1=NccS1;

>  <reaction-name>
m_276096

>  <reagent1-name>
13706896

>  <reagent1-smiles>
[R1*]SC(=N[R2*])NCC=1OC(C=2Sc3c(N2)cccc3)=CC1

>  <reagent2-name>
16895042

>  <reagent2-smiles>
[R2*]C(c1ccc(S(=O)(=O)NC)cc1)=C[R1*]

$$$$
s_270196____10855104____8781146
          04022017313D 1   1.00000     0.00000     0
            
 47 50  0  0  0  0            999 V2000
    0.4036    3.7617    2.5293 S   0  0  0  0  0  0  0  0  0  0  0  0
   -0.5826    2.9678    3.2153 O   0  0  0  0  0  0  0  0  0  0  0  0
    0.5651    5.0202    3.2103 O   0  0  0  0  0  0  0  0  0  0  0  0
   -0.0853    4.0313    0.9979 N   0  0  0  0  0  0  0  0  0  0  0  0
   -1.3682    4.7488    1.0123 C   0  0  0  0  0  0  0  0  0  0  0  0
   -1.8241    5.0003   -0.4157 C   0  0  0  0  0  0  0  0  0  0  0  0
    1.9833    2.8783    2.5116 C   0  0  0  0  0  0  0  0  0  0  0  0
    3.1735    3.5977    2.5023 C   0  0  0  0  0  0  0  0  0  0  0  0
    4.3802    2.9056    2.4882 C   0  0  0  0  0  0  0  0  0  0  0  0
    4.4059    1.5148    2.4827 C   0  0  0  0  0  0  0  0  0  0  0  0
    3.2042    0.8141    2.4925 C   0  0  0  0  0  0  0  0  0  0  0  0
    1.9869    1.4870    2.5070 C   0  0  0  0  0  0  0  0  0  0  0  0
    5.6234    3.6530    2.4786 C   0  0  0  0  0  0  0  0  0  0  0  0
    6.8265    3.1397    2.4652 N   0  0  0  0  0  0  0  0  0  0  0  0
    7.6648    4.0868    2.4644 O   0  0  0  0  0  0  0  0  0  0  0  0
    7.0323    5.2337    2.4771 C   0  0  0  0  0  0  0  0  0  0  0  0
    5.7415    5.0071    2.4869 N   0  0  0  0  0  0  0  0  0  0  0  0
    7.6867    6.6056    2.4810 C   0  0  0  0  0  0  0  0  0  0  0  0
    7.8869    7.0577    1.0945 N   0  0  0  0  0  0  0  0  0  0  0  0
    6.9370    7.7844    0.4133 C   0  0  0  0  0  0  0  0  0  0  0  0
    7.1679    8.1917   -0.8990 C   0  0  0  0  0  0  0  0  0  0  0  0
    6.1968    8.9239   -1.5784 C   0  0  0  0  0  0  0  0  0  0  0  0
    4.9882    9.2692   -0.9838 C   0  0  0  0  0  0  0  0  0  0  0  0
    4.7477    8.8697    0.3264 C   0  0  0  0  0  0  0  0  0  0  0  0
    5.7209    8.1376    0.9981 C   0  0  0  0  0  0  0  0  0  0  0  0
    8.4028    7.8425   -1.5160 C   0  0  0  0  0  0  0  0  0  0  0  0
    8.6738    8.1573   -2.6418 O   0  0  0  0  0  0  0  0  0  0  0  0
    9.3627    7.0916   -0.7857 C   0  0  0  0  0  0  0  0  0  0  0  0
    9.0768    6.7195    0.5027 C   0  0  0  0  0  0  0  0  0  0  0  0
   -0.1974    3.1574    0.5250 H   0  0  0  0  0  0  0  0  0  0  0  0
   -1.2561    5.6228    1.4852 H   0  0  0  0  0  0  0  0  0  0  0  0
   -2.0531    4.1975    1.4887 H   0  0  0  0  0  0  0  0  0  0  0  0
   -2.6969    5.4883   -0.4059 H   0  0  0  0  0  0  0  0  0  0  0  0
   -1.1392    5.5516   -0.8921 H   0  0  0  0  0  0  0  0  0  0  0  0
   -1.9363    4.1263   -0.8886 H   0  0  0  0  0  0  0  0  0  0  0  0
    3.1621    4.5976    2.5056 H   0  0  0  0  0  0  0  0  0  0  0  0
    5.2775    1.0247    2.4718 H   0  0  0  0  0  0  0  0  0  0  0  0
    3.2157   -0.1859    2.4890 H   0  0  0  0  0  0  0  0  0  0  0  0
    1.1263    0.9778    2.5141 H   0  0  0  0  0  0  0  0  0  0  0  0
    7.0970    7.2548    2.9614 H   0  0  0  0  0  0  0  0  0  0  0  0
    8.5709    6.5519    2.9450 H   0  0  0  0  0  0  0  0  0  0  0  0
    6.3739    9.2091   -2.5204 H   0  0  0  0  0  0  0  0  0  0  0  0
    4.3043    9.7953   -1.4892 H   0  0  0  0  0  0  0  0  0  0  0  0
    3.8876    9.1055    0.7789 H   0  0  0  0  0  0  0  0  0  0  0  0
    5.5413    7.8524    1.9396 H   0  0  0  0  0  0  0  0  0  0  0  0
   10.2343    6.8381   -1.2053 H   0  0  0  0  0  0  0  0  0  0  0  0
    9.7492    6.1911    1.0210 H   0  0  0  0  0  0  0  0  0  0  0  0
  1  2  2  0  0  0  0
  1  3  2  0  0  0  0
  1  4  1  0  0  0  0
  4  5  1  0  0  0  0
  5  6  1  0  0  0  0
  1  7  1  0  0  0  0
  7  8  1  0  0  0  0
  8  9  2  0  0  0  0
  9 10  1  0  0  0  0
 10 11  2  0  0  0  0
 11 12  1  0  0  0  0
 12  7  2  0  0  0  0
  9 13  1  0  0  0  0
 13 14  2  0  0  0  0
 14 15  1  0  0  0  0
 15 16  1  0  0  0  0
 16 17  2  0  0  0  0
 17 13  1  0  0  0  0
 16 18  1  0  0  0  0
 18 19  1  0  0  0  0
 19 20  1  0  0  0  0
 20 21  1  0  0  0  0
 21 22  2  0  0  0  0
 22 23  1  0  0  0  0
 23 24  2  0  0  0  0
 24 25  1  0  0  0  0
 25 20  2  0  0  0  0
 21 26  1  0  0  0  0
 26 27  2  0  0  0  0
 26 28  1  0  0  0  0
 28 29  2  0  0  0  0
 29 19  1  0  0  0  0
  4 30  1  0  0  0  0
  5 31  1  0  0  0  0
  5 32  1  0  0  0  0
  6 33  1  0  0  0  0
  6 34  1  0  0  0  0
  6 35  1  0  0  0  0
  8 36  1  0  0  0  0
 10 37  1  0  0  0  0
 11 38  1  0  0  0  0
 12 39  1  0  0  0  0
 18 40  1  0  0  0  0
 18 41  1  0  0  0  0
 22 42  1  0  0  0  0
 23 43  1  0  0  0  0
 24 44  1  0  0  0  0
 25 45  1  0  0  0  0
 28 46  1  0  0  0  0
 29 47  1  0  0  0  0
M  END
>  <result-rank>
96

>  <similarity>
0.862

>  <query-name>


>  <query-smiles>
S(=O)(=O)(NC(=O)C)c1ccc(cc1)C=2N3C(=NC(=C3)COc4nc5c(cc4)cccc5)C(=NC2)N6CCOCC6

>  <source>
REALspace_2019-12

>  <similarity-descriptor>
1.000;0.0;0.591;0.591;0.998;0.999;1.000;0.730;0.730;1.000;0.999;0.998;0.0

>  <similarity-descriptor-smiles>
c1ccccc1;;C=1N=CON1;C=1N=CON1;N1C=CC(cc1)=O;c1ccccc1;S(=O)=O;NC;NC;C;C;N1C=CC(cc1)=O;

>  <reaction-name>
s_270196

>  <reagent1-name>
10855104

>  <reagent1-smiles>
[R1*]=NC(=NO[R2*])c1cc(S(=O)(=O)NCC)ccc1

>  <reagent2-name>
8781146

>  <reagent2-smiles>
[R1*]C([R2*])CN1c2c(cccc2)C(=O)C=C1

$$$$
m_271722____10195368____11366088
          04022017313D 1   1.00000     0.00000     0
            
 49 53  0  0  0  0            999 V2000
   -1.9873   -4.0817    0.9760 Cl  0  0  0  0  0  0  0  0  0  0  0  0
   -1.0825   -2.5488    0.9841 C   0  0  0  0  0  0  0  0  0  0  0  0
   -1.7603   -1.3569    0.7528 C   0  0  0  0  0  0  0  0  0  0  0  0
   -1.0460   -0.1637    0.7608 C   0  0  0  0  0  0  0  0  0  0  0  0
   -1.7171    1.0436    0.5304 N   0  3  0  0  0  0  0  0  0  0  0  0
   -2.7304    1.3074    1.1564 O   0  5  0  0  0  0  0  0  0  0  0  0
   -1.2924    1.8248   -0.2903 O   0  0  0  0  0  0  0  0  0  0  0  0
    0.3247   -0.1696    0.9964 C   0  0  0  0  0  0  0  0  0  0  0  0
    1.0000    1.0000    1.0000 O   0  0  0  0  0  0  0  0  0  0  0  0
    2.3494    1.0000    1.0000 C   0  0  0  0  0  0  0  0  0  0  0  0
    3.0442    0.9951    2.2042 C   0  0  0  0  0  0  0  0  0  0  0  0
    2.3616    0.9905    3.3689 O   0  0  0  0  0  0  0  0  0  0  0  0
    3.0636    0.9855    4.6032 C   0  0  0  0  0  0  0  0  0  0  0  0
    4.4356    0.9941    2.2130 C   0  0  0  0  0  0  0  0  0  0  0  0
    5.1153    0.9985    0.9996 C   0  0  0  0  0  0  0  0  0  0  0  0
    4.4325    1.0033   -0.2121 C   0  0  0  0  0  0  0  0  0  0  0  0
    3.0410    1.0037   -0.2073 C   0  0  0  0  0  0  0  0  0  0  0  0
    6.5651    0.9987    1.0107 C   0  0  0  0  0  0  0  0  0  0  0  0
    7.3220    0.9951    2.0821 O   0  0  0  0  0  0  0  0  0  0  0  0
    8.5681    0.9961    1.6698 C   0  0  0  0  0  0  0  0  0  0  0  0
    8.5849    1.0000    0.3579 N   0  0  0  0  0  0  0  0  0  0  0  0
    7.3365    1.0008   -0.0521 N   0  0  0  0  0  0  0  0  0  0  0  0
    9.7389    0.9949    2.5261 C   0  0  0  0  0  0  0  0  0  0  0  0
   10.9869    0.9953    2.0276 N   0  0  0  0  0  0  0  0  0  0  0  0
   12.0789    0.9942    2.8115 C   0  0  0  0  0  0  0  0  0  0  0  0
   11.9411    0.9919    4.1965 C   0  0  0  0  0  0  0  0  0  0  0  0
   10.6610    0.9907    4.7403 C   0  0  0  0  0  0  0  0  0  0  0  0
    9.5497    0.9923    3.9038 C   0  0  0  0  0  0  0  0  0  0  0  0
   13.0436    0.9924    5.0444 C   0  0  0  0  0  0  0  0  0  0  0  0
   14.3207    0.9946    4.4926 C   0  0  0  0  0  0  0  0  0  0  0  0
   14.4809    0.9964    3.1108 C   0  0  0  0  0  0  0  0  0  0  0  0
   13.3644    0.9964    2.2810 C   0  0  0  0  0  0  0  0  0  0  0  0
    1.0001   -1.3632    1.2277 C   0  0  0  0  0  0  0  0  0  0  0  0
    0.2879   -2.5576    1.2198 C   0  0  0  0  0  0  0  0  0  0  0  0
   -2.7458   -1.3578    0.5833 H   0  0  0  0  0  0  0  0  0  0  0  0
    2.4088    0.9825    5.3591 H   0  0  0  0  0  0  0  0  0  0  0  0
    3.6381    0.1688    4.6567 H   0  0  0  0  0  0  0  0  0  0  0  0
    3.6382    1.8017    4.6633 H   0  0  0  0  0  0  0  0  0  0  0  0
    4.9384    0.9902    3.0773 H   0  0  0  0  0  0  0  0  0  0  0  0
    4.9355    1.0064   -1.0764 H   0  0  0  0  0  0  0  0  0  0  0  0
    2.5380    1.0067   -1.0716 H   0  0  0  0  0  0  0  0  0  0  0  0
   10.5395    0.9887    5.7329 H   0  0  0  0  0  0  0  0  0  0  0  0
    8.6266    0.9916    4.2882 H   0  0  0  0  0  0  0  0  0  0  0  0
   12.9200    0.9912    6.0367 H   0  0  0  0  0  0  0  0  0  0  0  0
   15.1233    0.9949    5.0892 H   0  0  0  0  0  0  0  0  0  0  0  0
   15.3988    0.9977    2.7139 H   0  0  0  0  0  0  0  0  0  0  0  0
   13.4880    0.9981    1.2886 H   0  0  0  0  0  0  0  0  0  0  0  0
    1.9856   -1.3625    1.3975 H   0  0  0  0  0  0  0  0  0  0  0  0
    0.7614   -3.4230    1.3837 H   0  0  0  0  0  0  0  0  0  0  0  0
  1  2  1  0  0  0  0
  2  3  1  0  0  0  0
  3  4  2  0  0  0  0
  4  5  1  0  0  0  0
  5  6  1  0  0  0  0
  5  7  2  0  0  0  0
  4  8  1  0  0  0  0
  8  9  1  0  0  0  0
  9 10  1  0  0  0  0
 10 11  1  0  0  0  0
 11 12  1  0  0  0  0
 12 13  1  0  0  0  0
 11 14  2  0  0  0  0
 14 15  1  0  0  0  0
 15 16  2  0  0  0  0
 16 17  1  0  0  0  0
 17 10  2  0  0  0  0
 15 18  1  0  0  0  0
 18 19  1  0  0  0  0
 19 20  1  0  0  0  0
 20 21  2  0  0  0  0
 21 22  1  0  0  0  0
 18 22  2  0  0  0  0
 20 23  1  0  0  0  0
 23 24  1  0  0  0  0
 24 25  2  0  0  0  0
 25 26  1  0  0  0  0
 26 27  2  0  0  0  0
 27 28  1  0  0  0  0
 28 23  2  0  0  0  0
 26 29  1  0  0  0  0
 29 30  2  0  0  0  0
 30 31  1  0  0  0  0
 31 32  2  0  0  0  0
 32 25  1  0  0  0  0
  8 33  2  0  0  0  0
 33 34  1  0  0  0  0
 34  2  2  0  0  0  0
  3 35  1  0  0  0  0
 13 36  1  0  0  0  0
 13 37  1  0  0  0  0
 13 38  1  0  0  0  0
 14 39  1  0  0  0  0
 16 40  1  0  0  0  0
 17 41  1  0  0  0  0
 27 42  1  0  0  0  0
 28 43  1  0  0  0  0
 29 44  1  0  0  0  0
 30 45  1  0  0  0  0
 31 46  1  0  0  0  0
 32 47  1  0  0  0  0
 33 48  1  0  0  0  0
 34 49  1  0  0  0  0
M  CHG  2   5   1   6  -1
M  END
>  <result-rank>
97

>  <similarity>
0.862

>  <query-name>


>  <query-smiles>
S(=O)(=O)(NC(=O)C)c1ccc(cc1)C=2N3C(=NC(=C3)COc4nc5c(cc4)cccc5)C(=NC2)N6CCOCC6

>  <source>
REALspace_2019-12

>  <similarity-descriptor>
0.935;0.0;0.771;0.814;0.997;1.000;0.975;0.0;0.0;0.0;0.771;0.771;0.111

>  <similarity-descriptor-smiles>
Clc1ccc(cc1)O;;C1=NN=CO1;c1ccccc1O;c1ccccn1;c1ccccc1;[N+]([O-])=O;;;;C1=NN=CO1;C1=NN=CO1;C

>  <reaction-name>
m_271722

>  <reagent1-name>
10195368

>  <reagent1-smiles>
[R1*]=NN=C(O[R2*])c1nc2c(cc1)cccc2

>  <reagent2-name>
11366088

>  <reagent2-smiles>
[R1*]C([R2*])c1cc(OC)c(Oc2c([N+]([O-])=O)cc(Cl)cc2)cc1

$$$$
s_22____14177980____138716
          04022017313D 1   1.00000     0.00000     0
            
 55 59  0  0  0  0            999 V2000
   -2.1456    0.3152    3.3726 S   0  0  0  0  0  0  0  0  0  0  0  0
   -3.6247    0.7346    2.6402 C   0  0  0  0  0  0  0  0  0  0  0  0
   -4.9049    0.4393    3.1482 N   0  0  0  0  0  0  0  0  0  0  0  0
   -5.6280    1.3464    4.0531 C   0  0  0  0  0  0  0  0  0  0  0  0
   -6.5651    0.5296    4.9273 C   0  0  0  0  0  0  0  0  0  0  0  0
   -7.5671   -0.1536    4.1790 O   0  0  0  0  0  0  0  0  0  0  0  0
   -7.1288   -0.5522    2.8841 C   0  0  0  0  0  0  0  0  0  0  0  0
   -5.6284   -0.7966    2.8195 C   0  0  0  0  0  0  0  0  0  0  0  0
   -3.3378    1.3988    1.4856 C   0  0  0  0  0  0  0  0  0  0  0  0
   -4.3792    1.9011    0.6101 C   0  0  0  0  0  0  0  0  0  0  0  0
   -4.2422    3.1558    0.0254 C   0  0  0  0  0  0  0  0  0  0  0  0
   -5.2439    3.6342   -0.8130 C   0  0  0  0  0  0  0  0  0  0  0  0
   -6.3714    2.8587   -1.0623 C   0  0  0  0  0  0  0  0  0  0  0  0
   -6.4973    1.6067   -0.4731 C   0  0  0  0  0  0  0  0  0  0  0  0
   -5.5029    1.1174    0.3676 C   0  0  0  0  0  0  0  0  0  0  0  0
   -1.9479    1.5426    1.2386 C   0  0  0  0  0  0  0  0  0  0  0  0
   -1.1360    1.0000    2.1865 C   0  0  0  0  0  0  0  0  0  0  0  0
    0.3150    1.0000    2.1865 C   0  0  0  0  0  0  0  0  0  0  0  0
    0.9150    1.0000    3.2257 O   0  0  0  0  0  0  0  0  0  0  0  0
    1.0000    1.0000    1.0000 N   0  0  0  0  0  0  0  0  0  0  0  0
    2.4700    1.0000    1.0000 C   0  0  0  0  0  0  0  0  0  0  0  0
    2.9767    1.0000   -0.4332 C   0  0  0  0  0  0  0  0  0  0  0  0
    3.2138    2.2308   -1.1038 C   0  0  0  0  0  0  0  0  0  0  0  0
    3.0106    3.2880   -0.5290 O   0  0  0  0  0  0  0  0  0  0  0  0
    3.6702    2.2104   -2.3967 N   0  0  0  0  0  0  0  0  0  0  0  0
    3.9028    1.0306   -3.0556 C   0  0  0  0  0  0  0  0  0  0  0  0
    3.6773   -0.1869   -2.4192 C   0  0  0  0  0  0  0  0  0  0  0  0
    3.9016   -1.4039   -3.0537 C   0  0  0  0  0  0  0  0  0  0  0  0
    4.3654   -1.4045   -4.3651 C   0  0  0  0  0  0  0  0  0  0  0  0
    4.5928   -0.1915   -5.0066 C   0  0  0  0  0  0  0  0  0  0  0  0
    5.0359   -0.1970   -6.2598 F   0  0  0  0  0  0  0  0  0  0  0  0
    4.3667    1.0235   -4.3672 C   0  0  0  0  0  0  0  0  0  0  0  0
    3.2048   -0.1868   -1.0792 C   0  0  0  0  0  0  0  0  0  0  0  0
   -6.1576    2.0034    3.5165 H   0  0  0  0  0  0  0  0  0  0  0  0
   -4.9741    1.8367    4.6293 H   0  0  0  0  0  0  0  0  0  0  0  0
   -6.0253   -0.1462    5.4292 H   0  0  0  0  0  0  0  0  0  0  0  0
   -7.0145    1.1449    5.5750 H   0  0  0  0  0  0  0  0  0  0  0  0
   -7.3637    0.1682    2.2314 H   0  0  0  0  0  0  0  0  0  0  0  0
   -7.6014   -1.3968    2.6326 H   0  0  0  0  0  0  0  0  0  0  0  0
   -5.3804   -1.5101    3.4747 H   0  0  0  0  0  0  0  0  0  0  0  0
   -5.3800   -1.0906    1.8965 H   0  0  0  0  0  0  0  0  0  0  0  0
   -3.4296    3.7099    0.2064 H   0  0  0  0  0  0  0  0  0  0  0  0
   -5.1534    4.5355   -1.2364 H   0  0  0  0  0  0  0  0  0  0  0  0
   -7.0912    3.2023   -1.6655 H   0  0  0  0  0  0  0  0  0  0  0  0
   -7.3097    1.0526   -0.6550 H   0  0  0  0  0  0  0  0  0  0  0  0
   -5.5943    0.2162    0.7912 H   0  0  0  0  0  0  0  0  0  0  0  0
   -1.5916    2.0079    0.4284 H   0  0  0  0  0  0  0  0  0  0  0  0
    0.5000    1.0000    0.1340 H   0  0  0  0  0  0  0  0  0  0  0  0
    2.8033    0.1835    1.4714 H   0  0  0  0  0  0  0  0  0  0  0  0
    2.8033    1.8165    1.4714 H   0  0  0  0  0  0  0  0  0  0  0  0
    3.8372    3.0754   -2.8698 H   0  0  0  0  0  0  0  0  0  0  0  0
    3.7322   -2.2652   -2.5747 H   0  0  0  0  0  0  0  0  0  0  0  0
    4.5334   -2.2676   -4.8415 H   0  0  0  0  0  0  0  0  0  0  0  0
    4.5363    1.8845   -4.8466 H   0  0  0  0  0  0  0  0  0  0  0  0
    3.0386   -1.0528   -0.6076 H   0  0  0  0  0  0  0  0  0  0  0  0
  1  2  1  0  0  0  0
  2  3  1  0  0  0  0
  3  4  1  0  0  0  0
  4  5  1  0  0  0  0
  5  6  1  0  0  0  0
  6  7  1  0  0  0  0
  7  8  1  0  0  0  0
  8  3  1  0  0  0  0
  2  9  2  0  0  0  0
  9 10  1  0  0  0  0
 10 11  1  0  0  0  0
 11 12  2  0  0  0  0
 12 13  1  0  0  0  0
 13 14  2  0  0  0  0
 14 15  1  0  0  0  0
 15 10  2  0  0  0  0
  9 16  1  0  0  0  0
 16 17  2  0  0  0  0
 17  1  1  0  0  0  0
 17 18  1  0  0  0  0
 18 19  2  0  0  0  0
 18 20  1  0  0  0  0
 20 21  1  0  0  0  0
 21 22  1  0  0  0  0
 22 23  1  0  0  0  0
 23 24  2  0  0  0  0
 23 25  1  0  0  0  0
 25 26  1  0  0  0  0
 26 27  1  0  0  0  0
 27 28  2  0  0  0  0
 28 29  1  0  0  0  0
 29 30  2  0  0  0  0
 30 31  1  0  0  0  0
 30 32  1  0  0  0  0
 32 26  2  0  0  0  0
 27 33  1  0  0  0  0
 22 33  2  0  0  0  0
  4 34  1  0  0  0  0
  4 35  1  0  0  0  0
  5 36  1  0  0  0  0
  5 37  1  0  0  0  0
  7 38  1  0  0  0  0
  7 39  1  0  0  0  0
  8 40  1  0  0  0  0
  8 41  1  0  0  0  0
 11 42  1  0  0  0  0
 12 43  1  0  0  0  0
 13 44  1  0  0  0  0
 14 45  1  0  0  0  0
 15 46  1  0  0  0  0
 16 47  1  0  0  0  0
 20 48  1  0  0  0  0
 21 49  1  0  0  0  0
 21 50  1  0  0  0  0
 25 51  1  0  0  0  0
 28 52  1  0  0  0  0
 29 53  1  0  0  0  0
 32 54  1  0  0  0  0
 33 55  1  0  0  0  0
M  END
>  <result-rank>
98

>  <similarity>
0.862

>  <query-name>


>  <query-smiles>
S(=O)(=O)(NC(=O)C)c1ccc(cc1)C=2N3C(=NC(=C3)COc4nc5c(cc4)cccc5)C(=NC2)N6CCOCC6

>  <source>
REALspace_2019-12

>  <similarity-descriptor>
0.959;1.000;0.497;0.820;0.910;0.963;0.0;0.0;0.0;0.0;0.999;0.910;0.0

>  <similarity-descriptor-smiles>
c1ccccc1;N1CCOCC1;C(=O)N;S1C=CC=C1;C1=CccNC1=O;c1cc(ccc1)F;;;;;C;C1=CccNC1=O;

>  <reaction-name>
s_22

>  <reagent1-name>
14177980

>  <reagent1-smiles>
[R1*]NCC=1C(=O)Nc2c(ccc(F)c2)C1

>  <reagent2-name>
138716

>  <reagent2-smiles>
[R1*]C(=O)C=1SC(N2CCOCC2)=C(c3ccccc3)C1

$$$$
m_271722____10195368____11366366
          04022017313D 1   1.00000     0.00000     0
            
 45 49  0  0  0  0            999 V2000
    8.3100    2.6952   -0.8016 F   0  0  0  0  0  0  0  0  0  0  0  0
    8.3414    1.6975    0.0774 C   0  0  0  0  0  0  0  0  0  0  0  0
    9.6040    1.4281    0.3973 F   0  0  0  0  0  0  0  0  0  0  0  0
    7.7796    0.6173   -0.4578 F   0  0  0  0  0  0  0  0  0  0  0  0
    7.5765    2.0997    1.3280 C   0  0  0  0  0  0  0  0  0  0  0  0
    6.1879    2.0212    1.3306 C   0  0  0  0  0  0  0  0  0  0  0  0
    5.4933    2.3901    2.4777 C   0  0  0  0  0  0  0  0  0  0  0  0
    4.0957    2.3152    2.4925 N   0  0  0  0  0  0  0  0  0  0  0  0
    3.2827    3.3442    2.5082 N   0  0  0  0  0  0  0  0  0  0  0  0
    2.0347    2.9468    2.5158 C   0  0  0  0  0  0  0  0  0  0  0  0
    2.0662    1.5346    2.5073 C   0  0  0  0  0  0  0  0  0  0  0  0
    0.9132    0.6537    2.5111 C   0  0  0  0  0  0  0  0  0  0  0  0
    0.9522   -0.6575    2.5007 O   0  0  0  0  0  0  0  0  0  0  0  0
   -0.2915   -1.0770    2.5095 C   0  0  0  0  0  0  0  0  0  0  0  0
   -1.0933   -0.0386    2.5257 N   0  0  0  0  0  0  0  0  0  0  0  0
   -0.3420    1.0394    2.5275 N   0  0  0  0  0  0  0  0  0  0  0  0
   -0.7129   -2.4660    2.5012 C   0  0  0  0  0  0  0  0  0  0  0  0
   -2.0098   -2.8161    2.5114 N   0  0  0  0  0  0  0  0  0  0  0  0
   -2.4096   -4.0986    2.5036 C   0  0  0  0  0  0  0  0  0  0  0  0
   -1.4649   -5.1214    2.4843 C   0  0  0  0  0  0  0  0  0  0  0  0
   -0.1148   -4.7868    2.4734 C   0  0  0  0  0  0  0  0  0  0  0  0
    0.2708   -3.4498    2.4822 C   0  0  0  0  0  0  0  0  0  0  0  0
   -1.8465   -6.4589    2.4755 C   0  0  0  0  0  0  0  0  0  0  0  0
   -3.2014   -6.7728    2.4869 C   0  0  0  0  0  0  0  0  0  0  0  0
   -4.1651   -5.7702    2.5060 C   0  0  0  0  0  0  0  0  0  0  0  0
   -3.7585   -4.4398    2.5144 C   0  0  0  0  0  0  0  0  0  0  0  0
    3.3716    1.1601    2.4923 C   0  0  0  0  0  0  0  0  0  0  0  0
    3.9343   -0.2543    2.4827 C   0  0  0  0  0  0  0  0  0  0  0  0
    3.7837   -0.7830    1.2716 F   0  0  0  0  0  0  0  0  0  0  0  0
    5.2270   -0.2193    2.7935 F   0  0  0  0  0  0  0  0  0  0  0  0
    3.2838   -0.9962    3.3744 F   0  0  0  0  0  0  0  0  0  0  0  0
    6.1650    2.8326    3.6121 C   0  0  0  0  0  0  0  0  0  0  0  0
    7.5536    2.9029    3.5867 C   0  0  0  0  0  0  0  0  0  0  0  0
    8.2699    2.5389    2.4508 C   0  0  0  0  0  0  0  0  0  0  0  0
    5.6962    1.7042    0.5196 H   0  0  0  0  0  0  0  0  0  0  0  0
    1.2209    3.5280    2.5257 H   0  0  0  0  0  0  0  0  0  0  0  0
    0.5788   -5.5070    2.4593 H   0  0  0  0  0  0  0  0  0  0  0  0
    1.2391   -3.2001    2.4750 H   0  0  0  0  0  0  0  0  0  0  0  0
   -1.1574   -7.1835    2.4612 H   0  0  0  0  0  0  0  0  0  0  0  0
   -3.4862   -7.7314    2.4813 H   0  0  0  0  0  0  0  0  0  0  0  0
   -5.1377   -6.0026    2.5137 H   0  0  0  0  0  0  0  0  0  0  0  0
   -4.4481   -3.7157    2.5283 H   0  0  0  0  0  0  0  0  0  0  0  0
    5.6578    3.0959    4.4327 H   0  0  0  0  0  0  0  0  0  0  0  0
    8.0451    3.2200    4.3977 H   0  0  0  0  0  0  0  0  0  0  0  0
    9.2684    2.5923    2.4418 H   0  0  0  0  0  0  0  0  0  0  0  0
  1  2  1  0  0  0  0
  2  3  1  0  0  0  0
  2  4  1  0  0  0  0
  2  5  1  0  0  0  0
  5  6  1  0  0  0  0
  6  7  2  0  0  0  0
  7  8  1  0  0  0  0
  8  9  1  0  0  0  0
  9 10  2  0  0  0  0
 10 11  1  0  0  0  0
 11 12  1  0  0  0  0
 12 13  1  0  0  0  0
 13 14  1  0  0  0  0
 14 15  2  0  0  0  0
 15 16  1  0  0  0  0
 12 16  2  0  0  0  0
 14 17  1  0  0  0  0
 17 18  1  0  0  0  0
 18 19  2  0  0  0  0
 19 20  1  0  0  0  0
 20 21  2  0  0  0  0
 21 22  1  0  0  0  0
 22 17  2  0  0  0  0
 20 23  1  0  0  0  0
 23 24  2  0  0  0  0
 24 25  1  0  0  0  0
 25 26  2  0  0  0  0
 26 19  1  0  0  0  0
 11 27  2  0  0  0  0
 27  8  1  0  0  0  0
 27 28  1  0  0  0  0
 28 29  1  0  0  0  0
 28 30  1  0  0  0  0
 28 31  1  0  0  0  0
  7 32  1  0  0  0  0
 32 33  2  0  0  0  0
 33 34  1  0  0  0  0
 34  5  2  0  0  0  0
  6 35  1  0  0  0  0
 10 36  1  0  0  0  0
 21 37  1  0  0  0  0
 22 38  1  0  0  0  0
 23 39  1  0  0  0  0
 24 40  1  0  0  0  0
 25 41  1  0  0  0  0
 26 42  1  0  0  0  0
 32 43  1  0  0  0  0
 33 44  1  0  0  0  0
 34 45  1  0  0  0  0
M  END
>  <result-rank>
99

>  <similarity>
0.862

>  <query-name>


>  <query-smiles>
S(=O)(=O)(NC(=O)C)c1ccc(cc1)C=2N3C(=NC(=C3)COc4nc5c(cc4)cccc5)C(=NC2)N6CCOCC6

>  <source>
REALspace_2019-12

>  <similarity-descriptor>
0.942;0.0;0.771;0.886;0.997;1.000;0.0;0.0;0.0;0.0;0.771;0.771;0.0

>  <similarity-descriptor-smiles>
FC(F)(F)c1ccccc1;;C1=NN=CO1;N1C(=CC=N1)C(F)(F)F;c1ccccn1;c1ccccc1;;;;;C1=NN=CO1;C1=NN=CO1;

>  <reaction-name>
m_271722

>  <reagent1-name>
10195368

>  <reagent1-smiles>
[R1*]=NN=C(O[R2*])c1nc2c(cc1)cccc2

>  <reagent2-name>
11366366

>  <reagent2-smiles>
[R1*]C([R2*])C1=C(N(N=C1)c2cc(ccc2)C(F)(F)F)C(F)(F)F

$$$$
m_271722____9492380____10189396
          04022017313D 1   1.00000     0.00000     0
            
 48 52  0  0  0  0            999 V2000
    0.4648    3.7275    2.5286 S   0  0  0  0  0  0  0  0  0  0  0  0
   -0.5215    2.9336    3.2146 O   0  0  0  0  0  0  0  0  0  0  0  0
    0.6262    4.9859    3.2096 O   0  0  0  0  0  0  0  0  0  0  0  0
   -0.0241    3.9971    0.9972 N   0  0  0  0  0  0  0  0  0  0  0  0
    0.9827    4.8076    0.2969 C   0  0  0  0  0  0  0  0  0  0  0  0
   -0.1889    2.7124    0.3020 C   0  0  0  0  0  0  0  0  0  0  0  0
    1.9833    2.8783    2.5116 C   0  0  0  0  0  0  0  0  0  0  0  0
    3.1735    3.5977    2.5023 C   0  0  0  0  0  0  0  0  0  0  0  0
    4.3802    2.9056    2.4882 C   0  0  0  0  0  0  0  0  0  0  0  0
    4.4059    1.5148    2.4827 C   0  0  0  0  0  0  0  0  0  0  0  0
    3.2042    0.8141    2.4925 C   0  0  0  0  0  0  0  0  0  0  0  0
    1.9869    1.4870    2.5070 C   0  0  0  0  0  0  0  0  0  0  0  0
    5.6228    3.6526    2.4786 C   0  0  0  0  0  0  0  0  0  0  0  0
    5.7294    4.9601    2.4820 O   0  0  0  0  0  0  0  0  0  0  0  0
    7.0119    5.2390    2.4710 C   0  0  0  0  0  0  0  0  0  0  0  0
    7.6937    4.1181    2.4614 N   0  0  0  0  0  0  0  0  0  0  0  0
    6.8275    3.1300    2.4669 N   0  0  0  0  0  0  0  0  0  0  0  0
    7.5843    6.5716    2.4684 C   0  0  0  0  0  0  0  0  0  0  0  0
    8.2207    7.0092    3.5642 N   0  0  0  0  0  0  0  0  0  0  0  0
    8.7701    8.2317    3.6214 C   0  0  0  0  0  0  0  0  0  0  0  0
    8.6779    9.0696    2.5143 C   0  0  0  0  0  0  0  0  0  0  0  0
    8.0417    8.6329    1.4169 N   0  0  0  0  0  0  0  0  0  0  0  0
    7.4930    7.4103    1.3616 C   0  0  0  0  0  0  0  0  0  0  0  0
    6.8199    7.0000    0.1465 C   0  0  0  0  0  0  0  0  0  0  0  0
    7.3898    5.8059   -0.9274 S   0  0  0  0  0  0  0  0  0  0  0  0
    6.0931    5.9332   -2.0142 C   0  0  0  0  0  0  0  0  0  0  0  0
    5.2466    6.8937   -1.5051 C   0  0  0  0  0  0  0  0  0  0  0  0
    5.6836    7.4522   -0.3250 N   0  0  0  0  0  0  0  0  0  0  0  0
    4.1318    7.0991   -2.3158 C   0  0  0  0  0  0  0  0  0  0  0  0
    3.9368    6.3790   -3.4922 C   0  0  0  0  0  0  0  0  0  0  0  0
    4.8549    5.4204   -3.9116 C   0  0  0  0  0  0  0  0  0  0  0  0
    5.9880    5.1702   -3.1591 C   0  0  0  0  0  0  0  0  0  0  0  0
    0.6827    4.9730   -0.6426 H   0  0  0  0  0  0  0  0  0  0  0  0
    1.0948    5.6815    0.7699 H   0  0  0  0  0  0  0  0  0  0  0  0
    1.8554    4.3195    0.2872 H   0  0  0  0  0  0  0  0  0  0  0  0
   -0.4889    2.8779   -0.6374 H   0  0  0  0  0  0  0  0  0  0  0  0
    0.6838    2.2244    0.2923 H   0  0  0  0  0  0  0  0  0  0  0  0
   -0.8738    2.1611    0.7784 H   0  0  0  0  0  0  0  0  0  0  0  0
    3.1621    4.5976    2.5056 H   0  0  0  0  0  0  0  0  0  0  0  0
    5.2775    1.0247    2.4718 H   0  0  0  0  0  0  0  0  0  0  0  0
    3.2157   -0.1859    2.4890 H   0  0  0  0  0  0  0  0  0  0  0  0
    1.1263    0.9778    2.5141 H   0  0  0  0  0  0  0  0  0  0  0  0
    9.2401    8.5372    4.4495 H   0  0  0  0  0  0  0  0  0  0  0  0
    9.0804    9.9848    2.5363 H   0  0  0  0  0  0  0  0  0  0  0  0
    3.4532    7.7822   -2.0456 H   0  0  0  0  0  0  0  0  0  0  0  0
    3.1224    6.5538   -4.0455 H   0  0  0  0  0  0  0  0  0  0  0  0
    4.6950    4.9122   -4.7579 H   0  0  0  0  0  0  0  0  0  0  0  0
    6.6744    4.4924   -3.4229 H   0  0  0  0  0  0  0  0  0  0  0  0
  1  2  2  0  0  0  0
  1  3  2  0  0  0  0
  1  4  1  0  0  0  0
  4  5  1  0  0  0  0
  4  6  1  0  0  0  0
  1  7  1  0  0  0  0
  7  8  1  0  0  0  0
  8  9  2  0  0  0  0
  9 10  1  0  0  0  0
 10 11  2  0  0  0  0
 11 12  1  0  0  0  0
 12  7  2  0  0  0  0
  9 13  1  0  0  0  0
 13 14  1  0  0  0  0
 14 15  1  0  0  0  0
 15 16  2  0  0  0  0
 16 17  1  0  0  0  0
 13 17  2  0  0  0  0
 15 18  1  0  0  0  0
 18 19  1  0  0  0  0
 19 20  2  0  0  0  0
 20 21  1  0  0  0  0
 21 22  2  0  0  0  0
 22 23  1  0  0  0  0
 23 18  2  0  0  0  0
 23 24  1  0  0  0  0
 24 25  1  0  0  0  0
 25 26  1  0  0  0  0
 26 27  1  0  0  0  0
 27 28  1  0  0  0  0
 24 28  2  0  0  0  0
 27 29  2  0  0  0  0
 29 30  1  0  0  0  0
 30 31  2  0  0  0  0
 31 32  1  0  0  0  0
 32 26  2  0  0  0  0
  5 33  1  0  0  0  0
  5 34  1  0  0  0  0
  5 35  1  0  0  0  0
  6 36  1  0  0  0  0
  6 37  1  0  0  0  0
  6 38  1  0  0  0  0
  8 39  1  0  0  0  0
 10 40  1  0  0  0  0
 11 41  1  0  0  0  0
 12 42  1  0  0  0  0
 20 43  1  0  0  0  0
 21 44  1  0  0  0  0
 29 45  1  0  0  0  0
 30 46  1  0  0  0  0
 31 47  1  0  0  0  0
 32 48  1  0  0  0  0
M  END
>  <result-rank>
100

>  <similarity>
0.862

>  <query-name>


>  <query-smiles>
S(=O)(=O)(NC(=O)C)c1ccc(cc1)C=2N3C(=NC(=C3)COc4nc5c(cc4)cccc5)C(=NC2)N6CCOCC6

>  <source>
REALspace_2019-12

>  <similarity-descriptor>
1.000;0.0;0.916;0.705;0.861;0.999;1.000;0.528;0.528;0.995;0.916;0.916;0.0

>  <similarity-descriptor-smiles>
c1ccccc1;;c1cnccn1;C1=NN=CO1;C1=NccS1;c1ccccc1;S(=O)=O;NC;NC;C;c1cnccn1;c1cnccn1;

>  <reaction-name>
m_271722

>  <reagent1-name>
9492380

>  <reagent1-smiles>
[R1*]=NN=C(O[R2*])c1cc(S(=O)(=O)N(C)C)ccc1

>  <reagent2-name>
10189396

>  <reagent2-smiles>
[R1*]C([R2*])c1nccnc1C=2Sc3c(N2)cccc3

$$$$
