m_275030____14114078____14125676____14147198
     RDKit          3D

 37 42  0  0  0  0  0  0  0  0999 V2000
   -2.5430    0.4737    0.9991 O   0  0  0  0  0  0  0  0  0  0  0  0
   -2.0680    0.3926   -0.1236 C   0  0  0  0  0  0  0  0  0  0  0  0
   -0.8911    1.0118   -0.5436 N   0  0  0  0  0  0  0  0  0  0  0  0
   -0.6178    0.7179   -1.8795 C   0  0  0  0  0  0  0  0  0  0  0  0
    0.3383    1.1072   -2.5402 O   0  0  0  0  0  0  0  0  0  0  0  0
   -1.7502   -0.1748   -2.3387 C   0  0  0  0  0  0  0  0  0  0  0  0
   -2.6307   -0.3304   -1.1759 N   0  0  0  0  0  0  0  0  0  0  0  0
   -2.3711    0.3402   -3.6205 C   0  0  0  0  0  0  0  0  0  0  0  0
   -3.1846   -0.8287   -4.1383 C   0  0  0  0  0  0  0  0  0  0  0  0
   -2.3619   -2.0342   -3.7337 C   0  0  0  0  0  0  0  0  0  0  0  0
   -1.2216   -1.4710   -2.9095 C   0  0  0  0  0  0  0  0  0  0  0  0
   -0.0426    1.8602    0.3048 C   0  0  0  0  0  0  0  0  0  0  0  0
    1.0000    1.0000    1.0000 C   0  0  0  0  0  0  0  0  0  0  0  0
    1.8485    1.8485    1.8485 N   0  0  0  0  0  0  0  0  0  0  0  0
    1.0141    2.5174    2.8532 C   0  0  0  0  0  0  0  0  0  0  0  0
    1.8632    3.6882    3.3035 C   0  0  0  0  0  0  0  0  0  0  0  0
    2.9010    3.3002    4.3396 C   0  0  0  0  0  0  0  0  0  0  0  0
    3.7288    4.4587    4.7004 N   0  0  0  0  0  0  0  0  0  0  0  0
    4.9774    4.7035    4.1095 C   0  0  0  0  0  0  0  0  0  0  0  0
    5.4046    3.9525    3.2767 O   0  0  0  0  0  0  0  0  0  0  0  0
    5.7513    5.8634    4.5048 C   0  0  0  0  0  0  0  0  0  0  0  0
    5.2205    7.1155    4.3328 N   0  0  0  0  0  0  0  0  0  0  0  0
    5.9228    8.2346    4.6956 C   0  0  0  0  0  0  0  0  0  0  0  0
    5.3987    9.3236    4.5179 O   0  0  0  0  0  0  0  0  0  0  0  0
    7.2223    8.0944    5.2599 C   0  0  0  0  0  0  0  0  0  0  0  0
    7.7522    6.8197    5.4299 C   0  0  0  0  0  0  0  0  0  0  0  0
    9.0181    6.6343    5.9763 C   0  0  0  0  0  0  0  0  0  0  0  0
    9.7626    7.7452    6.3582 C   0  0  0  0  0  0  0  0  0  0  0  0
    9.2594    9.0323    6.2012 C   0  0  0  0  0  0  0  0  0  0  0  0
    7.9916    9.1870    5.6518 C   0  0  0  0  0  0  0  0  0  0  0  0
    6.9981    5.6796    5.0433 C   0  0  0  0  0  0  0  0  0  0  0  0
    3.1740    5.3580    5.7294 C   0  0  0  0  0  0  0  0  0  0  0  0
    2.3943    6.5369    5.1618 C   0  0  0  0  0  0  0  0  0  0  0  0
    1.5887    6.1841    3.9176 C   0  0  0  0  0  0  0  0  0  0  0  0
    0.9620    4.7892    3.8537 C   0  0  0  0  0  0  0  0  0  0  0  0
    2.4330    4.1541    1.9724 C   0  0  0  0  0  0  0  0  0  0  0  0
    2.4209    2.9468    1.0593 C   0  0  0  0  0  0  0  0  0  0  0  0
  1  2  2  0
  2  3  1  0
  3  4  1  0
  4  5  2  0
  4  6  1  0
  6  7  1  0
  7  2  1  0
  6  8  1  0
  8  9  1  0
  9 10  1  0
 10 11  1  0
 11  6  1  0
  3 12  1  0
 12 13  1  0
 13 14  1  0
 14 15  1  0
 15 16  1  0
 16 17  1  0
 17 18  1  0
 18 19  1  0
 19 20  2  0
 19 21  1  0
 21 22  1  0
 22 23  1  0
 23 24  2  0
 23 25  1  0
 25 26  2  0
 26 27  1  0
 27 28  2  0
 28 29  1  0
 29 30  2  0
 30 25  1  0
 26 31  1  0
 21 31  2  0
 18 32  1  0
 32 33  1  0
 33 34  1  0
 34 35  1  0
 35 16  1  0
 16 36  1  0
 36 37  1  0
 37 14  1  0
M  CHG  1  14   1
M  END
$$$$
m_275030____14114236____14125180____14148780
     RDKit          3D

 34 39  0  0  0  0  0  0  0  0999 V2000
   -4.9625    3.8651   -4.6308 O   0  0  0  0  0  0  0  0  0  0  0  0
   -4.3404    3.8183   -3.5796 C   0  0  0  0  0  0  0  0  0  0  0  0
   -4.0947    2.5844   -3.0349 N   0  0  0  0  0  0  0  0  0  0  0  0
   -3.4045    2.4452   -1.8587 C   0  0  0  0  0  0  0  0  0  0  0  0
   -2.9339    3.5428   -1.1861 C   0  0  0  0  0  0  0  0  0  0  0  0
   -3.1696    4.8409   -1.7220 C   0  0  0  0  0  0  0  0  0  0  0  0
   -3.8716    4.9877   -2.9164 C   0  0  0  0  0  0  0  0  0  0  0  0
   -4.0944    6.2644   -3.4279 C   0  0  0  0  0  0  0  0  0  0  0  0
   -3.6335    7.4045   -2.7776 C   0  0  0  0  0  0  0  0  0  0  0  0
   -2.9319    7.2620   -1.5847 C   0  0  0  0  0  0  0  0  0  0  0  0
   -2.7111    5.9866   -1.0755 C   0  0  0  0  0  0  0  0  0  0  0  0
   -2.2118    3.3199    0.0522 C   0  0  0  0  0  0  0  0  0  0  0  0
   -2.8050    3.2848    1.0947 O   0  0  0  0  0  0  0  0  0  0  0  0
   -0.8237    3.1460    0.0310 N   0  0  0  0  0  0  0  0  0  0  0  0
   -0.1166    2.9215    1.3029 C   0  0  0  0  0  0  0  0  0  0  0  0
    1.2839    3.5183    1.2943 C   0  0  0  0  0  0  0  0  0  0  0  0
    2.0264    3.0056    2.5174 C   0  0  0  0  0  0  0  0  0  0  0  0
    2.1200    1.4943    2.4902 C   0  0  0  0  0  0  0  0  0  0  0  0
    3.2207    1.2161    3.4213 N   0  0  0  0  0  0  0  0  0  0  0  0
    3.7451   -0.1319    3.1570 C   0  0  0  0  0  0  0  0  0  0  0  0
    2.6372   -1.1546    3.3544 C   0  0  0  0  0  0  0  0  0  0  0  0
    1.8092   -1.5734    2.4294 O   0  0  0  0  0  0  0  0  0  0  0  0
    1.0100   -2.4208    2.9227 N   0  0  0  0  0  0  0  0  0  0  0  0
    1.3048   -2.5754    4.1890 C   0  0  0  0  0  0  0  0  0  0  0  0
    2.3552   -1.7601    4.4814 N   0  0  0  0  0  0  0  0  0  0  0  0
    0.5927   -3.5015    5.1619 C   0  0  0  0  0  0  0  0  0  0  0  0
    1.2633   -4.8661    5.1459 C   0  0  0  0  0  0  0  0  0  0  0  0
    2.7052   -4.7611    5.5489 C   0  0  0  0  0  0  0  0  0  0  0  0
    2.3420   -4.9629    4.1057 C   0  0  0  0  0  0  0  0  0  0  0  0
    4.2351    2.2138    3.0607 C   0  0  0  0  0  0  0  0  0  0  0  0
    3.4945    3.3904    2.4629 C   0  0  0  0  0  0  0  0  0  0  0  0
    2.0478    3.1796    0.0220 C   0  0  0  0  0  0  0  0  0  0  0  0
    1.2707    3.7785   -1.1429 C   0  0  0  0  0  0  0  0  0  0  0  0
   -0.1319    3.1993   -1.2679 C   0  0  0  0  0  0  0  0  0  0  0  0
  1  2  2  0
  2  3  1  0
  3  4  1  0
  4  5  2  0
  5  6  1  0
  6  7  2  0
  7  2  1  0
  7  8  1  0
  8  9  2  0
  9 10  1  0
 10 11  2  0
 11  6  1  0
  5 12  1  0
 12 13  2  0
 12 14  1  0
 14 15  1  0
 15 16  1  0
 16 17  1  0
 17 18  1  0
 18 19  1  0
 19 20  1  0
 20 21  1  0
 21 22  1  0
 22 23  1  0
 23 24  2  0
 24 25  1  0
 21 25  2  0
 24 26  1  0
 26 27  1  0
 27 28  1  0
 28 29  1  0
 29 27  1  0
 19 30  1  0
 30 31  1  0
 31 17  1  0
 16 32  1  0
 32 33  1  0
 33 34  1  0
 34 14  1  0
M  CHG  1  19   1
M  END
$$$$
m_275030____14114078____14125982____14147198
     RDKit          3D

 37 42  0  0  0  0  0  0  0  0999 V2000
    3.9636    5.5408   -1.4896 F   0  0  0  0  0  0  0  0  0  0  0  0
    5.1364    4.9309   -1.3378 C   0  0  0  0  0  0  0  0  0  0  0  0
    5.1880    3.7039   -0.6863 C   0  0  0  0  0  0  0  0  0  0  0  0
    4.1912    2.9548   -0.1338 N   0  0  0  0  0  0  0  0  0  0  0  0
    4.7648    1.8310    0.3832 C   0  0  0  0  0  0  0  0  0  0  0  0
    4.0516    0.7677    1.0644 C   0  0  0  0  0  0  0  0  0  0  0  0
    4.0835   -0.3504    0.6300 O   0  0  0  0  0  0  0  0  0  0  0  0
    3.3245    1.0464    2.2313 N   0  0  0  0  0  0  0  0  0  0  0  0
    2.5835    0.0105    2.9630 C   0  0  0  0  0  0  0  0  0  0  0  0
    1.1221    0.0122    2.5563 C   0  0  0  0  0  0  0  0  0  0  0  0
    0.3187   -1.0741    3.2412 C   0  0  0  0  0  0  0  0  0  0  0  0
    0.5981   -2.2710    2.4397 N   0  0  0  0  0  0  0  0  0  0  0  0
   -0.4495   -3.2728    2.6823 C   0  0  0  0  0  0  0  0  0  0  0  0
   -0.1643   -4.5149    1.8539 C   0  0  0  0  0  0  0  0  0  0  0  0
   -1.2119   -5.5166    2.0965 N   0  0  0  0  0  0  0  0  0  0  0  0
   -2.3938   -5.6236    1.3640 C   0  0  0  0  0  0  0  0  0  0  0  0
   -2.7106   -4.9008    0.4313 O   0  0  0  0  0  0  0  0  0  0  0  0
   -3.1626   -6.6828    1.8472 N   0  0  0  0  0  0  0  0  0  0  0  0
   -2.4321   -7.2825    2.9689 C   0  0  0  0  0  0  0  0  0  0  0  0
   -1.1521   -6.4856    3.0982 C   0  0  0  0  0  0  0  0  0  0  0  0
   -0.2480   -6.6550    3.9081 O   0  0  0  0  0  0  0  0  0  0  0  0
   -2.1498   -8.7691    2.9031 C   0  0  0  0  0  0  0  0  0  0  0  0
   -3.4937   -9.4172    3.1679 C   0  0  0  0  0  0  0  0  0  0  0  0
   -4.1480   -8.4751    4.1568 C   0  0  0  0  0  0  0  0  0  0  0  0
   -3.1903   -7.3067    4.2766 C   0  0  0  0  0  0  0  0  0  0  0  0
    0.5410   -1.8013    1.0495 C   0  0  0  0  0  0  0  0  0  0  0  0
    0.8656   -0.3234    1.0951 C   0  0  0  0  0  0  0  0  0  0  0  0
    0.4985    1.3720    2.8550 C   0  0  0  0  0  0  0  0  0  0  0  0
    0.8866    2.5005    1.8966 C   0  0  0  0  0  0  0  0  0  0  0  0
    2.1634    3.2742    2.2015 C   0  0  0  0  0  0  0  0  0  0  0  0
    3.2659    2.4077    2.7959 C   0  0  0  0  0  0  0  0  0  0  0  0
    6.1089    1.8580    0.1649 C   0  0  0  0  0  0  0  0  0  0  0  0
    6.3914    3.0601   -0.5246 C   0  0  0  0  0  0  0  0  0  0  0  0
    7.5640    3.6391   -1.0102 C   0  0  0  0  0  0  0  0  0  0  0  0
    7.5156    4.8690   -1.6616 C   0  0  0  0  0  0  0  0  0  0  0  0
    6.2973    5.5203   -1.8287 C   0  0  0  0  0  0  0  0  0  0  0  0
    8.9158    2.9617   -0.8493 C   0  0  0  0  0  0  0  0  0  0  0  0
  1  2  1  0
  2  3  2  0
  3  4  1  0
  4  5  1  0
  5  6  1  0
  6  7  2  0
  6  8  1  0
  8  9  1  0
  9 10  1  0
 10 11  1  0
 11 12  1  0
 12 13  1  0
 13 14  1  0
 14 15  1  0
 15 16  1  0
 16 17  2  0
 16 18  1  0
 18 19  1  0
 19 20  1  0
 20 15  1  0
 20 21  2  0
 19 22  1  0
 22 23  1  0
 23 24  1  0
 24 25  1  0
 25 19  1  0
 12 26  1  0
 26 27  1  0
 27 10  1  0
 10 28  1  0
 28 29  1  0
 29 30  1  0
 30 31  1  0
 31  8  1  0
  5 32  2  0
 32 33  1  0
 33  3  1  0
 33 34  2  0
 34 35  1  0
 35 36  2  0
 36  2  1  0
 34 37  1  0
M  CHG  1  12   1
M  END
$$$$
m_275030____14114236____14125180____14146146
     RDKit          3D

 33 37  0  0  0  0  0  0  0  0999 V2000
    3.4718    0.3781   13.7083 O   0  0  0  0  0  0  0  0  0  0  0  0
    3.6010    0.8940   12.6077 C   0  0  0  0  0  0  0  0  0  0  0  0
    3.9855    0.0913   11.5649 N   0  0  0  0  0  0  0  0  0  0  0  0
    4.1531    0.5918   10.2997 C   0  0  0  0  0  0  0  0  0  0  0  0
    3.9389    1.9194   10.0353 C   0  0  0  0  0  0  0  0  0  0  0  0
    3.5379    2.7837   11.0937 C   0  0  0  0  0  0  0  0  0  0  0  0
    3.3675    2.2802   12.3814 C   0  0  0  0  0  0  0  0  0  0  0  0
    2.9751    3.1384   13.4065 C   0  0  0  0  0  0  0  0  0  0  0  0
    2.7466    4.4919   13.1811 C   0  0  0  0  0  0  0  0  0  0  0  0
    2.9156    4.9985   11.8964 C   0  0  0  0  0  0  0  0  0  0  0  0
    3.3080    4.1402   10.8747 C   0  0  0  0  0  0  0  0  0  0  0  0
    4.1351    2.3789    8.6733 C   0  0  0  0  0  0  0  0  0  0  0  0
    5.2132    2.7717    8.3221 O   0  0  0  0  0  0  0  0  0  0  0  0
    3.0620    2.3639    7.7648 N   0  0  0  0  0  0  0  0  0  0  0  0
    3.2275    2.8224    6.3785 C   0  0  0  0  0  0  0  0  0  0  0  0
    2.2409    2.0739    5.4965 C   0  0  0  0  0  0  0  0  0  0  0  0
    2.4676    2.4015    4.0297 C   0  0  0  0  0  0  0  0  0  0  0  0
    1.2951    1.9303    3.1975 C   0  0  0  0  0  0  0  0  0  0  0  0
    1.8489    1.8489    1.8489 N   0  0  0  0  0  0  0  0  0  0  0  0
    1.0000    1.0000    1.0000 C   0  0  0  0  0  0  0  0  0  0  0  0
    1.0912    1.4729   -0.4417 C   0  0  0  0  0  0  0  0  0  0  0  0
    1.4717    2.5845   -0.6856 O   0  0  0  0  0  0  0  0  0  0  0  0
    0.7389    0.6301   -1.4627 N   0  0  0  0  0  0  0  0  0  0  0  0
    0.2732   -0.7302   -1.1642 C   0  0  0  0  0  0  0  0  0  0  0  0
    1.2731   -1.7637   -1.5962 C   0  0  0  0  0  0  0  0  0  0  0  0
    0.0345   -1.5292   -2.4130 C   0  0  0  0  0  0  0  0  0  0  0  0
    0.8271    1.0874   -2.8569 C   0  0  0  0  0  0  0  0  0  0  0  0
   -0.4320    1.8586   -3.2178 C   0  0  0  0  0  0  0  0  0  0  0  0
    3.1287    1.1599    2.0623 C   0  0  0  0  0  0  0  0  0  0  0  0
    3.5870    1.5492    3.4582 C   0  0  0  0  0  0  0  0  0  0  0  0
    0.8406    2.5324    5.8681 C   0  0  0  0  0  0  0  0  0  0  0  0
    0.6652    2.6708    7.3731 C   0  0  0  0  0  0  0  0  0  0  0  0
    1.7214    1.8952    8.1447 C   0  0  0  0  0  0  0  0  0  0  0  0
  1  2  2  0
  2  3  1  0
  3  4  1  0
  4  5  2  0
  5  6  1  0
  6  7  2  0
  7  2  1  0
  7  8  1  0
  8  9  2  0
  9 10  1  0
 10 11  2  0
 11  6  1  0
  5 12  1  0
 12 13  2  0
 12 14  1  0
 14 15  1  0
 15 16  1  0
 16 17  1  0
 17 18  1  0
 18 19  1  0
 19 20  1  0
 20 21  1  0
 21 22  2  0
 21 23  1  0
 23 24  1  0
 24 25  1  0
 25 26  1  0
 26 24  1  0
 23 27  1  0
 27 28  1  0
 19 29  1  0
 29 30  1  0
 30 17  1  0
 16 31  1  0
 31 32  1  0
 32 33  1  0
 33 14  1  0
M  CHG  1  19   1
M  END
$$$$
m_275030____14114236____14128248____14146862
     RDKit          3D

 36 40  0  0  0  0  0  0  0  0999 V2000
    2.1897    5.0999   13.9893 O   0  0  0  0  0  0  0  0  0  0  0  0
    2.1791    5.0808   12.7684 C   0  0  0  0  0  0  0  0  0  0  0  0
    0.9381    5.0750   12.1215 N   0  0  0  0  0  0  0  0  0  0  0  0
    0.8496    4.9765   10.6562 C   0  0  0  0  0  0  0  0  0  0  0  0
    1.9951    4.1527   10.0894 C   0  0  0  0  0  0  0  0  0  0  0  0
    3.3362    4.5732   10.6794 C   0  0  0  0  0  0  0  0  0  0  0  0
    3.4048    5.0374   11.9901 C   0  0  0  0  0  0  0  0  0  0  0  0
    4.6329    5.4409   12.5089 C   0  0  0  0  0  0  0  0  0  0  0  0
    5.8092    5.3897   11.7667 C   0  0  0  0  0  0  0  0  0  0  0  0
    5.7485    4.9060   10.4652 C   0  0  0  0  0  0  0  0  0  0  0  0
    4.5198    4.5126    9.9437 C   0  0  0  0  0  0  0  0  0  0  0  0
    1.9369    4.3127    8.5776 C   0  0  0  0  0  0  0  0  0  0  0  0
    1.5587    5.3454    8.0977 O   0  0  0  0  0  0  0  0  0  0  0  0
    2.3243    3.2557    7.7469 N   0  0  0  0  0  0  0  0  0  0  0  0
    2.3643    3.4744    6.2913 C   0  0  0  0  0  0  0  0  0  0  0  0
    2.0093    2.2159    5.5116 C   0  0  0  0  0  0  0  0  0  0  0  0
    2.3431    2.4537    4.0480 C   0  0  0  0  0  0  0  0  0  0  0  0
    1.8976    1.2796    3.2015 C   0  0  0  0  0  0  0  0  0  0  0  0
    1.8489    1.8489    1.8489 N   0  0  0  0  0  0  0  0  0  0  0  0
    1.0000    1.0000    1.0000 C   0  0  0  0  0  0  0  0  0  0  0  0
    1.0912    1.4729   -0.4417 C   0  0  0  0  0  0  0  0  0  0  0  0
    2.0201    2.1455   -0.7949 O   0  0  0  0  0  0  0  0  0  0  0  0
    0.1129    1.1313   -1.3378 N   0  0  0  0  0  0  0  0  0  0  0  0
    0.2011    1.5886   -2.7321 C   0  0  0  0  0  0  0  0  0  0  0  0
   -0.9998    1.0762   -3.5103 C   0  0  0  0  0  0  0  0  0  0  0  0
   -1.8302    0.4071   -2.9602 O   0  0  0  0  0  0  0  0  0  0  0  0
   -1.1373    1.3855   -4.8719 N   0  0  0  0  0  0  0  0  0  0  0  0
   -2.2400    0.9589   -5.7385 C   0  0  0  0  0  0  0  0  0  0  0  0
   -2.3640    2.0567   -6.7767 C   0  0  0  0  0  0  0  0  0  0  0  0
   -1.0411    2.8029   -6.7758 C   0  0  0  0  0  0  0  0  0  0  0  0
   -0.2030    2.1831   -5.6740 C   0  0  0  0  0  0  0  0  0  0  0  0
    1.1962    3.1485    2.0474 C   0  0  0  0  0  0  0  0  0  0  0  0
    1.4909    3.5704    3.4706 C   0  0  0  0  0  0  0  0  0  0  0  0
    2.7394    0.9872    6.0355 C   0  0  0  0  0  0  0  0  0  0  0  0
    2.3043    0.7872    7.4813 C   0  0  0  0  0  0  0  0  0  0  0  0
    2.6720    1.9675    8.3700 C   0  0  0  0  0  0  0  0  0  0  0  0
  1  2  2  0
  2  3  1  0
  3  4  1  0
  4  5  1  0
  5  6  1  0
  6  7  2  0
  7  2  1  0
  7  8  1  0
  8  9  2  0
  9 10  1  0
 10 11  2  0
 11  6  1  0
  5 12  1  0
 12 13  2  0
 12 14  1  0
 14 15  1  0
 15 16  1  0
 16 17  1  0
 17 18  1  0
 18 19  1  0
 19 20  1  0
 20 21  1  0
 21 22  2  0
 21 23  1  0
 23 24  1  0
 24 25  1  0
 25 26  2  0
 25 27  1  0
 27 28  1  0
 28 29  1  0
 29 30  1  0
 30 31  1  0
 31 27  1  0
 19 32  1  0
 32 33  1  0
 33 17  1  0
 16 34  1  0
 34 35  1  0
 35 36  1  0
 36 14  1  0
M  CHG  1  19   1
M  END
$$$$
m_275030____14114032____14126114____14146516
     RDKit          3D

 35 38  0  0  0  0  0  0  0  0999 V2000
   -0.4350    2.4463    0.1000 O   0  0  0  0  0  0  0  0  0  0  0  0
    0.3150    2.1865    1.0000 C   0  0  0  0  0  0  0  0  0  0  0  0
    1.0000    1.0000    1.0000 N   0  0  0  0  0  0  0  0  0  0  0  0
    2.3700    1.0000    1.0000 C   0  0  0  0  0  0  0  0  0  0  0  0
    2.9700    0.4039    1.8513 O   0  0  0  0  0  0  0  0  0  0  0  0
    3.1300    1.7550   -0.0783 C   0  0  0  0  0  0  0  0  0  0  0  0
    4.5570    1.8041    0.2712 N   0  0  0  0  0  0  0  0  0  0  0  0
    5.3744    1.8456   -0.9490 C   0  0  0  0  0  0  0  0  0  0  0  0
    6.7039    2.4046   -0.4704 C   0  0  0  0  0  0  0  0  0  0  0  0
    7.3349    3.2963   -1.5286 C   0  0  0  0  0  0  0  0  0  0  0  0
    7.2524    2.6692   -2.9129 C   0  0  0  0  0  0  0  0  0  0  0  0
    8.4104    1.7147   -3.1610 C   0  0  0  0  0  0  0  0  0  0  0  0
    9.6310    2.5297   -3.2247 N   0  0  0  0  0  0  0  0  0  0  0  0
   10.7327    2.1517   -4.0113 C   0  0  0  0  0  0  0  0  0  0  0  0
   10.6918    1.1392   -4.6541 O   0  0  0  0  0  0  0  0  0  0  0  0
   11.9167    2.9836   -4.0460 C   0  0  0  0  0  0  0  0  0  0  0  0
   11.8417    4.2815   -4.4814 N   0  0  0  0  0  0  0  0  0  0  0  0
   12.9531    5.0827   -4.5218 C   0  0  0  0  0  0  0  0  0  0  0  0
   14.1862    4.5809   -4.1145 C   0  0  0  0  0  0  0  0  0  0  0  0
   15.3017    5.4131   -4.1638 C   0  0  0  0  0  0  0  0  0  0  0  0
   15.2129    6.7276   -4.6074 C   0  0  0  0  0  0  0  0  0  0  0  0
   13.9725    7.2105   -5.0090 C   0  0  0  0  0  0  0  0  0  0  0  0
   12.8459    6.3963   -4.9678 C   0  0  0  0  0  0  0  0  0  0  0  0
   14.2692    3.2342   -3.6617 C   0  0  0  0  0  0  0  0  0  0  0  0
   15.3189    2.7301   -3.2912 O   0  0  0  0  0  0  0  0  0  0  0  0
   13.0995    2.4298   -3.6322 C   0  0  0  0  0  0  0  0  0  0  0  0
    9.6410    3.7576   -2.4219 C   0  0  0  0  0  0  0  0  0  0  0  0
    8.8057    3.4705   -1.1814 C   0  0  0  0  0  0  0  0  0  0  0  0
    6.3953    3.1546    0.8116 C   0  0  0  0  0  0  0  0  0  0  0  0
    4.8824    3.0905    0.8860 C   0  0  0  0  0  0  0  0  0  0  0  0
    0.4862    3.0763    2.0275 N   0  0  0  0  0  0  0  0  0  0  0  0
   -0.2488    4.3494    2.0275 C   0  0  0  0  0  0  0  0  0  0  0  0
    0.1185    5.1464    3.2686 C   0  0  0  0  0  0  0  0  0  0  0  0
   -0.2488    4.3494    4.5096 C   0  0  0  0  0  0  0  0  0  0  0  0
    0.1185    5.1464    5.7507 C   0  0  0  0  0  0  0  0  0  0  0  0
  1  2  2  0
  2  3  1  0
  3  4  1  0
  4  5  2  0
  4  6  1  0
  6  7  1  0
  7  8  1  0
  8  9  1  0
  9 10  1  0
 10 11  1  0
 11 12  1  0
 12 13  1  0
 13 14  1  0
 14 15  2  0
 14 16  1  0
 16 17  1  0
 17 18  1  0
 18 19  2  0
 19 20  1  0
 20 21  2  0
 21 22  1  0
 22 23  2  0
 23 18  1  0
 19 24  1  0
 24 25  2  0
 24 26  1  0
 16 26  2  0
 13 27  1  0
 27 28  1  0
 28 10  1  0
  9 29  1  0
 29 30  1  0
 30  7  1  0
  2 31  1  0
 31 32  1  0
 32 33  1  0
 33 34  1  0
 34 35  1  0
M  CHG  1   7   1
M  END
$$$$
m_275030____14114032____14126114____14146794
     RDKit          3D

 38 42  0  0  0  0  0  0  0  0999 V2000
    5.7871    2.7409    8.8500 O   0  0  0  0  0  0  0  0  0  0  0  0
    4.9728    1.8736    8.6930 C   0  0  0  0  0  0  0  0  0  0  0  0
    4.0067    1.9918    7.6791 N   0  0  0  0  0  0  0  0  0  0  0  0
    3.9582    3.1601    6.7898 C   0  0  0  0  0  0  0  0  0  0  0  0
    2.5030    3.3548    6.3926 C   0  0  0  0  0  0  0  0  0  0  0  0
    2.0092    2.2158    5.5121 C   0  0  0  0  0  0  0  0  0  0  0  0
    2.3431    2.4537    4.0480 C   0  0  0  0  0  0  0  0  0  0  0  0
    1.8976    1.2796    3.2015 C   0  0  0  0  0  0  0  0  0  0  0  0
    1.8489    1.8489    1.8489 N   0  0  0  0  0  0  0  0  0  0  0  0
    1.0000    1.0000    1.0000 C   0  0  0  0  0  0  0  0  0  0  0  0
    1.0912    1.4729   -0.4417 C   0  0  0  0  0  0  0  0  0  0  0  0
    2.1468    1.8221   -0.8929 O   0  0  0  0  0  0  0  0  0  0  0  0
   -0.0318    1.5005   -1.2259 N   0  0  0  0  0  0  0  0  0  0  0  0
   -1.3250    1.0727   -0.6731 C   0  0  0  0  0  0  0  0  0  0  0  0
   -2.1876    2.2937   -0.3987 C   0  0  0  0  0  0  0  0  0  0  0  0
   -2.0034    3.3086   -1.0120 O   0  0  0  0  0  0  0  0  0  0  0  0
   -3.2012    2.2342    0.5738 N   0  0  0  0  0  0  0  0  0  0  0  0
   -4.5506    2.7630    0.3239 C   0  0  0  0  0  0  0  0  0  0  0  0
   -5.5626    1.9615    1.1275 C   0  0  0  0  0  0  0  0  0  0  0  0
   -5.3246    2.1379    2.6182 C   0  0  0  0  0  0  0  0  0  0  0  0
   -3.8480    2.3533    2.9129 C   0  0  0  0  0  0  0  0  0  0  0  0
   -2.9675    1.6399    1.8980 C   0  0  0  0  0  0  0  0  0  0  0  0
   -2.0291    0.1691   -1.6722 C   0  0  0  0  0  0  0  0  0  0  0  0
    1.1962    3.1485    2.0474 C   0  0  0  0  0  0  0  0  0  0  0  0
    1.4909    3.5704    3.4706 C   0  0  0  0  0  0  0  0  0  0  0  0
    2.7149    0.9430    5.9550 C   0  0  0  0  0  0  0  0  0  0  0  0
    2.9956    0.9535    7.4517 C   0  0  0  0  0  0  0  0  0  0  0  0
    4.9856    0.7056    9.5479 C   0  0  0  0  0  0  0  0  0  0  0  0
    3.8965    0.3991   10.3223 N   0  0  0  0  0  0  0  0  0  0  0  0
    3.8922   -0.7023   11.1382 C   0  0  0  0  0  0  0  0  0  0  0  0
    5.0079   -1.5334   11.1891 C   0  0  0  0  0  0  0  0  0  0  0  0
    4.9810   -2.6469   12.0249 C   0  0  0  0  0  0  0  0  0  0  0  0
    3.8706   -2.9471   12.8055 C   0  0  0  0  0  0  0  0  0  0  0  0
    2.7657   -2.1056   12.7401 C   0  0  0  0  0  0  0  0  0  0  0  0
    2.7718   -0.9884   11.9121 C   0  0  0  0  0  0  0  0  0  0  0  0
    6.1410   -1.2195   10.3871 C   0  0  0  0  0  0  0  0  0  0  0  0
    7.1529   -1.9045   10.3841 O   0  0  0  0  0  0  0  0  0  0  0  0
    6.1143   -0.0709    9.5526 C   0  0  0  0  0  0  0  0  0  0  0  0
  1  2  2  0
  2  3  1  0
  3  4  1  0
  4  5  1  0
  5  6  1  0
  6  7  1  0
  7  8  1  0
  8  9  1  0
  9 10  1  0
 10 11  1  0
 11 12  2  0
 11 13  1  0
 13 14  1  0
 14 15  1  0
 15 16  2  0
 15 17  1  0
 17 18  1  0
 18 19  1  0
 19 20  1  0
 20 21  1  0
 21 22  1  0
 22 17  1  0
 14 23  1  0
  9 24  1  0
 24 25  1  0
 25  7  1  0
  6 26  1  0
 26 27  1  0
 27  3  1  0
  2 28  1  0
 28 29  1  0
 29 30  1  0
 30 31  2  0
 31 32  1  0
 32 33  2  0
 33 34  1  0
 34 35  2  0
 35 30  1  0
 31 36  1  0
 36 37  2  0
 36 38  1  0
 28 38  2  0
M  CHG  1   9   1
M  END
$$$$
m_275030____14114236____14125180____14146632
     RDKit          3D

 33 37  0  0  0  0  0  0  0  0999 V2000
   -4.9625    3.8651   -4.6308 O   0  0  0  0  0  0  0  0  0  0  0  0
   -4.3404    3.8183   -3.5796 C   0  0  0  0  0  0  0  0  0  0  0  0
   -4.0947    2.5844   -3.0349 N   0  0  0  0  0  0  0  0  0  0  0  0
   -3.4045    2.4452   -1.8587 C   0  0  0  0  0  0  0  0  0  0  0  0
   -2.9339    3.5428   -1.1861 C   0  0  0  0  0  0  0  0  0  0  0  0
   -3.1696    4.8409   -1.7220 C   0  0  0  0  0  0  0  0  0  0  0  0
   -3.8716    4.9877   -2.9164 C   0  0  0  0  0  0  0  0  0  0  0  0
   -4.0944    6.2644   -3.4279 C   0  0  0  0  0  0  0  0  0  0  0  0
   -3.6335    7.4045   -2.7776 C   0  0  0  0  0  0  0  0  0  0  0  0
   -2.9319    7.2620   -1.5847 C   0  0  0  0  0  0  0  0  0  0  0  0
   -2.7111    5.9866   -1.0755 C   0  0  0  0  0  0  0  0  0  0  0  0
   -2.2118    3.3199    0.0522 C   0  0  0  0  0  0  0  0  0  0  0  0
   -2.8050    3.2848    1.0947 O   0  0  0  0  0  0  0  0  0  0  0  0
   -0.8237    3.1460    0.0310 N   0  0  0  0  0  0  0  0  0  0  0  0
   -0.1166    2.9215    1.3029 C   0  0  0  0  0  0  0  0  0  0  0  0
    1.2839    3.5183    1.2943 C   0  0  0  0  0  0  0  0  0  0  0  0
    2.0264    3.0056    2.5174 C   0  0  0  0  0  0  0  0  0  0  0  0
    2.1200    1.4943    2.4902 C   0  0  0  0  0  0  0  0  0  0  0  0
    3.2207    1.2161    3.4213 N   0  0  0  0  0  0  0  0  0  0  0  0
    3.7451   -0.1319    3.1570 C   0  0  0  0  0  0  0  0  0  0  0  0
    4.8858   -0.4290    4.1168 C   0  0  0  0  0  0  0  0  0  0  0  0
    5.4120   -1.7817    3.8515 N   0  0  0  0  0  0  0  0  0  0  0  0
    6.4389   -2.0664    2.9589 C   0  0  0  0  0  0  0  0  0  0  0  0
    6.9849   -1.2357    2.2513 O   0  0  0  0  0  0  0  0  0  0  0  0
    6.7941   -3.5385    2.9938 C   0  0  0  0  0  0  0  0  0  0  0  0
    5.6925   -4.1603    3.8293 C   0  0  0  0  0  0  0  0  0  0  0  0
    4.9666   -2.9753    4.4386 C   0  0  0  0  0  0  0  0  0  0  0  0
    4.1063   -3.0647    5.3073 O   0  0  0  0  0  0  0  0  0  0  0  0
    4.2351    2.2138    3.0607 C   0  0  0  0  0  0  0  0  0  0  0  0
    3.4945    3.3904    2.4629 C   0  0  0  0  0  0  0  0  0  0  0  0
    2.0478    3.1796    0.0220 C   0  0  0  0  0  0  0  0  0  0  0  0
    1.2707    3.7785   -1.1429 C   0  0  0  0  0  0  0  0  0  0  0  0
   -0.1319    3.1993   -1.2679 C   0  0  0  0  0  0  0  0  0  0  0  0
  1  2  2  0
  2  3  1  0
  3  4  1  0
  4  5  2  0
  5  6  1  0
  6  7  2  0
  7  2  1  0
  7  8  1  0
  8  9  2  0
  9 10  1  0
 10 11  2  0
 11  6  1  0
  5 12  1  0
 12 13  2  0
 12 14  1  0
 14 15  1  0
 15 16  1  0
 16 17  1  0
 17 18  1  0
 18 19  1  0
 19 20  1  0
 20 21  1  0
 21 22  1  0
 22 23  1  0
 23 24  2  0
 23 25  1  0
 25 26  1  0
 26 27  1  0
 27 22  1  0
 27 28  2  0
 19 29  1  0
 29 30  1  0
 30 17  1  0
 16 31  1  0
 31 32  1  0
 32 33  1  0
 33 14  1  0
M  CHG  1  19   1
M  END
$$$$
m_275030____14114196____14123524____14147198
     RDKit          3D

 36 41  0  0  0  0  0  0  0  0999 V2000
   -5.3139    0.5919    1.7897 O   0  0  0  0  0  0  0  0  0  0  0  0
   -5.7284    1.7250    1.9822 C   0  0  0  0  0  0  0  0  0  0  0  0
   -5.0174    2.7422    2.6183 N   0  0  0  0  0  0  0  0  0  0  0  0
   -5.7653    3.9183    2.6751 C   0  0  0  0  0  0  0  0  0  0  0  0
   -5.4234    4.9872    3.1678 O   0  0  0  0  0  0  0  0  0  0  0  0
   -7.0839    3.5935    2.0075 C   0  0  0  0  0  0  0  0  0  0  0  0
   -6.9885    2.1873    1.6012 N   0  0  0  0  0  0  0  0  0  0  0  0
   -8.2552    3.9894    2.8822 C   0  0  0  0  0  0  0  0  0  0  0  0
   -9.4459    3.9688    1.9451 C   0  0  0  0  0  0  0  0  0  0  0  0
   -8.8628    4.4360    0.6278 C   0  0  0  0  0  0  0  0  0  0  0  0
   -7.3736    4.5589    0.8807 C   0  0  0  0  0  0  0  0  0  0  0  0
   -3.6573    2.6025    3.1569 C   0  0  0  0  0  0  0  0  0  0  0  0
   -2.6466    2.9648    2.0809 C   0  0  0  0  0  0  0  0  0  0  0  0
   -1.2870    2.8251    2.6192 N   0  0  0  0  0  0  0  0  0  0  0  0
   -0.3500    3.1824    1.5536 C   0  0  0  0  0  0  0  0  0  0  0  0
    0.9259    2.4201    1.8882 C   0  0  0  0  0  0  0  0  0  0  0  0
    0.5317    1.3809    2.9250 C   0  0  0  0  0  0  0  0  0  0  0  0
   -0.9806    1.4088    2.8317 C   0  0  0  0  0  0  0  0  0  0  0  0
    1.1165    0.0147    2.5972 C   0  0  0  0  0  0  0  0  0  0  0  0
    2.5893    0.0277    2.9739 C   0  0  0  0  0  0  0  0  0  0  0  0
    3.3344    1.0727    2.2557 N   0  0  0  0  0  0  0  0  0  0  0  0
    4.0546    0.7944    1.0865 C   0  0  0  0  0  0  0  0  0  0  0  0
    4.8257    1.6036    0.6499 O   0  0  0  0  0  0  0  0  0  0  0  0
    3.8682   -0.4716    0.4040 C   0  0  0  0  0  0  0  0  0  0  0  0
    4.8463   -1.3946    0.1766 N   0  0  0  0  0  0  0  0  0  0  0  0
    4.2770   -2.4403   -0.4868 C   0  0  0  0  0  0  0  0  0  0  0  0
    4.9759   -3.6358   -0.9179 C   0  0  0  0  0  0  0  0  0  0  0  0
    4.3118   -4.8580   -0.9236 C   0  0  0  0  0  0  0  0  0  0  0  0
    4.9862   -6.0023   -1.3370 C   0  0  0  0  0  0  0  0  0  0  0  0
    6.3143   -5.9189   -1.7418 C   0  0  0  0  0  0  0  0  0  0  0  0
    6.9674   -4.6926   -1.7324 C   0  0  0  0  0  0  0  0  0  0  0  0
    6.3043   -3.5412   -1.3206 C   0  0  0  0  0  0  0  0  0  0  0  0
    2.9515   -2.1909   -0.6824 C   0  0  0  0  0  0  0  0  0  0  0  0
    2.6895   -0.9251   -0.1091 C   0  0  0  0  0  0  0  0  0  0  0  0
    3.2798    2.4275    2.8316 C   0  0  0  0  0  0  0  0  0  0  0  0
    2.1447    3.2569    2.2479 C   0  0  0  0  0  0  0  0  0  0  0  0
  1  2  2  0
  2  3  1  0
  3  4  1  0
  4  5  2  0
  4  6  1  0
  6  7  1  0
  7  2  1  0
  6  8  1  0
  8  9  1  0
  9 10  1  0
 10 11  1  0
 11  6  1  0
  3 12  1  0
 12 13  1  0
 13 14  1  0
 14 15  1  0
 15 16  1  0
 16 17  1  0
 17 18  1  0
 18 14  1  0
 17 19  1  0
 19 20  1  0
 20 21  1  0
 21 22  1  0
 22 23  2  0
 22 24  1  0
 24 25  1  0
 25 26  1  0
 26 27  1  0
 27 28  2  0
 28 29  1  0
 29 30  2  0
 30 31  1  0
 31 32  2  0
 32 27  1  0
 26 33  2  0
 33 34  1  0
 24 34  2  0
 21 35  1  0
 35 36  1  0
 36 16  1  0
M  CHG  1  14   1
M  END
$$$$
s_22____4971012____138882
     RDKit          3D

 32 35  0  0  0  0  0  0  0  0999 V2000
    1.2913   -0.5676    4.2455 O   0  0  0  0  0  0  0  0  0  0  0  0
    2.3665   -0.0710    4.4388 C   0  0  0  0  0  0  0  0  0  0  0  0
    3.1762   -0.5880    5.3294 O   0  0  0  0  0  0  0  0  0  0  0  0
    2.7816   -1.7361    6.0660 C   0  0  0  0  0  0  0  0  0  0  0  0
    1.5202   -1.4234    6.8543 C   0  0  0  0  0  0  0  0  0  0  0  0
    2.5087   -2.8839    5.1076 C   0  0  0  0  0  0  0  0  0  0  0  0
    3.8935   -2.1299    7.0246 C   0  0  0  0  0  0  0  0  0  0  0  0
    2.7553    1.0603    3.7129 N   0  0  0  0  0  0  0  0  0  0  0  0
    4.0808    1.6419    3.9769 C   0  0  0  0  0  0  0  0  0  0  0  0
    4.0751    3.1516    3.7908 C   0  0  0  0  0  0  0  0  0  0  0  0
    3.3824    3.5502    2.5542 N   0  0  0  0  0  0  0  0  0  0  0  0
    3.3997    5.0201    2.5065 C   0  0  0  0  0  0  0  0  0  0  0  0
    4.8248    5.5478    2.4967 C   0  0  0  0  0  0  0  0  0  0  0  0
    4.7825    7.0041    2.3002 N   0  0  0  0  0  0  0  0  0  0  0  0
    5.8353    7.6858    1.6674 C   0  0  0  0  0  0  0  0  0  0  0  0
    6.7932    7.0787    1.2751 O   0  0  0  0  0  0  0  0  0  0  0  0
    5.7646    9.1204    1.4885 C   0  0  0  0  0  0  0  0  0  0  0  0
    4.7459    9.6809    0.7621 N   0  0  0  0  0  0  0  0  0  0  0  0
    4.6645   11.0373    0.5819 C   0  0  0  0  0  0  0  0  0  0  0  0
    5.6274   11.8716    1.1431 C   0  0  0  0  0  0  0  0  0  0  0  0
    5.5243   13.2465    0.9473 C   0  0  0  0  0  0  0  0  0  0  0  0
    4.4865   13.8029    0.2085 C   0  0  0  0  0  0  0  0  0  0  0  0
    3.5342   12.9532   -0.3432 C   0  0  0  0  0  0  0  0  0  0  0  0
    3.6184   11.5773   -0.1598 C   0  0  0  0  0  0  0  0  0  0  0  0
    6.6869   11.2945    1.8981 C   0  0  0  0  0  0  0  0  0  0  0  0
    7.5652   11.9674    2.4168 O   0  0  0  0  0  0  0  0  0  0  0  0
    6.7433    9.8856    2.0661 C   0  0  0  0  0  0  0  0  0  0  0  0
    3.5909    7.7096    2.7970 C   0  0  0  0  0  0  0  0  0  0  0  0
    3.0591    6.9980    4.0338 C   0  0  0  0  0  0  0  0  0  0  0  0
    2.6877    5.5493    3.7432 C   0  0  0  0  0  0  0  0  0  0  0  0
    1.9698    3.1393    2.6183 C   0  0  0  0  0  0  0  0  0  0  0  0
    1.8216    1.6287    2.7272 C   0  0  0  0  0  0  0  0  0  0  0  0
  1  2  2  0
  2  3  1  0
  3  4  1  0
  4  5  1  0
  4  6  1  0
  4  7  1  0
  2  8  1  0
  8  9  1  0
  9 10  1  0
 10 11  1  0
 11 12  1  0
 12 13  1  0
 13 14  1  0
 14 15  1  0
 15 16  2  0
 15 17  1  0
 17 18  1  0
 18 19  1  0
 19 20  2  0
 20 21  1  0
 21 22  2  0
 22 23  1  0
 23 24  2  0
 24 19  1  0
 20 25  1  0
 25 26  2  0
 25 27  1  0
 17 27  2  0
 14 28  1  0
 28 29  1  0
 29 30  1  0
 30 12  1  0
 11 31  1  0
 31 32  1  0
 32  8  1  0
M  CHG  1  11   1
M  END
$$$$
m_275030____14114236____14127500____14147198
     RDKit          3D

 37 42  0  0  0  0  0  0  0  0999 V2000
   -4.9460    4.4153   -4.6701 F   0  0  0  0  0  0  0  0  0  0  0  0
   -4.3017    4.0988   -3.5487 C   0  0  0  0  0  0  0  0  0  0  0  0
   -4.1409    2.7782   -3.1340 C   0  0  0  0  0  0  0  0  0  0  0  0
   -3.4566    2.4991   -1.9529 C   0  0  0  0  0  0  0  0  0  0  0  0
   -2.9345    3.5430   -1.1872 C   0  0  0  0  0  0  0  0  0  0  0  0
   -3.0968    4.8602   -1.6037 C   0  0  0  0  0  0  0  0  0  0  0  0
   -3.7804    5.1379   -2.7840 C   0  0  0  0  0  0  0  0  0  0  0  0
   -2.2118    3.3199    0.0522 C   0  0  0  0  0  0  0  0  0  0  0  0
   -2.8050    3.2848    1.0947 O   0  0  0  0  0  0  0  0  0  0  0  0
   -0.8237    3.1460    0.0310 N   0  0  0  0  0  0  0  0  0  0  0  0
   -0.1166    2.9215    1.3029 C   0  0  0  0  0  0  0  0  0  0  0  0
    1.2839    3.5183    1.2943 C   0  0  0  0  0  0  0  0  0  0  0  0
    2.0264    3.0056    2.5174 C   0  0  0  0  0  0  0  0  0  0  0  0
    2.1200    1.4943    2.4902 C   0  0  0  0  0  0  0  0  0  0  0  0
    3.2207    1.2161    3.4213 N   0  0  0  0  0  0  0  0  0  0  0  0
    3.7451   -0.1319    3.1570 C   0  0  0  0  0  0  0  0  0  0  0  0
    4.8858   -0.4290    4.1168 C   0  0  0  0  0  0  0  0  0  0  0  0
    5.4099   -1.7763    3.8526 N   0  0  0  0  0  0  0  0  0  0  0  0
    6.4397   -2.0669    2.9582 C   0  0  0  0  0  0  0  0  0  0  0  0
    7.0355   -1.2433    2.2805 O   0  0  0  0  0  0  0  0  0  0  0  0
    6.6970   -3.4382    2.9532 N   0  0  0  0  0  0  0  0  0  0  0  0
    5.7630   -4.0658    3.8941 C   0  0  0  0  0  0  0  0  0  0  0  0
    4.9347   -2.9356    4.4657 C   0  0  0  0  0  0  0  0  0  0  0  0
    4.0371   -3.0165    5.2963 O   0  0  0  0  0  0  0  0  0  0  0  0
    6.3517   -4.9262    4.9928 C   0  0  0  0  0  0  0  0  0  0  0  0
    6.7993   -6.1870    4.2815 C   0  0  0  0  0  0  0  0  0  0  0  0
    5.7569   -6.3663    3.1976 C   0  0  0  0  0  0  0  0  0  0  0  0
    4.8798   -5.1340    3.2905 C   0  0  0  0  0  0  0  0  0  0  0  0
    4.2351    2.2138    3.0607 C   0  0  0  0  0  0  0  0  0  0  0  0
    3.4945    3.3904    2.4629 C   0  0  0  0  0  0  0  0  0  0  0  0
    2.0478    3.1796    0.0220 C   0  0  0  0  0  0  0  0  0  0  0  0
    1.2707    3.7785   -1.1429 C   0  0  0  0  0  0  0  0  0  0  0  0
   -0.1319    3.1993   -1.2679 C   0  0  0  0  0  0  0  0  0  0  0  0
   -3.3117    1.1667   -1.5653 C   0  0  0  0  0  0  0  0  0  0  0  0
   -3.8254    0.1135   -2.3144 C   0  0  0  0  0  0  0  0  0  0  0  0
   -4.5080    0.3956   -3.4929 C   0  0  0  0  0  0  0  0  0  0  0  0
   -4.6552    1.7221   -3.8847 C   0  0  0  0  0  0  0  0  0  0  0  0
  1  2  1  0
  2  3  2  0
  3  4  1  0
  4  5  2  0
  5  6  1  0
  6  7  2  0
  7  2  1  0
  5  8  1  0
  8  9  2  0
  8 10  1  0
 10 11  1  0
 11 12  1  0
 12 13  1  0
 13 14  1  0
 14 15  1  0
 15 16  1  0
 16 17  1  0
 17 18  1  0
 18 19  1  0
 19 20  2  0
 19 21  1  0
 21 22  1  0
 22 23  1  0
 23 18  1  0
 23 24  2  0
 22 25  1  0
 25 26  1  0
 26 27  1  0
 27 28  1  0
 28 22  1  0
 15 29  1  0
 29 30  1  0
 30 13  1  0
 12 31  1  0
 31 32  1  0
 32 33  1  0
 33 10  1  0
  4 34  1  0
 34 35  2  0
 35 36  1  0
 36 37  2  0
 37  3  1  0
M  CHG  1  15   1
M  END
$$$$
m_275030____14114218____14128248____14147198
     RDKit          3D

 37 42  0  0  0  0  0  0  0  0999 V2000
   -1.7410    1.8242   -1.1534 O   0  0  0  0  0  0  0  0  0  0  0  0
   -1.0990    0.8734   -1.5734 C   0  0  0  0  0  0  0  0  0  0  0  0
    0.2435    0.6238   -1.2903 N   0  0  0  0  0  0  0  0  0  0  0  0
    0.6804   -0.5438   -1.9160 C   0  0  0  0  0  0  0  0  0  0  0  0
    1.8029   -1.0333   -1.8642 O   0  0  0  0  0  0  0  0  0  0  0  0
   -0.5188   -1.0717   -2.6730 C   0  0  0  0  0  0  0  0  0  0  0  0
   -1.6039   -0.1194   -2.4136 N   0  0  0  0  0  0  0  0  0  0  0  0
   -0.1731   -1.3589   -4.1194 C   0  0  0  0  0  0  0  0  0  0  0  0
   -1.3187   -2.2184   -4.6145 C   0  0  0  0  0  0  0  0  0  0  0  0
   -1.6894   -3.0418   -3.3986 C   0  0  0  0  0  0  0  0  0  0  0  0
   -0.8230   -2.4994   -2.2797 C   0  0  0  0  0  0  0  0  0  0  0  0
    1.0920    1.4723   -0.4418 C   0  0  0  0  0  0  0  0  0  0  0  0
    1.0000    1.0000    1.0000 C   0  0  0  0  0  0  0  0  0  0  0  0
    1.8484    1.8484    1.8484 N   0  0  0  0  0  0  0  0  0  0  0  0
    1.3387    3.2290    1.8701 C   0  0  0  0  0  0  0  0  0  0  0  0
    2.1595    4.1201    2.7930 C   0  0  0  0  0  0  0  0  0  0  0  0
    2.2546    3.5869    4.2133 C   0  0  0  0  0  0  0  0  0  0  0  0
    2.8572    2.1972    4.0521 C   0  0  0  0  0  0  0  0  0  0  0  0
    2.0090    1.2703    3.1920 C   0  0  0  0  0  0  0  0  0  0  0  0
    0.8688    3.6056    4.8495 C   0  0  0  0  0  0  0  0  0  0  0  0
    0.8258    3.0385    6.2642 C   0  0  0  0  0  0  0  0  0  0  0  0
    1.8586    3.7016    7.0766 N   0  0  0  0  0  0  0  0  0  0  0  0
    1.5679    3.9913    8.4142 C   0  0  0  0  0  0  0  0  0  0  0  0
    0.5341    3.6203    8.8975 O   0  0  0  0  0  0  0  0  0  0  0  0
    2.5616    4.7759    9.2551 C   0  0  0  0  0  0  0  0  0  0  0  0
    3.5670    3.8916    9.9798 C   0  0  0  0  0  0  0  0  0  0  0  0
    4.1553    4.3318   11.1653 C   0  0  0  0  0  0  0  0  0  0  0  0
    5.0609    3.4954   11.8118 C   0  0  0  0  0  0  0  0  0  0  0  0
    5.4015    2.2422   11.3122 C   0  0  0  0  0  0  0  0  0  0  0  0
    4.8196    1.8084   10.1258 C   0  0  0  0  0  0  0  0  0  0  0  0
    3.9132    2.6390    9.4759 C   0  0  0  0  0  0  0  0  0  0  0  0
    3.8029    5.6472   11.6663 C   0  0  0  0  0  0  0  0  0  0  0  0
    4.5142    6.2707   12.4383 O   0  0  0  0  0  0  0  0  0  0  0  0
    2.6126    6.2374   11.2313 N   0  0  0  0  0  0  0  0  0  0  0  0
    1.7385    5.5849   10.2451 C   0  0  0  0  0  0  0  0  0  0  0  0
    3.1775    4.0872    6.5426 C   0  0  0  0  0  0  0  0  0  0  0  0
    3.1237    4.4963    5.0731 C   0  0  0  0  0  0  0  0  0  0  0  0
  1  2  2  0
  2  3  1  0
  3  4  1  0
  4  5  2  0
  4  6  1  0
  6  7  1  0
  7  2  1  0
  6  8  1  0
  8  9  1  0
  9 10  1  0
 10 11  1  0
 11  6  1  0
  3 12  1  0
 12 13  1  0
 13 14  1  0
 14 15  1  0
 15 16  1  0
 16 17  1  0
 17 18  1  0
 18 19  1  0
 19 14  1  0
 17 20  1  0
 20 21  1  0
 21 22  1  0
 22 23  1  0
 23 24  2  0
 23 25  1  0
 25 26  1  0
 26 27  1  0
 27 28  2  0
 28 29  1  0
 29 30  2  0
 30 31  1  0
 31 26  2  0
 27 32  1  0
 32 33  2  0
 32 34  1  0
 34 35  1  0
 35 25  1  0
 22 36  1  0
 36 37  1  0
 37 17  1  0
M  CHG  1  14   1
M  END
$$$$
m_275030____14114236____14125180____14147726
     RDKit          3D

 38 43  0  0  0  0  0  0  0  0999 V2000
    6.2454    1.4988    7.5429 O   0  0  0  0  0  0  0  0  0  0  0  0
    5.2665    0.9696    7.9921 C   0  0  0  0  0  0  0  0  0  0  0  0
    4.0173    1.1640    7.3767 N   0  0  0  0  0  0  0  0  0  0  0  0
    3.8763    2.0088    6.1827 C   0  0  0  0  0  0  0  0  0  0  0  0
    2.7044    1.4980    5.3598 C   0  0  0  0  0  0  0  0  0  0  0  0
    2.6027    2.2443    4.0383 C   0  0  0  0  0  0  0  0  0  0  0  0
    1.3916    1.7854    3.2435 C   0  0  0  0  0  0  0  0  0  0  0  0
    1.8487    1.8487    1.8487 N   0  0  0  0  0  0  0  0  0  0  0  0
    1.0000    1.0000    1.0000 C   0  0  0  0  0  0  0  0  0  0  0  0
    1.0912    1.4729   -0.4417 C   0  0  0  0  0  0  0  0  0  0  0  0
    1.1163    2.6472   -0.6875 O   0  0  0  0  0  0  0  0  0  0  0  0
    1.1447    0.5585   -1.4605 N   0  0  0  0  0  0  0  0  0  0  0  0
    1.6398    0.9365   -2.7162 C   0  0  0  0  0  0  0  0  0  0  0  0
    2.9475    1.0593   -3.0740 N   0  0  0  0  0  0  0  0  0  0  0  0
    3.0446    1.4399   -4.3331 N   0  0  0  0  0  0  0  0  0  0  0  0
    1.8399    1.5783   -4.8439 C   0  0  0  0  0  0  0  0  0  0  0  0
    0.9136    1.2592   -3.8240 C   0  0  0  0  0  0  0  0  0  0  0  0
    4.0788    0.8041   -2.1700 C   0  0  0  0  0  0  0  0  0  0  0  0
    5.3223    0.3976   -2.9321 C   0  0  0  0  0  0  0  0  0  0  0  0
    6.4522    0.6903   -1.9652 C   0  0  0  0  0  0  0  0  0  0  0  0
    5.9632    1.7890   -1.0377 C   0  0  0  0  0  0  0  0  0  0  0  0
    4.5489    2.0776   -1.5053 C   0  0  0  0  0  0  0  0  0  0  0  0
    3.1906    1.2768    1.9536 C   0  0  0  0  0  0  0  0  0  0  0  0
    3.7998    1.9985    3.1395 C   0  0  0  0  0  0  0  0  0  0  0  0
    1.4311    1.7617    6.1460 C   0  0  0  0  0  0  0  0  0  0  0  0
    1.5993    1.4533    7.6263 C   0  0  0  0  0  0  0  0  0  0  0  0
    2.7876    0.5411    7.8880 C   0  0  0  0  0  0  0  0  0  0  0  0
    5.3720    0.1293    9.1699 C   0  0  0  0  0  0  0  0  0  0  0  0
    5.2334    0.6326   10.4949 C   0  0  0  0  0  0  0  0  0  0  0  0
    5.3466   -0.2273   11.5851 C   0  0  0  0  0  0  0  0  0  0  0  0
    5.2087    0.2802   12.8754 C   0  0  0  0  0  0  0  0  0  0  0  0
    4.9594    1.6285   13.1091 C   0  0  0  0  0  0  0  0  0  0  0  0
    4.8455    2.4904   12.0229 C   0  0  0  0  0  0  0  0  0  0  0  0
    4.9841    1.9819   10.7357 C   0  0  0  0  0  0  0  0  0  0  0  0
    5.6004   -1.6070   11.3416 C   0  0  0  0  0  0  0  0  0  0  0  0
    5.7118   -2.4229   12.2449 O   0  0  0  0  0  0  0  0  0  0  0  0
    5.7276   -2.0566   10.0527 N   0  0  0  0  0  0  0  0  0  0  0  0
    5.6166   -1.2063    8.9832 C   0  0  0  0  0  0  0  0  0  0  0  0
  1  2  2  0
  2  3  1  0
  3  4  1  0
  4  5  1  0
  5  6  1  0
  6  7  1  0
  7  8  1  0
  8  9  1  0
  9 10  1  0
 10 11  2  0
 10 12  1  0
 12 13  1  0
 13 14  1  0
 14 15  1  0
 15 16  2  0
 16 17  1  0
 13 17  2  0
 14 18  1  0
 18 19  1  0
 19 20  1  0
 20 21  1  0
 21 22  1  0
 22 18  1  0
  8 23  1  0
 23 24  1  0
 24  6  1  0
  5 25  1  0
 25 26  1  0
 26 27  1  0
 27  3  1  0
  2 28  1  0
 28 29  1  0
 29 30  1  0
 30 31  2  0
 31 32  1  0
 32 33  2  0
 33 34  1  0
 34 29  2  0
 30 35  1  0
 35 36  2  0
 35 37  1  0
 37 38  1  0
 28 38  2  0
M  CHG  1   8   1
M  END
$$$$
m_275030____14114032____14127584____14146862
     RDKit          3D

 36 40  0  0  0  0  0  0  0  0999 V2000
    1.6884   15.5684    1.5222 F   0  0  0  0  0  0  0  0  0  0  0  0
    2.4548   14.6028    1.0231 C   0  0  0  0  0  0  0  0  0  0  0  0
    2.6647   13.4023    1.6988 C   0  0  0  0  0  0  0  0  0  0  0  0
    3.4698   12.3888    1.1827 C   0  0  0  0  0  0  0  0  0  0  0  0
    4.0679   12.6093   -0.0336 C   0  0  0  0  0  0  0  0  0  0  0  0
    4.8095   11.5097   -0.3465 N   0  0  0  0  0  0  0  0  0  0  0  0
    4.7103   10.5758    0.6404 C   0  0  0  0  0  0  0  0  0  0  0  0
    3.8890   11.1016    1.5903 C   0  0  0  0  0  0  0  0  0  0  0  0
    3.4897   10.4075    2.8837 C   0  0  0  0  0  0  0  0  0  0  0  0
    2.2236    9.5983    2.6544 C   0  0  0  0  0  0  0  0  0  0  0  0
    1.1491   10.1031    2.8289 O   0  0  0  0  0  0  0  0  0  0  0  0
    2.3093    8.2926    2.2487 N   0  0  0  0  0  0  0  0  0  0  0  0
    1.0589    7.5448    2.0383 C   0  0  0  0  0  0  0  0  0  0  0  0
    1.2171    6.0664    2.3657 C   0  0  0  0  0  0  0  0  0  0  0  0
    2.4886    5.4771    1.7714 C   0  0  0  0  0  0  0  0  0  0  0  0
    2.5864    4.0302    2.2281 C   0  0  0  0  0  0  0  0  0  0  0  0
    1.3851    3.2389    1.7547 C   0  0  0  0  0  0  0  0  0  0  0  0
    1.8489    1.8489    1.8489 N   0  0  0  0  0  0  0  0  0  0  0  0
    1.0000    1.0000    1.0000 C   0  0  0  0  0  0  0  0  0  0  0  0
    1.0912    1.4729   -0.4417 C   0  0  0  0  0  0  0  0  0  0  0  0
    0.3256    2.3014   -0.8509 O   0  0  0  0  0  0  0  0  0  0  0  0
    2.0474    0.9533   -1.2738 N   0  0  0  0  0  0  0  0  0  0  0  0
    2.1356    1.4107   -2.6681 C   0  0  0  0  0  0  0  0  0  0  0  0
    3.0740    2.6035   -2.7516 C   0  0  0  0  0  0  0  0  0  0  0  0
    2.6428    3.7162   -2.6248 O   0  0  0  0  0  0  0  0  0  0  0  0
    4.4443    2.4037   -2.9771 N   0  0  0  0  0  0  0  0  0  0  0  0
    5.4568    3.4588   -3.0796 C   0  0  0  0  0  0  0  0  0  0  0  0
    6.7370    2.8172   -2.5816 C   0  0  0  0  0  0  0  0  0  0  0  0
    6.5356    1.3154   -2.6853 C   0  0  0  0  0  0  0  0  0  0  0  0
    5.1090    1.1082   -3.1570 C   0  0  0  0  0  0  0  0  0  0  0  0
    3.2040    1.9010    1.2872 C   0  0  0  0  0  0  0  0  0  0  0  0
    3.7133    3.3086    1.5100 C   0  0  0  0  0  0  0  0  0  0  0  0
    3.6723    6.2208    2.3737 C   0  0  0  0  0  0  0  0  0  0  0  0
    3.6460    7.7081    2.0499 C   0  0  0  0  0  0  0  0  0  0  0  0
    3.8745   13.7955   -0.7341 C   0  0  0  0  0  0  0  0  0  0  0  0
    3.0667   14.7985   -0.2110 C   0  0  0  0  0  0  0  0  0  0  0  0
  1  2  1  0
  2  3  2  0
  3  4  1  0
  4  5  2  0
  5  6  1  0
  6  7  1  0
  7  8  2  0
  8  4  1  0
  8  9  1  0
  9 10  1  0
 10 11  2  0
 10 12  1  0
 12 13  1  0
 13 14  1  0
 14 15  1  0
 15 16  1  0
 16 17  1  0
 17 18  1  0
 18 19  1  0
 19 20  1  0
 20 21  2  0
 20 22  1  0
 22 23  1  0
 23 24  1  0
 24 25  2  0
 24 26  1  0
 26 27  1  0
 27 28  1  0
 28 29  1  0
 29 30  1  0
 30 26  1  0
 18 31  1  0
 31 32  1  0
 32 16  1  0
 15 33  1  0
 33 34  1  0
 34 12  1  0
  5 35  1  0
 35 36  2  0
 36  2  1  0
M  CHG  1  18   1
M  END
$$$$
m_275030____14114236____14128104____14146862
     RDKit          3D

 37 41  0  0  0  0  0  0  0  0999 V2000
   -1.9062    3.4271    6.9270 O   0  0  0  0  0  0  0  0  0  0  0  0
   -1.8007    4.5370    6.4831 C   0  0  0  0  0  0  0  0  0  0  0  0
   -0.6020    4.9365    5.8662 N   0  0  0  0  0  0  0  0  0  0  0  0
    0.3101    3.9561    5.2610 C   0  0  0  0  0  0  0  0  0  0  0  0
    1.0614    4.6275    4.1224 C   0  0  0  0  0  0  0  0  0  0  0  0
    1.9124    3.6207    3.3658 C   0  0  0  0  0  0  0  0  0  0  0  0
    1.1641    3.1010    2.1577 C   0  0  0  0  0  0  0  0  0  0  0  0
    1.8489    1.8489    1.8489 N   0  0  0  0  0  0  0  0  0  0  0  0
    1.0000    1.0000    1.0000 C   0  0  0  0  0  0  0  0  0  0  0  0
    1.0912    1.4729   -0.4417 C   0  0  0  0  0  0  0  0  0  0  0  0
    2.1468    1.8221   -0.8929 O   0  0  0  0  0  0  0  0  0  0  0  0
   -0.0318    1.5005   -1.2259 N   0  0  0  0  0  0  0  0  0  0  0  0
    0.0564    1.9578   -2.6201 C   0  0  0  0  0  0  0  0  0  0  0  0
   -1.3193    1.8913   -3.2632 C   0  0  0  0  0  0  0  0  0  0  0  0
   -2.2610    1.5060   -2.6270 O   0  0  0  0  0  0  0  0  0  0  0  0
   -1.4881    2.2804   -4.6006 N   0  0  0  0  0  0  0  0  0  0  0  0
   -2.7526    2.2667   -5.3419 C   0  0  0  0  0  0  0  0  0  0  0  0
   -2.6187    3.3846   -6.3573 C   0  0  0  0  0  0  0  0  0  0  0  0
   -1.1324    3.6625   -6.4996 C   0  0  0  0  0  0  0  0  0  0  0  0
   -0.4329    2.7633   -5.4982 C   0  0  0  0  0  0  0  0  0  0  0  0
    1.9734    1.2111    3.1665 C   0  0  0  0  0  0  0  0  0  0  0  0
    2.0761    2.3450    4.1733 C   0  0  0  0  0  0  0  0  0  0  0  0
    1.9909    5.6677    4.7249 C   0  0  0  0  0  0  0  0  0  0  0  0
    1.3246    6.4466    5.8493 C   0  0  0  0  0  0  0  0  0  0  0  0
   -0.1918    6.3464    5.7926 C   0  0  0  0  0  0  0  0  0  0  0  0
   -2.9093    5.4658    6.5827 C   0  0  0  0  0  0  0  0  0  0  0  0
   -3.6908    5.7730    5.4717 C   0  0  0  0  0  0  0  0  0  0  0  0
   -4.7135    6.6341    5.5880 N   0  0  0  0  0  0  0  0  0  0  0  0
   -5.0153    7.2199    6.7569 C   0  0  0  0  0  0  0  0  0  0  0  0
   -4.2660    6.9479    7.8968 C   0  0  0  0  0  0  0  0  0  0  0  0
   -4.5686    7.5652    9.1731 C   0  0  0  0  0  0  0  0  0  0  0  0
   -4.4021    6.8379   10.3471 C   0  0  0  0  0  0  0  0  0  0  0  0
   -4.6944    7.4339   11.5696 C   0  0  0  0  0  0  0  0  0  0  0  0
   -5.1482    8.7480   11.6119 C   0  0  0  0  0  0  0  0  0  0  0  0
   -5.3103    9.4651   10.4328 C   0  0  0  0  0  0  0  0  0  0  0  0
   -5.0220    8.8802    9.2041 C   0  0  0  0  0  0  0  0  0  0  0  0
   -3.2002    6.0591    7.8068 C   0  0  0  0  0  0  0  0  0  0  0  0
  1  2  2  0
  2  3  1  0
  3  4  1  0
  4  5  1  0
  5  6  1  0
  6  7  1  0
  7  8  1  0
  8  9  1  0
  9 10  1  0
 10 11  2  0
 10 12  1  0
 12 13  1  0
 13 14  1  0
 14 15  2  0
 14 16  1  0
 16 17  1  0
 17 18  1  0
 18 19  1  0
 19 20  1  0
 20 16  1  0
  8 21  1  0
 21 22  1  0
 22  6  1  0
  5 23  1  0
 23 24  1  0
 24 25  1  0
 25  3  1  0
  2 26  1  0
 26 27  2  0
 27 28  1  0
 28 29  2  0
 29 30  1  0
 30 31  1  0
 31 32  2  0
 32 33  1  0
 33 34  2  0
 34 35  1  0
 35 36  2  0
 36 31  1  0
 30 37  2  0
 37 26  1  0
M  CHG  1   8   1
M  END
$$$$
m_275030____14114100____14123352____14147198
     RDKit          3D

 38 43  0  0  0  0  0  0  0  0999 V2000
    3.2707   -5.1385    8.8627 O   0  0  0  0  0  0  0  0  0  0  0  0
    4.4415   -5.3083    8.5575 C   0  0  0  0  0  0  0  0  0  0  0  0
    4.9863   -5.0609    7.2978 N   0  0  0  0  0  0  0  0  0  0  0  0
    6.3508   -5.3493    7.2750 C   0  0  0  0  0  0  0  0  0  0  0  0
    7.1131   -5.2371    6.3218 O   0  0  0  0  0  0  0  0  0  0  0  0
    6.6868   -5.8329    8.6690 C   0  0  0  0  0  0  0  0  0  0  0  0
    5.4282   -5.7853    9.4208 N   0  0  0  0  0  0  0  0  0  0  0  0
    7.4266   -7.1539    8.6292 C   0  0  0  0  0  0  0  0  0  0  0  0
    8.0157   -7.2949   10.0182 C   0  0  0  0  0  0  0  0  0  0  0  0
    8.3518   -5.8690   10.4024 C   0  0  0  0  0  0  0  0  0  0  0  0
    7.8124   -5.0207    9.2683 C   0  0  0  0  0  0  0  0  0  0  0  0
    4.2298   -4.5584    6.1424 C   0  0  0  0  0  0  0  0  0  0  0  0
    4.2643   -3.0388    6.1362 C   0  0  0  0  0  0  0  0  0  0  0  0
    3.5068   -2.5357    4.9794 N   0  0  0  0  0  0  0  0  0  0  0  0
    3.5186   -1.0647    4.9409 C   0  0  0  0  0  0  0  0  0  0  0  0
    2.7627   -0.5311    3.7331 C   0  0  0  0  0  0  0  0  0  0  0  0
    2.7657    0.9893    3.7020 C   0  0  0  0  0  0  0  0  0  0  0  0
    4.2152    1.4493    3.6340 C   0  0  0  0  0  0  0  0  0  0  0  0
    4.3351    2.9624    3.5155 C   0  0  0  0  0  0  0  0  0  0  0  0
    3.4072    3.5117    2.5135 N   0  0  0  0  0  0  0  0  0  0  0  0
    3.8017    4.6453    1.7979 C   0  0  0  0  0  0  0  0  0  0  0  0
    4.8724    5.1448    2.0077 O   0  0  0  0  0  0  0  0  0  0  0  0
    2.9169    5.2183    0.8014 C   0  0  0  0  0  0  0  0  0  0  0  0
    2.4491    4.5870   -0.3044 N   0  0  0  0  0  0  0  0  0  0  0  0
    1.6458    5.4421   -1.0060 C   0  0  0  0  0  0  0  0  0  0  0  0
    1.5975    6.6406   -0.3330 C   0  0  0  0  0  0  0  0  0  0  0  0
    0.8347    7.6862   -0.8447 C   0  0  0  0  0  0  0  0  0  0  0  0
    0.1174    7.5419   -2.0278 C   0  0  0  0  0  0  0  0  0  0  0  0
    0.1695    6.3274   -2.7038 C   0  0  0  0  0  0  0  0  0  0  0  0
    0.9328    5.2844   -2.1900 C   0  0  0  0  0  0  0  0  0  0  0  0
    2.4093    6.4791    0.8094 C   0  0  0  0  0  0  0  0  0  0  0  0
    2.6428    7.4181    1.7511 O   0  0  0  0  0  0  0  0  0  0  0  0
    3.7404    8.3079    1.6097 C   0  0  0  0  0  0  0  0  0  0  0  0
    2.0878    2.9259    2.2239 C   0  0  0  0  0  0  0  0  0  0  0  0
    2.0810    1.4150    2.4110 C   0  0  0  0  0  0  0  0  0  0  0  0
    1.3324   -1.0463    3.7613 C   0  0  0  0  0  0  0  0  0  0  0  0
    1.3542   -2.5662    3.7912 C   0  0  0  0  0  0  0  0  0  0  0  0
    2.1328   -3.0589    5.0005 C   0  0  0  0  0  0  0  0  0  0  0  0
  1  2  2  0
  2  3  1  0
  3  4  1  0
  4  5  2  0
  4  6  1  0
  6  7  1  0
  7  2  1  0
  6  8  1  0
  8  9  1  0
  9 10  1  0
 10 11  1  0
 11  6  1  0
  3 12  1  0
 12 13  1  0
 13 14  1  0
 14 15  1  0
 15 16  1  0
 16 17  1  0
 17 18  1  0
 18 19  1  0
 19 20  1  0
 20 21  1  0
 21 22  2  0
 21 23  1  0
 23 24  1  0
 24 25  1  0
 25 26  2  0
 26 27  1  0
 27 28  2  0
 28 29  1  0
 29 30  2  0
 30 25  1  0
 26 31  1  0
 23 31  2  0
 31 32  1  0
 32 33  1  0
 20 34  1  0
 34 35  1  0
 35 17  1  0
 16 36  1  0
 36 37  1  0
 37 38  1  0
 38 14  1  0
M  CHG  1  14   1
M  END
$$$$
m_275030____14114158____14125052____14146862
     RDKit          3D

 37 41  0  0  0  0  0  0  0  0999 V2000
    7.1712    5.0132   -1.1282 O   0  0  0  0  0  0  0  0  0  0  0  0
    6.4815    5.9952   -1.1382 C   0  0  0  0  0  0  0  0  0  0  0  0
    5.2000    5.9602   -0.5607 N   0  0  0  0  0  0  0  0  0  0  0  0
    4.6756    4.7373    0.0631 C   0  0  0  0  0  0  0  0  0  0  0  0
    3.6993    5.1300    1.1605 C   0  0  0  0  0  0  0  0  0  0  0  0
    3.2367    3.9084    1.9378 C   0  0  0  0  0  0  0  0  0  0  0  0
    2.3207    3.0278    1.1000 C   0  0  0  0  0  0  0  0  0  0  0  0
    1.8518    1.8518    1.8518 N   0  0  0  0  0  0  0  0  0  0  0  0
    1.0000    1.0000    1.0000 C   0  0  0  0  0  0  0  0  0  0  0  0
    1.8773    0.1448    0.1004 C   0  0  0  0  0  0  0  0  0  0  0  0
    2.8855   -0.3419    0.5324 O   0  0  0  0  0  0  0  0  0  0  0  0
    1.5170   -0.0705   -1.2038 N   0  0  0  0  0  0  0  0  0  0  0  0
    2.3654   -0.8976   -2.0738 C   0  0  0  0  0  0  0  0  0  0  0  0
    1.7451   -0.9771   -3.4592 C   0  0  0  0  0  0  0  0  0  0  0  0
    0.7141   -0.4075   -3.6885 O   0  0  0  0  0  0  0  0  0  0  0  0
    2.3779   -1.7164   -4.4698 N   0  0  0  0  0  0  0  0  0  0  0  0
    1.8924   -1.8766   -5.8436 C   0  0  0  0  0  0  0  0  0  0  0  0
    3.1448   -2.0575   -6.6787 C   0  0  0  0  0  0  0  0  0  0  0  0
    4.2425   -2.4899   -5.7221 C   0  0  0  0  0  0  0  0  0  0  0  0
    3.6319   -2.4658   -4.3339 C   0  0  0  0  0  0  0  0  0  0  0  0
    1.1441    2.2532    3.0768 C   0  0  0  0  0  0  0  0  0  0  0  0
    2.0374    3.1084    3.9610 C   0  0  0  0  0  0  0  0  0  0  0  0
    2.4932    4.3383    3.1918 C   0  0  0  0  0  0  0  0  0  0  0  0
    2.4812    5.7546    0.5007 C   0  0  0  0  0  0  0  0  0  0  0  0
    2.8638    6.6872   -0.6389 C   0  0  0  0  0  0  0  0  0  0  0  0
    4.3146    7.1338   -0.5486 C   0  0  0  0  0  0  0  0  0  0  0  0
    6.9699    7.2182   -1.7462 C   0  0  0  0  0  0  0  0  0  0  0  0
    7.0977    8.3341   -1.0483 N   0  0  0  0  0  0  0  0  0  0  0  0
    7.5417    9.4568   -1.5891 N   0  0  0  0  0  0  0  0  0  0  0  0
    7.8999    9.5393   -2.9109 C   0  0  0  0  0  0  0  0  0  0  0  0
    7.7942    8.4084   -3.7136 C   0  0  0  0  0  0  0  0  0  0  0  0
    8.1547    8.4852   -5.0568 C   0  0  0  0  0  0  0  0  0  0  0  0
    8.6220    9.6663   -5.6222 C   0  0  0  0  0  0  0  0  0  0  0  0
    8.7263   10.7937   -4.8148 C   0  0  0  0  0  0  0  0  0  0  0  0
    8.3662   10.7236   -3.4734 C   0  0  0  0  0  0  0  0  0  0  0  0
    7.3165    7.2061   -3.1236 C   0  0  0  0  0  0  0  0  0  0  0  0
    7.1946    6.1674   -3.7569 O   0  0  0  0  0  0  0  0  0  0  0  0
  1  2  2  0
  2  3  1  0
  3  4  1  0
  4  5  1  0
  5  6  1  0
  6  7  1  0
  7  8  1  0
  8  9  1  0
  9 10  1  0
 10 11  2  0
 10 12  1  0
 12 13  1  0
 13 14  1  0
 14 15  2  0
 14 16  1  0
 16 17  1  0
 17 18  1  0
 18 19  1  0
 19 20  1  0
 20 16  1  0
  8 21  1  0
 21 22  1  0
 22 23  1  0
 23  6  1  0
  5 24  1  0
 24 25  1  0
 25 26  1  0
 26  3  1  0
  2 27  1  0
 27 28  2  0
 28 29  1  0
 29 30  1  0
 30 31  2  0
 31 32  1  0
 32 33  2  0
 33 34  1  0
 34 35  2  0
 35 30  1  0
 31 36  1  0
 36 27  1  0
 36 37  2  0
M  CHG  1   8   1
M  END
$$$$
m_275030____14114032____14125676____14147874
     RDKit          3D

 37 41  0  0  0  0  0  0  0  0999 V2000
    4.7528    1.6884   12.1683 O   0  0  0  0  0  0  0  0  0  0  0  0
    4.5113    2.7684   11.6513 C   0  0  0  0  0  0  0  0  0  0  0  0
    3.5577    2.8127   10.6685 N   0  0  0  0  0  0  0  0  0  0  0  0
    3.2385    3.9927   10.0483 C   0  0  0  0  0  0  0  0  0  0  0  0
    2.2247    3.9991    9.0124 C   0  0  0  0  0  0  0  0  0  0  0  0
    1.2374    4.6685    9.1433 O   0  0  0  0  0  0  0  0  0  0  0  0
    2.3982    3.2214    7.8547 N   0  0  0  0  0  0  0  0  0  0  0  0
    1.3958    3.1990    6.7810 C   0  0  0  0  0  0  0  0  0  0  0  0
    1.4707    1.8248    6.1332 C   0  0  0  0  0  0  0  0  0  0  0  0
    2.7874    1.6282    5.3957 C   0  0  0  0  0  0  0  0  0  0  0  0
    2.7279    2.1873    3.9836 C   0  0  0  0  0  0  0  0  0  0  0  0
    1.5132    1.6532    3.2564 C   0  0  0  0  0  0  0  0  0  0  0  0
    1.8489    1.8489    1.8489 N   0  0  0  0  0  0  0  0  0  0  0  0
    1.0000    1.0000    1.0000 C   0  0  0  0  0  0  0  0  0  0  0  0
    1.0912    1.4729   -0.4417 C   0  0  0  0  0  0  0  0  0  0  0  0
    1.1163    2.6472   -0.6875 O   0  0  0  0  0  0  0  0  0  0  0  0
    1.1447    0.5585   -1.4605 N   0  0  0  0  0  0  0  0  0  0  0  0
    0.8113    0.9434   -2.7650 C   0  0  0  0  0  0  0  0  0  0  0  0
   -0.1711    1.7424   -3.1053 O   0  0  0  0  0  0  0  0  0  0  0  0
   -0.2023    1.8876   -4.3744 N   0  0  0  0  0  0  0  0  0  0  0  0
    0.7551    1.1982   -4.9472 C   0  0  0  0  0  0  0  0  0  0  0  0
    1.4487    0.5551   -3.9008 C   0  0  0  0  0  0  0  0  0  0  0  0
    1.0567    1.1067   -6.4345 C   0  0  0  0  0  0  0  0  0  0  0  0
    1.7176   -0.2283   -6.7363 C   0  0  0  0  0  0  0  0  0  0  0  0
   -0.2384    1.2205   -7.2219 C   0  0  0  0  0  0  0  0  0  0  0  0
    1.9923    2.2367   -6.8321 C   0  0  0  0  0  0  0  0  0  0  0  0
    3.2291    1.3519    1.7700 C   0  0  0  0  0  0  0  0  0  0  0  0
    3.8477    1.6133    3.1335 C   0  0  0  0  0  0  0  0  0  0  0  0
    3.8664    2.3843    6.1562 C   0  0  0  0  0  0  0  0  0  0  0  0
    3.5913    2.3916    7.6540 C   0  0  0  0  0  0  0  0  0  0  0  0
    3.8556    5.1698   10.3829 C   0  0  0  0  0  0  0  0  0  0  0  0
    4.8491    5.1579   11.3982 C   0  0  0  0  0  0  0  0  0  0  0  0
    5.1804    3.9656   12.0331 C   0  0  0  0  0  0  0  0  0  0  0  0
    6.1598    3.9944   13.0227 C   0  0  0  0  0  0  0  0  0  0  0  0
    6.8035    5.1727   13.3837 C   0  0  0  0  0  0  0  0  0  0  0  0
    6.4503    6.3492   12.7313 C   0  0  0  0  0  0  0  0  0  0  0  0
    5.4759    6.3523   11.7389 C   0  0  0  0  0  0  0  0  0  0  0  0
  1  2  2  0
  2  3  1  0
  3  4  1  0
  4  5  1  0
  5  6  2  0
  5  7  1  0
  7  8  1  0
  8  9  1  0
  9 10  1  0
 10 11  1  0
 11 12  1  0
 12 13  1  0
 13 14  1  0
 14 15  1  0
 15 16  2  0
 15 17  1  0
 17 18  1  0
 18 19  1  0
 19 20  1  0
 20 21  2  0
 21 22  1  0
 18 22  2  0
 21 23  1  0
 23 24  1  0
 23 25  1  0
 23 26  1  0
 13 27  1  0
 27 28  1  0
 28 11  1  0
 10 29  1  0
 29 30  1  0
 30  7  1  0
  4 31  2  0
 31 32  1  0
 32 33  2  0
 33  2  1  0
 33 34  1  0
 34 35  2  0
 35 36  1  0
 36 37  2  0
 37 32  1  0
M  CHG  1  13   1
M  END
$$$$
m_275030____14114236____14128568____14147198
     RDKit          3D

 37 42  0  0  0  0  0  0  0  0999 V2000
    7.0355   -1.2433    2.2805 O   0  0  0  0  0  0  0  0  0  0  0  0
    6.4397   -2.0669    2.9582 C   0  0  0  0  0  0  0  0  0  0  0  0
    5.4099   -1.7763    3.8526 N   0  0  0  0  0  0  0  0  0  0  0  0
    4.9347   -2.9356    4.4657 C   0  0  0  0  0  0  0  0  0  0  0  0
    4.0371   -3.0165    5.2963 O   0  0  0  0  0  0  0  0  0  0  0  0
    5.7630   -4.0658    3.8941 C   0  0  0  0  0  0  0  0  0  0  0  0
    6.6970   -3.4382    2.9532 N   0  0  0  0  0  0  0  0  0  0  0  0
    6.3517   -4.9262    4.9928 C   0  0  0  0  0  0  0  0  0  0  0  0
    6.7993   -6.1870    4.2815 C   0  0  0  0  0  0  0  0  0  0  0  0
    5.7569   -6.3663    3.1976 C   0  0  0  0  0  0  0  0  0  0  0  0
    4.8798   -5.1340    3.2905 C   0  0  0  0  0  0  0  0  0  0  0  0
    4.8858   -0.4290    4.1168 C   0  0  0  0  0  0  0  0  0  0  0  0
    3.7451   -0.1319    3.1570 C   0  0  0  0  0  0  0  0  0  0  0  0
    3.2207    1.2161    3.4213 N   0  0  0  0  0  0  0  0  0  0  0  0
    2.1200    1.4943    2.4902 C   0  0  0  0  0  0  0  0  0  0  0  0
    2.0264    3.0056    2.5174 C   0  0  0  0  0  0  0  0  0  0  0  0
    1.2839    3.5183    1.2943 C   0  0  0  0  0  0  0  0  0  0  0  0
   -0.1689    3.0756    1.3992 C   0  0  0  0  0  0  0  0  0  0  0  0
   -0.9084    3.2955    0.1451 N   0  0  0  0  0  0  0  0  0  0  0  0
   -2.2684    3.6172    0.2112 C   0  0  0  0  0  0  0  0  0  0  0  0
   -2.8915    3.3872    1.2107 O   0  0  0  0  0  0  0  0  0  0  0  0
   -2.9254    4.2288   -0.9284 C   0  0  0  0  0  0  0  0  0  0  0  0
   -3.9835    3.7161   -1.6165 N   0  0  0  0  0  0  0  0  0  0  0  0
   -4.2767    4.5273   -2.5384 N   0  0  0  0  0  0  0  0  0  0  0  0
   -3.4821    5.5694   -2.5162 N   0  0  0  0  0  0  0  0  0  0  0  0
   -3.5369    6.6556   -3.3989 C   0  0  0  0  0  0  0  0  0  0  0  0
   -4.7087    6.9117   -4.1038 C   0  0  0  0  0  0  0  0  0  0  0  0
   -4.7594    7.9914   -4.9793 C   0  0  0  0  0  0  0  0  0  0  0  0
   -3.6439    8.8053   -5.1448 C   0  0  0  0  0  0  0  0  0  0  0  0
   -2.4779    8.5402   -4.4344 C   0  0  0  0  0  0  0  0  0  0  0  0
   -2.4154    7.4633   -3.5563 C   0  0  0  0  0  0  0  0  0  0  0  0
   -2.5970    5.4189   -1.4950 C   0  0  0  0  0  0  0  0  0  0  0  0
   -0.2772    3.1950   -1.1815 C   0  0  0  0  0  0  0  0  0  0  0  0
    1.1822    3.6282   -1.1522 C   0  0  0  0  0  0  0  0  0  0  0  0
    1.9475    3.0227    0.0172 C   0  0  0  0  0  0  0  0  0  0  0  0
    3.4945    3.3904    2.4629 C   0  0  0  0  0  0  0  0  0  0  0  0
    4.2351    2.2138    3.0607 C   0  0  0  0  0  0  0  0  0  0  0  0
  1  2  2  0
  2  3  1  0
  3  4  1  0
  4  5  2  0
  4  6  1  0
  6  7  1  0
  7  2  1  0
  6  8  1  0
  8  9  1  0
  9 10  1  0
 10 11  1  0
 11  6  1  0
  3 12  1  0
 12 13  1  0
 13 14  1  0
 14 15  1  0
 15 16  1  0
 16 17  1  0
 17 18  1  0
 18 19  1  0
 19 20  1  0
 20 21  2  0
 20 22  1  0
 22 23  1  0
 23 24  2  0
 24 25  1  0
 25 26  1  0
 26 27  2  0
 27 28  1  0
 28 29  2  0
 29 30  1  0
 30 31  2  0
 31 26  1  0
 25 32  1  0
 22 32  2  0
 19 33  1  0
 33 34  1  0
 34 35  1  0
 35 17  1  0
 16 36  1  0
 36 37  1  0
 37 14  1  0
M  CHG  1  14   1
M  END
$$$$
m_275030____14114158____14128494____14147198
     RDKit          3D

 38 43  0  0  0  0  0  0  0  0999 V2000
   -1.6721    5.5421    1.1061 O   0  0  0  0  0  0  0  0  0  0  0  0
   -0.9065    5.7468    0.1762 C   0  0  0  0  0  0  0  0  0  0  0  0
    0.4713    5.5334    0.2094 N   0  0  0  0  0  0  0  0  0  0  0  0
    1.0594    5.8572   -1.0133 C   0  0  0  0  0  0  0  0  0  0  0  0
    2.2475    5.7797   -1.3043 O   0  0  0  0  0  0  0  0  0  0  0  0
   -0.0750    6.3275   -1.8976 C   0  0  0  0  0  0  0  0  0  0  0  0
   -1.2855    6.2356   -1.0744 N   0  0  0  0  0  0  0  0  0  0  0  0
    0.2396    7.6676   -2.5293 C   0  0  0  0  0  0  0  0  0  0  0  0
   -0.7751    7.8020   -3.6466 C   0  0  0  0  0  0  0  0  0  0  0  0
   -0.9461    6.3794   -4.1373 C   0  0  0  0  0  0  0  0  0  0  0  0
   -0.1238    5.5354   -3.1843 C   0  0  0  0  0  0  0  0  0  0  0  0
    1.2127    5.0296    1.3739 C   0  0  0  0  0  0  0  0  0  0  0  0
    1.2710    3.5117    1.3196 C   0  0  0  0  0  0  0  0  0  0  0  0
    2.0133    3.0074    2.4857 N   0  0  0  0  0  0  0  0  0  0  0  0
    3.3880    3.5321    2.5027 C   0  0  0  0  0  0  0  0  0  0  0  0
    4.1586    3.0412    3.7192 C   0  0  0  0  0  0  0  0  0  0  0  0
    5.5819    3.5744    3.7283 C   0  0  0  0  0  0  0  0  0  0  0  0
    5.5203    5.0952    3.7574 C   0  0  0  0  0  0  0  0  0  0  0  0
    6.8346    5.7093    3.5051 N   0  0  0  0  0  0  0  0  0  0  0  0
    7.1456    6.9199    4.1337 C   0  0  0  0  0  0  0  0  0  0  0  0
    6.3472    7.4395    4.8636 O   0  0  0  0  0  0  0  0  0  0  0  0
    8.4329    7.5470    3.9032 C   0  0  0  0  0  0  0  0  0  0  0  0
    8.6237    8.4745    2.8444 C   0  0  0  0  0  0  0  0  0  0  0  0
    7.6666    8.7323    2.1272 O   0  0  0  0  0  0  0  0  0  0  0  0
    9.8616    9.0443    2.6637 N   0  0  0  0  0  0  0  0  0  0  0  0
   10.8933    8.7095    3.5072 C   0  0  0  0  0  0  0  0  0  0  0  0
   10.7215    7.8477    4.4932 N   0  0  0  0  0  0  0  0  0  0  0  0
    9.5036    7.2572    4.7078 C   0  0  0  0  0  0  0  0  0  0  0  0
   12.1849    9.2791    3.3496 C   0  0  0  0  0  0  0  0  0  0  0  0
   12.3842   10.1756    2.3323 C   0  0  0  0  0  0  0  0  0  0  0  0
   11.3229   10.5266    1.4566 C   0  0  0  0  0  0  0  0  0  0  0  0
   10.0974    9.9468    1.6547 C   0  0  0  0  0  0  0  0  0  0  0  0
    7.8423    5.1019    2.6197 C   0  0  0  0  0  0  0  0  0  0  0  0
    7.7815    3.5807    2.6467 C   0  0  0  0  0  0  0  0  0  0  0  0
    6.3584    3.0512    2.5281 C   0  0  0  0  0  0  0  0  0  0  0  0
    4.1745    1.5208    3.7303 C   0  0  0  0  0  0  0  0  0  0  0  0
    2.7424    1.0107    3.7219 C   0  0  0  0  0  0  0  0  0  0  0  0
    2.0021    1.5371    2.5027 C   0  0  0  0  0  0  0  0  0  0  0  0
  1  2  2  0
  2  3  1  0
  3  4  1  0
  4  5  2  0
  4  6  1  0
  6  7  1  0
  7  2  1  0
  6  8  1  0
  8  9  1  0
  9 10  1  0
 10 11  1  0
 11  6  1  0
  3 12  1  0
 12 13  1  0
 13 14  1  0
 14 15  1  0
 15 16  1  0
 16 17  1  0
 17 18  1  0
 18 19  1  0
 19 20  1  0
 20 21  2  0
 20 22  1  0
 22 23  1  0
 23 24  2  0
 23 25  1  0
 25 26  1  0
 26 27  2  0
 27 28  1  0
 22 28  2  0
 26 29  1  0
 29 30  2  0
 30 31  1  0
 31 32  2  0
 32 25  1  0
 19 33  1  0
 33 34  1  0
 34 35  1  0
 35 17  1  0
 16 36  1  0
 36 37  1  0
 37 38  1  0
 38 14  1  0
M  CHG  1  14   1
M  END
$$$$
m_275030____14114078____14125812____14147198
     RDKit          3D

 37 42  0  0  0  0  0  0  0  0999 V2000
   -2.7106   -4.9008    0.4313 O   0  0  0  0  0  0  0  0  0  0  0  0
   -2.3938   -5.6236    1.3640 C   0  0  0  0  0  0  0  0  0  0  0  0
   -1.2119   -5.5166    2.0965 N   0  0  0  0  0  0  0  0  0  0  0  0
   -1.1521   -6.4856    3.0982 C   0  0  0  0  0  0  0  0  0  0  0  0
   -0.2480   -6.6550    3.9081 O   0  0  0  0  0  0  0  0  0  0  0  0
   -2.4321   -7.2825    2.9689 C   0  0  0  0  0  0  0  0  0  0  0  0
   -3.1626   -6.6828    1.8472 N   0  0  0  0  0  0  0  0  0  0  0  0
   -2.1498   -8.7691    2.9031 C   0  0  0  0  0  0  0  0  0  0  0  0
   -3.4937   -9.4172    3.1679 C   0  0  0  0  0  0  0  0  0  0  0  0
   -4.1480   -8.4751    4.1568 C   0  0  0  0  0  0  0  0  0  0  0  0
   -3.1903   -7.3067    4.2766 C   0  0  0  0  0  0  0  0  0  0  0  0
   -0.1643   -4.5149    1.8539 C   0  0  0  0  0  0  0  0  0  0  0  0
   -0.4495   -3.2728    2.6823 C   0  0  0  0  0  0  0  0  0  0  0  0
    0.5981   -2.2710    2.4397 N   0  0  0  0  0  0  0  0  0  0  0  0
    0.3187   -1.0741    3.2412 C   0  0  0  0  0  0  0  0  0  0  0  0
    1.1221    0.0122    2.5563 C   0  0  0  0  0  0  0  0  0  0  0  0
    2.5835    0.0105    2.9630 C   0  0  0  0  0  0  0  0  0  0  0  0
    3.3245    1.0464    2.2313 N   0  0  0  0  0  0  0  0  0  0  0  0
    4.0516    0.7677    1.0644 C   0  0  0  0  0  0  0  0  0  0  0  0
    4.1825    1.6130    0.2228 O   0  0  0  0  0  0  0  0  0  0  0  0
    4.6454   -0.5422    0.8753 C   0  0  0  0  0  0  0  0  0  0  0  0
    5.7918   -0.9011    1.5772 C   0  0  0  0  0  0  0  0  0  0  0  0
    6.3364   -2.1643    1.3724 C   0  0  0  0  0  0  0  0  0  0  0  0
    5.7651   -3.0216    0.5132 N   0  0  0  0  0  0  0  0  0  0  0  0
    4.6610   -2.6938   -0.1726 C   0  0  0  0  0  0  0  0  0  0  0  0
    4.0693   -1.4455   -0.0119 C   0  0  0  0  0  0  0  0  0  0  0  0
    7.5316   -2.5221    2.1125 C   0  0  0  0  0  0  0  0  0  0  0  0
    8.1014   -1.8044    3.0584 O   0  0  0  0  0  0  0  0  0  0  0  0
    9.1736   -2.4090    3.5168 C   0  0  0  0  0  0  0  0  0  0  0  0
    9.3161   -3.5814    2.8370 C   0  0  0  0  0  0  0  0  0  0  0  0
    8.2473   -3.6652    1.9155 C   0  0  0  0  0  0  0  0  0  0  0  0
    3.2659    2.4077    2.7959 C   0  0  0  0  0  0  0  0  0  0  0  0
    2.1634    3.2742    2.2015 C   0  0  0  0  0  0  0  0  0  0  0  0
    0.8866    2.5005    1.8966 C   0  0  0  0  0  0  0  0  0  0  0  0
    0.4985    1.3720    2.8550 C   0  0  0  0  0  0  0  0  0  0  0  0
    0.8656   -0.3234    1.0951 C   0  0  0  0  0  0  0  0  0  0  0  0
    0.5410   -1.8013    1.0495 C   0  0  0  0  0  0  0  0  0  0  0  0
  1  2  2  0
  2  3  1  0
  3  4  1  0
  4  5  2  0
  4  6  1  0
  6  7  1  0
  7  2  1  0
  6  8  1  0
  8  9  1  0
  9 10  1  0
 10 11  1  0
 11  6  1  0
  3 12  1  0
 12 13  1  0
 13 14  1  0
 14 15  1  0
 15 16  1  0
 16 17  1  0
 17 18  1  0
 18 19  1  0
 19 20  2  0
 19 21  1  0
 21 22  2  0
 22 23  1  0
 23 24  2  0
 24 25  1  0
 25 26  2  0
 26 21  1  0
 23 27  1  0
 27 28  1  0
 28 29  1  0
 29 30  2  0
 30 31  1  0
 27 31  2  0
 18 32  1  0
 32 33  1  0
 33 34  1  0
 34 35  1  0
 35 16  1  0
 16 36  1  0
 36 37  1  0
 37 14  1  0
M  CHG  1  14   1
M  END
$$$$
m_275030____14113648____14125052____14147198
     RDKit          3D

 37 43  0  0  0  0  0  0  0  0999 V2000
   -3.0931    4.7239   -0.2165 O   0  0  0  0  0  0  0  0  0  0  0  0
   -3.5412    3.5881   -0.2579 C   0  0  0  0  0  0  0  0  0  0  0  0
   -2.8369    2.4346    0.0860 N   0  0  0  0  0  0  0  0  0  0  0  0
   -3.6309    1.2975   -0.0638 C   0  0  0  0  0  0  0  0  0  0  0  0
   -3.3063    0.1364    0.1567 O   0  0  0  0  0  0  0  0  0  0  0  0
   -4.9697    1.7997   -0.5592 C   0  0  0  0  0  0  0  0  0  0  0  0
   -4.8344    3.2566   -0.6635 N   0  0  0  0  0  0  0  0  0  0  0  0
   -5.4142    1.0496   -1.7976 C   0  0  0  0  0  0  0  0  0  0  0  0
   -6.8873    1.3804   -1.9268 C   0  0  0  0  0  0  0  0  0  0  0  0
   -7.3511    1.4809   -0.4886 C   0  0  0  0  0  0  0  0  0  0  0  0
   -6.0911    1.3316    0.3401 C   0  0  0  0  0  0  0  0  0  0  0  0
   -1.4426    2.4120    0.5499 C   0  0  0  0  0  0  0  0  0  0  0  0
   -1.4107    2.5341    2.0647 C   0  0  0  0  0  0  0  0  0  0  0  0
   -0.0150    2.5115    2.5291 N   0  0  0  0  0  0  0  0  0  0  0  0
    0.6558    1.2645    2.1490 C   0  0  0  0  0  0  0  0  0  0  0  0
    2.1148    1.5325    2.4634 C   0  0  0  0  0  0  0  0  0  0  0  0
    2.6594    1.2293    3.8474 C   0  0  0  0  0  0  0  0  0  0  0  0
    4.0507    1.6854    3.8773 N   0  0  0  0  0  0  0  0  0  0  0  0
    5.0671    0.9281    4.4751 C   0  0  0  0  0  0  0  0  0  0  0  0
    4.8089   -0.1281    4.9827 O   0  0  0  0  0  0  0  0  0  0  0  0
    6.4313    1.4211    4.4802 C   0  0  0  0  0  0  0  0  0  0  0  0
    7.0811    1.6689    3.3555 N   0  0  0  0  0  0  0  0  0  0  0  0
    8.3252    2.1187    3.3447 N   0  0  0  0  0  0  0  0  0  0  0  0
    9.0253    2.3588    4.4998 C   0  0  0  0  0  0  0  0  0  0  0  0
    8.4121    2.1225    5.7256 C   0  0  0  0  0  0  0  0  0  0  0  0
    9.1174    2.3627    6.9023 C   0  0  0  0  0  0  0  0  0  0  0  0
   10.4245    2.8364    6.8878 C   0  0  0  0  0  0  0  0  0  0  0  0
   11.0325    3.0714    5.6594 C   0  0  0  0  0  0  0  0  0  0  0  0
   10.3339    2.8319    4.4811 C   0  0  0  0  0  0  0  0  0  0  0  0
    7.0747    1.6397    5.7275 C   0  0  0  0  0  0  0  0  0  0  0  0
    6.4620    1.4076    6.7597 O   0  0  0  0  0  0  0  0  0  0  0  0
    4.2959    2.9858    3.2476 C   0  0  0  0  0  0  0  0  0  0  0  0
    2.9490    3.6821    3.2808 C   0  0  0  0  0  0  0  0  0  0  0  0
    2.2468    2.9982    2.1245 C   0  0  0  0  0  0  0  0  0  0  0  0
    0.8394    3.4774    1.8266 C   0  0  0  0  0  0  0  0  0  0  0  0
    2.2463    3.5256    4.6226 C   0  0  0  0  0  0  0  0  0  0  0  0
    2.0260    2.0578    4.9519 C   0  0  0  0  0  0  0  0  0  0  0  0
  1  2  2  0
  2  3  1  0
  3  4  1  0
  4  5  2  0
  4  6  1  0
  6  7  1  0
  7  2  1  0
  6  8  1  0
  8  9  1  0
  9 10  1  0
 10 11  1  0
 11  6  1  0
  3 12  1  0
 12 13  1  0
 13 14  1  0
 14 15  1  0
 15 16  1  0
 16 17  1  0
 17 18  1  0
 18 19  1  0
 19 20  2  0
 19 21  1  0
 21 22  2  0
 22 23  1  0
 23 24  1  0
 24 25  2  0
 25 26  1  0
 26 27  2  0
 27 28  1  0
 28 29  2  0
 29 24  1  0
 25 30  1  0
 30 21  1  0
 30 31  2  0
 18 32  1  0
 32 33  1  0
 33 34  1  0
 34 16  1  0
 34 35  1  0
 35 14  1  0
 33 36  1  0
 36 37  1  0
 37 17  1  0
M  CHG  1  14   1
M  END
$$$$
m_275030____14114236____14125982____14148758
     RDKit          3D

 34 39  0  0  0  0  0  0  0  0999 V2000
    1.0117    4.0537   -2.8004 F   0  0  0  0  0  0  0  0  0  0  0  0
    0.9602    5.2281   -2.1771 C   0  0  0  0  0  0  0  0  0  0  0  0
    1.6699    5.4046   -0.9948 C   0  0  0  0  0  0  0  0  0  0  0  0
    2.4653    4.5381   -0.3045 N   0  0  0  0  0  0  0  0  0  0  0  0
    2.9302    5.1987    0.7941 C   0  0  0  0  0  0  0  0  0  0  0  0
    3.8110    4.6328    1.7976 C   0  0  0  0  0  0  0  0  0  0  0  0
    4.8848    5.1280    2.0014 O   0  0  0  0  0  0  0  0  0  0  0  0
    3.4087    3.5093    2.5281 N   0  0  0  0  0  0  0  0  0  0  0  0
    4.3233    2.9558    3.5406 C   0  0  0  0  0  0  0  0  0  0  0  0
    4.1958    1.4438    3.6644 C   0  0  0  0  0  0  0  0  0  0  0  0
    4.9585    1.0023    4.9033 C   0  0  0  0  0  0  0  0  0  0  0  0
    4.3905    1.6614    6.1428 C   0  0  0  0  0  0  0  0  0  0  0  0
    4.8851    0.8040    7.2273 N   0  0  0  0  0  0  0  0  0  0  0  0
    4.0576    1.0166    8.4240 C   0  0  0  0  0  0  0  0  0  0  0  0
    4.5626    0.1324    9.5530 C   0  0  0  0  0  0  0  0  0  0  0  0
    5.4710    0.4616   10.4366 N   0  0  0  0  0  0  0  0  0  0  0  0
    5.6364   -0.5178   11.2198 O   0  0  0  0  0  0  0  0  0  0  0  0
    4.8444   -1.5018   10.8722 C   0  0  0  0  0  0  0  0  0  0  0  0
    4.1476   -1.1354    9.8249 N   0  0  0  0  0  0  0  0  0  0  0  0
    4.7454   -2.8527   11.5695 C   0  0  0  0  0  0  0  0  0  0  0  0
    3.3511   -3.1213   12.1005 C   0  0  0  0  0  0  0  0  0  0  0  0
    4.0246   -3.7831   13.2826 C   0  0  0  0  0  0  0  0  0  0  0  0
    5.1922   -2.8515   13.0150 C   0  0  0  0  0  0  0  0  0  0  0  0
    4.6655   -0.5547    6.7173 C   0  0  0  0  0  0  0  0  0  0  0  0
    4.7002   -0.4632    5.2070 C   0  0  0  0  0  0  0  0  0  0  0  0
    2.7443    0.9913    3.7385 C   0  0  0  0  0  0  0  0  0  0  0  0
    2.0724    1.4186    2.4401 C   0  0  0  0  0  0  0  0  0  0  0  0
    2.0852    2.9288    2.2459 C   0  0  0  0  0  0  0  0  0  0  0  0
    2.4413    6.4699    0.8080 C   0  0  0  0  0  0  0  0  0  0  0  0
    1.6292    6.6128   -0.3411 C   0  0  0  0  0  0  0  0  0  0  0  0
    0.8719    7.6629   -0.8606 C   0  0  0  0  0  0  0  0  0  0  0  0
    0.1586    7.4884   -2.0438 C   0  0  0  0  0  0  0  0  0  0  0  0
    0.2015    6.2665   -2.7083 C   0  0  0  0  0  0  0  0  0  0  0  0
    0.7975    9.0140   -0.1670 C   0  0  0  0  0  0  0  0  0  0  0  0
  1  2  1  0
  2  3  2  0
  3  4  1  0
  4  5  1  0
  5  6  1  0
  6  7  2  0
  6  8  1  0
  8  9  1  0
  9 10  1  0
 10 11  1  0
 11 12  1  0
 12 13  1  0
 13 14  1  0
 14 15  1  0
 15 16  2  0
 16 17  1  0
 17 18  1  0
 18 19  2  0
 19 15  1  0
 18 20  1  0
 20 21  1  0
 21 22  1  0
 22 23  1  0
 23 20  1  0
 13 24  1  0
 24 25  1  0
 25 11  1  0
 10 26  1  0
 26 27  1  0
 27 28  1  0
 28  8  1  0
  5 29  2  0
 29 30  1  0
 30  3  1  0
 30 31  2  0
 31 32  1  0
 32 33  2  0
 33  2  1  0
 31 34  1  0
M  CHG  1  13   1
M  END
$$$$
m_275030____14114236____14126114____12659366
     RDKit          3D

 34 39  0  0  0  0  0  0  0  0999 V2000
    4.8848    5.1280    2.0014 O   0  0  0  0  0  0  0  0  0  0  0  0
    3.8110    4.6328    1.7976 C   0  0  0  0  0  0  0  0  0  0  0  0
    3.4087    3.5093    2.5281 N   0  0  0  0  0  0  0  0  0  0  0  0
    4.3233    2.9558    3.5406 C   0  0  0  0  0  0  0  0  0  0  0  0
    4.1958    1.4438    3.6644 C   0  0  0  0  0  0  0  0  0  0  0  0
    4.9585    1.0023    4.9033 C   0  0  0  0  0  0  0  0  0  0  0  0
    4.3905    1.6614    6.1428 C   0  0  0  0  0  0  0  0  0  0  0  0
    4.8851    0.8040    7.2273 N   0  0  0  0  0  0  0  0  0  0  0  0
    4.0576    1.0166    8.4240 C   0  0  0  0  0  0  0  0  0  0  0  0
    4.1419    2.4735    8.8455 C   0  0  0  0  0  0  0  0  0  0  0  0
    3.3511    3.4407    8.4498 N   0  0  0  0  0  0  0  0  0  0  0  0
    3.7268    4.5091    9.0211 O   0  0  0  0  0  0  0  0  0  0  0  0
    4.7478    4.3491    9.8432 C   0  0  0  0  0  0  0  0  0  0  0  0
    5.0817    3.0420    9.7408 C   0  0  0  0  0  0  0  0  0  0  0  0
    6.2750    2.5010   10.5098 C   0  0  0  0  0  0  0  0  0  0  0  0
    6.6735    3.3818   11.6875 C   0  0  0  0  0  0  0  0  0  0  0  0
    6.8624    4.7861   11.1325 C   0  0  0  0  0  0  0  0  0  0  0  0
    5.4782    5.3045   10.7700 C   0  0  0  0  0  0  0  0  0  0  0  0
    4.6655   -0.5547    6.7173 C   0  0  0  0  0  0  0  0  0  0  0  0
    4.7002   -0.4632    5.2070 C   0  0  0  0  0  0  0  0  0  0  0  0
    2.7443    0.9913    3.7385 C   0  0  0  0  0  0  0  0  0  0  0  0
    2.0724    1.4186    2.4401 C   0  0  0  0  0  0  0  0  0  0  0  0
    2.0852    2.9288    2.2459 C   0  0  0  0  0  0  0  0  0  0  0  0
    2.9318    5.1976    0.7960 C   0  0  0  0  0  0  0  0  0  0  0  0
    2.5221    4.4443   -0.2737 N   0  0  0  0  0  0  0  0  0  0  0  0
    1.6908    4.9638   -1.2318 C   0  0  0  0  0  0  0  0  0  0  0  0
    1.2466    6.2790   -1.1269 C   0  0  0  0  0  0  0  0  0  0  0  0
    0.4023    6.7855   -2.1117 C   0  0  0  0  0  0  0  0  0  0  0  0
   -0.0061    6.0116   -3.1919 C   0  0  0  0  0  0  0  0  0  0  0  0
    0.4475    4.7001   -3.2784 C   0  0  0  0  0  0  0  0  0  0  0  0
    1.2912    4.1747   -2.3058 C   0  0  0  0  0  0  0  0  0  0  0  0
    1.6691    7.0651   -0.0182 C   0  0  0  0  0  0  0  0  0  0  0  0
    1.3183    8.2256    0.1349 O   0  0  0  0  0  0  0  0  0  0  0  0
    2.5310    6.4977    0.9572 C   0  0  0  0  0  0  0  0  0  0  0  0
  1  2  2  0
  2  3  1  0
  3  4  1  0
  4  5  1  0
  5  6  1  0
  6  7  1  0
  7  8  1  0
  8  9  1  0
  9 10  1  0
 10 11  2  0
 11 12  1  0
 12 13  1  0
 13 14  2  0
 14 10  1  0
 14 15  1  0
 15 16  1  0
 16 17  1  0
 17 18  1  0
 18 13  1  0
  8 19  1  0
 19 20  1  0
 20  6  1  0
  5 21  1  0
 21 22  1  0
 22 23  1  0
 23  3  1  0
  2 24  1  0
 24 25  1  0
 25 26  1  0
 26 27  2  0
 27 28  1  0
 28 29  2  0
 29 30  1  0
 30 31  2  0
 31 26  1  0
 27 32  1  0
 32 33  2  0
 32 34  1  0
 24 34  2  0
M  CHG  1   8   1
M  END
$$$$
m_275030____14114236____14125676____14147992
     RDKit          3D

 36 41  0  0  0  0  0  0  0  0999 V2000
    2.8714    6.5744   -1.0397 O   0  0  0  0  0  0  0  0  0  0  0  0
    1.8529    6.0350   -1.3737 C   0  0  0  0  0  0  0  0  0  0  0  0
    1.4362    4.8577   -0.7277 N   0  0  0  0  0  0  0  0  0  0  0  0
    2.2250    4.2622    0.3599 C   0  0  0  0  0  0  0  0  0  0  0  0
    1.2837    3.5185    1.2939 C   0  0  0  0  0  0  0  0  0  0  0  0
    2.0264    3.0056    2.5174 C   0  0  0  0  0  0  0  0  0  0  0  0
    2.1200    1.4943    2.4902 C   0  0  0  0  0  0  0  0  0  0  0  0
    3.2207    1.2161    3.4213 N   0  0  0  0  0  0  0  0  0  0  0  0
    3.7451   -0.1319    3.1570 C   0  0  0  0  0  0  0  0  0  0  0  0
    4.4555   -0.6512    4.3964 C   0  0  0  0  0  0  0  0  0  0  0  0
    3.9932   -0.4438    5.4841 O   0  0  0  0  0  0  0  0  0  0  0  0
    5.6499   -1.3719    4.2688 N   0  0  0  0  0  0  0  0  0  0  0  0
    6.9510   -0.7029    4.4331 C   0  0  0  0  0  0  0  0  0  0  0  0
    6.8646    0.5353    5.3115 C   0  0  0  0  0  0  0  0  0  0  0  0
    7.7197    1.6417    4.7662 C   0  0  0  0  0  0  0  0  0  0  0  0
    8.1741    0.8649    5.9685 C   0  0  0  0  0  0  0  0  0  0  0  0
    7.9181   -1.6759    5.0898 C   0  0  0  0  0  0  0  0  0  0  0  0
    7.9394   -2.9171    4.3981 O   0  0  0  0  0  0  0  0  0  0  0  0
    6.6983   -3.5858    4.5873 C   0  0  0  0  0  0  0  0  0  0  0  0
    5.5486   -2.8080    3.9650 C   0  0  0  0  0  0  0  0  0  0  0  0
    4.2351    2.2138    3.0607 C   0  0  0  0  0  0  0  0  0  0  0  0
    3.4945    3.3904    2.4629 C   0  0  0  0  0  0  0  0  0  0  0  0
    0.7322    2.3180    0.5431 C   0  0  0  0  0  0  0  0  0  0  0  0
    0.3716    2.6597   -0.8950 C   0  0  0  0  0  0  0  0  0  0  0  0
    0.1987    4.1567   -1.0999 C   0  0  0  0  0  0  0  0  0  0  0  0
    1.0521    6.5972   -2.4431 C   0  0  0  0  0  0  0  0  0  0  0  0
   -0.2393    6.9783   -2.1861 N   0  0  0  0  0  0  0  0  0  0  0  0
   -1.0255    7.5141   -3.1720 C   0  0  0  0  0  0  0  0  0  0  0  0
   -2.1684    7.8346   -2.8839 O   0  0  0  0  0  0  0  0  0  0  0  0
   -0.4926    7.6777   -4.4820 C   0  0  0  0  0  0  0  0  0  0  0  0
    0.8186    7.2875   -4.7328 C   0  0  0  0  0  0  0  0  0  0  0  0
    1.3812    7.4277   -5.9974 C   0  0  0  0  0  0  0  0  0  0  0  0
    0.6160    7.9683   -7.0253 C   0  0  0  0  0  0  0  0  0  0  0  0
   -0.6979    8.3682   -6.8051 C   0  0  0  0  0  0  0  0  0  0  0  0
   -1.2337    8.2156   -5.5312 C   0  0  0  0  0  0  0  0  0  0  0  0
    1.6074    6.7352   -3.6884 C   0  0  0  0  0  0  0  0  0  0  0  0
  1  2  2  0
  2  3  1  0
  3  4  1  0
  4  5  1  0
  5  6  1  0
  6  7  1  0
  7  8  1  0
  8  9  1  0
  9 10  1  0
 10 11  2  0
 10 12  1  0
 12 13  1  0
 13 14  1  0
 14 15  1  0
 15 16  1  0
 16 14  1  0
 13 17  1  0
 17 18  1  0
 18 19  1  0
 19 20  1  0
 20 12  1  0
  8 21  1  0
 21 22  1  0
 22  6  1  0
  5 23  1  0
 23 24  1  0
 24 25  1  0
 25  3  1  0
  2 26  1  0
 26 27  1  0
 27 28  1  0
 28 29  2  0
 28 30  1  0
 30 31  2  0
 31 32  1  0
 32 33  2  0
 33 34  1  0
 34 35  2  0
 35 30  1  0
 31 36  1  0
 26 36  2  0
M  CHG  1   8   1
M  END
$$$$
m_275030____14114032____14125676____14148072
     RDKit          3D

 37 41  0  0  0  0  0  0  0  0999 V2000
    1.3658    2.8711   -4.7152 S   0  0  0  0  0  0  0  0  0  0  0  0
    0.9189    4.2371   -4.8030 O   0  0  0  0  0  0  0  0  0  0  0  0
    2.7323    2.7834   -5.1608 O   0  0  0  0  0  0  0  0  0  0  0  0
    1.2590    2.3320   -3.0645 C   0  0  0  0  0  0  0  0  0  0  0  0
    0.7932    3.1993   -2.0822 C   0  0  0  0  0  0  0  0  0  0  0  0
    0.7070    2.7706   -0.7615 C   0  0  0  0  0  0  0  0  0  0  0  0
    1.0912    1.4728   -0.4415 C   0  0  0  0  0  0  0  0  0  0  0  0
    1.5575    0.6061   -1.4245 C   0  0  0  0  0  0  0  0  0  0  0  0
    1.6433    1.0338   -2.7448 C   0  0  0  0  0  0  0  0  0  0  0  0
    1.0000    1.0000    1.0000 C   0  0  0  0  0  0  0  0  0  0  0  0
    1.8489    1.8489    1.8489 N   0  0  0  0  0  0  0  0  0  0  0  0
    1.5132    1.6532    3.2564 C   0  0  0  0  0  0  0  0  0  0  0  0
    2.7279    2.1873    3.9836 C   0  0  0  0  0  0  0  0  0  0  0  0
    2.7874    1.6282    5.3957 C   0  0  0  0  0  0  0  0  0  0  0  0
    1.4707    1.8248    6.1332 C   0  0  0  0  0  0  0  0  0  0  0  0
    1.3958    3.1990    6.7810 C   0  0  0  0  0  0  0  0  0  0  0  0
    2.3982    3.2214    7.8547 N   0  0  0  0  0  0  0  0  0  0  0  0
    2.2247    3.9991    9.0124 C   0  0  0  0  0  0  0  0  0  0  0  0
    1.2374    4.6685    9.1433 O   0  0  0  0  0  0  0  0  0  0  0  0
    3.2385    3.9927   10.0483 C   0  0  0  0  0  0  0  0  0  0  0  0
    3.5577    2.8127   10.6685 N   0  0  0  0  0  0  0  0  0  0  0  0
    4.5113    2.7684   11.6513 C   0  0  0  0  0  0  0  0  0  0  0  0
    4.7528    1.6884   12.1683 O   0  0  0  0  0  0  0  0  0  0  0  0
    5.1804    3.9656   12.0331 C   0  0  0  0  0  0  0  0  0  0  0  0
    4.8491    5.1579   11.3982 C   0  0  0  0  0  0  0  0  0  0  0  0
    5.4759    6.3523   11.7389 C   0  0  0  0  0  0  0  0  0  0  0  0
    6.4503    6.3492   12.7313 C   0  0  0  0  0  0  0  0  0  0  0  0
    6.8035    5.1727   13.3837 C   0  0  0  0  0  0  0  0  0  0  0  0
    6.1598    3.9944   13.0227 C   0  0  0  0  0  0  0  0  0  0  0  0
    3.8556    5.1698   10.3829 C   0  0  0  0  0  0  0  0  0  0  0  0
    3.5913    2.3916    7.6540 C   0  0  0  0  0  0  0  0  0  0  0  0
    3.8664    2.3843    6.1562 C   0  0  0  0  0  0  0  0  0  0  0  0
    3.8477    1.6133    3.1335 C   0  0  0  0  0  0  0  0  0  0  0  0
    3.2291    1.3519    1.7700 C   0  0  0  0  0  0  0  0  0  0  0  0
    0.3218    1.8263   -5.7614 C   0  0  0  0  0  0  0  0  0  0  0  0
   -1.1206    1.9188   -5.2910 C   0  0  0  0  0  0  0  0  0  0  0  0
    0.4158    2.2985   -7.2032 C   0  0  0  0  0  0  0  0  0  0  0  0
  1  2  2  0
  1  3  2  0
  1  4  1  0
  4  5  2  0
  5  6  1  0
  6  7  2  0
  7  8  1  0
  8  9  2  0
  9  4  1  0
  7 10  1  0
 10 11  1  0
 11 12  1  0
 12 13  1  0
 13 14  1  0
 14 15  1  0
 15 16  1  0
 16 17  1  0
 17 18  1  0
 18 19  2  0
 18 20  1  0
 20 21  1  0
 21 22  1  0
 22 23  2  0
 22 24  1  0
 24 25  2  0
 25 26  1  0
 26 27  2  0
 27 28  1  0
 28 29  2  0
 29 24  1  0
 25 30  1  0
 20 30  2  0
 17 31  1  0
 31 32  1  0
 32 14  1  0
 13 33  1  0
 33 34  1  0
 34 11  1  0
  1 35  1  0
 35 36  1  0
 35 37  1  0
M  CHG  1  11   1
M  END
$$$$
m_275030____14114032____14125180____12659436
     RDKit          3D

 35 40  0  0  0  0  0  0  0  0999 V2000
   -3.0138    4.9918   -0.6904 O   0  0  0  0  0  0  0  0  0  0  0  0
   -2.0017    5.5851   -0.4384 C   0  0  0  0  0  0  0  0  0  0  0  0
   -0.8781    4.8890    0.0152 N   0  0  0  0  0  0  0  0  0  0  0  0
   -0.9789    3.4285    0.1699 C   0  0  0  0  0  0  0  0  0  0  0  0
   -0.1140    2.9157    1.3131 C   0  0  0  0  0  0  0  0  0  0  0  0
    1.2837    3.5185    1.2940 C   0  0  0  0  0  0  0  0  0  0  0  0
    2.0264    3.0056    2.5174 C   0  0  0  0  0  0  0  0  0  0  0  0
    2.1200    1.4943    2.4902 C   0  0  0  0  0  0  0  0  0  0  0  0
    3.2207    1.2161    3.4213 N   0  0  0  0  0  0  0  0  0  0  0  0
    3.7451   -0.1319    3.1570 C   0  0  0  0  0  0  0  0  0  0  0  0
    2.6373   -1.1545    3.3544 C   0  0  0  0  0  0  0  0  0  0  0  0
    1.8065   -1.5771    2.4336 N   0  0  0  0  0  0  0  0  0  0  0  0
    0.9879   -2.4530    2.9690 N   0  0  0  0  0  0  0  0  0  0  0  0
    1.2720   -2.6251    4.2899 C   0  0  0  0  0  0  0  0  0  0  0  0
    2.3249   -1.8069    4.5677 C   0  0  0  0  0  0  0  0  0  0  0  0
   -0.0860   -3.1494    2.2466 C   0  0  0  0  0  0  0  0  0  0  0  0
    0.1011   -4.6527    2.2759 C   0  0  0  0  0  0  0  0  0  0  0  0
   -0.7699   -5.1577    1.1419 C   0  0  0  0  0  0  0  0  0  0  0  0
   -0.8460   -4.0089    0.1581 C   0  0  0  0  0  0  0  0  0  0  0  0
   -0.0164   -2.8836    0.7549 C   0  0  0  0  0  0  0  0  0  0  0  0
    4.2351    2.2138    3.0607 C   0  0  0  0  0  0  0  0  0  0  0  0
    3.4945    3.3904    2.4629 C   0  0  0  0  0  0  0  0  0  0  0  0
    1.1428    5.0259    1.4514 C   0  0  0  0  0  0  0  0  0  0  0  0
    0.3433    5.6533    0.3178 C   0  0  0  0  0  0  0  0  0  0  0  0
   -1.9444    7.0251   -0.6046 C   0  0  0  0  0  0  0  0  0  0  0  0
   -1.5480    7.6488   -1.8219 C   0  0  0  0  0  0  0  0  0  0  0  0
   -1.5129    9.0382   -1.9170 C   0  0  0  0  0  0  0  0  0  0  0  0
   -1.1226    9.6336   -3.1147 C   0  0  0  0  0  0  0  0  0  0  0  0
   -0.7649    8.8773   -4.2259 C   0  0  0  0  0  0  0  0  0  0  0  0
   -0.7987    7.4893   -4.1349 C   0  0  0  0  0  0  0  0  0  0  0  0
   -1.1880    6.8970   -2.9382 C   0  0  0  0  0  0  0  0  0  0  0  0
   -1.8812    9.8089   -0.7777 C   0  0  0  0  0  0  0  0  0  0  0  0
   -1.8766   11.0312   -0.7833 O   0  0  0  0  0  0  0  0  0  0  0  0
   -2.2582    9.1747    0.3778 N   0  0  0  0  0  0  0  0  0  0  0  0
   -2.2899    7.8071    0.4667 C   0  0  0  0  0  0  0  0  0  0  0  0
  1  2  2  0
  2  3  1  0
  3  4  1  0
  4  5  1  0
  5  6  1  0
  6  7  1  0
  7  8  1  0
  8  9  1  0
  9 10  1  0
 10 11  1  0
 11 12  2  0
 12 13  1  0
 13 14  1  0
 14 15  2  0
 15 11  1  0
 13 16  1  0
 16 17  1  0
 17 18  1  0
 18 19  1  0
 19 20  1  0
 20 16  1  0
  9 21  1  0
 21 22  1  0
 22  7  1  0
  6 23  1  0
 23 24  1  0
 24  3  1  0
  2 25  1  0
 25 26  1  0
 26 27  1  0
 27 28  2  0
 28 29  1  0
 29 30  2  0
 30 31  1  0
 31 26  2  0
 27 32  1  0
 32 33  2  0
 32 34  1  0
 34 35  1  0
 25 35  2  0
M  CHG  1   9   1
M  END
$$$$
m_275030____14114236____14126114____14148682
     RDKit          3D

 34 38  0  0  0  0  0  0  0  0999 V2000
   -2.8052    3.2850    1.0943 O   0  0  0  0  0  0  0  0  0  0  0  0
   -2.2120    3.3201    0.0518 C   0  0  0  0  0  0  0  0  0  0  0  0
   -0.8239    3.1462    0.0305 N   0  0  0  0  0  0  0  0  0  0  0  0
   -0.1168    2.9217    1.3024 C   0  0  0  0  0  0  0  0  0  0  0  0
    1.2837    3.5185    1.2939 C   0  0  0  0  0  0  0  0  0  0  0  0
    2.0264    3.0056    2.5174 C   0  0  0  0  0  0  0  0  0  0  0  0
    2.1200    1.4943    2.4902 C   0  0  0  0  0  0  0  0  0  0  0  0
    3.2207    1.2161    3.4213 N   0  0  0  0  0  0  0  0  0  0  0  0
    3.7451   -0.1319    3.1570 C   0  0  0  0  0  0  0  0  0  0  0  0
    4.7553   -0.5018    4.2300 C   0  0  0  0  0  0  0  0  0  0  0  0
    4.5676   -0.4014    5.5758 N   0  0  0  0  0  0  0  0  0  0  0  0
    5.6259   -0.7968    6.1411 N   0  0  0  0  0  0  0  0  0  0  0  0
    6.5235   -1.1612    5.2589 N   0  0  0  0  0  0  0  0  0  0  0  0
    6.0060   -0.9882    4.0142 C   0  0  0  0  0  0  0  0  0  0  0  0
    7.8683   -1.6706    5.5645 C   0  0  0  0  0  0  0  0  0  0  0  0
    8.3121   -2.6210    4.4643 C   0  0  0  0  0  0  0  0  0  0  0  0
    8.8427   -0.5075    5.6529 C   0  0  0  0  0  0  0  0  0  0  0  0
    7.8403   -2.4102    6.8921 C   0  0  0  0  0  0  0  0  0  0  0  0
    4.2351    2.2138    3.0607 C   0  0  0  0  0  0  0  0  0  0  0  0
    3.4945    3.3904    2.4629 C   0  0  0  0  0  0  0  0  0  0  0  0
    2.0476    3.1798    0.0216 C   0  0  0  0  0  0  0  0  0  0  0  0
    1.2704    3.7787   -1.1433 C   0  0  0  0  0  0  0  0  0  0  0  0
   -0.1322    3.1995   -1.2683 C   0  0  0  0  0  0  0  0  0  0  0  0
   -2.9326    3.5425   -1.1838 C   0  0  0  0  0  0  0  0  0  0  0  0
   -2.6433    4.6265   -1.9717 N   0  0  0  0  0  0  0  0  0  0  0  0
   -3.3166    4.8527   -3.1441 C   0  0  0  0  0  0  0  0  0  0  0  0
   -4.3138    3.9717   -3.5534 C   0  0  0  0  0  0  0  0  0  0  0  0
   -4.9843    4.2212   -4.7481 C   0  0  0  0  0  0  0  0  0  0  0  0
   -4.6819    5.3241   -5.5385 C   0  0  0  0  0  0  0  0  0  0  0  0
   -3.6822    6.1917   -5.1131 C   0  0  0  0  0  0  0  0  0  0  0  0
   -3.0003    5.9611   -3.9233 C   0  0  0  0  0  0  0  0  0  0  0  0
   -4.6178    2.8448   -2.7389 C   0  0  0  0  0  0  0  0  0  0  0  0
   -5.4811    2.0332   -3.0375 O   0  0  0  0  0  0  0  0  0  0  0  0
   -3.9024    2.6387   -1.5297 C   0  0  0  0  0  0  0  0  0  0  0  0
  1  2  2  0
  2  3  1  0
  3  4  1  0
  4  5  1  0
  5  6  1  0
  6  7  1  0
  7  8  1  0
  8  9  1  0
  9 10  1  0
 10 11  1  0
 11 12  2  0
 12 13  1  0
 13 14  1  0
 10 14  2  0
 13 15  1  0
 15 16  1  0
 15 17  1  0
 15 18  1  0
  8 19  1  0
 19 20  1  0
 20  6  1  0
  5 21  1  0
 21 22  1  0
 22 23  1  0
 23  3  1  0
  2 24  1  0
 24 25  1  0
 25 26  1  0
 26 27  2  0
 27 28  1  0
 28 29  2  0
 29 30  1  0
 30 31  2  0
 31 26  1  0
 27 32  1  0
 32 33  2  0
 32 34  1  0
 24 34  2  0
M  CHG  1   8   1
M  END
$$$$
m_275030____14114218____14127584____14147198
     RDKit          3D

 37 42  0  0  0  0  0  0  0  0999 V2000
   -2.1868   -3.8155   10.7500 F   0  0  0  0  0  0  0  0  0  0  0  0
   -1.0967   -4.0293   10.0136 C   0  0  0  0  0  0  0  0  0  0  0  0
   -1.0081   -3.6136    8.6865 C   0  0  0  0  0  0  0  0  0  0  0  0
    0.1273   -3.8381    7.9106 C   0  0  0  0  0  0  0  0  0  0  0  0
    1.1787   -4.4976    8.4983 C   0  0  0  0  0  0  0  0  0  0  0  0
    2.1722   -4.6199    7.5737 N   0  0  0  0  0  0  0  0  0  0  0  0
    1.7919   -4.0558    6.3933 C   0  0  0  0  0  0  0  0  0  0  0  0
    0.5344   -3.5699    6.5836 C   0  0  0  0  0  0  0  0  0  0  0  0
   -0.2953   -2.8524    5.5297 C   0  0  0  0  0  0  0  0  0  0  0  0
   -0.2167   -1.3517    5.7580 C   0  0  0  0  0  0  0  0  0  0  0  0
   -0.8973   -0.8367    6.6014 O   0  0  0  0  0  0  0  0  0  0  0  0
    0.6494   -0.5709    4.9848 N   0  0  0  0  0  0  0  0  0  0  0  0
    0.6969    0.8786    5.2362 C   0  0  0  0  0  0  0  0  0  0  0  0
    2.1353    1.3607    5.0831 C   0  0  0  0  0  0  0  0  0  0  0  0
    2.7954    0.9440    3.7731 C   0  0  0  0  0  0  0  0  0  0  0  0
    4.1972    1.5285    3.7120 C   0  0  0  0  0  0  0  0  0  0  0  0
    4.2117    3.0499    3.6427 C   0  0  0  0  0  0  0  0  0  0  0  0
    3.4150    3.5527    2.5118 N   0  0  0  0  0  0  0  0  0  0  0  0
    3.3966    5.0220    2.5085 C   0  0  0  0  0  0  0  0  0  0  0  0
    2.5689    5.5157    1.3331 C   0  0  0  0  0  0  0  0  0  0  0  0
    2.5505    6.9852    1.3298 N   0  0  0  0  0  0  0  0  0  0  0  0
    3.4797    7.7899    0.6709 C   0  0  0  0  0  0  0  0  0  0  0  0
    4.4257    7.3793    0.0157 O   0  0  0  0  0  0  0  0  0  0  0  0
    3.1688    9.1363    0.8631 N   0  0  0  0  0  0  0  0  0  0  0  0
    1.9727    9.1964    1.7102 C   0  0  0  0  0  0  0  0  0  0  0  0
    1.5974    7.7580    1.9930 C   0  0  0  0  0  0  0  0  0  0  0  0
    0.6527    7.3523    2.6604 O   0  0  0  0  0  0  0  0  0  0  0  0
    0.7871    9.9817    1.1891 C   0  0  0  0  0  0  0  0  0  0  0  0
    1.2071   11.4309    1.3297 C   0  0  0  0  0  0  0  0  0  0  0  0
    2.0451   11.4317    2.5912 C   0  0  0  0  0  0  0  0  0  0  0  0
    2.1461    9.9744    2.9947 C   0  0  0  0  0  0  0  0  0  0  0  0
    2.0514    3.0008    2.4747 C   0  0  0  0  0  0  0  0  0  0  0  0
    2.1111    1.4801    2.5222 C   0  0  0  0  0  0  0  0  0  0  0  0
    2.8470   -0.5787    3.7947 C   0  0  0  0  0  0  0  0  0  0  0  0
    1.4816   -1.2387    3.9675 C   0  0  0  0  0  0  0  0  0  0  0  0
    1.1221   -4.9214    9.8221 C   0  0  0  0  0  0  0  0  0  0  0  0
   -0.0148   -4.6893   10.5877 C   0  0  0  0  0  0  0  0  0  0  0  0
  1  2  1  0
  2  3  2  0
  3  4  1  0
  4  5  2  0
  5  6  1  0
  6  7  1  0
  7  8  2  0
  8  4  1  0
  8  9  1  0
  9 10  1  0
 10 11  2  0
 10 12  1  0
 12 13  1  0
 13 14  1  0
 14 15  1  0
 15 16  1  0
 16 17  1  0
 17 18  1  0
 18 19  1  0
 19 20  1  0
 20 21  1  0
 21 22  1  0
 22 23  2  0
 22 24  1  0
 24 25  1  0
 25 26  1  0
 26 21  1  0
 26 27  2  0
 25 28  1  0
 28 29  1  0
 29 30  1  0
 30 31  1  0
 31 25  1  0
 18 32  1  0
 32 33  1  0
 33 15  1  0
 15 34  1  0
 34 35  1  0
 35 12  1  0
  5 36  1  0
 36 37  2  0
 37  2  1  0
M  CHG  1  18   1
M  END
$$$$
m_275030____14114218____14124522____14147198
     RDKit          3D

 38 43  0  0  0  0  0  0  0  0999 V2000
    4.4257    7.3793    0.0157 O   0  0  0  0  0  0  0  0  0  0  0  0
    3.4797    7.7899    0.6709 C   0  0  0  0  0  0  0  0  0  0  0  0
    2.5505    6.9852    1.3298 N   0  0  0  0  0  0  0  0  0  0  0  0
    1.5974    7.7580    1.9930 C   0  0  0  0  0  0  0  0  0  0  0  0
    0.6527    7.3523    2.6604 O   0  0  0  0  0  0  0  0  0  0  0  0
    1.9727    9.1964    1.7102 C   0  0  0  0  0  0  0  0  0  0  0  0
    3.1688    9.1363    0.8631 N   0  0  0  0  0  0  0  0  0  0  0  0
    0.7871    9.9817    1.1891 C   0  0  0  0  0  0  0  0  0  0  0  0
    1.2071   11.4309    1.3297 C   0  0  0  0  0  0  0  0  0  0  0  0
    2.0451   11.4317    2.5912 C   0  0  0  0  0  0  0  0  0  0  0  0
    2.1461    9.9744    2.9947 C   0  0  0  0  0  0  0  0  0  0  0  0
    2.5689    5.5157    1.3331 C   0  0  0  0  0  0  0  0  0  0  0  0
    3.3966    5.0220    2.5085 C   0  0  0  0  0  0  0  0  0  0  0  0
    3.4150    3.5527    2.5118 N   0  0  0  0  0  0  0  0  0  0  0  0
    4.2117    3.0499    3.6427 C   0  0  0  0  0  0  0  0  0  0  0  0
    4.1972    1.5285    3.7120 C   0  0  0  0  0  0  0  0  0  0  0  0
    2.7954    0.9440    3.7731 C   0  0  0  0  0  0  0  0  0  0  0  0
    2.1111    1.4801    2.5222 C   0  0  0  0  0  0  0  0  0  0  0  0
    2.0514    3.0008    2.4747 C   0  0  0  0  0  0  0  0  0  0  0  0
    2.1353    1.3607    5.0831 C   0  0  0  0  0  0  0  0  0  0  0  0
    0.6969    0.8786    5.2362 C   0  0  0  0  0  0  0  0  0  0  0  0
    0.6494   -0.5709    4.9848 N   0  0  0  0  0  0  0  0  0  0  0  0
   -0.2167   -1.3517    5.7580 C   0  0  0  0  0  0  0  0  0  0  0  0
   -0.9777   -0.8258    6.5223 O   0  0  0  0  0  0  0  0  0  0  0  0
   -0.1946   -2.7982    5.6356 C   0  0  0  0  0  0  0  0  0  0  0  0
   -1.0003   -3.4673    4.7194 C   0  0  0  0  0  0  0  0  0  0  0  0
   -0.9679   -4.8049    4.6217 N   0  0  0  0  0  0  0  0  0  0  0  0
   -0.1632   -5.5474    5.3976 C   0  0  0  0  0  0  0  0  0  0  0  0
   -0.1273   -6.9929    5.2906 C   0  0  0  0  0  0  0  0  0  0  0  0
    0.2368   -7.7568    6.3947 C   0  0  0  0  0  0  0  0  0  0  0  0
    0.2708   -9.1433    6.2874 C   0  0  0  0  0  0  0  0  0  0  0  0
   -0.0590   -9.7560    5.0830 C   0  0  0  0  0  0  0  0  0  0  0  0
   -0.4216   -8.9829    3.9870 C   0  0  0  0  0  0  0  0  0  0  0  0
   -0.4589   -7.5956    4.0813 C   0  0  0  0  0  0  0  0  0  0  0  0
    0.6660   -4.9377    6.3336 C   0  0  0  0  0  0  0  0  0  0  0  0
    0.6462   -3.5517    6.4485 C   0  0  0  0  0  0  0  0  0  0  0  0
    1.4816   -1.2387    3.9675 C   0  0  0  0  0  0  0  0  0  0  0  0
    2.8470   -0.5787    3.7947 C   0  0  0  0  0  0  0  0  0  0  0  0
  1  2  2  0
  2  3  1  0
  3  4  1  0
  4  5  2  0
  4  6  1  0
  6  7  1  0
  7  2  1  0
  6  8  1  0
  8  9  1  0
  9 10  1  0
 10 11  1  0
 11  6  1  0
  3 12  1  0
 12 13  1  0
 13 14  1  0
 14 15  1  0
 15 16  1  0
 16 17  1  0
 17 18  1  0
 18 19  1  0
 19 14  1  0
 17 20  1  0
 20 21  1  0
 21 22  1  0
 22 23  1  0
 23 24  2  0
 23 25  1  0
 25 26  2  0
 26 27  1  0
 27 28  2  0
 28 29  1  0
 29 30  2  0
 30 31  1  0
 31 32  2  0
 32 33  1  0
 33 34  2  0
 34 29  1  0
 28 35  1  0
 35 36  2  0
 36 25  1  0
 22 37  1  0
 37 38  1  0
 38 17  1  0
M  CHG  1  14   1
M  END
$$$$
m_275030____14114032____14125676____14146770
     RDKit          3D

 38 43  0  0  0  0  0  0  0  0999 V2000
    8.6056   -0.3903    5.0489 S   0  0  0  0  0  0  0  0  0  0  0  0
    9.0708   -1.1188    6.2006 O   0  0  0  0  0  0  0  0  0  0  0  0
    9.2242   -0.9223    3.8624 O   0  0  0  0  0  0  0  0  0  0  0  0
    9.0291    1.3097    5.2195 N   0  0  0  0  0  0  0  0  0  0  0  0
    8.5803    2.1039    4.0743 C   0  0  0  0  0  0  0  0  0  0  0  0
    9.3541    3.3938    4.2102 C   0  0  0  0  0  0  0  0  0  0  0  0
   10.6329    2.9963    4.9195 C   0  0  0  0  0  0  0  0  0  0  0  0
   10.4829    1.5135    5.2024 C   0  0  0  0  0  0  0  0  0  0  0  0
    6.8774   -0.5475    4.9222 C   0  0  0  0  0  0  0  0  0  0  0  0
    6.1529   -0.1693    3.8958 O   0  0  0  0  0  0  0  0  0  0  0  0
    4.8857   -0.4290    4.1167 C   0  0  0  0  0  0  0  0  0  0  0  0
    4.7570   -1.0053    5.3431 C   0  0  0  0  0  0  0  0  0  0  0  0
    6.0639   -1.0843    5.8718 C   0  0  0  0  0  0  0  0  0  0  0  0
    3.7451   -0.1319    3.1570 C   0  0  0  0  0  0  0  0  0  0  0  0
    3.2207    1.2161    3.4213 N   0  0  0  0  0  0  0  0  0  0  0  0
    2.1200    1.4943    2.4902 C   0  0  0  0  0  0  0  0  0  0  0  0
    2.0264    3.0056    2.5174 C   0  0  0  0  0  0  0  0  0  0  0  0
    1.2837    3.5185    1.2940 C   0  0  0  0  0  0  0  0  0  0  0  0
   -0.1140    2.9157    1.3131 C   0  0  0  0  0  0  0  0  0  0  0  0
   -0.9789    3.4285    0.1699 C   0  0  0  0  0  0  0  0  0  0  0  0
   -0.8781    4.8890    0.0152 N   0  0  0  0  0  0  0  0  0  0  0  0
   -2.0017    5.5851   -0.4384 C   0  0  0  0  0  0  0  0  0  0  0  0
   -3.0138    4.9918   -0.6904 O   0  0  0  0  0  0  0  0  0  0  0  0
   -1.9445    7.0239   -0.6045 C   0  0  0  0  0  0  0  0  0  0  0  0
   -1.6665    7.8147    0.4801 N   0  0  0  0  0  0  0  0  0  0  0  0
   -1.6035    9.1781    0.3605 C   0  0  0  0  0  0  0  0  0  0  0  0
   -1.3526    9.8310    1.3620 O   0  0  0  0  0  0  0  0  0  0  0  0
   -1.8296    9.7816   -0.9089 C   0  0  0  0  0  0  0  0  0  0  0  0
   -2.1113    8.9706   -2.0031 C   0  0  0  0  0  0  0  0  0  0  0  0
   -2.3399    9.5160   -3.2624 C   0  0  0  0  0  0  0  0  0  0  0  0
   -2.2840   10.8960   -3.4255 C   0  0  0  0  0  0  0  0  0  0  0  0
   -2.0040   11.7329   -2.3504 C   0  0  0  0  0  0  0  0  0  0  0  0
   -1.7805   11.1597   -1.1035 C   0  0  0  0  0  0  0  0  0  0  0  0
   -2.1694    7.5600   -1.8456 C   0  0  0  0  0  0  0  0  0  0  0  0
    0.3433    5.6533    0.3178 C   0  0  0  0  0  0  0  0  0  0  0  0
    1.1428    5.0259    1.4514 C   0  0  0  0  0  0  0  0  0  0  0  0
    3.4945    3.3904    2.4629 C   0  0  0  0  0  0  0  0  0  0  0  0
    4.2351    2.2138    3.0607 C   0  0  0  0  0  0  0  0  0  0  0  0
  1  2  2  0
  1  3  2  0
  1  4  1  0
  4  5  1  0
  5  6  1  0
  6  7  1  0
  7  8  1  0
  8  4  1  0
  1  9  1  0
  9 10  1  0
 10 11  1  0
 11 12  2  0
 12 13  1  0
  9 13  2  0
 11 14  1  0
 14 15  1  0
 15 16  1  0
 16 17  1  0
 17 18  1  0
 18 19  1  0
 19 20  1  0
 20 21  1  0
 21 22  1  0
 22 23  2  0
 22 24  1  0
 24 25  1  0
 25 26  1  0
 26 27  2  0
 26 28  1  0
 28 29  2  0
 29 30  1  0
 30 31  2  0
 31 32  1  0
 32 33  2  0
 33 28  1  0
 29 34  1  0
 24 34  2  0
 21 35  1  0
 35 36  1  0
 36 18  1  0
 17 37  1  0
 37 38  1  0
 38 15  1  0
M  CHG  1  15   1
M  END
$$$$
m_275030____14114100____14125676____14147664
     RDKit          3D

 38 42  0  0  0  0  0  0  0  0999 V2000
   -0.5116   -0.1002   -2.1453 O   0  0  0  0  0  0  0  0  0  0  0  0
    0.3216   -0.6728   -1.4989 C   0  0  0  0  0  0  0  0  0  0  0  0
    1.5106   -0.0552   -1.2126 N   0  0  0  0  0  0  0  0  0  0  0  0
    1.8770    0.1547    0.0907 C   0  0  0  0  0  0  0  0  0  0  0  0
    2.8903   -0.3287    0.5144 O   0  0  0  0  0  0  0  0  0  0  0  0
    1.0000    1.0000    1.0000 C   0  0  0  0  0  0  0  0  0  0  0  0
    1.8516    1.8516    1.8516 N   0  0  0  0  0  0  0  0  0  0  0  0
    2.3986    2.9640    1.0606 C   0  0  0  0  0  0  0  0  0  0  0  0
    3.3099    3.8317    1.9135 C   0  0  0  0  0  0  0  0  0  0  0  0
    2.5465    4.3668    3.1143 C   0  0  0  0  0  0  0  0  0  0  0  0
    3.4569    5.2158    3.9910 C   0  0  0  0  0  0  0  0  0  0  0  0
    4.3358    4.3395    4.8692 C   0  0  0  0  0  0  0  0  0  0  0  0
    5.0870    5.2011    5.7927 N   0  0  0  0  0  0  0  0  0  0  0  0
    5.4921    4.7398    7.0577 C   0  0  0  0  0  0  0  0  0  0  0  0
    5.2254    3.6218    7.4023 O   0  0  0  0  0  0  0  0  0  0  0  0
    6.2319    5.6147    7.9453 C   0  0  0  0  0  0  0  0  0  0  0  0
    5.6631    6.7926    8.3552 N   0  0  0  0  0  0  0  0  0  0  0  0
    6.3324    7.6440    9.1946 C   0  0  0  0  0  0  0  0  0  0  0  0
    5.7752    8.6794    9.5253 O   0  0  0  0  0  0  0  0  0  0  0  0
    7.6372    7.2994    9.6478 C   0  0  0  0  0  0  0  0  0  0  0  0
    8.2059    6.1023    9.2259 C   0  0  0  0  0  0  0  0  0  0  0  0
    9.4785    5.7246    9.6422 C   0  0  0  0  0  0  0  0  0  0  0  0
   10.1903    6.5612   10.4953 C   0  0  0  0  0  0  0  0  0  0  0  0
    9.6480    7.7642   10.9347 C   0  0  0  0  0  0  0  0  0  0  0  0
    8.3744    8.1158   10.5017 C   0  0  0  0  0  0  0  0  0  0  0  0
    7.4854    5.2416    8.3552 C   0  0  0  0  0  0  0  0  0  0  0  0
    5.3901    6.5602    5.3213 C   0  0  0  0  0  0  0  0  0  0  0  0
    5.5887    6.5516    3.8136 C   0  0  0  0  0  0  0  0  0  0  0  0
    4.3650    6.0239    3.0793 C   0  0  0  0  0  0  0  0  0  0  0  0
    2.0060    3.1883    3.9082 C   0  0  0  0  0  0  0  0  0  0  0  0
    1.1106    2.3315    3.0275 C   0  0  0  0  0  0  0  0  0  0  0  0
    0.0840   -1.9442   -1.0472 N   0  0  0  0  0  0  0  0  0  0  0  0
   -1.1915   -2.6068   -1.3544 C   0  0  0  0  0  0  0  0  0  0  0  0
   -0.9379   -3.8809   -2.1436 C   0  0  0  0  0  0  0  0  0  0  0  0
   -2.2560   -4.5677   -2.4628 C   0  0  0  0  0  0  0  0  0  0  0  0
   -3.0004   -4.8912   -1.1775 C   0  0  0  0  0  0  0  0  0  0  0  0
   -3.2555   -3.6171   -0.3885 C   0  0  0  0  0  0  0  0  0  0  0  0
   -1.9373   -2.9302   -0.0699 C   0  0  0  0  0  0  0  0  0  0  0  0
  1  2  2  0
  2  3  1  0
  3  4  1  0
  4  5  2  0
  4  6  1  0
  6  7  1  0
  7  8  1  0
  8  9  1  0
  9 10  1  0
 10 11  1  0
 11 12  1  0
 12 13  1  0
 13 14  1  0
 14 15  2  0
 14 16  1  0
 16 17  1  0
 17 18  1  0
 18 19  2  0
 18 20  1  0
 20 21  2  0
 21 22  1  0
 22 23  2  0
 23 24  1  0
 24 25  2  0
 25 20  1  0
 21 26  1  0
 16 26  2  0
 13 27  1  0
 27 28  1  0
 28 29  1  0
 29 11  1  0
 10 30  1  0
 30 31  1  0
 31  7  1  0
  2 32  1  0
 32 33  1  0
 33 34  1  0
 34 35  1  0
 35 36  1  0
 36 37  1  0
 37 38  1  0
 38 33  1  0
M  CHG  1   7   1
M  END
$$$$
m_275030____14114236____14125180____14147104
     RDKit          3D

 37 42  0  0  0  0  0  0  0  0999 V2000
    1.7834    1.7311   -2.7385 S   0  0  0  0  0  0  0  0  0  0  0  0
    0.4768    2.6931   -2.2336 C   0  0  0  0  0  0  0  0  0  0  0  0
    0.2559    2.4079   -0.9694 N   0  0  0  0  0  0  0  0  0  0  0  0
    1.0907    1.4702   -0.4334 C   0  0  0  0  0  0  0  0  0  0  0  0
    2.0433    0.9440   -1.2484 C   0  0  0  0  0  0  0  0  0  0  0  0
    1.0000    1.0000    1.0000 C   0  0  0  0  0  0  0  0  0  0  0  0
    1.8489    1.8489    1.8489 N   0  0  0  0  0  0  0  0  0  0  0  0
    1.7547    1.3851    3.2389 C   0  0  0  0  0  0  0  0  0  0  0  0
    2.2281    2.5864    4.0302 C   0  0  0  0  0  0  0  0  0  0  0  0
    1.7715    2.4887    5.4766 C   0  0  0  0  0  0  0  0  0  0  0  0
    2.3603    1.2196    6.0769 C   0  0  0  0  0  0  0  0  0  0  0  0
    1.7690    0.8985    7.3866 N   0  0  0  0  0  0  0  0  0  0  0  0
    2.5666    0.2753    8.3526 C   0  0  0  0  0  0  0  0  0  0  0  0
    3.7112    0.0119    8.1067 O   0  0  0  0  0  0  0  0  0  0  0  0
    2.0098   -0.0524    9.6515 C   0  0  0  0  0  0  0  0  0  0  0  0
    1.3776   -1.2974    9.9310 C   0  0  0  0  0  0  0  0  0  0  0  0
    0.8617   -1.5506   11.2001 C   0  0  0  0  0  0  0  0  0  0  0  0
    0.2457   -2.7735   11.4581 C   0  0  0  0  0  0  0  0  0  0  0  0
    0.1299   -3.7557   10.4800 C   0  0  0  0  0  0  0  0  0  0  0  0
    0.6440   -3.5067    9.2114 C   0  0  0  0  0  0  0  0  0  0  0  0
    1.2579   -2.2851    8.9558 C   0  0  0  0  0  0  0  0  0  0  0  0
    0.9835   -0.5431   12.1988 C   0  0  0  0  0  0  0  0  0  0  0  0
    0.5572   -0.6908   13.3349 O   0  0  0  0  0  0  0  0  0  0  0  0
    1.5989    0.6435   11.8944 N   0  0  0  0  0  0  0  0  0  0  0  0
    2.1038    0.8884   10.6437 C   0  0  0  0  0  0  0  0  0  0  0  0
    0.3705    1.2084    7.7282 C   0  0  0  0  0  0  0  0  0  0  0  0
   -0.1165    2.4761    7.0397 C   0  0  0  0  0  0  0  0  0  0  0  0
    0.2520    2.5165    5.5625 C   0  0  0  0  0  0  0  0  0  0  0  0
    1.5100    3.7133    3.3086 C   0  0  0  0  0  0  0  0  0  0  0  0
    1.2872    3.2040    1.9010 C   0  0  0  0  0  0  0  0  0  0  0  0
   -0.1986    3.5960   -3.0527 N   0  0  0  0  0  0  0  0  0  0  0  0
    0.2246    4.8965   -3.1335 C   0  0  0  0  0  0  0  0  0  0  0  0
    1.1767    5.2582   -2.4990 O   0  0  0  0  0  0  0  0  0  0  0  0
   -0.5120    5.8813   -4.0269 C   0  0  0  0  0  0  0  0  0  0  0  0
   -1.3637    3.1534   -3.8292 C   0  0  0  0  0  0  0  0  0  0  0  0
   -2.4568    2.6365   -2.9390 C   0  0  0  0  0  0  0  0  0  0  0  0
   -1.5935    1.6747   -3.7045 C   0  0  0  0  0  0  0  0  0  0  0  0
  1  2  1  0
  2  3  2  0
  3  4  1  0
  4  5  2  0
  5  1  1  0
  4  6  1  0
  6  7  1  0
  7  8  1  0
  8  9  1  0
  9 10  1  0
 10 11  1  0
 11 12  1  0
 12 13  1  0
 13 14  2  0
 13 15  1  0
 15 16  1  0
 16 17  1  0
 17 18  2  0
 18 19  1  0
 19 20  2  0
 20 21  1  0
 21 16  2  0
 17 22  1  0
 22 23  2  0
 22 24  1  0
 24 25  1  0
 15 25  2  0
 12 26  1  0
 26 27  1  0
 27 28  1  0
 28 10  1  0
  9 29  1  0
 29 30  1  0
 30  7  1  0
  2 31  1  0
 31 32  1  0
 32 33  2  0
 32 34  1  0
 31 35  1  0
 35 36  1  0
 36 37  1  0
 37 35  1  0
M  CHG  1   7   1
M  END
$$$$
s_22____14937630____881160
     RDKit          3D

 32 35  0  0  0  0  0  0  0  0999 V2000
    9.7059   13.7732    0.3074 Br  0  0  0  0  0  0  0  0  0  0  0  0
    9.0203   11.9358    0.3019 C   0  0  0  0  0  0  0  0  0  0  0  0
    7.7883   11.6097   -0.2599 C   0  0  0  0  0  0  0  0  0  0  0  0
    7.2917   10.3070   -0.2680 C   0  0  0  0  0  0  0  0  0  0  0  0
    8.0676    9.3267    0.3121 C   0  0  0  0  0  0  0  0  0  0  0  0
    7.4149    8.1317    0.2175 N   0  0  0  0  0  0  0  0  0  0  0  0
    6.2292    8.3396   -0.4192 C   0  0  0  0  0  0  0  0  0  0  0  0
    6.1230    9.6628   -0.7289 C   0  0  0  0  0  0  0  0  0  0  0  0
    4.7565   10.4417   -1.5625 Cl  0  0  0  0  0  0  0  0  0  0  0  0
    5.2401    7.3231   -0.7174 C   0  0  0  0  0  0  0  0  0  0  0  0
    4.9265    7.1066   -1.8553 O   0  0  0  0  0  0  0  0  0  0  0  0
    4.6480    6.5906    0.3265 N   0  0  0  0  0  0  0  0  0  0  0  0
    3.6426    5.5533    0.0634 C   0  0  0  0  0  0  0  0  0  0  0  0
    2.7064    5.5596    1.2615 C   0  0  0  0  0  0  0  0  0  0  0  0
    3.3997    5.0215    2.5065 C   0  0  0  0  0  0  0  0  0  0  0  0
    3.3824    3.5502    2.5542 N   0  0  0  0  0  0  0  0  0  0  0  0
    4.0751    3.1516    3.7908 C   0  0  0  0  0  0  0  0  0  0  0  0
    4.0808    1.6419    3.9769 C   0  0  0  0  0  0  0  0  0  0  0  0
    2.7553    1.0603    3.7129 N   0  0  0  0  0  0  0  0  0  0  0  0
    2.3665   -0.0710    4.4388 C   0  0  0  0  0  0  0  0  0  0  0  0
    1.2913   -0.5676    4.2455 O   0  0  0  0  0  0  0  0  0  0  0  0
    3.1762   -0.5880    5.3294 O   0  0  0  0  0  0  0  0  0  0  0  0
    2.7816   -1.7361    6.0660 C   0  0  0  0  0  0  0  0  0  0  0  0
    1.5202   -1.4234    6.8543 C   0  0  0  0  0  0  0  0  0  0  0  0
    2.5087   -2.8839    5.1076 C   0  0  0  0  0  0  0  0  0  0  0  0
    3.8935   -2.1299    7.0246 C   0  0  0  0  0  0  0  0  0  0  0  0
    1.8216    1.6287    2.7272 C   0  0  0  0  0  0  0  0  0  0  0  0
    1.9698    3.1393    2.6183 C   0  0  0  0  0  0  0  0  0  0  0  0
    4.8531    5.4753    2.4517 C   0  0  0  0  0  0  0  0  0  0  0  0
    4.9928    6.8128    1.7392 C   0  0  0  0  0  0  0  0  0  0  0  0
    9.3022    9.6231    0.8813 C   0  0  0  0  0  0  0  0  0  0  0  0
    9.7854   10.9277    0.8789 C   0  0  0  0  0  0  0  0  0  0  0  0
  1  2  1  0
  2  3  2  0
  3  4  1  0
  4  5  2  0
  5  6  1  0
  6  7  1  0
  7  8  2  0
  8  4  1  0
  8  9  1  0
  7 10  1  0
 10 11  2  0
 10 12  1  0
 12 13  1  0
 13 14  1  0
 14 15  1  0
 15 16  1  0
 16 17  1  0
 17 18  1  0
 18 19  1  0
 19 20  1  0
 20 21  2  0
 20 22  1  0
 22 23  1  0
 23 24  1  0
 23 25  1  0
 23 26  1  0
 19 27  1  0
 27 28  1  0
 28 16  1  0
 15 29  1  0
 29 30  1  0
 30 12  1  0
  5 31  1  0
 31 32  2  0
 32  2  1  0
M  CHG  1  16   1
M  END
$$$$
m_274310____14112894____14116038____15867528
     RDKit          3D

 34 38  0  0  0  0  0  0  0  0999 V2000
   -2.9828    5.1778   -0.6450 O   0  0  0  0  0  0  0  0  0  0  0  0
   -1.9245    5.7098   -0.4527 C   0  0  0  0  0  0  0  0  0  0  0  0
   -0.8386    4.9597    0.0065 N   0  0  0  0  0  0  0  0  0  0  0  0
   -1.0359    3.5200    0.2416 C   0  0  0  0  0  0  0  0  0  0  0  0
   -0.1737    3.0062    1.3863 C   0  0  0  0  0  0  0  0  0  0  0  0
    1.2613    3.5064    1.2970 C   0  0  0  0  0  0  0  0  0  0  0  0
    2.0041    3.0054    2.5252 C   0  0  0  0  0  0  0  0  0  0  0  0
    2.0058    1.4971    2.5989 C   0  0  0  0  0  0  0  0  0  0  0  0
    3.2132    1.2251    3.3828 N   0  0  0  0  0  0  0  0  0  0  0  0
    3.3548    0.1868    4.3116 C   0  0  0  0  0  0  0  0  0  0  0  0
    4.4340   -0.0593    5.0147 O   0  0  0  0  0  0  0  0  0  0  0  0
    4.1609   -1.1054    5.7561 C   0  0  0  0  0  0  0  0  0  0  0  0
    2.9325   -1.5022    5.5164 N   0  0  0  0  0  0  0  0  0  0  0  0
    2.4289   -0.6936    4.6130 N   0  0  0  0  0  0  0  0  0  0  0  0
    5.1183   -1.7574    6.7408 C   0  0  0  0  0  0  0  0  0  0  0  0
    5.5221   -0.7453    7.8005 C   0  0  0  0  0  0  0  0  0  0  0  0
    6.4793   -1.3972    8.7850 C   0  0  0  0  0  0  0  0  0  0  0  0
    4.4336   -2.9407    7.4052 C   0  0  0  0  0  0  0  0  0  0  0  0
    6.3562   -2.2380    6.0013 C   0  0  0  0  0  0  0  0  0  0  0  0
    4.2383    2.2188    3.0463 C   0  0  0  0  0  0  0  0  0  0  0  0
    3.4674    3.3882    2.4540 C   0  0  0  0  0  0  0  0  0  0  0  0
    1.2305    5.0261    1.3776 C   0  0  0  0  0  0  0  0  0  0  0  0
    0.4418    5.6499    0.2345 C   0  0  0  0  0  0  0  0  0  0  0  0
   -1.7726    7.1304   -0.6967 C   0  0  0  0  0  0  0  0  0  0  0  0
   -1.4069    7.9541    0.3362 N   0  0  0  0  0  0  0  0  0  0  0  0
   -1.2530    9.3017    0.1425 C   0  0  0  0  0  0  0  0  0  0  0  0
   -0.9263    9.9855    1.1005 O   0  0  0  0  0  0  0  0  0  0  0  0
   -1.4757    9.8538   -1.1507 C   0  0  0  0  0  0  0  0  0  0  0  0
   -1.8470    9.0099   -2.1920 C   0  0  0  0  0  0  0  0  0  0  0  0
   -2.0760    9.5049   -3.4719 C   0  0  0  0  0  0  0  0  0  0  0  0
   -1.9294   10.8673   -3.7097 C   0  0  0  0  0  0  0  0  0  0  0  0
   -1.5587   11.7361   -2.6888 C   0  0  0  0  0  0  0  0  0  0  0  0
   -1.3370   11.2131   -1.4197 C   0  0  0  0  0  0  0  0  0  0  0  0
   -1.9981    7.6169   -1.9580 C   0  0  0  0  0  0  0  0  0  0  0  0
  1  2  2  0
  2  3  1  0
  3  4  1  0
  4  5  1  0
  5  6  1  0
  6  7  1  0
  7  8  1  0
  8  9  1  0
  9 10  1  0
 10 11  1  0
 11 12  1  0
 12 13  2  0
 13 14  1  0
 10 14  2  0
 12 15  1  0
 15 16  1  0
 16 17  1  0
 15 18  1  0
 15 19  1  0
  9 20  1  0
 20 21  1  0
 21  7  1  0
  6 22  1  0
 22 23  1  0
 23  3  1  0
  2 24  1  0
 24 25  1  0
 25 26  1  0
 26 27  2  0
 26 28  1  0
 28 29  2  0
 29 30  1  0
 30 31  2  0
 31 32  1  0
 32 33  2  0
 33 28  1  0
 29 34  1  0
 24 34  2  0
M  END
$$$$
s_272164____9389230____17339712
     RDKit          3D

 36 40  0  0  0  0  0  0  0  0999 V2000
    0.0788   -0.8447   -0.7664 O   0  0  0  0  0  0  0  0  0  0  0  0
    1.2716   -0.8150   -0.6382 C   0  0  0  0  0  0  0  0  0  0  0  0
    2.0249   -1.6365   -1.3264 O   0  0  0  0  0  0  0  0  0  0  0  0
    1.4301   -2.5622   -2.2240 C   0  0  0  0  0  0  0  0  0  0  0  0
    0.4914   -3.4796   -1.4575 C   0  0  0  0  0  0  0  0  0  0  0  0
    0.6462   -1.8070   -3.2849 C   0  0  0  0  0  0  0  0  0  0  0  0
    2.5161   -3.3909   -2.8906 C   0  0  0  0  0  0  0  0  0  0  0  0
    1.8454    0.0781    0.2278 N   0  0  0  0  0  0  0  0  0  0  0  0
    1.0000    1.0000    1.0000 C   0  0  0  0  0  0  0  0  0  0  0  0
    1.8767    1.8767    1.8767 C   0  0  0  0  0  0  0  0  0  0  0  0
    1.0730    2.8620    2.7105 C   0  0  0  0  0  0  0  0  0  0  0  0
    0.1308    2.1795    3.6117 N   0  0  0  0  0  0  0  0  0  0  0  0
    0.3831    0.8978    4.1159 C   0  0  0  0  0  0  0  0  0  0  0  0
    1.3925    0.3228    3.8152 O   0  0  0  0  0  0  0  0  0  0  0  0
   -0.5402    0.2886    4.9686 N   0  0  0  0  0  0  0  0  0  0  0  0
   -1.7417    0.8823    5.3726 C   0  0  0  0  0  0  0  0  0  0  0  0
   -2.8814    0.5022    4.7193 C   0  0  0  0  0  0  0  0  0  0  0  0
   -3.0253   -0.6379    3.9572 C   0  0  0  0  0  0  0  0  0  0  0  0
   -2.2740   -1.7934    3.8946 N   0  0  0  0  0  0  0  0  0  0  0  0
   -1.0888   -2.0578    4.6000 C   0  0  0  0  0  0  0  0  0  0  0  0
   -0.5942   -3.1724    4.5386 O   0  0  0  0  0  0  0  0  0  0  0  0
   -0.3536   -1.0661    5.4944 C   0  0  0  0  0  0  0  0  0  0  0  0
   -4.1303   -0.7740    3.1161 C   0  0  0  0  0  0  0  0  0  0  0  0
   -5.1279    0.1830    3.1593 C   0  0  0  0  0  0  0  0  0  0  0  0
   -5.0412    1.1843    4.1116 C   0  0  0  0  0  0  0  0  0  0  0  0
   -3.9426    1.3412    4.9415 C   0  0  0  0  0  0  0  0  0  0  0  0
   -3.9957    2.3014    5.9390 C   0  0  0  0  0  0  0  0  0  0  0  0
   -2.8782    2.5180    6.7181 C   0  0  0  0  0  0  0  0  0  0  0  0
   -1.7068    1.8321    6.3857 C   0  0  0  0  0  0  0  0  0  0  0  0
   -1.0975    2.8977    3.9835 C   0  0  0  0  0  0  0  0  0  0  0  0
   -0.7868    4.3864    3.9554 C   0  0  0  0  0  0  0  0  0  0  0  0
   -0.4293    4.8474    2.5500 C   0  0  0  0  0  0  0  0  0  0  0  0
    0.2876    3.7581    1.7664 C   0  0  0  0  0  0  0  0  0  0  0  0
    3.0171    2.4481    1.0755 C   0  0  0  0  0  0  0  0  0  0  0  0
    3.9020    2.1960    2.2733 C   0  0  0  0  0  0  0  0  0  0  0  0
    2.9408    1.0729    2.5851 C   0  0  0  0  0  0  0  0  0  0  0  0
  1  2  2  0
  2  3  1  0
  3  4  1  0
  4  5  1  0
  4  6  1  0
  4  7  1  0
  2  8  1  0
  8  9  1  0
  9 10  1  0
 10 11  1  0
 11 12  1  0
 12 13  1  0
 13 14  2  0
 13 15  1  0
 15 16  1  0
 16 17  1  0
 17 18  2  0
 18 19  1  0
 19 20  1  0
 20 21  2  0
 20 22  1  0
 22 15  1  0
 18 23  1  0
 23 24  2  0
 24 25  1  0
 25 26  2  0
 26 17  1  0
 26 27  1  0
 27 28  2  0
 28 29  1  0
 29 16  2  0
 12 30  1  0
 30 31  1  0
 31 32  1  0
 32 33  1  0
 33 11  1  0
 10 34  1  0
 34 35  1  0
 35 36  1  0
 36 10  1  0
M  END
$$$$
m_274310____14112962____14120794____15870848
     RDKit          3D

 35 39  0  0  0  0  0  0  0  0999 V2000
    7.0547   -3.8389   11.7234 F   0  0  0  0  0  0  0  0  0  0  0  0
    6.2219   -4.6696   11.1025 C   0  0  0  0  0  0  0  0  0  0  0  0
    5.2138   -4.1642   10.2868 C   0  0  0  0  0  0  0  0  0  0  0  0
    5.0707   -2.7313   10.1143 C   0  0  0  0  0  0  0  0  0  0  0  0
    5.1640   -2.1343    8.9137 N   0  0  0  0  0  0  0  0  0  0  0  0
    5.0322   -0.8068    8.7534 C   0  0  0  0  0  0  0  0  0  0  0  0
    4.7983   -0.0378    9.8279 N   0  0  0  0  0  0  0  0  0  0  0  0
    4.6931   -0.5651   11.0566 C   0  0  0  0  0  0  0  0  0  0  0  0
    4.8280   -1.9381   11.2310 C   0  0  0  0  0  0  0  0  0  0  0  0
    5.1316   -0.1954    7.4961 N   0  0  0  0  0  0  0  0  0  0  0  0
    4.9732    1.2660    7.4175 C   0  0  0  0  0  0  0  0  0  0  0  0
    4.3364    1.7003    6.1046 C   0  0  0  0  0  0  0  0  0  0  0  0
    4.9584    1.0023    4.9033 C   0  0  0  0  0  0  0  0  0  0  0  0
    4.1958    1.4438    3.6644 C   0  0  0  0  0  0  0  0  0  0  0  0
    4.3233    2.9558    3.5406 C   0  0  0  0  0  0  0  0  0  0  0  0
    3.4087    3.5093    2.5281 N   0  0  0  0  0  0  0  0  0  0  0  0
    3.8110    4.6328    1.7976 C   0  0  0  0  0  0  0  0  0  0  0  0
    4.8848    5.1280    2.0014 O   0  0  0  0  0  0  0  0  0  0  0  0
    2.8878    5.2259    0.7458 C   0  0  0  0  0  0  0  0  0  0  0  0
    2.6775    4.6287   -0.2736 O   0  0  0  0  0  0  0  0  0  0  0  0
    2.2819    6.4707    0.9666 N   0  0  0  0  0  0  0  0  0  0  0  0
    1.3761    7.1456    0.0336 C   0  0  0  0  0  0  0  0  0  0  0  0
    0.3979    7.8188    0.9666 C   0  0  0  0  0  0  0  0  0  0  0  0
    1.2256    8.2142    2.1712 C   0  0  0  0  0  0  0  0  0  0  0  0
    2.4406    7.2996    2.1664 C   0  0  0  0  0  0  0  0  0  0  0  0
   -0.2337    9.0450    0.3277 C   0  0  0  0  0  0  0  0  0  0  0  0
    2.0852    2.9288    2.2459 C   0  0  0  0  0  0  0  0  0  0  0  0
    2.0724    1.4186    2.4401 C   0  0  0  0  0  0  0  0  0  0  0  0
    2.7443    0.9913    3.7385 C   0  0  0  0  0  0  0  0  0  0  0  0
    4.7294   -0.4939    5.0640 C   0  0  0  0  0  0  0  0  0  0  0  0
    5.3845   -1.0472    6.3221 C   0  0  0  0  0  0  0  0  0  0  0  0
    4.3432   -5.0327    9.6380 C   0  0  0  0  0  0  0  0  0  0  0  0
    4.4808   -6.4070    9.8027 C   0  0  0  0  0  0  0  0  0  0  0  0
    5.4886   -6.9125   10.6179 C   0  0  0  0  0  0  0  0  0  0  0  0
    6.3592   -6.0438   11.2672 C   0  0  0  0  0  0  0  0  0  0  0  0
  1  2  1  0
  2  3  2  0
  3  4  1  0
  4  5  2  0
  5  6  1  0
  6  7  2  0
  7  8  1  0
  8  9  2  0
  9  4  1  0
  6 10  1  0
 10 11  1  0
 11 12  1  0
 12 13  1  0
 13 14  1  0
 14 15  1  0
 15 16  1  0
 16 17  1  0
 17 18  2  0
 17 19  1  0
 19 20  2  0
 19 21  1  0
 21 22  1  0
 22 23  1  0
 23 24  1  0
 24 25  1  0
 25 21  1  0
 23 26  1  0
 16 27  1  0
 27 28  1  0
 28 29  1  0
 29 14  1  0
 13 30  1  0
 30 31  1  0
 31 10  1  0
  3 32  1  0
 32 33  2  0
 33 34  1  0
 34 35  2  0
 35  2  1  0
M  END
$$$$
m_275030____14114032____14123822____14147198
     RDKit          3D

 37 42  0  0  0  0  0  0  0  0999 V2000
    7.0355   -1.2433    2.2805 O   0  0  0  0  0  0  0  0  0  0  0  0
    6.4397   -2.0669    2.9582 C   0  0  0  0  0  0  0  0  0  0  0  0
    5.4099   -1.7763    3.8526 N   0  0  0  0  0  0  0  0  0  0  0  0
    4.9347   -2.9356    4.4657 C   0  0  0  0  0  0  0  0  0  0  0  0
    4.0371   -3.0165    5.2963 O   0  0  0  0  0  0  0  0  0  0  0  0
    5.7630   -4.0658    3.8941 C   0  0  0  0  0  0  0  0  0  0  0  0
    6.6970   -3.4382    2.9532 N   0  0  0  0  0  0  0  0  0  0  0  0
    6.3517   -4.9262    4.9928 C   0  0  0  0  0  0  0  0  0  0  0  0
    6.7993   -6.1870    4.2815 C   0  0  0  0  0  0  0  0  0  0  0  0
    5.7569   -6.3663    3.1976 C   0  0  0  0  0  0  0  0  0  0  0  0
    4.8798   -5.1340    3.2905 C   0  0  0  0  0  0  0  0  0  0  0  0
    4.8858   -0.4290    4.1168 C   0  0  0  0  0  0  0  0  0  0  0  0
    3.7451   -0.1319    3.1570 C   0  0  0  0  0  0  0  0  0  0  0  0
    3.2207    1.2161    3.4213 N   0  0  0  0  0  0  0  0  0  0  0  0
    2.1200    1.4943    2.4902 C   0  0  0  0  0  0  0  0  0  0  0  0
    2.0264    3.0056    2.5174 C   0  0  0  0  0  0  0  0  0  0  0  0
    1.2837    3.5185    1.2940 C   0  0  0  0  0  0  0  0  0  0  0  0
   -0.1140    2.9157    1.3131 C   0  0  0  0  0  0  0  0  0  0  0  0
   -0.9789    3.4285    0.1699 C   0  0  0  0  0  0  0  0  0  0  0  0
   -0.8781    4.8890    0.0152 N   0  0  0  0  0  0  0  0  0  0  0  0
   -2.0017    5.5851   -0.4384 C   0  0  0  0  0  0  0  0  0  0  0  0
   -3.0138    4.9918   -0.6904 O   0  0  0  0  0  0  0  0  0  0  0  0
   -1.9444    7.0246   -0.6046 C   0  0  0  0  0  0  0  0  0  0  0  0
   -1.5390    7.5751   -1.8500 C   0  0  0  0  0  0  0  0  0  0  0  0
   -1.2377    6.8509   -2.7851 O   0  0  0  0  0  0  0  0  0  0  0  0
   -1.4976    8.9398   -1.9670 N   0  0  0  0  0  0  0  0  0  0  0  0
   -1.8388    9.7436   -0.9107 C   0  0  0  0  0  0  0  0  0  0  0  0
   -2.2286    9.2359    0.2825 N   0  0  0  0  0  0  0  0  0  0  0  0
   -2.5026   10.2145    1.1222 N   0  0  0  0  0  0  0  0  0  0  0  0
   -2.3031   11.3630    0.5247 C   0  0  0  0  0  0  0  0  0  0  0  0
   -1.8735   11.0995   -0.7939 C   0  0  0  0  0  0  0  0  0  0  0  0
   -2.5018   12.7377    1.1429 C   0  0  0  0  0  0  0  0  0  0  0  0
   -2.2765    7.8730    0.4195 C   0  0  0  0  0  0  0  0  0  0  0  0
    0.3433    5.6533    0.3178 C   0  0  0  0  0  0  0  0  0  0  0  0
    1.1428    5.0259    1.4514 C   0  0  0  0  0  0  0  0  0  0  0  0
    3.4945    3.3904    2.4629 C   0  0  0  0  0  0  0  0  0  0  0  0
    4.2351    2.2138    3.0607 C   0  0  0  0  0  0  0  0  0  0  0  0
  1  2  2  0
  2  3  1  0
  3  4  1  0
  4  5  2  0
  4  6  1  0
  6  7  1  0
  7  2  1  0
  6  8  1  0
  8  9  1  0
  9 10  1  0
 10 11  1  0
 11  6  1  0
  3 12  1  0
 12 13  1  0
 13 14  1  0
 14 15  1  0
 15 16  1  0
 16 17  1  0
 17 18  1  0
 18 19  1  0
 19 20  1  0
 20 21  1  0
 21 22  2  0
 21 23  1  0
 23 24  1  0
 24 25  2  0
 24 26  1  0
 26 27  1  0
 27 28  1  0
 28 29  1  0
 29 30  2  0
 30 31  1  0
 27 31  2  0
 30 32  1  0
 28 33  1  0
 23 33  2  0
 20 34  1  0
 34 35  1  0
 35 17  1  0
 16 36  1  0
 36 37  1  0
 37 14  1  0
M  CHG  1  14   1
M  END
$$$$
m_275592____15865406____14138174____14133266
     RDKit          3D

 34 38  0  0  0  0  0  0  0  0999 V2000
    9.7834   -2.7964   12.8307 F   0  0  0  0  0  0  0  0  0  0  0  0
    9.3590   -1.8117   12.0385 C   0  0  0  0  0  0  0  0  0  0  0  0
    8.3027   -1.9734   11.1436 C   0  0  0  0  0  0  0  0  0  0  0  0
    7.8620   -0.9439   10.3143 C   0  0  0  0  0  0  0  0  0  0  0  0
    8.5188    0.2599   10.4115 C   0  0  0  0  0  0  0  0  0  0  0  0
    7.9440    1.1239    9.5262 N   0  0  0  0  0  0  0  0  0  0  0  0
    6.9355    0.4847    8.8729 C   0  0  0  0  0  0  0  0  0  0  0  0
    6.0869    1.0715    7.8531 C   0  0  0  0  0  0  0  0  0  0  0  0
    6.2481    2.2139    7.5228 O   0  0  0  0  0  0  0  0  0  0  0  0
    5.1015    0.3216    7.2671 N   0  0  0  0  0  0  0  0  0  0  0  0
    4.2416    0.9162    6.2337 C   0  0  0  0  0  0  0  0  0  0  0  0
    4.9785    0.9204    4.9006 C   0  0  0  0  0  0  0  0  0  0  0  0
    4.1805    1.5154    3.7551 C   0  0  0  0  0  0  0  0  0  0  0  0
    4.1206    3.0364    3.8191 C   0  0  0  0  0  0  0  0  0  0  0  0
    3.3021    3.6889    2.7102 C   0  0  0  0  0  0  0  0  0  0  0  0
    2.0211    2.9853    2.5227 N   0  0  0  0  0  0  0  0  0  0  0  0
    0.8892    3.7522    2.2300 C   0  0  0  0  0  0  0  0  0  0  0  0
    0.9800    4.9453    2.1388 O   0  0  0  0  0  0  0  0  0  0  0  0
   -0.4563    3.0747    2.0275 C   0  0  0  0  0  0  0  0  0  0  0  0
   -0.6492    2.4034    1.0517 O   0  0  0  0  0  0  0  0  0  0  0  0
   -1.4719    3.2341    2.9806 N   0  0  0  0  0  0  0  0  0  0  0  0
   -2.8064    2.6349    2.8998 C   0  0  0  0  0  0  0  0  0  0  0  0
   -3.1079    2.3269    4.3472 C   0  0  0  0  0  0  0  0  0  0  0  0
   -2.4559    3.4516    5.1233 C   0  0  0  0  0  0  0  0  0  0  0  0
   -1.3693    4.0129    4.2194 C   0  0  0  0  0  0  0  0  0  0  0  0
   -4.6041    2.2926    4.6135 C   0  0  0  0  0  0  0  0  0  0  0  0
    1.8574    1.5290    2.6349 C   0  0  0  0  0  0  0  0  0  0  0  0
    2.7246    1.0597    3.7917 C   0  0  0  0  0  0  0  0  0  0  0  0
    5.0819    1.0325    2.6393 C   0  0  0  0  0  0  0  0  0  0  0  0
    5.2857   -0.4375    2.9461 C   0  0  0  0  0  0  0  0  0  0  0  0
    5.2524   -0.5051    4.4570 C   0  0  0  0  0  0  0  0  0  0  0  0
    6.8552   -0.7962    9.3334 C   0  0  0  0  0  0  0  0  0  0  0  0
    9.5763    0.4598   11.2923 C   0  0  0  0  0  0  0  0  0  0  0  0
   10.0012   -0.5794   12.1118 C   0  0  0  0  0  0  0  0  0  0  0  0
  1  2  1  0
  2  3  2  0
  3  4  1  0
  4  5  2  0
  5  6  1  0
  6  7  1  0
  7  8  1  0
  8  9  2  0
  8 10  1  0
 10 11  1  0
 11 12  1  0
 12 13  1  0
 13 14  1  0
 14 15  1  0
 15 16  1  0
 16 17  1  0
 17 18  2  0
 17 19  1  0
 19 20  2  0
 19 21  1  0
 21 22  1  0
 22 23  1  0
 23 24  1  0
 24 25  1  0
 25 21  1  0
 23 26  1  0
 16 27  1  0
 27 28  1  0
 28 13  1  0
 13 29  1  0
 29 30  1  0
 30 31  1  0
 31 12  1  0
  7 32  2  0
 32  4  1  0
  5 33  1  0
 33 34  2  0
 34  2  1  0
M  END
$$$$
m_276010b____17281604____17247274____13624678
     RDKit          3D

 34 39  0  0  0  0  0  0  0  0999 V2000
   -1.7877    3.7613   -1.4044 Cl  0  0  0  0  0  0  0  0  0  0  0  0
   -2.4294    5.4214   -1.3471 C   0  0  0  0  0  0  0  0  0  0  0  0
   -2.4493    6.2527   -2.5010 C   0  0  0  0  0  0  0  0  0  0  0  0
   -2.9614    7.5441   -2.4028 C   0  0  0  0  0  0  0  0  0  0  0  0
   -3.4397    8.0020   -1.2027 N   0  0  0  0  0  0  0  0  0  0  0  0
   -3.4266    7.2120   -0.0823 C   0  0  0  0  0  0  0  0  0  0  0  0
   -3.8582    7.6445    0.9745 O   0  0  0  0  0  0  0  0  0  0  0  0
   -2.9102    5.8894   -0.1511 C   0  0  0  0  0  0  0  0  0  0  0  0
   -2.8960    5.0536    1.0344 C   0  0  0  0  0  0  0  0  0  0  0  0
   -3.9152    4.5625    1.4344 O   0  0  0  0  0  0  0  0  0  0  0  0
   -1.6894    4.8193    1.7141 N   0  0  0  0  0  0  0  0  0  0  0  0
   -0.4368    5.4983    1.3947 C   0  0  0  0  0  0  0  0  0  0  0  0
    0.7422    4.5483    1.2648 C   0  0  0  0  0  0  0  0  0  0  0  0
    0.8571    3.7663    2.5625 C   0  0  0  0  0  0  0  0  0  0  0  0
    2.0497    2.9093    2.5300 N   0  0  0  0  0  0  0  0  0  0  0  0
    3.2914    3.3277    2.5307 N   0  0  0  0  0  0  0  0  0  0  0  0
    4.0983    2.3562    2.5000 N   0  0  0  0  0  0  0  0  0  0  0  0
    3.3635    1.2089    2.4777 C   0  0  0  0  0  0  0  0  0  0  0  0
    2.0481    1.5507    2.4963 C   0  0  0  0  0  0  0  0  0  0  0  0
    3.9166   -0.2057    2.4415 C   0  0  0  0  0  0  0  0  0  0  0  0
    4.1102   -0.7123    3.8662 C   0  0  0  0  0  0  0  0  0  0  0  0
    2.9102   -0.7456    4.6265 O   0  0  0  0  0  0  0  0  0  0  0  0
    5.2765   -0.1316    4.6361 C   0  0  0  0  0  0  0  0  0  0  0  0
    6.1529   -1.1875    4.0097 C   0  0  0  0  0  0  0  0  0  0  0  0
    4.8817   -2.0086    3.9756 C   0  0  0  0  0  0  0  0  0  0  0  0
   -0.4048    2.9509    2.7943 C   0  0  0  0  0  0  0  0  0  0  0  0
   -1.5874    3.9049    2.8613 C   0  0  0  0  0  0  0  0  0  0  0  0
   -1.5353    4.8588    4.0448 C   0  0  0  0  0  0  0  0  0  0  0  0
   -1.3122    6.3193    3.6457 C   0  0  0  0  0  0  0  0  0  0  0  0
   -0.3050    6.5235    2.5173 C   0  0  0  0  0  0  0  0  0  0  0  0
   -2.9829    8.3600   -3.5291 C   0  0  0  0  0  0  0  0  0  0  0  0
   -2.4998    7.9047   -4.7506 C   0  0  0  0  0  0  0  0  0  0  0  0
   -1.9861    6.6171   -4.8587 C   0  0  0  0  0  0  0  0  0  0  0  0
   -1.9680    5.8067   -3.7287 C   0  0  0  0  0  0  0  0  0  0  0  0
  1  2  1  0
  2  3  1  0
  3  4  2  0
  4  5  1  0
  5  6  1  0
  6  7  2  0
  6  8  1  0
  2  8  2  0
  8  9  1  0
  9 10  2  0
  9 11  1  0
 11 12  1  0
 12 13  1  0
 13 14  1  0
 14 15  1  0
 15 16  1  0
 16 17  2  0
 17 18  1  0
 18 19  2  0
 19 15  1  0
 18 20  1  0
 20 21  1  0
 21 22  1  0
 21 23  1  0
 23 24  1  0
 24 25  1  0
 25 21  1  0
 14 26  1  0
 26 27  1  0
 27 11  1  0
 27 28  1  0
 28 29  1  0
 29 30  1  0
 30 12  1  0
  4 31  1  0
 31 32  2  0
 32 33  1  0
 33 34  2  0
 34  3  1  0
M  END
$$$$
m_274310____14112962____14121912____15870848
     RDKit          3D

 36 41  0  0  0  0  0  0  0  0999 V2000
    7.0547   -3.8389   11.7234 F   0  0  0  0  0  0  0  0  0  0  0  0
    6.2219   -4.6696   11.1025 C   0  0  0  0  0  0  0  0  0  0  0  0
    5.2138   -4.1642   10.2868 C   0  0  0  0  0  0  0  0  0  0  0  0
    5.0707   -2.7313   10.1143 C   0  0  0  0  0  0  0  0  0  0  0  0
    5.1640   -2.1343    8.9137 N   0  0  0  0  0  0  0  0  0  0  0  0
    5.0322   -0.8068    8.7534 C   0  0  0  0  0  0  0  0  0  0  0  0
    4.7983   -0.0378    9.8279 N   0  0  0  0  0  0  0  0  0  0  0  0
    4.6931   -0.5651   11.0566 C   0  0  0  0  0  0  0  0  0  0  0  0
    4.8280   -1.9381   11.2310 C   0  0  0  0  0  0  0  0  0  0  0  0
    5.1316   -0.1954    7.4961 N   0  0  0  0  0  0  0  0  0  0  0  0
    4.9732    1.2660    7.4175 C   0  0  0  0  0  0  0  0  0  0  0  0
    4.3364    1.7003    6.1046 C   0  0  0  0  0  0  0  0  0  0  0  0
    4.9584    1.0023    4.9033 C   0  0  0  0  0  0  0  0  0  0  0  0
    4.1958    1.4438    3.6644 C   0  0  0  0  0  0  0  0  0  0  0  0
    4.3233    2.9558    3.5406 C   0  0  0  0  0  0  0  0  0  0  0  0
    3.4087    3.5093    2.5281 N   0  0  0  0  0  0  0  0  0  0  0  0
    3.8110    4.6328    1.7976 C   0  0  0  0  0  0  0  0  0  0  0  0
    4.8848    5.1280    2.0014 O   0  0  0  0  0  0  0  0  0  0  0  0
    2.9305    5.1985    0.7945 C   0  0  0  0  0  0  0  0  0  0  0  0
    2.4566    4.5552   -0.3076 N   0  0  0  0  0  0  0  0  0  0  0  0
    1.7260    5.3715   -0.9360 N   0  0  0  0  0  0  0  0  0  0  0  0
    1.6737    6.5326   -0.3311 N   0  0  0  0  0  0  0  0  0  0  0  0
    2.4374    6.4672    0.7898 C   0  0  0  0  0  0  0  0  0  0  0  0
    0.9159    7.7094   -0.7918 C   0  0  0  0  0  0  0  0  0  0  0  0
   -0.1197    8.1538    0.2222 C   0  0  0  0  0  0  0  0  0  0  0  0
   -1.0080    8.4780   -0.9589 C   0  0  0  0  0  0  0  0  0  0  0  0
   -0.2504    7.3934   -1.7022 C   0  0  0  0  0  0  0  0  0  0  0  0
    2.0852    2.9288    2.2459 C   0  0  0  0  0  0  0  0  0  0  0  0
    2.0724    1.4186    2.4401 C   0  0  0  0  0  0  0  0  0  0  0  0
    2.7443    0.9913    3.7385 C   0  0  0  0  0  0  0  0  0  0  0  0
    4.7294   -0.4939    5.0640 C   0  0  0  0  0  0  0  0  0  0  0  0
    5.3845   -1.0472    6.3221 C   0  0  0  0  0  0  0  0  0  0  0  0
    4.3432   -5.0327    9.6380 C   0  0  0  0  0  0  0  0  0  0  0  0
    4.4808   -6.4070    9.8027 C   0  0  0  0  0  0  0  0  0  0  0  0
    5.4886   -6.9125   10.6179 C   0  0  0  0  0  0  0  0  0  0  0  0
    6.3592   -6.0438   11.2672 C   0  0  0  0  0  0  0  0  0  0  0  0
  1  2  1  0
  2  3  2  0
  3  4  1  0
  4  5  2  0
  5  6  1  0
  6  7  2  0
  7  8  1  0
  8  9  2  0
  9  4  1  0
  6 10  1  0
 10 11  1  0
 11 12  1  0
 12 13  1  0
 13 14  1  0
 14 15  1  0
 15 16  1  0
 16 17  1  0
 17 18  2  0
 17 19  1  0
 19 20  1  0
 20 21  2  0
 21 22  1  0
 22 23  1  0
 19 23  2  0
 22 24  1  0
 24 25  1  0
 25 26  1  0
 26 27  1  0
 27 24  1  0
 16 28  1  0
 28 29  1  0
 29 30  1  0
 30 14  1  0
 13 31  1  0
 31 32  1  0
 32 10  1  0
  3 33  1  0
 33 34  2  0
 34 35  1  0
 35 36  2  0
 36  2  1  0
M  END
$$$$
m_275592____15865406____14141084____14133266
     RDKit          3D

 35 40  0  0  0  0  0  0  0  0999 V2000
    4.5517    0.5431   -7.6713 F   0  0  0  0  0  0  0  0  0  0  0  0
    3.6552    0.2544   -6.7278 C   0  0  0  0  0  0  0  0  0  0  0  0
    3.7522    0.7464   -5.4273 C   0  0  0  0  0  0  0  0  0  0  0  0
    2.8158    0.4414   -4.4414 C   0  0  0  0  0  0  0  0  0  0  0  0
    1.7731   -0.3780   -4.8037 C   0  0  0  0  0  0  0  0  0  0  0  0
    0.9786   -0.5544   -3.7090 N   0  0  0  0  0  0  0  0  0  0  0  0
    1.5031    0.1406   -2.6629 C   0  0  0  0  0  0  0  0  0  0  0  0
    0.9432    0.2011   -1.3260 C   0  0  0  0  0  0  0  0  0  0  0  0
   -0.0665   -0.3950   -1.0708 O   0  0  0  0  0  0  0  0  0  0  0  0
    1.5673    0.9387   -0.3547 N   0  0  0  0  0  0  0  0  0  0  0  0
    1.0000    1.0000    1.0000 C   0  0  0  0  0  0  0  0  0  0  0  0
    1.8786    1.8786    1.8786 C   0  0  0  0  0  0  0  0  0  0  0  0
    2.9855    1.1383    2.6036 C   0  0  0  0  0  0  0  0  0  0  0  0
    4.1657    0.8405    1.6780 C   0  0  0  0  0  0  0  0  0  0  0  0
    5.2801    0.0206    2.3203 C   0  0  0  0  0  0  0  0  0  0  0  0
    4.7197   -1.0986    3.0920 N   0  0  0  0  0  0  0  0  0  0  0  0
    5.3852   -2.3266    3.0232 C   0  0  0  0  0  0  0  0  0  0  0  0
    6.2831   -2.4794    2.2419 O   0  0  0  0  0  0  0  0  0  0  0  0
    4.9904   -3.4149    3.8957 C   0  0  0  0  0  0  0  0  0  0  0  0
    5.0064   -3.3944    5.2566 N   0  0  0  0  0  0  0  0  0  0  0  0
    4.5960   -4.5202    5.6558 N   0  0  0  0  0  0  0  0  0  0  0  0
    4.3025   -5.3079    4.6507 N   0  0  0  0  0  0  0  0  0  0  0  0
    4.5430   -4.6364    3.4951 C   0  0  0  0  0  0  0  0  0  0  0  0
    3.7992   -6.6886    4.7580 C   0  0  0  0  0  0  0  0  0  0  0  0
    2.4829   -6.7594    5.5067 C   0  0  0  0  0  0  0  0  0  0  0  0
    2.9904   -8.0562    6.0979 C   0  0  0  0  0  0  0  0  0  0  0  0
    4.3835   -7.4871    5.9026 C   0  0  0  0  0  0  0  0  0  0  0  0
    3.5004   -1.0211    3.9146 C   0  0  0  0  0  0  0  0  0  0  0  0
    2.4678   -0.1806    3.1740 C   0  0  0  0  0  0  0  0  0  0  0  0
    3.4237    2.2405    3.5444 C   0  0  0  0  0  0  0  0  0  0  0  0
    2.2098    3.0798    3.8785 C   0  0  0  0  0  0  0  0  0  0  0  0
    1.1017    2.4863    3.0284 C   0  0  0  0  0  0  0  0  0  0  0  0
    2.6400    0.7688   -3.0779 C   0  0  0  0  0  0  0  0  0  0  0  0
    1.6420   -0.8880   -6.0908 C   0  0  0  0  0  0  0  0  0  0  0  0
    2.5863   -0.5719   -7.0606 C   0  0  0  0  0  0  0  0  0  0  0  0
  1  2  1  0
  2  3  2  0
  3  4  1  0
  4  5  2  0
  5  6  1  0
  6  7  1  0
  7  8  1  0
  8  9  2  0
  8 10  1  0
 10 11  1  0
 11 12  1  0
 12 13  1  0
 13 14  1  0
 14 15  1  0
 15 16  1  0
 16 17  1  0
 17 18  2  0
 17 19  1  0
 19 20  1  0
 20 21  2  0
 21 22  1  0
 22 23  1  0
 19 23  2  0
 22 24  1  0
 24 25  1  0
 25 26  1  0
 26 27  1  0
 27 24  1  0
 16 28  1  0
 28 29  1  0
 29 13  1  0
 13 30  1  0
 30 31  1  0
 31 32  1  0
 32 12  1  0
  7 33  2  0
 33  4  1  0
  5 34  1  0
 34 35  2  0
 35  2  1  0
M  END
$$$$
m_275030____14114236____14125676____14147450
     RDKit          3D

 33 36  0  0  0  0  0  0  0  0999 V2000
    0.3222    1.1585   -3.0360 S   0  0  0  0  0  0  0  0  0  0  0  0
    1.6880    1.0721   -3.4840 O   0  0  0  0  0  0  0  0  0  0  0  0
   -0.5092    0.3271   -3.8674 O   0  0  0  0  0  0  0  0  0  0  0  0
   -0.2409    2.8752   -3.1446 C   0  0  0  0  0  0  0  0  0  0  0  0
   -0.1498    3.3481   -4.5862 C   0  0  0  0  0  0  0  0  0  0  0  0
   -1.6826    2.9664   -2.6717 C   0  0  0  0  0  0  0  0  0  0  0  0
    0.2136    0.5953   -1.3192 C   0  0  0  0  0  0  0  0  0  0  0  0
    1.0912    1.4729   -0.4417 C   0  0  0  0  0  0  0  0  0  0  0  0
    1.0000    1.0000    1.0000 C   0  0  0  0  0  0  0  0  0  0  0  0
    1.8489    1.8489    1.8489 N   0  0  0  0  0  0  0  0  0  0  0  0
    1.3851    3.2389    1.7547 C   0  0  0  0  0  0  0  0  0  0  0  0
    2.5864    4.0302    2.2281 C   0  0  0  0  0  0  0  0  0  0  0  0
    2.4887    5.4766    1.7715 C   0  0  0  0  0  0  0  0  0  0  0  0
    1.2196    6.0769    2.3603 C   0  0  0  0  0  0  0  0  0  0  0  0
    0.8985    7.3866    1.7690 N   0  0  0  0  0  0  0  0  0  0  0  0
    0.2753    8.3526    2.5666 C   0  0  0  0  0  0  0  0  0  0  0  0
    0.0119    8.1067    3.7112 O   0  0  0  0  0  0  0  0  0  0  0  0
   -0.0521    9.6503    2.0103 C   0  0  0  0  0  0  0  0  0  0  0  0
    0.9520   10.4424    1.5170 N   0  0  0  0  0  0  0  0  0  0  0  0
    0.6799   11.6745    0.9830 C   0  0  0  0  0  0  0  0  0  0  0  0
    1.6156   12.3358    0.5596 O   0  0  0  0  0  0  0  0  0  0  0  0
   -0.6655   12.1380    0.9396 C   0  0  0  0  0  0  0  0  0  0  0  0
   -1.6772   11.3270    1.4430 C   0  0  0  0  0  0  0  0  0  0  0  0
   -3.0059   11.7386    1.4224 C   0  0  0  0  0  0  0  0  0  0  0  0
   -3.3236   12.9826    0.8877 C   0  0  0  0  0  0  0  0  0  0  0  0
   -2.3341   13.8155    0.3763 C   0  0  0  0  0  0  0  0  0  0  0  0
   -1.0148   13.3780    0.4108 C   0  0  0  0  0  0  0  0  0  0  0  0
   -1.3615   10.0546    1.9901 C   0  0  0  0  0  0  0  0  0  0  0  0
    1.2084    7.7282    0.3705 C   0  0  0  0  0  0  0  0  0  0  0  0
    2.4761    7.0397   -0.1165 C   0  0  0  0  0  0  0  0  0  0  0  0
    2.5165    5.5625    0.2520 C   0  0  0  0  0  0  0  0  0  0  0  0
    3.7133    3.3086    1.5100 C   0  0  0  0  0  0  0  0  0  0  0  0
    3.2040    1.9010    1.2872 C   0  0  0  0  0  0  0  0  0  0  0  0
  1  2  2  0
  1  3  2  0
  1  4  1  0
  4  5  1  0
  4  6  1  0
  1  7  1  0
  7  8  1  0
  8  9  1  0
  9 10  1  0
 10 11  1  0
 11 12  1  0
 12 13  1  0
 13 14  1  0
 14 15  1  0
 15 16  1  0
 16 17  2  0
 16 18  1  0
 18 19  1  0
 19 20  1  0
 20 21  2  0
 20 22  1  0
 22 23  2  0
 23 24  1  0
 24 25  2  0
 25 26  1  0
 26 27  2  0
 27 22  1  0
 23 28  1  0
 18 28  2  0
 15 29  1  0
 29 30  1  0
 30 31  1  0
 31 13  1  0
 12 32  1  0
 32 33  1  0
 33 10  1  0
M  CHG  1  10   1
M  END
$$$$
m_275030____14114196____14125350____14147198
     RDKit          3D

 36 41  0  0  0  0  0  0  0  0999 V2000
   -5.3139    0.5919    1.7897 O   0  0  0  0  0  0  0  0  0  0  0  0
   -5.7284    1.7250    1.9822 C   0  0  0  0  0  0  0  0  0  0  0  0
   -5.0174    2.7422    2.6183 N   0  0  0  0  0  0  0  0  0  0  0  0
   -5.7653    3.9183    2.6751 C   0  0  0  0  0  0  0  0  0  0  0  0
   -5.4234    4.9872    3.1678 O   0  0  0  0  0  0  0  0  0  0  0  0
   -7.0839    3.5935    2.0075 C   0  0  0  0  0  0  0  0  0  0  0  0
   -6.9885    2.1873    1.6012 N   0  0  0  0  0  0  0  0  0  0  0  0
   -8.2552    3.9894    2.8822 C   0  0  0  0  0  0  0  0  0  0  0  0
   -9.4459    3.9688    1.9451 C   0  0  0  0  0  0  0  0  0  0  0  0
   -8.8628    4.4360    0.6278 C   0  0  0  0  0  0  0  0  0  0  0  0
   -7.3736    4.5589    0.8807 C   0  0  0  0  0  0  0  0  0  0  0  0
   -3.6573    2.6025    3.1569 C   0  0  0  0  0  0  0  0  0  0  0  0
   -2.6466    2.9648    2.0809 C   0  0  0  0  0  0  0  0  0  0  0  0
   -1.2870    2.8251    2.6192 N   0  0  0  0  0  0  0  0  0  0  0  0
   -0.3500    3.1824    1.5536 C   0  0  0  0  0  0  0  0  0  0  0  0
    0.9259    2.4201    1.8882 C   0  0  0  0  0  0  0  0  0  0  0  0
    0.5317    1.3809    2.9250 C   0  0  0  0  0  0  0  0  0  0  0  0
   -0.9806    1.4088    2.8317 C   0  0  0  0  0  0  0  0  0  0  0  0
    1.1165    0.0147    2.5972 C   0  0  0  0  0  0  0  0  0  0  0  0
    2.5893    0.0277    2.9739 C   0  0  0  0  0  0  0  0  0  0  0  0
    3.3344    1.0727    2.2557 N   0  0  0  0  0  0  0  0  0  0  0  0
    4.0546    0.7944    1.0865 C   0  0  0  0  0  0  0  0  0  0  0  0
    4.6498    1.6723    0.5252 O   0  0  0  0  0  0  0  0  0  0  0  0
    4.0808   -0.5547    0.5547 C   0  0  0  0  0  0  0  0  0  0  0  0
    5.0238   -1.5577    0.8757 C   0  0  0  0  0  0  0  0  0  0  0  0
    4.6263   -2.6403    0.1269 C   0  0  0  0  0  0  0  0  0  0  0  0
    3.5545   -2.3178   -0.5712 O   0  0  0  0  0  0  0  0  0  0  0  0
    3.1975   -1.0757   -0.3418 C   0  0  0  0  0  0  0  0  0  0  0  0
    5.3541   -3.8253    0.2112 C   0  0  0  0  0  0  0  0  0  0  0  0
    4.9768   -4.8977   -0.5175 O   0  0  0  0  0  0  0  0  0  0  0  0
    5.7154   -6.1077   -0.4349 C   0  0  0  0  0  0  0  0  0  0  0  0
    6.4709   -3.9450    1.0323 C   0  0  0  0  0  0  0  0  0  0  0  0
    6.8722   -2.8500    1.7902 C   0  0  0  0  0  0  0  0  0  0  0  0
    6.1408   -1.6703    1.7004 C   0  0  0  0  0  0  0  0  0  0  0  0
    3.2798    2.4275    2.8316 C   0  0  0  0  0  0  0  0  0  0  0  0
    2.1447    3.2569    2.2479 C   0  0  0  0  0  0  0  0  0  0  0  0
  1  2  2  0
  2  3  1  0
  3  4  1  0
  4  5  2  0
  4  6  1  0
  6  7  1  0
  7  2  1  0
  6  8  1  0
  8  9  1  0
  9 10  1  0
 10 11  1  0
 11  6  1  0
  3 12  1  0
 12 13  1  0
 13 14  1  0
 14 15  1  0
 15 16  1  0
 16 17  1  0
 17 18  1  0
 18 14  1  0
 17 19  1  0
 19 20  1  0
 20 21  1  0
 21 22  1  0
 22 23  2  0
 22 24  1  0
 24 25  1  0
 25 26  2  0
 26 27  1  0
 27 28  1  0
 24 28  2  0
 26 29  1  0
 29 30  1  0
 30 31  1  0
 29 32  2  0
 32 33  1  0
 33 34  2  0
 34 25  1  0
 21 35  1  0
 35 36  1  0
 36 16  1  0
M  CHG  1  14   1
M  END
$$$$
m_274310____14113020____14120794____15870814
     RDKit          3D

 37 41  0  0  0  0  0  0  0  0999 V2000
    5.3480    1.1102   11.9401 O   0  0  0  0  0  0  0  0  0  0  0  0
    4.6558    1.2395   10.9433 C   0  0  0  0  0  0  0  0  0  0  0  0
    3.2876    1.3093   11.0181 N   0  0  0  0  0  0  0  0  0  0  0  0
    2.5298    1.4551    9.8839 C   0  0  0  0  0  0  0  0  0  0  0  0
    1.3119    1.5198    9.9306 O   0  0  0  0  0  0  0  0  0  0  0  0
    3.1699    1.5341    8.6183 C   0  0  0  0  0  0  0  0  0  0  0  0
    4.5377    1.4616    8.5664 C   0  0  0  0  0  0  0  0  0  0  0  0
    5.1711    1.5392    7.3202 N   0  0  0  0  0  0  0  0  0  0  0  0
    4.3443    1.6948    6.1118 C   0  0  0  0  0  0  0  0  0  0  0  0
    4.9582    1.0024    4.9029 C   0  0  0  0  0  0  0  0  0  0  0  0
    4.1958    1.4438    3.6644 C   0  0  0  0  0  0  0  0  0  0  0  0
    4.3233    2.9558    3.5406 C   0  0  0  0  0  0  0  0  0  0  0  0
    3.4087    3.5093    2.5281 N   0  0  0  0  0  0  0  0  0  0  0  0
    3.8110    4.6328    1.7976 C   0  0  0  0  0  0  0  0  0  0  0  0
    4.8848    5.1280    2.0014 O   0  0  0  0  0  0  0  0  0  0  0  0
    2.8878    5.2259    0.7458 C   0  0  0  0  0  0  0  0  0  0  0  0
    2.6775    4.6287   -0.2736 O   0  0  0  0  0  0  0  0  0  0  0  0
    2.2819    6.4707    0.9666 N   0  0  0  0  0  0  0  0  0  0  0  0
    1.3761    7.1456    0.0336 C   0  0  0  0  0  0  0  0  0  0  0  0
    0.3979    7.8188    0.9666 C   0  0  0  0  0  0  0  0  0  0  0  0
    1.2256    8.2142    2.1712 C   0  0  0  0  0  0  0  0  0  0  0  0
    2.4406    7.2996    2.1664 C   0  0  0  0  0  0  0  0  0  0  0  0
   -0.2337    9.0450    0.3277 C   0  0  0  0  0  0  0  0  0  0  0  0
    2.0852    2.9288    2.2459 C   0  0  0  0  0  0  0  0  0  0  0  0
    2.0724    1.4186    2.4401 C   0  0  0  0  0  0  0  0  0  0  0  0
    2.7443    0.9913    3.7385 C   0  0  0  0  0  0  0  0  0  0  0  0
    6.4425    1.3065    4.7557 C   0  0  0  0  0  0  0  0  0  0  0  0
    7.1360    0.7806    6.0056 C   0  0  0  0  0  0  0  0  0  0  0  0
    6.6408    1.4576    7.2764 C   0  0  0  0  0  0  0  0  0  0  0  0
    5.2665    1.3166    9.7186 N   0  0  0  0  0  0  0  0  0  0  0  0
    2.6173    1.2292   12.3251 C   0  0  0  0  0  0  0  0  0  0  0  0
    2.4661    2.6270   12.9036 C   0  0  0  0  0  0  0  0  0  0  0  0
    1.3241    3.3695   12.6219 C   0  0  0  0  0  0  0  0  0  0  0  0
    1.1901    4.6484   13.1526 C   0  0  0  0  0  0  0  0  0  0  0  0
    2.1932    5.1752   13.9594 C   0  0  0  0  0  0  0  0  0  0  0  0
    3.3294    4.4242   14.2344 C   0  0  0  0  0  0  0  0  0  0  0  0
    3.4755    3.1444   13.7092 C   0  0  0  0  0  0  0  0  0  0  0  0
  1  2  2  0
  2  3  1  0
  3  4  1  0
  4  5  2  0
  4  6  1  0
  6  7  2  0
  7  8  1  0
  8  9  1  0
  9 10  1  0
 10 11  1  0
 11 12  1  0
 12 13  1  0
 13 14  1  0
 14 15  2  0
 14 16  1  0
 16 17  2  0
 16 18  1  0
 18 19  1  0
 19 20  1  0
 20 21  1  0
 21 22  1  0
 22 18  1  0
 20 23  1  0
 13 24  1  0
 24 25  1  0
 25 26  1  0
 26 11  1  0
 10 27  1  0
 27 28  1  0
 28 29  1  0
 29  8  1  0
  7 30  1  0
 30  2  1  0
  3 31  1  0
 31 32  1  0
 32 33  2  0
 33 34  1  0
 34 35  2  0
 35 36  1  0
 36 37  2  0
 37 32  1  0
M  END
$$$$
m_274310____14113098____14118380____15867458
     RDKit          3D

 34 39  0  0  0  0  0  0  0  0999 V2000
    0.6204    6.5829   -2.1788 O   0  0  0  0  0  0  0  0  0  0  0  0
    1.3003    6.1934   -1.2406 C   0  0  0  0  0  0  0  0  0  0  0  0
    2.2316    5.2175   -1.4857 N   0  0  0  0  0  0  0  0  0  0  0  0
    3.0335    4.7260   -0.4885 C   0  0  0  0  0  0  0  0  0  0  0  0
    2.9299    5.1989    0.7938 C   0  0  0  0  0  0  0  0  0  0  0  0
    1.9740    6.2132    1.0860 C   0  0  0  0  0  0  0  0  0  0  0  0
    1.1558    6.7150    0.0763 C   0  0  0  0  0  0  0  0  0  0  0  0
    0.2252    7.7072    0.3780 C   0  0  0  0  0  0  0  0  0  0  0  0
    0.0879    8.2152    1.6656 C   0  0  0  0  0  0  0  0  0  0  0  0
    0.9034    7.7167    2.6766 C   0  0  0  0  0  0  0  0  0  0  0  0
    1.8313    6.7258    2.3735 C   0  0  0  0  0  0  0  0  0  0  0  0
    3.8110    4.6328    1.7976 C   0  0  0  0  0  0  0  0  0  0  0  0
    4.8848    5.1280    2.0014 O   0  0  0  0  0  0  0  0  0  0  0  0
    3.4087    3.5093    2.5281 N   0  0  0  0  0  0  0  0  0  0  0  0
    4.3233    2.9558    3.5406 C   0  0  0  0  0  0  0  0  0  0  0  0
    4.1958    1.4438    3.6644 C   0  0  0  0  0  0  0  0  0  0  0  0
    4.9583    1.0024    4.9030 C   0  0  0  0  0  0  0  0  0  0  0  0
    4.4103    1.6467    6.1540 C   0  0  0  0  0  0  0  0  0  0  0  0
    4.7847    0.6816    7.1908 N   0  0  0  0  0  0  0  0  0  0  0  0
    5.1694    1.0100    8.4993 C   0  0  0  0  0  0  0  0  0  0  0  0
    5.2317    2.2792    8.9354 N   0  0  0  0  0  0  0  0  0  0  0  0
    5.6005    2.5920   10.1886 C   0  0  0  0  0  0  0  0  0  0  0  0
    5.9205    1.6083   11.0435 N   0  0  0  0  0  0  0  0  0  0  0  0
    5.8803    0.3189   10.6762 C   0  0  0  0  0  0  0  0  0  0  0  0
    5.4996   -0.0144    9.3806 C   0  0  0  0  0  0  0  0  0  0  0  0
    5.6684    4.0351   10.6722 C   0  0  0  0  0  0  0  0  0  0  0  0
    4.7411    4.2895   11.8442 C   0  0  0  0  0  0  0  0  0  0  0  0
    4.4874    5.6505   11.2341 C   0  0  0  0  0  0  0  0  0  0  0  0
    4.7996    5.0021    9.8981 C   0  0  0  0  0  0  0  0  0  0  0  0
    4.7033   -0.6742    6.6368 C   0  0  0  0  0  0  0  0  0  0  0  0
    4.7872   -0.4848    5.1302 C   0  0  0  0  0  0  0  0  0  0  0  0
    2.7443    0.9913    3.7385 C   0  0  0  0  0  0  0  0  0  0  0  0
    2.0724    1.4186    2.4401 C   0  0  0  0  0  0  0  0  0  0  0  0
    2.0852    2.9288    2.2459 C   0  0  0  0  0  0  0  0  0  0  0  0
  1  2  2  0
  2  3  1  0
  3  4  1  0
  4  5  2  0
  5  6  1  0
  6  7  2  0
  7  2  1  0
  7  8  1  0
  8  9  2  0
  9 10  1  0
 10 11  2  0
 11  6  1  0
  5 12  1  0
 12 13  2  0
 12 14  1  0
 14 15  1  0
 15 16  1  0
 16 17  1  0
 17 18  1  0
 18 19  1  0
 19 20  1  0
 20 21  2  0
 21 22  1  0
 22 23  2  0
 23 24  1  0
 24 25  2  0
 25 20  1  0
 22 26  1  0
 26 27  1  0
 27 28  1  0
 28 29  1  0
 29 26  1  0
 19 30  1  0
 30 31  1  0
 31 17  1  0
 16 32  1  0
 32 33  1  0
 33 34  1  0
 34 14  1  0
M  END
$$$$
m_274310____14113020____14121912____15870814
     RDKit          3D

 38 43  0  0  0  0  0  0  0  0999 V2000
    5.3480    1.1102   11.9401 O   0  0  0  0  0  0  0  0  0  0  0  0
    4.6558    1.2395   10.9433 C   0  0  0  0  0  0  0  0  0  0  0  0
    3.2876    1.3093   11.0181 N   0  0  0  0  0  0  0  0  0  0  0  0
    2.5298    1.4551    9.8839 C   0  0  0  0  0  0  0  0  0  0  0  0
    1.3119    1.5198    9.9306 O   0  0  0  0  0  0  0  0  0  0  0  0
    3.1699    1.5341    8.6183 C   0  0  0  0  0  0  0  0  0  0  0  0
    4.5377    1.4616    8.5664 C   0  0  0  0  0  0  0  0  0  0  0  0
    5.1711    1.5392    7.3202 N   0  0  0  0  0  0  0  0  0  0  0  0
    4.3443    1.6948    6.1118 C   0  0  0  0  0  0  0  0  0  0  0  0
    4.9582    1.0024    4.9029 C   0  0  0  0  0  0  0  0  0  0  0  0
    4.1958    1.4438    3.6644 C   0  0  0  0  0  0  0  0  0  0  0  0
    4.3233    2.9558    3.5406 C   0  0  0  0  0  0  0  0  0  0  0  0
    3.4087    3.5093    2.5281 N   0  0  0  0  0  0  0  0  0  0  0  0
    3.8110    4.6328    1.7976 C   0  0  0  0  0  0  0  0  0  0  0  0
    4.8848    5.1280    2.0014 O   0  0  0  0  0  0  0  0  0  0  0  0
    2.9305    5.1985    0.7945 C   0  0  0  0  0  0  0  0  0  0  0  0
    2.4566    4.5552   -0.3076 N   0  0  0  0  0  0  0  0  0  0  0  0
    1.7260    5.3715   -0.9360 N   0  0  0  0  0  0  0  0  0  0  0  0
    1.6737    6.5326   -0.3311 N   0  0  0  0  0  0  0  0  0  0  0  0
    2.4374    6.4672    0.7898 C   0  0  0  0  0  0  0  0  0  0  0  0
    0.9159    7.7094   -0.7918 C   0  0  0  0  0  0  0  0  0  0  0  0
   -0.1197    8.1538    0.2222 C   0  0  0  0  0  0  0  0  0  0  0  0
   -1.0080    8.4780   -0.9589 C   0  0  0  0  0  0  0  0  0  0  0  0
   -0.2504    7.3934   -1.7022 C   0  0  0  0  0  0  0  0  0  0  0  0
    2.0852    2.9288    2.2459 C   0  0  0  0  0  0  0  0  0  0  0  0
    2.0724    1.4186    2.4401 C   0  0  0  0  0  0  0  0  0  0  0  0
    2.7443    0.9913    3.7385 C   0  0  0  0  0  0  0  0  0  0  0  0
    6.4425    1.3065    4.7557 C   0  0  0  0  0  0  0  0  0  0  0  0
    7.1360    0.7806    6.0056 C   0  0  0  0  0  0  0  0  0  0  0  0
    6.6408    1.4576    7.2764 C   0  0  0  0  0  0  0  0  0  0  0  0
    5.2665    1.3166    9.7186 N   0  0  0  0  0  0  0  0  0  0  0  0
    2.6173    1.2292   12.3251 C   0  0  0  0  0  0  0  0  0  0  0  0
    2.4661    2.6270   12.9036 C   0  0  0  0  0  0  0  0  0  0  0  0
    1.3241    3.3695   12.6219 C   0  0  0  0  0  0  0  0  0  0  0  0
    1.1901    4.6484   13.1526 C   0  0  0  0  0  0  0  0  0  0  0  0
    2.1932    5.1752   13.9594 C   0  0  0  0  0  0  0  0  0  0  0  0
    3.3294    4.4242   14.2344 C   0  0  0  0  0  0  0  0  0  0  0  0
    3.4755    3.1444   13.7092 C   0  0  0  0  0  0  0  0  0  0  0  0
  1  2  2  0
  2  3  1  0
  3  4  1  0
  4  5  2  0
  4  6  1  0
  6  7  2  0
  7  8  1  0
  8  9  1  0
  9 10  1  0
 10 11  1  0
 11 12  1  0
 12 13  1  0
 13 14  1  0
 14 15  2  0
 14 16  1  0
 16 17  1  0
 17 18  2  0
 18 19  1  0
 19 20  1  0
 16 20  2  0
 19 21  1  0
 21 22  1  0
 22 23  1  0
 23 24  1  0
 24 21  1  0
 13 25  1  0
 25 26  1  0
 26 27  1  0
 27 11  1  0
 10 28  1  0
 28 29  1  0
 29 30  1  0
 30  8  1  0
  7 31  1  0
 31  2  1  0
  3 32  1  0
 32 33  1  0
 33 34  2  0
 34 35  1  0
 35 36  2  0
 36 37  1  0
 37 38  2  0
 38 33  1  0
M  END
$$$$
m_275030____14114032____14127054____14146862
     RDKit          3D

 36 40  0  0  0  0  0  0  0  0999 V2000
    5.7871    2.7409    8.8500 O   0  0  0  0  0  0  0  0  0  0  0  0
    4.9728    1.8736    8.6930 C   0  0  0  0  0  0  0  0  0  0  0  0
    4.0067    1.9918    7.6791 N   0  0  0  0  0  0  0  0  0  0  0  0
    3.9582    3.1601    6.7898 C   0  0  0  0  0  0  0  0  0  0  0  0
    2.5030    3.3548    6.3926 C   0  0  0  0  0  0  0  0  0  0  0  0
    2.0092    2.2158    5.5121 C   0  0  0  0  0  0  0  0  0  0  0  0
    2.3431    2.4537    4.0480 C   0  0  0  0  0  0  0  0  0  0  0  0
    1.8976    1.2796    3.2015 C   0  0  0  0  0  0  0  0  0  0  0  0
    1.8489    1.8489    1.8489 N   0  0  0  0  0  0  0  0  0  0  0  0
    1.0000    1.0000    1.0000 C   0  0  0  0  0  0  0  0  0  0  0  0
    1.0912    1.4729   -0.4417 C   0  0  0  0  0  0  0  0  0  0  0  0
    2.0982    1.9888   -0.8413 O   0  0  0  0  0  0  0  0  0  0  0  0
    0.0237    1.3102   -1.2848 N   0  0  0  0  0  0  0  0  0  0  0  0
    0.1119    1.7675   -2.6791 C   0  0  0  0  0  0  0  0  0  0  0  0
   -1.1967    1.4711   -3.3932 C   0  0  0  0  0  0  0  0  0  0  0  0
   -2.0958    0.9395   -2.8023 O   0  0  0  0  0  0  0  0  0  0  0  0
   -1.3535    1.8191   -4.7434 N   0  0  0  0  0  0  0  0  0  0  0  0
   -2.5560    1.5926   -5.5506 C   0  0  0  0  0  0  0  0  0  0  0  0
   -2.5522    2.7112   -6.5740 C   0  0  0  0  0  0  0  0  0  0  0  0
   -1.1262    3.2297   -6.6412 C   0  0  0  0  0  0  0  0  0  0  0  0
   -0.3444    2.4641   -5.5908 C   0  0  0  0  0  0  0  0  0  0  0  0
    1.1962    3.1485    2.0474 C   0  0  0  0  0  0  0  0  0  0  0  0
    1.4909    3.5704    3.4706 C   0  0  0  0  0  0  0  0  0  0  0  0
    2.7149    0.9430    5.9550 C   0  0  0  0  0  0  0  0  0  0  0  0
    2.9956    0.9535    7.4517 C   0  0  0  0  0  0  0  0  0  0  0  0
    4.9856    0.7033    9.5496 C   0  0  0  0  0  0  0  0  0  0  0  0
    4.0233    0.2928   10.3368 N   0  0  0  0  0  0  0  0  0  0  0  0
    4.3707   -0.7666   10.9502 O   0  0  0  0  0  0  0  0  0  0  0  0
    5.5814   -1.1263   10.6039 C   0  0  0  0  0  0  0  0  0  0  0  0
    6.3025   -2.2850   11.0960 C   0  0  0  0  0  0  0  0  0  0  0  0
    7.5889   -2.5437   10.6368 C   0  0  0  0  0  0  0  0  0  0  0  0
    8.2572   -3.6610   11.1257 C   0  0  0  0  0  0  0  0  0  0  0  0
    7.6737   -4.4715   12.0215 N   0  0  0  0  0  0  0  0  0  0  0  0
    6.4336   -4.2375   12.4757 C   0  0  0  0  0  0  0  0  0  0  0  0
    5.7135   -3.1360   12.0244 C   0  0  0  0  0  0  0  0  0  0  0  0
    6.0408   -0.2197    9.6997 C   0  0  0  0  0  0  0  0  0  0  0  0
  1  2  2  0
  2  3  1  0
  3  4  1  0
  4  5  1  0
  5  6  1  0
  6  7  1  0
  7  8  1  0
  8  9  1  0
  9 10  1  0
 10 11  1  0
 11 12  2  0
 11 13  1  0
 13 14  1  0
 14 15  1  0
 15 16  2  0
 15 17  1  0
 17 18  1  0
 18 19  1  0
 19 20  1  0
 20 21  1  0
 21 17  1  0
  9 22  1  0
 22 23  1  0
 23  7  1  0
  6 24  1  0
 24 25  1  0
 25  3  1  0
  2 26  1  0
 26 27  2  0
 27 28  1  0
 28 29  1  0
 29 30  1  0
 30 31  2  0
 31 32  1  0
 32 33  2  0
 33 34  1  0
 34 35  2  0
 35 30  1  0
 29 36  2  0
 36 26  1  0
M  CHG  1   9   1
M  END
$$$$
m_275030____14114032____14122654____14148780
     RDKit          3D

 34 39  0  0  0  0  0  0  0  0999 V2000
   -3.0138    4.9918   -0.6904 O   0  0  0  0  0  0  0  0  0  0  0  0
   -2.0017    5.5851   -0.4384 C   0  0  0  0  0  0  0  0  0  0  0  0
   -0.8781    4.8890    0.0152 N   0  0  0  0  0  0  0  0  0  0  0  0
   -0.9789    3.4285    0.1699 C   0  0  0  0  0  0  0  0  0  0  0  0
   -0.1140    2.9157    1.3131 C   0  0  0  0  0  0  0  0  0  0  0  0
    1.2837    3.5185    1.2940 C   0  0  0  0  0  0  0  0  0  0  0  0
    2.0264    3.0056    2.5174 C   0  0  0  0  0  0  0  0  0  0  0  0
    2.1200    1.4943    2.4902 C   0  0  0  0  0  0  0  0  0  0  0  0
    3.2207    1.2161    3.4213 N   0  0  0  0  0  0  0  0  0  0  0  0
    3.7451   -0.1319    3.1570 C   0  0  0  0  0  0  0  0  0  0  0  0
    2.6372   -1.1546    3.3544 C   0  0  0  0  0  0  0  0  0  0  0  0
    1.8092   -1.5734    2.4294 O   0  0  0  0  0  0  0  0  0  0  0  0
    1.0100   -2.4208    2.9227 N   0  0  0  0  0  0  0  0  0  0  0  0
    1.3048   -2.5754    4.1890 C   0  0  0  0  0  0  0  0  0  0  0  0
    2.3552   -1.7601    4.4814 N   0  0  0  0  0  0  0  0  0  0  0  0
    0.5927   -3.5015    5.1619 C   0  0  0  0  0  0  0  0  0  0  0  0
    1.2633   -4.8661    5.1459 C   0  0  0  0  0  0  0  0  0  0  0  0
    2.7052   -4.7611    5.5489 C   0  0  0  0  0  0  0  0  0  0  0  0
    2.3420   -4.9629    4.1057 C   0  0  0  0  0  0  0  0  0  0  0  0
    4.2351    2.2138    3.0607 C   0  0  0  0  0  0  0  0  0  0  0  0
    3.4945    3.3904    2.4629 C   0  0  0  0  0  0  0  0  0  0  0  0
    1.1428    5.0259    1.4514 C   0  0  0  0  0  0  0  0  0  0  0  0
    0.3433    5.6533    0.3178 C   0  0  0  0  0  0  0  0  0  0  0  0
   -1.9417    7.0939   -0.6126 C   0  0  0  0  0  0  0  0  0  0  0  0
   -2.2233    7.4481   -2.0637 C   0  0  0  0  0  0  0  0  0  0  0  0
   -2.1653    8.9067   -2.2321 N   0  0  0  0  0  0  0  0  0  0  0  0
   -1.0530    9.6287   -2.5500 C   0  0  0  0  0  0  0  0  0  0  0  0
   -1.3784   10.9618   -2.6250 C   0  0  0  0  0  0  0  0  0  0  0  0
   -0.3984   11.9117   -2.9294 C   0  0  0  0  0  0  0  0  0  0  0  0
    0.9131   11.5091   -3.1660 C   0  0  0  0  0  0  0  0  0  0  0  0
    1.2500   10.1626   -3.0949 C   0  0  0  0  0  0  0  0  0  0  0  0
    0.2595    9.2355   -2.7871 C   0  0  0  0  0  0  0  0  0  0  0  0
   -2.7601   10.9977   -2.3180 C   0  0  0  0  0  0  0  0  0  0  0  0
   -3.2313    9.7426   -2.0823 C   0  0  0  0  0  0  0  0  0  0  0  0
  1  2  2  0
  2  3  1  0
  3  4  1  0
  4  5  1  0
  5  6  1  0
  6  7  1  0
  7  8  1  0
  8  9  1  0
  9 10  1  0
 10 11  1  0
 11 12  1  0
 12 13  1  0
 13 14  2  0
 14 15  1  0
 11 15  2  0
 14 16  1  0
 16 17  1  0
 17 18  1  0
 18 19  1  0
 19 17  1  0
  9 20  1  0
 20 21  1  0
 21  7  1  0
  6 22  1  0
 22 23  1  0
 23  3  1  0
  2 24  1  0
 24 25  1  0
 25 26  1  0
 26 27  1  0
 27 28  1  0
 28 29  2  0
 29 30  1  0
 30 31  2  0
 31 32  1  0
 32 27  2  0
 28 33  1  0
 33 34  2  0
 34 26  1  0
M  CHG  1   9   1
M  END
$$$$
m_275030____14114032____14126114____12659612
     RDKit          3D

 33 37  0  0  0  0  0  0  0  0999 V2000
   -3.0138    4.9918   -0.6904 O   0  0  0  0  0  0  0  0  0  0  0  0
   -2.0017    5.5851   -0.4384 C   0  0  0  0  0  0  0  0  0  0  0  0
   -0.8781    4.8890    0.0152 N   0  0  0  0  0  0  0  0  0  0  0  0
   -0.9789    3.4285    0.1699 C   0  0  0  0  0  0  0  0  0  0  0  0
   -0.1140    2.9157    1.3131 C   0  0  0  0  0  0  0  0  0  0  0  0
    1.2837    3.5185    1.2940 C   0  0  0  0  0  0  0  0  0  0  0  0
    2.0264    3.0056    2.5174 C   0  0  0  0  0  0  0  0  0  0  0  0
    2.1200    1.4943    2.4902 C   0  0  0  0  0  0  0  0  0  0  0  0
    3.2207    1.2161    3.4213 N   0  0  0  0  0  0  0  0  0  0  0  0
    3.7451   -0.1319    3.1570 C   0  0  0  0  0  0  0  0  0  0  0  0
    4.8873   -0.4294    4.1181 C   0  0  0  0  0  0  0  0  0  0  0  0
    6.1697   -0.1406    3.8377 N   0  0  0  0  0  0  0  0  0  0  0  0
    7.1354   -0.3965    4.6604 N   0  0  0  0  0  0  0  0  0  0  0  0
    6.9309   -0.9708    5.8580 C   0  0  0  0  0  0  0  0  0  0  0  0
    7.9360   -1.2408    6.7228 O   0  0  0  0  0  0  0  0  0  0  0  0
    7.6518   -1.8490    7.9741 C   0  0  0  0  0  0  0  0  0  0  0  0
    5.6302   -1.3008    6.2231 C   0  0  0  0  0  0  0  0  0  0  0  0
    4.5922   -1.0258    5.3393 C   0  0  0  0  0  0  0  0  0  0  0  0
    4.2351    2.2138    3.0607 C   0  0  0  0  0  0  0  0  0  0  0  0
    3.4945    3.3904    2.4629 C   0  0  0  0  0  0  0  0  0  0  0  0
    1.1428    5.0259    1.4514 C   0  0  0  0  0  0  0  0  0  0  0  0
    0.3433    5.6533    0.3178 C   0  0  0  0  0  0  0  0  0  0  0  0
   -1.9445    7.0220   -0.6043 C   0  0  0  0  0  0  0  0  0  0  0  0
   -1.6684    7.8346    0.4648 N   0  0  0  0  0  0  0  0  0  0  0  0
   -1.6117    9.1971    0.3257 C   0  0  0  0  0  0  0  0  0  0  0  0
   -1.8355    9.7780   -0.9196 C   0  0  0  0  0  0  0  0  0  0  0  0
   -1.7725   11.1641   -1.0375 C   0  0  0  0  0  0  0  0  0  0  0  0
   -1.4916   11.9776    0.0543 C   0  0  0  0  0  0  0  0  0  0  0  0
   -1.2700   11.3786    1.2892 C   0  0  0  0  0  0  0  0  0  0  0  0
   -1.3283    9.9962    1.4289 C   0  0  0  0  0  0  0  0  0  0  0  0
   -2.1226    8.9386   -2.0325 C   0  0  0  0  0  0  0  0  0  0  0  0
   -2.3301    9.3817   -3.1523 O   0  0  0  0  0  0  0  0  0  0  0  0
   -2.1747    7.5307   -1.8553 C   0  0  0  0  0  0  0  0  0  0  0  0
  1  2  2  0
  2  3  1  0
  3  4  1  0
  4  5  1  0
  5  6  1  0
  6  7  1  0
  7  8  1  0
  8  9  1  0
  9 10  1  0
 10 11  1  0
 11 12  2  0
 12 13  1  0
 13 14  2  0
 14 15  1  0
 15 16  1  0
 14 17  1  0
 17 18  2  0
 18 11  1  0
  9 19  1  0
 19 20  1  0
 20  7  1  0
  6 21  1  0
 21 22  1  0
 22  3  1  0
  2 23  1  0
 23 24  1  0
 24 25  1  0
 25 26  2  0
 26 27  1  0
 27 28  2  0
 28 29  1  0
 29 30  2  0
 30 25  1  0
 26 31  1  0
 31 32  2  0
 31 33  1  0
 23 33  2  0
M  CHG  1   9   1
M  END
$$$$
m_275592____15865406____14138128____14134194
     RDKit          3D

 35 39  0  0  0  0  0  0  0  0999 V2000
    6.2739    2.7755    6.5169 O   0  0  0  0  0  0  0  0  0  0  0  0
    7.1815    2.0732    6.1664 C   0  0  0  0  0  0  0  0  0  0  0  0
    7.2420    1.6266    4.8726 N   0  0  0  0  0  0  0  0  0  0  0  0
    6.0301    1.6179    4.0407 C   0  0  0  0  0  0  0  0  0  0  0  0
    6.3684    1.0792    2.6563 C   0  0  0  0  0  0  0  0  0  0  0  0
    5.2111    1.0099    1.6797 C   0  0  0  0  0  0  0  0  0  0  0  0
    4.3308    2.2456    1.8605 C   0  0  0  0  0  0  0  0  0  0  0  0
    3.1009    2.2930    0.9598 C   0  0  0  0  0  0  0  0  0  0  0  0
    2.3983    1.0000    1.0000 N   0  0  0  0  0  0  0  0  0  0  0  0
    1.0000    1.0000    1.0000 C   0  0  0  0  0  0  0  0  0  0  0  0
    0.4000    2.0387    0.9677 O   0  0  0  0  0  0  0  0  0  0  0  0
    0.2400   -0.3157    1.0410 C   0  0  0  0  0  0  0  0  0  0  0  0
   -0.0600   -0.8674    0.0184 O   0  0  0  0  0  0  0  0  0  0  0  0
   -0.1107   -0.8851    2.2742 N   0  0  0  0  0  0  0  0  0  0  0  0
   -0.4597   -2.2923    2.5168 C   0  0  0  0  0  0  0  0  0  0  0  0
   -0.1998   -2.5361    3.9927 C   0  0  0  0  0  0  0  0  0  0  0  0
    0.3372   -1.2184    4.5180 C   0  0  0  0  0  0  0  0  0  0  0  0
   -0.1857   -0.1772    3.5504 C   0  0  0  0  0  0  0  0  0  0  0  0
    0.3693   -3.2272    1.6471 C   0  0  0  0  0  0  0  0  0  0  0  0
   -0.2587   -4.6114    1.6496 C   0  0  0  0  0  0  0  0  0  0  0  0
    3.0994   -0.2906    1.0589 C   0  0  0  0  0  0  0  0  0  0  0  0
    4.3182   -0.1912    1.9669 C   0  0  0  0  0  0  0  0  0  0  0  0
    5.9501    0.7703    0.3774 C   0  0  0  0  0  0  0  0  0  0  0  0
    7.3230    1.3886    0.5115 C   0  0  0  0  0  0  0  0  0  0  0  0
    7.3261    1.9775    1.9053 C   0  0  0  0  0  0  0  0  0  0  0  0
    8.2157    1.6965    7.1136 C   0  0  0  0  0  0  0  0  0  0  0  0
    7.9549    0.9869    8.2853 C   0  0  0  0  0  0  0  0  0  0  0  0
    9.0226    0.6776    9.1239 C   0  0  0  0  0  0  0  0  0  0  0  0
   10.2576    1.0693    8.7789 N   0  0  0  0  0  0  0  0  0  0  0  0
   10.4976    1.7264    7.6917 N   0  0  0  0  0  0  0  0  0  0  0  0
    9.5263    2.0637    6.8284 C   0  0  0  0  0  0  0  0  0  0  0  0
    8.7861   -0.0293   10.2985 C   0  0  0  0  0  0  0  0  0  0  0  0
    7.5017   -0.4332   10.6507 C   0  0  0  0  0  0  0  0  0  0  0  0
    6.4268   -0.1312    9.8223 C   0  0  0  0  0  0  0  0  0  0  0  0
    6.6741    0.5749    8.6502 C   0  0  0  0  0  0  0  0  0  0  0  0
  1  2  2  0
  2  3  1  0
  3  4  1  0
  4  5  1  0
  5  6  1  0
  6  7  1  0
  7  8  1  0
  8  9  1  0
  9 10  1  0
 10 11  2  0
 10 12  1  0
 12 13  2  0
 12 14  1  0
 14 15  1  0
 15 16  1  0
 16 17  1  0
 17 18  1  0
 18 14  1  0
 15 19  1  0
 19 20  1  0
  9 21  1  0
 21 22  1  0
 22  6  1  0
  6 23  1  0
 23 24  1  0
 24 25  1  0
 25  5  1  0
  2 26  1  0
 26 27  2  0
 27 28  1  0
 28 29  2  0
 29 30  1  0
 30 31  2  0
 31 26  1  0
 28 32  1  0
 32 33  2  0
 33 34  1  0
 34 35  2  0
 35 27  1  0
M  END
$$$$
s_22____13778842____138813
     RDKit          3D

 33 36  0  0  0  0  0  0  0  0999 V2000
    7.4336    6.6749    6.2262 S   0  0  0  0  0  0  0  0  0  0  0  0
    7.5888    7.6722    7.5942 C   0  0  0  0  0  0  0  0  0  0  0  0
    7.6875    6.8635    8.7055 C   0  0  0  0  0  0  0  0  0  0  0  0
    7.8203    7.5640    9.9052 C   0  0  0  0  0  0  0  0  0  0  0  0
    7.9265    6.9392   11.0746 F   0  0  0  0  0  0  0  0  0  0  0  0
    7.8468    8.9547    9.9345 C   0  0  0  0  0  0  0  0  0  0  0  0
    7.7421    9.6946    8.7613 C   0  0  0  0  0  0  0  0  0  0  0  0
    7.6079    9.0548    7.5405 C   0  0  0  0  0  0  0  0  0  0  0  0
    7.6313    5.4776    8.3772 C   0  0  0  0  0  0  0  0  0  0  0  0
    7.4908    5.1901    7.0498 C   0  0  0  0  0  0  0  0  0  0  0  0
    7.4014    3.8809    6.4318 C   0  0  0  0  0  0  0  0  0  0  0  0
    8.3037    3.0987    6.5500 O   0  0  0  0  0  0  0  0  0  0  0  0
    6.2643    3.5305    5.6987 N   0  0  0  0  0  0  0  0  0  0  0  0
    5.1765    4.5147    5.5743 C   0  0  0  0  0  0  0  0  0  0  0  0
    4.4461    4.3976    4.2437 C   0  0  0  0  0  0  0  0  0  0  0  0
    4.1283    2.9555    3.8725 C   0  0  0  0  0  0  0  0  0  0  0  0
    3.4952    2.9676    2.4900 C   0  0  0  0  0  0  0  0  0  0  0  0
    4.1161    3.9902    1.6347 N   0  0  0  0  0  0  0  0  0  0  0  0
    3.6838    4.1599    0.3458 C   0  0  0  0  0  0  0  0  0  0  0  0
    4.1905    4.9943   -0.3520 O   0  0  0  0  0  0  0  0  0  0  0  0
    2.7173    3.4112   -0.1248 O   0  0  0  0  0  0  0  0  0  0  0  0
    2.2693    3.5870   -1.4607 C   0  0  0  0  0  0  0  0  0  0  0  0
    3.4236    3.3416   -2.4187 C   0  0  0  0  0  0  0  0  0  0  0  0
    1.1496    2.6015   -1.7534 C   0  0  0  0  0  0  0  0  0  0  0  0
    1.7550    5.0060   -1.6400 C   0  0  0  0  0  0  0  0  0  0  0  0
    3.3396    1.6174    1.8130 C   0  0  0  0  0  0  0  0  0  0  0  0
    2.0047    1.4989    2.5066 C   0  0  0  0  0  0  0  0  0  0  0  0
    1.9863    3.0098    2.4641 C   0  0  0  0  0  0  0  0  0  0  0  0
    5.4430    2.1935    3.7736 C   0  0  0  0  0  0  0  0  0  0  0  0
    6.2159    2.1931    5.0845 C   0  0  0  0  0  0  0  0  0  0  0  0
    7.7158    4.3494    9.3937 C   0  0  0  0  0  0  0  0  0  0  0  0
    6.4103    4.0204    9.8452 O   0  0  0  0  0  0  0  0  0  0  0  0
    6.4893    2.9671   10.7943 C   0  0  0  0  0  0  0  0  0  0  0  0
  1  2  1  0
  2  3  2  0
  3  4  1  0
  4  5  1  0
  4  6  2  0
  6  7  1  0
  7  8  2  0
  8  2  1  0
  3  9  1  0
  9 10  2  0
 10  1  1  0
 10 11  1  0
 11 12  2  0
 11 13  1  0
 13 14  1  0
 14 15  1  0
 15 16  1  0
 16 17  1  0
 17 18  1  0
 18 19  1  0
 19 20  2  0
 19 21  1  0
 21 22  1  0
 22 23  1  0
 22 24  1  0
 22 25  1  0
 17 26  1  0
 26 27  1  0
 27 28  1  0
 28 17  1  0
 16 29  1  0
 29 30  1  0
 30 13  1  0
  9 31  1  0
 31 32  1  0
 32 33  1  0
M  END
$$$$
m_275030____14113504____14122304____14148494
     RDKit          3D

 33 37  0  0  0  0  0  0  0  0999 V2000
    5.8682   -2.1410   12.1801 F   0  0  0  0  0  0  0  0  0  0  0  0
    5.6443   -1.0406   11.4655 C   0  0  0  0  0  0  0  0  0  0  0  0
    4.8400   -0.1650   12.0737 F   0  0  0  0  0  0  0  0  0  0  0  0
    6.8992   -0.4515   10.8569 C   0  0  0  0  0  0  0  0  0  0  0  0
    6.0726   -0.1387    9.6328 C   0  0  0  0  0  0  0  0  0  0  0  0
    6.8528   -0.3778    8.3507 C   0  0  0  0  0  0  0  0  0  0  0  0
    6.0040   -0.0589    7.1940 N   0  0  0  0  0  0  0  0  0  0  0  0
    6.7866   -0.3003    5.9743 C   0  0  0  0  0  0  0  0  0  0  0  0
    6.0133    0.0930    4.7262 C   0  0  0  0  0  0  0  0  0  0  0  0
    6.3345   -0.3856    3.6483 O   0  0  0  0  0  0  0  0  0  0  0  0
    4.9494    0.9973    4.8335 N   0  0  0  0  0  0  0  0  0  0  0  0
    4.2023    1.4336    3.6447 C   0  0  0  0  0  0  0  0  0  0  0  0
    4.3365    2.9451    3.5259 C   0  0  0  0  0  0  0  0  0  0  0  0
    3.4202    3.5041    2.5182 N   0  0  0  0  0  0  0  0  0  0  0  0
    3.8228    4.6292    1.7906 C   0  0  0  0  0  0  0  0  0  0  0  0
    4.9387    5.0539    1.9111 O   0  0  0  0  0  0  0  0  0  0  0  0
    2.8914    5.2824    0.8903 C   0  0  0  0  0  0  0  0  0  0  0  0
    2.6302    4.6876   -0.2597 N   0  0  0  0  0  0  0  0  0  0  0  0
    1.7967    5.1992   -1.1488 N   0  0  0  0  0  0  0  0  0  0  0  0
    1.1490    6.3860   -0.9308 C   0  0  0  0  0  0  0  0  0  0  0  0
    0.3926    6.8026   -1.7940 O   0  0  0  0  0  0  0  0  0  0  0  0
    1.3865    7.0797    0.2875 C   0  0  0  0  0  0  0  0  0  0  0  0
    2.2673    6.5231    1.2085 C   0  0  0  0  0  0  0  0  0  0  0  0
    2.5019    7.2057    2.4017 C   0  0  0  0  0  0  0  0  0  0  0  0
    1.8852    8.4157    2.6996 C   0  0  0  0  0  0  0  0  0  0  0  0
    1.0053    8.9661    1.7744 C   0  0  0  0  0  0  0  0  0  0  0  0
    0.7678    8.2922    0.5810 C   0  0  0  0  0  0  0  0  0  0  0  0
    2.0949    2.9269    2.2399 C   0  0  0  0  0  0  0  0  0  0  0  0
    2.0806    1.4171    2.4308 C   0  0  0  0  0  0  0  0  0  0  0  0
    2.7479    0.9948    3.7319 C   0  0  0  0  0  0  0  0  0  0  0  0
    4.5478    1.5196    6.1537 C   0  0  0  0  0  0  0  0  0  0  0  0
    5.6397    1.3632    7.1970 C   0  0  0  0  0  0  0  0  0  0  0  0
    5.2831   -1.3567   10.0358 C   0  0  0  0  0  0  0  0  0  0  0  0
  1  2  1  0
  2  3  1  0
  2  4  1  0
  4  5  1  0
  5  6  1  0
  6  7  1  0
  7  8  1  0
  8  9  1  0
  9 10  2  0
  9 11  1  0
 11 12  1  0
 12 13  1  0
 13 14  1  0
 14 15  1  0
 15 16  2  0
 15 17  1  0
 17 18  2  0
 18 19  1  0
 19 20  1  0
 20 21  2  0
 20 22  1  0
 22 23  2  0
 23 17  1  0
 23 24  1  0
 24 25  2  0
 25 26  1  0
 26 27  2  0
 27 22  1  0
 14 28  1  0
 28 29  1  0
 29 30  1  0
 30 12  1  0
 11 31  1  0
 31 32  1  0
 32  7  1  0
  5 33  1  0
 33  2  1  0
M  CHG  1   7   1
M  END
$$$$
m_275030____14114236____14126114____14147072
     RDKit          3D

 34 38  0  0  0  0  0  0  0  0999 V2000
    8.1324   -0.5243    5.3617 S   0  0  0  0  0  0  0  0  0  0  0  0
    6.8336   -1.5154    4.8824 C   0  0  0  0  0  0  0  0  0  0  0  0
    6.8836   -2.6140    5.5922 N   0  0  0  0  0  0  0  0  0  0  0  0
    7.9220   -2.6733    6.4875 C   0  0  0  0  0  0  0  0  0  0  0  0
    8.7556   -1.5943    6.5275 C   0  0  0  0  0  0  0  0  0  0  0  0
    5.9004   -1.1738    3.8911 N   0  0  0  0  0  0  0  0  0  0  0  0
    4.7557   -0.5019    4.2304 C   0  0  0  0  0  0  0  0  0  0  0  0
    4.5509   -0.2055    5.3751 O   0  0  0  0  0  0  0  0  0  0  0  0
    3.7451   -0.1319    3.1570 C   0  0  0  0  0  0  0  0  0  0  0  0
    3.2207    1.2161    3.4213 N   0  0  0  0  0  0  0  0  0  0  0  0
    2.1200    1.4943    2.4902 C   0  0  0  0  0  0  0  0  0  0  0  0
    2.0264    3.0056    2.5174 C   0  0  0  0  0  0  0  0  0  0  0  0
    1.2837    3.5185    1.2939 C   0  0  0  0  0  0  0  0  0  0  0  0
    2.2250    4.2622    0.3599 C   0  0  0  0  0  0  0  0  0  0  0  0
    1.4362    4.8577   -0.7277 N   0  0  0  0  0  0  0  0  0  0  0  0
    1.8529    6.0350   -1.3737 C   0  0  0  0  0  0  0  0  0  0  0  0
    2.8714    6.5744   -1.0397 O   0  0  0  0  0  0  0  0  0  0  0  0
    1.0531    6.5964   -2.4417 C   0  0  0  0  0  0  0  0  0  0  0  0
    0.7980    5.8687   -3.5752 N   0  0  0  0  0  0  0  0  0  0  0  0
    0.0437    6.3853   -4.5964 C   0  0  0  0  0  0  0  0  0  0  0  0
   -0.4794    7.6712   -4.4917 C   0  0  0  0  0  0  0  0  0  0  0  0
   -1.2431    8.1754   -5.5415 C   0  0  0  0  0  0  0  0  0  0  0  0
   -1.4948    7.4276   -6.6860 C   0  0  0  0  0  0  0  0  0  0  0  0
   -0.9645    6.1451   -6.7713 C   0  0  0  0  0  0  0  0  0  0  0  0
   -0.1992    5.6225   -5.7344 C   0  0  0  0  0  0  0  0  0  0  0  0
   -0.2173    8.4307   -3.3170 C   0  0  0  0  0  0  0  0  0  0  0  0
   -0.6443    9.5649   -3.1600 O   0  0  0  0  0  0  0  0  0  0  0  0
    0.5681    7.8671   -2.2769 C   0  0  0  0  0  0  0  0  0  0  0  0
    0.1987    4.1567   -1.0999 C   0  0  0  0  0  0  0  0  0  0  0  0
    0.3716    2.6597   -0.8950 C   0  0  0  0  0  0  0  0  0  0  0  0
    0.7322    2.3180    0.5431 C   0  0  0  0  0  0  0  0  0  0  0  0
    3.4945    3.3904    2.4629 C   0  0  0  0  0  0  0  0  0  0  0  0
    4.2351    2.2138    3.0607 C   0  0  0  0  0  0  0  0  0  0  0  0
    6.1513   -1.5369    2.4890 C   0  0  0  0  0  0  0  0  0  0  0  0
  1  2  1  0
  2  3  2  0
  3  4  1  0
  4  5  2  0
  5  1  1  0
  2  6  1  0
  6  7  1  0
  7  8  2  0
  7  9  1  0
  9 10  1  0
 10 11  1  0
 11 12  1  0
 12 13  1  0
 13 14  1  0
 14 15  1  0
 15 16  1  0
 16 17  2  0
 16 18  1  0
 18 19  1  0
 19 20  1  0
 20 21  2  0
 21 22  1  0
 22 23  2  0
 23 24  1  0
 24 25  2  0
 25 20  1  0
 21 26  1  0
 26 27  2  0
 26 28  1  0
 18 28  2  0
 15 29  1  0
 29 30  1  0
 30 31  1  0
 31 13  1  0
 12 32  1  0
 32 33  1  0
 33 10  1  0
  6 34  1  0
M  CHG  1  10   1
M  END
$$$$
m_275030____14114032____14126114____14146088
     RDKit          3D

 38 43  0  0  0  0  0  0  0  0999 V2000
    5.0128   -1.6357   -1.6113 S   0  0  0  0  0  0  0  0  0  0  0  0
    3.4953   -0.9466   -1.9429 C   0  0  0  0  0  0  0  0  0  0  0  0
    3.7588    0.3603   -2.1947 C   0  0  0  0  0  0  0  0  0  0  0  0
    5.1250    0.7647   -2.1261 C   0  0  0  0  0  0  0  0  0  0  0  0
    5.9814   -0.2498   -1.8060 C   0  0  0  0  0  0  0  0  0  0  0  0
    2.4504    1.0701   -2.5086 C   0  0  0  0  0  0  0  0  0  0  0  0
    1.5592    0.6040   -1.4354 N   0  0  0  0  0  0  0  0  0  0  0  0
    1.0912    1.4729   -0.4417 C   0  0  0  0  0  0  0  0  0  0  0  0
    0.7622    2.5908   -0.7284 O   0  0  0  0  0  0  0  0  0  0  0  0
    1.0000    1.0000    1.0000 C   0  0  0  0  0  0  0  0  0  0  0  0
    1.8489    1.8489    1.8489 N   0  0  0  0  0  0  0  0  0  0  0  0
    1.3978    1.7887    3.2363 C   0  0  0  0  0  0  0  0  0  0  0  0
    2.5945    2.2886    4.0157 C   0  0  0  0  0  0  0  0  0  0  0  0
    2.5076    1.8388    5.4649 C   0  0  0  0  0  0  0  0  0  0  0  0
    1.1395    2.1338    6.0630 C   0  0  0  0  0  0  0  0  0  0  0  0
    1.0610    3.5556    6.5976 C   0  0  0  0  0  0  0  0  0  0  0  0
    1.9649    3.6290    7.7533 N   0  0  0  0  0  0  0  0  0  0  0  0
    1.7202    4.4992    8.8296 C   0  0  0  0  0  0  0  0  0  0  0  0
    0.7518    5.2078    8.8201 O   0  0  0  0  0  0  0  0  0  0  0  0
    2.6364    4.5406    9.9495 C   0  0  0  0  0  0  0  0  0  0  0  0
    2.8709    3.4159   10.6976 N   0  0  0  0  0  0  0  0  0  0  0  0
    3.7344    3.4378   11.7619 C   0  0  0  0  0  0  0  0  0  0  0  0
    4.3923    4.6177   12.0984 C   0  0  0  0  0  0  0  0  0  0  0  0
    5.2652    4.6165   13.1834 C   0  0  0  0  0  0  0  0  0  0  0  0
    5.4947    3.4694   13.9345 C   0  0  0  0  0  0  0  0  0  0  0  0
    4.8290    2.3007   13.5821 C   0  0  0  0  0  0  0  0  0  0  0  0
    3.9529    2.2802   12.5022 C   0  0  0  0  0  0  0  0  0  0  0  0
    4.1522    5.7880   11.3248 C   0  0  0  0  0  0  0  0  0  0  0  0
    4.6946    6.8562   11.5652 O   0  0  0  0  0  0  0  0  0  0  0  0
    3.2514    5.7326   10.2285 C   0  0  0  0  0  0  0  0  0  0  0  0
    3.1381    2.7487    7.7239 C   0  0  0  0  0  0  0  0  0  0  0  0
    3.5438    2.6167    6.2621 C   0  0  0  0  0  0  0  0  0  0  0  0
    3.7247    1.5702    3.2996 C   0  0  0  0  0  0  0  0  0  0  0  0
    3.1881    1.2484    1.9144 C   0  0  0  0  0  0  0  0  0  0  0  0
    1.1296   -0.8011   -1.3683 C   0  0  0  0  0  0  0  0  0  0  0  0
    2.2018   -1.7376   -1.9005 C   0  0  0  0  0  0  0  0  0  0  0  0
    2.5618    2.5809   -2.4012 C   0  0  0  0  0  0  0  0  0  0  0  0
    2.4215    3.1988   -3.7828 C   0  0  0  0  0  0  0  0  0  0  0  0
  1  2  1  0
  2  3  2  0
  3  4  1  0
  4  5  2  0
  5  1  1  0
  3  6  1  0
  6  7  1  0
  7  8  1  0
  8  9  2  0
  8 10  1  0
 10 11  1  0
 11 12  1  0
 12 13  1  0
 13 14  1  0
 14 15  1  0
 15 16  1  0
 16 17  1  0
 17 18  1  0
 18 19  2  0
 18 20  1  0
 20 21  1  0
 21 22  1  0
 22 23  2  0
 23 24  1  0
 24 25  2  0
 25 26  1  0
 26 27  2  0
 27 22  1  0
 23 28  1  0
 28 29  2  0
 28 30  1  0
 20 30  2  0
 17 31  1  0
 31 32  1  0
 32 14  1  0
 13 33  1  0
 33 34  1  0
 34 11  1  0
  7 35  1  0
 35 36  1  0
 36  2  1  0
  6 37  1  0
 37 38  1  0
M  CHG  1  11   1
M  END
$$$$
m_275030____14114100____14126114____12659166
     RDKit          3D

 35 38  0  0  0  0  0  0  0  0999 V2000
    1.5760    7.6396    5.9907 O   0  0  0  0  0  0  0  0  0  0  0  0
    2.6855    7.4276    6.3958 C   0  0  0  0  0  0  0  0  0  0  0  0
    3.3407    6.2305    6.0573 N   0  0  0  0  0  0  0  0  0  0  0  0
    2.6949    5.2187    5.2095 C   0  0  0  0  0  0  0  0  0  0  0  0
    3.7716    4.4597    4.4505 C   0  0  0  0  0  0  0  0  0  0  0  0
    3.1532    3.4984    3.4473 C   0  0  0  0  0  0  0  0  0  0  0  0
    2.0911    4.1873    2.6056 C   0  0  0  0  0  0  0  0  0  0  0  0
    1.5003    3.2491    1.5630 C   0  0  0  0  0  0  0  0  0  0  0  0
    1.8488    1.8488    1.8488 N   0  0  0  0  0  0  0  0  0  0  0  0
    1.0000    1.0000    1.0000 C   0  0  0  0  0  0  0  0  0  0  0  0
    1.8770    0.1547    0.0907 C   0  0  0  0  0  0  0  0  0  0  0  0
    2.6241    0.6848   -0.6844 O   0  0  0  0  0  0  0  0  0  0  0  0
    1.8144   -1.2123    0.1560 N   0  0  0  0  0  0  0  0  0  0  0  0
    2.9229   -2.0245   -0.3660 C   0  0  0  0  0  0  0  0  0  0  0  0
    4.1263   -1.8898    0.5527 C   0  0  0  0  0  0  0  0  0  0  0  0
    5.1986   -1.2852    0.1349 C   0  0  0  0  0  0  0  0  0  0  0  0
    4.0759   -2.4619    1.9600 C   0  0  0  0  0  0  0  0  0  0  0  0
    0.6389   -1.8668    0.7482 C   0  0  0  0  0  0  0  0  0  0  0  0
   -0.1744   -2.5356   -0.3480 C   0  0  0  0  0  0  0  0  0  0  0  0
    1.6102    1.5190    3.2634 C   0  0  0  0  0  0  0  0  0  0  0  0
    2.4627    2.3693    4.1947 C   0  0  0  0  0  0  0  0  0  0  0  0
    4.5640    3.6415    5.4563 C   0  0  0  0  0  0  0  0  0  0  0  0
    4.8449    4.4210    6.7324 C   0  0  0  0  0  0  0  0  0  0  0  0
    4.6983    5.9209    6.5291 C   0  0  0  0  0  0  0  0  0  0  0  0
    3.3492    8.4043    7.2330 C   0  0  0  0  0  0  0  0  0  0  0  0
    4.5322    8.9715    6.8351 N   0  0  0  0  0  0  0  0  0  0  0  0
    5.1745    9.8969    7.6161 C   0  0  0  0  0  0  0  0  0  0  0  0
    4.6246   10.2768    8.8374 C   0  0  0  0  0  0  0  0  0  0  0  0
    5.2944   11.2189    9.6140 C   0  0  0  0  0  0  0  0  0  0  0  0
    6.4936   11.7869    9.1996 C   0  0  0  0  0  0  0  0  0  0  0  0
    7.0263   11.3954    7.9764 C   0  0  0  0  0  0  0  0  0  0  0  0
    6.3736   10.4561    7.1854 C   0  0  0  0  0  0  0  0  0  0  0  0
    3.3966    9.6907    9.2548 C   0  0  0  0  0  0  0  0  0  0  0  0
    2.8595    9.9775   10.3143 O   0  0  0  0  0  0  0  0  0  0  0  0
    2.7562    8.7345    8.4231 C   0  0  0  0  0  0  0  0  0  0  0  0
  1  2  2  0
  2  3  1  0
  3  4  1  0
  4  5  1  0
  5  6  1  0
  6  7  1  0
  7  8  1  0
  8  9  1  0
  9 10  1  0
 10 11  1  0
 11 12  2  0
 11 13  1  0
 13 14  1  0
 14 15  1  0
 15 16  2  0
 15 17  1  0
 13 18  1  0
 18 19  1  0
  9 20  1  0
 20 21  1  0
 21  6  1  0
  5 22  1  0
 22 23  1  0
 23 24  1  0
 24  3  1  0
  2 25  1  0
 25 26  1  0
 26 27  1  0
 27 28  2  0
 28 29  1  0
 29 30  2  0
 30 31  1  0
 31 32  2  0
 32 27  1  0
 28 33  1  0
 33 34  2  0
 33 35  1  0
 25 35  2  0
M  CHG  1   9   1
M  END
$$$$
m_275030____14113648____14124968____14147854
     RDKit          3D

 34 39  0  0  0  0  0  0  0  0999 V2000
   -5.1888    5.8387    3.0220 S   0  0  0  0  0  0  0  0  0  0  0  0
   -5.0081    7.5151    3.2391 C   0  0  0  0  0  0  0  0  0  0  0  0
   -3.7455    7.8213    2.7794 C   0  0  0  0  0  0  0  0  0  0  0  0
   -3.0368    6.7397    2.3084 N   0  0  0  0  0  0  0  0  0  0  0  0
   -3.6444    5.5806    2.3576 C   0  0  0  0  0  0  0  0  0  0  0  0
   -3.1358    4.3446    1.9401 N   0  0  0  0  0  0  0  0  0  0  0  0
   -2.1156    3.7530    2.6372 C   0  0  0  0  0  0  0  0  0  0  0  0
   -1.7785    4.1970    3.6999 O   0  0  0  0  0  0  0  0  0  0  0  0
   -1.4107    2.5341    2.0647 C   0  0  0  0  0  0  0  0  0  0  0  0
   -0.0150    2.5115    2.5291 N   0  0  0  0  0  0  0  0  0  0  0  0
    0.6558    1.2645    2.1490 C   0  0  0  0  0  0  0  0  0  0  0  0
    2.1148    1.5325    2.4634 C   0  0  0  0  0  0  0  0  0  0  0  0
    2.6594    1.2293    3.8474 C   0  0  0  0  0  0  0  0  0  0  0  0
    4.0507    1.6854    3.8773 N   0  0  0  0  0  0  0  0  0  0  0  0
    5.0671    0.9281    4.4751 C   0  0  0  0  0  0  0  0  0  0  0  0
    6.1962    1.3345    4.4766 O   0  0  0  0  0  0  0  0  0  0  0  0
    4.7394   -0.4080    5.1214 C   0  0  0  0  0  0  0  0  0  0  0  0
    4.4319   -1.3455    4.4385 O   0  0  0  0  0  0  0  0  0  0  0  0
    4.7965   -0.5449    6.5143 N   0  0  0  0  0  0  0  0  0  0  0  0
    4.5100   -1.7620    7.2795 C   0  0  0  0  0  0  0  0  0  0  0  0
    5.3934   -1.6835    8.5082 C   0  0  0  0  0  0  0  0  0  0  0  0
    5.7945   -0.2225    8.6407 C   0  0  0  0  0  0  0  0  0  0  0  0
    5.1498    0.5043    7.4752 C   0  0  0  0  0  0  0  0  0  0  0  0
    6.6032   -2.5991    8.4195 C   0  0  0  0  0  0  0  0  0  0  0  0
    4.2959    2.9858    3.2476 C   0  0  0  0  0  0  0  0  0  0  0  0
    2.9490    3.6821    3.2808 C   0  0  0  0  0  0  0  0  0  0  0  0
    2.2468    2.9982    2.1245 C   0  0  0  0  0  0  0  0  0  0  0  0
    0.8394    3.4774    1.8266 C   0  0  0  0  0  0  0  0  0  0  0  0
    2.2463    3.5256    4.6226 C   0  0  0  0  0  0  0  0  0  0  0  0
    2.0260    2.0578    4.9519 C   0  0  0  0  0  0  0  0  0  0  0  0
   -3.4479    9.1749    2.8929 C   0  0  0  0  0  0  0  0  0  0  0  0
   -4.3560   10.0889    3.4196 C   0  0  0  0  0  0  0  0  0  0  0  0
   -5.6153    9.6933    3.8637 C   0  0  0  0  0  0  0  0  0  0  0  0
   -5.9683    8.3562    3.7755 C   0  0  0  0  0  0  0  0  0  0  0  0
  1  2  1  0
  2  3  2  0
  3  4  1  0
  4  5  2  0
  5  1  1  0
  5  6  1  0
  6  7  1  0
  7  8  2  0
  7  9  1  0
  9 10  1  0
 10 11  1  0
 11 12  1  0
 12 13  1  0
 13 14  1  0
 14 15  1  0
 15 16  2  0
 15 17  1  0
 17 18  2  0
 17 19  1  0
 19 20  1  0
 20 21  1  0
 21 22  1  0
 22 23  1  0
 23 19  1  0
 21 24  1  0
 14 25  1  0
 25 26  1  0
 26 27  1  0
 27 12  1  0
 27 28  1  0
 28 10  1  0
 26 29  1  0
 29 30  1  0
 30 13  1  0
  3 31  1  0
 31 32  2  0
 32 33  1  0
 33 34  2  0
 34  2  1  0
M  CHG  1  10   1
M  END
$$$$
m_275592____15865406____15846120____14134194
     RDKit          3D

 35 40  0  0  0  0  0  0  0  0999 V2000
   -1.9451    0.6556    6.7032 O   0  0  0  0  0  0  0  0  0  0  0  0
   -1.6992    1.7207    6.2081 C   0  0  0  0  0  0  0  0  0  0  0  0
   -0.5470    1.8818    5.4325 N   0  0  0  0  0  0  0  0  0  0  0  0
    0.3413    0.7230    5.2448 C   0  0  0  0  0  0  0  0  0  0  0  0
    0.8751    0.7022    3.8162 C   0  0  0  0  0  0  0  0  0  0  0  0
    1.4191    2.0391    3.3150 C   0  0  0  0  0  0  0  0  0  0  0  0
    1.8796    1.8796    1.8796 C   0  0  0  0  0  0  0  0  0  0  0  0
    1.0000    1.0000    1.0000 C   0  0  0  0  0  0  0  0  0  0  0  0
    1.5673    0.9387   -0.3547 N   0  0  0  0  0  0  0  0  0  0  0  0
    0.9432    0.2011   -1.3260 C   0  0  0  0  0  0  0  0  0  0  0  0
   -0.0149   -0.4664   -1.0497 O   0  0  0  0  0  0  0  0  0  0  0  0
    1.4412    0.2271   -2.6898 C   0  0  0  0  0  0  0  0  0  0  0  0
    0.6750    0.6551   -3.7734 C   0  0  0  0  0  0  0  0  0  0  0  0
    1.2523    0.6389   -5.0404 C   0  0  0  0  0  0  0  0  0  0  0  0
    2.5173    0.2156   -5.1752 N   0  0  0  0  0  0  0  0  0  0  0  0
    3.2265   -0.1802   -4.1694 N   0  0  0  0  0  0  0  0  0  0  0  0
    2.7469   -0.1950   -2.9154 C   0  0  0  0  0  0  0  0  0  0  0  0
    0.5066    1.0611   -6.1363 C   0  0  0  0  0  0  0  0  0  0  0  0
   -0.8060    1.4997   -5.9894 C   0  0  0  0  0  0  0  0  0  0  0  0
   -1.3945    1.5212   -4.7300 C   0  0  0  0  0  0  0  0  0  0  0  0
   -0.6402    1.0981   -3.6411 C   0  0  0  0  0  0  0  0  0  0  0  0
    3.2602    1.2959    2.0829 C   0  0  0  0  0  0  0  0  0  0  0  0
    3.8522    2.1870    3.1530 C   0  0  0  0  0  0  0  0  0  0  0  0
    2.6528    2.6571    3.9439 C   0  0  0  0  0  0  0  0  0  0  0  0
    0.2659    3.0301    3.4174 C   0  0  0  0  0  0  0  0  0  0  0  0
   -0.2877    3.1957    4.8266 C   0  0  0  0  0  0  0  0  0  0  0  0
   -2.6007    2.8453    6.4151 C   0  0  0  0  0  0  0  0  0  0  0  0
   -2.2868    3.9881    6.9807 N   0  0  0  0  0  0  0  0  0  0  0  0
   -3.3487    4.7676    7.0080 N   0  0  0  0  0  0  0  0  0  0  0  0
   -4.3618    4.1552    6.4377 C   0  0  0  0  0  0  0  0  0  0  0  0
   -3.9290    2.9222    6.0656 N   0  0  0  0  0  0  0  0  0  0  0  0
   -4.8608    1.9728    5.4322 C   0  0  0  0  0  0  0  0  0  0  0  0
   -6.0874    2.6214    4.8067 C   0  0  0  0  0  0  0  0  0  0  0  0
   -6.7214    3.4674    5.8992 C   0  0  0  0  0  0  0  0  0  0  0  0
   -5.7810    4.6327    6.1680 C   0  0  0  0  0  0  0  0  0  0  0  0
  1  2  2  0
  2  3  1  0
  3  4  1  0
  4  5  1  0
  5  6  1  0
  6  7  1  0
  7  8  1  0
  8  9  1  0
  9 10  1  0
 10 11  2  0
 10 12  1  0
 12 13  2  0
 13 14  1  0
 14 15  2  0
 15 16  1  0
 16 17  2  0
 17 12  1  0
 14 18  1  0
 18 19  2  0
 19 20  1  0
 20 21  2  0
 21 13  1  0
  7 22  1  0
 22 23  1  0
 23 24  1  0
 24  6  1  0
  6 25  1  0
 25 26  1  0
 26  3  1  0
  2 27  1  0
 27 28  2  0
 28 29  1  0
 29 30  2  0
 30 31  1  0
 31 27  1  0
 31 32  1  0
 32 33  1  0
 33 34  1  0
 34 35  1  0
 35 30  1  0
M  END
$$$$
m_275030____14114236____14123420____14147198
     RDKit          3D

 37 41  0  0  0  0  0  0  0  0999 V2000
   -3.1111   -6.0270    1.9775 O   0  0  0  0  0  0  0  0  0  0  0  0
   -3.2624   -5.1315    2.7618 C   0  0  0  0  0  0  0  0  0  0  0  0
   -2.5780   -3.9559    2.5996 N   0  0  0  0  0  0  0  0  0  0  0  0
   -1.8083   -3.8183    1.6501 N   0  0  0  0  0  0  0  0  0  0  0  0
   -1.1084   -2.6180    1.4836 C   0  0  0  0  0  0  0  0  0  0  0  0
   -0.7598   -2.1880    0.2074 C   0  0  0  0  0  0  0  0  0  0  0  0
   -0.0644   -0.9934    0.0514 C   0  0  0  0  0  0  0  0  0  0  0  0
    0.2750   -0.2438    1.1732 C   0  0  0  0  0  0  0  0  0  0  0  0
   -0.0731   -0.6733    2.4492 C   0  0  0  0  0  0  0  0  0  0  0  0
   -0.7687   -1.8677    2.6052 C   0  0  0  0  0  0  0  0  0  0  0  0
    1.0000    1.0000    1.0000 C   0  0  0  0  0  0  0  0  0  0  0  0
    0.4000    2.0293    0.8566 O   0  0  0  0  0  0  0  0  0  0  0  0
    2.3991    1.0000    1.0000 N   0  0  0  0  0  0  0  0  0  0  0  0
    3.1093    2.2893    0.9622 C   0  0  0  0  0  0  0  0  0  0  0  0
    4.4246    2.1983    0.2012 C   0  0  0  0  0  0  0  0  0  0  0  0
    5.2065    3.4779    0.4488 C   0  0  0  0  0  0  0  0  0  0  0  0
    5.4194    3.6945    1.9325 C   0  0  0  0  0  0  0  0  0  0  0  0
    6.5395    4.6432    1.9690 N   0  0  0  0  0  0  0  0  0  0  0  0
    7.1688    4.5935    3.2970 C   0  0  0  0  0  0  0  0  0  0  0  0
    8.3302    5.5729    3.3443 C   0  0  0  0  0  0  0  0  0  0  0  0
    8.9592    5.5232    4.6715 N   0  0  0  0  0  0  0  0  0  0  0  0
   10.0080    4.6736    5.0224 C   0  0  0  0  0  0  0  0  0  0  0  0
   10.5361    3.8634    4.2759 O   0  0  0  0  0  0  0  0  0  0  0  0
   10.3731    4.8873    6.3519 N   0  0  0  0  0  0  0  0  0  0  0  0
    9.4925    5.9301    6.8892 C   0  0  0  0  0  0  0  0  0  0  0  0
    8.5779    6.3224    5.7493 C   0  0  0  0  0  0  0  0  0  0  0  0
    7.6902    7.1674    5.7638 O   0  0  0  0  0  0  0  0  0  0  0  0
   10.1485    7.1454    7.5110 C   0  0  0  0  0  0  0  0  0  0  0  0
   10.6940    6.6415    8.8319 C   0  0  0  0  0  0  0  0  0  0  0  0
    9.6681    5.6153    9.2657 C   0  0  0  0  0  0  0  0  0  0  0  0
    8.6962    5.5196    8.1069 C   0  0  0  0  0  0  0  0  0  0  0  0
    7.4714    4.1119    0.9671 C   0  0  0  0  0  0  0  0  0  0  0  0
    6.6395    3.3417   -0.0354 C   0  0  0  0  0  0  0  0  0  0  0  0
    5.2440    0.9818    0.6085 C   0  0  0  0  0  0  0  0  0  0  0  0
    4.4162   -0.2518    0.2727 C   0  0  0  0  0  0  0  0  0  0  0  0
    3.0985   -0.2954    1.0344 C   0  0  0  0  0  0  0  0  0  0  0  0
   -4.1197   -5.2847    3.8194 N   0  0  0  0  0  0  0  0  0  0  0  0
  1  2  2  0
  2  3  1  0
  3  4  2  0
  4  5  1  0
  5  6  2  0
  6  7  1  0
  7  8  2  0
  8  9  1  0
  9 10  2  0
 10  5  1  0
  8 11  1  0
 11 12  2  0
 11 13  1  0
 13 14  1  0
 14 15  1  0
 15 16  1  0
 16 17  1  0
 17 18  1  0
 18 19  1  0
 19 20  1  0
 20 21  1  0
 21 22  1  0
 22 23  2  0
 22 24  1  0
 24 25  1  0
 25 26  1  0
 26 21  1  0
 26 27  2  0
 25 28  1  0
 28 29  1  0
 29 30  1  0
 30 31  1  0
 31 25  1  0
 18 32  1  0
 32 33  1  0
 33 16  1  0
 15 34  1  0
 34 35  1  0
 35 36  1  0
 36 13  1  0
  2 37  1  0
M  CHG  2   4   1  18   1
M  END
$$$$
m_275592____15865406____15843342____14129774
     RDKit          3D

 33 37  0  0  0  0  0  0  0  0999 V2000
    7.0417    2.9122    5.3426 O   0  0  0  0  0  0  0  0  0  0  0  0
    7.7463    1.9425    5.3988 C   0  0  0  0  0  0  0  0  0  0  0  0
    7.3466    0.7704    4.8128 N   0  0  0  0  0  0  0  0  0  0  0  0
    6.1080    0.7290    4.0222 C   0  0  0  0  0  0  0  0  0  0  0  0
    6.4226    1.0514    2.5704 C   0  0  0  0  0  0  0  0  0  0  0  0
    5.2105    1.0372    1.6574 C   0  0  0  0  0  0  0  0  0  0  0  0
    4.3411    2.2764    1.8289 C   0  0  0  0  0  0  0  0  0  0  0  0
    3.0885    2.3011    0.9595 C   0  0  0  0  0  0  0  0  0  0  0  0
    2.3982    1.0000    1.0000 N   0  0  0  0  0  0  0  0  0  0  0  0
    1.0000    1.0000    1.0000 C   0  0  0  0  0  0  0  0  0  0  0  0
    0.4000    2.0387    0.9677 O   0  0  0  0  0  0  0  0  0  0  0  0
    0.2400   -0.3157    1.0410 C   0  0  0  0  0  0  0  0  0  0  0  0
    0.0033   -0.6838    2.3919 O   0  0  0  0  0  0  0  0  0  0  0  0
   -0.7063   -1.9122    2.4301 C   0  0  0  0  0  0  0  0  0  0  0  0
   -0.0040   -3.0811    1.7836 C   0  0  0  0  0  0  0  0  0  0  0  0
    0.6472   -3.3370    3.1244 C   0  0  0  0  0  0  0  0  0  0  0  0
   -0.5903   -2.6992    3.7171 C   0  0  0  0  0  0  0  0  0  0  0  0
   -2.1504   -1.7996    1.9695 C   0  0  0  0  0  0  0  0  0  0  0  0
    3.0880   -0.2968    1.0514 C   0  0  0  0  0  0  0  0  0  0  0  0
    4.2895   -0.1390    1.9689 C   0  0  0  0  0  0  0  0  0  0  0  0
    5.9716    1.0582    0.3493 C   0  0  0  0  0  0  0  0  0  0  0  0
    7.0071   -0.0362    0.5128 C   0  0  0  0  0  0  0  0  0  0  0  0
    7.3334   -0.0149    1.9898 C   0  0  0  0  0  0  0  0  0  0  0  0
    9.0227    2.0114    6.0878 C   0  0  0  0  0  0  0  0  0  0  0  0
    9.1391    2.3316    7.4411 C   0  0  0  0  0  0  0  0  0  0  0  0
   10.3991    2.3762    8.0326 C   0  0  0  0  0  0  0  0  0  0  0  0
   11.5096    2.0964    7.2419 C   0  0  0  0  0  0  0  0  0  0  0  0
   11.3740    1.7918    5.9425 N   0  0  0  0  0  0  0  0  0  0  0  0
   10.1710    1.7430    5.3510 C   0  0  0  0  0  0  0  0  0  0  0  0
   10.5534    2.6901    9.3788 C   0  0  0  0  0  0  0  0  0  0  0  0
    9.4272    2.9639   10.1475 C   0  0  0  0  0  0  0  0  0  0  0  0
    8.1552    2.9275    9.5880 C   0  0  0  0  0  0  0  0  0  0  0  0
    8.0313    2.6114    8.2396 C   0  0  0  0  0  0  0  0  0  0  0  0
  1  2  2  0
  2  3  1  0
  3  4  1  0
  4  5  1  0
  5  6  1  0
  6  7  1  0
  7  8  1  0
  8  9  1  0
  9 10  1  0
 10 11  2  0
 10 12  1  0
 12 13  1  0
 13 14  1  0
 14 15  1  0
 15 16  1  0
 16 17  1  0
 17 14  1  0
 14 18  1  0
  9 19  1  0
 19 20  1  0
 20  6  1  0
  6 21  1  0
 21 22  1  0
 22 23  1  0
 23  5  1  0
  2 24  1  0
 24 25  2  0
 25 26  1  0
 26 27  2  0
 27 28  1  0
 28 29  2  0
 29 24  1  0
 26 30  1  0
 30 31  2  0
 31 32  1  0
 32 33  2  0
 33 25  1  0
M  END
$$$$
m_274860b____17162908____17184506____15233636
     RDKit          3D

 32 37  0  0  0  0  0  0  0  0999 V2000
    5.9772   -7.7950    3.8062 F   0  0  0  0  0  0  0  0  0  0  0  0
    5.3535   -6.7288    3.3139 C   0  0  0  0  0  0  0  0  0  0  0  0
    3.9645   -6.6666    3.3424 C   0  0  0  0  0  0  0  0  0  0  0  0
    3.3248   -5.5453    2.8239 C   0  0  0  0  0  0  0  0  0  0  0  0
    4.0736   -4.5047    2.2844 C   0  0  0  0  0  0  0  0  0  0  0  0
    5.4633   -4.5673    2.2565 C   0  0  0  0  0  0  0  0  0  0  0  0
    6.1022   -5.6884    2.7750 C   0  0  0  0  0  0  0  0  0  0  0  0
    3.3906   -3.3434    1.7480 C   0  0  0  0  0  0  0  0  0  0  0  0
    2.0431   -3.1535    1.7137 N   0  0  0  0  0  0  0  0  0  0  0  0
    1.8338   -2.0308    1.1745 N   0  0  0  0  0  0  0  0  0  0  0  0
    2.9557   -1.4438    0.8374 N   0  0  0  0  0  0  0  0  0  0  0  0
    3.9866   -2.2554    1.1876 C   0  0  0  0  0  0  0  0  0  0  0  0
    3.0759   -0.1308    0.1885 C   0  0  0  0  0  0  0  0  0  0  0  0
    2.4703    1.0000    1.0000 C   0  0  0  0  0  0  0  0  0  0  0  0
    1.0000    1.0000    1.0000 N   0  0  0  0  0  0  0  0  0  0  0  0
    0.3150    1.2196   -0.1660 C   0  0  0  0  0  0  0  0  0  0  0  0
    0.8607    1.0569   -1.2222 O   0  0  0  0  0  0  0  0  0  0  0  0
   -1.1369    1.6696   -0.1216 C   0  0  0  0  0  0  0  0  0  0  0  0
   -2.1646    0.7794    0.5572 C   0  0  0  0  0  0  0  0  0  0  0  0
   -2.7891    1.1915    1.4954 O   0  0  0  0  0  0  0  0  0  0  0  0
   -2.3822   -0.5172    0.0895 N   0  0  0  0  0  0  0  0  0  0  0  0
   -1.7093   -1.1732   -1.0385 C   0  0  0  0  0  0  0  0  0  0  0  0
   -1.8123   -2.6611   -0.7822 C   0  0  0  0  0  0  0  0  0  0  0  0
   -2.5572   -2.7783    0.5356 C   0  0  0  0  0  0  0  0  0  0  0  0
   -3.3262   -1.4809    0.6513 C   0  0  0  0  0  0  0  0  0  0  0  0
   -1.3622    3.1485    0.0166 C   0  0  0  0  0  0  0  0  0  0  0  0
   -1.6197    2.4695   -1.2980 C   0  0  0  0  0  0  0  0  0  0  0  0
    3.1051    2.2303    0.4138 C   0  0  0  0  0  0  0  0  0  0  0  0
    4.5148    1.7352    0.5987 C   0  0  0  0  0  0  0  0  0  0  0  0
    4.5035    0.3368   -0.0048 C   0  0  0  0  0  0  0  0  0  0  0  0
    4.5384    1.4746    2.0877 C   0  0  0  0  0  0  0  0  0  0  0  0
    3.0827    1.1457    2.3786 C   0  0  0  0  0  0  0  0  0  0  0  0
  1  2  1  0
  2  3  2  0
  3  4  1  0
  4  5  2  0
  5  6  1  0
  6  7  2  0
  7  2  1  0
  5  8  1  0
  8  9  1  0
  9 10  2  0
 10 11  1  0
 11 12  1  0
  8 12  2  0
 11 13  1  0
 13 14  1  0
 14 15  1  0
 15 16  1  0
 16 17  2  0
 16 18  1  0
 18 19  1  0
 19 20  2  0
 19 21  1  0
 21 22  1  0
 22 23  1  0
 23 24  1  0
 24 25  1  0
 25 21  1  0
 18 26  1  0
 26 27  1  0
 27 18  1  0
 14 28  1  0
 28 29  1  0
 29 30  1  0
 30 13  1  0
 29 31  1  0
 31 32  1  0
 32 14  1  0
M  END
$$$$
m_275030____14114032____14127080____14148758
     RDKit          3D

 34 39  0  0  0  0  0  0  0  0999 V2000
   -3.0138    4.9918   -0.6904 O   0  0  0  0  0  0  0  0  0  0  0  0
   -2.0017    5.5851   -0.4384 C   0  0  0  0  0  0  0  0  0  0  0  0
   -0.8781    4.8890    0.0152 N   0  0  0  0  0  0  0  0  0  0  0  0
   -0.9789    3.4285    0.1699 C   0  0  0  0  0  0  0  0  0  0  0  0
   -0.1140    2.9157    1.3131 C   0  0  0  0  0  0  0  0  0  0  0  0
    1.2837    3.5185    1.2940 C   0  0  0  0  0  0  0  0  0  0  0  0
    2.0264    3.0056    2.5174 C   0  0  0  0  0  0  0  0  0  0  0  0
    2.1200    1.4943    2.4902 C   0  0  0  0  0  0  0  0  0  0  0  0
    3.2207    1.2161    3.4213 N   0  0  0  0  0  0  0  0  0  0  0  0
    3.7451   -0.1319    3.1570 C   0  0  0  0  0  0  0  0  0  0  0  0
    4.8860   -0.4291    4.1170 C   0  0  0  0  0  0  0  0  0  0  0  0
    4.7697   -0.9844    5.2970 N   0  0  0  0  0  0  0  0  0  0  0  0
    5.9231   -1.0752    5.8085 O   0  0  0  0  0  0  0  0  0  0  0  0
    6.8144   -0.5885    4.9807 C   0  0  0  0  0  0  0  0  0  0  0  0
    6.2046   -0.1696    3.8995 N   0  0  0  0  0  0  0  0  0  0  0  0
    8.3158   -0.5200    5.2300 C   0  0  0  0  0  0  0  0  0  0  0  0
    9.1036   -1.2949    4.1922 C   0  0  0  0  0  0  0  0  0  0  0  0
   10.0345   -1.6853    5.3192 C   0  0  0  0  0  0  0  0  0  0  0  0
    8.8356   -1.5241    6.2353 C   0  0  0  0  0  0  0  0  0  0  0  0
    4.2351    2.2138    3.0607 C   0  0  0  0  0  0  0  0  0  0  0  0
    3.4945    3.3904    2.4629 C   0  0  0  0  0  0  0  0  0  0  0  0
    1.1428    5.0259    1.4514 C   0  0  0  0  0  0  0  0  0  0  0  0
    0.3433    5.6533    0.3178 C   0  0  0  0  0  0  0  0  0  0  0  0
   -1.9444    7.0248   -0.6046 C   0  0  0  0  0  0  0  0  0  0  0  0
   -1.6933    7.9152    0.3217 N   0  0  0  0  0  0  0  0  0  0  0  0
   -1.7263    9.0893   -0.1680 O   0  0  0  0  0  0  0  0  0  0  0  0
   -1.9960    9.0492   -1.4489 C   0  0  0  0  0  0  0  0  0  0  0  0
   -2.1092   10.1921   -2.3344 C   0  0  0  0  0  0  0  0  0  0  0  0
   -1.9308   11.4908   -1.8684 C   0  0  0  0  0  0  0  0  0  0  0  0
   -2.0368   12.5410   -2.6958 N   0  0  0  0  0  0  0  0  0  0  0  0
   -2.3180   12.3758   -3.9968 C   0  0  0  0  0  0  0  0  0  0  0  0
   -2.5079   11.1029   -4.5243 C   0  0  0  0  0  0  0  0  0  0  0  0
   -2.4012   10.0021   -3.6808 C   0  0  0  0  0  0  0  0  0  0  0  0
   -2.1496    7.7439   -1.7998 C   0  0  0  0  0  0  0  0  0  0  0  0
  1  2  2  0
  2  3  1  0
  3  4  1  0
  4  5  1  0
  5  6  1  0
  6  7  1  0
  7  8  1  0
  8  9  1  0
  9 10  1  0
 10 11  1  0
 11 12  2  0
 12 13  1  0
 13 14  1  0
 14 15  2  0
 15 11  1  0
 14 16  1  0
 16 17  1  0
 17 18  1  0
 18 19  1  0
 19 16  1  0
  9 20  1  0
 20 21  1  0
 21  7  1  0
  6 22  1  0
 22 23  1  0
 23  3  1  0
  2 24  1  0
 24 25  2  0
 25 26  1  0
 26 27  1  0
 27 28  1  0
 28 29  2  0
 29 30  1  0
 30 31  2  0
 31 32  1  0
 32 33  2  0
 33 28  1  0
 27 34  2  0
 34 24  1  0
M  CHG  1   9   1
M  END
$$$$
s_22____13308402____8593110
     RDKit          3D

 35 37  0  0  0  0  0  0  0  0999 V2000
    0.0805   -0.8064   -0.8064 O   0  0  0  0  0  0  0  0  0  0  0  0
    1.2755   -0.7286   -0.7286 C   0  0  0  0  0  0  0  0  0  0  0  0
    2.0318   -1.4849   -1.4849 O   0  0  0  0  0  0  0  0  0  0  0  0
    1.4376   -2.3969   -2.3969 C   0  0  0  0  0  0  0  0  0  0  0  0
    2.5272   -3.1463   -3.1463 C   0  0  0  0  0  0  0  0  0  0  0  0
    0.5748   -3.3878   -1.6327 C   0  0  0  0  0  0  0  0  0  0  0  0
    0.5748   -1.6327   -3.3878 C   0  0  0  0  0  0  0  0  0  0  0  0
    1.8487    0.1513    0.1513 N   0  0  0  0  0  0  0  0  0  0  0  0
    1.0000    1.0000    1.0000 C   0  0  0  0  0  0  0  0  0  0  0  0
    1.8776    1.8776    1.8776 C   0  0  0  0  0  0  0  0  0  0  0  0
    0.9996    2.7556    2.7556 C   0  0  0  0  0  0  0  0  0  0  0  0
    1.9206    3.6129    3.6129 C   0  0  0  0  0  0  0  0  0  0  0  0
    1.1605    4.4740    4.6121 C   0  0  0  0  0  0  0  0  0  0  0  0
    0.1035    3.7185    5.3046 N   0  0  0  0  0  0  0  0  0  0  0  0
   -0.2057    4.0592    6.6242 C   0  0  0  0  0  0  0  0  0  0  0  0
   -1.0627    3.4606    7.2134 O   0  0  0  0  0  0  0  0  0  0  0  0
    0.5093    5.1363    7.2816 C   0  0  0  0  0  0  0  0  0  0  0  0
    0.0546    6.4817    7.2244 C   0  0  0  0  0  0  0  0  0  0  0  0
   -0.9636    6.7561    6.6099 O   0  0  0  0  0  0  0  0  0  0  0  0
    0.7716    7.4592    7.8653 N   0  0  0  0  0  0  0  0  0  0  0  0
    1.9177    7.1693    8.5607 C   0  0  0  0  0  0  0  0  0  0  0  0
    2.3795    5.8795    8.6328 C   0  0  0  0  0  0  0  0  0  0  0  0
    3.5871    5.5371    9.3590 C   0  0  0  0  0  0  0  0  0  0  0  0
    4.5585    4.7642    8.7322 C   0  0  0  0  0  0  0  0  0  0  0  0
    5.7199    4.4294    9.4210 C   0  0  0  0  0  0  0  0  0  0  0  0
    5.8955    4.8726   10.7278 C   0  0  0  0  0  0  0  0  0  0  0  0
    7.0199    4.5542   11.4036 O   0  0  0  0  0  0  0  0  0  0  0  0
    4.9234    5.6456   11.3543 C   0  0  0  0  0  0  0  0  0  0  0  0
    3.7619    5.9801   10.6660 C   0  0  0  0  0  0  0  0  0  0  0  0
    1.6546    4.8491    7.9771 C   0  0  0  0  0  0  0  0  0  0  0  0
    2.6548    8.3101    9.2439 C   0  0  0  0  0  0  0  0  0  0  0  0
   -0.6436    2.6162    4.6761 C   0  0  0  0  0  0  0  0  0  0  0  0
    0.2090    1.8414    3.6818 C   0  0  0  0  0  0  0  0  0  0  0  0
    2.7551    1.0000    2.7551 C   0  0  0  0  0  0  0  0  0  0  0  0
    2.7551    2.7551    1.0000 C   0  0  0  0  0  0  0  0  0  0  0  0
  1  2  2  0
  2  3  1  0
  3  4  1  0
  4  5  1  0
  4  6  1  0
  4  7  1  0
  2  8  1  0
  8  9  1  0
  9 10  1  0
 10 11  1  0
 11 12  1  0
 12 13  1  0
 13 14  1  0
 14 15  1  0
 15 16  2  0
 15 17  1  0
 17 18  1  0
 18 19  2  0
 18 20  1  0
 20 21  1  0
 21 22  2  0
 22 23  1  0
 23 24  2  0
 24 25  1  0
 25 26  2  0
 26 27  1  0
 26 28  1  0
 28 29  2  0
 29 23  1  0
 22 30  1  0
 17 30  2  0
 21 31  1  0
 14 32  1  0
 32 33  1  0
 33 11  1  0
 10 34  1  0
 10 35  1  0
M  END
$$$$
m_274310____14112962____14118380____15870612
     RDKit          3D

 37 42  0  0  0  0  0  0  0  0999 V2000
    0.6204    6.5829   -2.1788 O   0  0  0  0  0  0  0  0  0  0  0  0
    1.3003    6.1934   -1.2406 C   0  0  0  0  0  0  0  0  0  0  0  0
    2.2316    5.2175   -1.4857 N   0  0  0  0  0  0  0  0  0  0  0  0
    3.0335    4.7260   -0.4885 C   0  0  0  0  0  0  0  0  0  0  0  0
    2.9299    5.1989    0.7938 C   0  0  0  0  0  0  0  0  0  0  0  0
    1.9740    6.2132    1.0860 C   0  0  0  0  0  0  0  0  0  0  0  0
    1.1558    6.7150    0.0763 C   0  0  0  0  0  0  0  0  0  0  0  0
    0.2252    7.7072    0.3780 C   0  0  0  0  0  0  0  0  0  0  0  0
    0.0879    8.2152    1.6656 C   0  0  0  0  0  0  0  0  0  0  0  0
    0.9034    7.7167    2.6766 C   0  0  0  0  0  0  0  0  0  0  0  0
    1.8313    6.7258    2.3735 C   0  0  0  0  0  0  0  0  0  0  0  0
    3.8110    4.6328    1.7976 C   0  0  0  0  0  0  0  0  0  0  0  0
    4.8848    5.1280    2.0014 O   0  0  0  0  0  0  0  0  0  0  0  0
    3.4087    3.5093    2.5281 N   0  0  0  0  0  0  0  0  0  0  0  0
    4.3233    2.9558    3.5406 C   0  0  0  0  0  0  0  0  0  0  0  0
    4.1958    1.4438    3.6644 C   0  0  0  0  0  0  0  0  0  0  0  0
    4.9584    1.0023    4.9033 C   0  0  0  0  0  0  0  0  0  0  0  0
    4.3364    1.7003    6.1046 C   0  0  0  0  0  0  0  0  0  0  0  0
    4.9732    1.2660    7.4175 C   0  0  0  0  0  0  0  0  0  0  0  0
    5.1316   -0.1954    7.4961 N   0  0  0  0  0  0  0  0  0  0  0  0
    5.0317   -0.8094    8.7587 C   0  0  0  0  0  0  0  0  0  0  0  0
    4.7981   -0.0989    9.8780 N   0  0  0  0  0  0  0  0  0  0  0  0
    4.6995   -0.6563   11.0984 C   0  0  0  0  0  0  0  0  0  0  0  0
    4.8451   -1.9925   11.1676 N   0  0  0  0  0  0  0  0  0  0  0  0
    5.0798   -2.7619   10.0889 C   0  0  0  0  0  0  0  0  0  0  0  0
    5.1668   -2.1402    8.8995 N   0  0  0  0  0  0  0  0  0  0  0  0
    5.2376   -4.2694   10.2100 C   0  0  0  0  0  0  0  0  0  0  0  0
    6.3923   -4.6513   11.1058 C   0  0  0  0  0  0  0  0  0  0  0  0
    6.6924   -6.0927   10.7372 C   0  0  0  0  0  0  0  0  0  0  0  0
    6.2295   -6.2367    9.2941 C   0  0  0  0  0  0  0  0  0  0  0  0
    5.6891   -4.8755    8.8979 C   0  0  0  0  0  0  0  0  0  0  0  0
    4.4525    0.1237   12.2453 N   0  0  0  0  0  0  0  0  0  0  0  0
    5.3845   -1.0472    6.3221 C   0  0  0  0  0  0  0  0  0  0  0  0
    4.7294   -0.4939    5.0640 C   0  0  0  0  0  0  0  0  0  0  0  0
    2.7443    0.9913    3.7385 C   0  0  0  0  0  0  0  0  0  0  0  0
    2.0724    1.4186    2.4401 C   0  0  0  0  0  0  0  0  0  0  0  0
    2.0852    2.9288    2.2459 C   0  0  0  0  0  0  0  0  0  0  0  0
  1  2  2  0
  2  3  1  0
  3  4  1  0
  4  5  2  0
  5  6  1  0
  6  7  2  0
  7  2  1  0
  7  8  1  0
  8  9  2  0
  9 10  1  0
 10 11  2  0
 11  6  1  0
  5 12  1  0
 12 13  2  0
 12 14  1  0
 14 15  1  0
 15 16  1  0
 16 17  1  0
 17 18  1  0
 18 19  1  0
 19 20  1  0
 20 21  1  0
 21 22  2  0
 22 23  1  0
 23 24  2  0
 24 25  1  0
 25 26  2  0
 26 21  1  0
 25 27  1  0
 27 28  1  0
 28 29  1  0
 29 30  1  0
 30 31  1  0
 31 27  1  0
 23 32  1  0
 20 33  1  0
 33 34  1  0
 34 17  1  0
 16 35  1  0
 35 36  1  0
 36 37  1  0
 37 14  1  0
M  END
$$$$
m_275030____14114032____14125180____14148322
     RDKit          3D

 35 40  0  0  0  0  0  0  0  0999 V2000
   -1.8767   11.0313   -0.7833 O   0  0  0  0  0  0  0  0  0  0  0  0
   -1.8812    9.8089   -0.7778 C   0  0  0  0  0  0  0  0  0  0  0  0
   -2.2583    9.1747    0.3777 N   0  0  0  0  0  0  0  0  0  0  0  0
   -2.2899    7.8071    0.4666 C   0  0  0  0  0  0  0  0  0  0  0  0
   -1.9445    7.0252   -0.6047 C   0  0  0  0  0  0  0  0  0  0  0  0
   -1.5480    7.6488   -1.8220 C   0  0  0  0  0  0  0  0  0  0  0  0
   -1.5129    9.0383   -1.9170 C   0  0  0  0  0  0  0  0  0  0  0  0
   -1.1227    9.6336   -3.1147 C   0  0  0  0  0  0  0  0  0  0  0  0
   -0.7649    8.8773   -4.2259 C   0  0  0  0  0  0  0  0  0  0  0  0
   -0.7988    7.4894   -4.1350 C   0  0  0  0  0  0  0  0  0  0  0  0
   -1.1881    6.8970   -2.9383 C   0  0  0  0  0  0  0  0  0  0  0  0
   -2.0017    5.5852   -0.4385 C   0  0  0  0  0  0  0  0  0  0  0  0
   -3.0139    4.9919   -0.6905 O   0  0  0  0  0  0  0  0  0  0  0  0
   -0.8782    4.8890    0.0151 N   0  0  0  0  0  0  0  0  0  0  0  0
   -0.9790    3.4286    0.1699 C   0  0  0  0  0  0  0  0  0  0  0  0
   -0.1140    2.9157    1.3130 C   0  0  0  0  0  0  0  0  0  0  0  0
    1.2837    3.5185    1.2939 C   0  0  0  0  0  0  0  0  0  0  0  0
    2.0264    3.0056    2.5174 C   0  0  0  0  0  0  0  0  0  0  0  0
    2.1200    1.4943    2.4902 C   0  0  0  0  0  0  0  0  0  0  0  0
    3.2207    1.2161    3.4213 N   0  0  0  0  0  0  0  0  0  0  0  0
    3.7451   -0.1319    3.1570 C   0  0  0  0  0  0  0  0  0  0  0  0
    4.7559   -0.5020    4.2306 C   0  0  0  0  0  0  0  0  0  0  0  0
    4.3546   -0.5448    5.5622 C   0  0  0  0  0  0  0  0  0  0  0  0
    5.2746   -0.8840    6.5484 C   0  0  0  0  0  0  0  0  0  0  0  0
    6.5861   -1.1775    6.1892 C   0  0  0  0  0  0  0  0  0  0  0  0
    6.9885   -1.1340    4.8587 C   0  0  0  0  0  0  0  0  0  0  0  0
    6.0686   -0.7933    3.8725 C   0  0  0  0  0  0  0  0  0  0  0  0
    7.5959   -1.5499    7.2626 C   0  0  0  0  0  0  0  0  0  0  0  0
    8.6277   -2.5395    6.7583 C   0  0  0  0  0  0  0  0  0  0  0  0
    8.5666   -3.1686    8.1329 C   0  0  0  0  0  0  0  0  0  0  0  0
    7.1436   -2.6460    8.2022 C   0  0  0  0  0  0  0  0  0  0  0  0
    4.2351    2.2138    3.0607 C   0  0  0  0  0  0  0  0  0  0  0  0
    3.4945    3.3904    2.4629 C   0  0  0  0  0  0  0  0  0  0  0  0
    1.1428    5.0259    1.4513 C   0  0  0  0  0  0  0  0  0  0  0  0
    0.3433    5.6534    0.3178 C   0  0  0  0  0  0  0  0  0  0  0  0
  1  2  2  0
  2  3  1  0
  3  4  1  0
  4  5  2  0
  5  6  1  0
  6  7  2  0
  7  2  1  0
  7  8  1  0
  8  9  2  0
  9 10  1  0
 10 11  2  0
 11  6  1  0
  5 12  1  0
 12 13  2  0
 12 14  1  0
 14 15  1  0
 15 16  1  0
 16 17  1  0
 17 18  1  0
 18 19  1  0
 19 20  1  0
 20 21  1  0
 21 22  1  0
 22 23  2  0
 23 24  1  0
 24 25  2  0
 25 26  1  0
 26 27  2  0
 27 22  1  0
 25 28  1  0
 28 29  1  0
 29 30  1  0
 30 31  1  0
 31 28  1  0
 20 32  1  0
 32 33  1  0
 33 18  1  0
 17 34  1  0
 34 35  1  0
 35 14  1  0
M  CHG  1  20   1
M  END
$$$$
s_527a____14937640____6464806
     RDKit          3D

 35 38  0  0  0  0  0  0  0  0999 V2000
    8.0925    6.3906    7.1136 Cl  0  0  0  0  0  0  0  0  0  0  0  0
    9.1846    6.8980    5.8031 C   0  0  0  0  0  0  0  0  0  0  0  0
    8.7068    7.6953    4.7682 C   0  0  0  0  0  0  0  0  0  0  0  0
    7.4119    8.0785    4.7655 O   0  0  0  0  0  0  0  0  0  0  0  0
    6.4825    7.3119    4.1571 C   0  0  0  0  0  0  0  0  0  0  0  0
    6.8118    6.1637    3.5460 N   0  0  0  0  0  0  0  0  0  0  0  0
    5.8900    5.4003    2.9411 C   0  0  0  0  0  0  0  0  0  0  0  0
    4.5492    5.7732    2.9248 C   0  0  0  0  0  0  0  0  0  0  0  0
    4.1896    6.9605    3.5530 C   0  0  0  0  0  0  0  0  0  0  0  0
    5.1587    7.7396    4.1766 C   0  0  0  0  0  0  0  0  0  0  0  0
    3.5346    4.9643    2.2758 C   0  0  0  0  0  0  0  0  0  0  0  0
    2.8858    5.4233    1.3767 O   0  0  0  0  0  0  0  0  0  0  0  0
    3.3116    3.6426    2.7002 N   0  0  0  0  0  0  0  0  0  0  0  0
    2.2940    2.7937    2.0677 C   0  0  0  0  0  0  0  0  0  0  0  0
    1.7783    1.8689    3.1590 C   0  0  0  0  0  0  0  0  0  0  0  0
    2.8353    0.8496    3.5636 C   0  0  0  0  0  0  0  0  0  0  0  0
    2.8615   -0.3062    2.6552 N   0  0  0  0  0  0  0  0  0  0  0  0
    3.9197   -1.2016    3.1620 C   0  0  0  0  0  0  0  0  0  0  0  0
    3.9651   -2.5645    2.4786 C   0  0  0  0  0  0  0  0  0  0  0  0
    2.7176   -2.9259    1.7804 N   0  0  0  0  0  0  0  0  0  0  0  0
    2.7523   -3.8719    0.7475 C   0  0  0  0  0  0  0  0  0  0  0  0
    1.7416   -4.1716    0.1742 O   0  0  0  0  0  0  0  0  0  0  0  0
    3.8880   -4.4292    0.4075 O   0  0  0  0  0  0  0  0  0  0  0  0
    3.9232   -5.3879   -0.6393 C   0  0  0  0  0  0  0  0  0  0  0  0
    3.4269   -4.7506   -1.9270 C   0  0  0  0  0  0  0  0  0  0  0  0
    5.3499   -5.8753   -0.8323 C   0  0  0  0  0  0  0  0  0  0  0  0
    3.0303   -6.5642   -0.2793 C   0  0  0  0  0  0  0  0  0  0  0  0
    1.4243   -2.3302    2.1674 C   0  0  0  0  0  0  0  0  0  0  0  0
    1.5267   -0.9297    2.7665 C   0  0  0  0  0  0  0  0  0  0  0  0
    4.1904    1.5420    3.4863 C   0  0  0  0  0  0  0  0  0  0  0  0
    4.0757    3.0274    3.7965 C   0  0  0  0  0  0  0  0  0  0  0  0
    9.5532    8.0973    3.7403 C   0  0  0  0  0  0  0  0  0  0  0  0
   10.8847    7.6948    3.7549 C   0  0  0  0  0  0  0  0  0  0  0  0
   11.3587    6.8974    4.7914 C   0  0  0  0  0  0  0  0  0  0  0  0
   10.5154    6.4939    5.8211 C   0  0  0  0  0  0  0  0  0  0  0  0
  1  2  1  0
  2  3  2  0
  3  4  1  0
  4  5  1  0
  5  6  2  0
  6  7  1  0
  7  8  2  0
  8  9  1  0
  9 10  2  0
 10  5  1  0
  8 11  1  0
 11 12  2  0
 11 13  1  0
 13 14  1  0
 14 15  1  0
 15 16  1  0
 16 17  1  0
 17 18  1  0
 18 19  1  0
 19 20  1  0
 20 21  1  0
 21 22  2  0
 21 23  1  0
 23 24  1  0
 24 25  1  0
 24 26  1  0
 24 27  1  0
 20 28  1  0
 28 29  1  0
 29 17  1  0
 16 30  1  0
 30 31  1  0
 31 13  1  0
  3 32  1  0
 32 33  2  0
 33 34  1  0
 34 35  2  0
 35  2  1  0
M  CHG  1  17   1
M  END
$$$$
m_275030____14114236____14125676____14147828
     RDKit          3D

 36 41  0  0  0  0  0  0  0  0999 V2000
    7.9813    7.2693    4.4419 S   0  0  0  0  0  0  0  0  0  0  0  0
    6.9058    6.5561    3.3373 C   0  0  0  0  0  0  0  0  0  0  0  0
    7.3486    6.7427    2.1066 N   0  0  0  0  0  0  0  0  0  0  0  0
    8.5228    7.4584    2.0422 C   0  0  0  0  0  0  0  0  0  0  0  0
    9.0268    7.8373    3.2254 C   0  0  0  0  0  0  0  0  0  0  0  0
   10.3042    8.6454    3.1623 C   0  0  0  0  0  0  0  0  0  0  0  0
   10.8136    8.1497    1.8267 C   0  0  0  0  0  0  0  0  0  0  0  0
    9.5163    8.0350    1.0553 C   0  0  0  0  0  0  0  0  0  0  0  0
    5.7478    5.8938    3.7694 N   0  0  0  0  0  0  0  0  0  0  0  0
    4.8999    5.3287    2.8537 C   0  0  0  0  0  0  0  0  0  0  0  0
    5.1481    5.4004    1.6818 O   0  0  0  0  0  0  0  0  0  0  0  0
    3.6447    4.6107    3.3220 C   0  0  0  0  0  0  0  0  0  0  0  0
    3.4428    3.3978    2.5136 N   0  0  0  0  0  0  0  0  0  0  0  0
    2.0245    3.0381    2.5894 C   0  0  0  0  0  0  0  0  0  0  0  0
    2.0335    1.5304    2.5408 C   0  0  0  0  0  0  0  0  0  0  0  0
    0.7409    0.9516    3.0884 C   0  0  0  0  0  0  0  0  0  0  0  0
    0.4828    1.4435    4.5036 C   0  0  0  0  0  0  0  0  0  0  0  0
   -0.6959    0.7465    5.0370 N   0  0  0  0  0  0  0  0  0  0  0  0
   -0.8437    0.5085    6.4149 C   0  0  0  0  0  0  0  0  0  0  0  0
    0.0026    0.8770    7.1816 O   0  0  0  0  0  0  0  0  0  0  0  0
   -2.0184   -0.1820    6.9091 C   0  0  0  0  0  0  0  0  0  0  0  0
   -2.2809   -1.4556    6.4756 N   0  0  0  0  0  0  0  0  0  0  0  0
   -3.3813   -2.1391    6.9218 C   0  0  0  0  0  0  0  0  0  0  0  0
   -3.5639   -3.2708    6.4999 O   0  0  0  0  0  0  0  0  0  0  0  0
   -4.2641   -1.5173    7.8496 C   0  0  0  0  0  0  0  0  0  0  0  0
   -3.9893   -0.2246    8.2830 C   0  0  0  0  0  0  0  0  0  0  0  0
   -4.8240    0.4231    9.1881 C   0  0  0  0  0  0  0  0  0  0  0  0
   -5.9510   -0.2374    9.6656 C   0  0  0  0  0  0  0  0  0  0  0  0
   -6.2519   -1.5305    9.2511 C   0  0  0  0  0  0  0  0  0  0  0  0
   -5.3999   -2.1525    8.3454 C   0  0  0  0  0  0  0  0  0  0  0  0
   -2.8398    0.4568    7.8010 C   0  0  0  0  0  0  0  0  0  0  0  0
   -1.7038    0.3182    4.0562 C   0  0  0  0  0  0  0  0  0  0  0  0
   -1.7492    1.3034    2.8986 C   0  0  0  0  0  0  0  0  0  0  0  0
   -0.3994    1.4375    2.2094 C   0  0  0  0  0  0  0  0  0  0  0  0
    3.1885    1.2612    3.4826 C   0  0  0  0  0  0  0  0  0  0  0  0
    4.2286    2.2670    3.0210 C   0  0  0  0  0  0  0  0  0  0  0  0
  1  2  1  0
  2  3  2  0
  3  4  1  0
  4  5  2  0
  5  1  1  0
  5  6  1  0
  6  7  1  0
  7  8  1  0
  8  4  1  0
  2  9  1  0
  9 10  1  0
 10 11  2  0
 10 12  1  0
 12 13  1  0
 13 14  1  0
 14 15  1  0
 15 16  1  0
 16 17  1  0
 17 18  1  0
 18 19  1  0
 19 20  2  0
 19 21  1  0
 21 22  1  0
 22 23  1  0
 23 24  2  0
 23 25  1  0
 25 26  2  0
 26 27  1  0
 27 28  2  0
 28 29  1  0
 29 30  2  0
 30 25  1  0
 26 31  1  0
 21 31  2  0
 18 32  1  0
 32 33  1  0
 33 34  1  0
 34 16  1  0
 15 35  1  0
 35 36  1  0
 36 13  1  0
M  CHG  1  13   1
M  END
$$$$
m_275030____14114032____14126114____14146258
     RDKit          3D

 35 38  0  0  0  0  0  0  0  0999 V2000
   10.6918   -3.9662    3.7065 O   0  0  0  0  0  0  0  0  0  0  0  0
   10.7327   -3.9157    2.5083 C   0  0  0  0  0  0  0  0  0  0  0  0
    9.6310   -3.4235    1.7876 N   0  0  0  0  0  0  0  0  0  0  0  0
    8.4104   -2.9609    2.4615 C   0  0  0  0  0  0  0  0  0  0  0  0
    7.2524   -3.2233    1.5109 C   0  0  0  0  0  0  0  0  0  0  0  0
    7.3349   -2.3380    0.2756 C   0  0  0  0  0  0  0  0  0  0  0  0
    6.7039   -0.9756    0.5188 C   0  0  0  0  0  0  0  0  0  0  0  0
    5.3744   -1.1106    1.2422 C   0  0  0  0  0  0  0  0  0  0  0  0
    4.5570   -0.0333    0.6680 N   0  0  0  0  0  0  0  0  0  0  0  0
    3.1300   -0.3113    0.8853 C   0  0  0  0  0  0  0  0  0  0  0  0
    2.3700    1.0000    1.0000 C   0  0  0  0  0  0  0  0  0  0  0  0
    2.9700    2.0353    1.0906 O   0  0  0  0  0  0  0  0  0  0  0  0
    1.0000    1.0000    1.0000 N   0  0  0  0  0  0  0  0  0  0  0  0
    0.2650    2.2731    1.0000 C   0  0  0  0  0  0  0  0  0  0  0  0
   -1.2294    1.9953    1.0000 C   0  0  0  0  0  0  0  0  0  0  0  0
   -1.9894    3.3117    1.0000 C   0  0  0  0  0  0  0  0  0  0  0  0
   -3.3855    3.0522    1.0000 O   0  0  0  0  0  0  0  0  0  0  0  0
   -4.0955    4.2819    1.0000 C   0  0  0  0  0  0  0  0  0  0  0  0
   -3.7283    5.0790   -0.2411 C   0  0  0  0  0  0  0  0  0  0  0  0
   -5.5899    4.0042    1.0000 C   0  0  0  0  0  0  0  0  0  0  0  0
    4.8824   -0.1440   -0.7534 C   0  0  0  0  0  0  0  0  0  0  0  0
    6.3953   -0.2404   -0.7717 C   0  0  0  0  0  0  0  0  0  0  0  0
    8.8057   -2.1244   -0.0488 C   0  0  0  0  0  0  0  0  0  0  0  0
    9.6410   -3.3422    0.3228 C   0  0  0  0  0  0  0  0  0  0  0  0
   11.9167   -4.3618    1.8051 C   0  0  0  0  0  0  0  0  0  0  0  0
   11.8417   -5.3878    0.8989 N   0  0  0  0  0  0  0  0  0  0  0  0
   12.9531   -5.8234    0.2252 C   0  0  0  0  0  0  0  0  0  0  0  0
   14.1862   -5.2198    0.4561 C   0  0  0  0  0  0  0  0  0  0  0  0
   15.3017   -5.6785   -0.2400 C   0  0  0  0  0  0  0  0  0  0  0  0
   15.2129   -6.7200   -1.1565 C   0  0  0  0  0  0  0  0  0  0  0  0
   13.9725   -7.3092   -1.3740 C   0  0  0  0  0  0  0  0  0  0  0  0
   12.8459   -6.8664   -0.6894 C   0  0  0  0  0  0  0  0  0  0  0  0
   14.2692   -4.1542    1.3960 C   0  0  0  0  0  0  0  0  0  0  0  0
   15.3189   -3.5813    1.6473 O   0  0  0  0  0  0  0  0  0  0  0  0
   13.0995   -3.7265    2.0779 C   0  0  0  0  0  0  0  0  0  0  0  0
  1  2  2  0
  2  3  1  0
  3  4  1  0
  4  5  1  0
  5  6  1  0
  6  7  1  0
  7  8  1  0
  8  9  1  0
  9 10  1  0
 10 11  1  0
 11 12  2  0
 11 13  1  0
 13 14  1  0
 14 15  1  0
 15 16  1  0
 16 17  1  0
 17 18  1  0
 18 19  1  0
 18 20  1  0
  9 21  1  0
 21 22  1  0
 22  7  1  0
  6 23  1  0
 23 24  1  0
 24  3  1  0
  2 25  1  0
 25 26  1  0
 26 27  1  0
 27 28  2  0
 28 29  1  0
 29 30  2  0
 30 31  1  0
 31 32  2  0
 32 27  1  0
 28 33  1  0
 33 34  2  0
 33 35  1  0
 25 35  2  0
M  CHG  1   9   1
M  END
$$$$
m_274310____14113098____14116038____15869724
     RDKit          3D

 39 44  0  0  0  0  0  0  0  0999 V2000
   -2.8380    3.5540    1.2222 O   0  0  0  0  0  0  0  0  0  0  0  0
   -2.2763    3.4934    0.1635 C   0  0  0  0  0  0  0  0  0  0  0  0
   -0.9050    3.2204    0.1136 N   0  0  0  0  0  0  0  0  0  0  0  0
   -0.1761    3.0117    1.3759 C   0  0  0  0  0  0  0  0  0  0  0  0
    1.2615    3.5063    1.2973 C   0  0  0  0  0  0  0  0  0  0  0  0
    2.0041    3.0054    2.5252 C   0  0  0  0  0  0  0  0  0  0  0  0
    2.0058    1.4971    2.5989 C   0  0  0  0  0  0  0  0  0  0  0  0
    3.2132    1.2251    3.3828 N   0  0  0  0  0  0  0  0  0  0  0  0
    3.3556    0.1807    4.3171 C   0  0  0  0  0  0  0  0  0  0  0  0
    2.3503   -0.6774    4.5663 N   0  0  0  0  0  0  0  0  0  0  0  0
    2.4471   -1.6867    5.4512 C   0  0  0  0  0  0  0  0  0  0  0  0
    1.4153   -2.5414    5.6830 O   0  0  0  0  0  0  0  0  0  0  0  0
    1.5623   -3.5927    6.6262 C   0  0  0  0  0  0  0  0  0  0  0  0
    3.6179   -1.8184    6.1009 N   0  0  0  0  0  0  0  0  0  0  0  0
    4.6632   -0.9957    5.8991 C   0  0  0  0  0  0  0  0  0  0  0  0
    4.4981   -0.0072    5.0013 N   0  0  0  0  0  0  0  0  0  0  0  0
    5.8680   -1.1581    6.5935 N   0  0  0  0  0  0  0  0  0  0  0  0
    6.9707   -0.2196    6.3217 C   0  0  0  0  0  0  0  0  0  0  0  0
    6.9694    0.9804    7.2622 C   0  0  0  0  0  0  0  0  0  0  0  0
    7.3794    0.6415    8.6928 C   0  0  0  0  0  0  0  0  0  0  0  0
    6.5774   -0.4813    9.3387 C   0  0  0  0  0  0  0  0  0  0  0  0
    6.8727   -1.8624    8.7600 C   0  0  0  0  0  0  0  0  0  0  0  0
    5.9961   -2.2484    7.5746 C   0  0  0  0  0  0  0  0  0  0  0  0
    4.2383    2.2188    3.0463 C   0  0  0  0  0  0  0  0  0  0  0  0
    3.4674    3.3882    2.4540 C   0  0  0  0  0  0  0  0  0  0  0  0
    1.9602    3.0494    0.0245 C   0  0  0  0  0  0  0  0  0  0  0  0
    1.1909    3.6415   -1.1490 C   0  0  0  0  0  0  0  0  0  0  0  0
   -0.2518    3.1578   -1.2046 C   0  0  0  0  0  0  0  0  0  0  0  0
   -3.0186    3.7030   -1.0636 C   0  0  0  0  0  0  0  0  0  0  0  0
   -2.6595    4.7288   -1.8990 N   0  0  0  0  0  0  0  0  0  0  0  0
   -3.3377    4.9565   -3.0675 C   0  0  0  0  0  0  0  0  0  0  0  0
   -2.9725    5.8858   -3.7712 O   0  0  0  0  0  0  0  0  0  0  0  0
   -4.4306    4.1147   -3.4190 C   0  0  0  0  0  0  0  0  0  0  0  0
   -4.7875    3.0768   -2.5646 C   0  0  0  0  0  0  0  0  0  0  0  0
   -5.8489    2.2296   -2.8665 C   0  0  0  0  0  0  0  0  0  0  0  0
   -6.5620    2.4271   -4.0441 C   0  0  0  0  0  0  0  0  0  0  0  0
   -6.2286    3.4559   -4.9186 C   0  0  0  0  0  0  0  0  0  0  0  0
   -5.1635    4.2872   -4.5905 C   0  0  0  0  0  0  0  0  0  0  0  0
   -4.0638    2.8676   -1.3602 C   0  0  0  0  0  0  0  0  0  0  0  0
  1  2  2  0
  2  3  1  0
  3  4  1  0
  4  5  1  0
  5  6  1  0
  6  7  1  0
  7  8  1  0
  8  9  1  0
  9 10  2  0
 10 11  1  0
 11 12  1  0
 12 13  1  0
 11 14  2  0
 14 15  1  0
 15 16  2  0
 16  9  1  0
 15 17  1  0
 17 18  1  0
 18 19  1  0
 19 20  1  0
 20 21  1  0
 21 22  1  0
 22 23  1  0
 23 17  1  0
  8 24  1  0
 24 25  1  0
 25  6  1  0
  5 26  1  0
 26 27  1  0
 27 28  1  0
 28  3  1  0
  2 29  1  0
 29 30  1  0
 30 31  1  0
 31 32  2  0
 31 33  1  0
 33 34  2  0
 34 35  1  0
 35 36  2  0
 36 37  1  0
 37 38  2  0
 38 33  1  0
 34 39  1  0
 29 39  2  0
M  END
$$$$
s_27c____14937634____575184
     RDKit          3D

 32 35  0  0  0  0  0  0  0  0999 V2000
    1.2913   -0.5676    4.2455 O   0  0  0  0  0  0  0  0  0  0  0  0
    2.3665   -0.0710    4.4388 C   0  0  0  0  0  0  0  0  0  0  0  0
    3.1762   -0.5880    5.3294 O   0  0  0  0  0  0  0  0  0  0  0  0
    2.7816   -1.7361    6.0660 C   0  0  0  0  0  0  0  0  0  0  0  0
    1.5202   -1.4234    6.8543 C   0  0  0  0  0  0  0  0  0  0  0  0
    2.5087   -2.8839    5.1076 C   0  0  0  0  0  0  0  0  0  0  0  0
    3.8935   -2.1299    7.0246 C   0  0  0  0  0  0  0  0  0  0  0  0
    2.7553    1.0603    3.7129 N   0  0  0  0  0  0  0  0  0  0  0  0
    4.0808    1.6419    3.9769 C   0  0  0  0  0  0  0  0  0  0  0  0
    4.0751    3.1516    3.7908 C   0  0  0  0  0  0  0  0  0  0  0  0
    3.3824    3.5502    2.5542 N   0  0  0  0  0  0  0  0  0  0  0  0
    3.3997    5.0199    2.5065 C   0  0  0  0  0  0  0  0  0  0  0  0
    4.8529    5.4726    2.4993 C   0  0  0  0  0  0  0  0  0  0  0  0
    4.9880    6.9823    2.3617 C   0  0  0  0  0  0  0  0  0  0  0  0
    4.1098    7.5226    1.3103 N   0  0  0  0  0  0  0  0  0  0  0  0
    4.5484    8.6364    0.5868 C   0  0  0  0  0  0  0  0  0  0  0  0
    3.7954    9.1761   -0.3838 N   0  0  0  0  0  0  0  0  0  0  0  0
    4.2071   10.2441   -1.0840 C   0  0  0  0  0  0  0  0  0  0  0  0
    5.4450   10.8212   -0.8107 C   0  0  0  0  0  0  0  0  0  0  0  0
    6.2394   10.2728    0.1954 C   0  0  0  0  0  0  0  0  0  0  0  0
    5.7928    9.1660    0.9079 C   0  0  0  0  0  0  0  0  0  0  0  0
    7.5412   10.8096    0.5476 C   0  0  0  0  0  0  0  0  0  0  0  0
    8.5194   10.1206    0.4550 O   0  0  0  0  0  0  0  0  0  0  0  0
    7.6532   12.1028    0.9856 N   0  0  0  0  0  0  0  0  0  0  0  0
    5.8453   11.9295   -1.5545 C   0  0  0  0  0  0  0  0  0  0  0  0
    5.0514   12.4753   -2.5568 C   0  0  0  0  0  0  0  0  0  0  0  0
    3.8184   11.8889   -2.8190 C   0  0  0  0  0  0  0  0  0  0  0  0
    3.4044   10.7822   -2.0850 C   0  0  0  0  0  0  0  0  0  0  0  0
    2.7965    6.9450    0.9777 C   0  0  0  0  0  0  0  0  0  0  0  0
    2.7619    5.4374    1.1882 C   0  0  0  0  0  0  0  0  0  0  0  0
    1.9698    3.1393    2.6183 C   0  0  0  0  0  0  0  0  0  0  0  0
    1.8216    1.6287    2.7272 C   0  0  0  0  0  0  0  0  0  0  0  0
  1  2  2  0
  2  3  1  0
  3  4  1  0
  4  5  1  0
  4  6  1  0
  4  7  1  0
  2  8  1  0
  8  9  1  0
  9 10  1  0
 10 11  1  0
 11 12  1  0
 12 13  1  0
 13 14  1  0
 14 15  1  0
 15 16  1  0
 16 17  2  0
 17 18  1  0
 18 19  2  0
 19 20  1  0
 20 21  2  0
 21 16  1  0
 20 22  1  0
 22 23  2  0
 22 24  1  0
 19 25  1  0
 25 26  2  0
 26 27  1  0
 27 28  2  0
 28 18  1  0
 15 29  1  0
 29 30  1  0
 30 12  1  0
 11 31  1  0
 31 32  1  0
 32  8  1  0
M  CHG  1  11   1
M  END
$$$$
s_22____13905642____8593110
     RDKit          3D

 36 39  0  0  0  0  0  0  0  0999 V2000
    1.4063    0.1511   -2.4319 O   0  0  0  0  0  0  0  0  0  0  0  0
    0.9432    0.2011   -1.3260 C   0  0  0  0  0  0  0  0  0  0  0  0
   -0.1591   -0.4496   -1.0474 O   0  0  0  0  0  0  0  0  0  0  0  0
   -0.8059   -1.2141   -2.0541 C   0  0  0  0  0  0  0  0  0  0  0  0
   -2.0523   -1.8634   -1.4749 C   0  0  0  0  0  0  0  0  0  0  0  0
   -1.1977   -0.3050   -3.2075 C   0  0  0  0  0  0  0  0  0  0  0  0
    0.1397   -2.2924   -2.5576 C   0  0  0  0  0  0  0  0  0  0  0  0
    1.5673    0.9387   -0.3547 N   0  0  0  0  0  0  0  0  0  0  0  0
    1.0000    1.0000    1.0000 C   0  0  0  0  0  0  0  0  0  0  0  0
    1.8796    1.8796    1.8796 C   0  0  0  0  0  0  0  0  0  0  0  0
    1.4191    2.0391    3.3150 C   0  0  0  0  0  0  0  0  0  0  0  0
    0.8751    0.7022    3.8162 C   0  0  0  0  0  0  0  0  0  0  0  0
    0.3413    0.7230    5.2448 C   0  0  0  0  0  0  0  0  0  0  0  0
   -0.5470    1.8818    5.4325 N   0  0  0  0  0  0  0  0  0  0  0  0
   -1.6992    1.7207    6.2081 C   0  0  0  0  0  0  0  0  0  0  0  0
   -1.9451    0.6556    6.7032 O   0  0  0  0  0  0  0  0  0  0  0  0
   -2.5971    2.8409    6.4143 C   0  0  0  0  0  0  0  0  0  0  0  0
   -3.6812    3.1037    5.5336 C   0  0  0  0  0  0  0  0  0  0  0  0
   -3.8768    2.3771    4.5727 O   0  0  0  0  0  0  0  0  0  0  0  0
   -4.4980    4.1778    5.7781 N   0  0  0  0  0  0  0  0  0  0  0  0
   -4.2934    5.0047    6.8530 C   0  0  0  0  0  0  0  0  0  0  0  0
   -3.2550    4.7746    7.7195 C   0  0  0  0  0  0  0  0  0  0  0  0
   -3.0095    5.6281    8.8657 C   0  0  0  0  0  0  0  0  0  0  0  0
   -1.7282    6.1251    9.0783 C   0  0  0  0  0  0  0  0  0  0  0  0
   -1.4823    6.9439   10.1759 C   0  0  0  0  0  0  0  0  0  0  0  0
   -2.5213    7.2560   11.0465 C   0  0  0  0  0  0  0  0  0  0  0  0
   -2.2927    8.0509   12.1133 O   0  0  0  0  0  0  0  0  0  0  0  0
   -3.8028    6.7584   10.8335 C   0  0  0  0  0  0  0  0  0  0  0  0
   -4.0487    5.9394    9.7365 C   0  0  0  0  0  0  0  0  0  0  0  0
   -2.3949    3.6685    7.4876 C   0  0  0  0  0  0  0  0  0  0  0  0
   -5.2439    6.1742    7.0544 C   0  0  0  0  0  0  0  0  0  0  0  0
   -0.2877    3.1957    4.8266 C   0  0  0  0  0  0  0  0  0  0  0  0
    0.2659    3.0301    3.4174 C   0  0  0  0  0  0  0  0  0  0  0  0
    2.6528    2.6571    3.9439 C   0  0  0  0  0  0  0  0  0  0  0  0
    3.8522    2.1870    3.1530 C   0  0  0  0  0  0  0  0  0  0  0  0
    3.2602    1.2959    2.0829 C   0  0  0  0  0  0  0  0  0  0  0  0
  1  2  2  0
  2  3  1  0
  3  4  1  0
  4  5  1  0
  4  6  1  0
  4  7  1  0
  2  8  1  0
  8  9  1  0
  9 10  1  0
 10 11  1  0
 11 12  1  0
 12 13  1  0
 13 14  1  0
 14 15  1  0
 15 16  2  0
 15 17  1  0
 17 18  1  0
 18 19  2  0
 18 20  1  0
 20 21  1  0
 21 22  2  0
 22 23  1  0
 23 24  2  0
 24 25  1  0
 25 26  2  0
 26 27  1  0
 26 28  1  0
 28 29  2  0
 29 23  1  0
 22 30  1  0
 17 30  2  0
 21 31  1  0
 14 32  1  0
 32 33  1  0
 33 11  1  0
 11 34  1  0
 34 35  1  0
 35 36  1  0
 36 10  1  0
M  END
$$$$
m_274310____14113098____14118380____15870656
     RDKit          3D

 37 43  0  0  0  0  0  0  0  0999 V2000
   -2.8380    3.5540    1.2222 O   0  0  0  0  0  0  0  0  0  0  0  0
   -2.2763    3.4934    0.1635 C   0  0  0  0  0  0  0  0  0  0  0  0
   -0.9050    3.2204    0.1136 N   0  0  0  0  0  0  0  0  0  0  0  0
   -0.1761    3.0117    1.3759 C   0  0  0  0  0  0  0  0  0  0  0  0
    1.2615    3.5063    1.2973 C   0  0  0  0  0  0  0  0  0  0  0  0
    2.0041    3.0054    2.5252 C   0  0  0  0  0  0  0  0  0  0  0  0
    2.0058    1.4971    2.5989 C   0  0  0  0  0  0  0  0  0  0  0  0
    3.2132    1.2251    3.3828 N   0  0  0  0  0  0  0  0  0  0  0  0
    3.3549    0.1861    4.3122 C   0  0  0  0  0  0  0  0  0  0  0  0
    3.6310    0.4384    5.6001 N   0  0  0  0  0  0  0  0  0  0  0  0
    3.7699   -0.5567    6.4898 C   0  0  0  0  0  0  0  0  0  0  0  0
    3.6309   -1.8325    6.0948 N   0  0  0  0  0  0  0  0  0  0  0  0
    3.3564   -2.1657    4.8223 C   0  0  0  0  0  0  0  0  0  0  0  0
    3.1556   -3.3193    4.1161 N   0  0  0  0  0  0  0  0  0  0  0  0
    2.9123   -3.0243    2.8623 N   0  0  0  0  0  0  0  0  0  0  0  0
    2.9442   -1.7646    2.7351 N   0  0  0  0  0  0  0  0  0  0  0  0
    3.2136   -1.1415    3.9234 C   0  0  0  0  0  0  0  0  0  0  0  0
    3.2072   -4.6782    4.6719 C   0  0  0  0  0  0  0  0  0  0  0  0
    4.6273   -5.2129    4.5724 C   0  0  0  0  0  0  0  0  0  0  0  0
    5.5835   -4.3438    5.3359 C   0  0  0  0  0  0  0  0  0  0  0  0
    5.5422   -4.2771    3.8361 C   0  0  0  0  0  0  0  0  0  0  0  0
    4.2383    2.2188    3.0463 C   0  0  0  0  0  0  0  0  0  0  0  0
    3.4674    3.3882    2.4540 C   0  0  0  0  0  0  0  0  0  0  0  0
    1.9602    3.0494    0.0245 C   0  0  0  0  0  0  0  0  0  0  0  0
    1.1909    3.6415   -1.1490 C   0  0  0  0  0  0  0  0  0  0  0  0
   -0.2518    3.1578   -1.2046 C   0  0  0  0  0  0  0  0  0  0  0  0
   -3.0193    3.7032   -1.0647 C   0  0  0  0  0  0  0  0  0  0  0  0
   -3.1806    4.9857   -1.6624 C   0  0  0  0  0  0  0  0  0  0  0  0
   -3.9074    5.1206   -2.8433 C   0  0  0  0  0  0  0  0  0  0  0  0
   -4.0566    6.3820   -3.4158 C   0  0  0  0  0  0  0  0  0  0  0  0
   -3.4977    7.5182   -2.8401 C   0  0  0  0  0  0  0  0  0  0  0  0
   -2.7710    7.3876   -1.6609 C   0  0  0  0  0  0  0  0  0  0  0  0
   -2.6238    6.1275   -1.0906 C   0  0  0  0  0  0  0  0  0  0  0  0
   -4.4767    3.9550   -3.4302 C   0  0  0  0  0  0  0  0  0  0  0  0
   -5.1263    3.9920   -4.4650 O   0  0  0  0  0  0  0  0  0  0  0  0
   -4.3007    2.7363   -2.8274 N   0  0  0  0  0  0  0  0  0  0  0  0
   -3.5857    2.6089   -1.6648 C   0  0  0  0  0  0  0  0  0  0  0  0
  1  2  2  0
  2  3  1  0
  3  4  1  0
  4  5  1  0
  5  6  1  0
  6  7  1  0
  7  8  1  0
  8  9  1  0
  9 10  2  0
 10 11  1  0
 11 12  2  0
 12 13  1  0
 13 14  1  0
 14 15  1  0
 15 16  2  0
 16 17  1  0
 17 13  2  0
 17  9  1  0
 14 18  1  0
 18 19  1  0
 19 20  1  0
 20 21  1  0
 21 19  1  0
  8 22  1  0
 22 23  1  0
 23  6  1  0
  5 24  1  0
 24 25  1  0
 25 26  1  0
 26  3  1  0
  2 27  1  0
 27 28  1  0
 28 29  1  0
 29 30  2  0
 30 31  1  0
 31 32  2  0
 32 33  1  0
 33 28  2  0
 29 34  1  0
 34 35  2  0
 34 36  1  0
 36 37  1  0
 27 37  2  0
M  END
$$$$
m_275030____14114100____14125180____14148012
     RDKit          3D

 34 39  0  0  0  0  0  0  0  0999 V2000
    3.0718    0.9884    8.6244 O   0  0  0  0  0  0  0  0  0  0  0  0
    4.2707    1.0396    8.6192 C   0  0  0  0  0  0  0  0  0  0  0  0
    4.9544    1.3055    7.4278 N   0  0  0  0  0  0  0  0  0  0  0  0
    4.1772    1.5184    6.1954 C   0  0  0  0  0  0  0  0  0  0  0  0
    4.9111    1.0162    4.9597 C   0  0  0  0  0  0  0  0  0  0  0  0
    4.1731    1.5210    3.7307 C   0  0  0  0  0  0  0  0  0  0  0  0
    4.1387    3.0408    3.7241 C   0  0  0  0  0  0  0  0  0  0  0  0
    3.3819    3.5430    2.5050 C   0  0  0  0  0  0  0  0  0  0  0  0
    2.0132    3.0059    2.4862 N   0  0  0  0  0  0  0  0  0  0  0  0
    1.2711    3.5130    1.3202 C   0  0  0  0  0  0  0  0  0  0  0  0
   -0.1372    2.9414    1.3282 C   0  0  0  0  0  0  0  0  0  0  0  0
   -1.1768    3.4904    1.9086 N   0  0  0  0  0  0  0  0  0  0  0  0
   -2.2246    2.6527    1.6718 C   0  0  0  0  0  0  0  0  0  0  0  0
   -1.8032    1.6323    0.9634 N   0  0  0  0  0  0  0  0  0  0  0  0
   -0.5197    1.7781    0.7327 N   0  0  0  0  0  0  0  0  0  0  0  0
   -3.6521    2.8656    2.1508 C   0  0  0  0  0  0  0  0  0  0  0  0
   -3.7114    2.9357    3.6488 C   0  0  0  0  0  0  0  0  0  0  0  0
   -4.1737    1.6970    2.9364 C   0  0  0  0  0  0  0  0  0  0  0  0
    2.0008    1.5356    2.5062 C   0  0  0  0  0  0  0  0  0  0  0  0
    2.7405    1.0121    3.7271 C   0  0  0  0  0  0  0  0  0  0  0  0
    6.3664    1.4617    4.9321 C   0  0  0  0  0  0  0  0  0  0  0  0
    7.0432    0.8661    6.1596 C   0  0  0  0  0  0  0  0  0  0  0  0
    6.4257    1.3566    7.4621 C   0  0  0  0  0  0  0  0  0  0  0  0
    5.0112    0.8258    9.8482 C   0  0  0  0  0  0  0  0  0  0  0  0
    5.4554   -0.4596   10.2708 C   0  0  0  0  0  0  0  0  0  0  0  0
    6.1620   -0.5983   11.4634 C   0  0  0  0  0  0  0  0  0  0  0  0
    6.5897   -1.8625   11.8635 C   0  0  0  0  0  0  0  0  0  0  0  0
    6.3308   -2.9978   11.1027 C   0  0  0  0  0  0  0  0  0  0  0  0
    5.6255   -2.8634    9.9110 C   0  0  0  0  0  0  0  0  0  0  0  0
    5.1990   -1.6006    9.5137 C   0  0  0  0  0  0  0  0  0  0  0  0
    6.4262    0.5665   12.2386 C   0  0  0  0  0  0  0  0  0  0  0  0
    7.0401    0.5262   13.2948 O   0  0  0  0  0  0  0  0  0  0  0  0
    5.9838    1.7880   11.8006 N   0  0  0  0  0  0  0  0  0  0  0  0
    5.2878    1.9192   10.6270 C   0  0  0  0  0  0  0  0  0  0  0  0
  1  2  2  0
  2  3  1  0
  3  4  1  0
  4  5  1  0
  5  6  1  0
  6  7  1  0
  7  8  1  0
  8  9  1  0
  9 10  1  0
 10 11  1  0
 11 12  2  0
 12 13  1  0
 13 14  2  0
 14 15  1  0
 15 11  1  0
 13 16  1  0
 16 17  1  0
 17 18  1  0
 18 16  1  0
  9 19  1  0
 19 20  1  0
 20  6  1  0
  5 21  1  0
 21 22  1  0
 22 23  1  0
 23  3  1  0
  2 24  1  0
 24 25  1  0
 25 26  1  0
 26 27  2  0
 27 28  1  0
 28 29  2  0
 29 30  1  0
 30 25  2  0
 26 31  1  0
 31 32  2  0
 31 33  1  0
 33 34  1  0
 24 34  2  0
M  CHG  1   9   1
M  END
$$$$
s_22____13145964____14264422
     RDKit          3D

 36 40  0  0  0  0  0  0  0  0999 V2000
    1.3118   -0.7220    4.0825 O   0  0  0  0  0  0  0  0  0  0  0  0
    2.3882   -0.2457    4.3157 C   0  0  0  0  0  0  0  0  0  0  0  0
    3.1734   -0.8045    5.2030 O   0  0  0  0  0  0  0  0  0  0  0  0
    2.7508   -1.9738    5.8889 C   0  0  0  0  0  0  0  0  0  0  0  0
    3.8381   -2.4156    6.8548 C   0  0  0  0  0  0  0  0  0  0  0  0
    1.4768   -1.6750    6.6623 C   0  0  0  0  0  0  0  0  0  0  0  0
    2.4850   -3.0826    4.8837 C   0  0  0  0  0  0  0  0  0  0  0  0
    2.8054    0.9086    3.6387 N   0  0  0  0  0  0  0  0  0  0  0  0
    4.1329    1.4696    3.9471 C   0  0  0  0  0  0  0  0  0  0  0  0
    4.0132    2.9877    3.9169 C   0  0  0  0  0  0  0  0  0  0  0  0
    3.4020    3.5306    2.6934 N   0  0  0  0  0  0  0  0  0  0  0  0
    2.0363    3.0205    2.8232 C   0  0  0  0  0  0  0  0  0  0  0  0
    1.8904    1.5153    2.6654 C   0  0  0  0  0  0  0  0  0  0  0  0
    1.6837    3.4264    4.2413 C   0  0  0  0  0  0  0  0  0  0  0  0
    3.0010    3.3469    4.9910 C   0  0  0  0  0  0  0  0  0  0  0  0
    3.4653    5.0010    2.6629 C   0  0  0  0  0  0  0  0  0  0  0  0
    2.8349    5.5726    1.3997 C   0  0  0  0  0  0  0  0  0  0  0  0
    3.8138    5.5500    0.2365 C   0  0  0  0  0  0  0  0  0  0  0  0
    4.8397    6.5535    0.5477 N   0  0  0  0  0  0  0  0  0  0  0  0
    5.4915    7.2781   -0.4656 C   0  0  0  0  0  0  0  0  0  0  0  0
    5.2136    7.0828   -1.6166 O   0  0  0  0  0  0  0  0  0  0  0  0
    6.4995    8.2612   -0.1200 C   0  0  0  0  0  0  0  0  0  0  0  0
    7.6215    7.8772    0.5668 C   0  0  0  0  0  0  0  0  0  0  0  0
    8.5874    8.8667    0.8892 C   0  0  0  0  0  0  0  0  0  0  0  0
    9.5861    8.5247    1.4990 O   0  0  0  0  0  0  0  0  0  0  0  0
    8.3851   10.1697    0.5146 N   0  0  0  0  0  0  0  0  0  0  0  0
    7.2581   10.5418   -0.1715 C   0  0  0  0  0  0  0  0  0  0  0  0
    7.0608   11.9256   -0.5583 C   0  0  0  0  0  0  0  0  0  0  0  0
    5.9127   12.2896   -1.2542 C   0  0  0  0  0  0  0  0  0  0  0  0
    5.7278   13.6179   -1.6240 C   0  0  0  0  0  0  0  0  0  0  0  0
    6.6865   14.5709   -1.2965 C   0  0  0  0  0  0  0  0  0  0  0  0
    7.8292   14.1959   -0.6006 C   0  0  0  0  0  0  0  0  0  0  0  0
    8.0260   12.8709   -0.2258 C   0  0  0  0  0  0  0  0  0  0  0  0
    6.3034    9.6153   -0.5017 C   0  0  0  0  0  0  0  0  0  0  0  0
    5.1388    6.7506    1.9745 C   0  0  0  0  0  0  0  0  0  0  0  0
    4.9328    5.4109    2.6663 C   0  0  0  0  0  0  0  0  0  0  0  0
  1  2  2  0
  2  3  1  0
  3  4  1  0
  4  5  1  0
  4  6  1  0
  4  7  1  0
  2  8  1  0
  8  9  1  0
  9 10  1  0
 10 11  1  0
 11 12  1  0
 12 13  1  0
 13  8  1  0
 12 14  1  0
 14 15  1  0
 15 10  1  0
 11 16  1  0
 16 17  1  0
 17 18  1  0
 18 19  1  0
 19 20  1  0
 20 21  2  0
 20 22  1  0
 22 23  2  0
 23 24  1  0
 24 25  2  0
 24 26  1  0
 26 27  1  0
 27 28  1  0
 28 29  2  0
 29 30  1  0
 30 31  2  0
 31 32  1  0
 32 33  2  0
 33 28  1  0
 27 34  2  0
 34 22  1  0
 19 35  1  0
 35 36  1  0
 36 16  1  0
M  CHG  1  11   1
M  END
$$$$
m_275030____14114032____14125812____14148770
     RDKit          3D

 34 39  0  0  0  0  0  0  0  0999 V2000
   -2.9774    5.4868   -0.1938 O   0  0  0  0  0  0  0  0  0  0  0  0
   -1.8482    5.8127   -0.4361 C   0  0  0  0  0  0  0  0  0  0  0  0
   -0.7826    5.0301    0.0164 N   0  0  0  0  0  0  0  0  0  0  0  0
   -1.0268    3.6010    0.2713 C   0  0  0  0  0  0  0  0  0  0  0  0
   -0.1664    3.0702    1.4097 C   0  0  0  0  0  0  0  0  0  0  0  0
    1.2837    3.5185    1.2940 C   0  0  0  0  0  0  0  0  0  0  0  0
    2.0264    3.0056    2.5174 C   0  0  0  0  0  0  0  0  0  0  0  0
    2.1200    1.4943    2.4902 C   0  0  0  0  0  0  0  0  0  0  0  0
    3.2207    1.2161    3.4213 N   0  0  0  0  0  0  0  0  0  0  0  0
    3.7451   -0.1319    3.1570 C   0  0  0  0  0  0  0  0  0  0  0  0
    4.8862   -0.4292    4.1172 C   0  0  0  0  0  0  0  0  0  0  0  0
    6.1529   -0.1724    3.9026 O   0  0  0  0  0  0  0  0  0  0  0  0
    6.8395   -0.5451    4.8975 N   0  0  0  0  0  0  0  0  0  0  0  0
    6.0275   -1.0538    5.7898 C   0  0  0  0  0  0  0  0  0  0  0  0
    4.7605   -0.9863    5.2962 N   0  0  0  0  0  0  0  0  0  0  0  0
    6.4339   -1.6256    7.1422 C   0  0  0  0  0  0  0  0  0  0  0  0
    5.7806   -0.8881    8.2943 C   0  0  0  0  0  0  0  0  0  0  0  0
    7.0812   -1.0848    9.0417 C   0  0  0  0  0  0  0  0  0  0  0  0
    7.7487   -1.1040    7.6790 C   0  0  0  0  0  0  0  0  0  0  0  0
    4.2351    2.2138    3.0607 C   0  0  0  0  0  0  0  0  0  0  0  0
    3.4945    3.3904    2.4629 C   0  0  0  0  0  0  0  0  0  0  0  0
    1.3074    5.0391    1.3570 C   0  0  0  0  0  0  0  0  0  0  0  0
    0.5244    5.6773    0.2179 C   0  0  0  0  0  0  0  0  0  0  0  0
   -1.5894    7.0192   -1.1988 C   0  0  0  0  0  0  0  0  0  0  0  0
   -1.7363    8.2693   -0.6060 C   0  0  0  0  0  0  0  0  0  0  0  0
   -1.4810    9.4064   -1.3651 C   0  0  0  0  0  0  0  0  0  0  0  0
   -1.0989    9.2986   -2.6465 N   0  0  0  0  0  0  0  0  0  0  0  0
   -0.9526    8.1033   -3.2352 C   0  0  0  0  0  0  0  0  0  0  0  0
   -1.1934    6.9295   -2.5292 C   0  0  0  0  0  0  0  0  0  0  0  0
   -1.6389   10.7016   -0.7313 C   0  0  0  0  0  0  0  0  0  0  0  0
   -1.6226   10.9376    0.5642 O   0  0  0  0  0  0  0  0  0  0  0  0
   -1.8044   12.2160    0.8049 C   0  0  0  0  0  0  0  0  0  0  0  0
   -1.9490   12.8510   -0.3921 C   0  0  0  0  0  0  0  0  0  0  0  0
   -1.8427   11.8694   -1.4039 C   0  0  0  0  0  0  0  0  0  0  0  0
  1  2  2  0
  2  3  1  0
  3  4  1  0
  4  5  1  0
  5  6  1  0
  6  7  1  0
  7  8  1  0
  8  9  1  0
  9 10  1  0
 10 11  1  0
 11 12  1  0
 12 13  1  0
 13 14  2  0
 14 15  1  0
 11 15  2  0
 14 16  1  0
 16 17  1  0
 17 18  1  0
 18 19  1  0
 19 16  1  0
  9 20  1  0
 20 21  1  0
 21  7  1  0
  6 22  1  0
 22 23  1  0
 23  3  1  0
  2 24  1  0
 24 25  2  0
 25 26  1  0
 26 27  2  0
 27 28  1  0
 28 29  2  0
 29 24  1  0
 26 30  1  0
 30 31  1  0
 31 32  1  0
 32 33  2  0
 33 34  1  0
 30 34  2  0
M  CHG  1   9   1
M  END
$$$$
s_527a____4971024____157286
     RDKit          3D

 35 38  0  0  0  0  0  0  0  0999 V2000
   -0.3369    6.4096    1.5180 S   0  0  0  0  0  0  0  0  0  0  0  0
    0.3239    7.1500    0.2497 C   0  0  0  0  0  0  0  0  0  0  0  0
    1.6843    7.2477    0.1001 N   0  0  0  0  0  0  0  0  0  0  0  0
    2.2328    7.8810   -0.9850 C   0  0  0  0  0  0  0  0  0  0  0  0
    3.4504    7.9437   -1.0748 O   0  0  0  0  0  0  0  0  0  0  0  0
    1.3701    8.4425   -1.9671 C   0  0  0  0  0  0  0  0  0  0  0  0
   -0.0064    8.3324   -1.7948 C   0  0  0  0  0  0  0  0  0  0  0  0
   -0.5096    7.6907   -0.6940 N   0  0  0  0  0  0  0  0  0  0  0  0
   -0.8731    8.8737   -2.7381 C   0  0  0  0  0  0  0  0  0  0  0  0
   -0.3647    9.5263   -3.8563 C   0  0  0  0  0  0  0  0  0  0  0  0
    1.0077    9.6454   -4.0461 C   0  0  0  0  0  0  0  0  0  0  0  0
    1.8603    9.0985   -3.0940 C   0  0  0  0  0  0  0  0  0  0  0  0
    2.5795    6.6679    1.1132 C   0  0  0  0  0  0  0  0  0  0  0  0
    2.8979    5.2283    0.7437 C   0  0  0  0  0  0  0  0  0  0  0  0
    3.8228    4.6292    1.7906 C   0  0  0  0  0  0  0  0  0  0  0  0
    4.8985    5.1212    1.9930 O   0  0  0  0  0  0  0  0  0  0  0  0
    3.4202    3.5041    2.5182 N   0  0  0  0  0  0  0  0  0  0  0  0
    4.3365    2.9451    3.5259 C   0  0  0  0  0  0  0  0  0  0  0  0
    4.2023    1.4336    3.6447 C   0  0  0  0  0  0  0  0  0  0  0  0
    4.9492    0.9974    4.8333 N   0  0  0  0  0  0  0  0  0  0  0  0
    4.3479    1.6808    5.9903 C   0  0  0  0  0  0  0  0  0  0  0  0
    5.0870    1.3809    7.2862 C   0  0  0  0  0  0  0  0  0  0  0  0
    6.5462    1.4555    7.1102 N   0  0  0  0  0  0  0  0  0  0  0  0
    7.3295    1.8902    8.1844 C   0  0  0  0  0  0  0  0  0  0  0  0
    6.8093    2.1930    9.2225 O   0  0  0  0  0  0  0  0  0  0  0  0
    8.6311    1.9668    8.0572 O   0  0  0  0  0  0  0  0  0  0  0  0
    9.4263    2.4081    9.1477 C   0  0  0  0  0  0  0  0  0  0  0  0
   10.8908    2.4052    8.7408 C   0  0  0  0  0  0  0  0  0  0  0  0
    9.0120    3.8172    9.5393 C   0  0  0  0  0  0  0  0  0  0  0  0
    9.2273    1.4744   10.3305 C   0  0  0  0  0  0  0  0  0  0  0  0
    7.2169    1.1068    5.8476 C   0  0  0  0  0  0  0  0  0  0  0  0
    6.3446    1.4279    4.6426 C   0  0  0  0  0  0  0  0  0  0  0  0
    2.7479    0.9948    3.7319 C   0  0  0  0  0  0  0  0  0  0  0  0
    2.0806    1.4171    2.4308 C   0  0  0  0  0  0  0  0  0  0  0  0
    2.0949    2.9269    2.2399 C   0  0  0  0  0  0  0  0  0  0  0  0
  1  2  2  0
  2  3  1  0
  3  4  1  0
  4  5  2  0
  4  6  1  0
  6  7  2  0
  7  8  1  0
  8  2  1  0
  7  9  1  0
  9 10  2  0
 10 11  1  0
 11 12  2  0
 12  6  1  0
  3 13  1  0
 13 14  1  0
 14 15  1  0
 15 16  2  0
 15 17  1  0
 17 18  1  0
 18 19  1  0
 19 20  1  0
 20 21  1  0
 21 22  1  0
 22 23  1  0
 23 24  1  0
 24 25  2  0
 24 26  1  0
 26 27  1  0
 27 28  1  0
 27 29  1  0
 27 30  1  0
 23 31  1  0
 31 32  1  0
 32 20  1  0
 19 33  1  0
 33 34  1  0
 34 35  1  0
 35 17  1  0
M  CHG  1  20   1
M  END
$$$$
m_275592____15865406____15846026____14134194
     RDKit          3D

 35 40  0  0  0  0  0  0  0  0999 V2000
   -0.1125   -0.3214   -1.0971 O   0  0  0  0  0  0  0  0  0  0  0  0
    0.9432    0.2011   -1.3260 C   0  0  0  0  0  0  0  0  0  0  0  0
    1.5673    0.9387   -0.3547 N   0  0  0  0  0  0  0  0  0  0  0  0
    1.0000    1.0000    1.0000 C   0  0  0  0  0  0  0  0  0  0  0  0
    1.8794    1.8794    1.8794 C   0  0  0  0  0  0  0  0  0  0  0  0
    1.4908    1.8717    3.3464 C   0  0  0  0  0  0  0  0  0  0  0  0
    1.9222    0.5931    4.0535 C   0  0  0  0  0  0  0  0  0  0  0  0
    1.5280    0.5146    5.5245 C   0  0  0  0  0  0  0  0  0  0  0  0
    0.1279    0.9331    5.7137 N   0  0  0  0  0  0  0  0  0  0  0  0
   -0.6379    0.2487    6.6625 C   0  0  0  0  0  0  0  0  0  0  0  0
   -0.1275   -0.5875    7.3555 O   0  0  0  0  0  0  0  0  0  0  0  0
   -2.1166    0.5640    6.8163 C   0  0  0  0  0  0  0  0  0  0  0  0
   -2.8343   -0.5894    7.2509 O   0  0  0  0  0  0  0  0  0  0  0  0
   -3.8899   -0.1892    8.1146 C   0  0  0  0  0  0  0  0  0  0  0  0
   -3.8031    1.3105    8.3211 C   0  0  0  0  0  0  0  0  0  0  0  0
   -2.3324    1.4909    8.0026 C   0  0  0  0  0  0  0  0  0  0  0  0
   -4.7958    2.1311    7.5194 C   0  0  0  0  0  0  0  0  0  0  0  0
   -4.7974    3.5033    8.1589 C   0  0  0  0  0  0  0  0  0  0  0  0
   -4.4328    3.2669    9.6118 C   0  0  0  0  0  0  0  0  0  0  0  0
   -4.1726    1.7714    9.7180 C   0  0  0  0  0  0  0  0  0  0  0  0
   -0.5164    2.0175    4.9594 C   0  0  0  0  0  0  0  0  0  0  0  0
   -0.0236    1.9310    3.5241 C   0  0  0  0  0  0  0  0  0  0  0  0
    2.3341    3.0582    3.7611 C   0  0  0  0  0  0  0  0  0  0  0  0
    2.0010    4.1194    2.7317 C   0  0  0  0  0  0  0  0  0  0  0  0
    1.7331    3.3329    1.4675 C   0  0  0  0  0  0  0  0  0  0  0  0
    1.5593    0.0516   -2.6324 C   0  0  0  0  0  0  0  0  0  0  0  0
    0.9526    0.4744   -3.8146 C   0  0  0  0  0  0  0  0  0  0  0  0
    1.6331    0.2819   -5.0140 C   0  0  0  0  0  0  0  0  0  0  0  0
    2.8412   -0.2993   -4.9923 N   0  0  0  0  0  0  0  0  0  0  0  0
    3.4025   -0.6900   -3.8953 N   0  0  0  0  0  0  0  0  0  0  0  0
    2.8157   -0.5410   -2.6969 C   0  0  0  0  0  0  0  0  0  0  0  0
    1.0470    0.6956   -6.2060 C   0  0  0  0  0  0  0  0  0  0  0  0
   -0.2071    1.2985   -6.2215 C   0  0  0  0  0  0  0  0  0  0  0  0
   -0.8973    1.4970   -5.0310 C   0  0  0  0  0  0  0  0  0  0  0  0
   -0.3023    1.0809   -3.8452 C   0  0  0  0  0  0  0  0  0  0  0  0
  1  2  2  0
  2  3  1  0
  3  4  1  0
  4  5  1  0
  5  6  1  0
  6  7  1  0
  7  8  1  0
  8  9  1  0
  9 10  1  0
 10 11  2  0
 10 12  1  0
 12 13  1  0
 13 14  1  0
 14 15  1  0
 15 16  1  0
 16 12  1  0
 15 17  1  0
 17 18  1  0
 18 19  1  0
 19 20  1  0
 20 15  1  0
  9 21  1  0
 21 22  1  0
 22  6  1  0
  6 23  1  0
 23 24  1  0
 24 25  1  0
 25  5  1  0
  2 26  1  0
 26 27  2  0
 27 28  1  0
 28 29  2  0
 29 30  1  0
 30 31  2  0
 31 26  1  0
 28 32  1  0
 32 33  2  0
 33 34  1  0
 34 35  2  0
 35 27  1  0
M  END
$$$$
m_275030____14114236____14123822____14148758
     RDKit          3D

 34 39  0  0  0  0  0  0  0  0999 V2000
    4.8848    5.1280    2.0014 O   0  0  0  0  0  0  0  0  0  0  0  0
    3.8110    4.6328    1.7976 C   0  0  0  0  0  0  0  0  0  0  0  0
    3.4087    3.5093    2.5281 N   0  0  0  0  0  0  0  0  0  0  0  0
    4.3233    2.9558    3.5406 C   0  0  0  0  0  0  0  0  0  0  0  0
    4.1958    1.4438    3.6644 C   0  0  0  0  0  0  0  0  0  0  0  0
    4.9585    1.0023    4.9033 C   0  0  0  0  0  0  0  0  0  0  0  0
    4.3905    1.6614    6.1428 C   0  0  0  0  0  0  0  0  0  0  0  0
    4.8851    0.8040    7.2273 N   0  0  0  0  0  0  0  0  0  0  0  0
    4.0576    1.0166    8.4240 C   0  0  0  0  0  0  0  0  0  0  0  0
    4.5626    0.1324    9.5530 C   0  0  0  0  0  0  0  0  0  0  0  0
    5.4710    0.4616   10.4366 N   0  0  0  0  0  0  0  0  0  0  0  0
    5.6364   -0.5178   11.2198 O   0  0  0  0  0  0  0  0  0  0  0  0
    4.8444   -1.5018   10.8722 C   0  0  0  0  0  0  0  0  0  0  0  0
    4.1476   -1.1354    9.8249 N   0  0  0  0  0  0  0  0  0  0  0  0
    4.7454   -2.8527   11.5695 C   0  0  0  0  0  0  0  0  0  0  0  0
    3.3511   -3.1213   12.1005 C   0  0  0  0  0  0  0  0  0  0  0  0
    4.0246   -3.7831   13.2826 C   0  0  0  0  0  0  0  0  0  0  0  0
    5.1922   -2.8515   13.0150 C   0  0  0  0  0  0  0  0  0  0  0  0
    4.6655   -0.5547    6.7173 C   0  0  0  0  0  0  0  0  0  0  0  0
    4.7002   -0.4632    5.2070 C   0  0  0  0  0  0  0  0  0  0  0  0
    2.7443    0.9913    3.7385 C   0  0  0  0  0  0  0  0  0  0  0  0
    2.0724    1.4186    2.4401 C   0  0  0  0  0  0  0  0  0  0  0  0
    2.0852    2.9288    2.2459 C   0  0  0  0  0  0  0  0  0  0  0  0
    2.9302    5.1986    0.7942 C   0  0  0  0  0  0  0  0  0  0  0  0
    3.0031    4.7389   -0.5482 C   0  0  0  0  0  0  0  0  0  0  0  0
    3.7990    3.8711   -0.8694 O   0  0  0  0  0  0  0  0  0  0  0  0
    2.1542    5.2988   -1.4668 N   0  0  0  0  0  0  0  0  0  0  0  0
    1.2639    6.2721   -1.0950 C   0  0  0  0  0  0  0  0  0  0  0  0
    1.1801    6.7209    0.1798 N   0  0  0  0  0  0  0  0  0  0  0  0
    0.2483    7.6488    0.2718 N   0  0  0  0  0  0  0  0  0  0  0  0
   -0.2910    7.8358   -0.9072 C   0  0  0  0  0  0  0  0  0  0  0  0
    0.3395    6.9616   -1.8186 C   0  0  0  0  0  0  0  0  0  0  0  0
   -1.4024    8.8201   -1.2348 C   0  0  0  0  0  0  0  0  0  0  0  0
    2.0208    6.1733    1.1134 C   0  0  0  0  0  0  0  0  0  0  0  0
  1  2  2  0
  2  3  1  0
  3  4  1  0
  4  5  1  0
  5  6  1  0
  6  7  1  0
  7  8  1  0
  8  9  1  0
  9 10  1  0
 10 11  2  0
 11 12  1  0
 12 13  1  0
 13 14  2  0
 14 10  1  0
 13 15  1  0
 15 16  1  0
 16 17  1  0
 17 18  1  0
 18 15  1  0
  8 19  1  0
 19 20  1  0
 20  6  1  0
  5 21  1  0
 21 22  1  0
 22 23  1  0
 23  3  1  0
  2 24  1  0
 24 25  1  0
 25 26  2  0
 25 27  1  0
 27 28  1  0
 28 29  1  0
 29 30  1  0
 30 31  2  0
 31 32  1  0
 28 32  2  0
 31 33  1  0
 29 34  1  0
 24 34  2  0
M  CHG  1   8   1
M  END
$$$$
m_275030____14114100____14126114____14145954
     RDKit          3D

 41 46  0  0  0  0  0  0  0  0999 V2000
    2.1412    7.2784    6.9837 O   0  0  0  0  0  0  0  0  0  0  0  0
    3.2657    6.9274    7.2127 C   0  0  0  0  0  0  0  0  0  0  0  0
    3.6937    5.6444    6.8283 N   0  0  0  0  0  0  0  0  0  0  0  0
    2.7891    4.7094    6.1448 C   0  0  0  0  0  0  0  0  0  0  0  0
    3.6156    3.7927    5.2571 C   0  0  0  0  0  0  0  0  0  0  0  0
    2.7170    2.8991    4.4125 C   0  0  0  0  0  0  0  0  0  0  0  0
    3.5542    1.9056    3.6232 C   0  0  0  0  0  0  0  0  0  0  0  0
    2.6567    1.0287    2.7649 C   0  0  0  0  0  0  0  0  0  0  0  0
    1.8500    1.8500    1.8500 N   0  0  0  0  0  0  0  0  0  0  0  0
    1.0000    1.0000    1.0000 C   0  0  0  0  0  0  0  0  0  0  0  0
    1.8770    0.1547    0.0907 C   0  0  0  0  0  0  0  0  0  0  0  0
    2.8558    0.6328   -0.4126 O   0  0  0  0  0  0  0  0  0  0  0  0
    1.5434   -1.1790   -0.1592 N   0  0  0  0  0  0  0  0  0  0  0  0
    2.4772   -1.9938   -0.9535 C   0  0  0  0  0  0  0  0  0  0  0  0
    1.7522   -3.0413   -1.7872 C   0  0  0  0  0  0  0  0  0  0  0  0
    0.6906   -3.7820   -0.9863 C   0  0  0  0  0  0  0  0  0  0  0  0
   -0.0216   -4.7362   -1.9317 C   0  0  0  0  0  0  0  0  0  0  0  0
    0.7942   -6.0112   -2.0744 C   0  0  0  0  0  0  0  0  0  0  0  0
    1.2627   -6.3929   -3.3273 C   0  0  0  0  0  0  0  0  0  0  0  0
    2.0080   -7.5606   -3.4536 C   0  0  0  0  0  0  0  0  0  0  0  0
    2.2810   -8.3362   -2.3317 C   0  0  0  0  0  0  0  0  0  0  0  0
    1.8084   -7.9448   -1.0851 C   0  0  0  0  0  0  0  0  0  0  0  0
    1.0614   -6.7797   -0.9458 C   0  0  0  0  0  0  0  0  0  0  0  0
   -0.3367   -2.7608   -0.5186 C   0  0  0  0  0  0  0  0  0  0  0  0
    0.2751   -1.6959    0.3812 C   0  0  0  0  0  0  0  0  0  0  0  0
    1.0339    2.8362    2.5737 C   0  0  0  0  0  0  0  0  0  0  0  0
    1.9146    3.7343    3.4277 C   0  0  0  0  0  0  0  0  0  0  0  0
    4.4517    2.8990    6.1579 C   0  0  0  0  0  0  0  0  0  0  0  0
    5.0411    3.6640    7.3337 C   0  0  0  0  0  0  0  0  0  0  0  0
    5.0590    5.1645    7.0871 C   0  0  0  0  0  0  0  0  0  0  0  0
    4.1815    7.8248    7.8845 C   0  0  0  0  0  0  0  0  0  0  0  0
    5.3449    8.2159    7.2736 N   0  0  0  0  0  0  0  0  0  0  0  0
    6.2237    9.0641    7.8959 C   0  0  0  0  0  0  0  0  0  0  0  0
    5.9399    9.5449    9.1712 C   0  0  0  0  0  0  0  0  0  0  0  0
    6.8470   10.4058    9.7839 C   0  0  0  0  0  0  0  0  0  0  0  0
    8.0236   10.7951    9.1541 C   0  0  0  0  0  0  0  0  0  0  0  0
    8.2886   10.3050    7.8803 C   0  0  0  0  0  0  0  0  0  0  0  0
    7.3962    9.4442    7.2505 C   0  0  0  0  0  0  0  0  0  0  0  0
    4.7334    9.1418    9.8095 C   0  0  0  0  0  0  0  0  0  0  0  0
    4.4230    9.5247   10.9276 O   0  0  0  0  0  0  0  0  0  0  0  0
    3.8440    8.2616    9.1383 C   0  0  0  0  0  0  0  0  0  0  0  0
  1  2  2  0
  2  3  1  0
  3  4  1  0
  4  5  1  0
  5  6  1  0
  6  7  1  0
  7  8  1  0
  8  9  1  0
  9 10  1  0
 10 11  1  0
 11 12  2  0
 11 13  1  0
 13 14  1  0
 14 15  1  0
 15 16  1  0
 16 17  1  0
 17 18  1  0
 18 19  2  0
 19 20  1  0
 20 21  2  0
 21 22  1  0
 22 23  2  0
 23 18  1  0
 16 24  1  0
 24 25  1  0
 25 13  1  0
  9 26  1  0
 26 27  1  0
 27  6  1  0
  5 28  1  0
 28 29  1  0
 29 30  1  0
 30  3  1  0
  2 31  1  0
 31 32  1  0
 32 33  1  0
 33 34  2  0
 34 35  1  0
 35 36  2  0
 36 37  1  0
 37 38  2  0
 38 33  1  0
 34 39  1  0
 39 40  2  0
 39 41  1  0
 31 41  2  0
M  CHG  1   9   1
M  END
$$$$
m_274860b____17162908____15229432____15233636
     RDKit          3D

 30 34  0  0  0  0  0  0  0  0999 V2000
    6.2063   -6.9870    5.3367 F   0  0  0  0  0  0  0  0  0  0  0  0
    5.5533   -5.9072    4.9173 C   0  0  0  0  0  0  0  0  0  0  0  0
    6.2631   -4.7661    4.5599 C   0  0  0  0  0  0  0  0  0  0  0  0
    5.5675   -3.6434    4.1228 C   0  0  0  0  0  0  0  0  0  0  0  0
    4.1787   -3.6709    4.0488 C   0  0  0  0  0  0  0  0  0  0  0  0
    3.4691   -4.8131    4.4062 C   0  0  0  0  0  0  0  0  0  0  0  0
    4.1650   -5.9351    4.8430 C   0  0  0  0  0  0  0  0  0  0  0  0
    3.4694   -2.4917    3.5914 C   0  0  0  0  0  0  0  0  0  0  0  0
    2.1194   -2.3690    3.4669 N   0  0  0  0  0  0  0  0  0  0  0  0
    1.8842   -1.2032    3.0418 N   0  0  0  0  0  0  0  0  0  0  0  0
    2.9908   -0.5238    2.8671 N   0  0  0  0  0  0  0  0  0  0  0  0
    4.0393   -1.3165    3.2082 C   0  0  0  0  0  0  0  0  0  0  0  0
    3.0803    0.8614    2.3817 C   0  0  0  0  0  0  0  0  0  0  0  0
    2.4717    1.0000    1.0000 C   0  0  0  0  0  0  0  0  0  0  0  0
    1.0000    1.0000    1.0000 N   0  0  0  0  0  0  0  0  0  0  0  0
    0.3150    2.0199    1.6062 C   0  0  0  0  0  0  0  0  0  0  0  0
    0.8607    2.7047    2.4268 O   0  0  0  0  0  0  0  0  0  0  0  0
   -1.1362    2.2840    1.2395 C   0  0  0  0  0  0  0  0  0  0  0  0
   -1.4106    2.7309    0.1601 O   0  0  0  0  0  0  0  0  0  0  0  0
   -2.1543    2.0057    2.1623 N   0  0  0  0  0  0  0  0  0  0  0  0
   -3.5853    2.2158    1.9288 C   0  0  0  0  0  0  0  0  0  0  0  0
   -4.2049    1.0540    2.6683 C   0  0  0  0  0  0  0  0  0  0  0  0
   -3.3093    0.8422    3.8707 C   0  0  0  0  0  0  0  0  0  0  0  0
   -1.9635    1.4490    3.5059 C   0  0  0  0  0  0  0  0  0  0  0  0
   -5.6260    1.3638    3.1099 C   0  0  0  0  0  0  0  0  0  0  0  0
    3.1075    2.2789    0.5315 C   0  0  0  0  0  0  0  0  0  0  0  0
    4.5109    1.7679    0.7262 C   0  0  0  0  0  0  0  0  0  0  0  0
    4.5113    1.3039    2.1680 C   0  0  0  0  0  0  0  0  0  0  0  0
    4.5250    0.4799   -0.0730 C   0  0  0  0  0  0  0  0  0  0  0  0
    3.0828    0.0119    0.0205 C   0  0  0  0  0  0  0  0  0  0  0  0
  1  2  1  0
  2  3  2  0
  3  4  1  0
  4  5  2  0
  5  6  1  0
  6  7  2  0
  7  2  1  0
  5  8  1  0
  8  9  1  0
  9 10  2  0
 10 11  1  0
 11 12  1  0
  8 12  2  0
 11 13  1  0
 13 14  1  0
 14 15  1  0
 15 16  1  0
 16 17  2  0
 16 18  1  0
 18 19  2  0
 18 20  1  0
 20 21  1  0
 21 22  1  0
 22 23  1  0
 23 24  1  0
 24 20  1  0
 22 25  1  0
 14 26  1  0
 26 27  1  0
 27 28  1  0
 28 13  1  0
 27 29  1  0
 29 30  1  0
 30 14  1  0
M  END
$$$$
m_275030____14114100____14126378____14146862
     RDKit          3D

 37 41  0  0  0  0  0  0  0  0999 V2000
    7.8776   10.9732    5.9758 F   0  0  0  0  0  0  0  0  0  0  0  0
    7.1062   11.0410    7.0568 C   0  0  0  0  0  0  0  0  0  0  0  0
    5.8908   10.3628    7.0891 C   0  0  0  0  0  0  0  0  0  0  0  0
    5.2995    9.6017    6.1907 O   0  0  0  0  0  0  0  0  0  0  0  0
    4.1489    9.1766    6.6603 C   0  0  0  0  0  0  0  0  0  0  0  0
    3.2193    8.3189    5.9515 C   0  0  0  0  0  0  0  0  0  0  0  0
    2.1049    8.7011    5.7233 O   0  0  0  0  0  0  0  0  0  0  0  0
    3.6236    7.0393    5.5317 N   0  0  0  0  0  0  0  0  0  0  0  0
    2.7060    6.1457    4.8114 C   0  0  0  0  0  0  0  0  0  0  0  0
    3.5214    5.2389    3.9034 C   0  0  0  0  0  0  0  0  0  0  0  0
    2.6126    4.3915    3.0236 C   0  0  0  0  0  0  0  0  0  0  0  0
    3.4053    3.7584    1.8914 C   0  0  0  0  0  0  0  0  0  0  0  0
    2.4934    2.8935    1.0362 C   0  0  0  0  0  0  0  0  0  0  0  0
    1.8516    1.8516    1.8516 N   0  0  0  0  0  0  0  0  0  0  0  0
    1.0000    1.0000    1.0000 C   0  0  0  0  0  0  0  0  0  0  0  0
    1.8770    0.1547    0.0907 C   0  0  0  0  0  0  0  0  0  0  0  0
    2.8903   -0.3287    0.5144 O   0  0  0  0  0  0  0  0  0  0  0  0
    1.5106   -0.0552   -1.2126 N   0  0  0  0  0  0  0  0  0  0  0  0
    2.3587   -0.8727   -2.0920 C   0  0  0  0  0  0  0  0  0  0  0  0
    1.7311   -0.9479   -3.4743 C   0  0  0  0  0  0  0  0  0  0  0  0
    0.6956   -0.3829   -3.6947 O   0  0  0  0  0  0  0  0  0  0  0  0
    2.3624   -1.6781   -4.4926 N   0  0  0  0  0  0  0  0  0  0  0  0
    1.8700   -1.8333   -5.8645 C   0  0  0  0  0  0  0  0  0  0  0  0
    3.1187   -2.0025   -6.7076 C   0  0  0  0  0  0  0  0  0  0  0  0
    4.2242   -2.4340   -5.7596 C   0  0  0  0  0  0  0  0  0  0  0  0
    3.6212   -2.4212   -4.3679 C   0  0  0  0  0  0  0  0  0  0  0  0
    1.0795    2.4273    2.9628 C   0  0  0  0  0  0  0  0  0  0  0  0
    1.9737    3.2835    3.8453 C   0  0  0  0  0  0  0  0  0  0  0  0
    4.3293    4.3001    4.7838 C   0  0  0  0  0  0  0  0  0  0  0  0
    4.9233    5.0157    5.9880 C   0  0  0  0  0  0  0  0  0  0  0  0
    4.9757    6.5223    5.7881 C   0  0  0  0  0  0  0  0  0  0  0  0
    3.9683    9.6682    7.9173 C   0  0  0  0  0  0  0  0  0  0  0  0
    5.1069   10.4499    8.2167 C   0  0  0  0  0  0  0  0  0  0  0  0
    5.5314   11.2049    9.3088 C   0  0  0  0  0  0  0  0  0  0  0  0
    6.7459   11.8826    9.2799 C   0  0  0  0  0  0  0  0  0  0  0  0
    7.5394   11.7980    8.1404 C   0  0  0  0  0  0  0  0  0  0  0  0
    4.6826   11.3138   10.5653 C   0  0  0  0  0  0  0  0  0  0  0  0
  1  2  1  0
  2  3  2  0
  3  4  1  0
  4  5  1  0
  5  6  1  0
  6  7  2  0
  6  8  1  0
  8  9  1  0
  9 10  1  0
 10 11  1  0
 11 12  1  0
 12 13  1  0
 13 14  1  0
 14 15  1  0
 15 16  1  0
 16 17  2  0
 16 18  1  0
 18 19  1  0
 19 20  1  0
 20 21  2  0
 20 22  1  0
 22 23  1  0
 23 24  1  0
 24 25  1  0
 25 26  1  0
 26 22  1  0
 14 27  1  0
 27 28  1  0
 28 11  1  0
 10 29  1  0
 29 30  1  0
 30 31  1  0
 31  8  1  0
  5 32  2  0
 32 33  1  0
 33  3  1  0
 33 34  2  0
 34 35  1  0
 35 36  2  0
 36  2  1  0
 34 37  1  0
M  CHG  1  14   1
M  END
$$$$
s_22____13214462____12307604
     RDKit          3D

 35 37  0  0  0  0  0  0  0  0999 V2000
    7.1811   -5.6968   -8.1684 Cl  0  0  0  0  0  0  0  0  0  0  0  0
    6.6961   -6.3229   -6.5743 C   0  0  0  0  0  0  0  0  0  0  0  0
    5.8929   -5.5465   -5.7458 C   0  0  0  0  0  0  0  0  0  0  0  0
    5.5219   -6.0483   -4.5025 C   0  0  0  0  0  0  0  0  0  0  0  0
    5.9437   -7.3066   -4.0853 C   0  0  0  0  0  0  0  0  0  0  0  0
    6.7463   -8.0673   -4.9292 C   0  0  0  0  0  0  0  0  0  0  0  0
    7.1281   -7.5841   -6.1764 C   0  0  0  0  0  0  0  0  0  0  0  0
    4.6844   -5.2414   -3.6363 C   0  0  0  0  0  0  0  0  0  0  0  0
    4.3027   -5.7094   -2.4054 N   0  0  0  0  0  0  0  0  0  0  0  0
    3.5116   -4.9619   -1.5716 C   0  0  0  0  0  0  0  0  0  0  0  0
    3.1822   -5.3788   -0.4956 O   0  0  0  0  0  0  0  0  0  0  0  0
    3.0815   -3.6756   -1.9977 C   0  0  0  0  0  0  0  0  0  0  0  0
    2.2442   -2.8383   -1.1604 C   0  0  0  0  0  0  0  0  0  0  0  0
    1.8978   -3.2267   -0.0791 O   0  0  0  0  0  0  0  0  0  0  0  0
    1.8487   -1.6038   -1.6038 N   0  0  0  0  0  0  0  0  0  0  0  0
    1.0000   -0.7551   -0.7551 C   0  0  0  0  0  0  0  0  0  0  0  0
    1.8776    0.1224    0.1224 C   0  0  0  0  0  0  0  0  0  0  0  0
    1.0000    1.0000    1.0000 C   0  0  0  0  0  0  0  0  0  0  0  0
    1.8776    1.8776    1.8776 C   0  0  0  0  0  0  0  0  0  0  0  0
    1.0000    2.7551    2.7551 C   0  0  0  0  0  0  0  0  0  0  0  0
    1.8487    3.6038    3.6038 N   0  0  0  0  0  0  0  0  0  0  0  0
    2.6720    4.4271    2.7026 C   0  0  0  0  0  0  0  0  0  0  0  0
    3.5663    5.3886    3.4706 C   0  0  0  0  0  0  0  0  0  0  0  0
    2.8280    6.0720    4.5442 N   0  0  0  0  0  0  0  0  0  0  0  0
    3.1859    7.3538    4.8696 C   0  0  0  0  0  0  0  0  0  0  0  0
    4.0831    7.8934    4.2833 O   0  0  0  0  0  0  0  0  0  0  0  0
    2.5486    7.9903    5.8208 O   0  0  0  0  0  0  0  0  0  0  0  0
    2.9194    9.3188    6.1581 C   0  0  0  0  0  0  0  0  0  0  0  0
    2.1186   10.2979    5.3153 C   0  0  0  0  0  0  0  0  0  0  0  0
    2.6341    9.5663    7.6304 C   0  0  0  0  0  0  0  0  0  0  0  0
    4.4027    9.5144    5.8897 C   0  0  0  0  0  0  0  0  0  0  0  0
    1.7159    5.4378    5.2703 C   0  0  0  0  0  0  0  0  0  0  0  0
    0.9475    4.4672    4.3854 C   0  0  0  0  0  0  0  0  0  0  0  0
    3.4620   -3.2064   -3.2286 C   0  0  0  0  0  0  0  0  0  0  0  0
    4.2827   -4.0045   -4.0707 C   0  0  0  0  0  0  0  0  0  0  0  0
  1  2  1  0
  2  3  2  0
  3  4  1  0
  4  5  2  0
  5  6  1  0
  6  7  2  0
  7  2  1  0
  4  8  1  0
  8  9  1  0
  9 10  1  0
 10 11  2  0
 10 12  1  0
 12 13  1  0
 13 14  2  0
 13 15  1  0
 15 16  1  0
 16 17  1  0
 17 18  1  0
 18 19  1  0
 19 20  1  0
 20 21  1  0
 21 22  1  0
 22 23  1  0
 23 24  1  0
 24 25  1  0
 25 26  2  0
 25 27  1  0
 27 28  1  0
 28 29  1  0
 28 30  1  0
 28 31  1  0
 24 32  1  0
 32 33  1  0
 33 21  1  0
 12 34  2  0
 34 35  1  0
  8 35  2  0
M  CHG  1  21   1
M  END
$$$$
m_274310____15937416____14120794____15870848
     RDKit          3D

 36 40  0  0  0  0  0  0  0  0999 V2000
    0.2958   -8.2204    0.9642 F   0  0  0  0  0  0  0  0  0  0  0  0
   -0.1384   -7.3902    0.0200 C   0  0  0  0  0  0  0  0  0  0  0  0
   -0.3506   -6.0473    0.3175 C   0  0  0  0  0  0  0  0  0  0  0  0
   -0.0990   -5.5529    1.6575 C   0  0  0  0  0  0  0  0  0  0  0  0
    0.7968   -4.5845    1.9150 N   0  0  0  0  0  0  0  0  0  0  0  0
    1.0308   -4.1266    3.1563 C   0  0  0  0  0  0  0  0  0  0  0  0
    0.3488   -4.6502    4.1865 N   0  0  0  0  0  0  0  0  0  0  0  0
   -0.5604   -5.6191    4.0040 C   0  0  0  0  0  0  0  0  0  0  0  0
   -0.8086   -6.0985    2.7224 C   0  0  0  0  0  0  0  0  0  0  0  0
    1.9678   -3.1162    3.4127 N   0  0  0  0  0  0  0  0  0  0  0  0
    2.1490   -2.6856    4.8092 C   0  0  0  0  0  0  0  0  0  0  0  0
    2.1902   -1.1643    4.8173 C   0  0  0  0  0  0  0  0  0  0  0  0
    1.7093   -0.5714    5.7697 O   0  0  0  0  0  0  0  0  0  0  0  0
    2.7621   -0.4826    3.7334 N   0  0  0  0  0  0  0  0  0  0  0  0
    2.7621    0.9896    3.7067 C   0  0  0  0  0  0  0  0  0  0  0  0
    4.2092    1.4582    3.6499 C   0  0  0  0  0  0  0  0  0  0  0  0
    4.3231    2.9711    3.5294 C   0  0  0  0  0  0  0  0  0  0  0  0
    3.3992    3.5167    2.5208 N   0  0  0  0  0  0  0  0  0  0  0  0
    3.7976    4.6449    1.7976 C   0  0  0  0  0  0  0  0  0  0  0  0
    4.8689    5.1437    2.0062 O   0  0  0  0  0  0  0  0  0  0  0  0
    2.8739    5.2396    0.7473 C   0  0  0  0  0  0  0  0  0  0  0  0
    2.6681    4.6469   -0.2757 O   0  0  0  0  0  0  0  0  0  0  0  0
    2.2622    6.4806    0.9735 N   0  0  0  0  0  0  0  0  0  0  0  0
    1.3552    7.1565    0.0424 C   0  0  0  0  0  0  0  0  0  0  0  0
    0.3723    7.8205    0.9771 C   0  0  0  0  0  0  0  0  0  0  0  0
    1.1961    8.2131    2.1853 C   0  0  0  0  0  0  0  0  0  0  0  0
    2.4150    7.3038    2.1780 C   0  0  0  0  0  0  0  0  0  0  0  0
   -0.2634    9.0473    0.3435 C   0  0  0  0  0  0  0  0  0  0  0  0
    2.0802    2.9295    2.2307 C   0  0  0  0  0  0  0  0  0  0  0  0
    2.0695    1.4188    2.4202 C   0  0  0  0  0  0  0  0  0  0  0  0
    3.3735   -1.1941    2.5946 C   0  0  0  0  0  0  0  0  0  0  0  0
    2.7268   -2.5409    2.2869 C   0  0  0  0  0  0  0  0  0  0  0  0
   -0.8046   -5.1797   -0.6696 C   0  0  0  0  0  0  0  0  0  0  0  0
   -1.0452   -5.6535   -1.9550 C   0  0  0  0  0  0  0  0  0  0  0  0
   -0.8330   -6.9960   -2.2526 C   0  0  0  0  0  0  0  0  0  0  0  0
   -0.3792   -7.8638   -1.2653 C   0  0  0  0  0  0  0  0  0  0  0  0
  1  2  1  0
  2  3  2  0
  3  4  1  0
  4  5  2  0
  5  6  1  0
  6  7  2  0
  7  8  1  0
  8  9  2  0
  9  4  1  0
  6 10  1  0
 10 11  1  0
 11 12  1  0
 12 13  2  0
 12 14  1  0
 14 15  1  0
 15 16  1  0
 16 17  1  0
 17 18  1  0
 18 19  1  0
 19 20  2  0
 19 21  1  0
 21 22  2  0
 21 23  1  0
 23 24  1  0
 24 25  1  0
 25 26  1  0
 26 27  1  0
 27 23  1  0
 25 28  1  0
 18 29  1  0
 29 30  1  0
 30 15  1  0
 14 31  1  0
 31 32  1  0
 32 10  1  0
  3 33  1  0
 33 34  2  0
 34 35  1  0
 35 36  2  0
 36  2  1  0
M  END
$$$$
m_276010b____17281604____17252650____13624802
     RDKit          3D

 36 41  0  0  0  0  0  0  0  0999 V2000
   -1.4206   -1.9144    1.7994 S   0  0  0  0  0  0  0  0  0  0  0  0
   -0.9550   -0.2773    1.7844 C   0  0  0  0  0  0  0  0  0  0  0  0
   -1.6880    0.8071    2.2795 N   0  0  0  0  0  0  0  0  0  0  0  0
   -3.0439    0.8608    2.0907 C   0  0  0  0  0  0  0  0  0  0  0  0
   -3.5555    0.2060    1.2250 O   0  0  0  0  0  0  0  0  0  0  0  0
   -3.9001    1.7499    2.9778 C   0  0  0  0  0  0  0  0  0  0  0  0
    0.2749   -0.2410    1.1935 C   0  0  0  0  0  0  0  0  0  0  0  0
    1.0000    1.0000    1.0000 C   0  0  0  0  0  0  0  0  0  0  0  0
    0.4000    2.0268    0.8399 O   0  0  0  0  0  0  0  0  0  0  0  0
    2.4014    1.0000    1.0000 N   0  0  0  0  0  0  0  0  0  0  0  0
    3.2024    2.1920    0.6781 C   0  0  0  0  0  0  0  0  0  0  0  0
    4.3726    2.3009    1.6443 C   0  0  0  0  0  0  0  0  0  0  0  0
    4.0577    1.5293    2.9061 C   0  0  0  0  0  0  0  0  0  0  0  0
    5.1938    1.6622    3.8253 N   0  0  0  0  0  0  0  0  0  0  0  0
    5.3007    2.5481    4.7848 N   0  0  0  0  0  0  0  0  0  0  0  0
    6.3914    2.4137    5.4079 N   0  0  0  0  0  0  0  0  0  0  0  0
    7.0667    1.3754    4.8401 C   0  0  0  0  0  0  0  0  0  0  0  0
    6.3089    0.8854    3.8237 C   0  0  0  0  0  0  0  0  0  0  0  0
    8.4278    0.8534    5.2693 C   0  0  0  0  0  0  0  0  0  0  0  0
    8.3502   -0.6028    5.6911 C   0  0  0  0  0  0  0  0  0  0  0  0
    9.5973   -0.8351    6.5213 C   0  0  0  0  0  0  0  0  0  0  0  0
    9.9457    0.5238    7.1019 C   0  0  0  0  0  0  0  0  0  0  0  0
    8.8639    1.4536    6.5930 C   0  0  0  0  0  0  0  0  0  0  0  0
    9.4116    1.0844    4.1322 C   0  0  0  0  0  0  0  0  0  0  0  0
    3.8306    0.0428    2.6794 C   0  0  0  0  0  0  0  0  0  0  0  0
    3.2056   -0.1832    1.3125 C   0  0  0  0  0  0  0  0  0  0  0  0
    4.3781   -0.2837    0.3480 C   0  0  0  0  0  0  0  0  0  0  0  0
    4.0242    0.4582   -0.9374 C   0  0  0  0  0  0  0  0  0  0  0  0
    3.7572    1.9428   -0.7146 C   0  0  0  0  0  0  0  0  0  0  0  0
    0.7611   -1.5134    0.7969 C   0  0  0  0  0  0  0  0  0  0  0  0
    2.0415   -1.7369    0.1488 C   0  0  0  0  0  0  0  0  0  0  0  0
    3.0967   -3.0349    0.4726 S   0  0  0  0  0  0  0  0  0  0  0  0
    4.3251   -2.6205   -0.6344 C   0  0  0  0  0  0  0  0  0  0  0  0
    3.8910   -1.4765   -1.2407 C   0  0  0  0  0  0  0  0  0  0  0  0
    2.6271   -0.9742   -0.8152 C   0  0  0  0  0  0  0  0  0  0  0  0
   -0.0402   -2.5839    1.0545 C   0  0  0  0  0  0  0  0  0  0  0  0
  1  2  1  0
  2  3  1  0
  3  4  1  0
  4  5  2  0
  4  6  1  0
  2  7  2  0
  7  8  1  0
  8  9  2  0
  8 10  1  0
 10 11  1  0
 11 12  1  0
 12 13  1  0
 13 14  1  0
 14 15  1  0
 15 16  2  0
 16 17  1  0
 17 18  2  0
 18 14  1  0
 17 19  1  0
 19 20  1  0
 20 21  1  0
 21 22  1  0
 22 23  1  0
 23 19  1  0
 19 24  1  0
 13 25  1  0
 25 26  1  0
 26 10  1  0
 26 27  1  0
 27 28  1  0
 28 29  1  0
 29 11  1  0
  7 30  1  0
 30 31  1  0
 31 32  1  0
 32 33  1  0
 33 34  2  0
 34 35  1  0
 31 35  2  0
 30 36  2  0
 36  1  1  0
M  END
$$$$
m_275592____15865406____15845922____14133620
     RDKit          3D

 35 39  0  0  0  0  0  0  0  0999 V2000
    0.4000    2.0387    0.9677 O   0  0  0  0  0  0  0  0  0  0  0  0
    1.0000    1.0000    1.0000 C   0  0  0  0  0  0  0  0  0  0  0  0
    2.3982    1.0000    1.0000 N   0  0  0  0  0  0  0  0  0  0  0  0
    3.0885    2.3011    0.9595 C   0  0  0  0  0  0  0  0  0  0  0  0
    4.3411    2.2764    1.8289 C   0  0  0  0  0  0  0  0  0  0  0  0
    5.2105    1.0372    1.6574 C   0  0  0  0  0  0  0  0  0  0  0  0
    6.4226    1.0514    2.5704 C   0  0  0  0  0  0  0  0  0  0  0  0
    6.1074    0.7283    4.0252 C   0  0  0  0  0  0  0  0  0  0  0  0
    7.3460    0.7698    4.8159 N   0  0  0  0  0  0  0  0  0  0  0  0
    7.8550    1.9727    5.2290 C   0  0  0  0  0  0  0  0  0  0  0  0
    7.2898    2.9926    4.9455 O   0  0  0  0  0  0  0  0  0  0  0  0
    9.0779    2.0136    6.0097 C   0  0  0  0  0  0  0  0  0  0  0  0
    9.0800    1.3724    7.1879 N   0  0  0  0  0  0  0  0  0  0  0  0
   10.1622    1.3526    7.9805 C   0  0  0  0  0  0  0  0  0  0  0  0
   11.3309    2.0051    7.6009 C   0  0  0  0  0  0  0  0  0  0  0  0
   11.3572    2.6786    6.3835 C   0  0  0  0  0  0  0  0  0  0  0  0
   10.2228    2.6857    5.5782 C   0  0  0  0  0  0  0  0  0  0  0  0
   10.2857    3.3697    4.3664 C   0  0  0  0  0  0  0  0  0  0  0  0
   11.4366    4.0316    3.9517 C   0  0  0  0  0  0  0  0  0  0  0  0
   12.5589    4.0112    4.7733 C   0  0  0  0  0  0  0  0  0  0  0  0
   12.5191    3.3350    5.9886 C   0  0  0  0  0  0  0  0  0  0  0  0
    7.3334   -0.0149    1.9898 C   0  0  0  0  0  0  0  0  0  0  0  0
    7.0071   -0.0362    0.5128 C   0  0  0  0  0  0  0  0  0  0  0  0
    5.9716    1.0582    0.3493 C   0  0  0  0  0  0  0  0  0  0  0  0
    4.2895   -0.1390    1.9689 C   0  0  0  0  0  0  0  0  0  0  0  0
    3.0880   -0.2968    1.0514 C   0  0  0  0  0  0  0  0  0  0  0  0
    0.2752   -0.2548    1.0391 C   0  0  0  0  0  0  0  0  0  0  0  0
    0.3526   -1.2518    0.1155 N   0  0  0  0  0  0  0  0  0  0  0  0
   -0.4210   -2.1763    0.4924 N   0  0  0  0  0  0  0  0  0  0  0  0
   -1.0225   -1.8705    1.6156 N   0  0  0  0  0  0  0  0  0  0  0  0
   -0.6042   -0.6385    2.0046 C   0  0  0  0  0  0  0  0  0  0  0  0
   -1.9877   -2.7177    2.3306 C   0  0  0  0  0  0  0  0  0  0  0  0
   -1.2478   -3.6091    3.3147 C   0  0  0  0  0  0  0  0  0  0  0  0
   -2.2459   -4.4852    4.0541 C   0  0  0  0  0  0  0  0  0  0  0  0
   -1.5061   -5.3766    5.0382 C   0  0  0  0  0  0  0  0  0  0  0  0
  1  2  2  0
  2  3  1  0
  3  4  1  0
  4  5  1  0
  5  6  1  0
  6  7  1  0
  7  8  1  0
  8  9  1  0
  9 10  1  0
 10 11  2  0
 10 12  1  0
 12 13  2  0
 13 14  1  0
 14 15  2  0
 15 16  1  0
 16 17  2  0
 17 12  1  0
 17 18  1  0
 18 19  2  0
 19 20  1  0
 20 21  2  0
 21 16  1  0
  7 22  1  0
 22 23  1  0
 23 24  1  0
 24  6  1  0
  6 25  1  0
 25 26  1  0
 26  3  1  0
  2 27  1  0
 27 28  1  0
 28 29  2  0
 29 30  1  0
 30 31  1  0
 27 31  2  0
 30 32  1  0
 32 33  1  0
 33 34  1  0
 34 35  1  0
M  END
$$$$
m_274310____15937416____14121912____15870848
     RDKit          3D

 37 42  0  0  0  0  0  0  0  0999 V2000
    0.2958   -8.2204    0.9642 F   0  0  0  0  0  0  0  0  0  0  0  0
   -0.1384   -7.3902    0.0200 C   0  0  0  0  0  0  0  0  0  0  0  0
   -0.3506   -6.0473    0.3175 C   0  0  0  0  0  0  0  0  0  0  0  0
   -0.0990   -5.5529    1.6575 C   0  0  0  0  0  0  0  0  0  0  0  0
    0.7968   -4.5845    1.9150 N   0  0  0  0  0  0  0  0  0  0  0  0
    1.0308   -4.1266    3.1563 C   0  0  0  0  0  0  0  0  0  0  0  0
    0.3488   -4.6502    4.1865 N   0  0  0  0  0  0  0  0  0  0  0  0
   -0.5604   -5.6191    4.0040 C   0  0  0  0  0  0  0  0  0  0  0  0
   -0.8086   -6.0985    2.7224 C   0  0  0  0  0  0  0  0  0  0  0  0
    1.9678   -3.1162    3.4127 N   0  0  0  0  0  0  0  0  0  0  0  0
    2.1490   -2.6856    4.8092 C   0  0  0  0  0  0  0  0  0  0  0  0
    2.1902   -1.1643    4.8173 C   0  0  0  0  0  0  0  0  0  0  0  0
    1.7093   -0.5714    5.7697 O   0  0  0  0  0  0  0  0  0  0  0  0
    2.7621   -0.4826    3.7334 N   0  0  0  0  0  0  0  0  0  0  0  0
    2.7621    0.9896    3.7067 C   0  0  0  0  0  0  0  0  0  0  0  0
    4.2092    1.4582    3.6499 C   0  0  0  0  0  0  0  0  0  0  0  0
    4.3231    2.9711    3.5294 C   0  0  0  0  0  0  0  0  0  0  0  0
    3.3992    3.5167    2.5208 N   0  0  0  0  0  0  0  0  0  0  0  0
    3.7976    4.6449    1.7976 C   0  0  0  0  0  0  0  0  0  0  0  0
    4.8689    5.1437    2.0062 O   0  0  0  0  0  0  0  0  0  0  0  0
    2.9166    5.2121    0.7959 C   0  0  0  0  0  0  0  0  0  0  0  0
    2.4476    4.5727   -0.3105 N   0  0  0  0  0  0  0  0  0  0  0  0
    1.7146    5.3892   -0.9359 N   0  0  0  0  0  0  0  0  0  0  0  0
    1.6561    6.5468   -0.3250 N   0  0  0  0  0  0  0  0  0  0  0  0
    2.4180    6.4787    0.7970 C   0  0  0  0  0  0  0  0  0  0  0  0
    0.8941    7.7227   -0.7809 C   0  0  0  0  0  0  0  0  0  0  0  0
   -0.1454    8.1572    0.2335 C   0  0  0  0  0  0  0  0  0  0  0  0
   -1.0328    8.4838   -0.9476 C   0  0  0  0  0  0  0  0  0  0  0  0
   -0.2691    7.4065   -1.6952 C   0  0  0  0  0  0  0  0  0  0  0  0
    2.0802    2.9295    2.2307 C   0  0  0  0  0  0  0  0  0  0  0  0
    2.0695    1.4188    2.4202 C   0  0  0  0  0  0  0  0  0  0  0  0
    3.3735   -1.1941    2.5946 C   0  0  0  0  0  0  0  0  0  0  0  0
    2.7268   -2.5409    2.2869 C   0  0  0  0  0  0  0  0  0  0  0  0
   -0.8046   -5.1797   -0.6696 C   0  0  0  0  0  0  0  0  0  0  0  0
   -1.0452   -5.6535   -1.9550 C   0  0  0  0  0  0  0  0  0  0  0  0
   -0.8330   -6.9960   -2.2526 C   0  0  0  0  0  0  0  0  0  0  0  0
   -0.3792   -7.8638   -1.2653 C   0  0  0  0  0  0  0  0  0  0  0  0
  1  2  1  0
  2  3  2  0
  3  4  1  0
  4  5  2  0
  5  6  1  0
  6  7  2  0
  7  8  1  0
  8  9  2  0
  9  4  1  0
  6 10  1  0
 10 11  1  0
 11 12  1  0
 12 13  2  0
 12 14  1  0
 14 15  1  0
 15 16  1  0
 16 17  1  0
 17 18  1  0
 18 19  1  0
 19 20  2  0
 19 21  1  0
 21 22  1  0
 22 23  2  0
 23 24  1  0
 24 25  1  0
 21 25  2  0
 24 26  1  0
 26 27  1  0
 27 28  1  0
 28 29  1  0
 29 26  1  0
 18 30  1  0
 30 31  1  0
 31 15  1  0
 14 32  1  0
 32 33  1  0
 33 10  1  0
  3 34  1  0
 34 35  2  0
 35 36  1  0
 36 37  2  0
 37  2  1  0
M  END
$$$$
m_276010b____17281604____17280324____17281010
     RDKit          3D

 35 40  0  0  0  0  0  0  0  0999 V2000
    2.4081    4.4146   -0.4460 S   0  0  0  0  0  0  0  0  0  0  0  0
    1.5402    5.6936   -1.1531 C   0  0  0  0  0  0  0  0  0  0  0  0
    1.6818    6.7879   -0.3289 C   0  0  0  0  0  0  0  0  0  0  0  0
    1.0145    7.9212   -0.7843 C   0  0  0  0  0  0  0  0  0  0  0  0
    0.2839    7.9150   -1.9682 C   0  0  0  0  0  0  0  0  0  0  0  0
    0.1923    6.7649   -2.7464 C   0  0  0  0  0  0  0  0  0  0  0  0
    0.8347    5.6063   -2.3409 C   0  0  0  0  0  0  0  0  0  0  0  0
    2.4796    6.5353    0.8228 C   0  0  0  0  0  0  0  0  0  0  0  0
    2.7901    7.5072    1.8528 C   0  0  0  0  0  0  0  0  0  0  0  0
    3.7682    8.1952    1.7532 O   0  0  0  0  0  0  0  0  0  0  0  0
    2.0029    7.6343    2.8921 O   0  0  0  0  0  0  0  0  0  0  0  0
    2.3071    8.5862    3.9010 C   0  0  0  0  0  0  0  0  0  0  0  0
    2.9663    5.2676    0.9156 C   0  0  0  0  0  0  0  0  0  0  0  0
    3.8003    4.7257    1.9698 C   0  0  0  0  0  0  0  0  0  0  0  0
    4.8766    5.2079    2.1911 O   0  0  0  0  0  0  0  0  0  0  0  0
    3.3486    3.6362    2.7326 N   0  0  0  0  0  0  0  0  0  0  0  0
    4.1226    3.0289    3.8117 C   0  0  0  0  0  0  0  0  0  0  0  0
    4.1839    1.5130    3.7238 C   0  0  0  0  0  0  0  0  0  0  0  0
    2.7581    0.9880    3.7080 C   0  0  0  0  0  0  0  0  0  0  0  0
    2.7621   -0.4819    3.7334 N   0  0  0  0  0  0  0  0  0  0  0  0
    3.2803   -1.2284    4.6774 N   0  0  0  0  0  0  0  0  0  0  0  0
    3.1279   -2.4559    4.4211 N   0  0  0  0  0  0  0  0  0  0  0  0
    2.4668   -2.5515    3.2335 C   0  0  0  0  0  0  0  0  0  0  0  0
    2.2269   -1.2920    2.7824 C   0  0  0  0  0  0  0  0  0  0  0  0
    2.0647   -3.8402    2.5359 C   0  0  0  0  0  0  0  0  0  0  0  0
    2.6049   -4.1252    1.1432 C   0  0  0  0  0  0  0  0  0  0  0  0
    4.1233   -4.1751    1.1891 C   0  0  0  0  0  0  0  0  0  0  0  0
    4.6277   -4.4412   -0.1114 O   0  0  0  0  0  0  0  0  0  0  0  0
    0.6684   -4.3220    2.8100 C   0  0  0  0  0  0  0  0  0  0  0  0
    1.8417   -5.0354    3.4182 C   0  0  0  0  0  0  0  0  0  0  0  0
    2.0195    1.5190    2.4901 C   0  0  0  0  0  0  0  0  0  0  0  0
    2.0168    3.0385    2.5548 C   0  0  0  0  0  0  0  0  0  0  0  0
    1.2399    3.5973    3.7370 C   0  0  0  0  0  0  0  0  0  0  0  0
    2.1232    4.2799    4.7837 C   0  0  0  0  0  0  0  0  0  0  0  0
    3.4413    3.5647    5.0676 C   0  0  0  0  0  0  0  0  0  0  0  0
  1  2  1  0
  2  3  2  0
  3  4  1  0
  4  5  2  0
  5  6  1  0
  6  7  2  0
  7  2  1  0
  3  8  1  0
  8  9  1  0
  9 10  2  0
  9 11  1  0
 11 12  1  0
  8 13  2  0
 13  1  1  0
 13 14  1  0
 14 15  2  0
 14 16  1  0
 16 17  1  0
 17 18  1  0
 18 19  1  0
 19 20  1  0
 20 21  1  0
 21 22  2  0
 22 23  1  0
 23 24  2  0
 24 20  1  0
 23 25  1  0
 25 26  1  0
 26 27  1  0
 27 28  1  0
 25 29  1  0
 29 30  1  0
 30 25  1  0
 19 31  1  0
 31 32  1  0
 32 16  1  0
 32 33  1  0
 33 34  1  0
 34 35  1  0
 35 17  1  0
M  END
$$$$
s_269862____8990226____10746022
     RDKit          3D

 32 35  0  0  0  0  0  0  0  0999 V2000
    2.0699    7.1275    3.9134 O   0  0  0  0  0  0  0  0  0  0  0  0
    2.3072    6.5702    4.9493 C   0  0  0  0  0  0  0  0  0  0  0  0
    1.8484    5.3010    5.3010 N   0  0  0  0  0  0  0  0  0  0  0  0
    2.3040    4.9353    6.5677 C   0  0  0  0  0  0  0  0  0  0  0  0
    2.0818    3.9080    7.1467 O   0  0  0  0  0  0  0  0  0  0  0  0
    3.1291    6.1061    7.0560 C   0  0  0  0  0  0  0  0  0  0  0  0
    3.0795    7.1034    5.9816 N   0  0  0  0  0  0  0  0  0  0  0  0
    2.6940    6.5468    8.4382 C   0  0  0  0  0  0  0  0  0  0  0  0
    3.8286    7.4250    8.9254 C   0  0  0  0  0  0  0  0  0  0  0  0
    5.0576    6.7738    8.3259 C   0  0  0  0  0  0  0  0  0  0  0  0
    4.5216    5.6638    7.4444 C   0  0  0  0  0  0  0  0  0  0  0  0
    1.0000    4.4526    4.4526 C   0  0  0  0  0  0  0  0  0  0  0  0
    1.8776    3.5750    3.5750 C   0  0  0  0  0  0  0  0  0  0  0  0
    1.0289    2.7263    2.7263 N   0  0  0  0  0  0  0  0  0  0  0  0
    1.8776    1.8776    1.8776 C   0  0  0  0  0  0  0  0  0  0  0  0
    1.0000    1.0000    1.0000 C   0  0  0  0  0  0  0  0  0  0  0  0
    1.8776    0.1224    0.1224 C   0  0  0  0  0  0  0  0  0  0  0  0
    1.0000   -0.7551   -0.7551 C   0  0  0  0  0  0  0  0  0  0  0  0
    1.8776   -1.6327   -1.6327 C   0  0  0  0  0  0  0  0  0  0  0  0
    1.0000   -2.5103   -2.5103 C   0  0  0  0  0  0  0  0  0  0  0  0
    1.8492   -3.3595   -3.3595 N   0  0  0  0  0  0  0  0  0  0  0  0
    2.3143   -4.6290   -3.0201 C   0  0  0  0  0  0  0  0  0  0  0  0
    2.0836   -5.2081   -1.9947 O   0  0  0  0  0  0  0  0  0  0  0  0
    3.1076   -5.1137   -4.1243 C   0  0  0  0  0  0  0  0  0  0  0  0
    3.1075   -4.1365   -5.0850 C   0  0  0  0  0  0  0  0  0  0  0  0
    3.8207   -4.4096   -6.2493 C   0  0  0  0  0  0  0  0  0  0  0  0
    4.4961   -5.6139   -6.4176 C   0  0  0  0  0  0  0  0  0  0  0  0
    4.4755   -6.5831   -5.4196 C   0  0  0  0  0  0  0  0  0  0  0  0
    3.7668   -6.3316   -4.2500 C   0  0  0  0  0  0  0  0  0  0  0  0
    2.3137   -3.0185   -4.6272 C   0  0  0  0  0  0  0  0  0  0  0  0
    2.0889   -2.0001   -5.2208 O   0  0  0  0  0  0  0  0  0  0  0  0
    2.7551    1.0000    2.7551 C   0  0  0  0  0  0  0  0  0  0  0  0
  1  2  2  0
  2  3  1  0
  3  4  1  0
  4  5  2  0
  4  6  1  0
  6  7  1  0
  7  2  1  0
  6  8  1  0
  8  9  1  0
  9 10  1  0
 10 11  1  0
 11  6  1  0
  3 12  1  0
 12 13  1  0
 13 14  1  0
 14 15  1  0
 15 16  1  0
 16 17  1  0
 17 18  1  0
 18 19  1  0
 19 20  1  0
 20 21  1  0
 21 22  1  0
 22 23  2  0
 22 24  1  0
 24 25  2  0
 25 26  1  0
 26 27  2  0
 27 28  1  0
 28 29  2  0
 29 24  1  0
 25 30  1  0
 30 21  1  0
 30 31  2  0
 15 32  1  0
M  CHG  1  14   1
M  END
$$$$
s_22____15090470____12345924
     RDKit          3D

 31 34  0  0  0  0  0  0  0  0999 V2000
   -0.8850   -0.1277    0.6312 O   0  0  0  0  0  0  0  0  0  0  0  0
    0.3150   -0.1277    0.6312 C   0  0  0  0  0  0  0  0  0  0  0  0
    0.9700   -1.2060    0.2785 O   0  0  0  0  0  0  0  0  0  0  0  0
    0.2600   -2.3748   -0.1038 C   0  0  0  0  0  0  0  0  0  0  0  0
   -0.6139   -2.0655   -1.3084 C   0  0  0  0  0  0  0  0  0  0  0  0
    1.2477   -3.4729   -0.4630 C   0  0  0  0  0  0  0  0  0  0  0  0
   -0.6139   -2.8371    1.0507 C   0  0  0  0  0  0  0  0  0  0  0  0
    1.0000    1.0000    1.0000 N   0  0  0  0  0  0  0  0  0  0  0  0
    2.4699    1.0000    1.0000 C   0  0  0  0  0  0  0  0  0  0  0  0
    3.0734    2.0370    0.0699 C   0  0  0  0  0  0  0  0  0  0  0  0
    2.2747    3.3392    0.1408 C   0  0  0  0  0  0  0  0  0  0  0  0
    2.7450    4.4311   -0.8107 C   0  0  0  0  0  0  0  0  0  0  0  0
    2.9882    3.8662   -2.1494 N   0  0  0  0  0  0  0  0  0  0  0  0
    2.6150    4.6462   -3.2522 C   0  0  0  0  0  0  0  0  0  0  0  0
    2.1198    5.7261   -3.0833 O   0  0  0  0  0  0  0  0  0  0  0  0
    2.8378    4.1238   -4.6636 C   0  0  0  0  0  0  0  0  0  0  0  0
    1.7643    3.1366   -5.1073 C   0  0  0  0  0  0  0  0  0  0  0  0
    1.4603    3.0004   -6.4589 C   0  0  0  0  0  0  0  0  0  0  0  0
    0.4607    2.1120   -6.8485 C   0  0  0  0  0  0  0  0  0  0  0  0
   -0.2481    1.3389   -5.9336 C   0  0  0  0  0  0  0  0  0  0  0  0
    0.0679    1.4559   -4.5852 C   0  0  0  0  0  0  0  0  0  0  0  0
    1.0595    2.3510   -4.1954 C   0  0  0  0  0  0  0  0  0  0  0  0
    2.2073    3.7992   -7.4149 C   0  0  0  0  0  0  0  0  0  0  0  0
    2.2887    3.4878   -8.5928 O   0  0  0  0  0  0  0  0  0  0  0  0
    2.8827    4.9492   -6.9904 N   0  0  0  0  0  0  0  0  0  0  0  0
    2.8902    5.3417   -5.5725 C   0  0  0  0  0  0  0  0  0  0  0  0
    3.5966    2.5467   -2.3819 C   0  0  0  0  0  0  0  0  0  0  0  0
    3.0303    1.5517   -1.3746 C   0  0  0  0  0  0  0  0  0  0  0  0
    4.5199    2.0032    0.5299 C   0  0  0  0  0  0  0  0  0  0  0  0
    4.5127    1.6530    2.0015 C   0  0  0  0  0  0  0  0  0  0  0  0
    3.0471    1.4467    2.3293 C   0  0  0  0  0  0  0  0  0  0  0  0
  1  2  2  0
  2  3  1  0
  3  4  1  0
  4  5  1  0
  4  6  1  0
  4  7  1  0
  2  8  1  0
  8  9  1  0
  9 10  1  0
 10 11  1  0
 11 12  1  0
 12 13  1  0
 13 14  1  0
 14 15  2  0
 14 16  1  0
 16 17  1  0
 17 18  1  0
 18 19  2  0
 19 20  1  0
 20 21  2  0
 21 22  1  0
 22 17  2  0
 18 23  1  0
 23 24  2  0
 23 25  1  0
 25 26  1  0
 26 16  1  0
 13 27  1  0
 27 28  1  0
 28 10  1  0
 10 29  1  0
 29 30  1  0
 30 31  1  0
 31  9  1  0
M  END
$$$$
s_22____4971012____13310054
     RDKit          3D

 32 34  0  0  0  0  0  0  0  0999 V2000
   -0.9112   -3.0882    0.3487 O   0  0  0  0  0  0  0  0  0  0  0  0
   -1.1054   -2.6321    1.4415 C   0  0  0  0  0  0  0  0  0  0  0  0
   -1.7477   -3.3360    2.3404 O   0  0  0  0  0  0  0  0  0  0  0  0
   -2.2142   -4.6388    2.0216 C   0  0  0  0  0  0  0  0  0  0  0  0
   -3.1858   -4.5578    0.8555 C   0  0  0  0  0  0  0  0  0  0  0  0
   -1.0358   -5.5193    1.6389 C   0  0  0  0  0  0  0  0  0  0  0  0
   -2.9202   -5.2337    3.2291 C   0  0  0  0  0  0  0  0  0  0  0  0
   -0.6459   -1.3488    1.7555 N   0  0  0  0  0  0  0  0  0  0  0  0
   -0.9006   -0.8191    3.1048 C   0  0  0  0  0  0  0  0  0  0  0  0
    0.2193    0.1007    3.5687 C   0  0  0  0  0  0  0  0  0  0  0  0
    0.6432    1.0393    2.5168 N   0  0  0  0  0  0  0  0  0  0  0  0
    1.7753    1.8044    3.0588 C   0  0  0  0  0  0  0  0  0  0  0  0
    2.2902    2.8091    2.0414 C   0  0  0  0  0  0  0  0  0  0  0  0
    3.3172    3.6413    2.6849 N   0  0  0  0  0  0  0  0  0  0  0  0
    3.5467    4.9648    2.2737 C   0  0  0  0  0  0  0  0  0  0  0  0
    2.8985    5.4368    1.3809 O   0  0  0  0  0  0  0  0  0  0  0  0
    4.5671    5.7607    2.9281 C   0  0  0  0  0  0  0  0  0  0  0  0
    4.4653    6.0046    4.2940 C   0  0  0  0  0  0  0  0  0  0  0  0
    5.4391    6.7670    4.9307 C   0  0  0  0  0  0  0  0  0  0  0  0
    6.5028    7.2769    4.1933 C   0  0  0  0  0  0  0  0  0  0  0  0
    7.4870    8.0451    4.8254 N   0  0  0  0  0  0  0  0  0  0  0  0
    7.4028    8.2946    6.1699 C   0  0  0  0  0  0  0  0  0  0  0  0
    6.4850    7.8545    6.8054 O   0  0  0  0  0  0  0  0  0  0  0  0
    8.3663    9.0467    6.7887 N   0  0  0  0  0  0  0  0  0  0  0  0
    8.2759    9.3144    8.2313 C   0  0  0  0  0  0  0  0  0  0  0  0
    6.6040    7.0326    2.8271 C   0  0  0  0  0  0  0  0  0  0  0  0
    5.6303    6.2701    2.1905 C   0  0  0  0  0  0  0  0  0  0  0  0
    4.0897    3.0235    3.7739 C   0  0  0  0  0  0  0  0  0  0  0  0
    4.2426    1.5326    3.5049 C   0  0  0  0  0  0  0  0  0  0  0  0
    2.8946    0.8307    3.3985 C   0  0  0  0  0  0  0  0  0  0  0  0
    1.1452    0.3095    1.3402 C   0  0  0  0  0  0  0  0  0  0  0  0
    0.0848   -0.5928    0.7259 C   0  0  0  0  0  0  0  0  0  0  0  0
  1  2  2  0
  2  3  1  0
  3  4  1  0
  4  5  1  0
  4  6  1  0
  4  7  1  0
  2  8  1  0
  8  9  1  0
  9 10  1  0
 10 11  1  0
 11 12  1  0
 12 13  1  0
 13 14  1  0
 14 15  1  0
 15 16  2  0
 15 17  1  0
 17 18  2  0
 18 19  1  0
 19 20  2  0
 20 21  1  0
 21 22  1  0
 22 23  2  0
 22 24  1  0
 24 25  1  0
 20 26  1  0
 26 27  2  0
 27 17  1  0
 14 28  1  0
 28 29  1  0
 29 30  1  0
 30 12  1  0
 11 31  1  0
 31 32  1  0
 32  8  1  0
M  CHG  1  11   1
M  END
$$$$
m_274310____14112962____14116038____15870382
     RDKit          3D

 38 43  0  0  0  0  0  0  0  0999 V2000
    7.4132    6.5104    2.3558 O   0  0  0  0  0  0  0  0  0  0  0  0
    6.6686    6.9707    1.5350 C   0  0  0  0  0  0  0  0  0  0  0  0
    7.0205    8.0330    0.8539 O   0  0  0  0  0  0  0  0  0  0  0  0
    8.2830    8.6397    1.0869 C   0  0  0  0  0  0  0  0  0  0  0  0
    5.3752    6.3491    1.2964 C   0  0  0  0  0  0  0  0  0  0  0  0
    4.9903    5.2576    1.9825 N   0  0  0  0  0  0  0  0  0  0  0  0
    3.8039    4.6517    1.7938 C   0  0  0  0  0  0  0  0  0  0  0  0
    3.4072    3.5117    2.5135 N   0  0  0  0  0  0  0  0  0  0  0  0
    4.3351    2.9624    3.5155 C   0  0  0  0  0  0  0  0  0  0  0  0
    4.2152    1.4493    3.6340 C   0  0  0  0  0  0  0  0  0  0  0  0
    2.7657    0.9893    3.7020 C   0  0  0  0  0  0  0  0  0  0  0  0
    2.7627   -0.5303    3.7331 C   0  0  0  0  0  0  0  0  0  0  0  0
    3.5349   -0.9827    4.9647 C   0  0  0  0  0  0  0  0  0  0  0  0
    3.8127   -2.4286    4.9459 N   0  0  0  0  0  0  0  0  0  0  0  0
    3.8533   -3.1237    6.1595 C   0  0  0  0  0  0  0  0  0  0  0  0
    3.6635   -2.5412    7.1913 O   0  0  0  0  0  0  0  0  0  0  0  0
    4.1246   -4.5474    6.1704 C   0  0  0  0  0  0  0  0  0  0  0  0
    3.2813   -5.3971    5.5026 N   0  0  0  0  0  0  0  0  0  0  0  0
    3.5067   -6.7484    5.4904 C   0  0  0  0  0  0  0  0  0  0  0  0
    2.7208   -7.4559    4.8791 O   0  0  0  0  0  0  0  0  0  0  0  0
    4.6338   -7.2772    6.1811 C   0  0  0  0  0  0  0  0  0  0  0  0
    5.4832   -6.4070    6.8560 C   0  0  0  0  0  0  0  0  0  0  0  0
    6.5960   -6.8785    7.5451 C   0  0  0  0  0  0  0  0  0  0  0  0
    6.8601   -8.2439    7.5561 C   0  0  0  0  0  0  0  0  0  0  0  0
    6.0294   -9.1388    6.8900 C   0  0  0  0  0  0  0  0  0  0  0  0
    4.9243   -8.6388    6.2103 C   0  0  0  0  0  0  0  0  0  0  0  0
    5.2213   -5.0108    6.8492 C   0  0  0  0  0  0  0  0  0  0  0  0
    4.0473   -3.1799    3.7014 C   0  0  0  0  0  0  0  0  0  0  0  0
    3.2514   -2.6116    2.5343 C   0  0  0  0  0  0  0  0  0  0  0  0
    3.3477   -1.0942    2.4459 C   0  0  0  0  0  0  0  0  0  0  0  0
    2.0810    1.4150    2.4110 C   0  0  0  0  0  0  0  0  0  0  0  0
    2.0878    2.9259    2.2239 C   0  0  0  0  0  0  0  0  0  0  0  0
    2.9425    5.1867    0.8405 C   0  0  0  0  0  0  0  0  0  0  0  0
    3.3240    6.3165    0.1229 C   0  0  0  0  0  0  0  0  0  0  0  0
    4.5298    6.8539    0.3801 N   0  0  0  0  0  0  0  0  0  0  0  0
    2.3680    6.8869   -0.9130 C   0  0  0  0  0  0  0  0  0  0  0  0
    2.0645    5.8751   -1.9790 C   0  0  0  0  0  0  0  0  0  0  0  0
    3.0004    7.0133   -2.2691 C   0  0  0  0  0  0  0  0  0  0  0  0
  1  2  2  0
  2  3  1  0
  3  4  1  0
  2  5  1  0
  5  6  2  0
  6  7  1  0
  7  8  1  0
  8  9  1  0
  9 10  1  0
 10 11  1  0
 11 12  1  0
 12 13  1  0
 13 14  1  0
 14 15  1  0
 15 16  2  0
 15 17  1  0
 17 18  1  0
 18 19  1  0
 19 20  2  0
 19 21  1  0
 21 22  2  0
 22 23  1  0
 23 24  2  0
 24 25  1  0
 25 26  2  0
 26 21  1  0
 22 27  1  0
 17 27  2  0
 14 28  1  0
 28 29  1  0
 29 30  1  0
 30 12  1  0
 11 31  1  0
 31 32  1  0
 32  8  1  0
  7 33  2  0
 33 34  1  0
 34 35  2  0
 35  5  1  0
 34 36  1  0
 36 37  1  0
 37 38  1  0
 38 36  1  0
M  END
$$$$
m_274310____14113098____14116038____15870222
     RDKit          3D

 38 42  0  0  0  0  0  0  0  0999 V2000
    5.9071    3.8218    2.4783 Cl  0  0  0  0  0  0  0  0  0  0  0  0
    4.3746    2.9172    2.4878 C   0  0  0  0  0  0  0  0  0  0  0  0
    3.1509    3.5779    2.5012 C   0  0  0  0  0  0  0  0  0  0  0  0
    2.0080    2.8748    2.5082 N   0  0  0  0  0  0  0  0  0  0  0  0
    2.0084    1.5332    2.5024 C   0  0  0  0  0  0  0  0  0  0  0  0
    3.2034    0.8215    2.4893 C   0  0  0  0  0  0  0  0  0  0  0  0
    4.4021    1.5269    2.4817 C   0  0  0  0  0  0  0  0  0  0  0  0
    3.2280   -0.6288    2.4827 C   0  0  0  0  0  0  0  0  0  0  0  0
    4.2773   -1.2109    2.4713 O   0  0  0  0  0  0  0  0  0  0  0  0
    2.1049   -1.3030    2.4893 O   0  0  0  0  0  0  0  0  0  0  0  0
    2.1291   -2.7228    2.4829 C   0  0  0  0  0  0  0  0  0  0  0  0
    2.8646   -3.2226    3.7157 C   0  0  0  0  0  0  0  0  0  0  0  0
    0.7049   -3.2538    2.4926 C   0  0  0  0  0  0  0  0  0  0  0  0
    2.8436   -3.2118    1.2336 C   0  0  0  0  0  0  0  0  0  0  0  0
    3.1484    4.9786    2.5069 N   0  0  0  0  0  0  0  0  0  0  0  0
    3.7285    5.8520    1.4825 C   0  0  0  0  0  0  0  0  0  0  0  0
    2.8698    7.1006    1.4833 C   0  0  0  0  0  0  0  0  0  0  0  0
    1.9126    7.1543    0.3039 C   0  0  0  0  0  0  0  0  0  0  0  0
    1.0724    8.4208    0.3441 C   0  0  0  0  0  0  0  0  0  0  0  0
    0.0707    8.3558   -0.7291 N   0  0  0  0  0  0  0  0  0  0  0  0
   -1.1705    9.0061   -0.6117 C   0  0  0  0  0  0  0  0  0  0  0  0
   -1.4294    9.6302    0.3800 O   0  0  0  0  0  0  0  0  0  0  0  0
   -2.1370    8.9226   -1.6885 C   0  0  0  0  0  0  0  0  0  0  0  0
   -2.6109    7.6949   -2.0721 N   0  0  0  0  0  0  0  0  0  0  0  0
   -3.5257    7.5777   -3.0853 C   0  0  0  0  0  0  0  0  0  0  0  0
   -3.9111    6.4576   -3.3837 O   0  0  0  0  0  0  0  0  0  0  0  0
   -3.9910    8.7483   -3.7486 C   0  0  0  0  0  0  0  0  0  0  0  0
   -3.5038    9.9893   -3.3523 C   0  0  0  0  0  0  0  0  0  0  0  0
   -3.9291   11.1600   -3.9720 C   0  0  0  0  0  0  0  0  0  0  0  0
   -4.8578   11.0835   -5.0044 C   0  0  0  0  0  0  0  0  0  0  0  0
   -5.3636    9.8571   -5.4225 C   0  0  0  0  0  0  0  0  0  0  0  0
   -4.9199    8.7039   -4.7851 C   0  0  0  0  0  0  0  0  0  0  0  0
   -2.5556   10.0766   -2.2980 C   0  0  0  0  0  0  0  0  0  0  0  0
    0.4384    7.5808   -1.9231 C   0  0  0  0  0  0  0  0  0  0  0  0
    1.9368    7.6809   -2.1624 C   0  0  0  0  0  0  0  0  0  0  0  0
    2.7402    7.1828   -0.9703 C   0  0  0  0  0  0  0  0  0  0  0  0
    2.1331    7.0991    2.8138 C   0  0  0  0  0  0  0  0  0  0  0  0
    2.5685    5.8406    3.5411 C   0  0  0  0  0  0  0  0  0  0  0  0
  1  2  1  0
  2  3  2  0
  3  4  1  0
  4  5  2  0
  5  6  1  0
  6  7  2  0
  7  2  1  0
  6  8  1  0
  8  9  2  0
  8 10  1  0
 10 11  1  0
 11 12  1  0
 11 13  1  0
 11 14  1  0
  3 15  1  0
 15 16  1  0
 16 17  1  0
 17 18  1  0
 18 19  1  0
 19 20  1  0
 20 21  1  0
 21 22  2  0
 21 23  1  0
 23 24  1  0
 24 25  1  0
 25 26  2  0
 25 27  1  0
 27 28  2  0
 28 29  1  0
 29 30  2  0
 30 31  1  0
 31 32  2  0
 32 27  1  0
 28 33  1  0
 23 33  2  0
 20 34  1  0
 34 35  1  0
 35 36  1  0
 36 18  1  0
 17 37  1  0
 37 38  1  0
 38 15  1  0
M  END
$$$$
m_275592____15865406____14136522____15860532
     RDKit          3D

 35 40  0  0  0  0  0  0  0  0999 V2000
    0.9150    1.0000    3.2257 O   0  0  0  0  0  0  0  0  0  0  0  0
    0.3150    1.0000    2.1865 C   0  0  0  0  0  0  0  0  0  0  0  0
    1.0000    1.0000    1.0000 N   0  0  0  0  0  0  0  0  0  0  0  0
    2.4700    1.0000    1.0000 C   0  0  0  0  0  0  0  0  0  0  0  0
    2.9777    1.0000   -0.4361 C   0  0  0  0  0  0  0  0  0  0  0  0
    4.4793    0.8191   -0.5608 C   0  0  0  0  0  0  0  0  0  0  0  0
    4.9112   -0.6223   -0.3224 C   0  0  0  0  0  0  0  0  0  0  0  0
    6.4158   -0.8579   -0.4017 C   0  0  0  0  0  0  0  0  0  0  0  0
    7.1478    0.1820    0.3424 N   0  0  0  0  0  0  0  0  0  0  0  0
    8.2893   -0.2017    1.0529 C   0  0  0  0  0  0  0  0  0  0  0  0
    8.6961   -1.3278    0.9719 O   0  0  0  0  0  0  0  0  0  0  0  0
    9.0148    0.8072    1.9277 C   0  0  0  0  0  0  0  0  0  0  0  0
    9.6442    0.1566    3.0300 O   0  0  0  0  0  0  0  0  0  0  0  0
   10.8643    0.8197    3.3337 C   0  0  0  0  0  0  0  0  0  0  0  0
   11.0836    1.9196    2.3133 C   0  0  0  0  0  0  0  0  0  0  0  0
   10.2301    1.3550    1.1954 C   0  0  0  0  0  0  0  0  0  0  0  0
   10.7621    3.3215    2.7959 C   0  0  0  0  0  0  0  0  0  0  0  0
   11.4093    4.2536    1.7938 C   0  0  0  0  0  0  0  0  0  0  0  0
   12.5976    3.4875    1.2457 C   0  0  0  0  0  0  0  0  0  0  0  0
   12.5328    2.1220    1.9142 C   0  0  0  0  0  0  0  0  0  0  0  0
    6.7465    1.5951    0.3929 C   0  0  0  0  0  0  0  0  0  0  0  0
    5.2300    1.6360    0.4869 C   0  0  0  0  0  0  0  0  0  0  0  0
    4.5855    1.2061   -2.0202 C   0  0  0  0  0  0  0  0  0  0  0  0
    3.8097    2.5048   -2.1101 C   0  0  0  0  0  0  0  0  0  0  0  0
    2.7151    2.3505   -1.0772 C   0  0  0  0  0  0  0  0  0  0  0  0
   -1.1350    1.0000    2.1865 C   0  0  0  0  0  0  0  0  0  0  0  0
   -1.9494    1.0000    3.3428 C   0  0  0  0  0  0  0  0  0  0  0  0
   -3.2346    0.9988    2.8577 C   0  0  0  0  0  0  0  0  0  0  0  0
   -3.2030    0.9961    1.4913 N   0  0  0  0  0  0  0  0  0  0  0  0
   -1.9087    0.9962    1.0660 C   0  0  0  0  0  0  0  0  0  0  0  0
   -4.3054    1.0010    3.7472 C   0  0  0  0  0  0  0  0  0  0  0  0
   -4.0975    0.9971    5.1236 C   0  0  0  0  0  0  0  0  0  0  0  0
   -2.8038    0.9901    5.6318 C   0  0  0  0  0  0  0  0  0  0  0  0
   -1.7468    0.9919    4.7237 C   0  0  0  0  0  0  0  0  0  0  0  0
   -2.5915    0.9797    7.1405 C   0  0  0  0  0  0  0  0  0  0  0  0
  1  2  2  0
  2  3  1  0
  3  4  1  0
  4  5  1  0
  5  6  1  0
  6  7  1  0
  7  8  1  0
  8  9  1  0
  9 10  1  0
 10 11  2  0
 10 12  1  0
 12 13  1  0
 13 14  1  0
 14 15  1  0
 15 16  1  0
 16 12  1  0
 15 17  1  0
 17 18  1  0
 18 19  1  0
 19 20  1  0
 20 15  1  0
  9 21  1  0
 21 22  1  0
 22  6  1  0
  6 23  1  0
 23 24  1  0
 24 25  1  0
 25  5  1  0
  2 26  1  0
 26 27  1  0
 27 28  2  0
 28 29  1  0
 29 30  1  0
 26 30  2  0
 28 31  1  0
 31 32  2  0
 32 33  1  0
 33 34  2  0
 34 27  1  0
 33 35  1  0
M  END
$$$$
m_274860b____17162908____17184506____17179596
     RDKit          3D

 31 35  0  0  0  0  0  0  0  0999 V2000
    2.0412   -1.5328    3.8883 O   0  0  0  0  0  0  0  0  0  0  0  0
    3.0853   -1.3538    4.4521 C   0  0  0  0  0  0  0  0  0  0  0  0
    4.1033   -0.6942    3.8153 N   0  0  0  0  0  0  0  0  0  0  0  0
    3.9166   -0.2057    2.4415 C   0  0  0  0  0  0  0  0  0  0  0  0
    3.3635    1.2089    2.4777 C   0  0  0  0  0  0  0  0  0  0  0  0
    4.0983    2.3562    2.5000 N   0  0  0  0  0  0  0  0  0  0  0  0
    3.2914    3.3277    2.5307 N   0  0  0  0  0  0  0  0  0  0  0  0
    2.0497    2.9093    2.5300 N   0  0  0  0  0  0  0  0  0  0  0  0
    2.0481    1.5507    2.4963 C   0  0  0  0  0  0  0  0  0  0  0  0
    0.8566    3.7666    2.5625 C   0  0  0  0  0  0  0  0  0  0  0  0
    0.8534    4.8357    1.4850 C   0  0  0  0  0  0  0  0  0  0  0  0
    1.7971    5.9329    1.7445 N   0  0  0  0  0  0  0  0  0  0  0  0
    1.6109    6.7557    2.8240 C   0  0  0  0  0  0  0  0  0  0  0  0
    0.9268    6.3957    3.7418 O   0  0  0  0  0  0  0  0  0  0  0  0
    2.2711    8.1251    2.8591 C   0  0  0  0  0  0  0  0  0  0  0  0
    3.7864    8.2155    2.7896 C   0  0  0  0  0  0  0  0  0  0  0  0
    4.3113    8.8133    1.8912 O   0  0  0  0  0  0  0  0  0  0  0  0
    4.5676    7.6031    3.7704 N   0  0  0  0  0  0  0  0  0  0  0  0
    4.0901    6.8381    4.9289 C   0  0  0  0  0  0  0  0  0  0  0  0
    5.2219    5.9112    5.3164 C   0  0  0  0  0  0  0  0  0  0  0  0
    6.3229    6.2001    4.3117 C   0  0  0  0  0  0  0  0  0  0  0  0
    6.0281    7.6001    3.8208 C   0  0  0  0  0  0  0  0  0  0  0  0
    1.5197    9.2341    2.1789 C   0  0  0  0  0  0  0  0  0  0  0  0
    1.5766    9.1755    3.6785 C   0  0  0  0  0  0  0  0  0  0  0  0
   -0.5906    5.2462    1.4036 C   0  0  0  0  0  0  0  0  0  0  0  0
   -1.0994    3.8458    1.1883 C   0  0  0  0  0  0  0  0  0  0  0  0
   -0.4413    3.0330    2.2957 C   0  0  0  0  0  0  0  0  0  0  0  0
   -0.3281    3.4431   -0.0481 C   0  0  0  0  0  0  0  0  0  0  0  0
    0.9391    4.2737    0.0801 C   0  0  0  0  0  0  0  0  0  0  0  0
    3.2592   -1.8090    5.7325 N   0  0  0  0  0  0  0  0  0  0  0  0
    2.1669   -2.5168    6.4157 C   0  0  0  0  0  0  0  0  0  0  0  0
  1  2  2  0
  2  3  1  0
  3  4  1  0
  4  5  1  0
  5  6  1  0
  6  7  2  0
  7  8  1  0
  8  9  1  0
  5  9  2  0
  8 10  1  0
 10 11  1  0
 11 12  1  0
 12 13  1  0
 13 14  2  0
 13 15  1  0
 15 16  1  0
 16 17  2  0
 16 18  1  0
 18 19  1  0
 19 20  1  0
 20 21  1  0
 21 22  1  0
 22 18  1  0
 15 23  1  0
 23 24  1  0
 24 15  1  0
 11 25  1  0
 25 26  1  0
 26 27  1  0
 27 10  1  0
 26 28  1  0
 28 29  1  0
 29 11  1  0
  2 30  1  0
 30 31  1  0
M  END
$$$$
m_274310____14113020____14118380____15870504
     RDKit          3D

 37 41  0  0  0  0  0  0  0  0999 V2000
    8.4216   -4.0175   -0.6575 O   0  0  0  0  0  0  0  0  0  0  0  0
    7.6605   -4.7459   -0.0829 C   0  0  0  0  0  0  0  0  0  0  0  0
    6.9158   -4.2660    1.0000 N   0  0  0  0  0  0  0  0  0  0  0  0
    7.0861   -2.8630    1.4129 C   0  0  0  0  0  0  0  0  0  0  0  0
    6.9157   -2.6816    2.9148 C   0  0  0  0  0  0  0  0  0  0  0  0
    6.8315   -1.1925    3.2072 C   0  0  0  0  0  0  0  0  0  0  0  0
    5.6330   -0.6273    2.4576 C   0  0  0  0  0  0  0  0  0  0  0  0
    5.6179    0.8451    2.4642 N   0  0  0  0  0  0  0  0  0  0  0  0
    4.3798    1.5101    2.4789 C   0  0  0  0  0  0  0  0  0  0  0  0
    3.1977    0.8672    2.4874 N   0  0  0  0  0  0  0  0  0  0  0  0
    2.0093    1.4995    2.5018 C   0  0  0  0  0  0  0  0  0  0  0  0
    2.0174    2.8451    2.5080 N   0  0  0  0  0  0  0  0  0  0  0  0
    3.1473    3.5764    2.5006 C   0  0  0  0  0  0  0  0  0  0  0  0
    3.1515    4.9322    2.5081 O   0  0  0  0  0  0  0  0  0  0  0  0
    4.3834    5.6384    2.4995 C   0  0  0  0  0  0  0  0  0  0  0  0
    4.6850    6.1140    1.0877 C   0  0  0  0  0  0  0  0  0  0  0  0
    6.0037    6.8699    1.0786 C   0  0  0  0  0  0  0  0  0  0  0  0
    4.2864    6.8377    3.4283 C   0  0  0  0  0  0  0  0  0  0  0  0
    4.3641    2.9017    2.4855 C   0  0  0  0  0  0  0  0  0  0  0  0
    0.6973    0.7209    2.5106 C   0  0  0  0  0  0  0  0  0  0  0  0
    6.8472    1.6557    2.4595 C   0  0  0  0  0  0  0  0  0  0  0  0
    7.9840    0.9708    3.2059 C   0  0  0  0  0  0  0  0  0  0  0  0
    8.1308   -0.4968    2.8263 C   0  0  0  0  0  0  0  0  0  0  0  0
    5.6857   -3.4031    3.4473 C   0  0  0  0  0  0  0  0  0  0  0  0
    5.8785   -4.8880    3.1683 C   0  0  0  0  0  0  0  0  0  0  0  0
    5.9952   -5.1920    1.6809 C   0  0  0  0  0  0  0  0  0  0  0  0
    7.5124   -6.1241   -0.5111 C   0  0  0  0  0  0  0  0  0  0  0  0
    6.5584   -6.5337   -1.4858 C   0  0  0  0  0  0  0  0  0  0  0  0
    6.4654   -7.8742   -1.8534 C   0  0  0  0  0  0  0  0  0  0  0  0
    5.5268   -8.2595   -2.8083 C   0  0  0  0  0  0  0  0  0  0  0  0
    4.6742   -7.3396   -3.4097 C   0  0  0  0  0  0  0  0  0  0  0  0
    4.7640   -5.9999   -3.0453 C   0  0  0  0  0  0  0  0  0  0  0  0
    5.7014   -5.6175   -2.0915 C   0  0  0  0  0  0  0  0  0  0  0  0
    7.3409   -8.8125   -1.2364 C   0  0  0  0  0  0  0  0  0  0  0  0
    7.3206  -10.0045   -1.5065 O   0  0  0  0  0  0  0  0  0  0  0  0
    8.2476   -8.3824   -0.3024 N   0  0  0  0  0  0  0  0  0  0  0  0
    8.3343   -7.0623    0.0570 C   0  0  0  0  0  0  0  0  0  0  0  0
  1  2  2  0
  2  3  1  0
  3  4  1  0
  4  5  1  0
  5  6  1  0
  6  7  1  0
  7  8  1  0
  8  9  1  0
  9 10  2  0
 10 11  1  0
 11 12  2  0
 12 13  1  0
 13 14  1  0
 14 15  1  0
 15 16  1  0
 16 17  1  0
 15 18  1  0
 13 19  2  0
 19  9  1  0
 11 20  1  0
  8 21  1  0
 21 22  1  0
 22 23  1  0
 23  6  1  0
  5 24  1  0
 24 25  1  0
 25 26  1  0
 26  3  1  0
  2 27  1  0
 27 28  1  0
 28 29  1  0
 29 30  2  0
 30 31  1  0
 31 32  2  0
 32 33  1  0
 33 28  2  0
 29 34  1  0
 34 35  2  0
 34 36  1  0
 36 37  1  0
 27 37  2  0
M  END
$$$$
m_274310____15937848____14117074____15870612
     RDKit          3D

 36 41  0  0  0  0  0  0  0  0999 V2000
    4.5147    2.3837    2.7864 Cl  0  0  0  0  0  0  0  0  0  0  0  0
    3.4743    3.5938    3.5756 C   0  0  0  0  0  0  0  0  0  0  0  0
    3.9130    4.5968    4.4698 C   0  0  0  0  0  0  0  0  0  0  0  0
    2.7881    5.3003    4.8274 C   0  0  0  0  0  0  0  0  0  0  0  0
    1.7153    4.7459    4.1859 N   0  0  0  0  0  0  0  0  0  0  0  0
    2.1276    3.7043    3.4130 C   0  0  0  0  0  0  0  0  0  0  0  0
    1.2902    2.8669    2.5755 C   0  0  0  0  0  0  0  0  0  0  0  0
    0.1081    3.0659    2.5193 O   0  0  0  0  0  0  0  0  0  0  0  0
    1.8487    1.8487    1.8487 N   0  0  0  0  0  0  0  0  0  0  0  0
    1.0000    1.0000    1.0000 C   0  0  0  0  0  0  0  0  0  0  0  0
    0.7069    1.7223   -0.3086 C   0  0  0  0  0  0  0  0  0  0  0  0
   -0.1665    0.9344   -1.2674 C   0  0  0  0  0  0  0  0  0  0  0  0
   -1.6310    0.9303   -0.8475 C   0  0  0  0  0  0  0  0  0  0  0  0
   -2.5523    0.1243   -1.7568 C   0  0  0  0  0  0  0  0  0  0  0  0
   -1.9548   -1.1833   -2.0799 N   0  0  0  0  0  0  0  0  0  0  0  0
   -2.8114   -2.2970   -2.1637 C   0  0  0  0  0  0  0  0  0  0  0  0
   -4.1376   -2.1907   -1.9584 N   0  0  0  0  0  0  0  0  0  0  0  0
   -4.9812   -3.2362   -2.0294 C   0  0  0  0  0  0  0  0  0  0  0  0
   -4.4396   -4.4326   -2.3238 N   0  0  0  0  0  0  0  0  0  0  0  0
   -3.1234   -4.6088   -2.5408 C   0  0  0  0  0  0  0  0  0  0  0  0
   -2.3366   -3.5216   -2.4542 N   0  0  0  0  0  0  0  0  0  0  0  0
   -2.5512   -5.9783   -2.8718 C   0  0  0  0  0  0  0  0  0  0  0  0
   -2.8101   -6.9842   -1.7751 C   0  0  0  0  0  0  0  0  0  0  0  0
   -1.8027   -8.0895   -2.0342 C   0  0  0  0  0  0  0  0  0  0  0  0
   -0.6459   -7.4098   -2.7538 C   0  0  0  0  0  0  0  0  0  0  0  0
   -1.0373   -5.9487   -2.8726 C   0  0  0  0  0  0  0  0  0  0  0  0
   -6.3640   -3.0816   -1.8088 N   0  0  0  0  0  0  0  0  0  0  0  0
   -0.5191   -1.3986   -2.3092 C   0  0  0  0  0  0  0  0  0  0  0  0
    0.2370   -0.5366   -1.3113 C   0  0  0  0  0  0  0  0  0  0  0  0
    0.0699    1.8057   -2.4821 C   0  0  0  0  0  0  0  0  0  0  0  0
    1.5768    1.9593   -2.5325 C   0  0  0  0  0  0  0  0  0  0  0  0
    1.9964    1.9396   -1.0792 C   0  0  0  0  0  0  0  0  0  0  0  0
    2.8858    6.3716    5.7104 C   0  0  0  0  0  0  0  0  0  0  0  0
    4.1115    6.7532    6.2477 C   0  0  0  0  0  0  0  0  0  0  0  0
    5.2548    6.0450    5.8911 C   0  0  0  0  0  0  0  0  0  0  0  0
    5.1399    4.9781    5.0065 C   0  0  0  0  0  0  0  0  0  0  0  0
  1  2  1  0
  2  3  1  0
  3  4  2  0
  4  5  1  0
  5  6  1  0
  2  6  2  0
  6  7  1  0
  7  8  2  0
  7  9  1  0
  9 10  1  0
 10 11  1  0
 11 12  1  0
 12 13  1  0
 13 14  1  0
 14 15  1  0
 15 16  1  0
 16 17  2  0
 17 18  1  0
 18 19  2  0
 19 20  1  0
 20 21  2  0
 21 16  1  0
 20 22  1  0
 22 23  1  0
 23 24  1  0
 24 25  1  0
 25 26  1  0
 26 22  1  0
 18 27  1  0
 15 28  1  0
 28 29  1  0
 29 12  1  0
 12 30  1  0
 30 31  1  0
 31 32  1  0
 32 11  1  0
  4 33  1  0
 33 34  2  0
 34 35  1  0
 35 36  2  0
 36  3  1  0
M  END
$$$$
m_275030____14114100____14125676____14147788
     RDKit          3D

 39 43  0  0  0  0  0  0  0  0999 V2000
   -1.6430   -0.8202   -0.1165 F   0  0  0  0  0  0  0  0  0  0  0  0
   -1.0518   -1.4972   -1.0969 C   0  0  0  0  0  0  0  0  0  0  0  0
   -1.8839   -2.4266   -1.5583 F   0  0  0  0  0  0  0  0  0  0  0  0
    0.0497   -2.0798   -0.6319 F   0  0  0  0  0  0  0  0  0  0  0  0
   -0.6839   -0.5425   -2.2220 C   0  0  0  0  0  0  0  0  0  0  0  0
    0.2688    0.5372   -1.7318 C   0  0  0  0  0  0  0  0  0  0  0  0
    1.5106   -0.0552   -1.2126 N   0  0  0  0  0  0  0  0  0  0  0  0
    1.8770    0.1547    0.0907 C   0  0  0  0  0  0  0  0  0  0  0  0
    2.8903   -0.3287    0.5144 O   0  0  0  0  0  0  0  0  0  0  0  0
    1.0000    1.0000    1.0000 C   0  0  0  0  0  0  0  0  0  0  0  0
    1.8488    1.8488    1.8488 N   0  0  0  0  0  0  0  0  0  0  0  0
    2.2673    3.0045    1.0406 C   0  0  0  0  0  0  0  0  0  0  0  0
    2.8816    4.0914    1.9109 C   0  0  0  0  0  0  0  0  0  0  0  0
    3.2220    3.5766    3.3002 C   0  0  0  0  0  0  0  0  0  0  0  0
    3.8816    4.6572    4.1429 C   0  0  0  0  0  0  0  0  0  0  0  0
    4.8174    4.0459    5.1735 C   0  0  0  0  0  0  0  0  0  0  0  0
    5.3153    5.1149    6.0504 N   0  0  0  0  0  0  0  0  0  0  0  0
    5.6775    4.8575    7.3845 C   0  0  0  0  0  0  0  0  0  0  0  0
    5.5829    3.7466    7.8283 O   0  0  0  0  0  0  0  0  0  0  0  0
    6.1652    5.9340    8.2236 C   0  0  0  0  0  0  0  0  0  0  0  0
    5.3609    7.0186    8.4598 N   0  0  0  0  0  0  0  0  0  0  0  0
    5.7881    8.0544    9.2484 C   0  0  0  0  0  0  0  0  0  0  0  0
    5.0278    8.9945    9.4225 O   0  0  0  0  0  0  0  0  0  0  0  0
    7.0860    8.0026    9.8311 C   0  0  0  0  0  0  0  0  0  0  0  0
    7.8946    6.8980    9.5851 C   0  0  0  0  0  0  0  0  0  0  0  0
    9.1701    6.8045   10.1325 C   0  0  0  0  0  0  0  0  0  0  0  0
    9.6403    7.8350   10.9395 C   0  0  0  0  0  0  0  0  0  0  0  0
    8.8549    8.9519   11.2042 C   0  0  0  0  0  0  0  0  0  0  0  0
    7.5845    9.0183   10.6430 C   0  0  0  0  0  0  0  0  0  0  0  0
    7.4217    5.8406    8.7627 C   0  0  0  0  0  0  0  0  0  0  0  0
    5.4145    6.4565    5.4574 C   0  0  0  0  0  0  0  0  0  0  0  0
    5.7495    6.3438    3.9783 C   0  0  0  0  0  0  0  0  0  0  0  0
    4.7120    5.5312    3.2179 C   0  0  0  0  0  0  0  0  0  0  0  0
    1.9131    3.1617    3.9519 C   0  0  0  0  0  0  0  0  0  0  0  0
    1.0846    2.2756    3.0323 C   0  0  0  0  0  0  0  0  0  0  0  0
    0.6388    1.5222   -2.8307 C   0  0  0  0  0  0  0  0  0  0  0  0
   -0.1015    1.2412   -4.1307 C   0  0  0  0  0  0  0  0  0  0  0  0
   -1.5996    1.1129   -3.8956 C   0  0  0  0  0  0  0  0  0  0  0  0
   -1.9280    0.1389   -2.7729 C   0  0  0  0  0  0  0  0  0  0  0  0
  1  2  1  0
  2  3  1  0
  2  4  1  0
  2  5  1  0
  5  6  1  0
  6  7  1  0
  7  8  1  0
  8  9  2  0
  8 10  1  0
 10 11  1  0
 11 12  1  0
 12 13  1  0
 13 14  1  0
 14 15  1  0
 15 16  1  0
 16 17  1  0
 17 18  1  0
 18 19  2  0
 18 20  1  0
 20 21  1  0
 21 22  1  0
 22 23  2  0
 22 24  1  0
 24 25  2  0
 25 26  1  0
 26 27  2  0
 27 28  1  0
 28 29  2  0
 29 24  1  0
 25 30  1  0
 20 30  2  0
 17 31  1  0
 31 32  1  0
 32 33  1  0
 33 15  1  0
 14 34  1  0
 34 35  1  0
 35 11  1  0
  6 36  1  0
 36 37  1  0
 37 38  1  0
 38 39  1  0
 39  5  1  0
M  CHG  1  11   1
M  END
$$$$
s_527a____12864476____782408
     RDKit          3D

 37 40  0  0  0  0  0  0  0  0999 V2000
    0.9891   -1.7150    1.0109 O   0  0  0  0  0  0  0  0  0  0  0  0
    1.7598   -1.2129    0.2402 C   0  0  0  0  0  0  0  0  0  0  0  0
    2.5162   -1.9693   -0.5162 O   0  0  0  0  0  0  0  0  0  0  0  0
    2.4240   -3.3833   -0.4240 C   0  0  0  0  0  0  0  0  0  0  0  0
    2.7642   -3.8221    0.9910 C   0  0  0  0  0  0  0  0  0  0  0  0
    1.0090   -3.8221   -0.7642 C   0  0  0  0  0  0  0  0  0  0  0  0
    3.4002   -4.0193   -1.4002 C   0  0  0  0  0  0  0  0  0  0  0  0
    1.8487    0.1513    0.1513 N   0  0  0  0  0  0  0  0  0  0  0  0
    1.0000    1.0000    1.0000 C   0  0  0  0  0  0  0  0  0  0  0  0
    0.1221    1.8779    0.1221 C   0  0  0  0  0  0  0  0  0  0  0  0
    0.9352    2.7780   -0.7780 C   0  0  0  0  0  0  0  0  0  0  0  0
   -0.0359    3.8669   -1.1963 C   0  0  0  0  0  0  0  0  0  0  0  0
   -1.0519    3.9468   -0.0653 C   0  0  0  0  0  0  0  0  0  0  0  0
   -0.6188    2.9063    0.9506 C   0  0  0  0  0  0  0  0  0  0  0  0
    1.8776    1.8776    1.8776 C   0  0  0  0  0  0  0  0  0  0  0  0
    2.7551    1.0000    2.7551 C   0  0  0  0  0  0  0  0  0  0  0  0
    3.6482    1.8464    3.6482 C   0  0  0  0  0  0  0  0  0  0  0  0
    4.5723    0.9585    4.3674 N   0  0  0  0  0  0  0  0  0  0  0  0
    5.8446    1.3998    4.7722 C   0  0  0  0  0  0  0  0  0  0  0  0
    6.1950    2.5220    4.5316 O   0  0  0  0  0  0  0  0  0  0  0  0
    6.7332    0.4986    5.4804 C   0  0  0  0  0  0  0  0  0  0  0  0
    6.7253    0.4069    6.8991 C   0  0  0  0  0  0  0  0  0  0  0  0
    5.9580    1.0966    7.5508 O   0  0  0  0  0  0  0  0  0  0  0  0
    7.5882   -0.4626    7.5147 N   0  0  0  0  0  0  0  0  0  0  0  0
    8.4540   -1.2413    6.7909 C   0  0  0  0  0  0  0  0  0  0  0  0
    9.3587   -2.1542    7.4622 C   0  0  0  0  0  0  0  0  0  0  0  0
   10.2284   -2.9344    6.7077 C   0  0  0  0  0  0  0  0  0  0  0  0
   11.0911   -3.8064    7.3635 C   0  0  0  0  0  0  0  0  0  0  0  0
   11.0934   -3.9040    8.7511 C   0  0  0  0  0  0  0  0  0  0  0  0
   10.2149   -3.1133    9.4842 C   0  0  0  0  0  0  0  0  0  0  0  0
    9.3424   -2.2346    8.8507 C   0  0  0  0  0  0  0  0  0  0  0  0
   12.0451   -4.6634    6.5466 C   0  0  0  0  0  0  0  0  0  0  0  0
    8.4810   -1.1718    5.4218 C   0  0  0  0  0  0  0  0  0  0  0  0
    7.5981   -0.2798    4.7551 C   0  0  0  0  0  0  0  0  0  0  0  0
    4.0936   -0.4047    4.6392 C   0  0  0  0  0  0  0  0  0  0  0  0
    2.5880   -0.3904    4.8526 C   0  0  0  0  0  0  0  0  0  0  0  0
    1.8461    0.1748    3.6505 C   0  0  0  0  0  0  0  0  0  0  0  0
  1  2  2  0
  2  3  1  0
  3  4  1  0
  4  5  1  0
  4  6  1  0
  4  7  1  0
  2  8  1  0
  8  9  1  0
  9 10  1  0
 10 11  1  0
 11 12  1  0
 12 13  1  0
 13 14  1  0
 14 10  1  0
  9 15  1  0
 15 16  1  0
 16 17  1  0
 17 18  1  0
 18 19  1  0
 19 20  2  0
 19 21  1  0
 21 22  1  0
 22 23  2  0
 22 24  1  0
 24 25  1  0
 25 26  1  0
 26 27  2  0
 27 28  1  0
 28 29  2  0
 29 30  1  0
 30 31  2  0
 31 26  1  0
 28 32  1  0
 25 33  2  0
 33 34  1  0
 21 34  2  0
 18 35  1  0
 35 36  1  0
 36 37  1  0
 37 16  1  0
M  END
$$$$
s_22____15090470____12912720
     RDKit          3D

 31 34  0  0  0  0  0  0  0  0999 V2000
    4.4456    6.2331   -5.2195 Cl  0  0  0  0  0  0  0  0  0  0  0  0
    3.5920    4.7117   -5.5735 C   0  0  0  0  0  0  0  0  0  0  0  0
    3.6291    4.0041   -6.8060 C   0  0  0  0  0  0  0  0  0  0  0  0
    2.8678    2.8587   -6.7858 C   0  0  0  0  0  0  0  0  0  0  0  0
    2.1555    2.7238   -5.2475 S   0  0  0  0  0  0  0  0  0  0  0  0
    2.8274    4.1482   -4.5978 C   0  0  0  0  0  0  0  0  0  0  0  0
    2.6150    4.6462   -3.2522 C   0  0  0  0  0  0  0  0  0  0  0  0
    2.1198    5.7261   -3.0833 O   0  0  0  0  0  0  0  0  0  0  0  0
    2.9882    3.8662   -2.1494 N   0  0  0  0  0  0  0  0  0  0  0  0
    2.7450    4.4311   -0.8107 C   0  0  0  0  0  0  0  0  0  0  0  0
    2.2747    3.3392    0.1408 C   0  0  0  0  0  0  0  0  0  0  0  0
    3.0734    2.0370    0.0699 C   0  0  0  0  0  0  0  0  0  0  0  0
    2.4699    1.0000    1.0000 C   0  0  0  0  0  0  0  0  0  0  0  0
    1.0000    1.0000    1.0000 N   0  0  0  0  0  0  0  0  0  0  0  0
    0.3150   -0.1277    0.6312 C   0  0  0  0  0  0  0  0  0  0  0  0
   -0.8850   -0.1277    0.6312 O   0  0  0  0  0  0  0  0  0  0  0  0
    0.9700   -1.2060    0.2785 O   0  0  0  0  0  0  0  0  0  0  0  0
    0.2600   -2.3748   -0.1038 C   0  0  0  0  0  0  0  0  0  0  0  0
   -0.6139   -2.0655   -1.3084 C   0  0  0  0  0  0  0  0  0  0  0  0
    1.2477   -3.4729   -0.4630 C   0  0  0  0  0  0  0  0  0  0  0  0
   -0.6139   -2.8371    1.0507 C   0  0  0  0  0  0  0  0  0  0  0  0
    3.0471    1.4467    2.3293 C   0  0  0  0  0  0  0  0  0  0  0  0
    4.5127    1.6530    2.0015 C   0  0  0  0  0  0  0  0  0  0  0  0
    4.5199    2.0032    0.5299 C   0  0  0  0  0  0  0  0  0  0  0  0
    3.0303    1.5517   -1.3746 C   0  0  0  0  0  0  0  0  0  0  0  0
    3.5966    2.5467   -2.3819 C   0  0  0  0  0  0  0  0  0  0  0  0
    2.6648    1.9320   -7.7924 C   0  0  0  0  0  0  0  0  0  0  0  0
    3.3240    2.2110   -8.9769 C   0  0  0  0  0  0  0  0  0  0  0  0
    4.1197    3.3463   -9.0938 C   0  0  0  0  0  0  0  0  0  0  0  0
    4.2676    4.2275   -8.0255 C   0  0  0  0  0  0  0  0  0  0  0  0
    5.0444    5.2898   -8.2223 F   0  0  0  0  0  0  0  0  0  0  0  0
  1  2  1  0
  2  3  1  0
  3  4  2  0
  4  5  1  0
  5  6  1  0
  2  6  2  0
  6  7  1  0
  7  8  2  0
  7  9  1  0
  9 10  1  0
 10 11  1  0
 11 12  1  0
 12 13  1  0
 13 14  1  0
 14 15  1  0
 15 16  2  0
 15 17  1  0
 17 18  1  0
 18 19  1  0
 18 20  1  0
 18 21  1  0
 13 22  1  0
 22 23  1  0
 23 24  1  0
 24 12  1  0
 12 25  1  0
 25 26  1  0
 26  9  1  0
  4 27  1  0
 27 28  2  0
 28 29  1  0
 29 30  2  0
 30  3  1  0
 30 31  1  0
M  END
$$$$
m_275592____15865406____14137820____14128962
     RDKit          3D

 33 37  0  0  0  0  0  0  0  0999 V2000
    7.2898    2.9926    4.9455 O   0  0  0  0  0  0  0  0  0  0  0  0
    7.8550    1.9727    5.2290 C   0  0  0  0  0  0  0  0  0  0  0  0
    7.3460    0.7698    4.8159 N   0  0  0  0  0  0  0  0  0  0  0  0
    6.1074    0.7283    4.0252 C   0  0  0  0  0  0  0  0  0  0  0  0
    6.4226    1.0514    2.5704 C   0  0  0  0  0  0  0  0  0  0  0  0
    5.2105    1.0372    1.6574 C   0  0  0  0  0  0  0  0  0  0  0  0
    4.3411    2.2764    1.8289 C   0  0  0  0  0  0  0  0  0  0  0  0
    3.0885    2.3011    0.9595 C   0  0  0  0  0  0  0  0  0  0  0  0
    2.3982    1.0000    1.0000 N   0  0  0  0  0  0  0  0  0  0  0  0
    1.0000    1.0000    1.0000 C   0  0  0  0  0  0  0  0  0  0  0  0
    0.4000    2.0387    0.9677 O   0  0  0  0  0  0  0  0  0  0  0  0
    0.2400   -0.3157    1.0410 C   0  0  0  0  0  0  0  0  0  0  0  0
    0.2478   -1.0431    0.0866 O   0  0  0  0  0  0  0  0  0  0  0  0
   -0.4539   -0.6712    2.1675 N   0  0  0  0  0  0  0  0  0  0  0  0
   -1.1889   -1.9436    2.2071 C   0  0  0  0  0  0  0  0  0  0  0  0
   -0.2196   -3.0802    2.4915 C   0  0  0  0  0  0  0  0  0  0  0  0
   -0.9360   -4.3982    2.5394 C   0  0  0  0  0  0  0  0  0  0  0  0
   -0.4844   -3.7426    3.8129 C   0  0  0  0  0  0  0  0  0  0  0  0
    3.0880   -0.2968    1.0514 C   0  0  0  0  0  0  0  0  0  0  0  0
    4.2895   -0.1390    1.9689 C   0  0  0  0  0  0  0  0  0  0  0  0
    5.9716    1.0582    0.3493 C   0  0  0  0  0  0  0  0  0  0  0  0
    7.0071   -0.0362    0.5128 C   0  0  0  0  0  0  0  0  0  0  0  0
    7.3334   -0.0149    1.9898 C   0  0  0  0  0  0  0  0  0  0  0  0
    9.0766    2.0136    6.0089 C   0  0  0  0  0  0  0  0  0  0  0  0
    9.8038    3.1975    6.0660 C   0  0  0  0  0  0  0  0  0  0  0  0
   10.9739    3.2319    6.8161 C   0  0  0  0  0  0  0  0  0  0  0  0
   11.4175    2.1040    7.5003 C   0  0  0  0  0  0  0  0  0  0  0  0
   10.6803    0.9256    7.4353 C   0  0  0  0  0  0  0  0  0  0  0  0
    9.5073    0.8789    6.6882 C   0  0  0  0  0  0  0  0  0  0  0  0
   12.5859    2.1484    8.2521 C   0  0  0  0  0  0  0  0  0  0  0  0
   13.3145    3.3321    8.3143 C   0  0  0  0  0  0  0  0  0  0  0  0
   12.8716    4.4578    7.6287 C   0  0  0  0  0  0  0  0  0  0  0  0
   11.7014    4.4162    6.8776 C   0  0  0  0  0  0  0  0  0  0  0  0
  1  2  2  0
  2  3  1  0
  3  4  1  0
  4  5  1  0
  5  6  1  0
  6  7  1  0
  7  8  1  0
  8  9  1  0
  9 10  1  0
 10 11  2  0
 10 12  1  0
 12 13  2  0
 12 14  1  0
 14 15  1  0
 15 16  1  0
 16 17  1  0
 17 18  1  0
 18 16  1  0
  9 19  1  0
 19 20  1  0
 20  6  1  0
  6 21  1  0
 21 22  1  0
 22 23  1  0
 23  5  1  0
  2 24  1  0
 24 25  2  0
 25 26  1  0
 26 27  2  0
 27 28  1  0
 28 29  2  0
 29 24  1  0
 27 30  1  0
 30 31  2  0
 31 32  1  0
 32 33  2  0
 33 26  1  0
M  END
$$$$
m_274972____12934192____12615770____13047176
     RDKit          3D

 34 38  0  0  0  0  0  0  0  0999 V2000
   10.2247    1.6719    2.3661 S   0  0  0  0  0  0  0  0  0  0  0  0
   10.8020    2.8102    3.0328 O   0  0  0  0  0  0  0  0  0  0  0  0
   10.6267    0.4653    3.0415 O   0  0  0  0  0  0  0  0  0  0  0  0
   10.7414    1.6275    0.8208 N   0  0  0  0  0  0  0  0  0  0  0  0
   12.2071    1.5178    0.7972 C   0  0  0  0  0  0  0  0  0  0  0  0
    8.4200    1.8069    2.3952 C   0  0  0  0  0  0  0  0  0  0  0  0
    7.6437    0.6529    2.4108 C   0  0  0  0  0  0  0  0  0  0  0  0
    6.2577    0.7683    2.4333 C   0  0  0  0  0  0  0  0  0  0  0  0
    5.6642    2.0267    2.4390 C   0  0  0  0  0  0  0  0  0  0  0  0
    6.4448    3.1781    2.4235 C   0  0  0  0  0  0  0  0  0  0  0  0
    7.8313    3.0673    2.4012 C   0  0  0  0  0  0  0  0  0  0  0  0
    4.2182    2.1329    2.4615 C   0  0  0  0  0  0  0  0  0  0  0  0
    3.3303    3.5831    2.4714 S   0  0  0  0  0  0  0  0  0  0  0  0
    1.7841    2.8690    2.4950 C   0  0  0  0  0  0  0  0  0  0  0  0
    2.0375    1.5302    2.4908 C   0  0  0  0  0  0  0  0  0  0  0  0
    3.3498    1.1464    2.4729 N   0  0  0  0  0  0  0  0  0  0  0  0
    0.9118    0.6170    2.5150 C   0  0  0  0  0  0  0  0  0  0  0  0
   -0.4029    0.9692    2.5332 N   0  0  0  0  0  0  0  0  0  0  0  0
   -1.0790   -0.0974    2.5525 N   0  0  0  0  0  0  0  0  0  0  0  0
   -0.3062   -1.1554    2.5502 N   0  0  0  0  0  0  0  0  0  0  0  0
    0.9871   -0.7420    2.5276 C   0  0  0  0  0  0  0  0  0  0  0  0
   -0.7634   -2.5524    2.5709 C   0  0  0  0  0  0  0  0  0  0  0  0
   -0.9440   -3.0477    1.1447 C   0  0  0  0  0  0  0  0  0  0  0  0
    0.1409   -3.6621    0.4633 C   0  0  0  0  0  0  0  0  0  0  0  0
    1.1916   -3.7797    1.0309 O   0  0  0  0  0  0  0  0  0  0  0  0
   -0.0299   -4.1065   -0.8230 N   0  0  0  0  0  0  0  0  0  0  0  0
   -1.2400   -3.9644   -1.4612 C   0  0  0  0  0  0  0  0  0  0  0  0
   -2.3178   -3.3665   -0.8140 C   0  0  0  0  0  0  0  0  0  0  0  0
   -3.5536   -3.2074   -1.4319 C   0  0  0  0  0  0  0  0  0  0  0  0
   -3.7143   -3.6619   -2.7365 C   0  0  0  0  0  0  0  0  0  0  0  0
   -2.6621   -4.2650   -3.4173 C   0  0  0  0  0  0  0  0  0  0  0  0
   -1.4412   -4.4061   -2.7670 C   0  0  0  0  0  0  0  0  0  0  0  0
   -2.1532   -2.9016    0.5171 C   0  0  0  0  0  0  0  0  0  0  0  0
    1.1265   -4.7340   -1.4787 C   0  0  0  0  0  0  0  0  0  0  0  0
  1  2  2  0
  1  3  2  0
  1  4  1  0
  4  5  1  0
  1  6  1  0
  6  7  2  0
  7  8  1  0
  8  9  2  0
  9 10  1  0
 10 11  2  0
 11  6  1  0
  9 12  1  0
 12 13  1  0
 13 14  1  0
 14 15  2  0
 15 16  1  0
 12 16  2  0
 15 17  1  0
 17 18  1  0
 18 19  2  0
 19 20  1  0
 20 21  1  0
 17 21  2  0
 20 22  1  0
 22 23  1  0
 23 24  1  0
 24 25  2  0
 24 26  1  0
 26 27  1  0
 27 28  2  0
 28 29  1  0
 29 30  2  0
 30 31  1  0
 31 32  2  0
 32 27  1  0
 28 33  1  0
 23 33  2  0
 26 34  1  0
M  END
$$$$
m_274972____12934192____12615770____16922018
     RDKit          3D

 31 35  0  0  0  0  0  0  0  0999 V2000
    0.4648    3.7275    2.5286 S   0  0  0  0  0  0  0  0  0  0  0  0
   -0.5203    2.9301    3.2123 O   0  0  0  0  0  0  0  0  0  0  0  0
    0.6237    4.9846    3.2127 O   0  0  0  0  0  0  0  0  0  0  0  0
   -0.0241    4.0000    0.9977 N   0  0  0  0  0  0  0  0  0  0  0  0
    0.9815    4.8140    0.2998 C   0  0  0  0  0  0  0  0  0  0  0  0
    1.9848    2.8811    2.5100 C   0  0  0  0  0  0  0  0  0  0  0  0
    3.1740    3.6024    2.5029 C   0  0  0  0  0  0  0  0  0  0  0  0
    4.3836    2.9156    2.4883 C   0  0  0  0  0  0  0  0  0  0  0  0
    4.3937    1.5243    2.4800 C   0  0  0  0  0  0  0  0  0  0  0  0
    3.2017    0.8072    2.4872 C   0  0  0  0  0  0  0  0  0  0  0  0
    1.9898    1.4900    2.5021 C   0  0  0  0  0  0  0  0  0  0  0  0
    5.6630    0.8199    2.4636 C   0  0  0  0  0  0  0  0  0  0  0  0
    5.8598   -0.8692    2.4518 S   0  0  0  0  0  0  0  0  0  0  0  0
    7.5630   -0.8704    2.4327 C   0  0  0  0  0  0  0  0  0  0  0  0
    7.8952    0.4511    2.4332 C   0  0  0  0  0  0  0  0  0  0  0  0
    6.8653    1.3505    2.4501 N   0  0  0  0  0  0  0  0  0  0  0  0
    9.3014    0.8073    2.4258 C   0  0  0  0  0  0  0  0  0  0  0  0
   10.3504   -0.0619    2.4182 N   0  0  0  0  0  0  0  0  0  0  0  0
   11.4158    0.6157    2.4138 N   0  0  0  0  0  0  0  0  0  0  0  0
   11.1544    1.9000    2.4122 N   0  0  0  0  0  0  0  0  0  0  0  0
   12.1071    2.9252    2.4052 C   0  0  0  0  0  0  0  0  0  0  0  0
   12.7560    3.3543    1.3491 N   0  0  0  0  0  0  0  0  0  0  0  0
   13.5963    4.3556    1.7408 C   0  0  0  0  0  0  0  0  0  0  0  0
   13.4510    4.5453    3.0931 C   0  0  0  0  0  0  0  0  0  0  0  0
   12.5134    3.6395    3.4898 N   0  0  0  0  0  0  0  0  0  0  0  0
   12.0193    3.4572    4.8629 C   0  0  0  0  0  0  0  0  0  0  0  0
   14.2047    5.5196    3.7399 C   0  0  0  0  0  0  0  0  0  0  0  0
   15.1089    6.3102    3.0390 C   0  0  0  0  0  0  0  0  0  0  0  0
   15.2566    6.1181    1.6694 C   0  0  0  0  0  0  0  0  0  0  0  0
   14.4983    5.1416    1.0311 C   0  0  0  0  0  0  0  0  0  0  0  0
    9.8052    2.0687    2.4191 C   0  0  0  0  0  0  0  0  0  0  0  0
  1  2  2  0
  1  3  2  0
  1  4  1  0
  4  5  1  0
  1  6  1  0
  6  7  2  0
  7  8  1  0
  8  9  2  0
  9 10  1  0
 10 11  2  0
 11  6  1  0
  9 12  1  0
 12 13  1  0
 13 14  1  0
 14 15  2  0
 15 16  1  0
 12 16  2  0
 15 17  1  0
 17 18  1  0
 18 19  2  0
 19 20  1  0
 20 21  1  0
 21 22  2  0
 22 23  1  0
 23 24  2  0
 24 25  1  0
 25 21  1  0
 25 26  1  0
 24 27  1  0
 27 28  2  0
 28 29  1  0
 29 30  2  0
 30 23  1  0
 20 31  1  0
 17 31  2  0
M  END
$$$$
m_274972____12934192____12615770____14472232
     RDKit          3D

 32 36  0  0  0  0  0  0  0  0999 V2000
   10.1548    1.6771    2.3673 S   0  0  0  0  0  0  0  0  0  0  0  0
   10.7321    2.8155    3.0339 O   0  0  0  0  0  0  0  0  0  0  0  0
   10.5568    0.4705    3.0426 O   0  0  0  0  0  0  0  0  0  0  0  0
   10.6715    1.6327    0.8220 N   0  0  0  0  0  0  0  0  0  0  0  0
   10.0821    0.4706    0.1414 C   0  0  0  0  0  0  0  0  0  0  0  0
    8.4200    1.8069    2.3952 C   0  0  0  0  0  0  0  0  0  0  0  0
    7.6437    0.6529    2.4108 C   0  0  0  0  0  0  0  0  0  0  0  0
    6.2577    0.7683    2.4333 C   0  0  0  0  0  0  0  0  0  0  0  0
    5.6642    2.0267    2.4390 C   0  0  0  0  0  0  0  0  0  0  0  0
    6.4448    3.1781    2.4235 C   0  0  0  0  0  0  0  0  0  0  0  0
    7.8313    3.0673    2.4012 C   0  0  0  0  0  0  0  0  0  0  0  0
    4.2182    2.1329    2.4615 C   0  0  0  0  0  0  0  0  0  0  0  0
    3.3303    3.5831    2.4714 S   0  0  0  0  0  0  0  0  0  0  0  0
    1.7841    2.8690    2.4950 C   0  0  0  0  0  0  0  0  0  0  0  0
    2.0375    1.5302    2.4908 C   0  0  0  0  0  0  0  0  0  0  0  0
    3.3498    1.1464    2.4729 N   0  0  0  0  0  0  0  0  0  0  0  0
    0.9118    0.6170    2.5150 C   0  0  0  0  0  0  0  0  0  0  0  0
   -0.4027    0.9693    2.5423 N   0  0  0  0  0  0  0  0  0  0  0  0
   -1.0789   -0.0973    2.5583 N   0  0  0  0  0  0  0  0  0  0  0  0
   -0.3063   -1.1555    2.5452 N   0  0  0  0  0  0  0  0  0  0  0  0
    0.9870   -0.7420    2.5184 C   0  0  0  0  0  0  0  0  0  0  0  0
   -0.7636   -2.5524    2.5593 C   0  0  0  0  0  0  0  0  0  0  0  0
   -0.2679   -3.2591    1.3124 C   0  0  0  0  0  0  0  0  0  0  0  0
   -0.7812   -3.1072   -0.0071 C   0  0  0  0  0  0  0  0  0  0  0  0
   -0.1257   -3.8784   -0.9418 C   0  0  0  0  0  0  0  0  0  0  0  0
    1.0785   -4.7311   -0.0903 S   0  0  0  0  0  0  0  0  0  0  0  0
    0.7722   -4.1205    1.4705 C   0  0  0  0  0  0  0  0  0  0  0  0
   -0.3918   -3.9503   -2.3009 C   0  0  0  0  0  0  0  0  0  0  0  0
   -1.4297   -3.1566   -2.7655 C   0  0  0  0  0  0  0  0  0  0  0  0
   -2.1372   -2.3512   -1.8783 C   0  0  0  0  0  0  0  0  0  0  0  0
   -1.8132   -2.3325   -0.5257 C   0  0  0  0  0  0  0  0  0  0  0  0
   -0.2140   -3.2530    3.7911 C   0  0  0  0  0  0  0  0  0  0  0  0
  1  2  2  0
  1  3  2  0
  1  4  1  0
  4  5  1  0
  1  6  1  0
  6  7  2  0
  7  8  1  0
  8  9  2  0
  9 10  1  0
 10 11  2  0
 11  6  1  0
  9 12  1  0
 12 13  1  0
 13 14  1  0
 14 15  2  0
 15 16  1  0
 12 16  2  0
 15 17  1  0
 17 18  1  0
 18 19  2  0
 19 20  1  0
 20 21  1  0
 17 21  2  0
 20 22  1  0
 22 23  1  0
 23 24  1  0
 24 25  2  0
 25 26  1  0
 26 27  1  0
 23 27  2  0
 25 28  1  0
 28 29  2  0
 29 30  1  0
 30 31  2  0
 31 24  1  0
 22 32  1  0
M  END
$$$$
m_276096____13709592____16895042
     RDKit          3D

 35 39  0  0  0  0  0  0  0  0999 V2000
    8.8343    5.3048    3.3042 S   0  0  0  0  0  0  0  0  0  0  0  0
    9.9943    5.1651    2.4625 O   0  0  0  0  0  0  0  0  0  0  0  0
    8.3711    6.6675    3.2608 O   0  0  0  0  0  0  0  0  0  0  0  0
    9.2250    4.9123    4.8373 N   0  0  0  0  0  0  0  0  0  0  0  0
    8.0408    5.0549    5.6965 C   0  0  0  0  0  0  0  0  0  0  0  0
    7.5755    4.2459    2.7373 C   0  0  0  0  0  0  0  0  0  0  0  0
    6.2433    4.5994    2.9233 C   0  0  0  0  0  0  0  0  0  0  0  0
    5.2450    3.7456    2.4660 C   0  0  0  0  0  0  0  0  0  0  0  0
    5.5845    2.5544    1.8322 C   0  0  0  0  0  0  0  0  0  0  0  0
    6.9185    2.2051    1.6483 C   0  0  0  0  0  0  0  0  0  0  0  0
    7.9201    3.0562    2.1039 C   0  0  0  0  0  0  0  0  0  0  0  0
    4.5340    1.6728    1.3612 C   0  0  0  0  0  0  0  0  0  0  0  0
    3.1928    1.9183    1.4899 N   0  0  0  0  0  0  0  0  0  0  0  0
    2.3983    1.0000    1.0000 C   0  0  0  0  0  0  0  0  0  0  0  0
    3.4065   -0.2152    0.3650 S   0  0  0  0  0  0  0  0  0  0  0  0
    4.8961    0.5148    0.7506 C   0  0  0  0  0  0  0  0  0  0  0  0
    1.0000    1.0000    1.0000 N   0  0  0  0  0  0  0  0  0  0  0  0
    0.2650    2.1283    1.5896 C   0  0  0  0  0  0  0  0  0  0  0  0
    0.0117    3.1810    0.5227 C   0  0  0  0  0  0  0  0  0  0  0  0
   -1.0350    3.2430   -0.2623 O   0  0  0  0  0  0  0  0  0  0  0  0
   -0.9484    4.2386   -1.0427 N   0  0  0  0  0  0  0  0  0  0  0  0
    0.1613    4.8967   -0.8206 C   0  0  0  0  0  0  0  0  0  0  0  0
    0.6133    6.0906   -1.5119 C   0  0  0  0  0  0  0  0  0  0  0  0
    0.2351    7.3247   -0.9931 C   0  0  0  0  0  0  0  0  0  0  0  0
   -0.5274    7.4096    0.1178 O   0  0  0  0  0  0  0  0  0  0  0  0
   -0.9001    8.6815    0.6276 C   0  0  0  0  0  0  0  0  0  0  0  0
    0.6372    8.5017   -1.6141 C   0  0  0  0  0  0  0  0  0  0  0  0
    1.4225    8.4494   -2.7596 C   0  0  0  0  0  0  0  0  0  0  0  0
    1.8060    7.2206   -3.2840 C   0  0  0  0  0  0  0  0  0  0  0  0
    1.4021    6.0425   -2.6610 C   0  0  0  0  0  0  0  0  0  0  0  0
    1.8096    4.8353   -3.2236 C   0  0  0  0  0  0  0  0  0  0  0  0
    2.5954    4.7843   -4.3696 C   0  0  0  0  0  0  0  0  0  0  0  0
    2.9816    5.9795   -4.9671 C   0  0  0  0  0  0  0  0  0  0  0  0
    2.5918    7.2027   -4.4316 C   0  0  0  0  0  0  0  0  0  0  0  0
    0.8310    4.2228    0.2191 C   0  0  0  0  0  0  0  0  0  0  0  0
  1  2  2  0
  1  3  2  0
  1  4  1  0
  4  5  1  0
  1  6  1  0
  6  7  2  0
  7  8  1  0
  8  9  2  0
  9 10  1  0
 10 11  2  0
 11  6  1  0
  9 12  1  0
 12 13  1  0
 13 14  2  0
 14 15  1  0
 15 16  1  0
 12 16  2  0
 14 17  1  0
 17 18  1  0
 18 19  1  0
 19 20  1  0
 20 21  1  0
 21 22  2  0
 22 23  1  0
 23 24  2  0
 24 25  1  0
 25 26  1  0
 24 27  1  0
 27 28  2  0
 28 29  1  0
 29 30  2  0
 30 23  1  0
 30 31  1  0
 31 32  2  0
 32 33  1  0
 33 34  2  0
 34 29  1  0
 22 35  1  0
 19 35  2  0
M  END
$$$$
m_274972____12934254____12615770____13046748
     RDKit          3D

 32 36  0  0  0  0  0  0  0  0999 V2000
    0.4035    3.7616    2.5294 S   0  0  0  0  0  0  0  0  0  0  0  0
   -0.5815    2.9642    3.2130 O   0  0  0  0  0  0  0  0  0  0  0  0
    0.5624    5.0187    3.2135 O   0  0  0  0  0  0  0  0  0  0  0  0
   -0.0853    4.0341    0.9985 N   0  0  0  0  0  0  0  0  0  0  0  0
   -1.3696    4.7492    1.0142 C   0  0  0  0  0  0  0  0  0  0  0  0
    0.9202    4.8481    0.3005 C   0  0  0  0  0  0  0  0  0  0  0  0
    1.9848    2.8811    2.5100 C   0  0  0  0  0  0  0  0  0  0  0  0
    3.1740    3.6024    2.5029 C   0  0  0  0  0  0  0  0  0  0  0  0
    4.3836    2.9156    2.4883 C   0  0  0  0  0  0  0  0  0  0  0  0
    4.3937    1.5243    2.4800 C   0  0  0  0  0  0  0  0  0  0  0  0
    3.2017    0.8072    2.4872 C   0  0  0  0  0  0  0  0  0  0  0  0
    1.9898    1.4900    2.5021 C   0  0  0  0  0  0  0  0  0  0  0  0
    5.6630    0.8199    2.4636 C   0  0  0  0  0  0  0  0  0  0  0  0
    5.8598   -0.8692    2.4518 S   0  0  0  0  0  0  0  0  0  0  0  0
    7.5630   -0.8704    2.4327 C   0  0  0  0  0  0  0  0  0  0  0  0
    7.8952    0.4511    2.4332 C   0  0  0  0  0  0  0  0  0  0  0  0
    6.8653    1.3505    2.4501 N   0  0  0  0  0  0  0  0  0  0  0  0
    9.3004    0.8070    2.4258 C   0  0  0  0  0  0  0  0  0  0  0  0
   10.3458   -0.0647    2.4091 N   0  0  0  0  0  0  0  0  0  0  0  0
   11.4075    0.6193    2.4085 N   0  0  0  0  0  0  0  0  0  0  0  0
   11.1507    1.9040    2.4255 N   0  0  0  0  0  0  0  0  0  0  0  0
    9.8031    2.0719    2.4383 C   0  0  0  0  0  0  0  0  0  0  0  0
   12.1526    2.9796    2.4317 C   0  0  0  0  0  0  0  0  0  0  0  0
   12.4886    3.3675    1.0006 C   0  0  0  0  0  0  0  0  0  0  0  0
   11.8515    4.3263    0.2686 N   0  0  0  0  0  0  0  0  0  0  0  0
   12.4229    4.3714   -0.9123 C   0  0  0  0  0  0  0  0  0  0  0  0
   13.4224    3.4579   -0.9642 N   0  0  0  0  0  0  0  0  0  0  0  0
   13.4730    2.8172    0.2381 C   0  0  0  0  0  0  0  0  0  0  0  0
   14.1772    3.3061   -2.0988 C   0  0  0  0  0  0  0  0  0  0  0  0
   13.9321    4.0793   -3.2043 C   0  0  0  0  0  0  0  0  0  0  0  0
   12.8905    5.0456   -3.1788 C   0  0  0  0  0  0  0  0  0  0  0  0
   12.1424    5.1875   -2.0396 C   0  0  0  0  0  0  0  0  0  0  0  0
  1  2  2  0
  1  3  2  0
  1  4  1  0
  4  5  1  0
  4  6  1  0
  1  7  1  0
  7  8  2  0
  8  9  1  0
  9 10  2  0
 10 11  1  0
 11 12  2  0
 12  7  1  0
 10 13  1  0
 13 14  1  0
 14 15  1  0
 15 16  2  0
 16 17  1  0
 13 17  2  0
 16 18  1  0
 18 19  1  0
 19 20  2  0
 20 21  1  0
 21 22  1  0
 18 22  2  0
 21 23  1  0
 23 24  1  0
 24 25  1  0
 25 26  2  0
 26 27  1  0
 27 28  1  0
 24 28  2  0
 27 29  1  0
 29 30  2  0
 30 31  1  0
 31 32  2  0
 32 26  1  0
M  END
$$$$
m_274972____12933802____12615770____13047176
     RDKit          3D

 29 33  0  0  0  0  0  0  0  0999 V2000
    5.9272    3.4726    5.8718 S   0  0  0  0  0  0  0  0  0  0  0  0
    5.8615    1.7774    5.7349 C   0  0  0  0  0  0  0  0  0  0  0  0
    4.9454    1.5162    4.8365 N   0  0  0  0  0  0  0  0  0  0  0  0
    4.3318    2.6068    4.2800 C   0  0  0  0  0  0  0  0  0  0  0  0
    3.2991    2.5453    3.2760 C   0  0  0  0  0  0  0  0  0  0  0  0
    2.6732    3.6115    2.7067 N   0  0  0  0  0  0  0  0  0  0  0  0
    1.8344    3.1585    1.8782 N   0  0  0  0  0  0  0  0  0  0  0  0
    1.8486    1.8486    1.8486 N   0  0  0  0  0  0  0  0  0  0  0  0
    2.7783    1.4096    2.7359 C   0  0  0  0  0  0  0  0  0  0  0  0
    1.0000    1.0000    1.0000 C   0  0  0  0  0  0  0  0  0  0  0  0
    1.7036    0.7415   -0.3229 C   0  0  0  0  0  0  0  0  0  0  0  0
    2.5598   -0.3837   -0.4642 C   0  0  0  0  0  0  0  0  0  0  0  0
    2.7148   -1.1170    0.4729 O   0  0  0  0  0  0  0  0  0  0  0  0
    3.1909   -0.6102   -1.6607 N   0  0  0  0  0  0  0  0  0  0  0  0
    3.0040    0.2394   -2.7261 C   0  0  0  0  0  0  0  0  0  0  0  0
    2.1694    1.3479   -2.6122 C   0  0  0  0  0  0  0  0  0  0  0  0
    1.9605    2.2260   -3.6702 C   0  0  0  0  0  0  0  0  0  0  0  0
    2.6062    1.9857   -4.8784 C   0  0  0  0  0  0  0  0  0  0  0  0
    3.4477    0.8892   -5.0327 C   0  0  0  0  0  0  0  0  0  0  0  0
    3.6324    0.0336   -3.9523 C   0  0  0  0  0  0  0  0  0  0  0  0
    1.5115    1.5935   -1.3786 C   0  0  0  0  0  0  0  0  0  0  0  0
    4.0646   -1.7890   -1.7496 C   0  0  0  0  0  0  0  0  0  0  0  0
    4.7290    3.8305    4.7155 C   0  0  0  0  0  0  0  0  0  0  0  0
    6.6334    0.8569    6.4536 N   0  0  0  0  0  0  0  0  0  0  0  0
    6.4474   -0.5820    6.2095 C   0  0  0  0  0  0  0  0  0  0  0  0
    7.7554   -1.3381    6.3847 C   0  0  0  0  0  0  0  0  0  0  0  0
    8.4315   -0.9402    7.5706 O   0  0  0  0  0  0  0  0  0  0  0  0
    8.8293    0.4222    7.4898 C   0  0  0  0  0  0  0  0  0  0  0  0
    7.6277    1.3521    7.4176 C   0  0  0  0  0  0  0  0  0  0  0  0
  1  2  1  0
  2  3  2  0
  3  4  1  0
  4  5  1  0
  5  6  1  0
  6  7  2  0
  7  8  1  0
  8  9  1  0
  5  9  2  0
  8 10  1  0
 10 11  1  0
 11 12  1  0
 12 13  2  0
 12 14  1  0
 14 15  1  0
 15 16  2  0
 16 17  1  0
 17 18  2  0
 18 19  1  0
 19 20  2  0
 20 15  1  0
 16 21  1  0
 11 21  2  0
 14 22  1  0
  4 23  2  0
 23  1  1  0
  2 24  1  0
 24 25  1  0
 25 26  1  0
 26 27  1  0
 27 28  1  0
 28 29  1  0
 29 24  1  0
M  END
$$$$
s_1458____478402____480860
     RDKit          3D

 35 39  0  0  0  0  0  0  0  0999 V2000
    2.0433    6.9642   10.6184 Br  0  0  0  0  0  0  0  0  0  0  0  0
    2.5077    5.8987    9.0403 C   0  0  0  0  0  0  0  0  0  0  0  0
    3.8195    5.8888    8.5767 C   0  0  0  0  0  0  0  0  0  0  0  0
    4.1450    5.1323    7.4558 C   0  0  0  0  0  0  0  0  0  0  0  0
    3.1561    4.3951    6.8122 C   0  0  0  0  0  0  0  0  0  0  0  0
    1.8465    4.4081    7.2793 C   0  0  0  0  0  0  0  0  0  0  0  0
    1.5149    5.1635    8.3998 C   0  0  0  0  0  0  0  0  0  0  0  0
    3.4994    3.6082    5.6440 C   0  0  0  0  0  0  0  0  0  0  0  0
    2.6148    2.8448    4.9296 N   0  0  0  0  0  0  0  0  0  0  0  0
    3.1170    2.2050    3.9035 C   0  0  0  0  0  0  0  0  0  0  0  0
    4.7742    2.5909    3.8640 S   0  0  0  0  0  0  0  0  0  0  0  0
    4.7904    3.6186    5.2219 C   0  0  0  0  0  0  0  0  0  0  0  0
    2.4413    1.3627    3.0152 N   0  0  0  0  0  0  0  0  0  0  0  0
    1.8776    1.8776    1.8776 C   0  0  0  0  0  0  0  0  0  0  0  0
    2.0766    3.0213    1.5740 O   0  0  0  0  0  0  0  0  0  0  0  0
    1.0000    1.0000    1.0000 C   0  0  0  0  0  0  0  0  0  0  0  0
    0.7267    1.6734   -0.2199 O   0  0  0  0  0  0  0  0  0  0  0  0
   -0.0169    1.0991   -1.1328 C   0  0  0  0  0  0  0  0  0  0  0  0
   -0.4671    0.0039   -0.9381 O   0  0  0  0  0  0  0  0  0  0  0  0
   -0.2959    1.7867   -2.3786 C   0  0  0  0  0  0  0  0  0  0  0  0
   -1.0847    1.2539   -3.4233 C   0  0  0  0  0  0  0  0  0  0  0  0
   -1.0776    2.2377   -4.3915 C   0  0  0  0  0  0  0  0  0  0  0  0
   -0.3330    3.2979   -3.9536 N   0  0  0  0  0  0  0  0  0  0  0  0
    0.1547    3.0290   -2.7104 C   0  0  0  0  0  0  0  0  0  0  0  0
   -0.0853    4.5410   -4.6993 C   0  0  0  0  0  0  0  0  0  0  0  0
   -1.7650    2.0435   -5.5852 C   0  0  0  0  0  0  0  0  0  0  0  0
   -2.4681    0.8695   -5.8232 C   0  0  0  0  0  0  0  0  0  0  0  0
   -2.4860   -0.1267   -4.8527 C   0  0  0  0  0  0  0  0  0  0  0  0
   -1.7923    0.0780   -3.6653 C   0  0  0  0  0  0  0  0  0  0  0  0
    2.3357   -0.0751    3.3019 C   0  0  0  0  0  0  0  0  0  0  0  0
    3.6076   -0.7754    2.8546 C   0  0  0  0  0  0  0  0  0  0  0  0
    3.7477   -0.6942    1.4498 O   0  0  0  0  0  0  0  0  0  0  0  0
    4.6826   -1.7021    1.0891 C   0  0  0  0  0  0  0  0  0  0  0  0
    4.5772   -2.7771    2.1529 C   0  0  0  0  0  0  0  0  0  0  0  0
    3.4967   -2.2653    3.0860 C   0  0  0  0  0  0  0  0  0  0  0  0
  1  2  1  0
  2  3  2  0
  3  4  1  0
  4  5  2  0
  5  6  1  0
  6  7  2  0
  7  2  1  0
  5  8  1  0
  8  9  1  0
  9 10  2  0
 10 11  1  0
 11 12  1  0
  8 12  2  0
 10 13  1  0
 13 14  1  0
 14 15  2  0
 14 16  1  0
 16 17  1  0
 17 18  1  0
 18 19  2  0
 18 20  1  0
 20 21  1  0
 21 22  2  0
 22 23  1  0
 23 24  1  0
 20 24  2  0
 23 25  1  0
 22 26  1  0
 26 27  2  0
 27 28  1  0
 28 29  2  0
 29 21  1  0
 13 30  1  0
 30 31  1  0
 31 32  1  0
 32 33  1  0
 33 34  1  0
 34 35  1  0
 35 31  1  0
M  END
$$$$
s_2____11687950____16645038____10744010
     RDKit          3D

 38 42  0  0  0  0  0  0  0  0999 V2000
   -1.9513    6.0842    0.4460 S   0  0  0  0  0  0  0  0  0  0  0  0
   -1.1728    7.0069   -0.3390 O   0  0  0  0  0  0  0  0  0  0  0  0
   -3.2098    5.8392   -0.2095 O   0  0  0  0  0  0  0  0  0  0  0  0
   -2.2222    6.7207    1.9220 N   0  0  0  0  0  0  0  0  0  0  0  0
   -1.0821    4.5864    0.6111 C   0  0  0  0  0  0  0  0  0  0  0  0
   -0.7377    4.1262    1.8777 C   0  0  0  0  0  0  0  0  0  0  0  0
   -0.0423    2.9284    2.0032 C   0  0  0  0  0  0  0  0  0  0  0  0
    0.2999    2.2052    0.8655 C   0  0  0  0  0  0  0  0  0  0  0  0
    1.0000    1.0000    1.0000 N   0  0  0  0  0  0  0  0  0  0  0  0
    2.2727    1.0000    1.0000 C   0  0  0  0  0  0  0  0  0  0  0  0
    3.2932    2.2218    0.3944 S   0  0  0  0  0  0  0  0  0  0  0  0
    4.7811    1.4716    0.7594 C   0  0  0  0  0  0  0  0  0  0  0  0
    4.4252    0.2929    1.3410 C   0  0  0  0  0  0  0  0  0  0  0  0
    3.0922    0.0268    1.4798 N   0  0  0  0  0  0  0  0  0  0  0  0
    2.5420   -1.1973    2.0819 C   0  0  0  0  0  0  0  0  0  0  0  0
    2.1572   -2.2311    1.0351 C   0  0  0  0  0  0  0  0  0  0  0  0
    3.1763   -2.4778    0.2163 F   0  0  0  0  0  0  0  0  0  0  0  0
    1.1262   -1.8387    0.2797 F   0  0  0  0  0  0  0  0  0  0  0  0
    1.8633   -3.5000    1.8237 C   0  0  0  0  0  0  0  0  0  0  0  0
    1.0582   -3.2107    3.0797 C   0  0  0  0  0  0  0  0  0  0  0  0
    0.4092   -1.9410    3.0620 O   0  0  0  0  0  0  0  0  0  0  0  0
    1.3177   -0.8514    2.9177 C   0  0  0  0  0  0  0  0  0  0  0  0
    5.4808   -0.5996    1.7731 C   0  0  0  0  0  0  0  0  0  0  0  0
    5.9403   -0.7409    3.0440 C   0  0  0  0  0  0  0  0  0  0  0  0
    6.9279   -1.6760    3.0286 N   0  0  0  0  0  0  0  0  0  0  0  0
    7.6580   -2.1078    4.1424 C   0  0  0  0  0  0  0  0  0  0  0  0
    8.6842   -1.3947    4.6336 N   0  0  0  0  0  0  0  0  0  0  0  0
    9.3836   -1.8094    5.7003 C   0  0  0  0  0  0  0  0  0  0  0  0
    9.0654   -3.0036    6.3394 C   0  0  0  0  0  0  0  0  0  0  0  0
    9.7434   -3.4367    7.3998 F   0  0  0  0  0  0  0  0  0  0  0  0
    8.0058   -3.7558    5.8453 C   0  0  0  0  0  0  0  0  0  0  0  0
    7.2922   -3.3103    4.7370 C   0  0  0  0  0  0  0  0  0  0  0  0
    7.0914   -2.1222    1.7533 C   0  0  0  0  0  0  0  0  0  0  0  0
    6.2098   -1.4771    0.9413 C   0  0  0  0  0  0  0  0  0  0  0  0
    8.0946   -3.1724    1.3036 C   0  0  0  0  0  0  0  0  0  0  0  0
    5.4381    0.0099    4.2673 C   0  0  0  0  0  0  0  0  0  0  0  0
   -0.0472    2.6709   -0.3977 C   0  0  0  0  0  0  0  0  0  0  0  0
   -0.7424    3.8680   -0.5304 C   0  0  0  0  0  0  0  0  0  0  0  0
  1  2  2  0
  1  3  2  0
  1  4  1  0
  1  5  1  0
  5  6  2  0
  6  7  1  0
  7  8  2  0
  8  9  1  0
  9 10  2  0
 10 11  1  0
 11 12  1  0
 12 13  2  0
 13 14  1  0
 14 10  1  0
 14 15  1  0
 15 16  1  0
 16 17  1  0
 16 18  1  0
 16 19  1  0
 19 20  1  0
 20 21  1  0
 21 22  1  0
 22 15  1  0
 13 23  1  0
 23 24  2  0
 24 25  1  0
 25 26  1  0
 26 27  2  0
 27 28  1  0
 28 29  2  0
 29 30  1  0
 29 31  1  0
 31 32  2  0
 32 26  1  0
 25 33  1  0
 33 34  2  0
 34 23  1  0
 33 35  1  0
 24 36  1  0
  8 37  1  0
 37 38  2  0
 38  5  1  0
M  END
$$$$
s_2____11687950____16645038____6815526
     RDKit          3D

 36 40  0  0  0  0  0  0  0  0999 V2000
    8.8234    6.6324    4.0978 S   0  0  0  0  0  0  0  0  0  0  0  0
    8.0202    7.5568    4.8555 O   0  0  0  0  0  0  0  0  0  0  0  0
    9.9187    6.1702    4.9104 O   0  0  0  0  0  0  0  0  0  0  0  0
    9.4078    7.3800    2.7725 N   0  0  0  0  0  0  0  0  0  0  0  0
    7.8467    5.2761    3.6152 C   0  0  0  0  0  0  0  0  0  0  0  0
    7.4230    4.3582    4.5705 C   0  0  0  0  0  0  0  0  0  0  0  0
    6.6430    3.2756    4.1785 C   0  0  0  0  0  0  0  0  0  0  0  0
    6.2951    3.1226    2.8406 C   0  0  0  0  0  0  0  0  0  0  0  0
    5.5094    2.0301    2.4537 N   0  0  0  0  0  0  0  0  0  0  0  0
    4.2406    2.1295    2.4468 C   0  0  0  0  0  0  0  0  0  0  0  0
    3.3299    3.5681    2.4036 S   0  0  0  0  0  0  0  0  0  0  0  0
    1.7813    2.8529    2.4247 C   0  0  0  0  0  0  0  0  0  0  0  0
    2.0334    1.5154    2.4653 C   0  0  0  0  0  0  0  0  0  0  0  0
    3.3388    1.1121    2.4746 N   0  0  0  0  0  0  0  0  0  0  0  0
    3.7809   -0.2906    2.5193 C   0  0  0  0  0  0  0  0  0  0  0  0
    4.1325   -0.8207    1.1397 C   0  0  0  0  0  0  0  0  0  0  0  0
    3.1162   -0.6567    0.2979 F   0  0  0  0  0  0  0  0  0  0  0  0
    5.2010   -0.2239    0.6156 F   0  0  0  0  0  0  0  0  0  0  0  0
    4.3331   -2.3159    1.3260 C   0  0  0  0  0  0  0  0  0  0  0  0
    5.0627   -2.6205    2.6295 C   0  0  0  0  0  0  0  0  0  0  0  0
    5.7936   -1.5213    3.1683 O   0  0  0  0  0  0  0  0  0  0  0  0
    4.9771   -0.3940    3.4574 C   0  0  0  0  0  0  0  0  0  0  0  0
    0.9034    0.6099    2.4960 C   0  0  0  0  0  0  0  0  0  0  0  0
    0.9647   -0.7504    2.5378 N   0  0  0  0  0  0  0  0  0  0  0  0
   -0.2181   -1.1918    2.5539 N   0  0  0  0  0  0  0  0  0  0  0  0
   -1.0854   -0.2094    2.5313 N   0  0  0  0  0  0  0  0  0  0  0  0
   -2.4778   -0.3514    2.5426 C   0  0  0  0  0  0  0  0  0  0  0  0
   -3.2831    0.7823    2.5155 C   0  0  0  0  0  0  0  0  0  0  0  0
   -4.6654    0.6286    2.5274 C   0  0  0  0  0  0  0  0  0  0  0  0
   -5.2439   -0.6356    2.5661 C   0  0  0  0  0  0  0  0  0  0  0  0
   -4.4181   -1.7551    2.5924 C   0  0  0  0  0  0  0  0  0  0  0  0
   -3.0336   -1.6255    2.5811 C   0  0  0  0  0  0  0  0  0  0  0  0
   -5.5510    1.8638    2.4983 C   0  0  0  0  0  0  0  0  0  0  0  0
   -0.4068    0.9683    2.4944 C   0  0  0  0  0  0  0  0  0  0  0  0
    6.7221    4.0437    1.8906 C   0  0  0  0  0  0  0  0  0  0  0  0
    7.5026    5.1284    2.2758 C   0  0  0  0  0  0  0  0  0  0  0  0
  1  2  2  0
  1  3  2  0
  1  4  1  0
  1  5  1  0
  5  6  2  0
  6  7  1  0
  7  8  2  0
  8  9  1  0
  9 10  2  0
 10 11  1  0
 11 12  1  0
 12 13  2  0
 13 14  1  0
 14 10  1  0
 14 15  1  0
 15 16  1  0
 16 17  1  0
 16 18  1  0
 16 19  1  0
 19 20  1  0
 20 21  1  0
 21 22  1  0
 22 15  1  0
 13 23  1  0
 23 24  1  0
 24 25  2  0
 25 26  1  0
 26 27  1  0
 27 28  2  0
 28 29  1  0
 29 30  2  0
 30 31  1  0
 31 32  2  0
 32 27  1  0
 29 33  1  0
 26 34  1  0
 23 34  2  0
  8 35  1  0
 35 36  2  0
 36  5  1  0
M  END
$$$$
s_1____86342____7594458____3124256
     RDKit          3D

 35 39  0  0  0  0  0  0  0  0999 V2000
   -0.2810    3.3352    3.7573 S   0  0  0  0  0  0  0  0  0  0  0  0
   -1.5443    3.9470    3.4359 O   0  0  0  0  0  0  0  0  0  0  0  0
   -0.4718    1.9241    3.9717 O   0  0  0  0  0  0  0  0  0  0  0  0
    0.7615    3.5615    2.5249 N   0  0  0  0  0  0  0  0  0  0  0  0
    1.9850    2.8822    2.5096 C   0  0  0  0  0  0  0  0  0  0  0  0
    3.1774    3.5986    2.4996 C   0  0  0  0  0  0  0  0  0  0  0  0
    4.3889    2.9151    2.4847 C   0  0  0  0  0  0  0  0  0  0  0  0
    4.3934    1.5238    2.4792 C   0  0  0  0  0  0  0  0  0  0  0  0
    3.2017    0.8073    2.4891 C   0  0  0  0  0  0  0  0  0  0  0  0
    1.9902    1.4907    2.5042 C   0  0  0  0  0  0  0  0  0  0  0  0
    5.6543    0.8247    2.4637 C   0  0  0  0  0  0  0  0  0  0  0  0
    5.9894   -0.1912    3.3227 N   0  0  0  0  0  0  0  0  0  0  0  0
    5.1838   -0.6667    4.2953 N   0  0  0  0  0  0  0  0  0  0  0  0
    5.2203   -0.1632    5.4388 C   0  0  0  0  0  0  0  0  0  0  0  0
    4.3536   -0.6749    6.4854 C   0  0  0  0  0  0  0  0  0  0  0  0
    4.3430   -0.1599    7.7825 C   0  0  0  0  0  0  0  0  0  0  0  0
    3.4812   -0.7028    8.7323 C   0  0  0  0  0  0  0  0  0  0  0  0
    2.6521   -1.7522    8.3478 C   0  0  0  0  0  0  0  0  0  0  0  0
    2.6799   -2.2321    7.0953 N   0  0  0  0  0  0  0  0  0  0  0  0
    3.5014   -1.7256    6.1636 C   0  0  0  0  0  0  0  0  0  0  0  0
    3.4423   -0.2142   10.0339 C   0  0  0  0  0  0  0  0  0  0  0  0
    4.2799    0.8366   10.3921 C   0  0  0  0  0  0  0  0  0  0  0  0
    5.1515    1.4013    9.4680 C   0  0  0  0  0  0  0  0  0  0  0  0
    5.1694    0.8921    8.1742 C   0  0  0  0  0  0  0  0  0  0  0  0
    7.2328   -0.7065    3.1260 C   0  0  0  0  0  0  0  0  0  0  0  0
    7.8923    0.1661    1.8195 S   0  0  0  0  0  0  0  0  0  0  0  0
    6.5717    1.2005    1.5325 C   0  0  0  0  0  0  0  0  0  0  0  0
    7.7914   -1.6405    3.7786 N   0  0  0  0  0  0  0  0  0  0  0  0
    9.1526   -2.0702    3.4277 C   0  0  0  0  0  0  0  0  0  0  0  0
   10.1609   -1.2567    4.2213 C   0  0  0  0  0  0  0  0  0  0  0  0
   11.4791   -1.6543    3.8987 O   0  0  0  0  0  0  0  0  0  0  0  0
   12.3029   -1.1772    4.9540 C   0  0  0  0  0  0  0  0  0  0  0  0
   11.4156   -1.0986    6.1808 C   0  0  0  0  0  0  0  0  0  0  0  0
   10.0686   -1.5949    5.6918 C   0  0  0  0  0  0  0  0  0  0  0  0
    0.3891    4.0886    5.2605 C   0  0  0  0  0  0  0  0  0  0  0  0
  1  2  2  0
  1  3  2  0
  1  4  1  0
  4  5  1  0
  5  6  2  0
  6  7  1  0
  7  8  2  0
  8  9  1  0
  9 10  2  0
 10  5  1  0
  8 11  1  0
 11 12  1  0
 12 13  1  0
 13 14  2  0
 14 15  1  0
 15 16  2  0
 16 17  1  0
 17 18  2  0
 18 19  1  0
 19 20  2  0
 20 15  1  0
 17 21  1  0
 21 22  2  0
 22 23  1  0
 23 24  2  0
 24 16  1  0
 12 25  1  0
 25 26  1  0
 26 27  1  0
 11 27  2  0
 25 28  2  0
 28 29  1  0
 29 30  1  0
 30 31  1  0
 31 32  1  0
 32 33  1  0
 33 34  1  0
 34 30  1  0
  1 35  1  0
M  END
$$$$
s_1458____472176____846626
     RDKit          3D

 40 43  0  0  0  0  0  0  0  0999 V2000
    2.4088   -3.9109    2.4410 S   0  0  0  0  0  0  0  0  0  0  0  0
    3.0243   -5.0314    3.1039 O   0  0  0  0  0  0  0  0  0  0  0  0
    1.1969   -3.5517    3.1308 O   0  0  0  0  0  0  0  0  0  0  0  0
    2.0582   -4.3159    0.9016 N   0  0  0  0  0  0  0  0  0  0  0  0
    1.1331   -5.4583    0.8940 C   0  0  0  0  0  0  0  0  0  0  0  0
    0.8061   -5.8360   -0.5415 C   0  0  0  0  0  0  0  0  0  0  0  0
    1.4299   -3.1721    0.2249 C   0  0  0  0  0  0  0  0  0  0  0  0
    1.1029   -3.5499   -1.2106 C   0  0  0  0  0  0  0  0  0  0  0  0
    3.5479   -2.5043    2.4503 C   0  0  0  0  0  0  0  0  0  0  0  0
    3.0413   -1.2092    2.4676 C   0  0  0  0  0  0  0  0  0  0  0  0
    3.9284   -0.1377    2.4741 C   0  0  0  0  0  0  0  0  0  0  0  0
    5.3034   -0.3486    2.4628 C   0  0  0  0  0  0  0  0  0  0  0  0
    5.7896   -1.6518    2.4457 C   0  0  0  0  0  0  0  0  0  0  0  0
    4.9196   -2.7371    2.4394 C   0  0  0  0  0  0  0  0  0  0  0  0
    3.4034    1.2140    2.4924 C   0  0  0  0  0  0  0  0  0  0  0  0
    4.1176    2.3111    2.5002 N   0  0  0  0  0  0  0  0  0  0  0  0
    3.2807    3.3236    2.5197 N   0  0  0  0  0  0  0  0  0  0  0  0
    2.0360    2.9153    2.5288 C   0  0  0  0  0  0  0  0  0  0  0  0
    0.5487    3.9464    2.5554 S   0  0  0  0  0  0  0  0  0  0  0  0
   -0.7026    2.6386    2.5553 C   0  0  0  0  0  0  0  0  0  0  0  0
   -1.0375    2.2577    3.9882 C   0  0  0  0  0  0  0  0  0  0  0  0
   -0.4189    1.3890    4.5383 O   0  0  0  0  0  0  0  0  0  0  0  0
   -2.0015    2.8778    4.6225 O   0  0  0  0  0  0  0  0  0  0  0  0
   -2.3143    2.5220    5.9611 C   0  0  0  0  0  0  0  0  0  0  0  0
   -1.4860    3.3672    6.9174 C   0  0  0  0  0  0  0  0  0  0  0  0
   -1.9219    4.5500    7.3815 N   0  0  0  0  0  0  0  0  0  0  0  0
   -1.1970    5.3017    8.2263 C   0  0  0  0  0  0  0  0  0  0  0  0
    0.0534    4.8615    8.6506 C   0  0  0  0  0  0  0  0  0  0  0  0
    0.5281    3.6402    8.1850 C   0  0  0  0  0  0  0  0  0  0  0  0
   -0.2433    2.8819    7.3109 C   0  0  0  0  0  0  0  0  0  0  0  0
    0.8283    5.6167    9.5247 C   0  0  0  0  0  0  0  0  0  0  0  0
    0.3364    6.8358    9.9792 C   0  0  0  0  0  0  0  0  0  0  0  0
   -0.9100    7.2987    9.5706 C   0  0  0  0  0  0  0  0  0  0  0  0
   -1.6661    6.5248    8.6960 C   0  0  0  0  0  0  0  0  0  0  0  0
    2.0870    1.5594    2.5105 N   0  0  0  0  0  0  0  0  0  0  0  0
    0.9385    0.6419    2.5134 C   0  0  0  0  0  0  0  0  0  0  0  0
    0.5241    0.3444    1.0816 C   0  0  0  0  0  0  0  0  0  0  0  0
   -0.5854   -0.5419    1.0844 O   0  0  0  0  0  0  0  0  0  0  0  0
   -0.9725   -0.8199   -0.2533 C   0  0  0  0  0  0  0  0  0  0  0  0
    1.3264   -0.6532    3.2081 C   0  0  0  0  0  0  0  0  0  0  0  0
  1  2  2  0
  1  3  2  0
  1  4  1  0
  4  5  1  0
  5  6  1  0
  4  7  1  0
  7  8  1  0
  1  9  1  0
  9 10  2  0
 10 11  1  0
 11 12  2  0
 12 13  1  0
 13 14  2  0
 14  9  1  0
 11 15  1  0
 15 16  2  0
 16 17  1  0
 17 18  2  0
 18 19  1  0
 19 20  1  0
 20 21  1  0
 21 22  2  0
 21 23  1  0
 23 24  1  0
 24 25  1  0
 25 26  2  0
 26 27  1  0
 27 28  2  0
 28 29  1  0
 29 30  2  0
 30 25  1  0
 28 31  1  0
 31 32  2  0
 32 33  1  0
 33 34  2  0
 34 27  1  0
 18 35  1  0
 35 15  1  0
 35 36  1  0
 36 37  1  0
 37 38  1  0
 38 39  1  0
 36 40  1  0
M  END
$$$$
m_274972____12934192____12615770____15246888
     RDKit          3D

 33 37  0  0  0  0  0  0  0  0999 V2000
   10.2247    1.6719    2.3661 S   0  0  0  0  0  0  0  0  0  0  0  0
   10.8020    2.8102    3.0328 O   0  0  0  0  0  0  0  0  0  0  0  0
   10.6267    0.4653    3.0415 O   0  0  0  0  0  0  0  0  0  0  0  0
   10.7414    1.6275    0.8208 N   0  0  0  0  0  0  0  0  0  0  0  0
   12.2071    1.5178    0.7972 C   0  0  0  0  0  0  0  0  0  0  0  0
    8.4200    1.8069    2.3952 C   0  0  0  0  0  0  0  0  0  0  0  0
    7.6437    0.6529    2.4108 C   0  0  0  0  0  0  0  0  0  0  0  0
    6.2577    0.7683    2.4333 C   0  0  0  0  0  0  0  0  0  0  0  0
    5.6642    2.0267    2.4390 C   0  0  0  0  0  0  0  0  0  0  0  0
    6.4448    3.1781    2.4235 C   0  0  0  0  0  0  0  0  0  0  0  0
    7.8313    3.0673    2.4012 C   0  0  0  0  0  0  0  0  0  0  0  0
    4.2182    2.1329    2.4615 C   0  0  0  0  0  0  0  0  0  0  0  0
    3.3303    3.5831    2.4714 S   0  0  0  0  0  0  0  0  0  0  0  0
    1.7841    2.8690    2.4950 C   0  0  0  0  0  0  0  0  0  0  0  0
    2.0375    1.5302    2.4908 C   0  0  0  0  0  0  0  0  0  0  0  0
    3.3498    1.1464    2.4729 N   0  0  0  0  0  0  0  0  0  0  0  0
    0.9118    0.6170    2.5150 C   0  0  0  0  0  0  0  0  0  0  0  0
   -0.4029    0.9692    2.5332 N   0  0  0  0  0  0  0  0  0  0  0  0
   -1.0790   -0.0974    2.5525 N   0  0  0  0  0  0  0  0  0  0  0  0
   -0.3062   -1.1554    2.5502 N   0  0  0  0  0  0  0  0  0  0  0  0
    0.9871   -0.7420    2.5276 C   0  0  0  0  0  0  0  0  0  0  0  0
   -0.7634   -2.5524    2.5709 C   0  0  0  0  0  0  0  0  0  0  0  0
   -0.9440   -3.0475    1.1453 C   0  0  0  0  0  0  0  0  0  0  0  0
    0.0142   -3.6504    0.3882 N   0  0  0  0  0  0  0  0  0  0  0  0
   -0.5272   -3.9269   -0.7752 N   0  0  0  0  0  0  0  0  0  0  0  0
   -1.7794   -3.5436   -0.8305 C   0  0  0  0  0  0  0  0  0  0  0  0
   -2.6806   -3.6907   -1.9573 C   0  0  0  0  0  0  0  0  0  0  0  0
   -3.9890   -3.2291   -1.8581 C   0  0  0  0  0  0  0  0  0  0  0  0
   -4.8503   -3.3730   -2.9410 C   0  0  0  0  0  0  0  0  0  0  0  0
   -4.4007   -3.9735   -4.1122 C   0  0  0  0  0  0  0  0  0  0  0  0
   -3.0915   -4.4304   -4.2001 C   0  0  0  0  0  0  0  0  0  0  0  0
   -2.2207   -4.2930   -3.1241 C   0  0  0  0  0  0  0  0  0  0  0  0
   -2.0901   -2.9587    0.4157 C   0  0  0  0  0  0  0  0  0  0  0  0
  1  2  2  0
  1  3  2  0
  1  4  1  0
  4  5  1  0
  1  6  1  0
  6  7  2  0
  7  8  1  0
  8  9  2  0
  9 10  1  0
 10 11  2  0
 11  6  1  0
  9 12  1  0
 12 13  1  0
 13 14  1  0
 14 15  2  0
 15 16  1  0
 12 16  2  0
 15 17  1  0
 17 18  1  0
 18 19  2  0
 19 20  1  0
 20 21  1  0
 17 21  2  0
 20 22  1  0
 22 23  1  0
 23 24  1  0
 24 25  1  0
 25 26  2  0
 26 27  1  0
 27 28  2  0
 28 29  1  0
 29 30  2  0
 30 31  1  0
 31 32  2  0
 32 27  1  0
 26 33  1  0
 23 33  2  0
M  END
$$$$
s_2____11687950____16645038____9284808
     RDKit          3D

 41 46  0  0  0  0  0  0  0  0999 V2000
   -1.9409    6.0887    0.4320 S   0  0  0  0  0  0  0  0  0  0  0  0
   -1.1612    7.0098   -0.3536 O   0  0  0  0  0  0  0  0  0  0  0  0
   -3.1991    5.8436   -0.2242 O   0  0  0  0  0  0  0  0  0  0  0  0
   -2.2127    6.7272    1.9069 N   0  0  0  0  0  0  0  0  0  0  0  0
   -1.0729    4.5904    0.5997 C   0  0  0  0  0  0  0  0  0  0  0  0
    0.3148    4.6054    0.6936 C   0  0  0  0  0  0  0  0  0  0  0  0
    1.0031    3.4044    0.8269 C   0  0  0  0  0  0  0  0  0  0  0  0
    0.2999    2.2052    0.8655 C   0  0  0  0  0  0  0  0  0  0  0  0
    1.0000    1.0000    1.0000 N   0  0  0  0  0  0  0  0  0  0  0  0
    2.2727    1.0000    1.0000 C   0  0  0  0  0  0  0  0  0  0  0  0
    3.2932    2.2218    0.3944 S   0  0  0  0  0  0  0  0  0  0  0  0
    4.7811    1.4716    0.7594 C   0  0  0  0  0  0  0  0  0  0  0  0
    4.4252    0.2929    1.3410 C   0  0  0  0  0  0  0  0  0  0  0  0
    3.0922    0.0268    1.4798 N   0  0  0  0  0  0  0  0  0  0  0  0
    2.5418   -1.1977    2.0821 C   0  0  0  0  0  0  0  0  0  0  0  0
    2.1573   -0.9928    3.5375 C   0  0  0  0  0  0  0  0  0  0  0  0
    3.1879   -0.5265    4.2368 F   0  0  0  0  0  0  0  0  0  0  0  0
    1.1416   -0.1454    3.6874 F   0  0  0  0  0  0  0  0  0  0  0  0
    1.8397   -2.3823    4.0658 C   0  0  0  0  0  0  0  0  0  0  0  0
    1.0814   -3.2092    3.0334 C   0  0  0  0  0  0  0  0  0  0  0  0
    0.4356   -2.4416    2.0203 O   0  0  0  0  0  0  0  0  0  0  0  0
    1.3360   -1.6429    1.2637 C   0  0  0  0  0  0  0  0  0  0  0  0
    5.4822   -0.6008    1.7737 C   0  0  0  0  0  0  0  0  0  0  0  0
    6.6257   -0.0858    2.3765 C   0  0  0  0  0  0  0  0  0  0  0  0
    6.7858    1.2901    2.5799 N   0  0  0  0  0  0  0  0  0  0  0  0
    6.2186    2.0299    3.6134 C   0  0  0  0  0  0  0  0  0  0  0  0
    5.4985    1.5810    4.4895 O   0  0  0  0  0  0  0  0  0  0  0  0
    6.6250    3.4070    3.4673 C   0  0  0  0  0  0  0  0  0  0  0  0
    7.4157    3.4664    2.3498 C   0  0  0  0  0  0  0  0  0  0  0  0
    7.9126    4.7208    2.0102 C   0  0  0  0  0  0  0  0  0  0  0  0
    7.6161    5.8453    2.7721 C   0  0  0  0  0  0  0  0  0  0  0  0
    6.8084    5.7449    3.9003 C   0  0  0  0  0  0  0  0  0  0  0  0
    6.2963    4.5018    4.2574 C   0  0  0  0  0  0  0  0  0  0  0  0
    7.5422    2.1445    1.7834 C   0  0  0  0  0  0  0  0  0  0  0  0
    8.1902    1.8469    0.7928 O   0  0  0  0  0  0  0  0  0  0  0  0
    7.6390   -0.9428    2.7915 C   0  0  0  0  0  0  0  0  0  0  0  0
    7.5098   -2.3153    2.6041 C   0  0  0  0  0  0  0  0  0  0  0  0
    6.3668   -2.8304    2.0013 C   0  0  0  0  0  0  0  0  0  0  0  0
    5.3534   -1.9732    1.5854 C   0  0  0  0  0  0  0  0  0  0  0  0
   -1.0872    2.1970    0.7709 C   0  0  0  0  0  0  0  0  0  0  0  0
   -1.7818    3.3944    0.6372 C   0  0  0  0  0  0  0  0  0  0  0  0
  1  2  2  0
  1  3  2  0
  1  4  1  0
  1  5  1  0
  5  6  2  0
  6  7  1  0
  7  8  2  0
  8  9  1  0
  9 10  2  0
 10 11  1  0
 11 12  1  0
 12 13  2  0
 13 14  1  0
 14 10  1  0
 14 15  1  0
 15 16  1  0
 16 17  1  0
 16 18  1  0
 16 19  1  0
 19 20  1  0
 20 21  1  0
 21 22  1  0
 22 15  1  0
 13 23  1  0
 23 24  1  0
 24 25  1  0
 25 26  1  0
 26 27  2  0
 26 28  1  0
 28 29  2  0
 29 30  1  0
 30 31  2  0
 31 32  1  0
 32 33  2  0
 33 28  1  0
 29 34  1  0
 34 25  1  0
 34 35  2  0
 24 36  2  0
 36 37  1  0
 37 38  2  0
 38 39  1  0
 39 23  2  0
  8 40  1  0
 40 41  2  0
 41  5  1  0
M  END
$$$$
s_1____86342____7594458____5126090
     RDKit          3D

 35 39  0  0  0  0  0  0  0  0999 V2000
    7.8924    0.1662    1.8197 S   0  0  0  0  0  0  0  0  0  0  0  0
    7.2327   -0.7066    3.1258 C   0  0  0  0  0  0  0  0  0  0  0  0
    7.7912   -1.6408    3.7783 N   0  0  0  0  0  0  0  0  0  0  0  0
    9.1525   -2.0704    3.4275 C   0  0  0  0  0  0  0  0  0  0  0  0
   10.1606   -1.2571    4.2214 C   0  0  0  0  0  0  0  0  0  0  0  0
   10.0230    0.1198    3.9298 O   0  0  0  0  0  0  0  0  0  0  0  0
   11.2319    0.7344    4.3552 C   0  0  0  0  0  0  0  0  0  0  0  0
   12.3026   -0.3358    4.2720 C   0  0  0  0  0  0  0  0  0  0  0  0
   11.5652   -1.5525    3.7467 C   0  0  0  0  0  0  0  0  0  0  0  0
    5.9892   -0.1914    3.3225 N   0  0  0  0  0  0  0  0  0  0  0  0
    5.1836   -0.6672    4.2949 N   0  0  0  0  0  0  0  0  0  0  0  0
    5.5480   -0.6154    5.4895 C   0  0  0  0  0  0  0  0  0  0  0  0
    4.6810   -1.1273    6.5358 C   0  0  0  0  0  0  0  0  0  0  0  0
    5.0250   -1.1008    7.8880 C   0  0  0  0  0  0  0  0  0  0  0  0
    4.1391   -1.6098    8.8344 C   0  0  0  0  0  0  0  0  0  0  0  0
    2.9282   -2.1327    8.3907 C   0  0  0  0  0  0  0  0  0  0  0  0
    2.6188   -2.1487    7.0855 N   0  0  0  0  0  0  0  0  0  0  0  0
    3.4560   -1.6646    6.1558 C   0  0  0  0  0  0  0  0  0  0  0  0
    4.4475   -1.5987   10.1906 C   0  0  0  0  0  0  0  0  0  0  0  0
    5.6635   -1.0686   10.6080 C   0  0  0  0  0  0  0  0  0  0  0  0
    6.5700   -0.5523    9.6893 C   0  0  0  0  0  0  0  0  0  0  0  0
    6.2353   -0.5772    8.3399 C   0  0  0  0  0  0  0  0  0  0  0  0
    5.6543    0.8247    2.4637 C   0  0  0  0  0  0  0  0  0  0  0  0
    4.3934    1.5238    2.4792 C   0  0  0  0  0  0  0  0  0  0  0  0
    4.3898    2.9144    2.4850 C   0  0  0  0  0  0  0  0  0  0  0  0
    3.1783    3.5981    2.5011 C   0  0  0  0  0  0  0  0  0  0  0  0
    1.9856    2.8824    2.5103 C   0  0  0  0  0  0  0  0  0  0  0  0
    0.8052    3.5371    2.5243 O   0  0  0  0  0  0  0  0  0  0  0  0
    0.7807    4.9569    2.5297 C   0  0  0  0  0  0  0  0  0  0  0  0
   -0.6608    5.4387    2.5457 C   0  0  0  0  0  0  0  0  0  0  0  0
   -1.5593    4.6433    2.5517 O   0  0  0  0  0  0  0  0  0  0  0  0
   -0.9343    6.7811    2.5533 N   0  0  0  0  0  0  0  0  0  0  0  0
    1.9898    1.4913    2.5046 C   0  0  0  0  0  0  0  0  0  0  0  0
    3.2009    0.8075    2.4890 C   0  0  0  0  0  0  0  0  0  0  0  0
    6.5718    1.2007    1.5327 C   0  0  0  0  0  0  0  0  0  0  0  0
  1  2  1  0
  2  3  2  0
  3  4  1  0
  4  5  1  0
  5  6  1  0
  6  7  1  0
  7  8  1  0
  8  9  1  0
  9  5  1  0
  2 10  1  0
 10 11  1  0
 11 12  2  0
 12 13  1  0
 13 14  2  0
 14 15  1  0
 15 16  2  0
 16 17  1  0
 17 18  2  0
 18 13  1  0
 15 19  1  0
 19 20  2  0
 20 21  1  0
 21 22  2  0
 22 14  1  0
 10 23  1  0
 23 24  1  0
 24 25  2  0
 25 26  1  0
 26 27  2  0
 27 28  1  0
 28 29  1  0
 29 30  1  0
 30 31  2  0
 30 32  1  0
 27 33  1  0
 33 34  2  0
 34 24  1  0
 23 35  2  0
 35  1  1  0
M  END
$$$$
m_274972____12934192____12615770____13046846
     RDKit          3D

 32 36  0  0  0  0  0  0  0  0999 V2000
    0.4035    3.7616    2.5294 S   0  0  0  0  0  0  0  0  0  0  0  0
   -0.5815    2.9642    3.2130 O   0  0  0  0  0  0  0  0  0  0  0  0
    0.5624    5.0187    3.2135 O   0  0  0  0  0  0  0  0  0  0  0  0
   -0.0853    4.0341    0.9985 N   0  0  0  0  0  0  0  0  0  0  0  0
   -1.3696    4.7492    1.0142 C   0  0  0  0  0  0  0  0  0  0  0  0
    1.9848    2.8811    2.5100 C   0  0  0  0  0  0  0  0  0  0  0  0
    3.1740    3.6024    2.5029 C   0  0  0  0  0  0  0  0  0  0  0  0
    4.3836    2.9156    2.4883 C   0  0  0  0  0  0  0  0  0  0  0  0
    4.3937    1.5243    2.4800 C   0  0  0  0  0  0  0  0  0  0  0  0
    3.2017    0.8072    2.4872 C   0  0  0  0  0  0  0  0  0  0  0  0
    1.9898    1.4900    2.5021 C   0  0  0  0  0  0  0  0  0  0  0  0
    5.6630    0.8199    2.4636 C   0  0  0  0  0  0  0  0  0  0  0  0
    5.8598   -0.8692    2.4518 S   0  0  0  0  0  0  0  0  0  0  0  0
    7.5630   -0.8704    2.4327 C   0  0  0  0  0  0  0  0  0  0  0  0
    7.8952    0.4511    2.4332 C   0  0  0  0  0  0  0  0  0  0  0  0
    6.8653    1.3505    2.4501 N   0  0  0  0  0  0  0  0  0  0  0  0
    9.3004    0.8070    2.4258 C   0  0  0  0  0  0  0  0  0  0  0  0
   10.3458   -0.0647    2.4091 N   0  0  0  0  0  0  0  0  0  0  0  0
   11.4075    0.6193    2.4085 N   0  0  0  0  0  0  0  0  0  0  0  0
   11.1507    1.9040    2.4255 N   0  0  0  0  0  0  0  0  0  0  0  0
    9.8031    2.0719    2.4383 C   0  0  0  0  0  0  0  0  0  0  0  0
   12.1526    2.9796    2.4317 C   0  0  0  0  0  0  0  0  0  0  0  0
   12.4889    3.3679    0.9993 C   0  0  0  0  0  0  0  0  0  0  0  0
   11.3396    3.8289    0.2968 O   0  0  0  0  0  0  0  0  0  0  0  0
   11.3253    3.9400   -1.0470 C   0  0  0  0  0  0  0  0  0  0  0  0
   12.3154    3.2780   -1.7676 C   0  0  0  0  0  0  0  0  0  0  0  0
   13.2531    2.5937   -1.0804 O   0  0  0  0  0  0  0  0  0  0  0  0
   13.0479    2.1706    0.2542 C   0  0  0  0  0  0  0  0  0  0  0  0
   12.3372    3.3463   -3.1575 C   0  0  0  0  0  0  0  0  0  0  0  0
   11.3794    4.0934   -3.8374 C   0  0  0  0  0  0  0  0  0  0  0  0
   10.3926    4.7714   -3.1276 C   0  0  0  0  0  0  0  0  0  0  0  0
   10.3753    4.6852   -1.7389 C   0  0  0  0  0  0  0  0  0  0  0  0
  1  2  2  0
  1  3  2  0
  1  4  1  0
  4  5  1  0
  1  6  1  0
  6  7  2  0
  7  8  1  0
  8  9  2  0
  9 10  1  0
 10 11  2  0
 11  6  1  0
  9 12  1  0
 12 13  1  0
 13 14  1  0
 14 15  2  0
 15 16  1  0
 12 16  2  0
 15 17  1  0
 17 18  1  0
 18 19  2  0
 19 20  1  0
 20 21  1  0
 17 21  2  0
 20 22  1  0
 22 23  1  0
 23 24  1  0
 24 25  1  0
 25 26  2  0
 26 27  1  0
 27 28  1  0
 28 23  1  0
 26 29  1  0
 29 30  2  0
 30 31  1  0
 31 32  2  0
 32 25  1  0
M  END
$$$$
s_1458____7207170____9746902
     RDKit          3D

 34 38  0  0  0  0  0  0  0  0999 V2000
    0.6517    1.8583   -0.5550 S   0  0  0  0  0  0  0  0  0  0  0  0
    2.1972    1.6566   -1.3295 C   0  0  0  0  0  0  0  0  0  0  0  0
    3.2377    2.4467   -1.0244 N   0  0  0  0  0  0  0  0  0  0  0  0
    4.4366    2.3073   -1.6111 C   0  0  0  0  0  0  0  0  0  0  0  0
    4.6044    1.3090   -2.5661 C   0  0  0  0  0  0  0  0  0  0  0  0
    3.5636    0.5191   -2.8703 N   0  0  0  0  0  0  0  0  0  0  0  0
    2.3647    0.6585   -2.2849 C   0  0  0  0  0  0  0  0  0  0  0  0
    1.2940   -0.1794   -2.6208 N   0  0  0  0  0  0  0  0  0  0  0  0
    0.3028    0.2984   -3.5976 C   0  0  0  0  0  0  0  0  0  0  0  0
   -1.0832   -0.2433   -3.2827 C   0  0  0  0  0  0  0  0  0  0  0  0
   -1.0429   -1.6338   -2.9891 O   0  0  0  0  0  0  0  0  0  0  0  0
   -0.2831   -1.8969   -1.8167 C   0  0  0  0  0  0  0  0  0  0  0  0
    1.1759   -1.5072   -1.9989 C   0  0  0  0  0  0  0  0  0  0  0  0
   -0.3340   -3.3736   -1.4579 C   0  0  0  0  0  0  0  0  0  0  0  0
   -1.9798    0.0272   -4.4802 C   0  0  0  0  0  0  0  0  0  0  0  0
    5.8437    1.1566   -3.1798 C   0  0  0  0  0  0  0  0  0  0  0  0
    6.9140    1.9833   -2.8534 C   0  0  0  0  0  0  0  0  0  0  0  0
    6.7375    2.9787   -1.8972 C   0  0  0  0  0  0  0  0  0  0  0  0
    5.5014    3.1391   -1.2795 C   0  0  0  0  0  0  0  0  0  0  0  0
    1.0000    1.0000    1.0000 C   0  0  0  0  0  0  0  0  0  0  0  0
    1.8776    1.8776    1.8776 C   0  0  0  0  0  0  0  0  0  0  0  0
    3.0725    1.7997    1.7997 O   0  0  0  0  0  0  0  0  0  0  0  0
    1.3294    2.7189    2.7189 O   0  0  0  0  0  0  0  0  0  0  0  0
    2.1493    3.5387    3.5387 C   0  0  0  0  0  0  0  0  0  0  0  0
    1.2716    4.4164    4.4164 C   0  0  0  0  0  0  0  0  0  0  0  0
    0.8543    3.9926    5.6747 C   0  0  0  0  0  0  0  0  0  0  0  0
    0.0801    4.7866    6.4306 N   0  0  0  0  0  0  0  0  0  0  0  0
   -0.3145    5.9992    6.0109 C   0  0  0  0  0  0  0  0  0  0  0  0
    0.0768    6.4679    4.7590 C   0  0  0  0  0  0  0  0  0  0  0  0
    0.8793    5.6673    3.9529 C   0  0  0  0  0  0  0  0  0  0  0  0
   -0.3144    7.7194    4.2949 C   0  0  0  0  0  0  0  0  0  0  0  0
   -1.1159    8.5213    5.1013 C   0  0  0  0  0  0  0  0  0  0  0  0
   -1.5161    8.0696    6.3554 C   0  0  0  0  0  0  0  0  0  0  0  0
   -1.1152    6.8150    6.8027 C   0  0  0  0  0  0  0  0  0  0  0  0
  1  2  1  0
  2  3  2  0
  3  4  1  0
  4  5  2  0
  5  6  1  0
  6  7  2  0
  7  2  1  0
  7  8  1  0
  8  9  1  0
  9 10  1  0
 10 11  1  0
 11 12  1  0
 12 13  1  0
 13  8  1  0
 12 14  1  0
 10 15  1  0
  5 16  1  0
 16 17  2  0
 17 18  1  0
 18 19  2  0
 19  4  1  0
  1 20  1  0
 20 21  1  0
 21 22  2  0
 21 23  1  0
 23 24  1  0
 24 25  1  0
 25 26  2  0
 26 27  1  0
 27 28  2  0
 28 29  1  0
 29 30  2  0
 30 25  1  0
 29 31  1  0
 31 32  2  0
 32 33  1  0
 33 34  2  0
 34 28  1  0
M  END
$$$$
s_11a____52406____132801
     RDKit          3D

 36 41  0  0  0  0  0  0  0  0999 V2000
   -1.6512    0.8701    3.1832 S   0  0  0  0  0  0  0  0  0  0  0  0
   -3.2998    1.2544    2.9971 C   0  0  0  0  0  0  0  0  0  0  0  0
   -4.3579    0.7207    3.7584 N   0  0  0  0  0  0  0  0  0  0  0  0
   -5.0051   -0.5591    3.4298 C   0  0  0  0  0  0  0  0  0  0  0  0
   -6.4393   -0.5314    3.9316 C   0  0  0  0  0  0  0  0  0  0  0  0
   -6.5288   -0.4027    5.3480 O   0  0  0  0  0  0  0  0  0  0  0  0
   -5.4680    0.3618    5.9119 C   0  0  0  0  0  0  0  0  0  0  0  0
   -4.9062    1.3930    4.9444 C   0  0  0  0  0  0  0  0  0  0  0  0
   -3.3986    2.1616    1.9852 C   0  0  0  0  0  0  0  0  0  0  0  0
   -4.6756    2.7046    1.5635 C   0  0  0  0  0  0  0  0  0  0  0  0
   -5.3112    3.6606    2.3490 C   0  0  0  0  0  0  0  0  0  0  0  0
   -6.5363    4.1782    1.9411 C   0  0  0  0  0  0  0  0  0  0  0  0
   -7.1162    3.7403    0.7551 C   0  0  0  0  0  0  0  0  0  0  0  0
   -6.4719    2.7853   -0.0218 C   0  0  0  0  0  0  0  0  0  0  0  0
   -5.2469    2.2596    0.3755 C   0  0  0  0  0  0  0  0  0  0  0  0
   -2.1515    2.5087    1.4044 C   0  0  0  0  0  0  0  0  0  0  0  0
   -1.0704    1.8861    1.9480 C   0  0  0  0  0  0  0  0  0  0  0  0
    0.3150    2.0515    1.5495 C   0  0  0  0  0  0  0  0  0  0  0  0
    0.8607    3.1094    1.7013 O   0  0  0  0  0  0  0  0  0  0  0  0
    1.0000    1.0000    1.0000 N   0  0  0  0  0  0  0  0  0  0  0  0
    2.3983    1.0000    1.0000 C   0  0  0  0  0  0  0  0  0  0  0  0
    3.4065   -0.2152    0.3650 S   0  0  0  0  0  0  0  0  0  0  0  0
    4.8961    0.5148    0.7506 C   0  0  0  0  0  0  0  0  0  0  0  0
    4.5340    1.6728    1.3612 C   0  0  0  0  0  0  0  0  0  0  0  0
    3.1928    1.9183    1.4899 N   0  0  0  0  0  0  0  0  0  0  0  0
    5.5784    2.5492    1.8295 C   0  0  0  0  0  0  0  0  0  0  0  0
    6.5403    3.1116    0.9465 C   0  0  0  0  0  0  0  0  0  0  0  0
    6.4738    2.8399   -0.2420 O   0  0  0  0  0  0  0  0  0  0  0  0
    7.4871    3.9123    1.4057 O   0  0  0  0  0  0  0  0  0  0  0  0
    7.5832    4.2239    2.6873 C   0  0  0  0  0  0  0  0  0  0  0  0
    6.6796    3.7147    3.6153 C   0  0  0  0  0  0  0  0  0  0  0  0
    6.7596    4.0272    4.9685 C   0  0  0  0  0  0  0  0  0  0  0  0
    7.7725    4.8734    5.4069 C   0  0  0  0  0  0  0  0  0  0  0  0
    8.6868    5.3943    4.4964 C   0  0  0  0  0  0  0  0  0  0  0  0
    8.5880    5.0683    3.1477 C   0  0  0  0  0  0  0  0  0  0  0  0
    5.6475    2.8505    3.1647 C   0  0  0  0  0  0  0  0  0  0  0  0
  1  2  1  0
  2  3  1  0
  3  4  1  0
  4  5  1  0
  5  6  1  0
  6  7  1  0
  7  8  1  0
  8  3  1  0
  2  9  2  0
  9 10  1  0
 10 11  2  0
 11 12  1  0
 12 13  2  0
 13 14  1  0
 14 15  2  0
 15 10  1  0
  9 16  1  0
 16 17  2  0
 17  1  1  0
 17 18  1  0
 18 19  2  0
 18 20  1  0
 20 21  1  0
 21 22  1  0
 22 23  1  0
 23 24  2  0
 24 25  1  0
 21 25  2  0
 24 26  1  0
 26 27  1  0
 27 28  2  0
 27 29  1  0
 29 30  1  0
 30 31  2  0
 31 32  1  0
 32 33  2  0
 33 34  1  0
 34 35  2  0
 35 30  1  0
 31 36  1  0
 26 36  2  0
M  END
$$$$
m_274972____12934192____12615770____13046590
     RDKit          3D

 31 35  0  0  0  0  0  0  0  0999 V2000
    0.4035    3.7616    2.5294 S   0  0  0  0  0  0  0  0  0  0  0  0
   -0.5815    2.9642    3.2130 O   0  0  0  0  0  0  0  0  0  0  0  0
    0.5624    5.0187    3.2135 O   0  0  0  0  0  0  0  0  0  0  0  0
   -0.0853    4.0341    0.9985 N   0  0  0  0  0  0  0  0  0  0  0  0
   -1.3696    4.7492    1.0142 C   0  0  0  0  0  0  0  0  0  0  0  0
    1.9848    2.8811    2.5100 C   0  0  0  0  0  0  0  0  0  0  0  0
    3.1740    3.6024    2.5029 C   0  0  0  0  0  0  0  0  0  0  0  0
    4.3836    2.9156    2.4883 C   0  0  0  0  0  0  0  0  0  0  0  0
    4.3937    1.5243    2.4800 C   0  0  0  0  0  0  0  0  0  0  0  0
    3.2017    0.8072    2.4872 C   0  0  0  0  0  0  0  0  0  0  0  0
    1.9898    1.4900    2.5021 C   0  0  0  0  0  0  0  0  0  0  0  0
    5.6630    0.8199    2.4636 C   0  0  0  0  0  0  0  0  0  0  0  0
    5.8598   -0.8692    2.4518 S   0  0  0  0  0  0  0  0  0  0  0  0
    7.5630   -0.8704    2.4327 C   0  0  0  0  0  0  0  0  0  0  0  0
    7.8952    0.4511    2.4332 C   0  0  0  0  0  0  0  0  0  0  0  0
    6.8653    1.3505    2.4501 N   0  0  0  0  0  0  0  0  0  0  0  0
    9.3014    0.8073    2.4258 C   0  0  0  0  0  0  0  0  0  0  0  0
   10.3504   -0.0618    2.4091 N   0  0  0  0  0  0  0  0  0  0  0  0
   11.4157    0.6157    2.4080 N   0  0  0  0  0  0  0  0  0  0  0  0
   11.1545    1.9000    2.4172 N   0  0  0  0  0  0  0  0  0  0  0  0
   12.1084    2.9266    2.4165 C   0  0  0  0  0  0  0  0  0  0  0  0
   11.7505    4.2738    2.4267 C   0  0  0  0  0  0  0  0  0  0  0  0
   12.7363    5.2563    2.4259 C   0  0  0  0  0  0  0  0  0  0  0  0
   12.3521    6.5937    2.4385 C   0  0  0  0  0  0  0  0  0  0  0  0
   11.0574    6.9459    2.4506 N   0  0  0  0  0  0  0  0  0  0  0  0
   10.0782    6.0300    2.4508 C   0  0  0  0  0  0  0  0  0  0  0  0
   10.4206    4.6819    2.4384 C   0  0  0  0  0  0  0  0  0  0  0  0
   14.0815    4.9028    2.4152 C   0  0  0  0  0  0  0  0  0  0  0  0
   14.4268    3.5553    2.4044 C   0  0  0  0  0  0  0  0  0  0  0  0
   13.4515    2.5631    2.4054 C   0  0  0  0  0  0  0  0  0  0  0  0
    9.8053    2.0687    2.4282 C   0  0  0  0  0  0  0  0  0  0  0  0
  1  2  2  0
  1  3  2  0
  1  4  1  0
  4  5  1  0
  1  6  1  0
  6  7  2  0
  7  8  1  0
  8  9  2  0
  9 10  1  0
 10 11  2  0
 11  6  1  0
  9 12  1  0
 12 13  1  0
 13 14  1  0
 14 15  2  0
 15 16  1  0
 12 16  2  0
 15 17  1  0
 17 18  1  0
 18 19  2  0
 19 20  1  0
 20 21  1  0
 21 22  1  0
 22 23  1  0
 23 24  2  0
 24 25  1  0
 25 26  2  0
 26 27  1  0
 27 22  2  0
 23 28  1  0
 28 29  2  0
 29 30  1  0
 30 21  2  0
 20 31  1  0
 17 31  2  0
M  END
$$$$
m_273170____10756432____10759890____10766558
     RDKit          3D

 38 42  0  0  0  0  0  0  0  0999 V2000
    7.1615   -2.0524    3.8245 S   0  0  0  0  0  0  0  0  0  0  0  0
    7.5449   -0.9459    4.6626 O   0  0  0  0  0  0  0  0  0  0  0  0
    7.0489   -3.2442    4.6249 O   0  0  0  0  0  0  0  0  0  0  0  0
    8.2911   -2.2773    2.6711 N   0  0  0  0  0  0  0  0  0  0  0  0
    8.4061   -1.0606    1.8541 C   0  0  0  0  0  0  0  0  0  0  0  0
    9.5862   -2.5671    3.3034 C   0  0  0  0  0  0  0  0  0  0  0  0
    5.6287   -1.7094    3.0761 C   0  0  0  0  0  0  0  0  0  0  0  0
    5.1351   -0.4092    3.0844 C   0  0  0  0  0  0  0  0  0  0  0  0
    3.9080   -0.1495    2.4826 C   0  0  0  0  0  0  0  0  0  0  0  0
    3.1781   -1.1688    1.8799 C   0  0  0  0  0  0  0  0  0  0  0  0
    3.6897   -2.4624    1.8823 C   0  0  0  0  0  0  0  0  0  0  0  0
    4.9150   -2.7431    2.4781 C   0  0  0  0  0  0  0  0  0  0  0  0
    3.3905    1.2051    2.4893 C   0  0  0  0  0  0  0  0  0  0  0  0
    4.1071    2.3065    2.4903 N   0  0  0  0  0  0  0  0  0  0  0  0
    3.2789    3.3271    2.4974 N   0  0  0  0  0  0  0  0  0  0  0  0
    2.0315    2.9267    2.5008 C   0  0  0  0  0  0  0  0  0  0  0  0
    2.0806    1.5694    2.4959 N   0  0  0  0  0  0  0  0  0  0  0  0
    0.9245    0.6605    2.4981 C   0  0  0  0  0  0  0  0  0  0  0  0
    0.6099    0.2441    3.9259 C   0  0  0  0  0  0  0  0  0  0  0  0
   -0.4421   -0.6177    4.2213 C   0  0  0  0  0  0  0  0  0  0  0  0
   -1.1996   -1.0940    3.2101 O   0  0  0  0  0  0  0  0  0  0  0  0
   -2.2256   -1.9321    3.4718 C   0  0  0  0  0  0  0  0  0  0  0  0
   -1.9916   -3.3034    3.4906 C   0  0  0  0  0  0  0  0  0  0  0  0
   -3.0499   -4.1648    3.7606 C   0  0  0  0  0  0  0  0  0  0  0  0
   -2.8390   -5.4781    3.7811 F   0  0  0  0  0  0  0  0  0  0  0  0
   -4.3263   -3.6729    4.0100 C   0  0  0  0  0  0  0  0  0  0  0  0
   -4.5393   -2.2987    3.9868 C   0  0  0  0  0  0  0  0  0  0  0  0
   -3.4948   -1.4202    3.7189 C   0  0  0  0  0  0  0  0  0  0  0  0
   -0.6918   -0.9645    5.4930 N   0  0  0  0  0  0  0  0  0  0  0  0
    0.0529   -0.5005    6.5074 C   0  0  0  0  0  0  0  0  0  0  0  0
    1.1171    0.3636    6.2730 C   0  0  0  0  0  0  0  0  0  0  0  0
    1.3946    0.7374    4.9625 C   0  0  0  0  0  0  0  0  0  0  0  0
    0.8797    3.7376    2.5048 N   0  0  0  0  0  0  0  0  0  0  0  0
    0.9024    5.1461    2.9293 C   0  0  0  0  0  0  0  0  0  0  0  0
   -0.4674    5.5222    3.4693 C   0  0  0  0  0  0  0  0  0  0  0  0
   -1.4956    5.4285    2.4870 O   0  0  0  0  0  0  0  0  0  0  0  0
   -1.2670    4.3998    1.5292 C   0  0  0  0  0  0  0  0  0  0  0  0
   -0.4415    3.2494    2.0861 C   0  0  0  0  0  0  0  0  0  0  0  0
  1  2  2  0
  1  3  2  0
  1  4  1  0
  4  5  1  0
  4  6  1  0
  1  7  1  0
  7  8  2  0
  8  9  1  0
  9 10  2  0
 10 11  1  0
 11 12  2  0
 12  7  1  0
  9 13  1  0
 13 14  2  0
 14 15  1  0
 15 16  2  0
 16 17  1  0
 17 13  1  0
 17 18  1  0
 18 19  1  0
 19 20  1  0
 20 21  1  0
 21 22  1  0
 22 23  2  0
 23 24  1  0
 24 25  1  0
 24 26  2  0
 26 27  1  0
 27 28  2  0
 28 22  1  0
 20 29  2  0
 29 30  1  0
 30 31  2  0
 31 32  1  0
 32 19  2  0
 16 33  1  0
 33 34  1  0
 34 35  1  0
 35 36  1  0
 36 37  1  0
 37 38  1  0
 38 33  1  0
M  END
$$$$
s_265764____4903266____4559916
     RDKit          3D

 35 40  0  0  0  0  0  0  0  0999 V2000
    1.0000    1.0000    1.0000 S   0  0  0  0  0  0  0  0  0  0  0  0
    1.0000    2.2301    2.2301 C   0  0  0  0  0  0  0  0  0  0  0  0
    2.0419    2.8438    2.7340 N   0  0  0  0  0  0  0  0  0  0  0  0
    1.6876    3.7194    3.6471 N   0  0  0  0  0  0  0  0  0  0  0  0
    0.3829    3.6748    3.7459 C   0  0  0  0  0  0  0  0  0  0  0  0
   -0.0820    2.7464    2.8658 N   0  0  0  0  0  0  0  0  0  0  0  0
   -1.4904    2.3736    2.6413 C   0  0  0  0  0  0  0  0  0  0  0  0
   -2.1194    3.3407    1.6449 C   0  0  0  0  0  0  0  0  0  0  0  0
   -1.4713    3.3443    0.3830 O   0  0  0  0  0  0  0  0  0  0  0  0
   -2.3849    3.9097   -0.5382 C   0  0  0  0  0  0  0  0  0  0  0  0
   -3.7772    3.6208   -0.0138 C   0  0  0  0  0  0  0  0  0  0  0  0
   -3.4852    2.8188    1.2370 C   0  0  0  0  0  0  0  0  0  0  0  0
   -0.4266    4.4828    4.6373 C   0  0  0  0  0  0  0  0  0  0  0  0
    0.0146    5.7531    4.9931 C   0  0  0  0  0  0  0  0  0  0  0  0
   -0.7503    6.5412    5.8471 C   0  0  0  0  0  0  0  0  0  0  0  0
   -1.9525    6.0418    6.3362 C   0  0  0  0  0  0  0  0  0  0  0  0
   -2.6930    6.7850    7.1532 F   0  0  0  0  0  0  0  0  0  0  0  0
   -2.3934    4.7718    5.9809 C   0  0  0  0  0  0  0  0  0  0  0  0
   -1.6294    3.9835    5.1273 C   0  0  0  0  0  0  0  0  0  0  0  0
    1.4404   -0.4254    2.0249 C   0  0  0  0  0  0  0  0  0  0  0  0
    2.8876   -0.3000    2.4721 C   0  0  0  0  0  0  0  0  0  0  0  0
    3.3247   -0.4230    3.6990 O   0  0  0  0  0  0  0  0  0  0  0  0
    4.5803   -0.2641    3.7274 N   0  0  0  0  0  0  0  0  0  0  0  0
    4.9939   -0.0273    2.5064 C   0  0  0  0  0  0  0  0  0  0  0  0
    3.9082   -0.0499    1.6886 N   0  0  0  0  0  0  0  0  0  0  0  0
    6.3666    0.2127    2.1006 C   0  0  0  0  0  0  0  0  0  0  0  0
    7.3368   -0.1970    2.9315 N   0  0  0  0  0  0  0  0  0  0  0  0
    8.6353   -0.0205    2.6444 C   0  0  0  0  0  0  0  0  0  0  0  0
    9.0215    0.6012    1.4612 C   0  0  0  0  0  0  0  0  0  0  0  0
    8.0361    1.0365    0.5803 C   0  0  0  0  0  0  0  0  0  0  0  0
    6.6959    0.8428    0.8993 C   0  0  0  0  0  0  0  0  0  0  0  0
    5.7370    1.2912   -0.0062 C   0  0  0  0  0  0  0  0  0  0  0  0
    6.0842    1.9147   -1.2000 C   0  0  0  0  0  0  0  0  0  0  0  0
    7.4306    2.0977   -1.4982 C   0  0  0  0  0  0  0  0  0  0  0  0
    8.4059    1.6589   -0.6083 C   0  0  0  0  0  0  0  0  0  0  0  0
  1  2  1  0
  2  3  2  0
  3  4  1  0
  4  5  2  0
  5  6  1  0
  6  2  1  0
  6  7  1  0
  7  8  1  0
  8  9  1  0
  9 10  1  0
 10 11  1  0
 11 12  1  0
 12  8  1  0
  5 13  1  0
 13 14  2  0
 14 15  1  0
 15 16  2  0
 16 17  1  0
 16 18  1  0
 18 19  2  0
 19 13  1  0
  1 20  1  0
 20 21  1  0
 21 22  1  0
 22 23  1  0
 23 24  2  0
 24 25  1  0
 21 25  2  0
 24 26  1  0
 26 27  2  0
 27 28  1  0
 28 29  2  0
 29 30  1  0
 30 31  2  0
 31 26  1  0
 31 32  1  0
 32 33  2  0
 33 34  1  0
 34 35  2  0
 35 30  1  0
M  END
$$$$
s_46____548782____14048698____12430982
     RDKit          3D

 36 40  0  0  0  0  0  0  0  0999 V2000
    4.3765    2.3441    2.4956 S   0  0  0  0  0  0  0  0  0  0  0  0
    3.1474    3.5639    2.5524 C   0  0  0  0  0  0  0  0  0  0  0  0
    1.9137    2.9173    2.5293 N   0  0  0  0  0  0  0  0  0  0  0  0
    1.9586    1.5243    2.4686 C   0  0  0  0  0  0  0  0  0  0  0  0
    0.9613    0.8205    2.4494 O   0  0  0  0  0  0  0  0  0  0  0  0
    3.2995    0.9851    2.4289 C   0  0  0  0  0  0  0  0  0  0  0  0
    3.6456   -0.2893    2.3577 C   0  0  0  0  0  0  0  0  0  0  0  0
    3.6170   -0.9780    1.0823 C   0  0  0  0  0  0  0  0  0  0  0  0
    3.9834   -2.3183    1.0215 C   0  0  0  0  0  0  0  0  0  0  0  0
    3.9516   -2.9671   -0.2082 C   0  0  0  0  0  0  0  0  0  0  0  0
    4.3001   -4.2481   -0.2806 F   0  0  0  0  0  0  0  0  0  0  0  0
    3.5617   -2.2966   -1.3626 C   0  0  0  0  0  0  0  0  0  0  0  0
    3.1993   -0.9566   -1.2742 C   0  0  0  0  0  0  0  0  0  0  0  0
    2.8051   -0.2754   -2.4317 N   0  0  0  0  0  0  0  0  0  0  0  0
    2.4849    0.9002   -2.3685 O   0  0  0  0  0  0  0  0  0  0  0  0
    2.7819   -0.8524   -3.4950 O   0  0  0  0  0  0  0  0  0  0  0  0
    3.2227   -0.2848   -0.0569 C   0  0  0  0  0  0  0  0  0  0  0  0
    0.6577    3.6785    2.5692 C   0  0  0  0  0  0  0  0  0  0  0  0
    0.3454    4.2157    1.1789 C   0  0  0  0  0  0  0  0  0  0  0  0
   -0.4116    3.4773    0.2747 C   0  0  0  0  0  0  0  0  0  0  0  0
   -0.6752    3.9740   -0.9437 N   0  0  0  0  0  0  0  0  0  0  0  0
   -0.2267    5.1792   -1.3279 C   0  0  0  0  0  0  0  0  0  0  0  0
    0.5048    5.9068   -0.4704 N   0  0  0  0  0  0  0  0  0  0  0  0
    0.8011    5.4627    0.7606 C   0  0  0  0  0  0  0  0  0  0  0  0
   -0.5245    5.6964   -2.6497 C   0  0  0  0  0  0  0  0  0  0  0  0
   -0.0474    6.9485   -3.0234 C   0  0  0  0  0  0  0  0  0  0  0  0
   -0.3361    7.4411   -4.2919 C   0  0  0  0  0  0  0  0  0  0  0  0
   -1.0955    6.6825   -5.1764 C   0  0  0  0  0  0  0  0  0  0  0  0
   -1.5664    5.4329   -4.7925 C   0  0  0  0  0  0  0  0  0  0  0  0
   -1.2851    4.9294   -3.5266 C   0  0  0  0  0  0  0  0  0  0  0  0
    3.3477    4.8665    2.6124 C   0  0  0  0  0  0  0  0  0  0  0  0
    3.2378    5.5918    3.9437 C   0  0  0  0  0  0  0  0  0  0  0  0
    2.9688    4.9796    4.9401 O   0  0  0  0  0  0  0  0  0  0  0  0
    3.4687    7.0932    4.0128 C   0  0  0  0  0  0  0  0  0  0  0  0
    4.8516    7.4462    3.5486 C   0  0  0  0  0  0  0  0  0  0  0  0
    4.5240    7.4657    5.0141 C   0  0  0  0  0  0  0  0  0  0  0  0
  1  2  1  0
  2  3  1  0
  3  4  1  0
  4  5  2  0
  4  6  1  0
  6  1  1  0
  6  7  2  0
  7  8  1  0
  8  9  2  0
  9 10  1  0
 10 11  1  0
 10 12  2  0
 12 13  1  0
 13 14  1  0
 14 15  1  0
 14 16  2  0
 13 17  2  0
 17  8  1  0
  3 18  1  0
 18 19  1  0
 19 20  2  0
 20 21  1  0
 21 22  2  0
 22 23  1  0
 23 24  2  0
 24 19  1  0
 22 25  1  0
 25 26  2  0
 26 27  1  0
 27 28  2  0
 28 29  1  0
 29 30  2  0
 30 25  1  0
  2 31  2  0
 31 32  1  0
 32 33  2  0
 32 34  1  0
 34 35  1  0
 35 36  1  0
 36 34  1  0
M  CHG  2  14   1  15  -1
M  END
$$$$
s_265764____4903266____4564808
     RDKit          3D

 34 40  0  0  0  0  0  0  0  0999 V2000
    1.3505   -0.2484    0.4642 F   0  0  0  0  0  0  0  0  0  0  0  0
    0.4855   -0.1011    1.4638 C   0  0  0  0  0  0  0  0  0  0  0  0
    0.7670    0.7796    2.5041 C   0  0  0  0  0  0  0  0  0  0  0  0
    2.0059    1.5375    2.4987 C   0  0  0  0  0  0  0  0  0  0  0  0
    2.0536    2.8840    2.4950 N   0  0  0  0  0  0  0  0  0  0  0  0
    3.1970    3.5978    2.4935 C   0  0  0  0  0  0  0  0  0  0  0  0
    3.4982    4.8807    2.4805 O   0  0  0  0  0  0  0  0  0  0  0  0
    4.7434    5.0949    2.4928 N   0  0  0  0  0  0  0  0  0  0  0  0
    5.3692    3.9493    2.5053 C   0  0  0  0  0  0  0  0  0  0  0  0
    4.3921    2.9313    2.4970 C   0  0  0  0  0  0  0  0  0  0  0  0
    4.3886    1.5360    2.4984 C   0  0  0  0  0  0  0  0  0  0  0  0
    3.1969    0.8212    2.5003 C   0  0  0  0  0  0  0  0  0  0  0  0
    5.6123    0.7575    2.5000 C   0  0  0  0  0  0  0  0  0  0  0  0
    6.5427    0.7971    3.4226 O   0  0  0  0  0  0  0  0  0  0  0  0
    7.4751   -0.0061    3.1192 N   0  0  0  0  0  0  0  0  0  0  0  0
    7.1735   -0.5910    1.9837 C   0  0  0  0  0  0  0  0  0  0  0  0
    5.9725   -0.1007    1.5797 N   0  0  0  0  0  0  0  0  0  0  0  0
    7.9776   -1.5781    1.2867 C   0  0  0  0  0  0  0  0  0  0  0  0
    7.3515   -2.6725    0.8284 N   0  0  0  0  0  0  0  0  0  0  0  0
    8.0084   -3.6404    0.1718 C   0  0  0  0  0  0  0  0  0  0  0  0
    9.3769   -3.5387   -0.0573 C   0  0  0  0  0  0  0  0  0  0  0  0
   10.0523   -2.4141    0.4071 C   0  0  0  0  0  0  0  0  0  0  0  0
    9.3502   -1.4232    1.0858 C   0  0  0  0  0  0  0  0  0  0  0  0
   10.0589   -0.3116    1.5359 C   0  0  0  0  0  0  0  0  0  0  0  0
   11.4266   -0.1733    1.3240 C   0  0  0  0  0  0  0  0  0  0  0  0
   12.1081   -1.1767    0.6429 C   0  0  0  0  0  0  0  0  0  0  0  0
   11.4211   -2.2965    0.1849 C   0  0  0  0  0  0  0  0  0  0  0  0
    6.8800    3.7778    2.5227 C   0  0  0  0  0  0  0  0  0  0  0  0
    7.5430    4.9248    3.2278 C   0  0  0  0  0  0  0  0  0  0  0  0
    7.5869    4.8386    1.7291 C   0  0  0  0  0  0  0  0  0  0  0  0
   -0.1373    0.9333    3.5490 C   0  0  0  0  0  0  0  0  0  0  0  0
   -1.3243    0.2081    3.5539 C   0  0  0  0  0  0  0  0  0  0  0  0
   -1.6059   -0.6722    2.5139 C   0  0  0  0  0  0  0  0  0  0  0  0
   -0.7013   -0.8262    1.4690 C   0  0  0  0  0  0  0  0  0  0  0  0
  1  2  1  0
  2  3  2  0
  3  4  1  0
  4  5  2  0
  5  6  1  0
  6  7  1  0
  7  8  1  0
  8  9  2  0
  9 10  1  0
 10  6  2  0
 10 11  1  0
 11 12  2  0
 12  4  1  0
 11 13  1  0
 13 14  1  0
 14 15  1  0
 15 16  2  0
 16 17  1  0
 13 17  2  0
 16 18  1  0
 18 19  2  0
 19 20  1  0
 20 21  2  0
 21 22  1  0
 22 23  2  0
 23 18  1  0
 23 24  1  0
 24 25  2  0
 25 26  1  0
 26 27  2  0
 27 22  1  0
  9 28  1  0
 28 29  1  0
 29 30  1  0
 30 28  1  0
  3 31  1  0
 31 32  2  0
 32 33  1  0
 33 34  2  0
 34  2  1  0
M  END
$$$$
m_274972____12934192____12615770____13046836
     RDKit          3D

 32 36  0  0  0  0  0  0  0  0999 V2000
   10.2247    1.6719    2.3661 S   0  0  0  0  0  0  0  0  0  0  0  0
   10.8020    2.8102    3.0328 O   0  0  0  0  0  0  0  0  0  0  0  0
   10.6267    0.4653    3.0415 O   0  0  0  0  0  0  0  0  0  0  0  0
   10.7414    1.6275    0.8208 N   0  0  0  0  0  0  0  0  0  0  0  0
   12.2071    1.5178    0.7972 C   0  0  0  0  0  0  0  0  0  0  0  0
    8.4200    1.8069    2.3952 C   0  0  0  0  0  0  0  0  0  0  0  0
    7.6437    0.6529    2.4108 C   0  0  0  0  0  0  0  0  0  0  0  0
    6.2577    0.7683    2.4333 C   0  0  0  0  0  0  0  0  0  0  0  0
    5.6642    2.0267    2.4390 C   0  0  0  0  0  0  0  0  0  0  0  0
    6.4448    3.1781    2.4235 C   0  0  0  0  0  0  0  0  0  0  0  0
    7.8313    3.0673    2.4012 C   0  0  0  0  0  0  0  0  0  0  0  0
    4.2182    2.1329    2.4615 C   0  0  0  0  0  0  0  0  0  0  0  0
    3.3303    3.5831    2.4714 S   0  0  0  0  0  0  0  0  0  0  0  0
    1.7841    2.8690    2.4950 C   0  0  0  0  0  0  0  0  0  0  0  0
    2.0375    1.5302    2.4908 C   0  0  0  0  0  0  0  0  0  0  0  0
    3.3498    1.1464    2.4729 N   0  0  0  0  0  0  0  0  0  0  0  0
    0.9118    0.6170    2.5150 C   0  0  0  0  0  0  0  0  0  0  0  0
   -0.4029    0.9692    2.5332 N   0  0  0  0  0  0  0  0  0  0  0  0
   -1.0790   -0.0974    2.5525 N   0  0  0  0  0  0  0  0  0  0  0  0
   -0.3062   -1.1554    2.5502 N   0  0  0  0  0  0  0  0  0  0  0  0
    0.9871   -0.7420    2.5276 C   0  0  0  0  0  0  0  0  0  0  0  0
   -0.7634   -2.5524    2.5709 C   0  0  0  0  0  0  0  0  0  0  0  0
   -0.9440   -3.0476    1.1451 C   0  0  0  0  0  0  0  0  0  0  0  0
   -0.0382   -3.6290    0.3997 N   0  0  0  0  0  0  0  0  0  0  0  0
   -0.5278   -3.9149   -0.7388 O   0  0  0  0  0  0  0  0  0  0  0  0
   -1.7816   -3.5424   -0.8105 C   0  0  0  0  0  0  0  0  0  0  0  0
   -2.6566   -3.7106   -1.9573 C   0  0  0  0  0  0  0  0  0  0  0  0
   -3.9173   -3.3370   -2.0316 O   0  0  0  0  0  0  0  0  0  0  0  0
   -4.4238   -3.6452   -3.2037 C   0  0  0  0  0  0  0  0  0  0  0  0
   -3.4478   -4.2530   -3.9349 C   0  0  0  0  0  0  0  0  0  0  0  0
   -2.2874   -4.3013   -3.1288 C   0  0  0  0  0  0  0  0  0  0  0  0
   -2.1206   -2.9713    0.3730 C   0  0  0  0  0  0  0  0  0  0  0  0
  1  2  2  0
  1  3  2  0
  1  4  1  0
  4  5  1  0
  1  6  1  0
  6  7  2  0
  7  8  1  0
  8  9  2  0
  9 10  1  0
 10 11  2  0
 11  6  1  0
  9 12  1  0
 12 13  1  0
 13 14  1  0
 14 15  2  0
 15 16  1  0
 12 16  2  0
 15 17  1  0
 17 18  1  0
 18 19  2  0
 19 20  1  0
 20 21  1  0
 17 21  2  0
 20 22  1  0
 22 23  1  0
 23 24  2  0
 24 25  1  0
 25 26  1  0
 26 27  1  0
 27 28  1  0
 28 29  1  0
 29 30  2  0
 30 31  1  0
 27 31  2  0
 26 32  2  0
 32 23  1  0
M  END
$$$$
s_11a____2263250____1723716
     RDKit          3D

 34 37  0  0  0  0  0  0  0  0999 V2000
   -2.5891   -2.2013    2.5952 S   0  0  0  0  0  0  0  0  0  0  0  0
   -3.7158   -1.5913    1.9379 O   0  0  0  0  0  0  0  0  0  0  0  0
   -2.2359   -3.4186    1.9118 O   0  0  0  0  0  0  0  0  0  0  0  0
   -2.9798   -2.5399    4.1411 N   0  0  0  0  0  0  0  0  0  0  0  0
   -3.3404   -1.2973    4.8388 C   0  0  0  0  0  0  0  0  0  0  0  0
   -2.9884   -1.4230    6.3121 C   0  0  0  0  0  0  0  0  0  0  0  0
   -4.1218   -3.4652    4.1664 C   0  0  0  0  0  0  0  0  0  0  0  0
   -3.6136   -4.8976    4.1593 C   0  0  0  0  0  0  0  0  0  0  0  0
   -1.2375   -1.1062    2.5652 C   0  0  0  0  0  0  0  0  0  0  0  0
   -1.4635    0.2662    2.5668 C   0  0  0  0  0  0  0  0  0  0  0  0
   -0.3757    1.1326    2.5428 C   0  0  0  0  0  0  0  0  0  0  0  0
    0.9190    0.6236    2.5168 C   0  0  0  0  0  0  0  0  0  0  0  0
    1.1401   -0.7499    2.5155 C   0  0  0  0  0  0  0  0  0  0  0  0
    0.0550   -1.6201    2.5396 C   0  0  0  0  0  0  0  0  0  0  0  0
    2.0377    1.5325    2.4911 C   0  0  0  0  0  0  0  0  0  0  0  0
    3.3528    1.1511    2.4644 N   0  0  0  0  0  0  0  0  0  0  0  0
    4.2262    2.1265    2.4440 C   0  0  0  0  0  0  0  0  0  0  0  0
    3.3287    3.5724    2.4687 S   0  0  0  0  0  0  0  0  0  0  0  0
    1.7793    2.8660    2.4982 C   0  0  0  0  0  0  0  0  0  0  0  0
    5.6199    2.0170    2.4168 N   0  0  0  0  0  0  0  0  0  0  0  0
    6.2169    1.0613    1.6377 C   0  0  0  0  0  0  0  0  0  0  0  0
    5.6128    0.5669    0.7263 O   0  0  0  0  0  0  0  0  0  0  0  0
    7.6444    0.6272    1.9276 C   0  0  0  0  0  0  0  0  0  0  0  0
    7.6317   -0.5022    2.8717 N   0  0  0  0  0  0  0  0  0  0  0  0
    7.5799   -1.8117    2.4514 C   0  0  0  0  0  0  0  0  0  0  0  0
    7.5691   -2.8505    3.3800 C   0  0  0  0  0  0  0  0  0  0  0  0
    7.5130   -4.1716    2.9414 C   0  0  0  0  0  0  0  0  0  0  0  0
    7.4687   -4.4949    1.5898 C   0  0  0  0  0  0  0  0  0  0  0  0
    7.4810   -3.4664    0.6538 C   0  0  0  0  0  0  0  0  0  0  0  0
    7.5353   -2.1498    1.0988 C   0  0  0  0  0  0  0  0  0  0  0  0
    7.6142   -2.5287    4.7663 C   0  0  0  0  0  0  0  0  0  0  0  0
    7.6084   -3.3827    5.6399 O   0  0  0  0  0  0  0  0  0  0  0  0
    7.6672   -1.1668    5.1676 C   0  0  0  0  0  0  0  0  0  0  0  0
    7.6746   -0.1892    4.2061 C   0  0  0  0  0  0  0  0  0  0  0  0
  1  2  2  0
  1  3  2  0
  1  4  1  0
  4  5  1  0
  5  6  1  0
  4  7  1  0
  7  8  1  0
  1  9  1  0
  9 10  2  0
 10 11  1  0
 11 12  2  0
 12 13  1  0
 13 14  2  0
 14  9  1  0
 12 15  1  0
 15 16  1  0
 16 17  2  0
 17 18  1  0
 18 19  1  0
 15 19  2  0
 17 20  1  0
 20 21  1  0
 21 22  2  0
 21 23  1  0
 23 24  1  0
 24 25  1  0
 25 26  1  0
 26 27  2  0
 27 28  1  0
 28 29  2  0
 29 30  1  0
 30 25  2  0
 26 31  1  0
 31 32  2  0
 31 33  1  0
 33 34  2  0
 34 24  1  0
M  END
$$$$
m_273170____13187958____10763582____10766558
     RDKit          3D

 40 44  0  0  0  0  0  0  0  0999 V2000
    7.1615   -2.0524    3.8245 S   0  0  0  0  0  0  0  0  0  0  0  0
    7.5449   -0.9459    4.6626 O   0  0  0  0  0  0  0  0  0  0  0  0
    7.0489   -3.2442    4.6249 O   0  0  0  0  0  0  0  0  0  0  0  0
    8.2911   -2.2773    2.6711 N   0  0  0  0  0  0  0  0  0  0  0  0
    8.4061   -1.0606    1.8541 C   0  0  0  0  0  0  0  0  0  0  0  0
    9.5862   -2.5671    3.3034 C   0  0  0  0  0  0  0  0  0  0  0  0
    5.6287   -1.7094    3.0761 C   0  0  0  0  0  0  0  0  0  0  0  0
    5.1351   -0.4092    3.0844 C   0  0  0  0  0  0  0  0  0  0  0  0
    3.9080   -0.1495    2.4826 C   0  0  0  0  0  0  0  0  0  0  0  0
    3.1781   -1.1688    1.8799 C   0  0  0  0  0  0  0  0  0  0  0  0
    3.6897   -2.4624    1.8823 C   0  0  0  0  0  0  0  0  0  0  0  0
    4.9150   -2.7431    2.4781 C   0  0  0  0  0  0  0  0  0  0  0  0
    3.3905    1.2051    2.4893 C   0  0  0  0  0  0  0  0  0  0  0  0
    4.1071    2.3065    2.4903 N   0  0  0  0  0  0  0  0  0  0  0  0
    3.2789    3.3271    2.4974 N   0  0  0  0  0  0  0  0  0  0  0  0
    2.0315    2.9267    2.5008 C   0  0  0  0  0  0  0  0  0  0  0  0
    2.0806    1.5694    2.4959 N   0  0  0  0  0  0  0  0  0  0  0  0
    0.9245    0.6605    2.4981 C   0  0  0  0  0  0  0  0  0  0  0  0
    0.6097    0.2438    3.9269 C   0  0  0  0  0  0  0  0  0  0  0  0
    1.4512   -0.4170    4.7777 N   0  0  0  0  0  0  0  0  0  0  0  0
    0.7849   -0.5948    5.8989 C   0  0  0  0  0  0  0  0  0  0  0  0
   -0.4225   -0.0652    5.7865 O   0  0  0  0  0  0  0  0  0  0  0  0
   -0.5751    0.4485    4.5802 C   0  0  0  0  0  0  0  0  0  0  0  0
    1.3189   -1.2671    7.0687 C   0  0  0  0  0  0  0  0  0  0  0  0
    0.7907   -0.9887    8.3252 C   0  0  0  0  0  0  0  0  0  0  0  0
    1.3068   -1.6353    9.4431 C   0  0  0  0  0  0  0  0  0  0  0  0
    2.3426   -2.5519    9.2921 C   0  0  0  0  0  0  0  0  0  0  0  0
    2.8687   -2.8316    8.0346 C   0  0  0  0  0  0  0  0  0  0  0  0
    2.3535   -2.1839    6.9166 C   0  0  0  0  0  0  0  0  0  0  0  0
    2.9035   -3.2544   10.5181 C   0  0  0  0  0  0  0  0  0  0  0  0
    0.8788    3.7382    2.5048 N   0  0  0  0  0  0  0  0  0  0  0  0
    0.9154    5.1444    2.9315 C   0  0  0  0  0  0  0  0  0  0  0  0
   -0.4663    5.5153    3.4474 C   0  0  0  0  0  0  0  0  0  0  0  0
   -1.4441    5.4733    2.4133 O   0  0  0  0  0  0  0  0  0  0  0  0
   -1.2521    4.4040    1.4941 C   0  0  0  0  0  0  0  0  0  0  0  0
   -0.4436    3.2526    2.0812 C   0  0  0  0  0  0  0  0  0  0  0  0
   -0.4371    6.9246    4.0173 C   0  0  0  0  0  0  0  0  0  0  0  0
    0.6138    7.0557    4.8218 F   0  0  0  0  0  0  0  0  0  0  0  0
   -0.3464    7.8031    3.0229 F   0  0  0  0  0  0  0  0  0  0  0  0
   -1.5530    7.1477    4.7056 F   0  0  0  0  0  0  0  0  0  0  0  0
  1  2  2  0
  1  3  2  0
  1  4  1  0
  4  5  1  0
  4  6  1  0
  1  7  1  0
  7  8  2  0
  8  9  1  0
  9 10  2  0
 10 11  1  0
 11 12  2  0
 12  7  1  0
  9 13  1  0
 13 14  2  0
 14 15  1  0
 15 16  2  0
 16 17  1  0
 17 13  1  0
 17 18  1  0
 18 19  1  0
 19 20  1  0
 20 21  2  0
 21 22  1  0
 22 23  1  0
 19 23  2  0
 21 24  1  0
 24 25  2  0
 25 26  1  0
 26 27  2  0
 27 28  1  0
 28 29  2  0
 29 24  1  0
 27 30  1  0
 16 31  1  0
 31 32  1  0
 32 33  1  0
 33 34  1  0
 34 35  1  0
 35 36  1  0
 36 31  1  0
 33 37  1  0
 37 38  1  0
 37 39  1  0
 37 40  1  0
M  END
$$$$
m_274972____12934092____12615770____13047176
     RDKit          3D

 35 40  0  0  0  0  0  0  0  0999 V2000
    5.4654   -1.9799    2.3778 S   0  0  0  0  0  0  0  0  0  0  0  0
    3.8152   -2.3901    2.3857 C   0  0  0  0  0  0  0  0  0  0  0  0
    3.1361   -1.2652    2.4150 N   0  0  0  0  0  0  0  0  0  0  0  0
    3.8973   -0.1294    2.4325 C   0  0  0  0  0  0  0  0  0  0  0  0
    3.3679    1.2133    2.4745 C   0  0  0  0  0  0  0  0  0  0  0  0
    4.0997    2.3609    2.4928 N   0  0  0  0  0  0  0  0  0  0  0  0
    3.2864    3.3264    2.5304 N   0  0  0  0  0  0  0  0  0  0  0  0
    2.0449    2.9079    2.5406 N   0  0  0  0  0  0  0  0  0  0  0  0
    2.0495    1.5504    2.5067 C   0  0  0  0  0  0  0  0  0  0  0  0
    0.8508    3.7642    2.5836 C   0  0  0  0  0  0  0  0  0  0  0  0
    0.4146    4.0972    1.1656 C   0  0  0  0  0  0  0  0  0  0  0  0
   -0.5066    3.2531    0.4889 C   0  0  0  0  0  0  0  0  0  0  0  0
   -0.9277    2.2819    1.0540 O   0  0  0  0  0  0  0  0  0  0  0  0
   -0.8953    3.5603   -0.7900 N   0  0  0  0  0  0  0  0  0  0  0  0
   -0.4038    4.6768   -1.4254 C   0  0  0  0  0  0  0  0  0  0  0  0
    0.4991    5.5194   -0.7827 C   0  0  0  0  0  0  0  0  0  0  0  0
    1.0149    6.6550   -1.3979 C   0  0  0  0  0  0  0  0  0  0  0  0
    0.6132    6.9558   -2.6951 C   0  0  0  0  0  0  0  0  0  0  0  0
   -0.2873    6.1395   -3.3712 C   0  0  0  0  0  0  0  0  0  0  0  0
   -0.7810    5.0124   -2.7237 C   0  0  0  0  0  0  0  0  0  0  0  0
    0.9098    5.2115    0.5408 C   0  0  0  0  0  0  0  0  0  0  0  0
   -1.8502    2.6518   -1.4411 C   0  0  0  0  0  0  0  0  0  0  0  0
    5.2502   -0.2907    2.4182 C   0  0  0  0  0  0  0  0  0  0  0  0
    3.2784   -3.7367    2.3590 C   0  0  0  0  0  0  0  0  0  0  0  0
    1.9001   -3.9248    2.3692 C   0  0  0  0  0  0  0  0  0  0  0  0
    1.3976   -5.2214    2.3415 C   0  0  0  0  0  0  0  0  0  0  0  0
    2.2502   -6.3199    2.3049 C   0  0  0  0  0  0  0  0  0  0  0  0
    3.6246   -6.1069    2.2952 C   0  0  0  0  0  0  0  0  0  0  0  0
    4.1503   -4.8197    2.3219 C   0  0  0  0  0  0  0  0  0  0  0  0
   -0.0377   -5.4260    2.3522 C   0  0  0  0  0  0  0  0  0  0  0  0
   -0.6400   -6.5912    2.3290 O   0  0  0  0  0  0  0  0  0  0  0  0
   -1.9301   -6.3519    2.3461 C   0  0  0  0  0  0  0  0  0  0  0  0
   -2.1246   -5.0537    2.3810 N   0  0  0  0  0  0  0  0  0  0  0  0
   -0.9445   -4.4765    2.3854 N   0  0  0  0  0  0  0  0  0  0  0  0
   -2.9862   -7.3743    2.3296 N   0  0  0  0  0  0  0  0  0  0  0  0
  1  2  1  0
  2  3  2  0
  3  4  1  0
  4  5  1  0
  5  6  1  0
  6  7  2  0
  7  8  1  0
  8  9  1  0
  5  9  2  0
  8 10  1  0
 10 11  1  0
 11 12  1  0
 12 13  2  0
 12 14  1  0
 14 15  1  0
 15 16  2  0
 16 17  1  0
 17 18  2  0
 18 19  1  0
 19 20  2  0
 20 15  1  0
 16 21  1  0
 11 21  2  0
 14 22  1  0
  4 23  2  0
 23  1  1  0
  2 24  1  0
 24 25  2  0
 25 26  1  0
 26 27  2  0
 27 28  1  0
 28 29  2  0
 29 24  1  0
 26 30  1  0
 30 31  1  0
 31 32  1  0
 32 33  2  0
 33 34  1  0
 30 34  2  0
 32 35  1  0
M  END
$$$$
s_11a____6885834____132801
     RDKit          3D

 33 37  0  0  0  0  0  0  0  0999 V2000
    0.0767    3.3082    2.3230 S   0  0  0  0  0  0  0  0  0  0  0  0
   -0.8545    4.4785    1.5085 C   0  0  0  0  0  0  0  0  0  0  0  0
   -1.3612    5.6551    2.0730 N   0  0  0  0  0  0  0  0  0  0  0  0
   -0.4512    6.7856    2.3150 C   0  0  0  0  0  0  0  0  0  0  0  0
   -1.1737    8.1130    2.1442 C   0  0  0  0  0  0  0  0  0  0  0  0
   -2.4315    8.1098    2.8072 O   0  0  0  0  0  0  0  0  0  0  0  0
   -3.3096    7.1611    2.2156 C   0  0  0  0  0  0  0  0  0  0  0  0
   -2.7954    5.7400    2.3880 C   0  0  0  0  0  0  0  0  0  0  0  0
   -1.0114    4.0566    0.2224 C   0  0  0  0  0  0  0  0  0  0  0  0
   -1.7606    4.8266   -0.7518 C   0  0  0  0  0  0  0  0  0  0  0  0
   -1.2448    6.0291   -1.2240 C   0  0  0  0  0  0  0  0  0  0  0  0
   -1.9671    6.7649   -2.1578 C   0  0  0  0  0  0  0  0  0  0  0  0
   -3.1949    6.2962   -2.6135 C   0  0  0  0  0  0  0  0  0  0  0  0
   -3.7001    5.0935   -2.1352 C   0  0  0  0  0  0  0  0  0  0  0  0
   -2.9877    4.3488   -1.2009 C   0  0  0  0  0  0  0  0  0  0  0  0
   -0.3796    2.8165   -0.0538 C   0  0  0  0  0  0  0  0  0  0  0  0
    0.2745    2.2566    1.0000 C   0  0  0  0  0  0  0  0  0  0  0  0
    1.0000    1.0000    1.0000 C   0  0  0  0  0  0  0  0  0  0  0  0
    0.4000   -0.0392    1.0000 O   0  0  0  0  0  0  0  0  0  0  0  0
    2.3700    1.0000    1.0000 N   0  0  0  0  0  0  0  0  0  0  0  0
    3.0717    2.2153    1.0000 C   0  0  0  0  0  0  0  0  0  0  0  0
    3.4379    2.8496    2.1267 N   0  0  0  0  0  0  0  0  0  0  0  0
    4.0844    3.9708    2.1150 N   0  0  0  0  0  0  0  0  0  0  0  0
    4.4396    4.5871    0.9751 C   0  0  0  0  0  0  0  0  0  0  0  0
    5.1638    5.8433    0.9468 C   0  0  0  0  0  0  0  0  0  0  0  0
    5.4960    6.4198   -0.2748 C   0  0  0  0  0  0  0  0  0  0  0  0
    6.1914    7.6244   -0.2974 C   0  0  0  0  0  0  0  0  0  0  0  0
    6.5482    8.2440    0.8957 C   0  0  0  0  0  0  0  0  0  0  0  0
    6.2106    7.6592    2.1100 C   0  0  0  0  0  0  0  0  0  0  0  0
    5.5159    6.4546    2.1460 C   0  0  0  0  0  0  0  0  0  0  0  0
    4.0974    3.9953   -0.2360 C   0  0  0  0  0  0  0  0  0  0  0  0
    3.4029    2.7906   -0.2222 C   0  0  0  0  0  0  0  0  0  0  0  0
    3.1050   -0.2731    1.0000 C   0  0  0  0  0  0  0  0  0  0  0  0
  1  2  1  0
  2  3  1  0
  3  4  1  0
  4  5  1  0
  5  6  1  0
  6  7  1  0
  7  8  1  0
  8  3  1  0
  2  9  2  0
  9 10  1  0
 10 11  2  0
 11 12  1  0
 12 13  2  0
 13 14  1  0
 14 15  2  0
 15 10  1  0
  9 16  1  0
 16 17  2  0
 17  1  1  0
 17 18  1  0
 18 19  2  0
 18 20  1  0
 20 21  1  0
 21 22  2  0
 22 23  1  0
 23 24  2  0
 24 25  1  0
 25 26  2  0
 26 27  1  0
 27 28  2  0
 28 29  1  0
 29 30  2  0
 30 25  1  0
 24 31  1  0
 31 32  2  0
 32 21  1  0
 20 33  1  0
M  END
$$$$
m_274972____12933802____12615770____13046596
     RDKit          3D

 26 30  0  0  0  0  0  0  0  0999 V2000
    5.4479   -1.9963    2.4324 S   0  0  0  0  0  0  0  0  0  0  0  0
    3.7977   -2.4130    2.4276 C   0  0  0  0  0  0  0  0  0  0  0  0
    3.1335   -1.2847    2.4477 N   0  0  0  0  0  0  0  0  0  0  0  0
    3.8960   -0.1472    2.4591 C   0  0  0  0  0  0  0  0  0  0  0  0
    3.3663    1.2031    2.4818 C   0  0  0  0  0  0  0  0  0  0  0  0
    4.0969    2.3529    2.4937 N   0  0  0  0  0  0  0  0  0  0  0  0
    3.2911    3.3246    2.5132 N   0  0  0  0  0  0  0  0  0  0  0  0
    2.0497    2.9042    2.5096 N   0  0  0  0  0  0  0  0  0  0  0  0
    0.9116    3.7217    2.5251 C   0  0  0  0  0  0  0  0  0  0  0  0
   -0.0342    3.6621    3.5461 C   0  0  0  0  0  0  0  0  0  0  0  0
   -1.1459    4.4999    3.5081 C   0  0  0  0  0  0  0  0  0  0  0  0
   -1.3185    5.3960    2.4579 C   0  0  0  0  0  0  0  0  0  0  0  0
   -0.3722    5.4536    1.4396 C   0  0  0  0  0  0  0  0  0  0  0  0
    0.7394    4.6176    1.4750 C   0  0  0  0  0  0  0  0  0  0  0  0
   -2.1074    4.4656    4.5117 C   0  0  0  0  0  0  0  0  0  0  0  0
   -1.9525    3.5770    5.5704 C   0  0  0  0  0  0  0  0  0  0  0  0
   -0.8531    2.7275    5.6361 C   0  0  0  0  0  0  0  0  0  0  0  0
    0.0937    2.7831    4.6192 C   0  0  0  0  0  0  0  0  0  0  0  0
    2.0516    1.5447    2.4890 C   0  0  0  0  0  0  0  0  0  0  0  0
    5.2451   -0.3055    2.4531 C   0  0  0  0  0  0  0  0  0  0  0  0
    3.2697   -3.7094    2.4143 N   0  0  0  0  0  0  0  0  0  0  0  0
    1.8096   -3.8904    2.4120 C   0  0  0  0  0  0  0  0  0  0  0  0
    1.4159   -5.1348    1.6311 C   0  0  0  0  0  0  0  0  0  0  0  0
    2.2298   -6.2472    1.9802 O   0  0  0  0  0  0  0  0  0  0  0  0
    3.5819   -6.0187    1.6052 C   0  0  0  0  0  0  0  0  0  0  0  0
    4.1880   -4.8578    2.3790 C   0  0  0  0  0  0  0  0  0  0  0  0
  1  2  1  0
  2  3  2  0
  3  4  1  0
  4  5  1  0
  5  6  1  0
  6  7  2  0
  7  8  1  0
  8  9  1  0
  9 10  2  0
 10 11  1  0
 11 12  2  0
 12 13  1  0
 13 14  2  0
 14  9  1  0
 11 15  1  0
 15 16  2  0
 16 17  1  0
 17 18  2  0
 18 10  1  0
  8 19  1  0
  5 19  2  0
  4 20  2  0
 20  1  1  0
  2 21  1  0
 21 22  1  0
 22 23  1  0
 23 24  1  0
 24 25  1  0
 25 26  1  0
 26 21  1  0
M  END
$$$$
m_274972____12933802____12615770____13046748
     RDKit          3D

 26 30  0  0  0  0  0  0  0  0999 V2000
    5.4512   -1.9733    2.3720 S   0  0  0  0  0  0  0  0  0  0  0  0
    3.8017   -2.3928    2.3767 C   0  0  0  0  0  0  0  0  0  0  0  0
    3.1357   -1.2661    2.4149 N   0  0  0  0  0  0  0  0  0  0  0  0
    3.8964   -0.1273    2.4326 C   0  0  0  0  0  0  0  0  0  0  0  0
    3.3679    1.2133    2.4745 C   0  0  0  0  0  0  0  0  0  0  0  0
    4.0997    2.3609    2.4928 N   0  0  0  0  0  0  0  0  0  0  0  0
    3.2864    3.3264    2.5304 N   0  0  0  0  0  0  0  0  0  0  0  0
    2.0449    2.9079    2.5406 N   0  0  0  0  0  0  0  0  0  0  0  0
    2.0495    1.5504    2.5067 C   0  0  0  0  0  0  0  0  0  0  0  0
    0.8508    3.7642    2.5836 C   0  0  0  0  0  0  0  0  0  0  0  0
    0.4146    4.0972    1.1657 C   0  0  0  0  0  0  0  0  0  0  0  0
   -0.4600    3.3689    0.4136 N   0  0  0  0  0  0  0  0  0  0  0  0
   -0.5845    3.9701   -0.7466 C   0  0  0  0  0  0  0  0  0  0  0  0
    0.1944    5.0789   -0.7651 N   0  0  0  0  0  0  0  0  0  0  0  0
    0.8308    5.1692    0.4371 C   0  0  0  0  0  0  0  0  0  0  0  0
    0.2421    5.8854   -1.8730 C   0  0  0  0  0  0  0  0  0  0  0  0
   -0.5005    5.5822   -2.9850 C   0  0  0  0  0  0  0  0  0  0  0  0
   -1.3265    4.4259   -2.9942 C   0  0  0  0  0  0  0  0  0  0  0  0
   -1.3652    3.6271   -1.8816 C   0  0  0  0  0  0  0  0  0  0  0  0
    5.2456   -0.2831    2.4133 C   0  0  0  0  0  0  0  0  0  0  0  0
    3.2759   -3.6900    2.3534 N   0  0  0  0  0  0  0  0  0  0  0  0
    1.8161   -3.8736    2.3615 C   0  0  0  0  0  0  0  0  0  0  0  0
    1.4180   -5.1100    1.5703 C   0  0  0  0  0  0  0  0  0  0  0  0
    2.2367   -6.2247    1.9000 O   0  0  0  0  0  0  0  0  0  0  0  0
    3.5851   -5.9896    1.5161 C   0  0  0  0  0  0  0  0  0  0  0  0
    4.1959   -4.8362    2.2975 C   0  0  0  0  0  0  0  0  0  0  0  0
  1  2  1  0
  2  3  2  0
  3  4  1  0
  4  5  1  0
  5  6  1  0
  6  7  2  0
  7  8  1  0
  8  9  1  0
  5  9  2  0
  8 10  1  0
 10 11  1  0
 11 12  1  0
 12 13  2  0
 13 14  1  0
 14 15  1  0
 11 15  2  0
 14 16  1  0
 16 17  2  0
 17 18  1  0
 18 19  2  0
 19 13  1  0
  4 20  2  0
 20  1  1  0
  2 21  1  0
 21 22  1  0
 22 23  1  0
 23 24  1  0
 24 25  1  0
 25 26  1  0
 26 21  1  0
M  END
$$$$
m_274860a____17158546____17212876____15233762
     RDKit          3D

 36 39  0  0  0  0  0  0  0  0999 V2000
    3.9524   -3.1939   -1.7292 S   0  0  0  0  0  0  0  0  0  0  0  0
    3.7316   -4.6073   -1.5645 O   0  0  0  0  0  0  0  0  0  0  0  0
    3.0515   -2.6806   -2.7285 O   0  0  0  0  0  0  0  0  0  0  0  0
    5.4912   -2.9358   -2.2008 N   0  0  0  0  0  0  0  0  0  0  0  0
    5.7166   -1.4929   -2.3690 C   0  0  0  0  0  0  0  0  0  0  0  0
    7.1515   -1.2522   -2.8087 C   0  0  0  0  0  0  0  0  0  0  0  0
    3.6651   -2.3818   -0.2171 C   0  0  0  0  0  0  0  0  0  0  0  0
    3.2018   -1.0700   -0.2159 C   0  0  0  0  0  0  0  0  0  0  0  0
    2.9767   -0.4332    1.0000 C   0  0  0  0  0  0  0  0  0  0  0  0
    3.2073   -1.0894    2.2045 C   0  0  0  0  0  0  0  0  0  0  0  0
    3.6705   -2.4010    2.1810 C   0  0  0  0  0  0  0  0  0  0  0  0
    3.9026   -3.0562    0.9760 C   0  0  0  0  0  0  0  0  0  0  0  0
    2.4700    1.0000    1.0000 C   0  0  0  0  0  0  0  0  0  0  0  0
    1.0000    1.0000    1.0000 N   0  0  0  0  0  0  0  0  0  0  0  0
    0.3150    1.0000    2.1865 C   0  0  0  0  0  0  0  0  0  0  0  0
    0.9150    1.0000    3.2257 O   0  0  0  0  0  0  0  0  0  0  0  0
   -1.2050    1.0000    2.1865 C   0  0  0  0  0  0  0  0  0  0  0  0
   -1.6950    2.2002    1.4935 N   0  0  0  0  0  0  0  0  0  0  0  0
   -2.4514    2.2108    0.4238 N   0  0  0  0  0  0  0  0  0  0  0  0
   -2.7144    3.3897    0.0549 N   0  0  0  0  0  0  0  0  0  0  0  0
   -2.0981    4.2352    0.9257 C   0  0  0  0  0  0  0  0  0  0  0  0
   -2.1358    5.6860    0.8766 C   0  0  0  0  0  0  0  0  0  0  0  0
   -2.6436    6.4683    1.9148 C   0  0  0  0  0  0  0  0  0  0  0  0
   -2.6444    7.8558    1.7950 C   0  0  0  0  0  0  0  0  0  0  0  0
   -2.1323    8.4178    0.6295 C   0  0  0  0  0  0  0  0  0  0  0  0
   -1.6501    7.6461   -0.3562 N   0  0  0  0  0  0  0  0  0  0  0  0
   -1.6392    6.3079   -0.2636 C   0  0  0  0  0  0  0  0  0  0  0  0
   -3.1409    8.6671    2.8097 C   0  0  0  0  0  0  0  0  0  0  0  0
   -3.6453    8.0804    3.9653 C   0  0  0  0  0  0  0  0  0  0  0  0
   -3.6588    6.6986    4.1167 C   0  0  0  0  0  0  0  0  0  0  0  0
   -3.1565    5.9124    3.0857 C   0  0  0  0  0  0  0  0  0  0  0  0
   -1.4430    3.4851    1.8535 C   0  0  0  0  0  0  0  0  0  0  0  0
   -1.7117    1.0000    3.6195 C   0  0  0  0  0  0  0  0  0  0  0  0
   -3.1317    1.0000    3.6195 O   0  0  0  0  0  0  0  0  0  0  0  0
   -3.6050    1.0000    4.9583 C   0  0  0  0  0  0  0  0  0  0  0  0
   -3.7739   -0.4331    5.4360 C   0  0  0  0  0  0  0  0  0  0  0  0
  1  2  2  0
  1  3  2  0
  1  4  1  0
  4  5  1  0
  5  6  1  0
  1  7  1  0
  7  8  2  0
  8  9  1  0
  9 10  2  0
 10 11  1  0
 11 12  2  0
 12  7  1  0
  9 13  1  0
 13 14  1  0
 14 15  1  0
 15 16  2  0
 15 17  1  0
 17 18  1  0
 18 19  1  0
 19 20  2  0
 20 21  1  0
 21 22  1  0
 22 23  2  0
 23 24  1  0
 24 25  2  0
 25 26  1  0
 26 27  2  0
 27 22  1  0
 24 28  1  0
 28 29  2  0
 29 30  1  0
 30 31  2  0
 31 23  1  0
 21 32  2  0
 32 18  1  0
 17 33  1  0
 33 34  1  0
 34 35  1  0
 35 36  1  0
M  END
$$$$
m_270942____9828442____15151558____14478696
     RDKit          3D

 37 42  0  0  0  0  0  0  0  0999 V2000
   -3.3593    1.2153    5.4652 S   0  0  0  0  0  0  0  0  0  0  0  0
   -4.4693   -0.0025    5.8604 C   0  0  0  0  0  0  0  0  0  0  0  0
   -5.5522    0.2733    6.7103 C   0  0  0  0  0  0  0  0  0  0  0  0
   -6.3813   -0.8083    6.9503 C   0  0  0  0  0  0  0  0  0  0  0  0
   -6.1086   -2.0237    6.3724 N   0  0  0  0  0  0  0  0  0  0  0  0
   -5.0273   -2.2185    5.5496 C   0  0  0  0  0  0  0  0  0  0  0  0
   -4.8359   -3.3229    5.0644 O   0  0  0  0  0  0  0  0  0  0  0  0
   -4.1260   -1.1601    5.2518 C   0  0  0  0  0  0  0  0  0  0  0  0
   -2.9487   -1.0217    4.4634 C   0  0  0  0  0  0  0  0  0  0  0  0
   -2.3974    0.2231    4.4725 C   0  0  0  0  0  0  0  0  0  0  0  0
   -1.2065    0.6599    3.7721 C   0  0  0  0  0  0  0  0  0  0  0  0
   -0.2231    1.3648    4.2845 N   0  0  0  0  0  0  0  0  0  0  0  0
    0.6692    1.5596    3.3392 N   0  0  0  0  0  0  0  0  0  0  0  0
    0.2992    1.0000    2.2139 C   0  0  0  0  0  0  0  0  0  0  0  0
   -0.9010    0.4177    2.4696 N   0  0  0  0  0  0  0  0  0  0  0  0
   -1.7201   -0.3369    1.5092 C   0  0  0  0  0  0  0  0  0  0  0  0
   -1.0367   -1.6587    1.1879 C   0  0  0  0  0  0  0  0  0  0  0  0
   -1.6216   -2.8313    1.9547 C   0  0  0  0  0  0  0  0  0  0  0  0
   -1.2383   -3.9637    1.1939 O   0  0  0  0  0  0  0  0  0  0  0  0
   -1.0217   -3.5694   -0.1525 C   0  0  0  0  0  0  0  0  0  0  0  0
   -1.3365   -2.0913   -0.2320 C   0  0  0  0  0  0  0  0  0  0  0  0
    1.0000    1.0000    1.0000 N   0  0  0  0  0  0  0  0  0  0  0  0
    2.4700    1.0000    1.0000 C   0  0  0  0  0  0  0  0  0  0  0  0
    2.9767   -0.4113    0.7512 C   0  0  0  0  0  0  0  0  0  0  0  0
    3.5947   -0.7085   -0.4593 C   0  0  0  0  0  0  0  0  0  0  0  0
    4.0579   -2.0009   -0.6848 C   0  0  0  0  0  0  0  0  0  0  0  0
    3.9010   -2.9763    0.2943 C   0  0  0  0  0  0  0  0  0  0  0  0
    4.3687   -4.2761    0.0649 N   0  0  0  0  0  0  0  0  0  0  0  0
    4.6312   -5.0051    1.0072 O   0  0  0  0  0  0  0  0  0  0  0  0
    4.5126   -4.6761   -1.0680 O   0  0  0  0  0  0  0  0  0  0  0  0
    3.2829   -2.6760    1.5037 C   0  0  0  0  0  0  0  0  0  0  0  0
    2.8186   -1.3848    1.7320 C   0  0  0  0  0  0  0  0  0  0  0  0
    0.2650    1.0000   -0.2731 C   0  0  0  0  0  0  0  0  0  0  0  0
   -7.4613   -0.5676    7.7882 C   0  0  0  0  0  0  0  0  0  0  0  0
   -7.6737    0.6913    8.3408 C   0  0  0  0  0  0  0  0  0  0  0  0
   -6.8144    1.7522    8.0714 C   0  0  0  0  0  0  0  0  0  0  0  0
   -5.7251    1.5455    7.2374 C   0  0  0  0  0  0  0  0  0  0  0  0
  1  2  1  0
  2  3  1  0
  3  4  2  0
  4  5  1  0
  5  6  1  0
  6  7  2  0
  6  8  1  0
  2  8  2  0
  8  9  1  0
  9 10  2  0
 10  1  1  0
 10 11  1  0
 11 12  2  0
 12 13  1  0
 13 14  2  0
 14 15  1  0
 15 11  1  0
 15 16  1  0
 16 17  1  0
 17 18  1  0
 18 19  1  0
 19 20  1  0
 20 21  1  0
 21 17  1  0
 14 22  1  0
 22 23  1  0
 23 24  1  0
 24 25  2  0
 25 26  1  0
 26 27  2  0
 27 28  1  0
 28 29  1  0
 28 30  2  0
 27 31  1  0
 31 32  2  0
 32 24  1  0
 22 33  1  0
  4 34  1  0
 34 35  2  0
 35 36  1  0
 36 37  2  0
 37  3  1  0
M  CHG  2  28   1  29  -1
M  END
$$$$
m_274972____12934254____12615770____14723110
     RDKit          3D

 34 38  0  0  0  0  0  0  0  0999 V2000
    0.4648    3.7275    2.5286 S   0  0  0  0  0  0  0  0  0  0  0  0
    0.6112    4.9918    1.8552 O   0  0  0  0  0  0  0  0  0  0  0  0
   -0.5328    2.9373    1.8547 O   0  0  0  0  0  0  0  0  0  0  0  0
    0.0043    3.9835    4.0711 N   0  0  0  0  0  0  0  0  0  0  0  0
    1.0227    4.7901    4.7590 C   0  0  0  0  0  0  0  0  0  0  0  0
   -1.2799    4.6986    4.0868 C   0  0  0  0  0  0  0  0  0  0  0  0
    1.9848    2.8811    2.5100 C   0  0  0  0  0  0  0  0  0  0  0  0
    3.1740    3.6024    2.5029 C   0  0  0  0  0  0  0  0  0  0  0  0
    4.3836    2.9156    2.4883 C   0  0  0  0  0  0  0  0  0  0  0  0
    4.3937    1.5243    2.4800 C   0  0  0  0  0  0  0  0  0  0  0  0
    3.2017    0.8072    2.4872 C   0  0  0  0  0  0  0  0  0  0  0  0
    1.9898    1.4900    2.5021 C   0  0  0  0  0  0  0  0  0  0  0  0
    5.6630    0.8199    2.4636 C   0  0  0  0  0  0  0  0  0  0  0  0
    7.2005    1.5463    2.4531 S   0  0  0  0  0  0  0  0  0  0  0  0
    8.1025    0.1015    2.4387 C   0  0  0  0  0  0  0  0  0  0  0  0
    7.1568   -0.8795    2.4461 C   0  0  0  0  0  0  0  0  0  0  0  0
    5.8488   -0.4812    2.4593 N   0  0  0  0  0  0  0  0  0  0  0  0
    7.5984   -2.2612    2.4297 C   0  0  0  0  0  0  0  0  0  0  0  0
    8.7587   -2.7403    2.9589 N   0  0  0  0  0  0  0  0  0  0  0  0
    8.7949   -3.9852    2.7515 N   0  0  0  0  0  0  0  0  0  0  0  0
    7.7215   -4.3858    2.1150 N   0  0  0  0  0  0  0  0  0  0  0  0
    7.4449   -5.7042    1.7327 C   0  0  0  0  0  0  0  0  0  0  0  0
    7.3431   -6.7249    2.6728 C   0  0  0  0  0  0  0  0  0  0  0  0
    7.5242   -6.4339    4.0820 C   0  0  0  0  0  0  0  0  0  0  0  0
    6.5624   -5.6939    4.7619 C   0  0  0  0  0  0  0  0  0  0  0  0
    6.7404   -5.4163    6.1134 C   0  0  0  0  0  0  0  0  0  0  0  0
    7.8730   -5.8790    6.7752 C   0  0  0  0  0  0  0  0  0  0  0  0
    8.8268   -6.6177    6.0859 C   0  0  0  0  0  0  0  0  0  0  0  0
    8.6607   -6.9014    4.7343 C   0  0  0  0  0  0  0  0  0  0  0  0
    7.0670   -8.0247    2.2608 C   0  0  0  0  0  0  0  0  0  0  0  0
    6.8943   -8.3040    0.9091 C   0  0  0  0  0  0  0  0  0  0  0  0
    6.9962   -7.2834   -0.0305 C   0  0  0  0  0  0  0  0  0  0  0  0
    7.2716   -5.9834    0.3816 C   0  0  0  0  0  0  0  0  0  0  0  0
    6.9236   -3.3084    1.8881 C   0  0  0  0  0  0  0  0  0  0  0  0
  1  2  2  0
  1  3  2  0
  1  4  1  0
  4  5  1  0
  4  6  1  0
  1  7  1  0
  7  8  2  0
  8  9  1  0
  9 10  2  0
 10 11  1  0
 11 12  2  0
 12  7  1  0
 10 13  1  0
 13 14  1  0
 14 15  1  0
 15 16  2  0
 16 17  1  0
 13 17  2  0
 16 18  1  0
 18 19  1  0
 19 20  2  0
 20 21  1  0
 21 22  1  0
 22 23  1  0
 23 24  1  0
 24 25  2  0
 25 26  1  0
 26 27  2  0
 27 28  1  0
 28 29  2  0
 29 24  1  0
 23 30  2  0
 30 31  1  0
 31 32  2  0
 32 33  1  0
 33 22  2  0
 21 34  1  0
 18 34  2  0
M  END
$$$$
m_274972____12934338____12615770____13047098
     RDKit          3D

 34 38  0  0  0  0  0  0  0  0999 V2000
    7.2001    1.5470    2.4514 S   0  0  0  0  0  0  0  0  0  0  0  0
    5.6629    0.8199    2.4636 C   0  0  0  0  0  0  0  0  0  0  0  0
    5.8493   -0.4811    2.4614 N   0  0  0  0  0  0  0  0  0  0  0  0
    7.1575   -0.8788    2.4485 C   0  0  0  0  0  0  0  0  0  0  0  0
    7.5993   -2.2594    2.4343 C   0  0  0  0  0  0  0  0  0  0  0  0
    8.8922   -2.6848    2.4121 N   0  0  0  0  0  0  0  0  0  0  0  0
    8.8739   -3.9476    2.4047 N   0  0  0  0  0  0  0  0  0  0  0  0
    7.6479   -4.4098    2.4188 N   0  0  0  0  0  0  0  0  0  0  0  0
    6.7922   -3.3555    2.4369 C   0  0  0  0  0  0  0  0  0  0  0  0
    7.2656   -5.8290    2.4137 C   0  0  0  0  0  0  0  0  0  0  0  0
    7.1544   -6.3290    3.8448 C   0  0  0  0  0  0  0  0  0  0  0  0
    6.7718   -7.7489    3.8397 N   0  0  0  0  0  0  0  0  0  0  0  0
    7.7217   -8.7389    3.8187 C   0  0  0  0  0  0  0  0  0  0  0  0
    8.8980   -8.4091    3.8030 O   0  0  0  0  0  0  0  0  0  0  0  0
    7.3226  -10.1052    3.8148 C   0  0  0  0  0  0  0  0  0  0  0  0
    5.9630  -10.4047    3.8328 C   0  0  0  0  0  0  0  0  0  0  0  0
    5.5226  -11.7241    3.8303 C   0  0  0  0  0  0  0  0  0  0  0  0
    6.4562  -12.7546    3.8091 C   0  0  0  0  0  0  0  0  0  0  0  0
    7.8205  -12.4833    3.7906 C   0  0  0  0  0  0  0  0  0  0  0  0
    8.2362  -11.1566    3.7929 C   0  0  0  0  0  0  0  0  0  0  0  0
    5.0037   -9.3563    3.8546 C   0  0  0  0  0  0  0  0  0  0  0  0
    5.4356   -8.0548    3.8576 C   0  0  0  0  0  0  0  0  0  0  0  0
    8.1028    0.1026    2.4391 C   0  0  0  0  0  0  0  0  0  0  0  0
    4.3934    1.5238    2.4792 C   0  0  0  0  0  0  0  0  0  0  0  0
    4.3898    2.9144    2.4850 C   0  0  0  0  0  0  0  0  0  0  0  0
    3.1783    3.5981    2.5011 C   0  0  0  0  0  0  0  0  0  0  0  0
    1.9856    2.8824    2.5103 C   0  0  0  0  0  0  0  0  0  0  0  0
    0.8052    3.5371    2.5243 O   0  0  0  0  0  0  0  0  0  0  0  0
    0.7807    4.9569    2.5297 C   0  0  0  0  0  0  0  0  0  0  0  0
   -0.6608    5.4387    2.5457 C   0  0  0  0  0  0  0  0  0  0  0  0
   -0.6853    6.8585    2.5511 O   0  0  0  0  0  0  0  0  0  0  0  0
   -2.0320    7.3086    2.5660 C   0  0  0  0  0  0  0  0  0  0  0  0
    1.9898    1.4913    2.5046 C   0  0  0  0  0  0  0  0  0  0  0  0
    3.2009    0.8075    2.4890 C   0  0  0  0  0  0  0  0  0  0  0  0
  1  2  1  0
  2  3  2  0
  3  4  1  0
  4  5  1  0
  5  6  1  0
  6  7  2  0
  7  8  1  0
  8  9  1  0
  5  9  2  0
  8 10  1  0
 10 11  1  0
 11 12  1  0
 12 13  1  0
 13 14  2  0
 13 15  1  0
 15 16  2  0
 16 17  1  0
 17 18  2  0
 18 19  1  0
 19 20  2  0
 20 15  1  0
 16 21  1  0
 21 22  2  0
 22 12  1  0
  4 23  2  0
 23  1  1  0
  2 24  1  0
 24 25  2  0
 25 26  1  0
 26 27  2  0
 27 28  1  0
 28 29  1  0
 29 30  1  0
 30 31  1  0
 31 32  1  0
 27 33  1  0
 33 34  2  0
 34 24  1  0
M  END
$$$$
m_274972____12934192____12615770____16521756
     RDKit          3D

 30 33  0  0  0  0  0  0  0  0999 V2000
   -4.2547   -4.4562    2.6258 Cl  0  0  0  0  0  0  0  0  0  0  0  0
   -2.5104   -4.1033    2.5931 C   0  0  0  0  0  0  0  0  0  0  0  0
   -1.6009   -5.0894    2.5804 N   0  0  0  0  0  0  0  0  0  0  0  0
   -0.2855   -4.8291    2.5549 C   0  0  0  0  0  0  0  0  0  0  0  0
    0.1834   -3.5199    2.5421 C   0  0  0  0  0  0  0  0  0  0  0  0
   -0.7457   -2.4846    2.5551 C   0  0  0  0  0  0  0  0  0  0  0  0
   -0.3116   -1.1535    2.5421 N   0  0  0  0  0  0  0  0  0  0  0  0
   -1.0880   -0.0976    2.5522 N   0  0  0  0  0  0  0  0  0  0  0  0
   -0.4059    0.9647    2.5333 N   0  0  0  0  0  0  0  0  0  0  0  0
    0.9111    0.6164    2.5151 C   0  0  0  0  0  0  0  0  0  0  0  0
    2.0375    1.5302    2.4908 C   0  0  0  0  0  0  0  0  0  0  0  0
    3.3498    1.1464    2.4729 N   0  0  0  0  0  0  0  0  0  0  0  0
    4.2182    2.1329    2.4615 C   0  0  0  0  0  0  0  0  0  0  0  0
    3.3303    3.5831    2.4714 S   0  0  0  0  0  0  0  0  0  0  0  0
    1.7841    2.8690    2.4950 C   0  0  0  0  0  0  0  0  0  0  0  0
    5.6642    2.0267    2.4390 C   0  0  0  0  0  0  0  0  0  0  0  0
    6.2577    0.7683    2.4333 C   0  0  0  0  0  0  0  0  0  0  0  0
    7.6437    0.6529    2.4108 C   0  0  0  0  0  0  0  0  0  0  0  0
    8.4200    1.8069    2.3952 C   0  0  0  0  0  0  0  0  0  0  0  0
   10.2247    1.6719    2.3661 S   0  0  0  0  0  0  0  0  0  0  0  0
   10.8020    2.8102    3.0328 O   0  0  0  0  0  0  0  0  0  0  0  0
   10.6267    0.4653    3.0415 O   0  0  0  0  0  0  0  0  0  0  0  0
   10.7414    1.6275    0.8208 N   0  0  0  0  0  0  0  0  0  0  0  0
   12.2071    1.5178    0.7972 C   0  0  0  0  0  0  0  0  0  0  0  0
    7.8313    3.0673    2.4012 C   0  0  0  0  0  0  0  0  0  0  0  0
    6.4448    3.1781    2.4235 C   0  0  0  0  0  0  0  0  0  0  0  0
    0.9835   -0.7400    2.5176 C   0  0  0  0  0  0  0  0  0  0  0  0
   -2.1063   -2.7722    2.5807 C   0  0  0  0  0  0  0  0  0  0  0  0
    1.6755   -3.2310    2.5139 C   0  0  0  0  0  0  0  0  0  0  0  0
    2.4620   -4.1372    2.5031 O   0  0  0  0  0  0  0  0  0  0  0  0
  1  2  1  0
  2  3  2  0
  3  4  1  0
  4  5  2  0
  5  6  1  0
  6  7  1  0
  7  8  1  0
  8  9  2  0
  9 10  1  0
 10 11  1  0
 11 12  1  0
 12 13  2  0
 13 14  1  0
 14 15  1  0
 11 15  2  0
 13 16  1  0
 16 17  2  0
 17 18  1  0
 18 19  2  0
 19 20  1  0
 20 21  2  0
 20 22  2  0
 20 23  1  0
 23 24  1  0
 19 25  1  0
 25 26  2  0
 26 16  1  0
 10 27  2  0
 27  7  1  0
  6 28  2  0
 28  2  1  0
  5 29  1  0
 29 30  2  0
M  END
$$$$
s_11a____9193456____132801
     RDKit          3D

 34 39  0  0  0  0  0  0  0  0999 V2000
    4.7700   -0.3417    1.0000 S   0  0  0  0  0  0  0  0  0  0  0  0
    3.0712   -0.2145    1.0000 C   0  0  0  0  0  0  0  0  0  0  0  0
    2.6008   -1.4356    0.9903 N   0  0  0  0  0  0  0  0  0  0  0  0
    3.4983   -2.4092    0.9881 N   0  0  0  0  0  0  0  0  0  0  0  0
    4.7559   -2.0417    0.9965 C   0  0  0  0  0  0  0  0  0  0  0  0
    5.9275   -2.8966    0.9977 C   0  0  0  0  0  0  0  0  0  0  0  0
    5.9138   -4.2079    0.9904 O   0  0  0  0  0  0  0  0  0  0  0  0
    7.1402   -4.6884    0.9924 C   0  0  0  0  0  0  0  0  0  0  0  0
    8.0187   -3.6307    0.9994 C   0  0  0  0  0  0  0  0  0  0  0  0
    9.3883   -3.8749    1.0057 C   0  0  0  0  0  0  0  0  0  0  0  0
    9.8867   -5.1739    1.0073 C   0  0  0  0  0  0  0  0  0  0  0  0
    8.9983   -6.2446    1.0013 C   0  0  0  0  0  0  0  0  0  0  0  0
    7.6305   -5.9909    0.9949 C   0  0  0  0  0  0  0  0  0  0  0  0
    7.2193   -2.4664    1.0019 C   0  0  0  0  0  0  0  0  0  0  0  0
    2.3700    1.0000    1.0000 N   0  0  0  0  0  0  0  0  0  0  0  0
    1.0000    1.0000    1.0000 C   0  0  0  0  0  0  0  0  0  0  0  0
    0.4000   -0.0392    1.0000 O   0  0  0  0  0  0  0  0  0  0  0  0
    0.2745    2.2566    1.0000 C   0  0  0  0  0  0  0  0  0  0  0  0
   -1.3054    2.5103    1.5789 S   0  0  0  0  0  0  0  0  0  0  0  0
   -1.3835    4.1731    1.2195 C   0  0  0  0  0  0  0  0  0  0  0  0
   -2.4854    5.0151    1.4662 N   0  0  0  0  0  0  0  0  0  0  0  0
   -3.5591    5.2255    0.4826 C   0  0  0  0  0  0  0  0  0  0  0  0
   -4.1704    6.5991    0.7036 C   0  0  0  0  0  0  0  0  0  0  0  0
   -4.7831    6.7341    1.9832 O   0  0  0  0  0  0  0  0  0  0  0  0
   -4.1397    5.9708    2.9987 C   0  0  0  0  0  0  0  0  0  0  0  0
   -2.6589    5.7548    2.7239 C   0  0  0  0  0  0  0  0  0  0  0  0
   -0.1953    4.5278    0.6546 C   0  0  0  0  0  0  0  0  0  0  0  0
    0.0752    5.8865    0.2256 C   0  0  0  0  0  0  0  0  0  0  0  0
    0.3470    6.8673    1.1738 C   0  0  0  0  0  0  0  0  0  0  0  0
    0.6050    8.1695    0.7579 C   0  0  0  0  0  0  0  0  0  0  0  0
    0.5914    8.4825   -0.5973 C   0  0  0  0  0  0  0  0  0  0  0  0
    0.3191    7.4944   -1.5355 C   0  0  0  0  0  0  0  0  0  0  0  0
    0.0589    6.1888   -1.1324 C   0  0  0  0  0  0  0  0  0  0  0  0
    0.7242    3.4538    0.5348 C   0  0  0  0  0  0  0  0  0  0  0  0
  1  2  1  0
  2  3  2  0
  3  4  1  0
  4  5  2  0
  5  1  1  0
  5  6  1  0
  6  7  1  0
  7  8  1  0
  8  9  2  0
  9 10  1  0
 10 11  2  0
 11 12  1  0
 12 13  2  0
 13  8  1  0
  9 14  1  0
  6 14  2  0
  2 15  1  0
 15 16  1  0
 16 17  2  0
 16 18  1  0
 18 19  1  0
 19 20  1  0
 20 21  1  0
 21 22  1  0
 22 23  1  0
 23 24  1  0
 24 25  1  0
 25 26  1  0
 26 21  1  0
 20 27  2  0
 27 28  1  0
 28 29  2  0
 29 30  1  0
 30 31  2  0
 31 32  1  0
 32 33  2  0
 33 28  1  0
 27 34  1  0
 18 34  2  0
M  END
$$$$
m_271722____10195368____11366618
     RDKit          3D

 36 41  0  0  0  0  0  0  0  0999 V2000
    4.6920    1.7154    1.0029 S   0  0  0  0  0  0  0  0  0  0  0  0
    4.4407    0.0336    0.9832 C   0  0  0  0  0  0  0  0  0  0  0  0
    5.5006   -0.9561    0.9645 C   0  0  0  0  0  0  0  0  0  0  0  0
    6.8290   -0.5433    0.9618 C   0  0  0  0  0  0  0  0  0  0  0  0
    7.8425   -1.4959    0.9429 C   0  0  0  0  0  0  0  0  0  0  0  0
    7.5243   -2.8498    0.9283 C   0  0  0  0  0  0  0  0  0  0  0  0
    6.1939   -3.2506    0.9316 C   0  0  0  0  0  0  0  0  0  0  0  0
    5.1713   -2.3078    0.9498 C   0  0  0  0  0  0  0  0  0  0  0  0
    3.0984   -0.1984    0.9856 C   0  0  0  0  0  0  0  0  0  0  0  0
    2.3410    1.0000    1.0000 C   0  0  0  0  0  0  0  0  0  0  0  0
    1.0000    1.0000    1.0000 O   0  0  0  0  0  0  0  0  0  0  0  0
    0.2900   -0.2297    0.9866 C   0  0  0  0  0  0  0  0  0  0  0  0
   -1.2044    0.0480    0.9896 C   0  0  0  0  0  0  0  0  0  0  0  0
   -1.6044    1.1794    1.0020 O   0  0  0  0  0  0  0  0  0  0  0  0
   -2.1130   -1.0146    0.9781 N   0  0  0  0  0  0  0  0  0  0  0  0
   -3.5537   -0.7126    0.9814 C   0  0  0  0  0  0  0  0  0  0  0  0
   -4.3567   -1.7784    1.7139 C   0  0  0  0  0  0  0  0  0  0  0  0
   -3.9516   -3.1858    1.3023 C   0  0  0  0  0  0  0  0  0  0  0  0
   -2.4933   -3.3563    1.7030 C   0  0  0  0  0  0  0  0  0  0  0  0
   -1.5799   -2.3866    0.9664 C   0  0  0  0  0  0  0  0  0  0  0  0
    3.0483    2.1689    1.0127 C   0  0  0  0  0  0  0  0  0  0  0  0
    2.5236    3.5203    1.0357 C   0  0  0  0  0  0  0  0  0  0  0  0
    1.2534    3.8477    1.0484 O   0  0  0  0  0  0  0  0  0  0  0  0
    1.1967    5.1588    1.0686 C   0  0  0  0  0  0  0  0  0  0  0  0
    2.4173    5.6400    1.0688 N   0  0  0  0  0  0  0  0  0  0  0  0
    3.2436    4.6185    1.0492 N   0  0  0  0  0  0  0  0  0  0  0  0
   -0.0201    5.9500    1.0861 C   0  0  0  0  0  0  0  0  0  0  0  0
    0.0047    7.2930    1.1065 N   0  0  0  0  0  0  0  0  0  0  0  0
   -1.1159    8.0339    1.1227 C   0  0  0  0  0  0  0  0  0  0  0  0
   -2.3613    7.4111    1.1186 C   0  0  0  0  0  0  0  0  0  0  0  0
   -2.4158    6.0213    1.0976 C   0  0  0  0  0  0  0  0  0  0  0  0
   -1.2389    5.2790    1.0815 C   0  0  0  0  0  0  0  0  0  0  0  0
   -3.5398    8.1497    1.1347 C   0  0  0  0  0  0  0  0  0  0  0  0
   -3.4641    9.5384    1.1558 C   0  0  0  0  0  0  0  0  0  0  0  0
   -2.2327   10.1849    1.1602 C   0  0  0  0  0  0  0  0  0  0  0  0
   -1.0681    9.4243    1.1437 C   0  0  0  0  0  0  0  0  0  0  0  0
  1  2  1  0
  2  3  1  0
  3  4  2  0
  4  5  1  0
  5  6  2  0
  6  7  1  0
  7  8  2  0
  8  3  1  0
  2  9  2  0
  9 10  1  0
 10 11  1  0
 11 12  1  0
 12 13  1  0
 13 14  2  0
 13 15  1  0
 15 16  1  0
 16 17  1  0
 17 18  1  0
 18 19  1  0
 19 20  1  0
 20 15  1  0
 10 21  2  0
 21  1  1  0
 21 22  1  0
 22 23  1  0
 23 24  1  0
 24 25  2  0
 25 26  1  0
 22 26  2  0
 24 27  1  0
 27 28  2  0
 28 29  1  0
 29 30  2  0
 30 31  1  0
 31 32  2  0
 32 27  1  0
 30 33  1  0
 33 34  2  0
 34 35  1  0
 35 36  2  0
 36 29  1  0
M  END
$$$$
m_274972____12934192____12615770____13046566
     RDKit          3D

 34 38  0  0  0  0  0  0  0  0999 V2000
   10.2247    1.6719    2.3661 S   0  0  0  0  0  0  0  0  0  0  0  0
   10.8020    2.8102    3.0328 O   0  0  0  0  0  0  0  0  0  0  0  0
   10.6267    0.4653    3.0415 O   0  0  0  0  0  0  0  0  0  0  0  0
   10.7414    1.6275    0.8208 N   0  0  0  0  0  0  0  0  0  0  0  0
   12.2071    1.5178    0.7972 C   0  0  0  0  0  0  0  0  0  0  0  0
    8.4200    1.8069    2.3952 C   0  0  0  0  0  0  0  0  0  0  0  0
    7.6437    0.6529    2.4108 C   0  0  0  0  0  0  0  0  0  0  0  0
    6.2577    0.7683    2.4333 C   0  0  0  0  0  0  0  0  0  0  0  0
    5.6642    2.0267    2.4390 C   0  0  0  0  0  0  0  0  0  0  0  0
    6.4448    3.1781    2.4235 C   0  0  0  0  0  0  0  0  0  0  0  0
    7.8313    3.0673    2.4012 C   0  0  0  0  0  0  0  0  0  0  0  0
    4.2182    2.1329    2.4615 C   0  0  0  0  0  0  0  0  0  0  0  0
    3.3303    3.5831    2.4714 S   0  0  0  0  0  0  0  0  0  0  0  0
    1.7841    2.8690    2.4950 C   0  0  0  0  0  0  0  0  0  0  0  0
    2.0375    1.5302    2.4908 C   0  0  0  0  0  0  0  0  0  0  0  0
    3.3498    1.1464    2.4729 N   0  0  0  0  0  0  0  0  0  0  0  0
    0.9118    0.6170    2.5150 C   0  0  0  0  0  0  0  0  0  0  0  0
   -0.4029    0.9692    2.5332 N   0  0  0  0  0  0  0  0  0  0  0  0
   -1.0790   -0.0974    2.5525 N   0  0  0  0  0  0  0  0  0  0  0  0
   -0.3062   -1.1554    2.5502 N   0  0  0  0  0  0  0  0  0  0  0  0
    0.9871   -0.7420    2.5276 C   0  0  0  0  0  0  0  0  0  0  0  0
   -0.7634   -2.5524    2.5709 C   0  0  0  0  0  0  0  0  0  0  0  0
   -0.9440   -3.0476    1.1452 C   0  0  0  0  0  0  0  0  0  0  0  0
   -1.4008   -4.4431    1.1659 N   0  0  0  0  0  0  0  0  0  0  0  0
   -2.7319   -4.8518    1.1911 C   0  0  0  0  0  0  0  0  0  0  0  0
   -2.8048   -6.2295    1.1753 C   0  0  0  0  0  0  0  0  0  0  0  0
   -4.0353   -6.8788    1.1980 C   0  0  0  0  0  0  0  0  0  0  0  0
   -5.2097   -6.1342    1.2318 C   0  0  0  0  0  0  0  0  0  0  0  0
   -5.1521   -4.7444    1.2442 C   0  0  0  0  0  0  0  0  0  0  0  0
   -3.9115   -4.1140    1.2246 C   0  0  0  0  0  0  0  0  0  0  0  0
   -1.4273   -6.6900    1.1821 C   0  0  0  0  0  0  0  0  0  0  0  0
   -1.0758   -7.8373    1.1894 O   0  0  0  0  0  0  0  0  0  0  0  0
   -0.5549   -5.5433    1.1540 C   0  0  0  0  0  0  0  0  0  0  0  0
    0.6450   -5.5482    1.1484 O   0  0  0  0  0  0  0  0  0  0  0  0
  1  2  2  0
  1  3  2  0
  1  4  1  0
  4  5  1  0
  1  6  1  0
  6  7  2  0
  7  8  1  0
  8  9  2  0
  9 10  1  0
 10 11  2  0
 11  6  1  0
  9 12  1  0
 12 13  1  0
 13 14  1  0
 14 15  2  0
 15 16  1  0
 12 16  2  0
 15 17  1  0
 17 18  1  0
 18 19  2  0
 19 20  1  0
 20 21  1  0
 17 21  2  0
 20 22  1  0
 22 23  1  0
 23 24  1  0
 24 25  1  0
 25 26  1  0
 26 27  2  0
 27 28  1  0
 28 29  2  0
 29 30  1  0
 30 25  2  0
 26 31  1  0
 31 32  2  0
 31 33  1  0
 33 24  1  0
 33 34  2  0
M  END
$$$$
s_265764____4903266____4564842
     RDKit          3D

 38 43  0  0  0  0  0  0  0  0999 V2000
    0.4648    3.7275    2.5286 S   0  0  0  0  0  0  0  0  0  0  0  0
    0.6132    4.9899    1.8520 O   0  0  0  0  0  0  0  0  0  0  0  0
   -0.5345    2.9375    1.8570 O   0  0  0  0  0  0  0  0  0  0  0  0
    0.0053    3.9882    4.0706 N   0  0  0  0  0  0  0  0  0  0  0  0
    1.0246    4.7939    4.7556 C   0  0  0  0  0  0  0  0  0  0  0  0
    2.0541    3.8755    5.3973 C   0  0  0  0  0  0  0  0  0  0  0  0
    3.3034    4.5952    5.8860 C   0  0  0  0  0  0  0  0  0  0  0  0
    3.0569    5.5036    7.0881 C   0  0  0  0  0  0  0  0  0  0  0  0
    2.2065    4.8935    8.1909 C   0  0  0  0  0  0  0  0  0  0  0  0
    0.7754    5.4059    8.2148 C   0  0  0  0  0  0  0  0  0  0  0  0
   -0.0995    5.0636    7.0091 C   0  0  0  0  0  0  0  0  0  0  0  0
    0.3677    5.7572    5.7374 C   0  0  0  0  0  0  0  0  0  0  0  0
    1.9833    2.8783    2.5116 C   0  0  0  0  0  0  0  0  0  0  0  0
    3.1735    3.5977    2.5023 C   0  0  0  0  0  0  0  0  0  0  0  0
    4.3802    2.9056    2.4882 C   0  0  0  0  0  0  0  0  0  0  0  0
    4.4059    1.5148    2.4827 C   0  0  0  0  0  0  0  0  0  0  0  0
    3.2042    0.8141    2.4925 C   0  0  0  0  0  0  0  0  0  0  0  0
    1.9869    1.4870    2.5070 C   0  0  0  0  0  0  0  0  0  0  0  0
    5.6243    3.6536    2.4786 C   0  0  0  0  0  0  0  0  0  0  0  0
    5.7628    5.3484    2.4829 S   0  0  0  0  0  0  0  0  0  0  0  0
    7.4650    5.4086    2.4693 C   0  0  0  0  0  0  0  0  0  0  0  0
    7.8426    4.0993    2.4653 C   0  0  0  0  0  0  0  0  0  0  0  0
    6.8444    3.1649    2.4702 N   0  0  0  0  0  0  0  0  0  0  0  0
    9.2600    3.7921    2.4465 C   0  0  0  0  0  0  0  0  0  0  0  0
   10.2328    4.6707    2.4326 O   0  0  0  0  0  0  0  0  0  0  0  0
   11.3479    4.0682    2.4191 N   0  0  0  0  0  0  0  0  0  0  0  0
   11.1272    2.7745    2.4224 C   0  0  0  0  0  0  0  0  0  0  0  0
    9.7809    2.5914    2.4392 N   0  0  0  0  0  0  0  0  0  0  0  0
   12.1365    1.7316    2.4077 C   0  0  0  0  0  0  0  0  0  0  0  0
   13.4216    2.1162    2.3921 N   0  0  0  0  0  0  0  0  0  0  0  0
   14.4259    1.2270    2.3780 C   0  0  0  0  0  0  0  0  0  0  0  0
   14.1631   -0.1392    2.3789 C   0  0  0  0  0  0  0  0  0  0  0  0
   12.8391   -0.5669    2.3949 C   0  0  0  0  0  0  0  0  0  0  0  0
   11.8139    0.3735    2.4090 C   0  0  0  0  0  0  0  0  0  0  0  0
   10.5008   -0.0911    2.4250 C   0  0  0  0  0  0  0  0  0  0  0  0
   10.1986   -1.4487    2.4288 C   0  0  0  0  0  0  0  0  0  0  0  0
   11.2398   -2.3711    2.4145 C   0  0  0  0  0  0  0  0  0  0  0  0
   12.5593   -1.9303    2.3974 C   0  0  0  0  0  0  0  0  0  0  0  0
  1  2  2  0
  1  3  2  0
  1  4  1  0
  4  5  1  0
  5  6  1  0
  6  7  1  0
  7  8  1  0
  8  9  1  0
  9 10  1  0
 10 11  1  0
 11 12  1  0
 12  5  1  0
  1 13  1  0
 13 14  2  0
 14 15  1  0
 15 16  2  0
 16 17  1  0
 17 18  2  0
 18 13  1  0
 15 19  1  0
 19 20  1  0
 20 21  1  0
 21 22  2  0
 22 23  1  0
 19 23  2  0
 22 24  1  0
 24 25  1  0
 25 26  1  0
 26 27  2  0
 27 28  1  0
 24 28  2  0
 27 29  1  0
 29 30  2  0
 30 31  1  0
 31 32  2  0
 32 33  1  0
 33 34  2  0
 34 29  1  0
 34 35  1  0
 35 36  2  0
 36 37  1  0
 37 38  2  0
 38 33  1  0
M  END
$$$$
m_274972____12934254____12615770____14584976
     RDKit          3D

 34 38  0  0  0  0  0  0  0  0999 V2000
   10.2247    1.6719    2.3661 S   0  0  0  0  0  0  0  0  0  0  0  0
   10.8020    2.8102    3.0328 O   0  0  0  0  0  0  0  0  0  0  0  0
   10.6267    0.4653    3.0415 O   0  0  0  0  0  0  0  0  0  0  0  0
   10.7414    1.6275    0.8208 N   0  0  0  0  0  0  0  0  0  0  0  0
   12.2071    1.5178    0.7972 C   0  0  0  0  0  0  0  0  0  0  0  0
   10.1520    0.4654    0.1403 C   0  0  0  0  0  0  0  0  0  0  0  0
    8.4200    1.8069    2.3952 C   0  0  0  0  0  0  0  0  0  0  0  0
    7.6437    0.6529    2.4108 C   0  0  0  0  0  0  0  0  0  0  0  0
    6.2577    0.7683    2.4333 C   0  0  0  0  0  0  0  0  0  0  0  0
    5.6642    2.0267    2.4390 C   0  0  0  0  0  0  0  0  0  0  0  0
    6.4448    3.1781    2.4235 C   0  0  0  0  0  0  0  0  0  0  0  0
    7.8313    3.0673    2.4012 C   0  0  0  0  0  0  0  0  0  0  0  0
    4.2182    2.1329    2.4615 C   0  0  0  0  0  0  0  0  0  0  0  0
    3.3303    3.5831    2.4714 S   0  0  0  0  0  0  0  0  0  0  0  0
    1.7841    2.8690    2.4950 C   0  0  0  0  0  0  0  0  0  0  0  0
    2.0375    1.5302    2.4908 C   0  0  0  0  0  0  0  0  0  0  0  0
    3.3498    1.1464    2.4729 N   0  0  0  0  0  0  0  0  0  0  0  0
    0.9118    0.6170    2.5150 C   0  0  0  0  0  0  0  0  0  0  0  0
   -0.4029    0.9692    2.5332 N   0  0  0  0  0  0  0  0  0  0  0  0
   -1.0790   -0.0974    2.5525 N   0  0  0  0  0  0  0  0  0  0  0  0
   -0.3062   -1.1554    2.5502 N   0  0  0  0  0  0  0  0  0  0  0  0
    0.9871   -0.7420    2.5276 C   0  0  0  0  0  0  0  0  0  0  0  0
   -0.7638   -2.5535    2.5709 C   0  0  0  0  0  0  0  0  0  0  0  0
   -0.9872   -3.1819    1.2072 C   0  0  0  0  0  0  0  0  0  0  0  0
   -0.2883   -4.3683    1.1481 C   0  0  0  0  0  0  0  0  0  0  0  0
    0.4037   -4.5767    2.3394 N   0  0  0  0  0  0  0  0  0  0  0  0
    0.1802   -3.5300    3.2268 C   0  0  0  0  0  0  0  0  0  0  0  0
    0.6760   -3.4140    4.3135 O   0  0  0  0  0  0  0  0  0  0  0  0
    1.2733   -5.7320    2.6042 C   0  0  0  0  0  0  0  0  0  0  0  0
   -0.3524   -5.1425   -0.0037 C   0  0  0  0  0  0  0  0  0  0  0  0
   -1.1016   -4.7286   -1.0989 C   0  0  0  0  0  0  0  0  0  0  0  0
   -1.7938   -3.5248   -1.0345 C   0  0  0  0  0  0  0  0  0  0  0  0
   -1.7393   -2.7524    0.1197 C   0  0  0  0  0  0  0  0  0  0  0  0
   -2.0820   -2.7021    3.3130 C   0  0  0  0  0  0  0  0  0  0  0  0
  1  2  2  0
  1  3  2  0
  1  4  1  0
  4  5  1  0
  4  6  1  0
  1  7  1  0
  7  8  2  0
  8  9  1  0
  9 10  2  0
 10 11  1  0
 11 12  2  0
 12  7  1  0
 10 13  1  0
 13 14  1  0
 14 15  1  0
 15 16  2  0
 16 17  1  0
 13 17  2  0
 16 18  1  0
 18 19  1  0
 19 20  2  0
 20 21  1  0
 21 22  1  0
 18 22  2  0
 21 23  1  0
 23 24  1  0
 24 25  2  0
 25 26  1  0
 26 27  1  0
 27 23  1  0
 27 28  2  0
 26 29  1  0
 25 30  1  0
 30 31  2  0
 31 32  1  0
 32 33  2  0
 33 24  1  0
 23 34  1  0
M  END
$$$$
s_49a____12382322____13758886
     RDKit          3D

 26 30  0  0  0  0  0  0  0  0999 V2000
    5.3976    3.5498    2.5144 O   0  0  0  0  0  0  0  0  0  0  0  0
    4.3512    2.9204    2.5028 C   0  0  0  0  0  0  0  0  0  0  0  0
    3.1339    3.5543    2.5128 N   0  0  0  0  0  0  0  0  0  0  0  0
    2.0131    2.8500    2.4992 N   0  0  0  0  0  0  0  0  0  0  0  0
    2.0048    1.5265    2.4744 C   0  0  0  0  0  0  0  0  0  0  0  0
    3.2041    0.7623    2.4627 C   0  0  0  0  0  0  0  0  0  0  0  0
    4.3968    1.5016    2.4808 C   0  0  0  0  0  0  0  0  0  0  0  0
    5.3915    0.6393    2.4636 N   0  0  0  0  0  0  0  0  0  0  0  0
    4.9220   -0.5862    2.4434 N   0  0  0  0  0  0  0  0  0  0  0  0
    3.5602   -0.5538    2.4397 C   0  0  0  0  0  0  0  0  0  0  0  0
    5.7397   -1.8102    2.4226 C   0  0  0  0  0  0  0  0  0  0  0  0
    5.4509   -2.6761    3.6387 C   0  0  0  0  0  0  0  0  0  0  0  0
    6.2567   -3.9635    3.5649 C   0  0  0  0  0  0  0  0  0  0  0  0
    5.9637   -4.6885    2.3779 O   0  0  0  0  0  0  0  0  0  0  0  0
    6.2275   -3.9362    1.2020 C   0  0  0  0  0  0  0  0  0  0  0  0
    5.4222   -2.6462    1.1929 C   0  0  0  0  0  0  0  0  0  0  0  0
    3.0854    4.9542    2.5373 C   0  0  0  0  0  0  0  0  0  0  0  0
    3.6486    5.7380    1.5325 C   0  0  0  0  0  0  0  0  0  0  0  0
    3.5592    7.1238    1.6273 C   0  0  0  0  0  0  0  0  0  0  0  0
    2.9405    7.6930    2.6722 N   0  0  0  0  0  0  0  0  0  0  0  0
    2.3926    6.9557    3.6490 C   0  0  0  0  0  0  0  0  0  0  0  0
    2.4483    5.5666    3.6108 C   0  0  0  0  0  0  0  0  0  0  0  0
    4.1157    7.9192    0.6310 C   0  0  0  0  0  0  0  0  0  0  0  0
    4.7610    7.3491   -0.4614 C   0  0  0  0  0  0  0  0  0  0  0  0
    4.8570    5.9656   -0.5679 C   0  0  0  0  0  0  0  0  0  0  0  0
    4.2975    5.1801    0.4339 C   0  0  0  0  0  0  0  0  0  0  0  0
  1  2  2  0
  2  3  1  0
  3  4  1  0
  4  5  2  0
  5  6  1  0
  6  7  1  0
  7  2  1  0
  7  8  2  0
  8  9  1  0
  9 10  1  0
  6 10  2  0
  9 11  1  0
 11 12  1  0
 12 13  1  0
 13 14  1  0
 14 15  1  0
 15 16  1  0
 16 11  1  0
  3 17  1  0
 17 18  2  0
 18 19  1  0
 19 20  2  0
 20 21  1  0
 21 22  2  0
 22 17  1  0
 19 23  1  0
 23 24  2  0
 24 25  1  0
 25 26  2  0
 26 18  1  0
M  END
$$$$
s_1458____478750____8366518
     RDKit          3D

 38 43  0  0  0  0  0  0  0  0999 V2000
    2.8646    0.7519   -3.1905 S   0  0  0  0  0  0  0  0  0  0  0  0
    3.1870   -0.2815   -4.5052 C   0  0  0  0  0  0  0  0  0  0  0  0
    4.0459    0.0024   -5.5752 N   0  0  0  0  0  0  0  0  0  0  0  0
    5.4963    0.0413   -5.3330 C   0  0  0  0  0  0  0  0  0  0  0  0
    6.1715    1.0600   -6.2383 C   0  0  0  0  0  0  0  0  0  0  0  0
    5.7289    0.9300   -7.5826 O   0  0  0  0  0  0  0  0  0  0  0  0
    4.3525    1.2735   -7.6657 C   0  0  0  0  0  0  0  0  0  0  0  0
    3.4869    0.2790   -6.9073 C   0  0  0  0  0  0  0  0  0  0  0  0
    2.4598   -1.4191   -4.3216 C   0  0  0  0  0  0  0  0  0  0  0  0
    2.5025   -2.5181   -5.2670 C   0  0  0  0  0  0  0  0  0  0  0  0
    3.6160   -2.6808   -6.0848 C   0  0  0  0  0  0  0  0  0  0  0  0
    3.6524   -3.7357   -6.9908 C   0  0  0  0  0  0  0  0  0  0  0  0
    2.5811   -4.6191   -7.0733 C   0  0  0  0  0  0  0  0  0  0  0  0
    1.4743   -4.4470   -6.2511 C   0  0  0  0  0  0  0  0  0  0  0  0
    1.4255   -3.3957   -5.3415 C   0  0  0  0  0  0  0  0  0  0  0  0
    1.6777   -1.4132   -3.1378 C   0  0  0  0  0  0  0  0  0  0  0  0
    1.7811   -0.2840   -2.3855 C   0  0  0  0  0  0  0  0  0  0  0  0
    1.0958   -0.0104   -1.1360 C   0  0  0  0  0  0  0  0  0  0  0  0
    0.0025   -0.4643   -0.9394 O   0  0  0  0  0  0  0  0  0  0  0  0
    1.6706    0.7322   -0.2227 O   0  0  0  0  0  0  0  0  0  0  0  0
    1.0000    1.0000    1.0000 C   0  0  0  0  0  0  0  0  0  0  0  0
    1.8776    1.8776    1.8776 C   0  0  0  0  0  0  0  0  0  0  0  0
    1.8845    3.1873    1.8920 O   0  0  0  0  0  0  0  0  0  0  0  0
    2.7283    3.6194    2.7339 N   0  0  0  0  0  0  0  0  0  0  0  0
    3.3309    2.6210    3.3288 C   0  0  0  0  0  0  0  0  0  0  0  0
    4.3573    2.7141    4.3510 C   0  0  0  0  0  0  0  0  0  0  0  0
    3.9473    2.7512    5.6799 C   0  0  0  0  0  0  0  0  0  0  0  0
    2.6398    2.7027    6.0139 O   0  0  0  0  0  0  0  0  0  0  0  0
    2.2539    2.7426    7.3799 C   0  0  0  0  0  0  0  0  0  0  0  0
    4.8880    2.8390    6.7004 C   0  0  0  0  0  0  0  0  0  0  0  0
    6.2442    2.8913    6.3942 C   0  0  0  0  0  0  0  0  0  0  0  0
    6.6597    2.8552    5.0681 C   0  0  0  0  0  0  0  0  0  0  0  0
    5.7180    2.7662    4.0454 C   0  0  0  0  0  0  0  0  0  0  0  0
    6.1863    2.7323    2.7336 C   0  0  0  0  0  0  0  0  0  0  0  0
    7.5417    2.7841    2.4296 C   0  0  0  0  0  0  0  0  0  0  0  0
    8.4536    2.8732    3.4757 C   0  0  0  0  0  0  0  0  0  0  0  0
    8.0228    2.9094    4.7978 C   0  0  0  0  0  0  0  0  0  0  0  0
    2.7900    1.4394    2.7856 C   0  0  0  0  0  0  0  0  0  0  0  0
  1  2  1  0
  2  3  1  0
  3  4  1  0
  4  5  1  0
  5  6  1  0
  6  7  1  0
  7  8  1  0
  8  3  1  0
  2  9  2  0
  9 10  1  0
 10 11  2  0
 11 12  1  0
 12 13  2  0
 13 14  1  0
 14 15  2  0
 15 10  1  0
  9 16  1  0
 16 17  2  0
 17  1  1  0
 17 18  1  0
 18 19  2  0
 18 20  1  0
 20 21  1  0
 21 22  1  0
 22 23  1  0
 23 24  1  0
 24 25  2  0
 25 26  1  0
 26 27  2  0
 27 28  1  0
 28 29  1  0
 27 30  1  0
 30 31  2  0
 31 32  1  0
 32 33  2  0
 33 26  1  0
 33 34  1  0
 34 35  2  0
 35 36  1  0
 36 37  2  0
 37 32  1  0
 25 38  1  0
 22 38  2  0
M  END
$$$$
s_270196____10855104____8773378
     RDKit          3D

 34 38  0  0  0  0  0  0  0  0999 V2000
    0.4036    3.7617    2.5293 S   0  0  0  0  0  0  0  0  0  0  0  0
   -0.5826    2.9678    3.2153 O   0  0  0  0  0  0  0  0  0  0  0  0
    0.5651    5.0202    3.2103 O   0  0  0  0  0  0  0  0  0  0  0  0
   -0.0853    4.0313    0.9979 N   0  0  0  0  0  0  0  0  0  0  0  0
   -1.3682    4.7488    1.0123 C   0  0  0  0  0  0  0  0  0  0  0  0
   -1.8241    5.0003   -0.4157 C   0  0  0  0  0  0  0  0  0  0  0  0
    1.9833    2.8783    2.5116 C   0  0  0  0  0  0  0  0  0  0  0  0
    3.1735    3.5977    2.5023 C   0  0  0  0  0  0  0  0  0  0  0  0
    4.3802    2.9056    2.4882 C   0  0  0  0  0  0  0  0  0  0  0  0
    4.4059    1.5148    2.4827 C   0  0  0  0  0  0  0  0  0  0  0  0
    3.2042    0.8141    2.4925 C   0  0  0  0  0  0  0  0  0  0  0  0
    1.9869    1.4870    2.5070 C   0  0  0  0  0  0  0  0  0  0  0  0
    5.6239    3.6533    2.4786 C   0  0  0  0  0  0  0  0  0  0  0  0
    6.8343    3.1409    2.4651 N   0  0  0  0  0  0  0  0  0  0  0  0
    7.6696    4.0911    2.4577 O   0  0  0  0  0  0  0  0  0  0  0  0
    7.0390    5.2398    2.4670 C   0  0  0  0  0  0  0  0  0  0  0  0
    5.7508    5.0064    2.4789 N   0  0  0  0  0  0  0  0  0  0  0  0
    7.6632    6.5493    2.4629 C   0  0  0  0  0  0  0  0  0  0  0  0
    7.0221    7.6952    2.4723 O   0  0  0  0  0  0  0  0  0  0  0  0
    7.8829    8.6855    2.4643 C   0  0  0  0  0  0  0  0  0  0  0  0
    9.1483    8.1796    2.4515 C   0  0  0  0  0  0  0  0  0  0  0  0
    9.0045    6.7760    2.4507 C   0  0  0  0  0  0  0  0  0  0  0  0
    7.5259   10.1630    2.4700 C   0  0  0  0  0  0  0  0  0  0  0  0
    7.4291   10.6214    3.8105 O   0  0  0  0  0  0  0  0  0  0  0  0
    8.5195   11.1139    4.4359 C   0  0  0  0  0  0  0  0  0  0  0  0
    8.4098   11.5594    5.7494 C   0  0  0  0  0  0  0  0  0  0  0  0
    9.5349   12.0662    6.3914 C   0  0  0  0  0  0  0  0  0  0  0  0
   10.7520   12.1231    5.7192 C   0  0  0  0  0  0  0  0  0  0  0  0
   10.8523   11.6760    4.4052 C   0  0  0  0  0  0  0  0  0  0  0  0
    9.7319   11.1673    3.7561 C   0  0  0  0  0  0  0  0  0  0  0  0
   11.8807   12.6285    6.3559 C   0  0  0  0  0  0  0  0  0  0  0  0
   11.7737   13.0739    7.6691 C   0  0  0  0  0  0  0  0  0  0  0  0
   10.5582   13.0182    8.3438 C   0  0  0  0  0  0  0  0  0  0  0  0
    9.4304   12.5125    7.7052 C   0  0  0  0  0  0  0  0  0  0  0  0
  1  2  2  0
  1  3  2  0
  1  4  1  0
  4  5  1  0
  5  6  1  0
  1  7  1  0
  7  8  2  0
  8  9  1  0
  9 10  2  0
 10 11  1  0
 11 12  2  0
 12  7  1  0
  9 13  1  0
 13 14  2  0
 14 15  1  0
 15 16  1  0
 16 17  2  0
 17 13  1  0
 16 18  1  0
 18 19  1  0
 19 20  1  0
 20 21  2  0
 21 22  1  0
 18 22  2  0
 20 23  1  0
 23 24  1  0
 24 25  1  0
 25 26  2  0
 26 27  1  0
 27 28  2  0
 28 29  1  0
 29 30  2  0
 30 25  1  0
 28 31  1  0
 31 32  2  0
 32 33  1  0
 33 34  2  0
 34 27  1  0
M  END
$$$$
m_274972____12934408____12615770____13047176
     RDKit          3D

 34 38  0  0  0  0  0  0  0  0999 V2000
    3.3488    3.5764    2.4811 S   0  0  0  0  0  0  0  0  0  0  0  0
    4.2329    2.1227    2.4665 C   0  0  0  0  0  0  0  0  0  0  0  0
    3.3592    1.1489    2.4754 N   0  0  0  0  0  0  0  0  0  0  0  0
    2.0484    1.5360    2.4980 C   0  0  0  0  0  0  0  0  0  0  0  0
    0.9214    0.6245    2.5209 C   0  0  0  0  0  0  0  0  0  0  0  0
   -0.3928    0.9787    2.5437 N   0  0  0  0  0  0  0  0  0  0  0  0
   -1.0705   -0.0869    2.5598 N   0  0  0  0  0  0  0  0  0  0  0  0
   -0.2994   -1.1462    2.5511 N   0  0  0  0  0  0  0  0  0  0  0  0
    0.9945   -0.7347    2.5273 C   0  0  0  0  0  0  0  0  0  0  0  0
   -0.7588   -2.5425    2.5667 C   0  0  0  0  0  0  0  0  0  0  0  0
   -0.9435   -3.0313    1.1388 C   0  0  0  0  0  0  0  0  0  0  0  0
    0.1389   -3.6444    0.4521 C   0  0  0  0  0  0  0  0  0  0  0  0
    1.1907   -3.7661    1.0168 O   0  0  0  0  0  0  0  0  0  0  0  0
   -0.0356   -4.0828   -0.8357 N   0  0  0  0  0  0  0  0  0  0  0  0
   -1.2469   -3.9360   -1.4704 C   0  0  0  0  0  0  0  0  0  0  0  0
   -2.3223   -3.3392   -0.8181 C   0  0  0  0  0  0  0  0  0  0  0  0
   -3.5593   -3.1755   -1.4324 C   0  0  0  0  0  0  0  0  0  0  0  0
   -3.7237   -3.6240   -2.7387 C   0  0  0  0  0  0  0  0  0  0  0  0
   -2.6740   -4.2257   -3.4245 C   0  0  0  0  0  0  0  0  0  0  0  0
   -1.4519   -4.3716   -2.7777 C   0  0  0  0  0  0  0  0  0  0  0  0
   -2.1539   -2.8805    0.5147 C   0  0  0  0  0  0  0  0  0  0  0  0
    1.1183   -4.7092   -1.4968 C   0  0  0  0  0  0  0  0  0  0  0  0
    1.7984    2.8696    2.5060 C   0  0  0  0  0  0  0  0  0  0  0  0
    5.7488    2.0141    2.4382 C   0  0  0  0  0  0  0  0  0  0  0  0
    6.2810    1.9799    3.8619 C   0  0  0  0  0  0  0  0  0  0  0  0
    6.4319    0.7534    4.5005 C   0  0  0  0  0  0  0  0  0  0  0  0
    6.9197    0.7258    5.8029 C   0  0  0  0  0  0  0  0  0  0  0  0
    7.2546    1.9023    6.4650 C   0  0  0  0  0  0  0  0  0  0  0  0
    7.0964    3.1183    5.8081 C   0  0  0  0  0  0  0  0  0  0  0  0
    6.6102    3.1682    4.5058 C   0  0  0  0  0  0  0  0  0  0  0  0
    7.0887   -0.6076    6.5126 C   0  0  0  0  0  0  0  0  0  0  0  0
    8.3089   -1.0825    6.2792 F   0  0  0  0  0  0  0  0  0  0  0  0
    6.9219   -0.4377    7.8211 F   0  0  0  0  0  0  0  0  0  0  0  0
    6.1832   -1.4695    6.0584 F   0  0  0  0  0  0  0  0  0  0  0  0
  1  2  1  0
  2  3  2  0
  3  4  1  0
  4  5  1  0
  5  6  1  0
  6  7  2  0
  7  8  1  0
  8  9  1  0
  5  9  2  0
  8 10  1  0
 10 11  1  0
 11 12  1  0
 12 13  2  0
 12 14  1  0
 14 15  1  0
 15 16  2  0
 16 17  1  0
 17 18  2  0
 18 19  1  0
 19 20  2  0
 20 15  1  0
 16 21  1  0
 11 21  2  0
 14 22  1  0
  4 23  2  0
 23  1  1  0
  2 24  1  0
 24 25  1  0
 25 26  2  0
 26 27  1  0
 27 28  2  0
 28 29  1  0
 29 30  2  0
 30 25  1  0
 27 31  1  0
 31 32  1  0
 31 33  1  0
 31 34  1  0
M  END
$$$$
m_273170____10758966____10759890____10766558
     RDKit          3D

 34 38  0  0  0  0  0  0  0  0999 V2000
    0.4648    3.7275    2.5286 S   0  0  0  0  0  0  0  0  0  0  0  0
    0.6132    4.9899    1.8520 O   0  0  0  0  0  0  0  0  0  0  0  0
   -0.5345    2.9375    1.8570 O   0  0  0  0  0  0  0  0  0  0  0  0
    0.0053    3.9882    4.0706 N   0  0  0  0  0  0  0  0  0  0  0  0
    1.0254    4.7946    4.7562 C   0  0  0  0  0  0  0  0  0  0  0  0
   -1.2776    4.7056    4.0850 C   0  0  0  0  0  0  0  0  0  0  0  0
    1.9833    2.8783    2.5116 C   0  0  0  0  0  0  0  0  0  0  0  0
    3.1735    3.5977    2.5023 C   0  0  0  0  0  0  0  0  0  0  0  0
    4.3802    2.9056    2.4882 C   0  0  0  0  0  0  0  0  0  0  0  0
    4.4059    1.5148    2.4827 C   0  0  0  0  0  0  0  0  0  0  0  0
    3.2042    0.8141    2.4925 C   0  0  0  0  0  0  0  0  0  0  0  0
    1.9869    1.4870    2.5070 C   0  0  0  0  0  0  0  0  0  0  0  0
    5.6236    3.6531    2.4786 C   0  0  0  0  0  0  0  0  0  0  0  0
    6.0035    4.5098    1.5576 N   0  0  0  0  0  0  0  0  0  0  0  0
    7.1830    4.9765    1.9022 N   0  0  0  0  0  0  0  0  0  0  0  0
    7.5919    4.4488    3.0295 C   0  0  0  0  0  0  0  0  0  0  0  0
    6.6068    3.5973    3.4160 N   0  0  0  0  0  0  0  0  0  0  0  0
    6.6067    2.7660    4.6291 C   0  0  0  0  0  0  0  0  0  0  0  0
    7.6343    1.6671    4.4869 C   0  0  0  0  0  0  0  0  0  0  0  0
    7.7157    0.8529    3.3944 N   0  0  0  0  0  0  0  0  0  0  0  0
    8.6688   -0.0513    3.4431 C   0  0  0  0  0  0  0  0  0  0  0  0
    9.4712    0.1525    4.9270 S   0  0  0  0  0  0  0  0  0  0  0  0
    8.5315    1.4605    5.4875 C   0  0  0  0  0  0  0  0  0  0  0  0
    9.0108   -1.0609    2.4666 C   0  0  0  0  0  0  0  0  0  0  0  0
    8.3118   -1.3700    1.3940 O   0  0  0  0  0  0  0  0  0  0  0  0
    8.8944   -2.3380    0.7241 C   0  0  0  0  0  0  0  0  0  0  0  0
   10.0318   -2.6830    1.3906 C   0  0  0  0  0  0  0  0  0  0  0  0
   10.1174   -1.8538    2.5324 C   0  0  0  0  0  0  0  0  0  0  0  0
    8.8008    4.7139    3.7015 N   0  0  0  0  0  0  0  0  0  0  0  0
   10.0326    3.9494    3.4537 C   0  0  0  0  0  0  0  0  0  0  0  0
   11.2397    4.8302    3.7356 C   0  0  0  0  0  0  0  0  0  0  0  0
   11.2900    5.2633    5.0929 O   0  0  0  0  0  0  0  0  0  0  0  0
   10.0113    5.3926    5.7048 C   0  0  0  0  0  0  0  0  0  0  0  0
    8.9304    5.7783    4.7063 C   0  0  0  0  0  0  0  0  0  0  0  0
  1  2  2  0
  1  3  2  0
  1  4  1  0
  4  5  1  0
  4  6  1  0
  1  7  1  0
  7  8  2  0
  8  9  1  0
  9 10  2  0
 10 11  1  0
 11 12  2  0
 12  7  1  0
  9 13  1  0
 13 14  2  0
 14 15  1  0
 15 16  2  0
 16 17  1  0
 17 13  1  0
 17 18  1  0
 18 19  1  0
 19 20  1  0
 20 21  2  0
 21 22  1  0
 22 23  1  0
 19 23  2  0
 21 24  1  0
 24 25  1  0
 25 26  1  0
 26 27  2  0
 27 28  1  0
 24 28  2  0
 16 29  1  0
 29 30  1  0
 30 31  1  0
 31 32  1  0
 32 33  1  0
 33 34  1  0
 34 29  1  0
M  END
$$$$
s_274090____12936282____14260840
     RDKit          3D

 35 39  0  0  0  0  0  0  0  0999 V2000
    3.3565    3.5922    2.4839 S   0  0  0  0  0  0  0  0  0  0  0  0
    4.2306    2.1353    2.4537 C   0  0  0  0  0  0  0  0  0  0  0  0
    3.3504    1.1589    2.4688 N   0  0  0  0  0  0  0  0  0  0  0  0
    2.0451    1.5571    2.5007 C   0  0  0  0  0  0  0  0  0  0  0  0
    1.8007    2.8946    2.5111 C   0  0  0  0  0  0  0  0  0  0  0  0
    0.8828    0.5916    2.5269 C   0  0  0  0  0  0  0  0  0  0  0  0
    0.5391    0.2763    3.9208 N   0  0  0  0  0  0  0  0  0  0  0  0
   -0.3191    0.9304    4.6640 N   0  0  0  0  0  0  0  0  0  0  0  0
   -0.4082    0.4276    5.8191 N   0  0  0  0  0  0  0  0  0  0  0  0
    0.4428   -0.6337    5.8674 C   0  0  0  0  0  0  0  0  0  0  0  0
    0.6584   -1.5025    7.0108 C   0  0  0  0  0  0  0  0  0  0  0  0
    0.4182   -2.8768    6.9766 C   0  0  0  0  0  0  0  0  0  0  0  0
    0.6506   -3.6453    8.1145 C   0  0  0  0  0  0  0  0  0  0  0  0
    1.1198   -3.0060    9.2581 C   0  0  0  0  0  0  0  0  0  0  0  0
    1.3428   -1.6832    9.2684 N   0  0  0  0  0  0  0  0  0  0  0  0
    1.1260   -0.9225    8.1850 C   0  0  0  0  0  0  0  0  0  0  0  0
    0.4240   -5.0175    8.1169 C   0  0  0  0  0  0  0  0  0  0  0  0
   -0.0432   -5.6325    6.9603 C   0  0  0  0  0  0  0  0  0  0  0  0
   -0.2850   -4.8944    5.8074 C   0  0  0  0  0  0  0  0  0  0  0  0
   -0.0501   -3.5241    5.8343 C   0  0  0  0  0  0  0  0  0  0  0  0
    1.0545   -0.7423    4.6563 C   0  0  0  0  0  0  0  0  0  0  0  0
    5.6215    2.0524    2.4228 N   0  0  0  0  0  0  0  0  0  0  0  0
    6.3462    2.0014    3.6192 C   0  0  0  0  0  0  0  0  0  0  0  0
    6.6292    0.7686    4.1977 C   0  0  0  0  0  0  0  0  0  0  0  0
    7.3499    0.7306    5.3866 C   0  0  0  0  0  0  0  0  0  0  0  0
    7.7855    1.9023    5.9964 C   0  0  0  0  0  0  0  0  0  0  0  0
    7.4907    3.1238    5.3991 C   0  0  0  0  0  0  0  0  0  0  0  0
    6.7717    3.1860    4.2105 C   0  0  0  0  0  0  0  0  0  0  0  0
    7.6621   -0.6137    6.0240 C   0  0  0  0  0  0  0  0  0  0  0  0
    8.8233   -1.0657    5.5593 F   0  0  0  0  0  0  0  0  0  0  0  0
    7.7380   -0.4714    7.3442 F   0  0  0  0  0  0  0  0  0  0  0  0
    6.6979   -1.4801    5.7263 F   0  0  0  0  0  0  0  0  0  0  0  0
    6.2794    2.0209    1.2215 C   0  0  0  0  0  0  0  0  0  0  0  0
    5.6580    2.0646    0.1959 O   0  0  0  0  0  0  0  0  0  0  0  0
    7.7963    1.9305    1.1879 C   0  0  0  0  0  0  0  0  0  0  0  0
  1  2  1  0
  2  3  2  0
  3  4  1  0
  4  5  2  0
  5  1  1  0
  4  6  1  0
  6  7  1  0
  7  8  1  0
  8  9  2  0
  9 10  1  0
 10 11  1  0
 11 12  2  0
 12 13  1  0
 13 14  2  0
 14 15  1  0
 15 16  2  0
 16 11  1  0
 13 17  1  0
 17 18  2  0
 18 19  1  0
 19 20  2  0
 20 12  1  0
 10 21  2  0
 21  7  1  0
  2 22  1  0
 22 23  1  0
 23 24  2  0
 24 25  1  0
 25 26  2  0
 26 27  1  0
 27 28  2  0
 28 23  1  0
 25 29  1  0
 29 30  1  0
 29 31  1  0
 29 32  1  0
 22 33  1  0
 33 34  2  0
 33 35  1  0
M  END
$$$$
s_270196____10855104____8777480
     RDKit          3D

 31 35  0  0  0  0  0  0  0  0999 V2000
    1.0000    1.0000    1.0000 S   0  0  0  0  0  0  0  0  0  0  0  0
   -0.2666    1.6504    0.7848 O   0  0  0  0  0  0  0  0  0  0  0  0
    0.7848   -0.2666    1.6504 O   0  0  0  0  0  0  0  0  0  0  0  0
    1.7363    0.7563   -0.4337 N   0  0  0  0  0  0  0  0  0  0  0  0
    0.8876   -0.0924   -1.2824 C   0  0  0  0  0  0  0  0  0  0  0  0
    1.5741   -0.3196   -2.6193 C   0  0  0  0  0  0  0  0  0  0  0  0
    2.0045    2.0045    2.0045 C   0  0  0  0  0  0  0  0  0  0  0  0
    1.8611    3.3871    1.9566 C   0  0  0  0  0  0  0  0  0  0  0  0
    2.6713    4.1779    2.7649 C   0  0  0  0  0  0  0  0  0  0  0  0
    3.6142    3.6035    3.6112 C   0  0  0  0  0  0  0  0  0  0  0  0
    3.7415    2.2187    3.6444 C   0  0  0  0  0  0  0  0  0  0  0  0
    2.9408    1.4099    2.8445 C   0  0  0  0  0  0  0  0  0  0  0  0
    2.5242    5.6200    2.7173 C   0  0  0  0  0  0  0  0  0  0  0  0
    3.2112    6.4936    3.4154 N   0  0  0  0  0  0  0  0  0  0  0  0
    2.8139    7.6585    3.1124 O   0  0  0  0  0  0  0  0  0  0  0  0
    1.8618    7.5774    2.2150 C   0  0  0  0  0  0  0  0  0  0  0  0
    1.6526    6.3148    1.9404 N   0  0  0  0  0  0  0  0  0  0  0  0
    1.1587    8.6992    1.6241 C   0  0  0  0  0  0  0  0  0  0  0  0
    0.1702    8.6266    0.6931 C   0  0  0  0  0  0  0  0  0  0  0  0
   -0.1757    9.9155    0.4402 N   0  0  0  0  0  0  0  0  0  0  0  0
    0.5459   10.7358    1.1718 N   0  0  0  0  0  0  0  0  0  0  0  0
    1.3833   10.0621    1.9213 C   0  0  0  0  0  0  0  0  0  0  0  0
   -1.1601   10.1870   -0.4764 C   0  0  0  0  0  0  0  0  0  0  0  0
   -1.8121    9.1613   -1.1543 C   0  0  0  0  0  0  0  0  0  0  0  0
   -2.8071    9.4531   -2.0817 C   0  0  0  0  0  0  0  0  0  0  0  0
   -3.1702   10.7682   -2.3505 C   0  0  0  0  0  0  0  0  0  0  0  0
   -2.5162   11.7908   -1.6725 C   0  0  0  0  0  0  0  0  0  0  0  0
   -1.5214   11.5019   -0.7447 C   0  0  0  0  0  0  0  0  0  0  0  0
   -1.4405    7.8179   -0.8833 C   0  0  0  0  0  0  0  0  0  0  0  0
   -1.9496    6.8757   -1.4247 O   0  0  0  0  0  0  0  0  0  0  0  0
   -0.4530    7.5938    0.0401 N   0  0  0  0  0  0  0  0  0  0  0  0
  1  2  2  0
  1  3  2  0
  1  4  1  0
  4  5  1  0
  5  6  1  0
  1  7  1  0
  7  8  2  0
  8  9  1  0
  9 10  2  0
 10 11  1  0
 11 12  2  0
 12  7  1  0
  9 13  1  0
 13 14  2  0
 14 15  1  0
 15 16  1  0
 16 17  2  0
 17 13  1  0
 16 18  1  0
 18 19  2  0
 19 20  1  0
 20 21  1  0
 21 22  2  0
 22 18  1  0
 20 23  1  0
 23 24  2  0
 24 25  1  0
 25 26  2  0
 26 27  1  0
 27 28  2  0
 28 23  1  0
 24 29  1  0
 29 30  2  0
 29 31  1  0
 31 19  1  0
M  END
$$$$
m_274972____12934338____12615770____14584994
     RDKit          3D

 35 39  0  0  0  0  0  0  0  0999 V2000
    7.2001    1.5470    2.4514 S   0  0  0  0  0  0  0  0  0  0  0  0
    5.6629    0.8199    2.4636 C   0  0  0  0  0  0  0  0  0  0  0  0
    5.8493   -0.4811    2.4614 N   0  0  0  0  0  0  0  0  0  0  0  0
    7.1575   -0.8788    2.4485 C   0  0  0  0  0  0  0  0  0  0  0  0
    7.5997   -2.2604    2.4343 C   0  0  0  0  0  0  0  0  0  0  0  0
    8.8922   -2.6902    2.4120 N   0  0  0  0  0  0  0  0  0  0  0  0
    8.8813   -3.9527    2.4050 N   0  0  0  0  0  0  0  0  0  0  0  0
    7.6535   -4.4110    2.4269 N   0  0  0  0  0  0  0  0  0  0  0  0
    7.2876   -5.7638    2.4288 C   0  0  0  0  0  0  0  0  0  0  0  0
    7.2412   -6.5842    1.3444 N   0  0  0  0  0  0  0  0  0  0  0  0
    6.8395   -7.8255    1.7389 C   0  0  0  0  0  0  0  0  0  0  0  0
    6.6174   -7.8111    3.0976 C   0  0  0  0  0  0  0  0  0  0  0  0
    6.1922   -8.9866    3.7128 C   0  0  0  0  0  0  0  0  0  0  0  0
    5.9930  -10.1560    2.9852 C   0  0  0  0  0  0  0  0  0  0  0  0
    6.2242  -10.1461    1.6132 C   0  0  0  0  0  0  0  0  0  0  0  0
    6.6496   -8.9807    0.9845 C   0  0  0  0  0  0  0  0  0  0  0  0
    6.9060   -6.4936    3.5117 C   0  0  0  0  0  0  0  0  0  0  0  0
    6.8127   -5.9963    4.8686 C   0  0  0  0  0  0  0  0  0  0  0  0
    6.4646   -6.7284    5.7534 O   0  0  0  0  0  0  0  0  0  0  0  0
    7.1084   -4.7471    5.1302 O   0  0  0  0  0  0  0  0  0  0  0  0
    7.0169   -4.2595    6.4606 C   0  0  0  0  0  0  0  0  0  0  0  0
    7.5711   -6.1776   -0.0312 C   0  0  0  0  0  0  0  0  0  0  0  0
    6.7963   -3.3557    2.4469 C   0  0  0  0  0  0  0  0  0  0  0  0
    8.1028    0.1026    2.4391 C   0  0  0  0  0  0  0  0  0  0  0  0
    4.3934    1.5238    2.4792 C   0  0  0  0  0  0  0  0  0  0  0  0
    4.3898    2.9144    2.4850 C   0  0  0  0  0  0  0  0  0  0  0  0
    3.1783    3.5981    2.5011 C   0  0  0  0  0  0  0  0  0  0  0  0
    1.9856    2.8824    2.5103 C   0  0  0  0  0  0  0  0  0  0  0  0
    0.8052    3.5371    2.5243 O   0  0  0  0  0  0  0  0  0  0  0  0
    0.7807    4.9569    2.5297 C   0  0  0  0  0  0  0  0  0  0  0  0
   -0.6608    5.4387    2.5457 C   0  0  0  0  0  0  0  0  0  0  0  0
   -0.6853    6.8585    2.5511 O   0  0  0  0  0  0  0  0  0  0  0  0
   -2.0320    7.3086    2.5660 C   0  0  0  0  0  0  0  0  0  0  0  0
    1.9898    1.4913    2.5046 C   0  0  0  0  0  0  0  0  0  0  0  0
    3.2009    0.8075    2.4890 C   0  0  0  0  0  0  0  0  0  0  0  0
  1  2  1  0
  2  3  2  0
  3  4  1  0
  4  5  1  0
  5  6  1  0
  6  7  2  0
  7  8  1  0
  8  9  1  0
  9 10  1  0
 10 11  1  0
 11 12  2  0
 12 13  1  0
 13 14  2  0
 14 15  1  0
 15 16  2  0
 16 11  1  0
 12 17  1  0
  9 17  2  0
 17 18  1  0
 18 19  2  0
 18 20  1  0
 20 21  1  0
 10 22  1  0
  8 23  1  0
  5 23  2  0
  4 24  2  0
 24  1  1  0
  2 25  1  0
 25 26  2  0
 26 27  1  0
 27 28  2  0
 28 29  1  0
 29 30  1  0
 30 31  1  0
 31 32  1  0
 32 33  1  0
 28 34  1  0
 34 35  2  0
 35 25  1  0
M  END
$$$$
m_274972____12934338____12615770____13046636
     RDKit          3D

 31 35  0  0  0  0  0  0  0  0999 V2000
    7.5583   -0.4014    0.9946 S   0  0  0  0  0  0  0  0  0  0  0  0
    6.5663    0.9798    0.9971 C   0  0  0  0  0  0  0  0  0  0  0  0
    7.3601    2.0273    0.9933 N   0  0  0  0  0  0  0  0  0  0  0  0
    8.6971    1.7408    0.9908 C   0  0  0  0  0  0  0  0  0  0  0  0
    9.7538    2.7347    0.9960 C   0  0  0  0  0  0  0  0  0  0  0  0
   11.0928    2.4840    1.0028 N   0  0  0  0  0  0  0  0  0  0  0  0
   11.6954    3.5934    1.0062 N   0  0  0  0  0  0  0  0  0  0  0  0
   10.8436    4.5895    0.9963 N   0  0  0  0  0  0  0  0  0  0  0  0
   11.1791    5.9486    0.9944 C   0  0  0  0  0  0  0  0  0  0  0  0
   10.1650    6.9006    0.9834 C   0  0  0  0  0  0  0  0  0  0  0  0
   10.4991    8.2513    0.9817 C   0  0  0  0  0  0  0  0  0  0  0  0
   11.8366    8.6352    0.9916 C   0  0  0  0  0  0  0  0  0  0  0  0
   12.8443    7.6764    1.0026 C   0  0  0  0  0  0  0  0  0  0  0  0
   12.5184    6.3237    1.0039 C   0  0  0  0  0  0  0  0  0  0  0  0
   12.1778    9.9837    0.9911 C   0  0  0  0  0  0  0  0  0  0  0  0
   11.1651   10.9369    0.9802 C   0  0  0  0  0  0  0  0  0  0  0  0
    9.8273   10.5560    0.9707 C   0  0  0  0  0  0  0  0  0  0  0  0
    9.4889    9.2072    0.9712 C   0  0  0  0  0  0  0  0  0  0  0  0
    9.5821    4.0822    0.9889 C   0  0  0  0  0  0  0  0  0  0  0  0
    9.0481    0.4242    0.9927 C   0  0  0  0  0  0  0  0  0  0  0  0
    5.1146    0.9796    0.9975 C   0  0  0  0  0  0  0  0  0  0  0  0
    4.4370    2.1940    0.9996 C   0  0  0  0  0  0  0  0  0  0  0  0
    3.0459    2.2044    1.0013 C   0  0  0  0  0  0  0  0  0  0  0  0
    2.3499    1.0000    1.0000 C   0  0  0  0  0  0  0  0  0  0  0  0
    1.0000    1.0000    1.0000 O   0  0  0  0  0  0  0  0  0  0  0  0
    0.2900   -0.2298    0.9987 C   0  0  0  0  0  0  0  0  0  0  0  0
   -1.2044    0.0480    0.9990 C   0  0  0  0  0  0  0  0  0  0  0  0
   -1.5861    0.5833    2.2576 O   0  0  0  0  0  0  0  0  0  0  0  0
   -2.9822    0.8428    2.2579 C   0  0  0  0  0  0  0  0  0  0  0  0
    3.0283   -0.2145    0.9981 C   0  0  0  0  0  0  0  0  0  0  0  0
    4.4192   -0.2251    0.9969 C   0  0  0  0  0  0  0  0  0  0  0  0
  1  2  1  0
  2  3  2  0
  3  4  1  0
  4  5  1  0
  5  6  1  0
  6  7  2  0
  7  8  1  0
  8  9  1  0
  9 10  2  0
 10 11  1  0
 11 12  2  0
 12 13  1  0
 13 14  2  0
 14  9  1  0
 12 15  1  0
 15 16  2  0
 16 17  1  0
 17 18  2  0
 18 11  1  0
  8 19  1  0
  5 19  2  0
  4 20  2  0
 20  1  1  0
  2 21  1  0
 21 22  2  0
 22 23  1  0
 23 24  2  0
 24 25  1  0
 25 26  1  0
 26 27  1  0
 27 28  1  0
 28 29  1  0
 24 30  1  0
 30 31  2  0
 31 21  1  0
M  END
$$$$
m_274972____12934338____12615770____13046748
     RDKit          3D

 31 35  0  0  0  0  0  0  0  0999 V2000
    7.5583   -0.4014    0.9946 S   0  0  0  0  0  0  0  0  0  0  0  0
    6.5663    0.9798    0.9971 C   0  0  0  0  0  0  0  0  0  0  0  0
    7.3601    2.0273    0.9933 N   0  0  0  0  0  0  0  0  0  0  0  0
    8.6971    1.7408    0.9908 C   0  0  0  0  0  0  0  0  0  0  0  0
    9.7531    2.7340    0.9960 C   0  0  0  0  0  0  0  0  0  0  0  0
   11.0902    2.4792    1.0027 N   0  0  0  0  0  0  0  0  0  0  0  0
   11.6865    3.5926    1.0065 N   0  0  0  0  0  0  0  0  0  0  0  0
   10.8383    4.5912    1.0044 N   0  0  0  0  0  0  0  0  0  0  0  0
    9.5786    4.0840    0.9989 C   0  0  0  0  0  0  0  0  0  0  0  0
   11.1920    6.0178    1.0095 C   0  0  0  0  0  0  0  0  0  0  0  0
   11.3214    6.5130   -0.4222 C   0  0  0  0  0  0  0  0  0  0  0  0
   10.3113    7.0384   -1.1736 N   0  0  0  0  0  0  0  0  0  0  0  0
   10.8085    7.3492   -2.3480 C   0  0  0  0  0  0  0  0  0  0  0  0
   12.1265    7.0355   -2.3765 N   0  0  0  0  0  0  0  0  0  0  0  0
   12.4617    6.5059   -1.1658 C   0  0  0  0  0  0  0  0  0  0  0  0
   12.8788    7.2635   -3.4999 C   0  0  0  0  0  0  0  0  0  0  0  0
   12.3078    7.8151   -4.6178 C   0  0  0  0  0  0  0  0  0  0  0  0
   10.9278    8.1544   -4.6169 C   0  0  0  0  0  0  0  0  0  0  0  0
   10.1860    7.9210   -3.4887 C   0  0  0  0  0  0  0  0  0  0  0  0
    9.0481    0.4242    0.9927 C   0  0  0  0  0  0  0  0  0  0  0  0
    5.1146    0.9796    0.9975 C   0  0  0  0  0  0  0  0  0  0  0  0
    4.4370    2.1940    0.9996 C   0  0  0  0  0  0  0  0  0  0  0  0
    3.0459    2.2044    1.0013 C   0  0  0  0  0  0  0  0  0  0  0  0
    2.3499    1.0000    1.0000 C   0  0  0  0  0  0  0  0  0  0  0  0
    1.0000    1.0000    1.0000 O   0  0  0  0  0  0  0  0  0  0  0  0
    0.2900   -0.2298    0.9987 C   0  0  0  0  0  0  0  0  0  0  0  0
   -1.2044    0.0480    0.9990 C   0  0  0  0  0  0  0  0  0  0  0  0
   -1.5861    0.5833    2.2576 O   0  0  0  0  0  0  0  0  0  0  0  0
   -2.9822    0.8428    2.2579 C   0  0  0  0  0  0  0  0  0  0  0  0
    3.0283   -0.2145    0.9981 C   0  0  0  0  0  0  0  0  0  0  0  0
    4.4192   -0.2251    0.9969 C   0  0  0  0  0  0  0  0  0  0  0  0
  1  2  1  0
  2  3  2  0
  3  4  1  0
  4  5  1  0
  5  6  1  0
  6  7  2  0
  7  8  1  0
  8  9  1  0
  5  9  2  0
  8 10  1  0
 10 11  1  0
 11 12  1  0
 12 13  2  0
 13 14  1  0
 14 15  1  0
 11 15  2  0
 14 16  1  0
 16 17  2  0
 17 18  1  0
 18 19  2  0
 19 13  1  0
  4 20  2  0
 20  1  1  0
  2 21  1  0
 21 22  2  0
 22 23  1  0
 23 24  2  0
 24 25  1  0
 25 26  1  0
 26 27  1  0
 27 28  1  0
 28 29  1  0
 24 30  1  0
 30 31  2  0
 31 21  1  0
M  END
$$$$
m_273170____14420506____14470620____10766558
     RDKit          3D

 41 46  0  0  0  0  0  0  0  0999 V2000
    0.4648    3.7275    2.5286 S   0  0  0  0  0  0  0  0  0  0  0  0
    0.6132    4.9899    1.8520 O   0  0  0  0  0  0  0  0  0  0  0  0
   -0.5345    2.9375    1.8570 O   0  0  0  0  0  0  0  0  0  0  0  0
    0.0053    3.9882    4.0706 N   0  0  0  0  0  0  0  0  0  0  0  0
    1.0254    4.7946    4.7562 C   0  0  0  0  0  0  0  0  0  0  0  0
   -1.2776    4.7056    4.0850 C   0  0  0  0  0  0  0  0  0  0  0  0
    1.9833    2.8783    2.5116 C   0  0  0  0  0  0  0  0  0  0  0  0
    3.1735    3.5977    2.5023 C   0  0  0  0  0  0  0  0  0  0  0  0
    4.3802    2.9056    2.4882 C   0  0  0  0  0  0  0  0  0  0  0  0
    4.4059    1.5148    2.4827 C   0  0  0  0  0  0  0  0  0  0  0  0
    3.2042    0.8141    2.4925 C   0  0  0  0  0  0  0  0  0  0  0  0
    1.9869    1.4870    2.5070 C   0  0  0  0  0  0  0  0  0  0  0  0
    5.6236    3.6531    2.4786 C   0  0  0  0  0  0  0  0  0  0  0  0
    6.0035    4.5098    1.5576 N   0  0  0  0  0  0  0  0  0  0  0  0
    7.1830    4.9765    1.9022 N   0  0  0  0  0  0  0  0  0  0  0  0
    7.5919    4.4488    3.0295 C   0  0  0  0  0  0  0  0  0  0  0  0
    6.6068    3.5973    3.4160 N   0  0  0  0  0  0  0  0  0  0  0  0
    6.6067    2.7660    4.6291 C   0  0  0  0  0  0  0  0  0  0  0  0
    6.4531    3.6533    5.8503 C   0  0  0  0  0  0  0  0  0  0  0  0
    5.1735    4.2591    5.9023 O   0  0  0  0  0  0  0  0  0  0  0  0
    4.4969    3.7523    7.0407 C   0  0  0  0  0  0  0  0  0  0  0  0
    5.6190    3.5114    8.0228 C   0  0  0  0  0  0  0  0  0  0  0  0
    5.2275    2.7582    9.0498 F   0  0  0  0  0  0  0  0  0  0  0  0
    6.1387    4.6415    8.5019 F   0  0  0  0  0  0  0  0  0  0  0  0
    6.5326    2.7676    7.0685 C   0  0  0  0  0  0  0  0  0  0  0  0
    8.8020    4.7142    3.7021 N   0  0  0  0  0  0  0  0  0  0  0  0
    8.9195    5.7815    4.7060 C   0  0  0  0  0  0  0  0  0  0  0  0
   10.3686    6.2418    4.7355 C   0  0  0  0  0  0  0  0  0  0  0  0
   11.2395    5.2129    5.1938 O   0  0  0  0  0  0  0  0  0  0  0  0
   10.8769    3.9160    4.7335 C   0  0  0  0  0  0  0  0  0  0  0  0
   10.0356    3.9494    3.4624 C   0  0  0  0  0  0  0  0  0  0  0  0
   10.5068    7.4330    5.6703 C   0  0  0  0  0  0  0  0  0  0  0  0
   10.9344    8.6874    5.2377 C   0  0  0  0  0  0  0  0  0  0  0  0
   11.0457    9.7511    6.1287 C   0  0  0  0  0  0  0  0  0  0  0  0
   10.7241    9.5536    7.4674 C   0  0  0  0  0  0  0  0  0  0  0  0
   10.2970    8.3033    7.9031 C   0  0  0  0  0  0  0  0  0  0  0  0
   10.1870    7.2420    7.0104 C   0  0  0  0  0  0  0  0  0  0  0  0
   11.4734   11.0069    5.7087 C   0  0  0  0  0  0  0  0  0  0  0  0
   11.7953   11.2006    4.3700 C   0  0  0  0  0  0  0  0  0  0  0  0
   11.6932   10.1586    3.4542 C   0  0  0  0  0  0  0  0  0  0  0  0
   11.2627    8.9154    3.9046 C   0  0  0  0  0  0  0  0  0  0  0  0
  1  2  2  0
  1  3  2  0
  1  4  1  0
  4  5  1  0
  4  6  1  0
  1  7  1  0
  7  8  2  0
  8  9  1  0
  9 10  2  0
 10 11  1  0
 11 12  2  0
 12  7  1  0
  9 13  1  0
 13 14  2  0
 14 15  1  0
 15 16  2  0
 16 17  1  0
 17 13  1  0
 17 18  1  0
 18 19  1  0
 19 20  1  0
 20 21  1  0
 21 22  1  0
 22 23  1  0
 22 24  1  0
 22 25  1  0
 25 19  1  0
 16 26  1  0
 26 27  1  0
 27 28  1  0
 28 29  1  0
 29 30  1  0
 30 31  1  0
 31 26  1  0
 28 32  1  0
 32 33  2  0
 33 34  1  0
 34 35  2  0
 35 36  1  0
 36 37  2  0
 37 32  1  0
 34 38  1  0
 38 39  2  0
 39 40  1  0
 40 41  2  0
 41 33  1  0
M  END
$$$$
m_274972____12934080____12615770____13047098
     RDKit          3D

 41 46  0  0  0  0  0  0  0  0999 V2000
    8.7921    4.4864    2.8560 S   0  0  0  0  0  0  0  0  0  0  0  0
    9.9509    4.4255    2.0033 O   0  0  0  0  0  0  0  0  0  0  0  0
    8.0204    5.6588    2.5342 O   0  0  0  0  0  0  0  0  0  0  0  0
    9.2669    4.5591    4.4136 N   0  0  0  0  0  0  0  0  0  0  0  0
    8.0846    4.6212    5.2837 C   0  0  0  0  0  0  0  0  0  0  0  0
    7.7775    3.2169    5.8015 C   0  0  0  0  0  0  0  0  0  0  0  0
    6.4533    3.1054    6.5546 C   0  0  0  0  0  0  0  0  0  0  0  0
    6.6049    3.0245    8.0686 C   0  0  0  0  0  0  0  0  0  0  0  0
    7.5722    4.0369    8.6648 C   0  0  0  0  0  0  0  0  0  0  0  0
    7.0867    5.4745    8.5630 C   0  0  0  0  0  0  0  0  0  0  0  0
    7.0399    6.0230    7.1396 C   0  0  0  0  0  0  0  0  0  0  0  0
    8.2925    5.7137    6.3277 C   0  0  0  0  0  0  0  0  0  0  0  0
    7.8176    3.0658    2.6125 C   0  0  0  0  0  0  0  0  0  0  0  0
    6.4309    3.1709    2.6347 C   0  0  0  0  0  0  0  0  0  0  0  0
    5.6643    2.0267    2.4390 C   0  0  0  0  0  0  0  0  0  0  0  0
    6.2667    0.7913    2.2243 C   0  0  0  0  0  0  0  0  0  0  0  0
    7.6551    0.7078    2.2055 C   0  0  0  0  0  0  0  0  0  0  0  0
    8.4399    1.8399    2.3986 C   0  0  0  0  0  0  0  0  0  0  0  0
    4.2182    2.1329    2.4615 C   0  0  0  0  0  0  0  0  0  0  0  0
    3.3303    3.5831    2.4714 S   0  0  0  0  0  0  0  0  0  0  0  0
    1.7841    2.8690    2.4950 C   0  0  0  0  0  0  0  0  0  0  0  0
    2.0375    1.5302    2.4908 C   0  0  0  0  0  0  0  0  0  0  0  0
    3.3498    1.1464    2.4729 N   0  0  0  0  0  0  0  0  0  0  0  0
    0.9118    0.6170    2.5150 C   0  0  0  0  0  0  0  0  0  0  0  0
   -0.4027    0.9693    2.5423 N   0  0  0  0  0  0  0  0  0  0  0  0
   -1.0789   -0.0973    2.5583 N   0  0  0  0  0  0  0  0  0  0  0  0
   -0.3063   -1.1555    2.5452 N   0  0  0  0  0  0  0  0  0  0  0  0
    0.9870   -0.7420    2.5184 C   0  0  0  0  0  0  0  0  0  0  0  0
   -0.7636   -2.5524    2.5593 C   0  0  0  0  0  0  0  0  0  0  0  0
   -0.9516   -3.0383    1.1314 C   0  0  0  0  0  0  0  0  0  0  0  0
   -1.4091   -4.4359    1.1455 N   0  0  0  0  0  0  0  0  0  0  0  0
   -2.7459   -4.7439    1.1748 C   0  0  0  0  0  0  0  0  0  0  0  0
   -3.5495   -3.8237    1.1903 O   0  0  0  0  0  0  0  0  0  0  0  0
   -3.1601   -6.1057    1.1873 C   0  0  0  0  0  0  0  0  0  0  0  0
   -2.1867   -7.1009    1.1691 C   0  0  0  0  0  0  0  0  0  0  0  0
   -2.5407   -8.4460    1.1798 C   0  0  0  0  0  0  0  0  0  0  0  0
   -3.8861   -8.7969    1.2095 C   0  0  0  0  0  0  0  0  0  0  0  0
   -4.8789   -7.8226    1.2285 C   0  0  0  0  0  0  0  0  0  0  0  0
   -4.5002   -6.4849    1.2179 C   0  0  0  0  0  0  0  0  0  0  0  0
   -0.8100   -6.7492    1.1385 C   0  0  0  0  0  0  0  0  0  0  0  0
   -0.4586   -5.4237    1.1274 C   0  0  0  0  0  0  0  0  0  0  0  0
  1  2  2  0
  1  3  2  0
  1  4  1  0
  4  5  1  0
  5  6  1  0
  6  7  1  0
  7  8  1  0
  8  9  1  0
  9 10  1  0
 10 11  1  0
 11 12  1  0
 12  5  1  0
  1 13  1  0
 13 14  2  0
 14 15  1  0
 15 16  2  0
 16 17  1  0
 17 18  2  0
 18 13  1  0
 15 19  1  0
 19 20  1  0
 20 21  1  0
 21 22  2  0
 22 23  1  0
 19 23  2  0
 22 24  1  0
 24 25  1  0
 25 26  2  0
 26 27  1  0
 27 28  1  0
 24 28  2  0
 27 29  1  0
 29 30  1  0
 30 31  1  0
 31 32  1  0
 32 33  2  0
 32 34  1  0
 34 35  2  0
 35 36  1  0
 36 37  2  0
 37 38  1  0
 38 39  2  0
 39 34  1  0
 35 40  1  0
 40 41  2  0
 41 31  1  0
M  END
$$$$
s_1____86342____7594458____6673174
     RDKit          3D

 37 41  0  0  0  0  0  0  0  0999 V2000
    5.3165    6.2836    0.0816 S   0  0  0  0  0  0  0  0  0  0  0  0
    4.6429    7.1164    1.4067 C   0  0  0  0  0  0  0  0  0  0  0  0
    4.7688    8.3502    1.6757 N   0  0  0  0  0  0  0  0  0  0  0  0
    5.5662    9.2167    0.7959 C   0  0  0  0  0  0  0  0  0  0  0  0
    4.6718    9.8036   -0.2828 C   0  0  0  0  0  0  0  0  0  0  0  0
    4.0901    8.7726   -1.0565 O   0  0  0  0  0  0  0  0  0  0  0  0
    3.6428    9.3870   -2.2575 C   0  0  0  0  0  0  0  0  0  0  0  0
    4.5347   10.5940   -2.4728 C   0  0  0  0  0  0  0  0  0  0  0  0
    5.4999   10.5502   -1.3038 C   0  0  0  0  0  0  0  0  0  0  0  0
    3.9430    6.1856    2.1095 N   0  0  0  0  0  0  0  0  0  0  0  0
    3.2790    6.5174    3.2365 N   0  0  0  0  0  0  0  0  0  0  0  0
    2.3715    7.3761    3.1974 C   0  0  0  0  0  0  0  0  0  0  0  0
    1.6571    7.7331    4.4101 C   0  0  0  0  0  0  0  0  0  0  0  0
    0.6343    8.6822    4.4378 C   0  0  0  0  0  0  0  0  0  0  0  0
   -0.0060    8.9701    5.6406 C   0  0  0  0  0  0  0  0  0  0  0  0
    0.4032    8.2919    6.7848 C   0  0  0  0  0  0  0  0  0  0  0  0
    1.3894    7.3840    6.7348 N   0  0  0  0  0  0  0  0  0  0  0  0
    2.0208    7.0903    5.5883 C   0  0  0  0  0  0  0  0  0  0  0  0
   -1.0302    9.9088    5.7058 C   0  0  0  0  0  0  0  0  0  0  0  0
   -1.4215   10.5713    4.5474 C   0  0  0  0  0  0  0  0  0  0  0  0
   -0.8032   10.3070    3.3307 C   0  0  0  0  0  0  0  0  0  0  0  0
    0.2182    9.3641    3.2955 C   0  0  0  0  0  0  0  0  0  0  0  0
    3.9793    4.9240    1.5719 C   0  0  0  0  0  0  0  0  0  0  0  0
    3.3151    3.7763    2.1380 C   0  0  0  0  0  0  0  0  0  0  0  0
    2.5148    2.9826    1.3230 C   0  0  0  0  0  0  0  0  0  0  0  0
    1.8774    1.8774    1.8774 C   0  0  0  0  0  0  0  0  0  0  0  0
    2.0386    1.5727    3.2242 C   0  0  0  0  0  0  0  0  0  0  0  0
    1.4250    0.5132    3.7408 F   0  0  0  0  0  0  0  0  0  0  0  0
    2.8415    2.3749    4.0291 C   0  0  0  0  0  0  0  0  0  0  0  0
    3.4847    3.4832    3.4874 C   0  0  0  0  0  0  0  0  0  0  0  0
    1.0000    1.0000    1.0000 C   0  0  0  0  0  0  0  0  0  0  0  0
   -0.4273    1.5221    1.0276 C   0  0  0  0  0  0  0  0  0  0  0  0
   -1.2760    0.6734    0.1789 N   0  0  0  0  0  0  0  0  0  0  0  0
   -2.6109    0.9523    0.0484 C   0  0  0  0  0  0  0  0  0  0  0  0
   -3.0874    1.8895    0.6270 O   0  0  0  0  0  0  0  0  0  0  0  0
   -3.4885    0.0748   -0.8291 C   0  0  0  0  0  0  0  0  0  0  0  0
    4.6896    4.7395    0.4267 C   0  0  0  0  0  0  0  0  0  0  0  0
  1  2  1  0
  2  3  2  0
  3  4  1  0
  4  5  1  0
  5  6  1  0
  6  7  1  0
  7  8  1  0
  8  9  1  0
  9  5  1  0
  2 10  1  0
 10 11  1  0
 11 12  2  0
 12 13  1  0
 13 14  2  0
 14 15  1  0
 15 16  2  0
 16 17  1  0
 17 18  2  0
 18 13  1  0
 15 19  1  0
 19 20  2  0
 20 21  1  0
 21 22  2  0
 22 14  1  0
 10 23  1  0
 23 24  1  0
 24 25  2  0
 25 26  1  0
 26 27  2  0
 27 28  1  0
 27 29  1  0
 29 30  2  0
 30 24  1  0
 26 31  1  0
 31 32  1  0
 32 33  1  0
 33 34  1  0
 34 35  2  0
 34 36  1  0
 23 37  2  0
 37  1  1  0
M  END
$$$$
s_43____3014702____87511
     RDKit          3D

 37 41  0  0  0  0  0  0  0  0999 V2000
   10.1594    1.7162    2.3712 S   0  0  0  0  0  0  0  0  0  0  0  0
   10.5433    0.5073    1.6896 O   0  0  0  0  0  0  0  0  0  0  0  0
   10.7123    2.8527    1.6810 O   0  0  0  0  0  0  0  0  0  0  0  0
   10.7245    1.6811    3.8997 N   0  0  0  0  0  0  0  0  0  0  0  0
   10.3325    2.9153    4.5955 C   0  0  0  0  0  0  0  0  0  0  0  0
    8.4242    1.8413    2.3972 C   0  0  0  0  0  0  0  0  0  0  0  0
    7.8247    3.0963    2.4030 C   0  0  0  0  0  0  0  0  0  0  0  0
    6.4367    3.1848    2.4236 C   0  0  0  0  0  0  0  0  0  0  0  0
    5.6658    2.0266    2.4390 C   0  0  0  0  0  0  0  0  0  0  0  0
    6.2700    0.7735    2.4330 C   0  0  0  0  0  0  0  0  0  0  0  0
    7.6578    0.6804    2.4122 C   0  0  0  0  0  0  0  0  0  0  0  0
    4.2182    2.1329    2.4615 C   0  0  0  0  0  0  0  0  0  0  0  0
    3.3303    3.5831    2.4714 S   0  0  0  0  0  0  0  0  0  0  0  0
    1.7841    2.8690    2.4950 C   0  0  0  0  0  0  0  0  0  0  0  0
    2.0375    1.5302    2.4908 C   0  0  0  0  0  0  0  0  0  0  0  0
    3.3498    1.1464    2.4729 N   0  0  0  0  0  0  0  0  0  0  0  0
    0.9114    0.6167    2.5151 C   0  0  0  0  0  0  0  0  0  0  0  0
   -0.0173    0.4635    1.5351 C   0  0  0  0  0  0  0  0  0  0  0  0
   -0.8991   -0.4888    1.9417 N   0  0  0  0  0  0  0  0  0  0  0  0
   -2.0079   -0.9370    1.2127 C   0  0  0  0  0  0  0  0  0  0  0  0
   -3.3278   -0.4580    1.3198 C   0  0  0  0  0  0  0  0  0  0  0  0
   -3.7265    0.4265    2.0616 O   0  0  0  0  0  0  0  0  0  0  0  0
   -4.0693   -1.1777    0.4363 N   0  0  0  0  0  0  0  0  0  0  0  0
   -3.2938   -2.0367   -0.1798 N   0  0  0  0  0  0  0  0  0  0  0  0
   -2.0186   -1.9144    0.2708 C   0  0  0  0  0  0  0  0  0  0  0  0
   -0.8184   -2.7275   -0.1907 C   0  0  0  0  0  0  0  0  0  0  0  0
   -3.7343   -2.9899   -1.2078 C   0  0  0  0  0  0  0  0  0  0  0  0
   -5.4440   -1.0230    0.2198 C   0  0  0  0  0  0  0  0  0  0  0  0
   -6.3476   -1.7676    0.9712 C   0  0  0  0  0  0  0  0  0  0  0  0
   -7.7125   -1.6110    0.7534 C   0  0  0  0  0  0  0  0  0  0  0  0
   -8.1647   -0.7155   -0.2097 C   0  0  0  0  0  0  0  0  0  0  0  0
   -7.2522    0.0242   -0.9546 C   0  0  0  0  0  0  0  0  0  0  0  0
   -5.8851   -0.1241   -0.7457 C   0  0  0  0  0  0  0  0  0  0  0  0
   -0.5290   -0.9341    3.1733 C   0  0  0  0  0  0  0  0  0  0  0  0
    0.5932   -0.2711    3.5658 C   0  0  0  0  0  0  0  0  0  0  0  0
   -1.2486   -2.0005    3.9835 C   0  0  0  0  0  0  0  0  0  0  0  0
   -0.0618    1.2194    0.2164 C   0  0  0  0  0  0  0  0  0  0  0  0
  1  2  2  0
  1  3  2  0
  1  4  1  0
  4  5  1  0
  1  6  1  0
  6  7  2  0
  7  8  1  0
  8  9  2  0
  9 10  1  0
 10 11  2  0
 11  6  1  0
  9 12  1  0
 12 13  1  0
 13 14  1  0
 14 15  2  0
 15 16  1  0
 12 16  2  0
 15 17  1  0
 17 18  2  0
 18 19  1  0
 19 20  1  0
 20 21  1  0
 21 22  2  0
 21 23  1  0
 23 24  1  0
 24 25  1  0
 20 25  2  0
 25 26  1  0
 24 27  1  0
 23 28  1  0
 28 29  2  0
 29 30  1  0
 30 31  2  0
 31 32  1  0
 32 33  2  0
 33 28  1  0
 19 34  1  0
 34 35  2  0
 35 17  1  0
 34 36  1  0
 18 37  1  0
M  END
$$$$
s_274090____12936490____14260840
     RDKit          3D

 34 38  0  0  0  0  0  0  0  0999 V2000
    0.4648    3.7275    2.5286 S   0  0  0  0  0  0  0  0  0  0  0  0
   -0.5169    2.9240    3.2101 O   0  0  0  0  0  0  0  0  0  0  0  0
    0.6165    4.9844    3.2147 O   0  0  0  0  0  0  0  0  0  0  0  0
   -0.0238    3.9996    0.9976 N   0  0  0  0  0  0  0  0  0  0  0  0
   -0.1786    2.7165    0.2972 C   0  0  0  0  0  0  0  0  0  0  0  0
   -1.3117    4.7081    1.0128 C   0  0  0  0  0  0  0  0  0  0  0  0
    1.9893    2.8889    2.5105 C   0  0  0  0  0  0  0  0  0  0  0  0
    3.1876    3.5937    2.5055 C   0  0  0  0  0  0  0  0  0  0  0  0
    4.4127    2.9382    2.4927 C   0  0  0  0  0  0  0  0  0  0  0  0
    5.6913    3.4239    2.4842 N   0  0  0  0  0  0  0  0  0  0  0  0
    6.5087    2.3979    2.4677 C   0  0  0  0  0  0  0  0  0  0  0  0
    5.7691    1.2537    2.4692 N   0  0  0  0  0  0  0  0  0  0  0  0
    4.4368    1.5579    2.4836 C   0  0  0  0  0  0  0  0  0  0  0  0
    3.2411    0.8459    2.4889 C   0  0  0  0  0  0  0  0  0  0  0  0
    2.0129    1.4982    2.5019 C   0  0  0  0  0  0  0  0  0  0  0  0
    6.3255   -0.1078    2.4543 C   0  0  0  0  0  0  0  0  0  0  0  0
    6.5040   -0.5666    1.0163 C   0  0  0  0  0  0  0  0  0  0  0  0
    7.0791   -1.9735    1.0009 C   0  0  0  0  0  0  0  0  0  0  0  0
    8.0258    2.4768    2.4544 C   0  0  0  0  0  0  0  0  0  0  0  0
    8.5279    2.4902    3.8358 N   0  0  0  0  0  0  0  0  0  0  0  0
    8.8444    1.4350    4.5451 N   0  0  0  0  0  0  0  0  0  0  0  0
    9.2481    1.7566    5.6978 N   0  0  0  0  0  0  0  0  0  0  0  0
    9.2026    3.1146    5.7804 C   0  0  0  0  0  0  0  0  0  0  0  0
    9.5809    3.9119    6.9336 C   0  0  0  0  0  0  0  0  0  0  0  0
   10.5943    4.8705    6.8949 C   0  0  0  0  0  0  0  0  0  0  0  0
   10.8990    5.5977    8.0430 C   0  0  0  0  0  0  0  0  0  0  0  0
   10.1722    5.3379    9.2009 C   0  0  0  0  0  0  0  0  0  0  0  0
    9.2027    4.4108    9.2152 N   0  0  0  0  0  0  0  0  0  0  0  0
    8.8917    3.6980    8.1223 C   0  0  0  0  0  0  0  0  0  0  0  0
   11.9013    6.5619    8.0413 C   0  0  0  0  0  0  0  0  0  0  0  0
   12.6116    6.8037    6.8703 C   0  0  0  0  0  0  0  0  0  0  0  0
   12.3322    6.0957    5.7071 C   0  0  0  0  0  0  0  0  0  0  0  0
   11.3252    5.1373    5.7383 C   0  0  0  0  0  0  0  0  0  0  0  0
    8.7444    3.5967    4.5928 C   0  0  0  0  0  0  0  0  0  0  0  0
  1  2  2  0
  1  3  2  0
  1  4  1  0
  4  5  1  0
  4  6  1  0
  1  7  1  0
  7  8  2  0
  8  9  1  0
  9 10  1  0
 10 11  2  0
 11 12  1  0
 12 13  1  0
 13  9  2  0
 13 14  1  0
 14 15  2  0
 15  7  1  0
 12 16  1  0
 16 17  1  0
 17 18  1  0
 11 19  1  0
 19 20  1  0
 20 21  1  0
 21 22  2  0
 22 23  1  0
 23 24  1  0
 24 25  2  0
 25 26  1  0
 26 27  2  0
 27 28  1  0
 28 29  2  0
 29 24  1  0
 26 30  1  0
 30 31  2  0
 31 32  1  0
 32 33  2  0
 33 25  1  0
 23 34  2  0
 34 20  1  0
M  END
$$$$
m_273170____10756572____10759890____10755784
     RDKit          3D

 33 37  0  0  0  0  0  0  0  0999 V2000
    0.4648    3.7275    2.5286 S   0  0  0  0  0  0  0  0  0  0  0  0
   -0.5215    2.9336    3.2145 O   0  0  0  0  0  0  0  0  0  0  0  0
    0.6266    4.9857    3.2099 O   0  0  0  0  0  0  0  0  0  0  0  0
   -0.0243    3.9976    0.9974 N   0  0  0  0  0  0  0  0  0  0  0  0
   -0.1894    2.7131    0.3019 C   0  0  0  0  0  0  0  0  0  0  0  0
    1.9834    2.8778    2.5111 C   0  0  0  0  0  0  0  0  0  0  0  0
    3.1753    3.5954    2.5018 C   0  0  0  0  0  0  0  0  0  0  0  0
    4.3816    2.9033    2.4878 C   0  0  0  0  0  0  0  0  0  0  0  0
    4.4082    1.5127    2.4838 C   0  0  0  0  0  0  0  0  0  0  0  0
    3.2052    0.8142    2.4933 C   0  0  0  0  0  0  0  0  0  0  0  0
    1.9876    1.4868    2.5069 C   0  0  0  0  0  0  0  0  0  0  0  0
    5.6831    3.6886    2.4782 C   0  0  0  0  0  0  0  0  0  0  0  0
    5.6323    4.7088    1.4202 N   0  0  0  0  0  0  0  0  0  0  0  0
    5.6610    4.4763    0.0823 C   0  0  0  0  0  0  0  0  0  0  0  0
    5.5943    5.6557   -0.4844 N   0  0  0  0  0  0  0  0  0  0  0  0
    5.5258    6.6130    0.4137 N   0  0  0  0  0  0  0  0  0  0  0  0
    5.5475    6.0535    1.6024 C   0  0  0  0  0  0  0  0  0  0  0  0
    5.4910    6.7490    2.8744 C   0  0  0  0  0  0  0  0  0  0  0  0
    4.3302    6.9733    3.5134 N   0  0  0  0  0  0  0  0  0  0  0  0
    4.2660    7.6164    4.6921 C   0  0  0  0  0  0  0  0  0  0  0  0
    5.4310    8.0794    5.2965 C   0  0  0  0  0  0  0  0  0  0  0  0
    6.6469    7.8618    4.6572 C   0  0  0  0  0  0  0  0  0  0  0  0
    6.6822    7.1928    3.4383 C   0  0  0  0  0  0  0  0  0  0  0  0
    5.4103    8.7479    6.5160 C   0  0  0  0  0  0  0  0  0  0  0  0
    4.1902    8.9606    7.1496 C   0  0  0  0  0  0  0  0  0  0  0  0
    3.0136    8.5066    6.5626 C   0  0  0  0  0  0  0  0  0  0  0  0
    3.0572    7.8396    5.3426 C   0  0  0  0  0  0  0  0  0  0  0  0
    5.7479    3.2344   -0.5604 N   0  0  0  0  0  0  0  0  0  0  0  0
    7.0636    2.5891   -0.6878 C   0  0  0  0  0  0  0  0  0  0  0  0
    7.1505    1.7806   -1.9731 C   0  0  0  0  0  0  0  0  0  0  0  0
    5.9966    0.9706   -2.1529 O   0  0  0  0  0  0  0  0  0  0  0  0
    4.8608    1.7994   -2.3588 C   0  0  0  0  0  0  0  0  0  0  0  0
    4.5358    2.6122   -1.1149 C   0  0  0  0  0  0  0  0  0  0  0  0
  1  2  2  0
  1  3  2  0
  1  4  1  0
  4  5  1  0
  1  6  1  0
  6  7  2  0
  7  8  1  0
  8  9  2  0
  9 10  1  0
 10 11  2  0
 11  6  1  0
  8 12  1  0
 12 13  1  0
 13 14  1  0
 14 15  2  0
 15 16  1  0
 16 17  2  0
 17 13  1  0
 17 18  1  0
 18 19  2  0
 19 20  1  0
 20 21  2  0
 21 22  1  0
 22 23  2  0
 23 18  1  0
 21 24  1  0
 24 25  2  0
 25 26  1  0
 26 27  2  0
 27 20  1  0
 14 28  1  0
 28 29  1  0
 29 30  1  0
 30 31  1  0
 31 32  1  0
 32 33  1  0
 33 28  1  0
M  END
$$$$
s_7a____31280____8366508
     RDKit          3D

 40 45  0  0  0  0  0  0  0  0999 V2000
    1.0000    1.0000    1.0000 S   0  0  0  0  0  0  0  0  0  0  0  0
    1.0000    2.0228   -0.4078 C   0  0  0  0  0  0  0  0  0  0  0  0
   -0.1583    2.3965   -0.9222 N   0  0  0  0  0  0  0  0  0  0  0  0
   -0.2217    3.2022   -2.0300 C   0  0  0  0  0  0  0  0  0  0  0  0
    0.9512    3.6435   -2.6367 C   0  0  0  0  0  0  0  0  0  0  0  0
    0.8853    4.4600   -3.7619 C   0  0  0  0  0  0  0  0  0  0  0  0
   -0.3318    4.8534   -4.3035 C   0  0  0  0  0  0  0  0  0  0  0  0
   -1.4936    4.4055   -3.6876 C   0  0  0  0  0  0  0  0  0  0  0  0
   -1.4486    3.5874   -2.5619 C   0  0  0  0  0  0  0  0  0  0  0  0
   -2.7574    4.8210   -4.2597 C   0  0  0  0  0  0  0  0  0  0  0  0
   -3.7884    4.4599   -3.7631 O   0  0  0  0  0  0  0  0  0  0  0  0
   -2.7751    5.5911   -5.3193 O   0  0  0  0  0  0  0  0  0  0  0  0
   -4.0143    5.9985   -5.8803 C   0  0  0  0  0  0  0  0  0  0  0  0
    2.1924    3.2361   -2.0757 C   0  0  0  0  0  0  0  0  0  0  0  0
    3.2676    3.5784   -2.5470 O   0  0  0  0  0  0  0  0  0  0  0  0
    2.1832    2.4305   -0.9677 N   0  0  0  0  0  0  0  0  0  0  0  0
    3.4612    2.0026   -0.3793 C   0  0  0  0  0  0  0  0  0  0  0  0
    3.9016    0.6971   -1.0195 C   0  0  0  0  0  0  0  0  0  0  0  0
    2.9339   -0.3107   -0.8010 O   0  0  0  0  0  0  0  0  0  0  0  0
    3.5936   -1.5471   -1.0377 C   0  0  0  0  0  0  0  0  0  0  0  0
    5.0609   -1.3073   -0.7408 C   0  0  0  0  0  0  0  0  0  0  0  0
    5.1149    0.1448   -0.3065 C   0  0  0  0  0  0  0  0  0  0  0  0
    1.0000    2.2799    2.2799 C   0  0  0  0  0  0  0  0  0  0  0  0
   -0.3467    2.9848    2.2916 C   0  0  0  0  0  0  0  0  0  0  0  0
   -0.6647    4.0459    1.5927 O   0  0  0  0  0  0  0  0  0  0  0  0
   -1.8628    4.3898    1.8247 N   0  0  0  0  0  0  0  0  0  0  0  0
   -2.4110    3.5759    2.6913 C   0  0  0  0  0  0  0  0  0  0  0  0
   -3.7668    3.6436    3.2053 C   0  0  0  0  0  0  0  0  0  0  0  0
   -4.7573    2.9530    2.5145 C   0  0  0  0  0  0  0  0  0  0  0  0
   -4.4732    2.2418    1.4022 O   0  0  0  0  0  0  0  0  0  0  0  0
   -5.5071    1.5478    0.7198 C   0  0  0  0  0  0  0  0  0  0  0  0
   -6.0734    2.9822    2.9628 C   0  0  0  0  0  0  0  0  0  0  0  0
   -6.4037    3.7046    4.1050 C   0  0  0  0  0  0  0  0  0  0  0  0
   -5.4183    4.3972    4.7991 C   0  0  0  0  0  0  0  0  0  0  0  0
   -4.0995    4.3675    4.3512 C   0  0  0  0  0  0  0  0  0  0  0  0
   -3.1498    5.0774    5.0828 C   0  0  0  0  0  0  0  0  0  0  0  0
   -3.4815    5.7983    6.2241 C   0  0  0  0  0  0  0  0  0  0  0  0
   -4.8078    5.8061    6.6421 C   0  0  0  0  0  0  0  0  0  0  0  0
   -5.7832    5.1090    5.9367 C   0  0  0  0  0  0  0  0  0  0  0  0
   -1.4310    2.6218    3.0274 C   0  0  0  0  0  0  0  0  0  0  0  0
  1  2  1  0
  2  3  2  0
  3  4  1  0
  4  5  2  0
  5  6  1  0
  6  7  2  0
  7  8  1  0
  8  9  2  0
  9  4  1  0
  8 10  1  0
 10 11  2  0
 10 12  1  0
 12 13  1  0
  5 14  1  0
 14 15  2  0
 14 16  1  0
 16  2  1  0
 16 17  1  0
 17 18  1  0
 18 19  1  0
 19 20  1  0
 20 21  1  0
 21 22  1  0
 22 18  1  0
  1 23  1  0
 23 24  1  0
 24 25  1  0
 25 26  1  0
 26 27  2  0
 27 28  1  0
 28 29  2  0
 29 30  1  0
 30 31  1  0
 29 32  1  0
 32 33  2  0
 33 34  1  0
 34 35  2  0
 35 28  1  0
 35 36  1  0
 36 37  2  0
 37 38  1  0
 38 39  2  0
 39 34  1  0
 27 40  1  0
 24 40  2  0
M  END
$$$$
m_274972____12934174____12615770____13047098
     RDKit          3D

 35 39  0  0  0  0  0  0  0  0999 V2000
   12.2708    1.6700    2.2931 S   0  0  0  0  0  0  0  0  0  0  0  0
   12.5794    0.8844    3.4598 O   0  0  0  0  0  0  0  0  0  0  0  0
   12.5386    0.8960    1.1086 O   0  0  0  0  0  0  0  0  0  0  0  0
   13.1928    3.0142    2.2837 N   0  0  0  0  0  0  0  0  0  0  0  0
   10.5904    2.1195    2.3244 C   0  0  0  0  0  0  0  0  0  0  0  0
    9.9013    2.3042    1.1308 C   0  0  0  0  0  0  0  0  0  0  0  0
    8.5575    2.6638    1.1532 C   0  0  0  0  0  0  0  0  0  0  0  0
    7.9198    2.8347    2.3773 C   0  0  0  0  0  0  0  0  0  0  0  0
    8.6100    2.6502    3.5709 C   0  0  0  0  0  0  0  0  0  0  0  0
    9.9529    2.2903    3.5491 C   0  0  0  0  0  0  0  0  0  0  0  0
    6.4523    3.2286    2.4073 C   0  0  0  0  0  0  0  0  0  0  0  0
    5.6199    2.0170    2.4168 N   0  0  0  0  0  0  0  0  0  0  0  0
    4.2262    2.1265    2.4440 C   0  0  0  0  0  0  0  0  0  0  0  0
    3.3287    3.5724    2.4687 S   0  0  0  0  0  0  0  0  0  0  0  0
    1.7793    2.8660    2.4982 C   0  0  0  0  0  0  0  0  0  0  0  0
    2.0377    1.5325    2.4911 C   0  0  0  0  0  0  0  0  0  0  0  0
    3.3528    1.1511    2.4644 N   0  0  0  0  0  0  0  0  0  0  0  0
    0.9127    0.6185    2.5170 C   0  0  0  0  0  0  0  0  0  0  0  0
   -0.4020    0.9697    2.5482 N   0  0  0  0  0  0  0  0  0  0  0  0
   -1.0773   -0.0975    2.5643 N   0  0  0  0  0  0  0  0  0  0  0  0
   -0.3040   -1.1550    2.5476 N   0  0  0  0  0  0  0  0  0  0  0  0
    0.9889   -0.7405    2.5181 C   0  0  0  0  0  0  0  0  0  0  0  0
   -0.7602   -2.5522    2.5607 C   0  0  0  0  0  0  0  0  0  0  0  0
   -0.9516   -3.0362    1.1326 C   0  0  0  0  0  0  0  0  0  0  0  0
   -1.4080   -4.4341    1.1457 N   0  0  0  0  0  0  0  0  0  0  0  0
   -2.7445   -4.7431    1.1781 C   0  0  0  0  0  0  0  0  0  0  0  0
   -3.5487   -3.8235    1.1971 O   0  0  0  0  0  0  0  0  0  0  0  0
   -3.1577   -6.1052    1.1896 C   0  0  0  0  0  0  0  0  0  0  0  0
   -2.1835   -7.0997    1.1673 C   0  0  0  0  0  0  0  0  0  0  0  0
   -2.5365   -8.4451    1.1769 C   0  0  0  0  0  0  0  0  0  0  0  0
   -3.8815   -8.7970    1.2096 C   0  0  0  0  0  0  0  0  0  0  0  0
   -4.8750   -7.8236    1.2327 C   0  0  0  0  0  0  0  0  0  0  0  0
   -4.4974   -6.4855    1.2231 C   0  0  0  0  0  0  0  0  0  0  0  0
   -0.8072   -6.7469    1.1337 C   0  0  0  0  0  0  0  0  0  0  0  0
   -0.4568   -5.4211    1.1237 C   0  0  0  0  0  0  0  0  0  0  0  0
  1  2  2  0
  1  3  2  0
  1  4  1  0
  1  5  1  0
  5  6  2  0
  6  7  1  0
  7  8  2  0
  8  9  1  0
  9 10  2  0
 10  5  1  0
  8 11  1  0
 11 12  1  0
 12 13  1  0
 13 14  1  0
 14 15  1  0
 15 16  2  0
 16 17  1  0
 13 17  2  0
 16 18  1  0
 18 19  1  0
 19 20  2  0
 20 21  1  0
 21 22  1  0
 18 22  2  0
 21 23  1  0
 23 24  1  0
 24 25  1  0
 25 26  1  0
 26 27  2  0
 26 28  1  0
 28 29  2  0
 29 30  1  0
 30 31  2  0
 31 32  1  0
 32 33  2  0
 33 28  1  0
 29 34  1  0
 34 35  2  0
 35 25  1  0
M  END
$$$$
m_270942____9828442____13909302____14069338
     RDKit          3D

 35 39  0  0  0  0  0  0  0  0999 V2000
    3.2033   -0.2950    5.1544 Cl  0  0  0  0  0  0  0  0  0  0  0  0
    3.8778   -0.9297    3.6338 C   0  0  0  0  0  0  0  0  0  0  0  0
    3.9079   -0.1493    2.4826 C   0  0  0  0  0  0  0  0  0  0  0  0
    4.4365   -0.6553    1.2990 C   0  0  0  0  0  0  0  0  0  0  0  0
    4.9379   -1.9525    1.2736 C   0  0  0  0  0  0  0  0  0  0  0  0
    4.9078   -2.7332    2.4244 C   0  0  0  0  0  0  0  0  0  0  0  0
    5.5344   -4.3565    2.3918 S   0  0  0  0  0  0  0  0  0  0  0  0
    6.7983   -4.3694    1.7017 O   0  0  0  0  0  0  0  0  0  0  0  0
    5.7190   -4.8270    3.7402 O   0  0  0  0  0  0  0  0  0  0  0  0
    4.4819   -5.3298    1.6160 N   0  0  0  0  0  0  0  0  0  0  0  0
    4.3789   -2.2274    3.6079 C   0  0  0  0  0  0  0  0  0  0  0  0
    3.3905    1.2051    2.4893 C   0  0  0  0  0  0  0  0  0  0  0  0
    4.1071    2.3065    2.4903 N   0  0  0  0  0  0  0  0  0  0  0  0
    3.2789    3.3271    2.4974 N   0  0  0  0  0  0  0  0  0  0  0  0
    2.0315    2.9267    2.5008 C   0  0  0  0  0  0  0  0  0  0  0  0
    2.0806    1.5694    2.4959 N   0  0  0  0  0  0  0  0  0  0  0  0
    0.9245    0.6605    2.4981 C   0  0  0  0  0  0  0  0  0  0  0  0
    0.2173    0.7373    1.1555 C   0  0  0  0  0  0  0  0  0  0  0  0
   -0.9878   -0.1785    1.0910 C   0  0  0  0  0  0  0  0  0  0  0  0
   -1.2228   -0.3634   -0.2935 O   0  0  0  0  0  0  0  0  0  0  0  0
   -0.0031   -0.1643   -0.9902 C   0  0  0  0  0  0  0  0  0  0  0  0
    1.0536    0.1380    0.0552 C   0  0  0  0  0  0  0  0  0  0  0  0
    0.8853    3.7336    2.5048 N   0  0  0  0  0  0  0  0  0  0  0  0
   -0.4485    3.1157    2.5084 C   0  0  0  0  0  0  0  0  0  0  0  0
   -1.5114    4.2039    2.5122 C   0  0  0  0  0  0  0  0  0  0  0  0
   -1.8532    4.9199    3.6585 C   0  0  0  0  0  0  0  0  0  0  0  0
   -2.8390    5.9015    3.5811 C   0  0  0  0  0  0  0  0  0  0  0  0
   -3.4482    6.1492    2.4112 N   0  0  0  0  0  0  0  0  0  0  0  0
   -3.1331    5.4717    1.2966 C   0  0  0  0  0  0  0  0  0  0  0  0
   -2.1576    4.4803    1.3128 C   0  0  0  0  0  0  0  0  0  0  0  0
   -3.1880    6.6197    4.7202 C   0  0  0  0  0  0  0  0  0  0  0  0
   -2.5655    6.3723    5.9391 C   0  0  0  0  0  0  0  0  0  0  0  0
   -1.5793    5.3963    6.0305 C   0  0  0  0  0  0  0  0  0  0  0  0
   -1.2376    4.6835    4.8863 C   0  0  0  0  0  0  0  0  0  0  0  0
    1.0172    5.1977    2.5052 C   0  0  0  0  0  0  0  0  0  0  0  0
  1  2  1  0
  2  3  2  0
  3  4  1  0
  4  5  2  0
  5  6  1  0
  6  7  1  0
  7  8  2  0
  7  9  2  0
  7 10  1  0
  6 11  2  0
 11  2  1  0
  3 12  1  0
 12 13  2  0
 13 14  1  0
 14 15  2  0
 15 16  1  0
 16 12  1  0
 16 17  1  0
 17 18  1  0
 18 19  1  0
 19 20  1  0
 20 21  1  0
 21 22  1  0
 22 18  1  0
 15 23  1  0
 23 24  1  0
 24 25  1  0
 25 26  2  0
 26 27  1  0
 27 28  2  0
 28 29  1  0
 29 30  2  0
 30 25  1  0
 27 31  1  0
 31 32  2  0
 32 33  1  0
 33 34  2  0
 34 26  1  0
 23 35  1  0
M  END
$$$$
m_274972____15150082____12615770____14260852
     RDKit          3D

 28 32  0  0  0  0  0  0  0  0999 V2000
    5.4654   -1.9798    2.3750 S   0  0  0  0  0  0  0  0  0  0  0  0
    3.8153   -2.3902    2.3889 C   0  0  0  0  0  0  0  0  0  0  0  0
    3.1362   -1.2653    2.4190 N   0  0  0  0  0  0  0  0  0  0  0  0
    3.8973   -0.1294    2.4325 C   0  0  0  0  0  0  0  0  0  0  0  0
    3.3679    1.2133    2.4745 C   0  0  0  0  0  0  0  0  0  0  0  0
    4.0997    2.3609    2.4928 N   0  0  0  0  0  0  0  0  0  0  0  0
    3.2864    3.3264    2.5304 N   0  0  0  0  0  0  0  0  0  0  0  0
    2.0449    2.9079    2.5406 N   0  0  0  0  0  0  0  0  0  0  0  0
    2.0495    1.5504    2.5067 C   0  0  0  0  0  0  0  0  0  0  0  0
    0.8509    3.7641    2.5836 C   0  0  0  0  0  0  0  0  0  0  0  0
    0.4156    4.0964    1.1686 C   0  0  0  0  0  0  0  0  0  0  0  0
    0.1007    2.9306    0.4280 O   0  0  0  0  0  0  0  0  0  0  0  0
   -1.2840    2.9674    0.1245 C   0  0  0  0  0  0  0  0  0  0  0  0
   -1.5608    4.4454   -0.0179 C   0  0  0  0  0  0  0  0  0  0  0  0
   -2.8668    4.7096   -0.0106 F   0  0  0  0  0  0  0  0  0  0  0  0
   -1.0307    4.9668   -1.1242 F   0  0  0  0  0  0  0  0  0  0  0  0
   -0.8707    4.8786    1.2607 C   0  0  0  0  0  0  0  0  0  0  0  0
    5.2502   -0.2906    2.4139 C   0  0  0  0  0  0  0  0  0  0  0  0
    3.2779   -3.7384    2.3657 C   0  0  0  0  0  0  0  0  0  0  0  0
    1.9561   -3.9778    2.3789 N   0  0  0  0  0  0  0  0  0  0  0  0
    1.4493   -5.2218    2.3575 C   0  0  0  0  0  0  0  0  0  0  0  0
    2.3041   -6.3204    2.3201 C   0  0  0  0  0  0  0  0  0  0  0  0
    3.6776   -6.1009    2.3056 C   0  0  0  0  0  0  0  0  0  0  0  0
    4.1748   -4.8015    2.3289 C   0  0  0  0  0  0  0  0  0  0  0  0
    1.8108   -7.6207    2.2969 C   0  0  0  0  0  0  0  0  0  0  0  0
    0.4342   -7.8192    2.3121 C   0  0  0  0  0  0  0  0  0  0  0  0
   -0.4412   -6.7390    2.3492 C   0  0  0  0  0  0  0  0  0  0  0  0
    0.0765   -5.4480    2.3718 C   0  0  0  0  0  0  0  0  0  0  0  0
  1  2  1  0
  2  3  2  0
  3  4  1  0
  4  5  1  0
  5  6  1  0
  6  7  2  0
  7  8  1  0
  8  9  1  0
  5  9  2  0
  8 10  1  0
 10 11  1  0
 11 12  1  0
 12 13  1  0
 13 14  1  0
 14 15  1  0
 14 16  1  0
 14 17  1  0
 17 11  1  0
  4 18  2  0
 18  1  1  0
  2 19  1  0
 19 20  2  0
 20 21  1  0
 21 22  2  0
 22 23  1  0
 23 24  2  0
 24 19  1  0
 22 25  1  0
 25 26  2  0
 26 27  1  0
 27 28  2  0
 28 21  1  0
M  END
$$$$
m_274860a____17143510____17212876____15233762
     RDKit          3D

 34 38  0  0  0  0  0  0  0  0999 V2000
   -0.6008   -7.1270   -2.7805 O   0  0  0  0  0  0  0  0  0  0  0  0
    0.3357   -6.3459   -2.7425 N   0  0  0  0  0  0  0  0  0  0  0  0
    1.4350   -6.7014   -3.1020 O   0  0  0  0  0  0  0  0  0  0  0  0
    0.1383   -5.0379   -2.2828 C   0  0  0  0  0  0  0  0  0  0  0  0
    1.2163   -4.1620   -2.2506 C   0  0  0  0  0  0  0  0  0  0  0  0
    1.0368   -2.8555   -1.8093 C   0  0  0  0  0  0  0  0  0  0  0  0
   -0.2190   -2.4485   -1.4016 C   0  0  0  0  0  0  0  0  0  0  0  0
   -1.2987   -3.3233   -1.4246 C   0  0  0  0  0  0  0  0  0  0  0  0
   -1.1257   -4.6309   -1.8700 C   0  0  0  0  0  0  0  0  0  0  0  0
   -0.1398   -0.9953   -0.9910 C   0  0  0  0  0  0  0  0  0  0  0  0
    1.2907   -0.7784   -0.7784 N   0  0  0  0  0  0  0  0  0  0  0  0
    1.8776    0.1224    0.1224 C   0  0  0  0  0  0  0  0  0  0  0  0
    3.0725    0.2003    0.2003 O   0  0  0  0  0  0  0  0  0  0  0  0
    1.0000    1.0000    1.0000 C   0  0  0  0  0  0  0  0  0  0  0  0
    0.1514    1.8486    0.1514 N   0  0  0  0  0  0  0  0  0  0  0  0
    0.5781    2.7246   -0.7246 N   0  0  0  0  0  0  0  0  0  0  0  0
   -0.3824    3.3032   -1.3057 N   0  0  0  0  0  0  0  0  0  0  0  0
   -1.5352    2.7917   -0.7935 C   0  0  0  0  0  0  0  0  0  0  0  0
   -2.8824    3.1731   -1.1784 C   0  0  0  0  0  0  0  0  0  0  0  0
   -3.8047    2.2708   -1.7101 C   0  0  0  0  0  0  0  0  0  0  0  0
   -5.0801    2.7118   -2.0542 C   0  0  0  0  0  0  0  0  0  0  0  0
   -5.3914    4.0531   -1.8526 C   0  0  0  0  0  0  0  0  0  0  0  0
   -4.4883    4.9029   -1.3408 N   0  0  0  0  0  0  0  0  0  0  0  0
   -3.2540    4.5014   -1.0023 C   0  0  0  0  0  0  0  0  0  0  0  0
   -6.0257    1.8409   -2.5852 C   0  0  0  0  0  0  0  0  0  0  0  0
   -5.6899    0.5047   -2.7750 C   0  0  0  0  0  0  0  0  0  0  0  0
   -4.4258    0.0322   -2.4416 C   0  0  0  0  0  0  0  0  0  0  0  0
   -3.5006    0.9257   -1.9134 C   0  0  0  0  0  0  0  0  0  0  0  0
   -1.2066    1.8571    0.1400 C   0  0  0  0  0  0  0  0  0  0  0  0
    1.8776    1.8776    1.8776 C   0  0  0  0  0  0  0  0  0  0  0  0
    1.0577    2.6974    2.6974 O   0  0  0  0  0  0  0  0  0  0  0  0
    1.8776    3.5172    3.5172 C   0  0  0  0  0  0  0  0  0  0  0  0
    1.0000    4.3948    4.3948 C   0  0  0  0  0  0  0  0  0  0  0  0
    1.9915   -1.6890   -1.6890 C   0  0  0  0  0  0  0  0  0  0  0  0
  1  2  1  0
  2  3  2  0
  2  4  1  0
  4  5  2  0
  5  6  1  0
  6  7  2  0
  7  8  1  0
  8  9  2  0
  9  4  1  0
  7 10  1  0
 10 11  1  0
 11 12  1  0
 12 13  2  0
 12 14  1  0
 14 15  1  0
 15 16  1  0
 16 17  2  0
 17 18  1  0
 18 19  1  0
 19 20  2  0
 20 21  1  0
 21 22  2  0
 22 23  1  0
 23 24  2  0
 24 19  1  0
 21 25  1  0
 25 26  2  0
 26 27  1  0
 27 28  2  0
 28 20  1  0
 18 29  2  0
 29 15  1  0
 14 30  1  0
 30 31  1  0
 31 32  1  0
 32 33  1  0
 11 34  1  0
 34  6  1  0
M  CHG  2   1  -1   2   1
M  END
$$$$
s_2____11687950____16645038____12433048
     RDKit          3D

 38 42  0  0  0  0  0  0  0  0999 V2000
   -7.0559   -0.6476    5.8037 Cl  0  0  0  0  0  0  0  0  0  0  0  0
   -5.6236   -1.0425    4.8240 C   0  0  0  0  0  0  0  0  0  0  0  0
   -5.5561   -0.6183    3.5011 C   0  0  0  0  0  0  0  0  0  0  0  0
   -4.4345   -0.9305    2.7404 C   0  0  0  0  0  0  0  0  0  0  0  0
   -3.3955   -1.6602    3.3079 C   0  0  0  0  0  0  0  0  0  0  0  0
   -2.3097   -1.9595    2.5631 O   0  0  0  0  0  0  0  0  0  0  0  0
   -1.2568   -1.1152    2.5346 C   0  0  0  0  0  0  0  0  0  0  0  0
   -0.8473   -0.5537    1.3297 C   0  0  0  0  0  0  0  0  0  0  0  0
    0.2399    0.3140    1.3103 C   0  0  0  0  0  0  0  0  0  0  0  0
    0.9034    0.6099    2.4960 C   0  0  0  0  0  0  0  0  0  0  0  0
    0.4940    0.0492    3.7015 C   0  0  0  0  0  0  0  0  0  0  0  0
   -0.5928   -0.8187    3.7205 C   0  0  0  0  0  0  0  0  0  0  0  0
    2.0334    1.5154    2.4653 C   0  0  0  0  0  0  0  0  0  0  0  0
    3.3388    1.1121    2.4746 N   0  0  0  0  0  0  0  0  0  0  0  0
    4.2406    2.1295    2.4468 C   0  0  0  0  0  0  0  0  0  0  0  0
    3.3299    3.5681    2.4036 S   0  0  0  0  0  0  0  0  0  0  0  0
    1.7813    2.8529    2.4247 C   0  0  0  0  0  0  0  0  0  0  0  0
    5.5094    2.0301    2.4537 N   0  0  0  0  0  0  0  0  0  0  0  0
    6.2951    3.1226    2.8406 C   0  0  0  0  0  0  0  0  0  0  0  0
    6.6430    3.2756    4.1785 C   0  0  0  0  0  0  0  0  0  0  0  0
    7.4230    4.3582    4.5705 C   0  0  0  0  0  0  0  0  0  0  0  0
    7.8467    5.2761    3.6152 C   0  0  0  0  0  0  0  0  0  0  0  0
    8.8234    6.6324    4.0978 S   0  0  0  0  0  0  0  0  0  0  0  0
    8.0202    7.5568    4.8555 O   0  0  0  0  0  0  0  0  0  0  0  0
    9.9187    6.1702    4.9104 O   0  0  0  0  0  0  0  0  0  0  0  0
    9.4078    7.3800    2.7725 N   0  0  0  0  0  0  0  0  0  0  0  0
    7.5026    5.1284    2.2758 C   0  0  0  0  0  0  0  0  0  0  0  0
    6.7221    4.0437    1.8906 C   0  0  0  0  0  0  0  0  0  0  0  0
    3.7809   -0.2906    2.5193 C   0  0  0  0  0  0  0  0  0  0  0  0
    4.1325   -0.8207    1.1397 C   0  0  0  0  0  0  0  0  0  0  0  0
    3.1162   -0.6567    0.2979 F   0  0  0  0  0  0  0  0  0  0  0  0
    5.2010   -0.2239    0.6156 F   0  0  0  0  0  0  0  0  0  0  0  0
    4.3331   -2.3159    1.3260 C   0  0  0  0  0  0  0  0  0  0  0  0
    5.0627   -2.6205    2.6295 C   0  0  0  0  0  0  0  0  0  0  0  0
    5.7936   -1.5213    3.1683 O   0  0  0  0  0  0  0  0  0  0  0  0
    4.9771   -0.3940    3.4574 C   0  0  0  0  0  0  0  0  0  0  0  0
   -3.4693   -2.0815    4.6309 C   0  0  0  0  0  0  0  0  0  0  0  0
   -4.5881   -1.7730    5.3971 C   0  0  0  0  0  0  0  0  0  0  0  0
  1  2  1  0
  2  3  2  0
  3  4  1  0
  4  5  2  0
  5  6  1  0
  6  7  1  0
  7  8  2  0
  8  9  1  0
  9 10  2  0
 10 11  1  0
 11 12  2  0
 12  7  1  0
 10 13  1  0
 13 14  1  0
 14 15  1  0
 15 16  1  0
 16 17  1  0
 13 17  2  0
 15 18  2  0
 18 19  1  0
 19 20  2  0
 20 21  1  0
 21 22  2  0
 22 23  1  0
 23 24  2  0
 23 25  2  0
 23 26  1  0
 22 27  1  0
 27 28  2  0
 28 19  1  0
 14 29  1  0
 29 30  1  0
 30 31  1  0
 30 32  1  0
 30 33  1  0
 33 34  1  0
 34 35  1  0
 35 36  1  0
 36 29  1  0
  5 37  1  0
 37 38  2  0
 38  2  1  0
M  END
$$$$
s_22____3082040____138716
     RDKit          3D

 40 45  0  0  0  0  0  0  0  0999 V2000
   -2.0761   -1.5841    0.4743 S   0  0  0  0  0  0  0  0  0  0  0  0
   -3.5209   -0.7579    0.1134 C   0  0  0  0  0  0  0  0  0  0  0  0
   -4.7651   -1.3601   -0.1572 N   0  0  0  0  0  0  0  0  0  0  0  0
   -5.0838   -2.7386    0.2461 C   0  0  0  0  0  0  0  0  0  0  0  0
   -6.1130   -3.3099   -0.7150 C   0  0  0  0  0  0  0  0  0  0  0  0
   -7.3492   -2.6014   -0.6891 O   0  0  0  0  0  0  0  0  0  0  0  0
   -7.1966   -1.2132   -0.4112 C   0  0  0  0  0  0  0  0  0  0  0  0
   -5.8508   -0.6663   -0.8637 C   0  0  0  0  0  0  0  0  0  0  0  0
   -3.2472    0.5768    0.1344 C   0  0  0  0  0  0  0  0  0  0  0  0
   -4.2663    1.5734   -0.1332 C   0  0  0  0  0  0  0  0  0  0  0  0
   -5.2854    1.7821    0.7903 C   0  0  0  0  0  0  0  0  0  0  0  0
   -6.2614    2.7384    0.5292 C   0  0  0  0  0  0  0  0  0  0  0  0
   -6.2128    3.4785   -0.6475 C   0  0  0  0  0  0  0  0  0  0  0  0
   -5.1899    3.2618   -1.5625 C   0  0  0  0  0  0  0  0  0  0  0  0
   -4.2084    2.3080   -1.3134 C   0  0  0  0  0  0  0  0  0  0  0  0
   -1.8945    0.8787    0.4383 C   0  0  0  0  0  0  0  0  0  0  0  0
   -1.0990   -0.2033    0.6582 C   0  0  0  0  0  0  0  0  0  0  0  0
    0.3150   -0.1863    0.9837 C   0  0  0  0  0  0  0  0  0  0  0  0
    0.8843   -1.2115    1.2387 O   0  0  0  0  0  0  0  0  0  0  0  0
    1.0000    1.0000    1.0000 N   0  0  0  0  0  0  0  0  0  0  0  0
    2.3997    1.0000    1.0000 C   0  0  0  0  0  0  0  0  0  0  0  0
    3.0784    2.1346    1.4306 C   0  0  0  0  0  0  0  0  0  0  0  0
    4.4691    2.1247    1.4280 C   0  0  0  0  0  0  0  0  0  0  0  0
    5.1464    3.2152    1.8422 O   0  0  0  0  0  0  0  0  0  0  0  0
    4.4561    4.4344    2.0731 C   0  0  0  0  0  0  0  0  0  0  0  0
    5.4436    5.4976    2.5294 C   0  0  0  0  0  0  0  0  0  0  0  0
    6.0826    6.3019    1.6634 N   0  0  0  0  0  0  0  0  0  0  0  0
    6.9557    7.2419    2.0623 C   0  0  0  0  0  0  0  0  0  0  0  0
    7.2267    7.4109    3.4169 C   0  0  0  0  0  0  0  0  0  0  0  0
    6.5843    6.5972    4.3437 C   0  0  0  0  0  0  0  0  0  0  0  0
    5.6876    5.6349    3.8920 C   0  0  0  0  0  0  0  0  0  0  0  0
    8.1240    8.3744    3.8653 C   0  0  0  0  0  0  0  0  0  0  0  0
    8.7655    9.1888    2.9379 C   0  0  0  0  0  0  0  0  0  0  0  0
    8.5066    9.0346    1.5801 C   0  0  0  0  0  0  0  0  0  0  0  0
    7.6061    8.0657    1.1491 C   0  0  0  0  0  0  0  0  0  0  0  0
    5.1658    0.9995    1.0017 C   0  0  0  0  0  0  0  0  0  0  0  0
    6.5147    1.0036    1.0040 O   0  0  0  0  0  0  0  0  0  0  0  0
    7.2290   -0.2235    0.9879 C   0  0  0  0  0  0  0  0  0  0  0  0
    4.4740   -0.1291    0.5727 C   0  0  0  0  0  0  0  0  0  0  0  0
    3.0827   -0.1335    0.5706 C   0  0  0  0  0  0  0  0  0  0  0  0
  1  2  1  0
  2  3  1  0
  3  4  1  0
  4  5  1  0
  5  6  1  0
  6  7  1  0
  7  8  1  0
  8  3  1  0
  2  9  2  0
  9 10  1  0
 10 11  2  0
 11 12  1  0
 12 13  2  0
 13 14  1  0
 14 15  2  0
 15 10  1  0
  9 16  1  0
 16 17  2  0
 17  1  1  0
 17 18  1  0
 18 19  2  0
 18 20  1  0
 20 21  1  0
 21 22  2  0
 22 23  1  0
 23 24  1  0
 24 25  1  0
 25 26  1  0
 26 27  2  0
 27 28  1  0
 28 29  2  0
 29 30  1  0
 30 31  2  0
 31 26  1  0
 29 32  1  0
 32 33  2  0
 33 34  1  0
 34 35  2  0
 35 28  1  0
 23 36  2  0
 36 37  1  0
 37 38  1  0
 36 39  1  0
 39 40  2  0
 40 21  1  0
M  END
$$$$
m_271722____10195368____10188368
     RDKit          3D

 34 39  0  0  0  0  0  0  0  0999 V2000
   -3.2223    0.4223    0.3529 O   0  0  0  0  0  0  0  0  0  0  0  0
   -3.2390    0.4197    1.6317 N   0  0  0  0  0  0  0  0  0  0  0  0
   -2.0395    0.2029    2.1192 C   0  0  0  0  0  0  0  0  0  0  0  0
   -1.2059    0.0483    0.9983 C   0  0  0  0  0  0  0  0  0  0  0  0
   -2.0072    0.1992   -0.0856 C   0  0  0  0  0  0  0  0  0  0  0  0
   -1.5768    0.1248   -1.5419 C   0  0  0  0  0  0  0  0  0  0  0  0
    0.2900   -0.2298    0.9978 C   0  0  0  0  0  0  0  0  0  0  0  0
    1.0000    1.0000    1.0000 O   0  0  0  0  0  0  0  0  0  0  0  0
    2.3502    1.0000    1.0000 C   0  0  0  0  0  0  0  0  0  0  0  0
    3.0689    2.1920    1.0022 C   0  0  0  0  0  0  0  0  0  0  0  0
    4.4599    2.1729    1.0021 C   0  0  0  0  0  0  0  0  0  0  0  0
    5.1245    0.9508    1.0005 C   0  0  0  0  0  0  0  0  0  0  0  0
    4.4055   -0.2403    0.9983 C   0  0  0  0  0  0  0  0  0  0  0  0
    3.0143   -0.2227    0.9978 C   0  0  0  0  0  0  0  0  0  0  0  0
    5.0684   -1.4634    0.9960 C   0  0  0  0  0  0  0  0  0  0  0  0
    6.4590   -1.4852    0.9962 C   0  0  0  0  0  0  0  0  0  0  0  0
    7.1735   -0.2918    0.9983 C   0  0  0  0  0  0  0  0  0  0  0  0
    6.5155    0.9338    1.0003 C   0  0  0  0  0  0  0  0  0  0  0  0
    2.3946    3.4755    1.0044 C   0  0  0  0  0  0  0  0  0  0  0  0
    2.9821    4.6484    1.0065 O   0  0  0  0  0  0  0  0  0  0  0  0
    2.0306    5.5525    1.0073 C   0  0  0  0  0  0  0  0  0  0  0  0
    0.8660    4.9483    1.0054 N   0  0  0  0  0  0  0  0  0  0  0  0
    1.0935    3.6541    1.0027 N   0  0  0  0  0  0  0  0  0  0  0  0
    2.2332    6.9898    1.0114 C   0  0  0  0  0  0  0  0  0  0  0  0
    1.2043    7.8534    1.0120 N   0  0  0  0  0  0  0  0  0  0  0  0
    1.3817    9.1851    1.0159 C   0  0  0  0  0  0  0  0  0  0  0  0
    2.6693    9.7150    1.0197 C   0  0  0  0  0  0  0  0  0  0  0  0
    3.7531    8.8431    1.0192 C   0  0  0  0  0  0  0  0  0  0  0  0
    3.5398    7.4680    1.0147 C   0  0  0  0  0  0  0  0  0  0  0  0
    2.8865   11.0889    1.0241 C   0  0  0  0  0  0  0  0  0  0  0  0
    1.7896   11.9441    1.0242 C   0  0  0  0  0  0  0  0  0  0  0  0
    0.4932   11.4404    1.0207 C   0  0  0  0  0  0  0  0  0  0  0  0
    0.3018   10.0625    1.0164 C   0  0  0  0  0  0  0  0  0  0  0  0
   -1.6363    0.1235    3.5837 C   0  0  0  0  0  0  0  0  0  0  0  0
  1  2  1  0
  2  3  2  0
  3  4  1  0
  4  5  2  0
  5  1  1  0
  5  6  1  0
  4  7  1  0
  7  8  1  0
  8  9  1  0
  9 10  1  0
 10 11  2  0
 11 12  1  0
 12 13  2  0
 13 14  1  0
 14  9  2  0
 13 15  1  0
 15 16  2  0
 16 17  1  0
 17 18  2  0
 18 12  1  0
 10 19  1  0
 19 20  1  0
 20 21  1  0
 21 22  2  0
 22 23  1  0
 19 23  2  0
 21 24  1  0
 24 25  2  0
 25 26  1  0
 26 27  2  0
 27 28  1  0
 28 29  2  0
 29 24  1  0
 27 30  1  0
 30 31  2  0
 31 32  1  0
 32 33  2  0
 33 26  1  0
  3 34  1  0
M  END
$$$$
m_274860b____15234900____17181660____15233636
     RDKit          3D

 34 38  0  0  0  0  0  0  0  0999 V2000
    5.2767   -1.9319    0.5726 S   0  0  0  0  0  0  0  0  0  0  0  0
    5.9875   -2.2264   -0.9459 C   0  0  0  0  0  0  0  0  0  0  0  0
    5.1578   -1.8002   -1.8673 N   0  0  0  0  0  0  0  0  0  0  0  0
    3.9874   -1.2661   -1.3975 C   0  0  0  0  0  0  0  0  0  0  0  0
    2.9412   -0.7508   -2.2596 C   0  0  0  0  0  0  0  0  0  0  0  0
    3.0709    0.5162   -2.8189 C   0  0  0  0  0  0  0  0  0  0  0  0
    2.0646    1.0070   -3.6445 C   0  0  0  0  0  0  0  0  0  0  0  0
    0.9398    0.2317   -3.9064 C   0  0  0  0  0  0  0  0  0  0  0  0
    0.8212   -1.0326   -3.3425 C   0  0  0  0  0  0  0  0  0  0  0  0
    1.8203   -1.5344   -2.5148 C   0  0  0  0  0  0  0  0  0  0  0  0
    3.8494   -1.2407   -0.0455 C   0  0  0  0  0  0  0  0  0  0  0  0
    2.7286   -0.7286    0.7245 C   0  0  0  0  0  0  0  0  0  0  0  0
    2.5736   -1.0763    1.8626 O   0  0  0  0  0  0  0  0  0  0  0  0
    1.8487    0.1513    0.1513 N   0  0  0  0  0  0  0  0  0  0  0  0
    1.0000    1.0000    1.0000 C   0  0  0  0  0  0  0  0  0  0  0  0
    1.8776    1.8776    1.8776 C   0  0  0  0  0  0  0  0  0  0  0  0
    1.0289    2.7262    2.7262 N   0  0  0  0  0  0  0  0  0  0  0  0
    0.5872    2.4158    3.9201 N   0  0  0  0  0  0  0  0  0  0  0  0
   -0.1181    3.3431    4.4078 N   0  0  0  0  0  0  0  0  0  0  0  0
   -0.1615    4.3470    3.4895 C   0  0  0  0  0  0  0  0  0  0  0  0
   -0.8630    5.6074    3.6382 C   0  0  0  0  0  0  0  0  0  0  0  0
   -1.5702    5.8582    4.8095 C   0  0  0  0  0  0  0  0  0  0  0  0
   -2.2483    7.0626    4.9682 C   0  0  0  0  0  0  0  0  0  0  0  0
   -2.2091    8.0030    3.9446 C   0  0  0  0  0  0  0  0  0  0  0  0
   -2.8530    9.1581    4.0837 F   0  0  0  0  0  0  0  0  0  0  0  0
   -1.5026    7.7522    2.7735 C   0  0  0  0  0  0  0  0  0  0  0  0
   -0.8244    6.5486    2.6143 C   0  0  0  0  0  0  0  0  0  0  0  0
    0.5713    3.9646    2.4081 C   0  0  0  0  0  0  0  0  0  0  0  0
    7.2397   -2.8184   -1.1464 N   0  0  0  0  0  0  0  0  0  0  0  0
    7.8473   -3.5999   -0.0580 C   0  0  0  0  0  0  0  0  0  0  0  0
    8.6784   -4.7480   -0.6097 C   0  0  0  0  0  0  0  0  0  0  0  0
    9.5150   -4.3191   -1.6763 O   0  0  0  0  0  0  0  0  0  0  0  0
    8.7361   -3.8932   -2.7866 C   0  0  0  0  0  0  0  0  0  0  0  0
    7.9060   -2.6642   -2.4486 C   0  0  0  0  0  0  0  0  0  0  0  0
  1  2  1  0
  2  3  2  0
  3  4  1  0
  4  5  1  0
  5  6  2  0
  6  7  1  0
  7  8  2  0
  8  9  1  0
  9 10  2  0
 10  5  1  0
  4 11  2  0
 11  1  1  0
 11 12  1  0
 12 13  2  0
 12 14  1  0
 14 15  1  0
 15 16  1  0
 16 17  1  0
 17 18  1  0
 18 19  2  0
 19 20  1  0
 20 21  1  0
 21 22  2  0
 22 23  1  0
 23 24  2  0
 24 25  1  0
 24 26  1  0
 26 27  2  0
 27 21  1  0
 20 28  2  0
 28 17  1  0
  2 29  1  0
 29 30  1  0
 30 31  1  0
 31 32  1  0
 32 33  1  0
 33 34  1  0
 34 29  1  0
M  END
$$$$
m_273170____10759734____10760044____10766558
     RDKit          3D

 38 42  0  0  0  0  0  0  0  0999 V2000
    7.1615   -2.0524    3.8245 S   0  0  0  0  0  0  0  0  0  0  0  0
    7.5449   -0.9459    4.6626 O   0  0  0  0  0  0  0  0  0  0  0  0
    7.0489   -3.2442    4.6249 O   0  0  0  0  0  0  0  0  0  0  0  0
    8.2911   -2.2773    2.6711 N   0  0  0  0  0  0  0  0  0  0  0  0
    8.4061   -1.0606    1.8541 C   0  0  0  0  0  0  0  0  0  0  0  0
    9.5862   -2.5671    3.3034 C   0  0  0  0  0  0  0  0  0  0  0  0
    5.6287   -1.7094    3.0761 C   0  0  0  0  0  0  0  0  0  0  0  0
    5.1351   -0.4092    3.0844 C   0  0  0  0  0  0  0  0  0  0  0  0
    3.9080   -0.1495    2.4826 C   0  0  0  0  0  0  0  0  0  0  0  0
    3.1781   -1.1688    1.8799 C   0  0  0  0  0  0  0  0  0  0  0  0
    3.6897   -2.4624    1.8823 C   0  0  0  0  0  0  0  0  0  0  0  0
    4.9150   -2.7431    2.4781 C   0  0  0  0  0  0  0  0  0  0  0  0
    3.3905    1.2051    2.4893 C   0  0  0  0  0  0  0  0  0  0  0  0
    4.1071    2.3065    2.4903 N   0  0  0  0  0  0  0  0  0  0  0  0
    3.2789    3.3271    2.4974 N   0  0  0  0  0  0  0  0  0  0  0  0
    2.0315    2.9267    2.5008 C   0  0  0  0  0  0  0  0  0  0  0  0
    2.0806    1.5694    2.4959 N   0  0  0  0  0  0  0  0  0  0  0  0
    0.9245    0.6605    2.4981 C   0  0  0  0  0  0  0  0  0  0  0  0
    0.6864    0.1467    3.9090 C   0  0  0  0  0  0  0  0  0  0  0  0
    1.1000    1.1080    4.8682 O   0  0  0  0  0  0  0  0  0  0  0  0
    1.3380   -1.2011    4.1290 C   0  0  0  0  0  0  0  0  0  0  0  0
    0.5336   -2.1019    3.3855 O   0  0  0  0  0  0  0  0  0  0  0  0
   -0.8071   -1.7207    3.6428 C   0  0  0  0  0  0  0  0  0  0  0  0
   -0.7505   -0.2832    4.1315 C   0  0  0  0  0  0  0  0  0  0  0  0
    0.8853    3.7336    2.5048 N   0  0  0  0  0  0  0  0  0  0  0  0
   -0.4485    3.1157    2.5084 C   0  0  0  0  0  0  0  0  0  0  0  0
   -1.5104    4.2029    2.5122 C   0  0  0  0  0  0  0  0  0  0  0  0
   -1.9932    4.6944    1.3843 N   0  0  0  0  0  0  0  0  0  0  0  0
   -2.9508    5.6754    1.3785 C   0  0  0  0  0  0  0  0  0  0  0  0
   -3.4371    6.1758    2.5813 C   0  0  0  0  0  0  0  0  0  0  0  0
   -4.4105    7.1728    2.5624 C   0  0  0  0  0  0  0  0  0  0  0  0
   -4.9142    7.6861    1.3731 C   0  0  0  0  0  0  0  0  0  0  0  0
   -4.4237    7.1817    0.1747 C   0  0  0  0  0  0  0  0  0  0  0  0
   -3.4520    6.1863    0.1851 C   0  0  0  0  0  0  0  0  0  0  0  0
   -2.9122    5.6402    3.7902 C   0  0  0  0  0  0  0  0  0  0  0  0
   -3.2787    6.0185    4.8927 O   0  0  0  0  0  0  0  0  0  0  0  0
   -1.9562    4.6616    3.7239 N   0  0  0  0  0  0  0  0  0  0  0  0
    1.0172    5.1977    2.5052 C   0  0  0  0  0  0  0  0  0  0  0  0
  1  2  2  0
  1  3  2  0
  1  4  1  0
  4  5  1  0
  4  6  1  0
  1  7  1  0
  7  8  2  0
  8  9  1  0
  9 10  2  0
 10 11  1  0
 11 12  2  0
 12  7  1  0
  9 13  1  0
 13 14  2  0
 14 15  1  0
 15 16  2  0
 16 17  1  0
 17 13  1  0
 17 18  1  0
 18 19  1  0
 19 20  1  0
 19 21  1  0
 21 22  1  0
 22 23  1  0
 23 24  1  0
 24 19  1  0
 16 25  1  0
 25 26  1  0
 26 27  1  0
 27 28  2  0
 28 29  1  0
 29 30  2  0
 30 31  1  0
 31 32  2  0
 32 33  1  0
 33 34  2  0
 34 29  1  0
 30 35  1  0
 35 36  2  0
 35 37  1  0
 37 27  1  0
 25 38  1  0
M  END
$$$$
s_60____90638____91064
     RDKit          3D

 38 44  0  0  0  0  0  0  0  0999 V2000
    0.4648    3.7275    2.5286 S   0  0  0  0  0  0  0  0  0  0  0  0
   -0.5174    2.9258    3.2114 O   0  0  0  0  0  0  0  0  0  0  0  0
    0.6209    4.9834    3.2155 O   0  0  0  0  0  0  0  0  0  0  0  0
   -0.0658    4.0242    0.8756 N   0  0  0  0  0  0  0  0  0  0  0  0
    0.9022    4.8412    0.1284 C   0  0  0  0  0  0  0  0  0  0  0  0
    0.4129    5.0837   -1.2905 C   0  0  0  0  0  0  0  0  0  0  0  0
    0.1841    3.8470   -1.9508 O   0  0  0  0  0  0  0  0  0  0  0  0
   -0.7592    3.0360   -1.2652 C   0  0  0  0  0  0  0  0  0  0  0  0
   -0.2857    2.7621    0.1535 C   0  0  0  0  0  0  0  0  0  0  0  0
    1.9863    2.8858    2.5067 C   0  0  0  0  0  0  0  0  0  0  0  0
    3.1745    3.6064    2.5001 C   0  0  0  0  0  0  0  0  0  0  0  0
    4.3971    2.9456    2.4852 C   0  0  0  0  0  0  0  0  0  0  0  0
    5.6729    3.4308    2.4735 N   0  0  0  0  0  0  0  0  0  0  0  0
    6.4898    2.4034    2.4579 C   0  0  0  0  0  0  0  0  0  0  0  0
    5.7579    1.2555    2.4595 N   0  0  0  0  0  0  0  0  0  0  0  0
    4.4303    1.5734    2.4759 C   0  0  0  0  0  0  0  0  0  0  0  0
    3.2416    0.8509    2.4803 C   0  0  0  0  0  0  0  0  0  0  0  0
    2.0103    1.4959    2.4959 C   0  0  0  0  0  0  0  0  0  0  0  0
    6.3141   -0.1069    2.4448 C   0  0  0  0  0  0  0  0  0  0  0  0
    6.7205   -0.4726    1.0273 C   0  0  0  0  0  0  0  0  0  0  0  0
    5.6010   -0.4232    0.1647 O   0  0  0  0  0  0  0  0  0  0  0  0
    5.9613   -1.1691   -0.9901 C   0  0  0  0  0  0  0  0  0  0  0  0
    6.9912   -2.1840   -0.5338 C   0  0  0  0  0  0  0  0  0  0  0  0
    7.1243   -1.9277    0.9550 C   0  0  0  0  0  0  0  0  0  0  0  0
    7.9379    2.4796    2.4402 C   0  0  0  0  0  0  0  0  0  0  0  0
    8.7553    1.5150    2.7904 O   0  0  0  0  0  0  0  0  0  0  0  0
   10.0001    1.9095    2.6587 C   0  0  0  0  0  0  0  0  0  0  0  0
   11.1704    1.1054    2.9529 C   0  0  0  0  0  0  0  0  0  0  0  0
   12.7500    1.7163    3.1415 S   0  0  0  0  0  0  0  0  0  0  0  0
   13.4703    0.2110    3.4482 C   0  0  0  0  0  0  0  0  0  0  0  0
   12.4593   -0.7242    3.4066 C   0  0  0  0  0  0  0  0  0  0  0  0
   11.2198   -0.1923    3.1303 N   0  0  0  0  0  0  0  0  0  0  0  0
   12.9249   -2.0167    3.6406 C   0  0  0  0  0  0  0  0  0  0  0  0
   14.2694   -2.2779    3.8950 C   0  0  0  0  0  0  0  0  0  0  0  0
   15.2105   -1.2527    3.9229 C   0  0  0  0  0  0  0  0  0  0  0  0
   14.8194    0.0536    3.6919 C   0  0  0  0  0  0  0  0  0  0  0  0
   10.0203    3.1910    2.2005 C   0  0  0  0  0  0  0  0  0  0  0  0
    8.6666    3.5642    2.0570 C   0  0  0  0  0  0  0  0  0  0  0  0
  1  2  2  0
  1  3  2  0
  1  4  1  0
  4  5  1  0
  5  6  1  0
  6  7  1  0
  7  8  1  0
  8  9  1  0
  9  4  1  0
  1 10  1  0
 10 11  2  0
 11 12  1  0
 12 13  1  0
 13 14  2  0
 14 15  1  0
 15 16  1  0
 16 12  2  0
 16 17  1  0
 17 18  2  0
 18 10  1  0
 15 19  1  0
 19 20  1  0
 20 21  1  0
 21 22  1  0
 22 23  1  0
 23 24  1  0
 24 20  1  0
 14 25  1  0
 25 26  1  0
 26 27  1  0
 27 28  1  0
 28 29  1  0
 29 30  1  0
 30 31  2  0
 31 32  1  0
 28 32  2  0
 31 33  1  0
 33 34  2  0
 34 35  1  0
 35 36  2  0
 36 30  1  0
 27 37  2  0
 37 38  1  0
 25 38  2  0
M  END
$$$$
m_274972____15150082____12615770____13046916
     RDKit          3D

 32 36  0  0  0  0  0  0  0  0999 V2000
   -6.0714    2.3456    2.5860 S   0  0  0  0  0  0  0  0  0  0  0  0
   -5.3130    1.2173    3.6076 C   0  0  0  0  0  0  0  0  0  0  0  0
   -4.0694    1.0990    3.1992 N   0  0  0  0  0  0  0  0  0  0  0  0
   -3.7381    1.8709    2.1203 C   0  0  0  0  0  0  0  0  0  0  0  0
   -2.4357    1.8959    1.4975 C   0  0  0  0  0  0  0  0  0  0  0  0
   -2.0772    2.6528    0.4244 N   0  0  0  0  0  0  0  0  0  0  0  0
   -0.8652    2.4015    0.1734 N   0  0  0  0  0  0  0  0  0  0  0  0
   -0.3754    1.5185    1.0083 N   0  0  0  0  0  0  0  0  0  0  0  0
   -1.3542    1.1631    1.8799 C   0  0  0  0  0  0  0  0  0  0  0  0
    1.0000    1.0000    1.0000 C   0  0  0  0  0  0  0  0  0  0  0  0
    1.8776    1.8776    1.8776 C   0  0  0  0  0  0  0  0  0  0  0  0
    2.0337    1.5986    3.2313 C   0  0  0  0  0  0  0  0  0  0  0  0
    1.3696    0.4837    3.8079 O   0  0  0  0  0  0  0  0  0  0  0  0
    1.5292    0.1990    5.1899 C   0  0  0  0  0  0  0  0  0  0  0  0
    2.8403    2.4117    4.0207 C   0  0  0  0  0  0  0  0  0  0  0  0
    3.4907    3.5043    3.4562 C   0  0  0  0  0  0  0  0  0  0  0  0
    3.3279    3.7749    2.1016 C   0  0  0  0  0  0  0  0  0  0  0  0
    4.0161    4.9292    1.5058 N   0  0  0  0  0  0  0  0  0  0  0  0
    4.7232    5.6421    2.1987 O   0  0  0  0  0  0  0  0  0  0  0  0
    3.8812    5.1722    0.3282 O   0  0  0  0  0  0  0  0  0  0  0  0
    2.5237    2.9676    1.3039 C   0  0  0  0  0  0  0  0  0  0  0  0
   -4.7186    2.6613    1.6002 C   0  0  0  0  0  0  0  0  0  0  0  0
   -5.9394    0.5287    4.7214 C   0  0  0  0  0  0  0  0  0  0  0  0
   -5.2677   -0.3514    5.4822 N   0  0  0  0  0  0  0  0  0  0  0  0
   -5.8386   -0.9935    6.5150 C   0  0  0  0  0  0  0  0  0  0  0  0
   -7.1741   -0.7556    6.8292 C   0  0  0  0  0  0  0  0  0  0  0  0
   -7.8931    0.1512    6.0574 C   0  0  0  0  0  0  0  0  0  0  0  0
   -7.2764    0.8017    4.9931 C   0  0  0  0  0  0  0  0  0  0  0  0
   -7.7941   -1.4040    7.8922 C   0  0  0  0  0  0  0  0  0  0  0  0
   -7.0581   -2.3074    8.6517 C   0  0  0  0  0  0  0  0  0  0  0  0
   -5.7226   -2.5627    8.3590 C   0  0  0  0  0  0  0  0  0  0  0  0
   -5.1248   -1.9016    7.2908 C   0  0  0  0  0  0  0  0  0  0  0  0
  1  2  1  0
  2  3  2  0
  3  4  1  0
  4  5  1  0
  5  6  1  0
  6  7  2  0
  7  8  1  0
  8  9  1  0
  5  9  2  0
  8 10  1  0
 10 11  1  0
 11 12  2  0
 12 13  1  0
 13 14  1  0
 12 15  1  0
 15 16  2  0
 16 17  1  0
 17 18  1  0
 18 19  1  0
 18 20  2  0
 17 21  2  0
 21 11  1  0
  4 22  2  0
 22  1  1  0
  2 23  1  0
 23 24  2  0
 24 25  1  0
 25 26  2  0
 26 27  1  0
 27 28  2  0
 28 23  1  0
 26 29  1  0
 29 30  2  0
 30 31  1  0
 31 32  2  0
 32 25  1  0
M  CHG  2  18   1  19  -1
M  END
$$$$
m_276010b____17281670____17249274____17280448
     RDKit          3D

 36 40  0  0  0  0  0  0  0  0999 V2000
    5.9992    2.0707    2.4489 S   0  0  0  0  0  0  0  0  0  0  0  0
    6.5296    2.9184    3.4852 O   0  0  0  0  0  0  0  0  0  0  0  0
    6.4279    0.7143    2.6721 O   0  0  0  0  0  0  0  0  0  0  0  0
    6.5421    2.5806    0.9990 N   0  0  0  0  0  0  0  0  0  0  0  0
    6.0007    1.7153   -0.0588 C   0  0  0  0  0  0  0  0  0  0  0  0
    6.5069    2.1907   -1.4109 C   0  0  0  0  0  0  0  0  0  0  0  0
    6.0841    3.5283   -1.6309 O   0  0  0  0  0  0  0  0  0  0  0  0
    4.2586    2.1414    2.4750 C   0  0  0  0  0  0  0  0  0  0  0  0
    3.3597    3.5858    2.4950 S   0  0  0  0  0  0  0  0  0  0  0  0
    1.8191    2.8582    2.5252 C   0  0  0  0  0  0  0  0  0  0  0  0
    0.5423    3.5411    2.5481 C   0  0  0  0  0  0  0  0  0  0  0  0
    0.4996    4.7368    2.4563 O   0  0  0  0  0  0  0  0  0  0  0  0
   -0.6170    2.8220    2.6745 N   0  0  0  0  0  0  0  0  0  0  0  0
   -1.7883    3.4531    3.1120 C   0  0  0  0  0  0  0  0  0  0  0  0
   -1.7363    4.3993    4.1304 C   0  0  0  0  0  0  0  0  0  0  0  0
   -2.9167    5.0083    4.5432 C   0  0  0  0  0  0  0  0  0  0  0  0
   -4.0848    4.6869    3.9674 N   0  0  0  0  0  0  0  0  0  0  0  0
   -4.1553    3.7777    2.9840 C   0  0  0  0  0  0  0  0  0  0  0  0
   -3.0099    3.1341    2.5278 C   0  0  0  0  0  0  0  0  0  0  0  0
   -2.8482    5.9584    5.5688 N   0  0  0  0  0  0  0  0  0  0  0  0
   -1.7465    6.4476    6.0832 N   0  0  0  0  0  0  0  0  0  0  0  0
   -2.0054    7.2835    6.9933 N   0  0  0  0  0  0  0  0  0  0  0  0
   -3.3601    7.3758    7.1040 C   0  0  0  0  0  0  0  0  0  0  0  0
   -4.0879    8.2244    8.0306 C   0  0  0  0  0  0  0  0  0  0  0  0
   -4.9807    9.2130    7.6146 C   0  0  0  0  0  0  0  0  0  0  0  0
   -5.6435    9.9867    8.5642 C   0  0  0  0  0  0  0  0  0  0  0  0
   -5.3874    9.7421    9.9100 C   0  0  0  0  0  0  0  0  0  0  0  0
   -4.5242    8.7870   10.2870 N   0  0  0  0  0  0  0  0  0  0  0  0
   -3.8741    8.0296    9.3908 C   0  0  0  0  0  0  0  0  0  0  0  0
   -6.5412   10.9796    8.1865 C   0  0  0  0  0  0  0  0  0  0  0  0
   -6.7808   11.2027    6.8349 C   0  0  0  0  0  0  0  0  0  0  0  0
   -6.1362   10.4479    5.8618 C   0  0  0  0  0  0  0  0  0  0  0  0
   -5.2434    9.4624    6.2685 C   0  0  0  0  0  0  0  0  0  0  0  0
   -3.9111    6.5280    6.1969 C   0  0  0  0  0  0  0  0  0  0  0  0
    2.0229    1.5121    2.5191 C   0  0  0  0  0  0  0  0  0  0  0  0
    3.3817    1.0991    2.4937 C   0  0  0  0  0  0  0  0  0  0  0  0
  1  2  2  0
  1  3  2  0
  1  4  1  0
  4  5  1  0
  5  6  1  0
  6  7  1  0
  1  8  1  0
  8  9  1  0
  9 10  1  0
 10 11  1  0
 11 12  2  0
 11 13  1  0
 13 14  1  0
 14 15  2  0
 15 16  1  0
 16 17  2  0
 17 18  1  0
 18 19  2  0
 19 14  1  0
 16 20  1  0
 20 21  1  0
 21 22  2  0
 22 23  1  0
 23 24  1  0
 24 25  2  0
 25 26  1  0
 26 27  2  0
 27 28  1  0
 28 29  2  0
 29 24  1  0
 26 30  1  0
 30 31  2  0
 31 32  1  0
 32 33  2  0
 33 25  1  0
 23 34  2  0
 34 20  1  0
 10 35  2  0
 35 36  1  0
  8 36  2  0
M  END
$$$$
s_22____57675____9780488
     RDKit          3D

 34 38  0  0  0  0  0  0  0  0999 V2000
   -2.0272    2.3576   -0.7658 S   0  0  0  0  0  0  0  0  0  0  0  0
   -1.8499    2.7703   -2.4073 C   0  0  0  0  0  0  0  0  0  0  0  0
   -0.5811    3.0389   -2.6122 N   0  0  0  0  0  0  0  0  0  0  0  0
    0.2379    2.9169   -1.5175 C   0  0  0  0  0  0  0  0  0  0  0  0
    1.6669    3.1619   -1.5520 C   0  0  0  0  0  0  0  0  0  0  0  0
    2.4758    2.4052   -2.3934 C   0  0  0  0  0  0  0  0  0  0  0  0
    3.8461    2.6430   -2.4227 C   0  0  0  0  0  0  0  0  0  0  0  0
    4.3977    3.6322   -1.6153 C   0  0  0  0  0  0  0  0  0  0  0  0
    3.5800    4.3822   -0.7791 C   0  0  0  0  0  0  0  0  0  0  0  0
    2.2084    4.1537   -0.7402 C   0  0  0  0  0  0  0  0  0  0  0  0
   -0.3860    2.5395   -0.3655 C   0  0  0  0  0  0  0  0  0  0  0  0
    0.2400    2.3164    1.0000 C   0  0  0  0  0  0  0  0  0  0  0  0
    1.0000    1.0000    1.0000 C   0  0  0  0  0  0  0  0  0  0  0  0
    0.4000   -0.0392    1.0000 O   0  0  0  0  0  0  0  0  0  0  0  0
    2.3700    1.0000    1.0000 N   0  0  0  0  0  0  0  0  0  0  0  0
    3.0615   -0.1977    1.0000 N   0  0  0  0  0  0  0  0  0  0  0  0
    4.4315   -0.1977    1.0000 C   0  0  0  0  0  0  0  0  0  0  0  0
    5.0315    0.8415    1.0000 O   0  0  0  0  0  0  0  0  0  0  0  0
    5.1573   -1.4548    1.0000 C   0  0  0  0  0  0  0  0  0  0  0  0
    4.5262   -2.6407    1.0000 N   0  0  0  0  0  0  0  0  0  0  0  0
    5.1891   -3.8092    0.9998 C   0  0  0  0  0  0  0  0  0  0  0  0
    6.5814   -3.8189    0.9996 C   0  0  0  0  0  0  0  0  0  0  0  0
    7.2602   -2.6047    0.9995 C   0  0  0  0  0  0  0  0  0  0  0  0
    6.5479   -1.4093    1.0001 C   0  0  0  0  0  0  0  0  0  0  0  0
    7.2969   -5.0117    0.9991 C   0  0  0  0  0  0  0  0  0  0  0  0
    6.5997   -6.2152    0.9994 C   0  0  0  0  0  0  0  0  0  0  0  0
    5.2090   -6.2332    0.9994 C   0  0  0  0  0  0  0  0  0  0  0  0
    4.5159   -5.0270    0.9998 C   0  0  0  0  0  0  0  0  0  0  0  0
   -2.8929    2.8074   -3.3451 N   0  0  0  0  0  0  0  0  0  0  0  0
   -2.6296    3.3386   -4.6917 C   0  0  0  0  0  0  0  0  0  0  0  0
   -3.4778    2.6263   -5.7340 C   0  0  0  0  0  0  0  0  0  0  0  0
   -4.8303    2.5080   -5.3116 O   0  0  0  0  0  0  0  0  0  0  0  0
   -4.9276    1.6772   -4.1621 C   0  0  0  0  0  0  0  0  0  0  0  0
   -4.2174    2.2925   -2.9659 C   0  0  0  0  0  0  0  0  0  0  0  0
  1  2  1  0
  2  3  2  0
  3  4  1  0
  4  5  1  0
  5  6  2  0
  6  7  1  0
  7  8  2  0
  8  9  1  0
  9 10  2  0
 10  5  1  0
  4 11  2  0
 11  1  1  0
 11 12  1  0
 12 13  1  0
 13 14  2  0
 13 15  1  0
 15 16  1  0
 16 17  1  0
 17 18  2  0
 17 19  1  0
 19 20  2  0
 20 21  1  0
 21 22  2  0
 22 23  1  0
 23 24  2  0
 24 19  1  0
 22 25  1  0
 25 26  2  0
 26 27  1  0
 27 28  2  0
 28 21  1  0
  2 29  1  0
 29 30  1  0
 30 31  1  0
 31 32  1  0
 32 33  1  0
 33 34  1  0
 34 29  1  0
M  END
$$$$
m_274972____12934292____12615770____13046826
     RDKit          3D

 35 39  0  0  0  0  0  0  0  0999 V2000
    6.8482    3.6132    1.0010 S   0  0  0  0  0  0  0  0  0  0  0  0
    5.1561    3.4435    1.0023 C   0  0  0  0  0  0  0  0  0  0  0  0
    4.6450    4.6543    1.0004 N   0  0  0  0  0  0  0  0  0  0  0  0
    5.5608    5.6696    1.0001 C   0  0  0  0  0  0  0  0  0  0  0  0
    5.2276    7.0805    1.0076 C   0  0  0  0  0  0  0  0  0  0  0  0
    6.1161    8.1117    1.0074 N   0  0  0  0  0  0  0  0  0  0  0  0
    5.4493    9.1843    1.0161 N   0  0  0  0  0  0  0  0  0  0  0  0
    4.1606    8.9480    1.0238 N   0  0  0  0  0  0  0  0  0  0  0  0
    3.9709    7.6033    1.0199 C   0  0  0  0  0  0  0  0  0  0  0  0
    3.1011    9.9670    1.0367 C   0  0  0  0  0  0  0  0  0  0  0  0
    2.7260   10.3260   -0.3918 C   0  0  0  0  0  0  0  0  0  0  0  0
    1.7298    9.7018   -1.1757 C   0  0  0  0  0  0  0  0  0  0  0  0
    1.7384   10.3187   -2.3325 N   0  0  0  0  0  0  0  0  0  0  0  0
    2.6463   11.2671   -2.3433 N   0  0  0  0  0  0  0  0  0  0  0  0
    2.9167   12.1131   -3.4257 C   0  0  0  0  0  0  0  0  0  0  0  0
    3.9079   13.0826   -3.3111 C   0  0  0  0  0  0  0  0  0  0  0  0
    4.1738   13.9211   -4.3886 C   0  0  0  0  0  0  0  0  0  0  0  0
    3.4509   13.7869   -5.5691 C   0  0  0  0  0  0  0  0  0  0  0  0
    2.4626   12.8137   -5.6726 C   0  0  0  0  0  0  0  0  0  0  0  0
    2.1879   11.9696   -4.6017 C   0  0  0  0  0  0  0  0  0  0  0  0
    3.2881   11.3085   -1.1442 C   0  0  0  0  0  0  0  0  0  0  0  0
    6.8768    5.3162    1.0020 C   0  0  0  0  0  0  0  0  0  0  0  0
    4.4313    2.1857    1.0003 C   0  0  0  0  0  0  0  0  0  0  0  0
    3.0406    2.2072    1.0017 C   0  0  0  0  0  0  0  0  0  0  0  0
    2.3507    1.0000    1.0000 C   0  0  0  0  0  0  0  0  0  0  0  0
    1.0000    1.0000    1.0000 O   0  0  0  0  0  0  0  0  0  0  0  0
    0.2900   -0.2298    0.9982 C   0  0  0  0  0  0  0  0  0  0  0  0
    0.0367   -0.6706    2.4307 C   0  0  0  0  0  0  0  0  0  0  0  0
    0.8367   -1.3642    2.9953 O   0  0  0  0  0  0  0  0  0  0  0  0
   -1.0550   -0.2933    3.0487 O   0  0  0  0  0  0  0  0  0  0  0  0
   -1.2917   -0.7052    4.3869 C   0  0  0  0  0  0  0  0  0  0  0  0
   -0.7006    0.3173    5.3438 C   0  0  0  0  0  0  0  0  0  0  0  0
    3.0340   -0.2115    0.9982 C   0  0  0  0  0  0  0  0  0  0  0  0
    4.4251   -0.2198    0.9970 C   0  0  0  0  0  0  0  0  0  0  0  0
    5.1269    0.9806    0.9981 C   0  0  0  0  0  0  0  0  0  0  0  0
  1  2  1  0
  2  3  2  0
  3  4  1  0
  4  5  1  0
  5  6  1  0
  6  7  2  0
  7  8  1  0
  8  9  1  0
  5  9  2  0
  8 10  1  0
 10 11  1  0
 11 12  1  0
 12 13  2  0
 13 14  1  0
 14 15  1  0
 15 16  2  0
 16 17  1  0
 17 18  2  0
 18 19  1  0
 19 20  2  0
 20 15  1  0
 14 21  1  0
 11 21  2  0
  4 22  2  0
 22  1  1  0
  2 23  1  0
 23 24  2  0
 24 25  1  0
 25 26  1  0
 26 27  1  0
 27 28  1  0
 28 29  2  0
 28 30  1  0
 30 31  1  0
 31 32  1  0
 25 33  2  0
 33 34  1  0
 34 35  2  0
 35 23  1  0
M  END
$$$$
m_274972____12934192____12615770____13423500
     RDKit          3D

 34 38  0  0  0  0  0  0  0  0999 V2000
   10.2247    1.6719    2.3661 S   0  0  0  0  0  0  0  0  0  0  0  0
   10.8020    2.8102    3.0328 O   0  0  0  0  0  0  0  0  0  0  0  0
   10.6267    0.4653    3.0415 O   0  0  0  0  0  0  0  0  0  0  0  0
   10.7414    1.6275    0.8208 N   0  0  0  0  0  0  0  0  0  0  0  0
   12.2071    1.5178    0.7972 C   0  0  0  0  0  0  0  0  0  0  0  0
    8.4200    1.8069    2.3952 C   0  0  0  0  0  0  0  0  0  0  0  0
    7.6437    0.6529    2.4108 C   0  0  0  0  0  0  0  0  0  0  0  0
    6.2577    0.7683    2.4333 C   0  0  0  0  0  0  0  0  0  0  0  0
    5.6642    2.0267    2.4390 C   0  0  0  0  0  0  0  0  0  0  0  0
    6.4448    3.1781    2.4235 C   0  0  0  0  0  0  0  0  0  0  0  0
    7.8313    3.0673    2.4012 C   0  0  0  0  0  0  0  0  0  0  0  0
    4.2182    2.1329    2.4615 C   0  0  0  0  0  0  0  0  0  0  0  0
    3.3303    3.5831    2.4714 S   0  0  0  0  0  0  0  0  0  0  0  0
    1.7841    2.8690    2.4950 C   0  0  0  0  0  0  0  0  0  0  0  0
    2.0375    1.5302    2.4908 C   0  0  0  0  0  0  0  0  0  0  0  0
    3.3498    1.1464    2.4729 N   0  0  0  0  0  0  0  0  0  0  0  0
    0.9118    0.6170    2.5150 C   0  0  0  0  0  0  0  0  0  0  0  0
   -0.4029    0.9692    2.5332 N   0  0  0  0  0  0  0  0  0  0  0  0
   -1.0790   -0.0974    2.5525 N   0  0  0  0  0  0  0  0  0  0  0  0
   -0.3062   -1.1554    2.5502 N   0  0  0  0  0  0  0  0  0  0  0  0
    0.9871   -0.7420    2.5276 C   0  0  0  0  0  0  0  0  0  0  0  0
   -0.7639   -2.5537    2.5709 C   0  0  0  0  0  0  0  0  0  0  0  0
   -0.9682   -3.1229    1.1778 C   0  0  0  0  0  0  0  0  0  0  0  0
   -1.7406   -4.2693    1.0591 C   0  0  0  0  0  0  0  0  0  0  0  0
   -2.2705   -4.8275    2.2324 N   0  0  0  0  0  0  0  0  0  0  0  0
   -2.3571   -6.1814    2.4234 C   0  0  0  0  0  0  0  0  0  0  0  0
   -1.9725   -6.9334    1.5711 O   0  0  0  0  0  0  0  0  0  0  0  0
   -2.9404   -6.7309    3.7150 C   0  0  0  0  0  0  0  0  0  0  0  0
   -2.7691   -3.9372    3.2926 C   0  0  0  0  0  0  0  0  0  0  0  0
   -2.1315   -2.5554    3.2388 C   0  0  0  0  0  0  0  0  0  0  0  0
   -1.9492   -4.7942   -0.2158 C   0  0  0  0  0  0  0  0  0  0  0  0
   -1.4078   -4.2112   -1.3572 C   0  0  0  0  0  0  0  0  0  0  0  0
   -0.6326   -3.0638   -1.2301 C   0  0  0  0  0  0  0  0  0  0  0  0
   -0.4239   -2.5339    0.0391 C   0  0  0  0  0  0  0  0  0  0  0  0
  1  2  2  0
  1  3  2  0
  1  4  1  0
  4  5  1  0
  1  6  1  0
  6  7  2  0
  7  8  1  0
  8  9  2  0
  9 10  1  0
 10 11  2  0
 11  6  1  0
  9 12  1  0
 12 13  1  0
 13 14  1  0
 14 15  2  0
 15 16  1  0
 12 16  2  0
 15 17  1  0
 17 18  1  0
 18 19  2  0
 19 20  1  0
 20 21  1  0
 17 21  2  0
 20 22  1  0
 22 23  1  0
 23 24  2  0
 24 25  1  0
 25 26  1  0
 26 27  2  0
 26 28  1  0
 25 29  1  0
 29 30  1  0
 30 22  1  0
 24 31  1  0
 31 32  2  0
 32 33  1  0
 33 34  2  0
 34 23  1  0
M  END
$$$$
m_274972____12934174____12615770____14584994
     RDKit          3D

 36 40  0  0  0  0  0  0  0  0999 V2000
    7.6953    4.8589    8.0726 S   0  0  0  0  0  0  0  0  0  0  0  0
    6.4667    5.1257    8.7749 O   0  0  0  0  0  0  0  0  0  0  0  0
    8.4054    3.7954    8.7347 O   0  0  0  0  0  0  0  0  0  0  0  0
    8.6173    6.2030    8.0608 N   0  0  0  0  0  0  0  0  0  0  0  0
    7.3374    4.3867    6.4368 C   0  0  0  0  0  0  0  0  0  0  0  0
    8.1896    3.5166    5.7657 C   0  0  0  0  0  0  0  0  0  0  0  0
    7.9056    3.1376    4.4576 C   0  0  0  0  0  0  0  0  0  0  0  0
    6.7665    3.6386    3.8367 C   0  0  0  0  0  0  0  0  0  0  0  0
    5.9147    4.5093    4.5085 C   0  0  0  0  0  0  0  0  0  0  0  0
    6.1977    4.8880    5.8162 C   0  0  0  0  0  0  0  0  0  0  0  0
    6.4523    3.2286    2.4073 C   0  0  0  0  0  0  0  0  0  0  0  0
    5.6199    2.0170    2.4168 N   0  0  0  0  0  0  0  0  0  0  0  0
    4.2262    2.1265    2.4440 C   0  0  0  0  0  0  0  0  0  0  0  0
    3.3287    3.5724    2.4687 S   0  0  0  0  0  0  0  0  0  0  0  0
    1.7793    2.8660    2.4982 C   0  0  0  0  0  0  0  0  0  0  0  0
    2.0377    1.5325    2.4911 C   0  0  0  0  0  0  0  0  0  0  0  0
    3.3528    1.1511    2.4644 N   0  0  0  0  0  0  0  0  0  0  0  0
    0.9120    0.6179    2.5170 C   0  0  0  0  0  0  0  0  0  0  0  0
   -0.4050    0.9651    2.5483 N   0  0  0  0  0  0  0  0  0  0  0  0
   -1.0863   -0.0977    2.5640 N   0  0  0  0  0  0  0  0  0  0  0  0
   -0.3094   -1.1530    2.5395 N   0  0  0  0  0  0  0  0  0  0  0  0
   -0.7430   -2.4856    2.5453 C   0  0  0  0  0  0  0  0  0  0  0  0
   -1.1446   -3.1942    3.6351 N   0  0  0  0  0  0  0  0  0  0  0  0
   -1.4903   -4.4544    3.2473 C   0  0  0  0  0  0  0  0  0  0  0  0
   -1.3070   -4.5682    1.8875 C   0  0  0  0  0  0  0  0  0  0  0  0
   -1.5987   -5.7868    1.2785 C   0  0  0  0  0  0  0  0  0  0  0  0
   -2.0660   -6.8723    2.0133 C   0  0  0  0  0  0  0  0  0  0  0  0
   -2.2435   -6.7332    3.3862 C   0  0  0  0  0  0  0  0  0  0  0  0
   -1.9573   -5.5229    4.0088 C   0  0  0  0  0  0  0  0  0  0  0  0
   -0.8312   -3.3088    1.4657 C   0  0  0  0  0  0  0  0  0  0  0  0
   -0.4915   -2.9479    0.1049 C   0  0  0  0  0  0  0  0  0  0  0  0
   -0.6074   -3.7540   -0.7764 O   0  0  0  0  0  0  0  0  0  0  0  0
   -0.0579   -1.7413   -0.1639 O   0  0  0  0  0  0  0  0  0  0  0  0
    0.2751   -1.3874   -1.4981 C   0  0  0  0  0  0  0  0  0  0  0  0
   -1.1877   -2.6690    5.0094 C   0  0  0  0  0  0  0  0  0  0  0  0
    0.9852   -0.7385    2.5082 C   0  0  0  0  0  0  0  0  0  0  0  0
  1  2  2  0
  1  3  2  0
  1  4  1  0
  1  5  1  0
  5  6  2  0
  6  7  1  0
  7  8  2  0
  8  9  1  0
  9 10  2  0
 10  5  1  0
  8 11  1  0
 11 12  1  0
 12 13  1  0
 13 14  1  0
 14 15  1  0
 15 16  2  0
 16 17  1  0
 13 17  2  0
 16 18  1  0
 18 19  1  0
 19 20  2  0
 20 21  1  0
 21 22  1  0
 22 23  1  0
 23 24  1  0
 24 25  2  0
 25 26  1  0
 26 27  2  0
 27 28  1  0
 28 29  2  0
 29 24  1  0
 25 30  1  0
 22 30  2  0
 30 31  1  0
 31 32  2  0
 31 33  1  0
 33 34  1  0
 23 35  1  0
 21 36  1  0
 18 36  2  0
M  END
$$$$
m_274972____12934342____12615770____13047176
     RDKit          3D

 34 38  0  0  0  0  0  0  0  0999 V2000
   10.1573    1.7131    2.3581 S   0  0  0  0  0  0  0  0  0  0  0  0
    8.4221    1.8380    2.3858 C   0  0  0  0  0  0  0  0  0  0  0  0
    7.7900    2.8091    1.6162 C   0  0  0  0  0  0  0  0  0  0  0  0
    6.4021    2.9000    1.6461 C   0  0  0  0  0  0  0  0  0  0  0  0
    5.6642    2.0267    2.4390 C   0  0  0  0  0  0  0  0  0  0  0  0
    6.3011    1.0570    3.2067 C   0  0  0  0  0  0  0  0  0  0  0  0
    7.6888    0.9624    3.1800 C   0  0  0  0  0  0  0  0  0  0  0  0
    4.2182    2.1329    2.4615 C   0  0  0  0  0  0  0  0  0  0  0  0
    3.3303    3.5831    2.4714 S   0  0  0  0  0  0  0  0  0  0  0  0
    1.7841    2.8690    2.4950 C   0  0  0  0  0  0  0  0  0  0  0  0
    2.0375    1.5302    2.4908 C   0  0  0  0  0  0  0  0  0  0  0  0
    3.3498    1.1464    2.4729 N   0  0  0  0  0  0  0  0  0  0  0  0
    0.9118    0.6170    2.5150 C   0  0  0  0  0  0  0  0  0  0  0  0
   -0.4027    0.9693    2.5423 N   0  0  0  0  0  0  0  0  0  0  0  0
   -1.0789   -0.0973    2.5583 N   0  0  0  0  0  0  0  0  0  0  0  0
   -0.3063   -1.1555    2.5452 N   0  0  0  0  0  0  0  0  0  0  0  0
    0.9870   -0.7420    2.5184 C   0  0  0  0  0  0  0  0  0  0  0  0
   -0.7636   -2.5524    2.5593 C   0  0  0  0  0  0  0  0  0  0  0  0
   -0.9517   -3.0385    1.1309 C   0  0  0  0  0  0  0  0  0  0  0  0
   -2.1299   -2.6973    0.4136 C   0  0  0  0  0  0  0  0  0  0  0  0
   -2.9791   -2.0134    0.9631 O   0  0  0  0  0  0  0  0  0  0  0  0
   -2.2922   -3.1395   -0.8745 N   0  0  0  0  0  0  0  0  0  0  0  0
   -1.3271   -3.9096   -1.4804 C   0  0  0  0  0  0  0  0  0  0  0  0
   -0.1639   -4.2563   -0.7983 C   0  0  0  0  0  0  0  0  0  0  0  0
    0.8300   -5.0340   -1.3826 C   0  0  0  0  0  0  0  0  0  0  0  0
    0.6537   -5.4766   -2.6893 C   0  0  0  0  0  0  0  0  0  0  0  0
   -0.4939   -5.1516   -3.4046 C   0  0  0  0  0  0  0  0  0  0  0  0
   -1.4660   -4.3726   -2.7870 C   0  0  0  0  0  0  0  0  0  0  0  0
    0.0152   -3.8054    0.5357 C   0  0  0  0  0  0  0  0  0  0  0  0
   -3.5325   -2.7554   -1.5693 C   0  0  0  0  0  0  0  0  0  0  0  0
   10.3610    0.9347    0.7368 C   0  0  0  0  0  0  0  0  0  0  0  0
   10.5015    2.0106   -0.3277 C   0  0  0  0  0  0  0  0  0  0  0  0
   11.6074    0.0648    0.7454 C   0  0  0  0  0  0  0  0  0  0  0  0
    9.1453    0.0752    0.4310 C   0  0  0  0  0  0  0  0  0  0  0  0
  1  2  1  0
  2  3  2  0
  3  4  1  0
  4  5  2  0
  5  6  1  0
  6  7  2  0
  7  2  1  0
  5  8  1  0
  8  9  1  0
  9 10  1  0
 10 11  2  0
 11 12  1  0
  8 12  2  0
 11 13  1  0
 13 14  1  0
 14 15  2  0
 15 16  1  0
 16 17  1  0
 13 17  2  0
 16 18  1  0
 18 19  1  0
 19 20  1  0
 20 21  2  0
 20 22  1  0
 22 23  1  0
 23 24  2  0
 24 25  1  0
 25 26  2  0
 26 27  1  0
 27 28  2  0
 28 23  1  0
 24 29  1  0
 19 29  2  0
 22 30  1  0
  1 31  1  0
 31 32  1  0
 31 33  1  0
 31 34  1  0
M  END
$$$$
s_22____7874958____9780488
     RDKit          3D

 36 41  0  0  0  0  0  0  0  0999 V2000
    3.6893    1.6898   -1.5332 S   0  0  0  0  0  0  0  0  0  0  0  0
    3.9580    0.5043   -2.7242 C   0  0  0  0  0  0  0  0  0  0  0  0
    3.5563   -0.6458   -2.2345 N   0  0  0  0  0  0  0  0  0  0  0  0
    3.0411   -0.6044   -0.9629 C   0  0  0  0  0  0  0  0  0  0  0  0
    2.5388   -1.7699   -0.2612 C   0  0  0  0  0  0  0  0  0  0  0  0
    3.1212   -2.1538    0.9423 C   0  0  0  0  0  0  0  0  0  0  0  0
    2.6369   -3.2729    1.6117 C   0  0  0  0  0  0  0  0  0  0  0  0
    1.5770   -3.9982    1.0776 C   0  0  0  0  0  0  0  0  0  0  0  0
    1.0027   -3.6052   -0.1250 C   0  0  0  0  0  0  0  0  0  0  0  0
    1.4784   -2.4884   -0.8043 C   0  0  0  0  0  0  0  0  0  0  0  0
    3.0262    0.6294   -0.3830 C   0  0  0  0  0  0  0  0  0  0  0  0
    2.5200    1.0000    1.0000 C   0  0  0  0  0  0  0  0  0  0  0  0
    1.0000    1.0000    1.0000 C   0  0  0  0  0  0  0  0  0  0  0  0
    0.4000    1.0000   -0.0392 O   0  0  0  0  0  0  0  0  0  0  0  0
    0.3150    1.0000    2.1865 N   0  0  0  0  0  0  0  0  0  0  0  0
   -1.0219    1.4147    2.2230 C   0  0  0  0  0  0  0  0  0  0  0  0
   -1.5806    2.4994    1.5108 C   0  0  0  0  0  0  0  0  0  0  0  0
   -2.8505    2.5329    1.8309 N   0  0  0  0  0  0  0  0  0  0  0  0
   -3.1376    1.5702    2.6758 N   0  0  0  0  0  0  0  0  0  0  0  0
   -4.4062    1.3264    3.2153 C   0  0  0  0  0  0  0  0  0  0  0  0
   -4.6056    1.1817    4.5353 N   0  0  0  0  0  0  0  0  0  0  0  0
   -5.8189    0.9470    5.0546 C   0  0  0  0  0  0  0  0  0  0  0  0
   -6.9134    0.8502    4.1998 C   0  0  0  0  0  0  0  0  0  0  0  0
   -6.7184    0.9949    2.8803 N   0  0  0  0  0  0  0  0  0  0  0  0
   -5.5024    1.2285    2.3636 C   0  0  0  0  0  0  0  0  0  0  0  0
   -8.1788    0.6087    4.7251 C   0  0  0  0  0  0  0  0  0  0  0  0
   -8.3704    0.4601    6.0948 C   0  0  0  0  0  0  0  0  0  0  0  0
   -7.2747    0.5566    6.9460 C   0  0  0  0  0  0  0  0  0  0  0  0
   -6.0085    0.7993    6.4246 C   0  0  0  0  0  0  0  0  0  0  0  0
   -2.0197    0.8425    2.9506 C   0  0  0  0  0  0  0  0  0  0  0  0
    4.5117    0.7466   -3.9905 N   0  0  0  0  0  0  0  0  0  0  0  0
    4.6645   -0.3722   -4.9337 C   0  0  0  0  0  0  0  0  0  0  0  0
    4.4903    0.0978   -6.3696 C   0  0  0  0  0  0  0  0  0  0  0  0
    5.2225    1.2909   -6.6189 O   0  0  0  0  0  0  0  0  0  0  0  0
    4.7132    2.3658   -5.8404 C   0  0  0  0  0  0  0  0  0  0  0  0
    4.9037    2.1173   -4.3519 C   0  0  0  0  0  0  0  0  0  0  0  0
  1  2  1  0
  2  3  2  0
  3  4  1  0
  4  5  1  0
  5  6  2  0
  6  7  1  0
  7  8  2  0
  8  9  1  0
  9 10  2  0
 10  5  1  0
  4 11  2  0
 11  1  1  0
 11 12  1  0
 12 13  1  0
 13 14  2  0
 13 15  1  0
 15 16  1  0
 16 17  1  0
 17 18  2  0
 18 19  1  0
 19 20  1  0
 20 21  2  0
 21 22  1  0
 22 23  2  0
 23 24  1  0
 24 25  2  0
 25 20  1  0
 23 26  1  0
 26 27  2  0
 27 28  1  0
 28 29  2  0
 29 22  1  0
 19 30  1  0
 16 30  2  0
  2 31  1  0
 31 32  1  0
 32 33  1  0
 33 34  1  0
 34 35  1  0
 35 36  1  0
 36 31  1  0
M  END
$$$$
m_274972____12934174____12615770____13046636
     RDKit          3D

 32 36  0  0  0  0  0  0  0  0999 V2000
    4.5044   -4.7455    1.0049 S   0  0  0  0  0  0  0  0  0  0  0  0
    4.0241   -5.4228    2.1814 O   0  0  0  0  0  0  0  0  0  0  0  0
    4.0258   -5.4265   -0.1701 O   0  0  0  0  0  0  0  0  0  0  0  0
    6.1344   -4.7442    1.0061 N   0  0  0  0  0  0  0  0  0  0  0  0
    3.8997   -3.0395    1.0018 C   0  0  0  0  0  0  0  0  0  0  0  0
    3.6694   -2.3893   -0.2058 C   0  0  0  0  0  0  0  0  0  0  0  0
    3.2047   -1.0780   -0.2108 C   0  0  0  0  0  0  0  0  0  0  0  0
    2.9766   -0.4329    1.0000 C   0  0  0  0  0  0  0  0  0  0  0  0
    3.2076   -1.0837    2.2075 C   0  0  0  0  0  0  0  0  0  0  0  0
    3.6715   -2.3946    2.2131 C   0  0  0  0  0  0  0  0  0  0  0  0
    2.4700    1.0000    1.0000 C   0  0  0  0  0  0  0  0  0  0  0  0
    1.0000    1.0000    1.0000 N   0  0  0  0  0  0  0  0  0  0  0  0
    0.3009    1.0000    2.2109 C   0  0  0  0  0  0  0  0  0  0  0  0
   -1.3907    1.0000    2.3985 S   0  0  0  0  0  0  0  0  0  0  0  0
   -1.4205    1.0037    4.1013 C   0  0  0  0  0  0  0  0  0  0  0  0
   -0.1058    1.0085    4.4423 C   0  0  0  0  0  0  0  0  0  0  0  0
    0.8049    1.0089    3.4194 N   0  0  0  0  0  0  0  0  0  0  0  0
    0.2348    1.0177    5.8524 C   0  0  0  0  0  0  0  0  0  0  0  0
   -0.6460    1.0177    6.8918 N   0  0  0  0  0  0  0  0  0  0  0  0
    0.0197    1.0276    7.9646 N   0  0  0  0  0  0  0  0  0  0  0  0
    1.3069    1.0287    7.7175 N   0  0  0  0  0  0  0  0  0  0  0  0
    2.3217    1.0363    8.6817 C   0  0  0  0  0  0  0  0  0  0  0  0
    3.6509    1.0364    8.2718 C   0  0  0  0  0  0  0  0  0  0  0  0
    4.6591    1.0442    9.2306 C   0  0  0  0  0  0  0  0  0  0  0  0
    4.3306    1.0523   10.5828 C   0  0  0  0  0  0  0  0  0  0  0  0
    2.9986    1.0521   10.9838 C   0  0  0  0  0  0  0  0  0  0  0  0
    1.9846    1.0439   10.0311 C   0  0  0  0  0  0  0  0  0  0  0  0
    5.3333    1.0612   11.5468 C   0  0  0  0  0  0  0  0  0  0  0  0
    6.6629    1.0615   11.1387 C   0  0  0  0  0  0  0  0  0  0  0  0
    6.9943    1.0538    9.7877 C   0  0  0  0  0  0  0  0  0  0  0  0
    5.9898    1.0450    8.8261 C   0  0  0  0  0  0  0  0  0  0  0  0
    1.4905    1.0219    6.3703 C   0  0  0  0  0  0  0  0  0  0  0  0
  1  2  2  0
  1  3  2  0
  1  4  1  0
  1  5  1  0
  5  6  2  0
  6  7  1  0
  7  8  2  0
  8  9  1  0
  9 10  2  0
 10  5  1  0
  8 11  1  0
 11 12  1  0
 12 13  1  0
 13 14  1  0
 14 15  1  0
 15 16  2  0
 16 17  1  0
 13 17  2  0
 16 18  1  0
 18 19  1  0
 19 20  2  0
 20 21  1  0
 21 22  1  0
 22 23  2  0
 23 24  1  0
 24 25  2  0
 25 26  1  0
 26 27  2  0
 27 22  1  0
 25 28  1  0
 28 29  2  0
 29 30  1  0
 30 31  2  0
 31 24  1  0
 21 32  1  0
 18 32  2  0
M  END
$$$$
m_274972____12934174____12615770____13046748
     RDKit          3D

 32 36  0  0  0  0  0  0  0  0999 V2000
   -0.7479    6.3529   -2.6854 S   0  0  0  0  0  0  0  0  0  0  0  0
    0.5111    6.8193   -3.2059 O   0  0  0  0  0  0  0  0  0  0  0  0
   -1.5262    5.7803   -3.7531 O   0  0  0  0  0  0  0  0  0  0  0  0
   -1.5619    7.6039   -2.0302 N   0  0  0  0  0  0  0  0  0  0  0  0
   -0.4483    5.0973   -1.4167 C   0  0  0  0  0  0  0  0  0  0  0  0
   -1.3789    4.0843   -1.2124 C   0  0  0  0  0  0  0  0  0  0  0  0
   -1.1509    3.1181   -0.2378 C   0  0  0  0  0  0  0  0  0  0  0  0
    0.0117    3.1807    0.5229 C   0  0  0  0  0  0  0  0  0  0  0  0
    0.9419    4.1946    0.3183 C   0  0  0  0  0  0  0  0  0  0  0  0
    0.7149    5.1603   -0.6561 C   0  0  0  0  0  0  0  0  0  0  0  0
    0.2650    2.1283    1.5896 C   0  0  0  0  0  0  0  0  0  0  0  0
    1.0000    1.0000    1.0000 N   0  0  0  0  0  0  0  0  0  0  0  0
    2.3983    1.0000    1.0000 C   0  0  0  0  0  0  0  0  0  0  0  0
    3.4065   -0.2152    0.3650 S   0  0  0  0  0  0  0  0  0  0  0  0
    4.8961    0.5148    0.7506 C   0  0  0  0  0  0  0  0  0  0  0  0
    4.5340    1.6728    1.3612 C   0  0  0  0  0  0  0  0  0  0  0  0
    3.1928    1.9183    1.4899 N   0  0  0  0  0  0  0  0  0  0  0  0
    5.5842    2.5541    1.8321 C   0  0  0  0  0  0  0  0  0  0  0  0
    6.9228    2.3351    1.7176 N   0  0  0  0  0  0  0  0  0  0  0  0
    7.5127    3.3201    2.2440 N   0  0  0  0  0  0  0  0  0  0  0  0
    6.6587    4.1966    2.7121 N   0  0  0  0  0  0  0  0  0  0  0  0
    5.4020    3.7430    2.4694 C   0  0  0  0  0  0  0  0  0  0  0  0
    7.0043    5.4559    3.3871 C   0  0  0  0  0  0  0  0  0  0  0  0
    7.1256    6.5668    2.3561 C   0  0  0  0  0  0  0  0  0  0  0  0
    6.1097    7.3769    1.9404 N   0  0  0  0  0  0  0  0  0  0  0  0
    6.6008    8.2067    1.0498 C   0  0  0  0  0  0  0  0  0  0  0  0
    7.9205    7.9522    0.8765 N   0  0  0  0  0  0  0  0  0  0  0  0
    8.2631    6.9179    1.6959 C   0  0  0  0  0  0  0  0  0  0  0  0
    8.6673    8.6866   -0.0083 C   0  0  0  0  0  0  0  0  0  0  0  0
    8.0890    9.6951   -0.7353 C   0  0  0  0  0  0  0  0  0  0  0  0
    6.7071    9.9847   -0.5743 C   0  0  0  0  0  0  0  0  0  0  0  0
    5.9709    9.2433    0.3122 C   0  0  0  0  0  0  0  0  0  0  0  0
  1  2  2  0
  1  3  2  0
  1  4  1  0
  1  5  1  0
  5  6  2  0
  6  7  1  0
  7  8  2  0
  8  9  1  0
  9 10  2  0
 10  5  1  0
  8 11  1  0
 11 12  1  0
 12 13  1  0
 13 14  1  0
 14 15  1  0
 15 16  2  0
 16 17  1  0
 13 17  2  0
 16 18  1  0
 18 19  1  0
 19 20  2  0
 20 21  1  0
 21 22  1  0
 18 22  2  0
 21 23  1  0
 23 24  1  0
 24 25  1  0
 25 26  2  0
 26 27  1  0
 27 28  1  0
 24 28  2  0
 27 29  1  0
 29 30  2  0
 30 31  1  0
 31 32  2  0
 32 26  1  0
M  END
$$$$
s_2230a____17321138____7466628
     RDKit          3D

 34 38  0  0  0  0  0  0  0  0999 V2000
   -7.6971   -4.0149    2.2310 Br  0  0  0  0  0  0  0  0  0  0  0  0
   -6.2771   -2.6639    2.2207 C   0  0  0  0  0  0  0  0  0  0  0  0
   -6.6106   -1.3132    2.2113 C   0  0  0  0  0  0  0  0  0  0  0  0
   -5.6001   -0.3574    2.2028 C   0  0  0  0  0  0  0  0  0  0  0  0
   -4.2693   -0.7629    2.2042 C   0  0  0  0  0  0  0  0  0  0  0  0
   -3.9410   -2.1140    2.2137 C   0  0  0  0  0  0  0  0  0  0  0  0
   -4.9476   -3.0746    2.2216 C   0  0  0  0  0  0  0  0  0  0  0  0
   -3.2190    0.2365    2.1950 C   0  0  0  0  0  0  0  0  0  0  0  0
   -1.8778   -0.0408    2.1953 N   0  0  0  0  0  0  0  0  0  0  0  0
   -1.0833    1.0000    2.1865 C   0  0  0  0  0  0  0  0  0  0  0  0
   -2.0915    2.3712    2.1865 S   0  0  0  0  0  0  0  0  0  0  0  0
   -3.5811    1.5456    2.1901 C   0  0  0  0  0  0  0  0  0  0  0  0
    0.3150    1.0000    2.1865 N   0  0  0  0  0  0  0  0  0  0  0  0
    1.0000    1.0000    1.0000 C   0  0  0  0  0  0  0  0  0  0  0  0
    0.4000    1.0000   -0.0392 O   0  0  0  0  0  0  0  0  0  0  0  0
    2.5200    1.0000    1.0000 C   0  0  0  0  0  0  0  0  0  0  0  0
    3.0100    1.0000   -0.3859 N   0  0  0  0  0  0  0  0  0  0  0  0
    4.4800    1.0000   -0.3859 C   0  0  0  0  0  0  0  0  0  0  0  0
    4.9868    1.0000   -1.8194 C   0  0  0  0  0  0  0  0  0  0  0  0
    4.1782    1.0000   -2.9757 C   0  0  0  0  0  0  0  0  0  0  0  0
    5.0982    0.9987   -3.9985 C   0  0  0  0  0  0  0  0  0  0  0  0
    6.3155    0.9960   -3.5034 O   0  0  0  0  0  0  0  0  0  0  0  0
    6.2970    0.9970   -2.1926 C   0  0  0  0  0  0  0  0  0  0  0  0
    4.6353    0.9878   -5.3117 C   0  0  0  0  0  0  0  0  0  0  0  0
    3.2752    0.9812   -5.6072 C   0  0  0  0  0  0  0  0  0  0  0  0
    2.3515    0.9838   -4.5678 C   0  0  0  0  0  0  0  0  0  0  0  0
    2.8147    0.9936   -3.2569 C   0  0  0  0  0  0  0  0  0  0  0  0
    4.9867    2.2411    0.3306 C   0  0  0  0  0  0  0  0  0  0  0  0
    1.0500    1.0000    3.4595 C   0  0  0  0  0  0  0  0  0  0  0  0
    1.3032   -0.4323    3.8981 C   0  0  0  0  0  0  0  0  0  0  0  0
    0.0791   -1.1185    4.0734 O   0  0  0  0  0  0  0  0  0  0  0  0
    0.3774   -2.2576    4.8692 C   0  0  0  0  0  0  0  0  0  0  0  0
    1.5937   -1.8892    5.6960 C   0  0  0  0  0  0  0  0  0  0  0  0
    1.8947   -0.4596    5.2891 C   0  0  0  0  0  0  0  0  0  0  0  0
  1  2  1  0
  2  3  2  0
  3  4  1  0
  4  5  2  0
  5  6  1  0
  6  7  2  0
  7  2  1  0
  5  8  1  0
  8  9  1  0
  9 10  2  0
 10 11  1  0
 11 12  1  0
  8 12  2  0
 10 13  1  0
 13 14  1  0
 14 15  2  0
 14 16  1  0
 16 17  1  0
 17 18  1  0
 18 19  1  0
 19 20  1  0
 20 21  2  0
 21 22  1  0
 22 23  1  0
 19 23  2  0
 21 24  1  0
 24 25  2  0
 25 26  1  0
 26 27  2  0
 27 20  1  0
 18 28  1  0
 13 29  1  0
 29 30  1  0
 30 31  1  0
 31 32  1  0
 32 33  1  0
 33 34  1  0
 34 30  1  0
M  CHG  1  17   1
M  END
$$$$
s_1458____1722010____9746902
     RDKit          3D

 33 36  0  0  0  0  0  0  0  0999 V2000
    5.4655   -1.3141   -6.8938 S   0  0  0  0  0  0  0  0  0  0  0  0
    4.6054   -2.1173   -7.7237 O   0  0  0  0  0  0  0  0  0  0  0  0
    5.6414   -0.0185   -7.4972 O   0  0  0  0  0  0  0  0  0  0  0  0
    6.9146   -2.0454   -6.7450 N   0  0  0  0  0  0  0  0  0  0  0  0
    4.7450   -1.1266   -5.3215 C   0  0  0  0  0  0  0  0  0  0  0  0
    5.2070   -0.1314   -4.4667 C   0  0  0  0  0  0  0  0  0  0  0  0
    4.6274    0.0131   -3.2108 C   0  0  0  0  0  0  0  0  0  0  0  0
    3.5953   -0.8351   -2.8239 C   0  0  0  0  0  0  0  0  0  0  0  0
    3.0168   -0.6833   -1.5579 N   0  0  0  0  0  0  0  0  0  0  0  0
    3.1513   -1.5251   -0.5605 N   0  0  0  0  0  0  0  0  0  0  0  0
    2.4864   -1.0940    0.4802 C   0  0  0  0  0  0  0  0  0  0  0  0
    1.8773    0.1227    0.1227 C   0  0  0  0  0  0  0  0  0  0  0  0
    2.2322    0.3543   -1.1718 C   0  0  0  0  0  0  0  0  0  0  0  0
    1.8232    1.5484   -2.0185 C   0  0  0  0  0  0  0  0  0  0  0  0
    1.0000    1.0000    1.0000 C   0  0  0  0  0  0  0  0  0  0  0  0
    1.8776    1.8776    1.8776 C   0  0  0  0  0  0  0  0  0  0  0  0
    1.0000    2.7551    2.7551 C   0  0  0  0  0  0  0  0  0  0  0  0
   -0.1949    2.6773    2.6773 O   0  0  0  0  0  0  0  0  0  0  0  0
    1.5481    3.5965    3.5965 O   0  0  0  0  0  0  0  0  0  0  0  0
    0.7283    4.4163    4.4163 C   0  0  0  0  0  0  0  0  0  0  0  0
    1.6059    5.2939    5.2939 C   0  0  0  0  0  0  0  0  0  0  0  0
    2.0232    6.5523    4.8702 C   0  0  0  0  0  0  0  0  0  0  0  0
    2.7974    7.3082    5.6642 N   0  0  0  0  0  0  0  0  0  0  0  0
    3.1921    6.8884    6.8768 C   0  0  0  0  0  0  0  0  0  0  0  0
    2.8008    5.6366    7.3455 C   0  0  0  0  0  0  0  0  0  0  0  0
    1.9983    4.8305    6.5449 C   0  0  0  0  0  0  0  0  0  0  0  0
    3.1919    5.1725    8.5969 C   0  0  0  0  0  0  0  0  0  0  0  0
    3.9935    5.9789    9.3989 C   0  0  0  0  0  0  0  0  0  0  0  0
    4.3937    7.2330    8.9472 C   0  0  0  0  0  0  0  0  0  0  0  0
    3.9928    7.6802    7.6926 C   0  0  0  0  0  0  0  0  0  0  0  0
    2.3905   -1.7797    1.8324 C   0  0  0  0  0  0  0  0  0  0  0  0
    3.1384   -1.8281   -3.6831 C   0  0  0  0  0  0  0  0  0  0  0  0
    3.7136   -1.9783   -4.9403 C   0  0  0  0  0  0  0  0  0  0  0  0
  1  2  2  0
  1  3  2  0
  1  4  1  0
  1  5  1  0
  5  6  2  0
  6  7  1  0
  7  8  2  0
  8  9  1  0
  9 10  1  0
 10 11  2  0
 11 12  1  0
 12 13  2  0
 13  9  1  0
 13 14  1  0
 12 15  1  0
 15 16  1  0
 16 17  1  0
 17 18  2  0
 17 19  1  0
 19 20  1  0
 20 21  1  0
 21 22  2  0
 22 23  1  0
 23 24  2  0
 24 25  1  0
 25 26  2  0
 26 21  1  0
 25 27  1  0
 27 28  2  0
 28 29  1  0
 29 30  2  0
 30 24  1  0
 11 31  1  0
  8 32  1  0
 32 33  2  0
 33  5  1  0
M  END
$$$$
m_270942____9828442____12221226____9835902
     RDKit          3D

 36 40  0  0  0  0  0  0  0  0999 V2000
    0.4648    3.7275    2.5286 S   0  0  0  0  0  0  0  0  0  0  0  0
    0.6132    4.9899    1.8520 O   0  0  0  0  0  0  0  0  0  0  0  0
   -0.5345    2.9375    1.8570 O   0  0  0  0  0  0  0  0  0  0  0  0
    0.0053    3.9882    4.0706 N   0  0  0  0  0  0  0  0  0  0  0  0
    1.0254    4.7946    4.7562 C   0  0  0  0  0  0  0  0  0  0  0  0
   -1.2776    4.7056    4.0850 C   0  0  0  0  0  0  0  0  0  0  0  0
    1.9833    2.8783    2.5116 C   0  0  0  0  0  0  0  0  0  0  0  0
    3.1735    3.5977    2.5023 C   0  0  0  0  0  0  0  0  0  0  0  0
    4.3802    2.9056    2.4882 C   0  0  0  0  0  0  0  0  0  0  0  0
    4.4059    1.5148    2.4827 C   0  0  0  0  0  0  0  0  0  0  0  0
    3.2042    0.8141    2.4925 C   0  0  0  0  0  0  0  0  0  0  0  0
    1.9869    1.4870    2.5070 C   0  0  0  0  0  0  0  0  0  0  0  0
    5.6236    3.6531    2.4786 C   0  0  0  0  0  0  0  0  0  0  0  0
    6.0215    4.5036    3.3978 N   0  0  0  0  0  0  0  0  0  0  0  0
    7.1938    4.9730    3.0331 N   0  0  0  0  0  0  0  0  0  0  0  0
    7.5807    4.4529    1.8946 C   0  0  0  0  0  0  0  0  0  0  0  0
    6.5883    3.6038    1.5218 N   0  0  0  0  0  0  0  0  0  0  0  0
    6.5638    2.7818    0.3026 C   0  0  0  0  0  0  0  0  0  0  0  0
    5.3894    3.2027   -0.5697 C   0  0  0  0  0  0  0  0  0  0  0  0
    5.6258    4.5187   -1.2892 C   0  0  0  0  0  0  0  0  0  0  0  0
    4.7131    4.4856   -2.3726 O   0  0  0  0  0  0  0  0  0  0  0  0
    4.4129    3.1346   -2.6886 C   0  0  0  0  0  0  0  0  0  0  0  0
    5.2360    2.2734   -1.7554 C   0  0  0  0  0  0  0  0  0  0  0  0
    8.7737    4.7162    1.2077 N   0  0  0  0  0  0  0  0  0  0  0  0
    9.8794    3.7578    1.3424 C   0  0  0  0  0  0  0  0  0  0  0  0
   11.1933    4.5179    1.4541 C   0  0  0  0  0  0  0  0  0  0  0  0
   11.7297    5.2486    0.3930 C   0  0  0  0  0  0  0  0  0  0  0  0
   11.0520    5.3295   -0.8347 N   0  0  0  0  0  0  0  0  0  0  0  0
    9.6790    5.6403   -0.8738 C   0  0  0  0  0  0  0  0  0  0  0  0
    9.1094    5.6689   -1.9542 O   0  0  0  0  0  0  0  0  0  0  0  0
    8.8725    5.9275    0.3785 C   0  0  0  0  0  0  0  0  0  0  0  0
   11.7520    5.1043   -2.1098 C   0  0  0  0  0  0  0  0  0  0  0  0
   12.9320    5.9191    0.6028 C   0  0  0  0  0  0  0  0  0  0  0  0
   13.5950    5.8703    1.8246 C   0  0  0  0  0  0  0  0  0  0  0  0
   13.0414    5.1373    2.8690 C   0  0  0  0  0  0  0  0  0  0  0  0
   11.8404    4.4617    2.6838 C   0  0  0  0  0  0  0  0  0  0  0  0
  1  2  2  0
  1  3  2  0
  1  4  1  0
  4  5  1  0
  4  6  1  0
  1  7  1  0
  7  8  2  0
  8  9  1  0
  9 10  2  0
 10 11  1  0
 11 12  2  0
 12  7  1  0
  9 13  1  0
 13 14  2  0
 14 15  1  0
 15 16  2  0
 16 17  1  0
 17 13  1  0
 17 18  1  0
 18 19  1  0
 19 20  1  0
 20 21  1  0
 21 22  1  0
 22 23  1  0
 23 19  1  0
 16 24  1  0
 24 25  1  0
 25 26  1  0
 26 27  2  0
 27 28  1  0
 28 29  1  0
 29 30  2  0
 29 31  1  0
 31 24  1  0
 28 32  1  0
 27 33  1  0
 33 34  2  0
 34 35  1  0
 35 36  2  0
 36 26  1  0
M  END
$$$$
m_274860a____17153220____17209716____15233762
     RDKit          3D

 42 47  0  0  0  0  0  0  0  0999 V2000
    6.4675    0.1185    0.9982 O   0  0  0  0  0  0  0  0  0  0  0  0
    5.2719    0.3616    0.9990 N   0  0  0  0  0  0  0  0  0  0  0  0
    4.8879    1.5090    0.9990 O   0  0  0  0  0  0  0  0  0  0  0  0
    4.3442   -0.6873    1.0000 C   0  0  0  0  0  0  0  0  0  0  0  0
    2.9767   -0.4331    1.0000 C   0  0  0  0  0  0  0  0  0  0  0  0
    2.0731   -1.4901    0.9993 C   0  0  0  0  0  0  0  0  0  0  0  0
    2.5366   -2.8013    1.0001 C   0  0  0  0  0  0  0  0  0  0  0  0
    3.9037   -3.0555    1.0003 C   0  0  0  0  0  0  0  0  0  0  0  0
    4.8076   -1.9984    1.0000 C   0  0  0  0  0  0  0  0  0  0  0  0
    2.4700    1.0000    1.0000 C   0  0  0  0  0  0  0  0  0  0  0  0
    1.0000    1.0000    1.0000 N   0  0  0  0  0  0  0  0  0  0  0  0
    0.3150    1.0000    2.1865 C   0  0  0  0  0  0  0  0  0  0  0  0
    0.9150    1.0000    3.2257 O   0  0  0  0  0  0  0  0  0  0  0  0
   -1.1353    1.0000    2.1865 C   0  0  0  0  0  0  0  0  0  0  0  0
   -1.8313    2.2054    2.1865 C   0  0  0  0  0  0  0  0  0  0  0  0
   -1.1571    3.4331    2.1870 N   0  0  0  0  0  0  0  0  0  0  0  0
    0.1442    3.5889    2.1876 N   0  0  0  0  0  0  0  0  0  0  0  0
    0.4524    4.8133    2.1904 N   0  0  0  0  0  0  0  0  0  0  0  0
   -0.7025    5.5358    2.1857 C   0  0  0  0  0  0  0  0  0  0  0  0
   -0.8067    6.9841    2.1863 C   0  0  0  0  0  0  0  0  0  0  0  0
   -1.4407    7.7006    1.1703 C   0  0  0  0  0  0  0  0  0  0  0  0
   -1.5019    9.0901    1.2420 C   0  0  0  0  0  0  0  0  0  0  0  0
   -0.9210    9.7205    2.3382 C   0  0  0  0  0  0  0  0  0  0  0  0
   -0.3158    9.0115    3.3028 N   0  0  0  0  0  0  0  0  0  0  0  0
   -0.2441    7.6728    3.2553 C   0  0  0  0  0  0  0  0  0  0  0  0
   -2.1268    9.8368    0.2488 C   0  0  0  0  0  0  0  0  0  0  0  0
   -2.7012    9.1822   -0.8354 C   0  0  0  0  0  0  0  0  0  0  0  0
   -2.6580    7.7965   -0.9371 C   0  0  0  0  0  0  0  0  0  0  0  0
   -2.0261    7.0758    0.0702 C   0  0  0  0  0  0  0  0  0  0  0  0
   -1.7415    4.6608    2.1863 C   0  0  0  0  0  0  0  0  0  0  0  0
   -3.2227    2.2134    2.1861 C   0  0  0  0  0  0  0  0  0  0  0  0
   -3.9102    1.0040    2.1850 C   0  0  0  0  0  0  0  0  0  0  0  0
   -3.2225   -0.2052    2.1846 C   0  0  0  0  0  0  0  0  0  0  0  0
   -1.8312   -0.2053    2.1855 C   0  0  0  0  0  0  0  0  0  0  0  0
   -5.4305    1.0035    2.1847 C   0  0  0  0  0  0  0  0  0  0  0  0
    0.2651    1.0000   -0.2728 C   0  0  0  0  0  0  0  0  0  0  0  0
    0.6052   -0.2293   -1.1033 C   0  0  0  0  0  0  0  0  0  0  0  0
   -0.1524   -0.2522   -2.4231 C   0  0  0  0  0  0  0  0  0  0  0  0
   -0.8472    1.0729   -2.6986 C   0  0  0  0  0  0  0  0  0  0  0  0
   -1.3349    1.0673   -4.0319 O   0  0  0  0  0  0  0  0  0  0  0  0
    0.1744    2.1824   -2.4937 C   0  0  0  0  0  0  0  0  0  0  0  0
    0.6692    2.2410   -1.0564 C   0  0  0  0  0  0  0  0  0  0  0  0
  1  2  1  0
  2  3  2  0
  2  4  1  0
  4  5  2  0
  5  6  1  0
  6  7  2  0
  7  8  1  0
  8  9  2  0
  9  4  1  0
  5 10  1  0
 10 11  1  0
 11 12  1  0
 12 13  2  0
 12 14  1  0
 14 15  1  0
 15 16  1  0
 16 17  1  0
 17 18  2  0
 18 19  1  0
 19 20  1  0
 20 21  2  0
 21 22  1  0
 22 23  2  0
 23 24  1  0
 24 25  2  0
 25 20  1  0
 22 26  1  0
 26 27  2  0
 27 28  1  0
 28 29  2  0
 29 21  1  0
 19 30  2  0
 30 16  1  0
 15 31  2  0
 31 32  1  0
 32 33  2  0
 33 34  1  0
 34 14  2  0
 32 35  1  0
 11 36  1  0
 36 37  1  0
 37 38  1  0
 38 39  1  0
 39 40  1  0
 39 41  1  0
 41 42  1  0
 42 36  1  0
M  CHG  2   1  -1   2   1
M  END
$$$$
m_274972____15150082____12615770____13046584
     RDKit          3D

 34 39  0  0  0  0  0  0  0  0999 V2000
    6.5130    3.7149    5.0702 S   0  0  0  0  0  0  0  0  0  0  0  0
    6.8091    2.1801    4.4004 C   0  0  0  0  0  0  0  0  0  0  0  0
    5.7436    1.8478    3.7063 N   0  0  0  0  0  0  0  0  0  0  0  0
    4.7375    2.7738    3.7107 C   0  0  0  0  0  0  0  0  0  0  0  0
    3.4754    2.6182    3.0268 C   0  0  0  0  0  0  0  0  0  0  0  0
    2.4554    3.5196    3.0165 N   0  0  0  0  0  0  0  0  0  0  0  0
    1.5259    3.0295    2.3157 N   0  0  0  0  0  0  0  0  0  0  0  0
    1.8486    1.8486    1.8486 N   0  0  0  0  0  0  0  0  0  0  0  0
    3.0981    1.5422    2.2834 C   0  0  0  0  0  0  0  0  0  0  0  0
    1.0000    1.0000    1.0000 C   0  0  0  0  0  0  0  0  0  0  0  0
   -0.3223    1.7033    0.7416 C   0  0  0  0  0  0  0  0  0  0  0  0
   -0.4470    2.5387   -0.3634 C   0  0  0  0  0  0  0  0  0  0  0  0
   -1.6549    3.1849   -0.6053 C   0  0  0  0  0  0  0  0  0  0  0  0
   -2.7238    2.9866    0.2626 C   0  0  0  0  0  0  0  0  0  0  0  0
   -3.8821    3.6007    0.0371 F   0  0  0  0  0  0  0  0  0  0  0  0
   -2.6041    2.1528    1.3697 C   0  0  0  0  0  0  0  0  0  0  0  0
   -1.3941    1.5090    1.6062 C   0  0  0  0  0  0  0  0  0  0  0  0
    1.7033    0.7415   -0.3225 C   0  0  0  0  0  0  0  0  0  0  0  0
    1.6496   -0.3453   -0.8283 O   0  0  0  0  0  0  0  0  0  0  0  0
    2.3987    1.7494   -0.9370 N   0  0  0  0  0  0  0  0  0  0  0  0
    3.0781    1.4998   -2.2145 C   0  0  0  0  0  0  0  0  0  0  0  0
    4.5565    1.7406   -2.1103 C   0  0  0  0  0  0  0  0  0  0  0  0
    3.6764    2.7524   -2.7872 C   0  0  0  0  0  0  0  0  0  0  0  0
    4.9505    3.9160    4.4225 C   0  0  0  0  0  0  0  0  0  0  0  0
    8.0221    1.4015    4.5714 C   0  0  0  0  0  0  0  0  0  0  0  0
    8.1771    0.1926    4.0063 N   0  0  0  0  0  0  0  0  0  0  0  0
    9.2959   -0.5354    4.1586 C   0  0  0  0  0  0  0  0  0  0  0  0
   10.3481   -0.0413    4.9251 C   0  0  0  0  0  0  0  0  0  0  0  0
   10.2139    1.2081    5.5217 C   0  0  0  0  0  0  0  0  0  0  0  0
    9.0436    1.9403    5.3473 C   0  0  0  0  0  0  0  0  0  0  0  0
   11.5195   -0.7703    5.1017 C   0  0  0  0  0  0  0  0  0  0  0  0
   11.6340   -2.0177    4.4972 C   0  0  0  0  0  0  0  0  0  0  0  0
   10.5979   -2.5339    3.7264 C   0  0  0  0  0  0  0  0  0  0  0  0
    9.4362   -1.7857    3.5645 C   0  0  0  0  0  0  0  0  0  0  0  0
  1  2  1  0
  2  3  2  0
  3  4  1  0
  4  5  1  0
  5  6  1  0
  6  7  2  0
  7  8  1  0
  8  9  1  0
  5  9  2  0
  8 10  1  0
 10 11  1  0
 11 12  2  0
 12 13  1  0
 13 14  2  0
 14 15  1  0
 14 16  1  0
 16 17  2  0
 17 11  1  0
 10 18  1  0
 18 19  2  0
 18 20  1  0
 20 21  1  0
 21 22  1  0
 22 23  1  0
 23 21  1  0
  4 24  2  0
 24  1  1  0
  2 25  1  0
 25 26  2  0
 26 27  1  0
 27 28  2  0
 28 29  1  0
 29 30  2  0
 30 25  1  0
 28 31  1  0
 31 32  2  0
 32 33  1  0
 33 34  2  0
 34 27  1  0
M  END
$$$$
s_11a____117402____132801
     RDKit          3D

 36 41  0  0  0  0  0  0  0  0999 V2000
   -0.7195    1.4250    3.7826 S   0  0  0  0  0  0  0  0  0  0  0  0
   -0.8336    2.5551    5.0515 C   0  0  0  0  0  0  0  0  0  0  0  0
   -1.3320    2.2946    6.3334 N   0  0  0  0  0  0  0  0  0  0  0  0
   -2.7670    2.4832    6.5982 C   0  0  0  0  0  0  0  0  0  0  0  0
   -3.2670    1.4831    7.6293 C   0  0  0  0  0  0  0  0  0  0  0  0
   -2.3847    1.3969    8.7410 O   0  0  0  0  0  0  0  0  0  0  0  0
   -1.1223    0.8788    8.3425 C   0  0  0  0  0  0  0  0  0  0  0  0
   -0.4128    1.8161    7.3772 C   0  0  0  0  0  0  0  0  0  0  0  0
   -0.3559    3.7438    4.5873 C   0  0  0  0  0  0  0  0  0  0  0  0
   -0.3097    4.9302    5.4202 C   0  0  0  0  0  0  0  0  0  0  0  0
    0.6617    5.0400    6.4098 C   0  0  0  0  0  0  0  0  0  0  0  0
    0.7019    6.1793    7.2070 C   0  0  0  0  0  0  0  0  0  0  0  0
   -0.2241    7.1985    7.0109 C   0  0  0  0  0  0  0  0  0  0  0  0
   -1.1897    7.0781    6.0191 C   0  0  0  0  0  0  0  0  0  0  0  0
   -1.2408    5.9436    5.2157 C   0  0  0  0  0  0  0  0  0  0  0  0
    0.0799    3.6974    3.2378 C   0  0  0  0  0  0  0  0  0  0  0  0
   -0.0478    2.4848    2.6334 C   0  0  0  0  0  0  0  0  0  0  0  0
    0.3150    2.1559    1.2674 C   0  0  0  0  0  0  0  0  0  0  0  0
    0.0150    2.8964    0.3721 O   0  0  0  0  0  0  0  0  0  0  0  0
    1.0000    1.0000    1.0000 N   0  0  0  0  0  0  0  0  0  0  0  0
    2.2719    1.0000    1.0000 C   0  0  0  0  0  0  0  0  0  0  0  0
    3.2906    2.3297    1.3076 S   0  0  0  0  0  0  0  0  0  0  0  0
    4.7778    1.5222    1.1180 C   0  0  0  0  0  0  0  0  0  0  0  0
    4.4376    0.2395    0.8145 C   0  0  0  0  0  0  0  0  0  0  0  0
    3.0974   -0.0507    0.7488 N   0  0  0  0  0  0  0  0  0  0  0  0
    2.5537   -1.3775    0.4376 C   0  0  0  0  0  0  0  0  0  0  0  0
    2.3606   -1.5066   -1.0662 C   0  0  0  0  0  0  0  0  0  0  0  0
    1.1185   -1.7499   -1.6505 C   0  0  0  0  0  0  0  0  0  0  0  0
    0.9876   -1.8598   -3.0320 C   0  0  0  0  0  0  0  0  0  0  0  0
    2.1151   -1.7237   -3.8350 C   0  0  0  0  0  0  0  0  0  0  0  0
    3.3564   -1.4808   -3.2559 C   0  0  0  0  0  0  0  0  0  0  0  0
    3.4843   -1.3718   -1.8749 C   0  0  0  0  0  0  0  0  0  0  0  0
   -0.2467   -2.1046   -3.6261 C   0  0  0  0  0  0  0  0  0  0  0  0
   -1.3715   -2.2413   -2.8203 C   0  0  0  0  0  0  0  0  0  0  0  0
   -1.2746   -2.1353   -1.4368 C   0  0  0  0  0  0  0  0  0  0  0  0
   -0.0272   -1.8901   -0.8730 C   0  0  0  0  0  0  0  0  0  0  0  0
  1  2  1  0
  2  3  1  0
  3  4  1  0
  4  5  1  0
  5  6  1  0
  6  7  1  0
  7  8  1  0
  8  3  1  0
  2  9  2  0
  9 10  1  0
 10 11  2  0
 11 12  1  0
 12 13  2  0
 13 14  1  0
 14 15  2  0
 15 10  1  0
  9 16  1  0
 16 17  2  0
 17  1  1  0
 17 18  1  0
 18 19  2  0
 18 20  1  0
 20 21  2  0
 21 22  1  0
 22 23  1  0
 23 24  2  0
 24 25  1  0
 25 21  1  0
 25 26  1  0
 26 27  1  0
 27 28  2  0
 28 29  1  0
 29 30  2  0
 30 31  1  0
 31 32  2  0
 32 27  1  0
 29 33  1  0
 33 34  2  0
 34 35  1  0
 35 36  2  0
 36 28  1  0
M  END
$$$$
s_1458____9786070____1011832
     RDKit          3D

 36 40  0  0  0  0  0  0  0  0999 V2000
   -0.8016    3.5322   -2.3280 S   0  0  0  0  0  0  0  0  0  0  0  0
   -1.2655    3.5631   -3.9654 C   0  0  0  0  0  0  0  0  0  0  0  0
   -1.1767    2.3408   -4.4313 N   0  0  0  0  0  0  0  0  0  0  0  0
   -0.7444    1.4028   -3.5319 C   0  0  0  0  0  0  0  0  0  0  0  0
   -0.5724    0.0006   -3.8596 C   0  0  0  0  0  0  0  0  0  0  0  0
    0.6811   -0.5886   -3.7306 C   0  0  0  0  0  0  0  0  0  0  0  0
    0.8418   -1.9337   -4.0468 C   0  0  0  0  0  0  0  0  0  0  0  0
   -0.2466   -2.6795   -4.4871 C   0  0  0  0  0  0  0  0  0  0  0  0
   -1.4941   -2.0806   -4.6117 C   0  0  0  0  0  0  0  0  0  0  0  0
   -1.6676   -0.7363   -4.2992 C   0  0  0  0  0  0  0  0  0  0  0  0
   -0.4770    1.8621   -2.2807 C   0  0  0  0  0  0  0  0  0  0  0  0
   -0.0169    1.0991   -1.1328 C   0  0  0  0  0  0  0  0  0  0  0  0
   -0.3181   -0.0571   -1.0211 O   0  0  0  0  0  0  0  0  0  0  0  0
    0.7267    1.6734   -0.2199 O   0  0  0  0  0  0  0  0  0  0  0  0
    1.0000    1.0000    1.0000 C   0  0  0  0  0  0  0  0  0  0  0  0
    1.8776    1.8776    1.8776 C   0  0  0  0  0  0  0  0  0  0  0  0
    2.2240    2.9588    1.4891 O   0  0  0  0  0  0  0  0  0  0  0  0
    2.2731    1.4341    3.1120 N   0  0  0  0  0  0  0  0  0  0  0  0
    1.8487    0.1096    3.5878 C   0  0  0  0  0  0  0  0  0  0  0  0
    3.0736   -0.7484    3.8567 C   0  0  0  0  0  0  0  0  0  0  0  0
    4.0728   -0.9316    3.0302 O   0  0  0  0  0  0  0  0  0  0  0  0
    4.9747   -1.7342    3.5605 C   0  0  0  0  0  0  0  0  0  0  0  0
    4.5632   -2.1057    4.8137 C   0  0  0  0  0  0  0  0  0  0  0  0
    5.3673   -2.9435    5.5860 C   0  0  0  0  0  0  0  0  0  0  0  0
    6.5831   -3.4202    5.1041 C   0  0  0  0  0  0  0  0  0  0  0  0
    6.9948   -3.0459    3.8296 C   0  0  0  0  0  0  0  0  0  0  0  0
    6.1880   -2.2061    3.0697 C   0  0  0  0  0  0  0  0  0  0  0  0
    3.3204   -1.4562    4.9968 C   0  0  0  0  0  0  0  0  0  0  0  0
    1.0474    0.2646    4.8701 C   0  0  0  0  0  0  0  0  0  0  0  0
    3.1218    2.2828    3.9607 C   0  0  0  0  0  0  0  0  0  0  0  0
   -1.6689    4.7058   -4.6656 N   0  0  0  0  0  0  0  0  0  0  0  0
   -1.1403    6.0186   -4.2632 C   0  0  0  0  0  0  0  0  0  0  0  0
   -0.9896    6.9373   -5.4659 C   0  0  0  0  0  0  0  0  0  0  0  0
   -2.1448    6.9038   -6.2942 O   0  0  0  0  0  0  0  0  0  0  0  0
   -2.3168    5.6136   -6.8658 C   0  0  0  0  0  0  0  0  0  0  0  0
   -2.5927    4.5628   -5.8011 C   0  0  0  0  0  0  0  0  0  0  0  0
  1  2  1  0
  2  3  2  0
  3  4  1  0
  4  5  1  0
  5  6  2  0
  6  7  1  0
  7  8  2  0
  8  9  1  0
  9 10  2  0
 10  5  1  0
  4 11  2  0
 11  1  1  0
 11 12  1  0
 12 13  2  0
 12 14  1  0
 14 15  1  0
 15 16  1  0
 16 17  2  0
 16 18  1  0
 18 19  1  0
 19 20  1  0
 20 21  1  0
 21 22  1  0
 22 23  2  0
 23 24  1  0
 24 25  2  0
 25 26  1  0
 26 27  2  0
 27 22  1  0
 23 28  1  0
 20 28  2  0
 19 29  1  0
 18 30  1  0
  2 31  1  0
 31 32  1  0
 32 33  1  0
 33 34  1  0
 34 35  1  0
 35 36  1  0
 36 31  1  0
M  END
$$$$
m_274972____12934192____12615770____13047270
     RDKit          3D

 30 33  0  0  0  0  0  0  0  0999 V2000
    1.5662   -7.9784    2.2730 S   0  0  0  0  0  0  0  0  0  0  0  0
    2.4864   -8.8770    2.9205 O   0  0  0  0  0  0  0  0  0  0  0  0
    0.3033   -8.0042    2.9644 O   0  0  0  0  0  0  0  0  0  0  0  0
    1.3486   -8.4450    0.7264 N   0  0  0  0  0  0  0  0  0  0  0  0
    0.8025   -9.8095    0.6985 C   0  0  0  0  0  0  0  0  0  0  0  0
    2.2386   -6.2983    2.3073 C   0  0  0  0  0  0  0  0  0  0  0  0
    1.3722   -5.2109    2.3429 C   0  0  0  0  0  0  0  0  0  0  0  0
    1.8997   -3.9241    2.3693 C   0  0  0  0  0  0  0  0  0  0  0  0
    3.2783   -3.7368    2.3590 C   0  0  0  0  0  0  0  0  0  0  0  0
    4.1410   -4.8276    2.3234 C   0  0  0  0  0  0  0  0  0  0  0  0
    3.6178   -6.1163    2.2972 C   0  0  0  0  0  0  0  0  0  0  0  0
    3.8152   -2.3901    2.3857 C   0  0  0  0  0  0  0  0  0  0  0  0
    5.4654   -1.9799    2.3778 S   0  0  0  0  0  0  0  0  0  0  0  0
    5.2502   -0.2907    2.4182 C   0  0  0  0  0  0  0  0  0  0  0  0
    3.8973   -0.1294    2.4325 C   0  0  0  0  0  0  0  0  0  0  0  0
    3.1361   -1.2652    2.4150 N   0  0  0  0  0  0  0  0  0  0  0  0
    3.3679    1.2133    2.4745 C   0  0  0  0  0  0  0  0  0  0  0  0
    4.0997    2.3609    2.4928 N   0  0  0  0  0  0  0  0  0  0  0  0
    3.2864    3.3264    2.5304 N   0  0  0  0  0  0  0  0  0  0  0  0
    2.0449    2.9079    2.5406 N   0  0  0  0  0  0  0  0  0  0  0  0
    2.0495    1.5504    2.5067 C   0  0  0  0  0  0  0  0  0  0  0  0
    0.8508    3.7642    2.5836 C   0  0  0  0  0  0  0  0  0  0  0  0
    0.4147    4.0971    1.1661 C   0  0  0  0  0  0  0  0  0  0  0  0
   -0.8214    4.9834    1.2106 C   0  0  0  0  0  0  0  0  0  0  0  0
   -0.7484    6.3251    1.2448 N   0  0  0  0  0  0  0  0  0  0  0  0
   -1.8369    7.1110    1.2836 C   0  0  0  0  0  0  0  0  0  0  0  0
   -3.0823    6.4894    1.2893 C   0  0  0  0  0  0  0  0  0  0  0  0
   -3.1809    5.1524    1.2557 N   0  0  0  0  0  0  0  0  0  0  0  0
   -2.0790    4.3890    1.2169 C   0  0  0  0  0  0  0  0  0  0  0  0
   -1.7408    8.6275    1.3222 C   0  0  0  0  0  0  0  0  0  0  0  0
  1  2  2  0
  1  3  2  0
  1  4  1  0
  4  5  1  0
  1  6  1  0
  6  7  2  0
  7  8  1  0
  8  9  2  0
  9 10  1  0
 10 11  2  0
 11  6  1  0
  9 12  1  0
 12 13  1  0
 13 14  1  0
 14 15  2  0
 15 16  1  0
 12 16  2  0
 15 17  1  0
 17 18  1  0
 18 19  2  0
 19 20  1  0
 20 21  1  0
 17 21  2  0
 20 22  1  0
 22 23  1  0
 23 24  1  0
 24 25  2  0
 25 26  1  0
 26 27  2  0
 27 28  1  0
 28 29  2  0
 29 24  1  0
 26 30  1  0
M  END
$$$$
m_276010a____17282320____17275830____17280668
     RDKit          3D

 39 44  0  0  0  0  0  0  0  0999 V2000
   -2.0219   -1.4290    4.5511 S   0  0  0  0  0  0  0  0  0  0  0  0
   -1.9267   -3.1088    4.8147 C   0  0  0  0  0  0  0  0  0  0  0  0
   -2.6143   -3.8196    5.8072 N   0  0  0  0  0  0  0  0  0  0  0  0
   -4.0788   -3.7034    5.8809 C   0  0  0  0  0  0  0  0  0  0  0  0
   -4.5613   -3.8141    7.3190 C   0  0  0  0  0  0  0  0  0  0  0  0
   -3.9507   -4.9108    7.9858 O   0  0  0  0  0  0  0  0  0  0  0  0
   -2.5569   -4.6688    8.1214 C   0  0  0  0  0  0  0  0  0  0  0  0
   -1.8649   -4.6445    6.7672 C   0  0  0  0  0  0  0  0  0  0  0  0
   -1.0657   -3.6215    3.8914 C   0  0  0  0  0  0  0  0  0  0  0  0
   -0.7547   -5.0370    3.8350 C   0  0  0  0  0  0  0  0  0  0  0  0
    0.5728   -5.4493    3.7830 C   0  0  0  0  0  0  0  0  0  0  0  0
    0.8666   -6.8079    3.7281 C   0  0  0  0  0  0  0  0  0  0  0  0
   -0.1633   -7.7428    3.7269 C   0  0  0  0  0  0  0  0  0  0  0  0
   -1.4856   -7.3193    3.7797 C   0  0  0  0  0  0  0  0  0  0  0  0
   -1.7925   -5.9636    3.8342 C   0  0  0  0  0  0  0  0  0  0  0  0
   -0.5210   -2.6481    3.0146 C   0  0  0  0  0  0  0  0  0  0  0  0
   -0.9439   -1.3736    3.2356 C   0  0  0  0  0  0  0  0  0  0  0  0
   -0.5495   -0.1898    2.4951 C   0  0  0  0  0  0  0  0  0  0  0  0
   -1.2303    0.7975    2.5350 O   0  0  0  0  0  0  0  0  0  0  0  0
    0.6003   -0.1993    1.7502 N   0  0  0  0  0  0  0  0  0  0  0  0
    1.0000    1.0000    1.0000 C   0  0  0  0  0  0  0  0  0  0  0  0
    1.8772    1.8772    1.8772 C   0  0  0  0  0  0  0  0  0  0  0  0
    3.2349    1.8118    1.9726 N   0  0  0  0  0  0  0  0  0  0  0  0
    3.6039    2.6924    2.7998 N   0  0  0  0  0  0  0  0  0  0  0  0
    2.5769    3.3544    3.2731 N   0  0  0  0  0  0  0  0  0  0  0  0
    1.4436    2.8630    2.7064 C   0  0  0  0  0  0  0  0  0  0  0  0
    2.6397    4.4460    4.2558 C   0  0  0  0  0  0  0  0  0  0  0  0
    2.7840    5.7740    3.5295 C   0  0  0  0  0  0  0  0  0  0  0  0
    4.0552    6.1845    3.0452 C   0  0  0  0  0  0  0  0  0  0  0  0
    5.0189    5.4563    3.2235 O   0  0  0  0  0  0  0  0  0  0  0  0
    4.1772    7.3838    2.3910 N   0  0  0  0  0  0  0  0  0  0  0  0
    3.0827    8.1940    2.1979 C   0  0  0  0  0  0  0  0  0  0  0  0
    1.8268    7.8131    2.6626 C   0  0  0  0  0  0  0  0  0  0  0  0
    0.7011    8.6100    2.4840 C   0  0  0  0  0  0  0  0  0  0  0  0
    0.8377    9.8240    1.8192 C   0  0  0  0  0  0  0  0  0  0  0  0
    2.0750   10.2403    1.3396 C   0  0  0  0  0  0  0  0  0  0  0  0
    3.1779    9.4169    1.5374 C   0  0  0  0  0  0  0  0  0  0  0  0
    1.6879    6.5746    3.3421 C   0  0  0  0  0  0  0  0  0  0  0  0
    5.5182    7.7579    1.9108 C   0  0  0  0  0  0  0  0  0  0  0  0
  1  2  1  0
  2  3  1  0
  3  4  1  0
  4  5  1  0
  5  6  1  0
  6  7  1  0
  7  8  1  0
  8  3  1  0
  2  9  2  0
  9 10  1  0
 10 11  2  0
 11 12  1  0
 12 13  2  0
 13 14  1  0
 14 15  2  0
 15 10  1  0
  9 16  1  0
 16 17  2  0
 17  1  1  0
 17 18  1  0
 18 19  2  0
 18 20  1  0
 20 21  1  0
 21 22  1  0
 22 23  1  0
 23 24  2  0
 24 25  1  0
 25 26  1  0
 22 26  2  0
 25 27  1  0
 27 28  1  0
 28 29  1  0
 29 30  2  0
 29 31  1  0
 31 32  1  0
 32 33  2  0
 33 34  1  0
 34 35  2  0
 35 36  1  0
 36 37  2  0
 37 32  1  0
 33 38  1  0
 28 38  2  0
 31 39  1  0
M  END
$$$$
m_274860a____17127486____17212876____15233762
     RDKit          3D

 39 43  0  0  0  0  0  0  0  0999 V2000
    8.9662   -0.2109    0.9987 S   0  0  0  0  0  0  0  0  0  0  0  0
    9.4479    0.9645    1.6770 O   0  0  0  0  0  0  0  0  0  0  0  0
    9.4451   -1.3870    1.6777 O   0  0  0  0  0  0  0  0  0  0  0  0
    9.5089   -0.2120   -0.5383 N   0  0  0  0  0  0  0  0  0  0  0  0
    9.3521    0.9290   -1.3379 C   0  0  0  0  0  0  0  0  0  0  0  0
    9.8645    1.0854   -2.9551 S   0  0  0  0  0  0  0  0  0  0  0  0
    9.3129    2.6840   -3.1517 C   0  0  0  0  0  0  0  0  0  0  0  0
    8.7793    3.0024   -1.9975 N   0  0  0  0  0  0  0  0  0  0  0  0
    8.8032    2.0822   -1.0399 N   0  0  0  0  0  0  0  0  0  0  0  0
    7.2266   -0.2088    0.9994 C   0  0  0  0  0  0  0  0  0  0  0  0
    6.5367   -1.4166    1.0001 C   0  0  0  0  0  0  0  0  0  0  0  0
    5.1460   -1.4085    1.0000 C   0  0  0  0  0  0  0  0  0  0  0  0
    4.4617   -0.1977    1.0000 C   0  0  0  0  0  0  0  0  0  0  0  0
    3.0615   -0.1977    1.0000 N   0  0  0  0  0  0  0  0  0  0  0  0
    2.3700    1.0000    1.0000 N   0  0  0  0  0  0  0  0  0  0  0  0
    1.0000    1.0000    1.0000 C   0  0  0  0  0  0  0  0  0  0  0  0
    0.4000   -0.0392    1.0000 O   0  0  0  0  0  0  0  0  0  0  0  0
    0.2400    2.3164    1.0000 C   0  0  0  0  0  0  0  0  0  0  0  0
   -1.2051    2.0478    1.0000 N   0  0  0  0  0  0  0  0  0  0  0  0
   -1.8602    1.3851    0.0789 N   0  0  0  0  0  0  0  0  0  0  0  0
   -3.0918    1.3127    0.3489 N   0  0  0  0  0  0  0  0  0  0  0  0
   -3.2893    1.9676    1.5257 C   0  0  0  0  0  0  0  0  0  0  0  0
   -4.5605    2.1295    2.2086 C   0  0  0  0  0  0  0  0  0  0  0  0
   -4.7959    1.6525    3.4989 C   0  0  0  0  0  0  0  0  0  0  0  0
   -6.0422    1.8478    4.0889 C   0  0  0  0  0  0  0  0  0  0  0  0
   -7.0191    2.5199    3.3605 C   0  0  0  0  0  0  0  0  0  0  0  0
   -6.7708    2.9689    2.1210 N   0  0  0  0  0  0  0  0  0  0  0  0
   -5.5786    2.7924    1.5321 C   0  0  0  0  0  0  0  0  0  0  0  0
   -6.3123    1.3877    5.3733 C   0  0  0  0  0  0  0  0  0  0  0  0
   -5.3180    0.7206    6.0807 C   0  0  0  0  0  0  0  0  0  0  0  0
   -4.0632    0.5095    5.5210 C   0  0  0  0  0  0  0  0  0  0  0  0
   -3.8217    0.9799    4.2349 C   0  0  0  0  0  0  0  0  0  0  0  0
   -2.0875    2.4417    1.9542 C   0  0  0  0  0  0  0  0  0  0  0  0
    0.6072    3.1134   -0.2411 C   0  0  0  0  0  0  0  0  0  0  0  0
   -0.1028    4.3432   -0.2411 O   0  0  0  0  0  0  0  0  0  0  0  0
    0.2402    5.0878   -1.4005 C   0  0  0  0  0  0  0  0  0  0  0  0
   -0.5198    6.4041   -1.4005 C   0  0  0  0  0  0  0  0  0  0  0  0
    5.1574    1.0061    0.9991 C   0  0  0  0  0  0  0  0  0  0  0  0
    6.5481    1.0052    0.9989 C   0  0  0  0  0  0  0  0  0  0  0  0
  1  2  2  0
  1  3  2  0
  1  4  1  0
  4  5  1  0
  5  6  1  0
  6  7  1  0
  7  8  2  0
  8  9  1  0
  5  9  2  0
  1 10  1  0
 10 11  2  0
 11 12  1  0
 12 13  2  0
 13 14  1  0
 14 15  1  0
 15 16  1  0
 16 17  2  0
 16 18  1  0
 18 19  1  0
 19 20  1  0
 20 21  2  0
 21 22  1  0
 22 23  1  0
 23 24  2  0
 24 25  1  0
 25 26  2  0
 26 27  1  0
 27 28  2  0
 28 23  1  0
 25 29  1  0
 29 30  2  0
 30 31  1  0
 31 32  2  0
 32 24  1  0
 22 33  2  0
 33 19  1  0
 18 34  1  0
 34 35  1  0
 35 36  1  0
 36 37  1  0
 13 38  1  0
 38 39  2  0
 39 10  1  0
M  END
$$$$
s_60____90638____17632246
     RDKit          3D

 45 51  0  0  0  0  0  0  0  0999 V2000
   -3.2683   -3.6510    1.0414 S   0  0  0  0  0  0  0  0  0  0  0  0
   -4.6688   -3.5290    1.3534 O   0  0  0  0  0  0  0  0  0  0  0  0
   -3.0819   -3.5372   -0.3820 O   0  0  0  0  0  0  0  0  0  0  0  0
   -2.6796   -5.2188    1.5870 N   0  0  0  0  0  0  0  0  0  0  0  0
   -1.2500   -5.3990    1.2933 C   0  0  0  0  0  0  0  0  0  0  0  0
   -0.7749   -6.7621    1.7708 C   0  0  0  0  0  0  0  0  0  0  0  0
   -1.0246   -6.9114    3.1612 O   0  0  0  0  0  0  0  0  0  0  0  0
   -2.4000   -6.7593    3.4815 C   0  0  0  0  0  0  0  0  0  0  0  0
   -2.8980   -5.3953    3.0306 C   0  0  0  0  0  0  0  0  0  0  0  0
   -2.3832   -2.3880    1.8447 C   0  0  0  0  0  0  0  0  0  0  0  0
   -1.2180   -1.8903    1.2742 C   0  0  0  0  0  0  0  0  0  0  0  0
   -0.5030   -0.8791    1.9048 C   0  0  0  0  0  0  0  0  0  0  0  0
    0.6503   -0.2440    1.5442 N   0  0  0  0  0  0  0  0  0  0  0  0
    0.9271    0.6386    2.4756 C   0  0  0  0  0  0  0  0  0  0  0  0
   -0.0346    0.5837    3.4377 N   0  0  0  0  0  0  0  0  0  0  0  0
   -0.9503   -0.3704    3.0986 C   0  0  0  0  0  0  0  0  0  0  0  0
   -2.1155   -0.8692    3.6720 C   0  0  0  0  0  0  0  0  0  0  0  0
   -2.8431   -1.8798    3.0542 C   0  0  0  0  0  0  0  0  0  0  0  0
   -0.0747    1.4203    4.6477 C   0  0  0  0  0  0  0  0  0  0  0  0
    0.6757    0.7238    5.7701 C   0  0  0  0  0  0  0  0  0  0  0  0
    0.0841   -0.5284    6.0565 O   0  0  0  0  0  0  0  0  0  0  0  0
    0.5510   -0.8977    7.3471 C   0  0  0  0  0  0  0  0  0  0  0  0
    0.8593    0.3976    8.0721 C   0  0  0  0  0  0  0  0  0  0  0  0
    0.4945    1.4752    7.0694 C   0  0  0  0  0  0  0  0  0  0  0  0
    2.0728    1.5269    2.4793 C   0  0  0  0  0  0  0  0  0  0  0  0
    2.0374    2.9341    2.4895 C   0  0  0  0  0  0  0  0  0  0  0  0
    3.2849    3.3409    2.4887 N   0  0  0  0  0  0  0  0  0  0  0  0
    4.1018    2.3121    2.4818 N   0  0  0  0  0  0  0  0  0  0  0  0
    3.3827    1.1547    2.4737 C   0  0  0  0  0  0  0  0  0  0  0  0
    5.5705    2.3895    2.4785 C   0  0  0  0  0  0  0  0  0  0  0  0
    6.1172    1.6947    3.7150 C   0  0  0  0  0  0  0  0  0  0  0  0
    6.1112    1.7066    1.2329 C   0  0  0  0  0  0  0  0  0  0  0  0
    6.0010    3.8473    2.4845 C   0  0  0  0  0  0  0  0  0  0  0  0
    0.7993    3.8178    2.4966 C   0  0  0  0  0  0  0  0  0  0  0  0
    1.2059    5.2313    2.5065 N   0  0  0  0  0  0  0  0  0  0  0  0
    1.4279    6.0137    1.3743 C   0  0  0  0  0  0  0  0  0  0  0  0
    1.3115    5.6421    0.2190 O   0  0  0  0  0  0  0  0  0  0  0  0
    1.8075    7.3325    1.8217 C   0  0  0  0  0  0  0  0  0  0  0  0
    1.8120    7.3116    3.1919 C   0  0  0  0  0  0  0  0  0  0  0  0
    2.1513    8.5015    3.8304 C   0  0  0  0  0  0  0  0  0  0  0  0
    2.4692    9.6455    3.1059 C   0  0  0  0  0  0  0  0  0  0  0  0
    2.4557    9.6295    1.7148 C   0  0  0  0  0  0  0  0  0  0  0  0
    2.1168    8.4521    1.0573 C   0  0  0  0  0  0  0  0  0  0  0  0
    1.4295    5.9947    3.6495 C   0  0  0  0  0  0  0  0  0  0  0  0
    1.3150    5.6233    4.8043 O   0  0  0  0  0  0  0  0  0  0  0  0
  1  2  2  0
  1  3  2  0
  1  4  1  0
  4  5  1  0
  5  6  1  0
  6  7  1  0
  7  8  1  0
  8  9  1  0
  9  4  1  0
  1 10  1  0
 10 11  2  0
 11 12  1  0
 12 13  1  0
 13 14  2  0
 14 15  1  0
 15 16  1  0
 16 12  2  0
 16 17  1  0
 17 18  2  0
 18 10  1  0
 15 19  1  0
 19 20  1  0
 20 21  1  0
 21 22  1  0
 22 23  1  0
 23 24  1  0
 24 20  1  0
 14 25  1  0
 25 26  1  0
 26 27  2  0
 27 28  1  0
 28 29  1  0
 25 29  2  0
 28 30  1  0
 30 31  1  0
 30 32  1  0
 30 33  1  0
 26 34  1  0
 34 35  1  0
 35 36  1  0
 36 37  2  0
 36 38  1  0
 38 39  2  0
 39 40  1  0
 40 41  2  0
 41 42  1  0
 42 43  2  0
 43 38  1  0
 39 44  1  0
 44 35  1  0
 44 45  2  0
M  END
$$$$
m_274972____12934494____12615770____13047176
     RDKit          3D

 36 40  0  0  0  0  0  0  0  0999 V2000
   -0.8240    2.8664    2.5379 S   0  0  0  0  0  0  0  0  0  0  0  0
    0.7163    3.5868    2.5255 C   0  0  0  0  0  0  0  0  0  0  0  0
    0.5357    4.8886    2.5375 N   0  0  0  0  0  0  0  0  0  0  0  0
   -0.7707    5.2920    2.5538 C   0  0  0  0  0  0  0  0  0  0  0  0
   -1.2065    6.6745    2.5596 C   0  0  0  0  0  0  0  0  0  0  0  0
   -2.4976    7.1056    2.5757 N   0  0  0  0  0  0  0  0  0  0  0  0
   -2.4738    8.3684    2.5749 N   0  0  0  0  0  0  0  0  0  0  0  0
   -1.2459    8.8251    2.5576 N   0  0  0  0  0  0  0  0  0  0  0  0
   -0.3947    7.7670    2.5460 C   0  0  0  0  0  0  0  0  0  0  0  0
   -0.8574   10.2429    2.5498 C   0  0  0  0  0  0  0  0  0  0  0  0
   -0.7043   10.7342    3.9806 C   0  0  0  0  0  0  0  0  0  0  0  0
    0.5540   10.6386    4.6338 C   0  0  0  0  0  0  0  0  0  0  0  0
    1.4829   10.1661    4.0388 O   0  0  0  0  0  0  0  0  0  0  0  0
    0.6842   11.0841    5.9244 N   0  0  0  0  0  0  0  0  0  0  0  0
   -0.3896   11.6230    6.5939 C   0  0  0  0  0  0  0  0  0  0  0  0
   -1.6322   11.7279    5.9748 C   0  0  0  0  0  0  0  0  0  0  0  0
   -2.7372   12.2671    6.6248 C   0  0  0  0  0  0  0  0  0  0  0  0
   -2.5926   12.7152    7.9335 C   0  0  0  0  0  0  0  0  0  0  0  0
   -1.3679   12.6282    8.5869 C   0  0  0  0  0  0  0  0  0  0  0  0
   -0.2859   12.0828    7.9049 C   0  0  0  0  0  0  0  0  0  0  0  0
   -1.7798   11.2694    4.6396 C   0  0  0  0  0  0  0  0  0  0  0  0
    2.0087   10.9604    6.5500 C   0  0  0  0  0  0  0  0  0  0  0  0
   -1.7203    4.3148    2.5553 C   0  0  0  0  0  0  0  0  0  0  0  0
    1.9827    2.8773    2.5101 C   0  0  0  0  0  0  0  0  0  0  0  0
    3.1719    3.5991    2.5011 C   0  0  0  0  0  0  0  0  0  0  0  0
    4.3787    2.9077    2.4882 C   0  0  0  0  0  0  0  0  0  0  0  0
    4.4079    1.5169    2.4834 C   0  0  0  0  0  0  0  0  0  0  0  0
    3.2061    0.8170    2.4926 C   0  0  0  0  0  0  0  0  0  0  0  0
    1.9872    1.4865    2.5060 C   0  0  0  0  0  0  0  0  0  0  0  0
    5.6828    3.6885    2.4781 C   0  0  0  0  0  0  0  0  0  0  0  0
    5.6637    4.8884    2.4814 O   0  0  0  0  0  0  0  0  0  0  0  0
    6.8275    3.0517    2.4660 O   0  0  0  0  0  0  0  0  0  0  0  0
    8.0457    3.7811    2.4565 C   0  0  0  0  0  0  0  0  0  0  0  0
    8.4937    4.0378    3.8862 C   0  0  0  0  0  0  0  0  0  0  0  0
    9.1113    2.9785    1.7281 C   0  0  0  0  0  0  0  0  0  0  0  0
    7.8363    5.1080    1.7453 C   0  0  0  0  0  0  0  0  0  0  0  0
  1  2  1  0
  2  3  2  0
  3  4  1  0
  4  5  1  0
  5  6  1  0
  6  7  2  0
  7  8  1  0
  8  9  1  0
  5  9  2  0
  8 10  1  0
 10 11  1  0
 11 12  1  0
 12 13  2  0
 12 14  1  0
 14 15  1  0
 15 16  2  0
 16 17  1  0
 17 18  2  0
 18 19  1  0
 19 20  2  0
 20 15  1  0
 16 21  1  0
 11 21  2  0
 14 22  1  0
  4 23  2  0
 23  1  1  0
  2 24  1  0
 24 25  2  0
 25 26  1  0
 26 27  2  0
 27 28  1  0
 28 29  2  0
 29 24  1  0
 26 30  1  0
 30 31  2  0
 30 32  1  0
 32 33  1  0
 33 34  1  0
 33 35  1  0
 33 36  1  0
M  END
$$$$
s_1458____474646____9746902
     RDKit          3D

 35 38  0  0  0  0  0  0  0  0999 V2000
    4.7300    0.2308    0.9865 S   0  0  0  0  0  0  0  0  0  0  0  0
    4.5152    1.9191    1.0044 C   0  0  0  0  0  0  0  0  0  0  0  0
    3.2222    2.1253    1.0057 N   0  0  0  0  0  0  0  0  0  0  0  0
    2.4416    1.0000    1.0000 C   0  0  0  0  0  0  0  0  0  0  0  0
    1.0000    1.0000    1.0000 C   0  0  0  0  0  0  0  0  0  0  0  0
    0.3500    2.1258    1.0057 C   0  0  0  0  0  0  0  0  0  0  0  0
   -1.1700    2.1258    1.0057 C   0  0  0  0  0  0  0  0  0  0  0  0
   -1.7700    1.0866    1.0004 O   0  0  0  0  0  0  0  0  0  0  0  0
   -1.8250    3.2603    1.0115 O   0  0  0  0  0  0  0  0  0  0  0  0
   -3.2450    3.2603    1.0115 C   0  0  0  0  0  0  0  0  0  0  0  0
   -3.7517    4.6934    1.0188 C   0  0  0  0  0  0  0  0  0  0  0  0
   -3.9926    5.3809   -0.1671 C   0  0  0  0  0  0  0  0  0  0  0  0
   -4.4405    6.6456   -0.1338 N   0  0  0  0  0  0  0  0  0  0  0  0
   -4.6704    7.2857    1.0237 C   0  0  0  0  0  0  0  0  0  0  0  0
   -4.4441    6.6403    2.2371 C   0  0  0  0  0  0  0  0  0  0  0  0
   -3.9798    5.3291    2.2343 C   0  0  0  0  0  0  0  0  0  0  0  0
   -4.6729    7.2749    3.4534 C   0  0  0  0  0  0  0  0  0  0  0  0
   -5.1387    8.5860    3.4569 C   0  0  0  0  0  0  0  0  0  0  0  0
   -5.3709    9.2465    2.2541 C   0  0  0  0  0  0  0  0  0  0  0  0
   -5.1363    8.5956    1.0474 C   0  0  0  0  0  0  0  0  0  0  0  0
    3.0817   -0.1980    0.9891 C   0  0  0  0  0  0  0  0  0  0  0  0
    5.5282    2.8829    1.0074 N   0  0  0  0  0  0  0  0  0  0  0  0
    6.8707    2.4873    0.9950 C   0  0  0  0  0  0  0  0  0  0  0  0
    7.5210    2.3052   -0.2210 C   0  0  0  0  0  0  0  0  0  0  0  0
    8.8550    1.9117   -0.2206 C   0  0  0  0  0  0  0  0  0  0  0  0
    9.5377    1.7004    0.9725 C   0  0  0  0  0  0  0  0  0  0  0  0
    8.8666    1.8891    2.1766 C   0  0  0  0  0  0  0  0  0  0  0  0
    7.5330    2.2823    2.2004 C   0  0  0  0  0  0  0  0  0  0  0  0
    9.5711    1.7107   -1.5464 C   0  0  0  0  0  0  0  0  0  0  0  0
   10.1347    2.8548   -1.9238 F   0  0  0  0  0  0  0  0  0  0  0  0
   10.5099    0.7791   -1.4064 F   0  0  0  0  0  0  0  0  0  0  0  0
    8.6953    1.3224   -2.4689 F   0  0  0  0  0  0  0  0  0  0  0  0
    5.2066    4.2146    1.0224 C   0  0  0  0  0  0  0  0  0  0  0  0
    4.0556    4.5538    1.0330 O   0  0  0  0  0  0  0  0  0  0  0  0
    6.3078    5.2624    1.0257 C   0  0  0  0  0  0  0  0  0  0  0  0
  1  2  1  0
  2  3  2  0
  3  4  1  0
  4  5  1  0
  5  6  2  0
  6  7  1  0
  7  8  2  0
  7  9  1  0
  9 10  1  0
 10 11  1  0
 11 12  2  0
 12 13  1  0
 13 14  2  0
 14 15  1  0
 15 16  2  0
 16 11  1  0
 15 17  1  0
 17 18  2  0
 18 19  1  0
 19 20  2  0
 20 14  1  0
  4 21  2  0
 21  1  1  0
  2 22  1  0
 22 23  1  0
 23 24  2  0
 24 25  1  0
 25 26  2  0
 26 27  1  0
 27 28  2  0
 28 23  1  0
 25 29  1  0
 29 30  1  0
 29 31  1  0
 29 32  1  0
 22 33  1  0
 33 34  2  0
 33 35  1  0
M  END
$$$$
m_276010a____17281972____17271714____17280982
     RDKit          3D

 38 42  0  0  0  0  0  0  0  0999 V2000
    5.1271   -3.4784   -0.6238 F   0  0  0  0  0  0  0  0  0  0  0  0
    4.4613   -2.3962   -0.2307 C   0  0  0  0  0  0  0  0  0  0  0  0
    3.5919   -1.7577   -1.1085 C   0  0  0  0  0  0  0  0  0  0  0  0
    2.8907   -0.6254   -0.7056 C   0  0  0  0  0  0  0  0  0  0  0  0
    3.0701   -0.1394    0.5853 C   0  0  0  0  0  0  0  0  0  0  0  0
    2.3700    1.0000    1.0000 N   0  0  0  0  0  0  0  0  0  0  0  0
    1.0000    1.0000    1.0000 C   0  0  0  0  0  0  0  0  0  0  0  0
    0.4000   -0.0392    1.0000 O   0  0  0  0  0  0  0  0  0  0  0  0
    0.2400    2.3164    1.0000 C   0  0  0  0  0  0  0  0  0  0  0  0
   -1.2052    2.0477    1.0000 N   0  0  0  0  0  0  0  0  0  0  0  0
   -1.9871    2.5058    2.0275 C   0  0  0  0  0  0  0  0  0  0  0  0
   -1.4922    3.1263    2.9275 O   0  0  0  0  0  0  0  0  0  0  0  0
   -3.4815    2.2281    2.0275 C   0  0  0  0  0  0  0  0  0  0  0  0
    0.6072    3.1134   -0.2411 C   0  0  0  0  0  0  0  0  0  0  0  0
   -0.1028    4.3432   -0.2411 O   0  0  0  0  0  0  0  0  0  0  0  0
    0.2402    5.0878   -1.4005 C   0  0  0  0  0  0  0  0  0  0  0  0
    3.9375   -0.7719    1.4702 C   0  0  0  0  0  0  0  0  0  0  0  0
    4.6340   -1.9037    1.0589 C   0  0  0  0  0  0  0  0  0  0  0  0
    3.3991   -2.2574   -2.4564 C   0  0  0  0  0  0  0  0  0  0  0  0
    2.3588   -3.0237   -2.8881 N   0  0  0  0  0  0  0  0  0  0  0  0
    2.5350   -3.2614   -4.1155 N   0  0  0  0  0  0  0  0  0  0  0  0
    3.6348   -2.6956   -4.5493 N   0  0  0  0  0  0  0  0  0  0  0  0
    4.1219   -2.7596   -5.8605 C   0  0  0  0  0  0  0  0  0  0  0  0
    4.9546   -3.7496   -6.2176 N   0  0  0  0  0  0  0  0  0  0  0  0
    5.4382   -3.8455   -7.4652 C   0  0  0  0  0  0  0  0  0  0  0  0
    5.0729   -2.9268   -8.3715 N   0  0  0  0  0  0  0  0  0  0  0  0
    4.2414   -1.9200   -8.0578 C   0  0  0  0  0  0  0  0  0  0  0  0
    3.7114   -0.8714   -8.7577 N   0  0  0  0  0  0  0  0  0  0  0  0
    2.9257   -0.1412   -7.9956 N   0  0  0  0  0  0  0  0  0  0  0  0
    2.8987   -0.6505   -6.7855 C   0  0  0  0  0  0  0  0  0  0  0  0
    3.7341   -1.7927   -6.7844 C   0  0  0  0  0  0  0  0  0  0  0  0
    3.9641   -0.6045  -10.1088 C   0  0  0  0  0  0  0  0  0  0  0  0
    5.2762   -0.5670  -10.5697 C   0  0  0  0  0  0  0  0  0  0  0  0
    5.5233   -0.3017  -11.9126 C   0  0  0  0  0  0  0  0  0  0  0  0
    4.4626   -0.0763  -12.7834 C   0  0  0  0  0  0  0  0  0  0  0  0
    3.1548   -0.1168  -12.3117 C   0  0  0  0  0  0  0  0  0  0  0  0
    2.8956   -0.3810  -10.9709 C   0  0  0  0  0  0  0  0  0  0  0  0
    4.2225   -2.0382   -3.5142 C   0  0  0  0  0  0  0  0  0  0  0  0
  1  2  1  0
  2  3  2  0
  3  4  1  0
  4  5  2  0
  5  6  1  0
  6  7  1  0
  7  8  2  0
  7  9  1  0
  9 10  1  0
 10 11  1  0
 11 12  2  0
 11 13  1  0
  9 14  1  0
 14 15  1  0
 15 16  1  0
  5 17  1  0
 17 18  2  0
 18  2  1  0
  3 19  1  0
 19 20  1  0
 20 21  2  0
 21 22  1  0
 22 23  1  0
 23 24  2  0
 24 25  1  0
 25 26  2  0
 26 27  1  0
 27 28  1  0
 28 29  1  0
 29 30  2  0
 30 31  1  0
 31 27  2  0
 31 23  1  0
 28 32  1  0
 32 33  2  0
 33 34  1  0
 34 35  2  0
 35 36  1  0
 36 37  2  0
 37 32  1  0
 22 38  1  0
 19 38  2  0
M  END
$$$$
s_46____548782____7594472____12122144
     RDKit          3D

 35 39  0  0  0  0  0  0  0  0999 V2000
    4.4740    4.4816    4.4796 S   0  0  0  0  0  0  0  0  0  0  0  0
    3.9843    4.4463    5.8334 O   0  0  0  0  0  0  0  0  0  0  0  0
    5.8290    3.9954    4.4466 O   0  0  0  0  0  0  0  0  0  0  0  0
    4.4330    6.0144    3.9267 N   0  0  0  0  0  0  0  0  0  0  0  0
    4.9330    6.0503    2.5448 C   0  0  0  0  0  0  0  0  0  0  0  0
    3.4722    3.4754    3.4742 C   0  0  0  0  0  0  0  0  0  0  0  0
    4.0202    2.8440    2.3629 C   0  0  0  0  0  0  0  0  0  0  0  0
    3.2212    2.0390    1.5574 C   0  0  0  0  0  0  0  0  0  0  0  0
    1.8774    1.8774    1.8774 C   0  0  0  0  0  0  0  0  0  0  0  0
    1.3299    2.5098    2.9889 C   0  0  0  0  0  0  0  0  0  0  0  0
    2.1282    3.3140    3.7948 C   0  0  0  0  0  0  0  0  0  0  0  0
    1.0000    1.0000    1.0000 C   0  0  0  0  0  0  0  0  0  0  0  0
    1.0354   -0.3817    1.4981 N   0  0  0  0  0  0  0  0  0  0  0  0
    0.2593   -0.7737    2.5865 C   0  0  0  0  0  0  0  0  0  0  0  0
    0.5675   -2.4553    2.8679 S   0  0  0  0  0  0  0  0  0  0  0  0
    1.7155   -2.6608    1.5830 C   0  0  0  0  0  0  0  0  0  0  0  0
    1.8295   -1.3769    0.9280 C   0  0  0  0  0  0  0  0  0  0  0  0
    2.5563   -1.1869   -0.0342 O   0  0  0  0  0  0  0  0  0  0  0  0
    2.3541   -3.7759    1.2704 C   0  0  0  0  0  0  0  0  0  0  0  0
    3.7247   -3.9743    1.7068 C   0  0  0  0  0  0  0  0  0  0  0  0
    4.7837   -4.1708    0.8194 C   0  0  0  0  0  0  0  0  0  0  0  0
    6.0726   -4.3526    1.3143 C   0  0  0  0  0  0  0  0  0  0  0  0
    6.2591   -4.3315    2.6932 C   0  0  0  0  0  0  0  0  0  0  0  0
    5.2261   -4.1420    3.5277 N   0  0  0  0  0  0  0  0  0  0  0  0
    3.9760   -3.9650    3.0745 C   0  0  0  0  0  0  0  0  0  0  0  0
    7.1523   -4.5495    0.4599 C   0  0  0  0  0  0  0  0  0  0  0  0
    6.9392   -4.5644   -0.9143 C   0  0  0  0  0  0  0  0  0  0  0  0
    5.6652   -4.3855   -1.4409 C   0  0  0  0  0  0  0  0  0  0  0  0
    4.6046   -4.1914   -0.5629 C   0  0  0  0  0  0  0  0  0  0  0  0
   -0.5653   -0.0089    3.2763 C   0  0  0  0  0  0  0  0  0  0  0  0
   -1.3500   -0.5931    4.4395 C   0  0  0  0  0  0  0  0  0  0  0  0
   -2.4980   -0.9092    4.2904 O   0  0  0  0  0  0  0  0  0  0  0  0
   -0.6804   -0.7771    5.7924 C   0  0  0  0  0  0  0  0  0  0  0  0
   -1.3890    0.0118    6.8545 C   0  0  0  0  0  0  0  0  0  0  0  0
   -0.0754    0.4958    6.3107 C   0  0  0  0  0  0  0  0  0  0  0  0
  1  2  2  0
  1  3  2  0
  1  4  1  0
  4  5  1  0
  1  6  1  0
  6  7  2  0
  7  8  1  0
  8  9  2  0
  9 10  1  0
 10 11  2  0
 11  6  1  0
  9 12  1  0
 12 13  1  0
 13 14  1  0
 14 15  1  0
 15 16  1  0
 16 17  1  0
 17 13  1  0
 17 18  2  0
 16 19  2  0
 19 20  1  0
 20 21  2  0
 21 22  1  0
 22 23  2  0
 23 24  1  0
 24 25  2  0
 25 20  1  0
 22 26  1  0
 26 27  2  0
 27 28  1  0
 28 29  2  0
 29 21  1  0
 14 30  2  0
 30 31  1  0
 31 32  2  0
 31 33  1  0
 33 34  1  0
 34 35  1  0
 35 33  1  0
M  END
$$$$
s_22____13909274____60379
     RDKit          3D

 35 39  0  0  0  0  0  0  0  0999 V2000
    0.6517    1.8583   -0.5550 S   0  0  0  0  0  0  0  0  0  0  0  0
   -0.3360    0.6471   -1.3191 C   0  0  0  0  0  0  0  0  0  0  0  0
   -1.6057    0.4098   -1.1010 N   0  0  0  0  0  0  0  0  0  0  0  0
   -2.0445   -0.5773   -1.8486 N   0  0  0  0  0  0  0  0  0  0  0  0
   -1.0369   -0.9986   -2.5704 C   0  0  0  0  0  0  0  0  0  0  0  0
    0.0554   -0.2476   -2.2613 N   0  0  0  0  0  0  0  0  0  0  0  0
    1.4050   -0.3765   -2.8399 C   0  0  0  0  0  0  0  0  0  0  0  0
    1.4778    0.4146   -4.1409 C   0  0  0  0  0  0  0  0  0  0  0  0
    1.2159    1.7983   -3.9699 O   0  0  0  0  0  0  0  0  0  0  0  0
    1.7397    2.4521   -5.1106 C   0  0  0  0  0  0  0  0  0  0  0  0
    2.8852    1.6009   -5.6209 C   0  0  0  0  0  0  0  0  0  0  0  0
    2.9210    0.4763   -4.6073 C   0  0  0  0  0  0  0  0  0  0  0  0
   -1.0816   -2.0775   -3.5383 C   0  0  0  0  0  0  0  0  0  0  0  0
   -2.2679   -2.3327   -4.2183 C   0  0  0  0  0  0  0  0  0  0  0  0
   -2.3275   -3.3638   -5.1503 C   0  0  0  0  0  0  0  0  0  0  0  0
   -1.1915   -4.1298   -5.3879 C   0  0  0  0  0  0  0  0  0  0  0  0
   -1.2352   -5.1183   -6.2762 F   0  0  0  0  0  0  0  0  0  0  0  0
   -0.0056   -3.8752   -4.7079 C   0  0  0  0  0  0  0  0  0  0  0  0
    0.0547   -2.8445   -3.7762 C   0  0  0  0  0  0  0  0  0  0  0  0
    1.0000    1.0000    1.0000 C   0  0  0  0  0  0  0  0  0  0  0  0
    1.8776    1.8776    1.8776 C   0  0  0  0  0  0  0  0  0  0  0  0
    2.2240    2.9588    1.4891 O   0  0  0  0  0  0  0  0  0  0  0  0
    2.2731    1.4341    3.1120 N   0  0  0  0  0  0  0  0  0  0  0  0
    3.1218    2.2828    3.9607 C   0  0  0  0  0  0  0  0  0  0  0  0
    4.5856    1.9901    3.6680 C   0  0  0  0  0  0  0  0  0  0  0  0
    5.3110    1.0158    4.3520 C   0  0  0  0  0  0  0  0  0  0  0  0
    6.6482    0.8079    4.0246 C   0  0  0  0  0  0  0  0  0  0  0  0
    7.2250    1.5419    3.0615 N   0  0  0  0  0  0  0  0  0  0  0  0
    6.5470    2.4839    2.3901 C   0  0  0  0  0  0  0  0  0  0  0  0
    5.2088    2.7354    2.6735 C   0  0  0  0  0  0  0  0  0  0  0  0
    7.3874   -0.1592    4.6980 C   0  0  0  0  0  0  0  0  0  0  0  0
    6.8054   -0.9277    5.7009 C   0  0  0  0  0  0  0  0  0  0  0  0
    5.4706   -0.7334    6.0397 C   0  0  0  0  0  0  0  0  0  0  0  0
    4.7444    0.2369    5.3582 C   0  0  0  0  0  0  0  0  0  0  0  0
    1.8487    0.1096    3.5878 C   0  0  0  0  0  0  0  0  0  0  0  0
  1  2  1  0
  2  3  2  0
  3  4  1  0
  4  5  2  0
  5  6  1  0
  6  2  1  0
  6  7  1  0
  7  8  1  0
  8  9  1  0
  9 10  1  0
 10 11  1  0
 11 12  1  0
 12  8  1  0
  5 13  1  0
 13 14  2  0
 14 15  1  0
 15 16  2  0
 16 17  1  0
 16 18  1  0
 18 19  2  0
 19 13  1  0
  1 20  1  0
 20 21  1  0
 21 22  2  0
 21 23  1  0
 23 24  1  0
 24 25  1  0
 25 26  2  0
 26 27  1  0
 27 28  2  0
 28 29  1  0
 29 30  2  0
 30 25  1  0
 27 31  1  0
 31 32  2  0
 32 33  1  0
 33 34  2  0
 34 26  1  0
 23 35  1  0
M  END
$$$$
s_1458____2008704____9746902
     RDKit          3D

 34 37  0  0  0  0  0  0  0  0999 V2000
    0.1368    7.0993    0.0653 O   0  0  0  0  0  0  0  0  0  0  0  0
   -0.7426    6.3328    0.4223 N   0  0  0  0  0  0  0  0  0  0  0  0
   -1.8183    6.3459   -0.1317 O   0  0  0  0  0  0  0  0  0  0  0  0
   -0.5074    5.4384    1.4728 C   0  0  0  0  0  0  0  0  0  0  0  0
   -1.4131    5.3474    2.5235 C   0  0  0  0  0  0  0  0  0  0  0  0
   -2.5168    6.1251    2.5233 O   0  0  0  0  0  0  0  0  0  0  0  0
   -3.3918    6.1163    3.6416 C   0  0  0  0  0  0  0  0  0  0  0  0
   -1.1944    4.4642    3.5758 C   0  0  0  0  0  0  0  0  0  0  0  0
   -0.0541    3.6680    3.5662 C   0  0  0  0  0  0  0  0  0  0  0  0
    0.8505    3.7609    2.5130 C   0  0  0  0  0  0  0  0  0  0  0  0
    0.6340    4.6438    1.4596 C   0  0  0  0  0  0  0  0  0  0  0  0
    2.0395    2.9304    2.5027 C   0  0  0  0  0  0  0  0  0  0  0  0
    3.2836    3.3428    2.4888 N   0  0  0  0  0  0  0  0  0  0  0  0
    4.1104    2.3260    2.4855 N   0  0  0  0  0  0  0  0  0  0  0  0
    3.4043    1.1618    2.4946 C   0  0  0  0  0  0  0  0  0  0  0  0
    2.0918    1.5219    2.5058 C   0  0  0  0  0  0  0  0  0  0  0  0
    0.9557    0.6211    2.5174 C   0  0  0  0  0  0  0  0  0  0  0  0
   -0.0778    0.9522    2.0055 O   0  0  0  0  0  0  0  0  0  0  0  0
    1.0576   -0.5543    3.0867 O   0  0  0  0  0  0  0  0  0  0  0  0
   -0.0550   -1.4366    3.0981 C   0  0  0  0  0  0  0  0  0  0  0  0
    0.3250   -2.7221    3.8148 C   0  0  0  0  0  0  0  0  0  0  0  0
    0.1447   -2.8649    5.1874 C   0  0  0  0  0  0  0  0  0  0  0  0
    0.4877   -4.0105    5.7966 N   0  0  0  0  0  0  0  0  0  0  0  0
    1.0081   -5.0456    5.1182 C   0  0  0  0  0  0  0  0  0  0  0  0
    1.2080   -4.9513    3.7430 C   0  0  0  0  0  0  0  0  0  0  0  0
    0.8621   -3.7762    3.0840 C   0  0  0  0  0  0  0  0  0  0  0  0
    1.7444   -6.0053    3.0110 C   0  0  0  0  0  0  0  0  0  0  0  0
    2.0892   -7.1815    3.6694 C   0  0  0  0  0  0  0  0  0  0  0  0
    1.8960   -7.2939    5.0431 C   0  0  0  0  0  0  0  0  0  0  0  0
    1.3585   -6.2290    5.7586 C   0  0  0  0  0  0  0  0  0  0  0  0
    5.5778    2.4193    2.4707 C   0  0  0  0  0  0  0  0  0  0  0  0
    6.0975    2.4582    3.8986 C   0  0  0  0  0  0  0  0  0  0  0  0
    7.6143    2.5547    3.8832 C   0  0  0  0  0  0  0  0  0  0  0  0
    8.7520    2.6271    3.8718 N   0  0  0  0  0  0  0  0  0  0  0  0
  1  2  1  0
  2  3  2  0
  2  4  1  0
  4  5  2  0
  5  6  1  0
  6  7  1  0
  5  8  1  0
  8  9  2  0
  9 10  1  0
 10 11  2  0
 11  4  1  0
 10 12  1  0
 12 13  2  0
 13 14  1  0
 14 15  1  0
 15 16  2  0
 16 12  1  0
 16 17  1  0
 17 18  2  0
 17 19  1  0
 19 20  1  0
 20 21  1  0
 21 22  2  0
 22 23  1  0
 23 24  2  0
 24 25  1  0
 25 26  2  0
 26 21  1  0
 25 27  1  0
 27 28  2  0
 28 29  1  0
 29 30  2  0
 30 24  1  0
 14 31  1  0
 31 32  1  0
 32 33  1  0
 33 34  3  0
M  CHG  2   1  -1   2   1
M  END
$$$$
m_273170____14188226____10759890____10766558
     RDKit          3D

 35 39  0  0  0  0  0  0  0  0999 V2000
    8.2629   -1.7453    1.6026 Cl  0  0  0  0  0  0  0  0  0  0  0  0
    9.1715   -1.1939    3.0277 C   0  0  0  0  0  0  0  0  0  0  0  0
    8.6896   -0.0612    3.7300 C   0  0  0  0  0  0  0  0  0  0  0  0
    7.6453    0.7037    3.5151 N   0  0  0  0  0  0  0  0  0  0  0  0
    7.6402    1.6608    4.4861 C   0  0  0  0  0  0  0  0  0  0  0  0
    8.7113    1.4609    5.3024 C   0  0  0  0  0  0  0  0  0  0  0  0
    9.3704    0.3692    4.8193 N   0  0  0  0  0  0  0  0  0  0  0  0
   10.5081   -0.2680    5.2434 C   0  0  0  0  0  0  0  0  0  0  0  0
   10.9925   -1.3657    4.5793 C   0  0  0  0  0  0  0  0  0  0  0  0
   12.4625   -2.2306    5.0881 Cl  0  0  0  0  0  0  0  0  0  0  0  0
   10.3034   -1.8437    3.4354 C   0  0  0  0  0  0  0  0  0  0  0  0
    6.6067    2.7660    4.6291 C   0  0  0  0  0  0  0  0  0  0  0  0
    6.6068    3.5973    3.4160 N   0  0  0  0  0  0  0  0  0  0  0  0
    7.5919    4.4488    3.0295 C   0  0  0  0  0  0  0  0  0  0  0  0
    7.1830    4.9765    1.9022 N   0  0  0  0  0  0  0  0  0  0  0  0
    6.0035    4.5098    1.5576 N   0  0  0  0  0  0  0  0  0  0  0  0
    5.6236    3.6531    2.4786 C   0  0  0  0  0  0  0  0  0  0  0  0
    4.3802    2.9056    2.4882 C   0  0  0  0  0  0  0  0  0  0  0  0
    3.1735    3.5977    2.5023 C   0  0  0  0  0  0  0  0  0  0  0  0
    1.9833    2.8783    2.5116 C   0  0  0  0  0  0  0  0  0  0  0  0
    0.4648    3.7275    2.5286 S   0  0  0  0  0  0  0  0  0  0  0  0
    0.6132    4.9899    1.8520 O   0  0  0  0  0  0  0  0  0  0  0  0
   -0.5345    2.9375    1.8570 O   0  0  0  0  0  0  0  0  0  0  0  0
    0.0053    3.9882    4.0706 N   0  0  0  0  0  0  0  0  0  0  0  0
    1.0254    4.7946    4.7562 C   0  0  0  0  0  0  0  0  0  0  0  0
   -1.2776    4.7056    4.0850 C   0  0  0  0  0  0  0  0  0  0  0  0
    1.9869    1.4870    2.5070 C   0  0  0  0  0  0  0  0  0  0  0  0
    3.2042    0.8141    2.4925 C   0  0  0  0  0  0  0  0  0  0  0  0
    4.4059    1.5148    2.4827 C   0  0  0  0  0  0  0  0  0  0  0  0
    8.8008    4.7139    3.7015 N   0  0  0  0  0  0  0  0  0  0  0  0
   10.0326    3.9494    3.4537 C   0  0  0  0  0  0  0  0  0  0  0  0
   11.2397    4.8302    3.7356 C   0  0  0  0  0  0  0  0  0  0  0  0
   11.2900    5.2633    5.0929 O   0  0  0  0  0  0  0  0  0  0  0  0
   10.0113    5.3926    5.7048 C   0  0  0  0  0  0  0  0  0  0  0  0
    8.9304    5.7783    4.7063 C   0  0  0  0  0  0  0  0  0  0  0  0
  1  2  1  0
  2  3  1  0
  3  4  2  0
  4  5  1  0
  5  6  2  0
  6  7  1  0
  7  3  1  0
  7  8  1  0
  8  9  2  0
  9 10  1  0
  9 11  1  0
  2 11  2  0
  5 12  1  0
 12 13  1  0
 13 14  1  0
 14 15  2  0
 15 16  1  0
 16 17  2  0
 17 13  1  0
 17 18  1  0
 18 19  2  0
 19 20  1  0
 20 21  1  0
 21 22  2  0
 21 23  2  0
 21 24  1  0
 24 25  1  0
 24 26  1  0
 20 27  2  0
 27 28  1  0
 28 29  2  0
 29 18  1  0
 14 30  1  0
 30 31  1  0
 31 32  1  0
 32 33  1  0
 33 34  1  0
 34 35  1  0
 35 30  1  0
M  END
$$$$
m_276096____13706896____16895042
     RDKit          3D

 32 36  0  0  0  0  0  0  0  0999 V2000
   -2.6501   -2.2508    2.5966 S   0  0  0  0  0  0  0  0  0  0  0  0
   -2.2692   -3.4650    3.2705 O   0  0  0  0  0  0  0  0  0  0  0  0
   -3.7491   -1.6378    3.2966 O   0  0  0  0  0  0  0  0  0  0  0  0
   -3.1035   -2.5962    1.0695 N   0  0  0  0  0  0  0  0  0  0  0  0
   -4.2455   -3.5215    1.0949 C   0  0  0  0  0  0  0  0  0  0  0  0
   -1.2440   -1.1115    2.5654 C   0  0  0  0  0  0  0  0  0  0  0  0
   -1.4700    0.2609    2.5669 C   0  0  0  0  0  0  0  0  0  0  0  0
   -0.3822    1.1273    2.5430 C   0  0  0  0  0  0  0  0  0  0  0  0
    0.9125    0.6183    2.5170 C   0  0  0  0  0  0  0  0  0  0  0  0
    1.1336   -0.7552    2.5156 C   0  0  0  0  0  0  0  0  0  0  0  0
    0.0485   -1.6254    2.5397 C   0  0  0  0  0  0  0  0  0  0  0  0
    2.0377    1.5325    2.4911 C   0  0  0  0  0  0  0  0  0  0  0  0
    3.3528    1.1511    2.4644 N   0  0  0  0  0  0  0  0  0  0  0  0
    4.2262    2.1265    2.4440 C   0  0  0  0  0  0  0  0  0  0  0  0
    3.3287    3.5724    2.4687 S   0  0  0  0  0  0  0  0  0  0  0  0
    1.7793    2.8660    2.4982 C   0  0  0  0  0  0  0  0  0  0  0  0
    5.6914    2.0114    2.4155 N   0  0  0  0  0  0  0  0  0  0  0  0
    6.3242    0.6847    2.3964 C   0  0  0  0  0  0  0  0  0  0  0  0
    6.5150    0.2350    0.9573 C   0  0  0  0  0  0  0  0  0  0  0  0
    7.5755    0.4706    0.2212 O   0  0  0  0  0  0  0  0  0  0  0  0
    7.4151   -0.0569   -0.9705 C   0  0  0  0  0  0  0  0  0  0  0  0
    8.3805    0.0027   -2.0487 C   0  0  0  0  0  0  0  0  0  0  0  0
    8.1612   -0.6859   -3.5919 S   0  0  0  0  0  0  0  0  0  0  0  0
    9.6633   -0.1899   -4.2056 C   0  0  0  0  0  0  0  0  0  0  0  0
   10.2892    0.5080   -3.1957 C   0  0  0  0  0  0  0  0  0  0  0  0
    9.5538    0.5864   -2.0344 N   0  0  0  0  0  0  0  0  0  0  0  0
   11.5481    0.9705   -3.5744 C   0  0  0  0  0  0  0  0  0  0  0  0
   12.0638    0.7367   -4.8473 C   0  0  0  0  0  0  0  0  0  0  0  0
   11.3401    0.0240   -5.7989 C   0  0  0  0  0  0  0  0  0  0  0  0
   10.0864   -0.4708   -5.4886 C   0  0  0  0  0  0  0  0  0  0  0  0
    6.2016   -0.6677   -1.0406 C   0  0  0  0  0  0  0  0  0  0  0  0
    5.6107   -0.4757    0.2263 C   0  0  0  0  0  0  0  0  0  0  0  0
  1  2  2  0
  1  3  2  0
  1  4  1  0
  4  5  1  0
  1  6  1  0
  6  7  2  0
  7  8  1  0
  8  9  2  0
  9 10  1  0
 10 11  2  0
 11  6  1  0
  9 12  1  0
 12 13  1  0
 13 14  2  0
 14 15  1  0
 15 16  1  0
 12 16  2  0
 14 17  1  0
 17 18  1  0
 18 19  1  0
 19 20  1  0
 20 21  1  0
 21 22  1  0
 22 23  1  0
 23 24  1  0
 24 25  2  0
 25 26  1  0
 22 26  2  0
 25 27  1  0
 27 28  2  0
 28 29  1  0
 29 30  2  0
 30 24  1  0
 21 31  2  0
 31 32  1  0
 19 32  2  0
M  END
$$$$
s_270196____10855104____8781146
     RDKit          3D

 29 32  0  0  0  0  0  0  0  0999 V2000
    0.4036    3.7617    2.5293 S   0  0  0  0  0  0  0  0  0  0  0  0
   -0.5826    2.9678    3.2153 O   0  0  0  0  0  0  0  0  0  0  0  0
    0.5651    5.0202    3.2103 O   0  0  0  0  0  0  0  0  0  0  0  0
   -0.0853    4.0313    0.9979 N   0  0  0  0  0  0  0  0  0  0  0  0
   -1.3682    4.7488    1.0123 C   0  0  0  0  0  0  0  0  0  0  0  0
   -1.8241    5.0003   -0.4157 C   0  0  0  0  0  0  0  0  0  0  0  0
    1.9833    2.8783    2.5116 C   0  0  0  0  0  0  0  0  0  0  0  0
    3.1735    3.5977    2.5023 C   0  0  0  0  0  0  0  0  0  0  0  0
    4.3802    2.9056    2.4882 C   0  0  0  0  0  0  0  0  0  0  0  0
    4.4059    1.5148    2.4827 C   0  0  0  0  0  0  0  0  0  0  0  0
    3.2042    0.8141    2.4925 C   0  0  0  0  0  0  0  0  0  0  0  0
    1.9869    1.4870    2.5070 C   0  0  0  0  0  0  0  0  0  0  0  0
    5.6234    3.6530    2.4786 C   0  0  0  0  0  0  0  0  0  0  0  0
    6.8265    3.1397    2.4652 N   0  0  0  0  0  0  0  0  0  0  0  0
    7.6648    4.0868    2.4644 O   0  0  0  0  0  0  0  0  0  0  0  0
    7.0323    5.2337    2.4771 C   0  0  0  0  0  0  0  0  0  0  0  0
    5.7415    5.0071    2.4869 N   0  0  0  0  0  0  0  0  0  0  0  0
    7.6867    6.6056    2.4810 C   0  0  0  0  0  0  0  0  0  0  0  0
    7.8869    7.0577    1.0945 N   0  0  0  0  0  0  0  0  0  0  0  0
    6.9370    7.7844    0.4133 C   0  0  0  0  0  0  0  0  0  0  0  0
    7.1679    8.1917   -0.8990 C   0  0  0  0  0  0  0  0  0  0  0  0
    6.1968    8.9239   -1.5784 C   0  0  0  0  0  0  0  0  0  0  0  0
    4.9882    9.2692   -0.9838 C   0  0  0  0  0  0  0  0  0  0  0  0
    4.7477    8.8697    0.3264 C   0  0  0  0  0  0  0  0  0  0  0  0
    5.7209    8.1376    0.9981 C   0  0  0  0  0  0  0  0  0  0  0  0
    8.4028    7.8425   -1.5160 C   0  0  0  0  0  0  0  0  0  0  0  0
    8.6738    8.1573   -2.6418 O   0  0  0  0  0  0  0  0  0  0  0  0
    9.3627    7.0916   -0.7857 C   0  0  0  0  0  0  0  0  0  0  0  0
    9.0768    6.7195    0.5027 C   0  0  0  0  0  0  0  0  0  0  0  0
  1  2  2  0
  1  3  2  0
  1  4  1  0
  4  5  1  0
  5  6  1  0
  1  7  1  0
  7  8  2  0
  8  9  1  0
  9 10  2  0
 10 11  1  0
 11 12  2  0
 12  7  1  0
  9 13  1  0
 13 14  2  0
 14 15  1  0
 15 16  1  0
 16 17  2  0
 17 13  1  0
 16 18  1  0
 18 19  1  0
 19 20  1  0
 20 21  1  0
 21 22  2  0
 22 23  1  0
 23 24  2  0
 24 25  1  0
 25 20  2  0
 21 26  1  0
 26 27  2  0
 26 28  1  0
 28 29  2  0
 29 19  1  0
M  END
$$$$
m_271722____10195368____11366088
     RDKit          3D

 34 38  0  0  0  0  0  0  0  0999 V2000
   -1.9873   -4.0817    0.9760 Cl  0  0  0  0  0  0  0  0  0  0  0  0
   -1.0825   -2.5488    0.9841 C   0  0  0  0  0  0  0  0  0  0  0  0
   -1.7603   -1.3569    0.7528 C   0  0  0  0  0  0  0  0  0  0  0  0
   -1.0460   -0.1637    0.7608 C   0  0  0  0  0  0  0  0  0  0  0  0
   -1.7171    1.0436    0.5304 N   0  0  0  0  0  0  0  0  0  0  0  0
   -2.7304    1.3074    1.1564 O   0  0  0  0  0  0  0  0  0  0  0  0
   -1.2924    1.8248   -0.2903 O   0  0  0  0  0  0  0  0  0  0  0  0
    0.3247   -0.1696    0.9964 C   0  0  0  0  0  0  0  0  0  0  0  0
    1.0000    1.0000    1.0000 O   0  0  0  0  0  0  0  0  0  0  0  0
    2.3494    1.0000    1.0000 C   0  0  0  0  0  0  0  0  0  0  0  0
    3.0442    0.9951    2.2042 C   0  0  0  0  0  0  0  0  0  0  0  0
    2.3616    0.9905    3.3689 O   0  0  0  0  0  0  0  0  0  0  0  0
    3.0636    0.9855    4.6032 C   0  0  0  0  0  0  0  0  0  0  0  0
    4.4356    0.9941    2.2130 C   0  0  0  0  0  0  0  0  0  0  0  0
    5.1153    0.9985    0.9996 C   0  0  0  0  0  0  0  0  0  0  0  0
    4.4325    1.0033   -0.2121 C   0  0  0  0  0  0  0  0  0  0  0  0
    3.0410    1.0037   -0.2073 C   0  0  0  0  0  0  0  0  0  0  0  0
    6.5651    0.9987    1.0107 C   0  0  0  0  0  0  0  0  0  0  0  0
    7.3220    0.9951    2.0821 O   0  0  0  0  0  0  0  0  0  0  0  0
    8.5681    0.9961    1.6698 C   0  0  0  0  0  0  0  0  0  0  0  0
    8.5849    1.0000    0.3579 N   0  0  0  0  0  0  0  0  0  0  0  0
    7.3365    1.0008   -0.0521 N   0  0  0  0  0  0  0  0  0  0  0  0
    9.7389    0.9949    2.5261 C   0  0  0  0  0  0  0  0  0  0  0  0
   10.9869    0.9953    2.0276 N   0  0  0  0  0  0  0  0  0  0  0  0
   12.0789    0.9942    2.8115 C   0  0  0  0  0  0  0  0  0  0  0  0
   11.9411    0.9919    4.1965 C   0  0  0  0  0  0  0  0  0  0  0  0
   10.6610    0.9907    4.7403 C   0  0  0  0  0  0  0  0  0  0  0  0
    9.5497    0.9923    3.9038 C   0  0  0  0  0  0  0  0  0  0  0  0
   13.0436    0.9924    5.0444 C   0  0  0  0  0  0  0  0  0  0  0  0
   14.3207    0.9946    4.4926 C   0  0  0  0  0  0  0  0  0  0  0  0
   14.4809    0.9964    3.1108 C   0  0  0  0  0  0  0  0  0  0  0  0
   13.3644    0.9964    2.2810 C   0  0  0  0  0  0  0  0  0  0  0  0
    1.0001   -1.3632    1.2277 C   0  0  0  0  0  0  0  0  0  0  0  0
    0.2879   -2.5576    1.2198 C   0  0  0  0  0  0  0  0  0  0  0  0
  1  2  1  0
  2  3  2  0
  3  4  1  0
  4  5  1  0
  5  6  1  0
  5  7  2  0
  4  8  2  0
  8  9  1  0
  9 10  1  0
 10 11  2  0
 11 12  1  0
 12 13  1  0
 11 14  1  0
 14 15  2  0
 15 16  1  0
 16 17  2  0
 17 10  1  0
 15 18  1  0
 18 19  1  0
 19 20  1  0
 20 21  2  0
 21 22  1  0
 18 22  2  0
 20 23  1  0
 23 24  2  0
 24 25  1  0
 25 26  2  0
 26 27  1  0
 27 28  2  0
 28 23  1  0
 26 29  1  0
 29 30  2  0
 30 31  1  0
 31 32  2  0
 32 25  1  0
  8 33  1  0
 33 34  2  0
 34  2  1  0
M  CHG  2   5   1   6  -1
M  END
$$$$
s_22____14177980____138716
     RDKit          3D

 33 37  0  0  0  0  0  0  0  0999 V2000
   -2.1456    0.3152    3.3726 S   0  0  0  0  0  0  0  0  0  0  0  0
   -3.6247    0.7346    2.6402 C   0  0  0  0  0  0  0  0  0  0  0  0
   -4.9049    0.4393    3.1482 N   0  0  0  0  0  0  0  0  0  0  0  0
   -5.6280    1.3464    4.0531 C   0  0  0  0  0  0  0  0  0  0  0  0
   -6.5651    0.5296    4.9273 C   0  0  0  0  0  0  0  0  0  0  0  0
   -7.5671   -0.1536    4.1790 O   0  0  0  0  0  0  0  0  0  0  0  0
   -7.1288   -0.5522    2.8841 C   0  0  0  0  0  0  0  0  0  0  0  0
   -5.6284   -0.7966    2.8195 C   0  0  0  0  0  0  0  0  0  0  0  0
   -3.3378    1.3988    1.4856 C   0  0  0  0  0  0  0  0  0  0  0  0
   -4.3792    1.9011    0.6101 C   0  0  0  0  0  0  0  0  0  0  0  0
   -4.2422    3.1558    0.0254 C   0  0  0  0  0  0  0  0  0  0  0  0
   -5.2439    3.6342   -0.8130 C   0  0  0  0  0  0  0  0  0  0  0  0
   -6.3714    2.8587   -1.0623 C   0  0  0  0  0  0  0  0  0  0  0  0
   -6.4973    1.6067   -0.4731 C   0  0  0  0  0  0  0  0  0  0  0  0
   -5.5029    1.1174    0.3676 C   0  0  0  0  0  0  0  0  0  0  0  0
   -1.9479    1.5426    1.2386 C   0  0  0  0  0  0  0  0  0  0  0  0
   -1.1360    1.0000    2.1865 C   0  0  0  0  0  0  0  0  0  0  0  0
    0.3150    1.0000    2.1865 C   0  0  0  0  0  0  0  0  0  0  0  0
    0.9150    1.0000    3.2257 O   0  0  0  0  0  0  0  0  0  0  0  0
    1.0000    1.0000    1.0000 N   0  0  0  0  0  0  0  0  0  0  0  0
    2.4700    1.0000    1.0000 C   0  0  0  0  0  0  0  0  0  0  0  0
    2.9767    1.0000   -0.4332 C   0  0  0  0  0  0  0  0  0  0  0  0
    3.2138    2.2308   -1.1038 C   0  0  0  0  0  0  0  0  0  0  0  0
    3.0106    3.2880   -0.5290 O   0  0  0  0  0  0  0  0  0  0  0  0
    3.6702    2.2104   -2.3967 N   0  0  0  0  0  0  0  0  0  0  0  0
    3.9028    1.0306   -3.0556 C   0  0  0  0  0  0  0  0  0  0  0  0
    3.6773   -0.1869   -2.4192 C   0  0  0  0  0  0  0  0  0  0  0  0
    3.9016   -1.4039   -3.0537 C   0  0  0  0  0  0  0  0  0  0  0  0
    4.3654   -1.4045   -4.3651 C   0  0  0  0  0  0  0  0  0  0  0  0
    4.5928   -0.1915   -5.0066 C   0  0  0  0  0  0  0  0  0  0  0  0
    5.0359   -0.1970   -6.2598 F   0  0  0  0  0  0  0  0  0  0  0  0
    4.3667    1.0235   -4.3672 C   0  0  0  0  0  0  0  0  0  0  0  0
    3.2048   -0.1868   -1.0792 C   0  0  0  0  0  0  0  0  0  0  0  0
  1  2  1  0
  2  3  1  0
  3  4  1  0
  4  5  1  0
  5  6  1  0
  6  7  1  0
  7  8  1  0
  8  3  1  0
  2  9  2  0
  9 10  1  0
 10 11  2  0
 11 12  1  0
 12 13  2  0
 13 14  1  0
 14 15  2  0
 15 10  1  0
  9 16  1  0
 16 17  2  0
 17  1  1  0
 17 18  1  0
 18 19  2  0
 18 20  1  0
 20 21  1  0
 21 22  1  0
 22 23  1  0
 23 24  2  0
 23 25  1  0
 25 26  1  0
 26 27  2  0
 27 28  1  0
 28 29  2  0
 29 30  1  0
 30 31  1  0
 30 32  2  0
 32 26  1  0
 27 33  1  0
 22 33  2  0
M  END
$$$$
m_271722____10195368____11366366
     RDKit          3D

 34 38  0  0  0  0  0  0  0  0999 V2000
    8.3100    2.6952   -0.8016 F   0  0  0  0  0  0  0  0  0  0  0  0
    8.3414    1.6975    0.0774 C   0  0  0  0  0  0  0  0  0  0  0  0
    9.6040    1.4281    0.3973 F   0  0  0  0  0  0  0  0  0  0  0  0
    7.7796    0.6173   -0.4578 F   0  0  0  0  0  0  0  0  0  0  0  0
    7.5765    2.0997    1.3280 C   0  0  0  0  0  0  0  0  0  0  0  0
    6.1879    2.0212    1.3306 C   0  0  0  0  0  0  0  0  0  0  0  0
    5.4933    2.3901    2.4777 C   0  0  0  0  0  0  0  0  0  0  0  0
    4.0957    2.3152    2.4925 N   0  0  0  0  0  0  0  0  0  0  0  0
    3.2827    3.3442    2.5082 N   0  0  0  0  0  0  0  0  0  0  0  0
    2.0347    2.9468    2.5158 C   0  0  0  0  0  0  0  0  0  0  0  0
    2.0662    1.5346    2.5073 C   0  0  0  0  0  0  0  0  0  0  0  0
    0.9132    0.6537    2.5111 C   0  0  0  0  0  0  0  0  0  0  0  0
    0.9522   -0.6575    2.5007 O   0  0  0  0  0  0  0  0  0  0  0  0
   -0.2915   -1.0770    2.5095 C   0  0  0  0  0  0  0  0  0  0  0  0
   -1.0933   -0.0386    2.5257 N   0  0  0  0  0  0  0  0  0  0  0  0
   -0.3420    1.0394    2.5275 N   0  0  0  0  0  0  0  0  0  0  0  0
   -0.7129   -2.4660    2.5012 C   0  0  0  0  0  0  0  0  0  0  0  0
   -2.0098   -2.8161    2.5114 N   0  0  0  0  0  0  0  0  0  0  0  0
   -2.4096   -4.0986    2.5036 C   0  0  0  0  0  0  0  0  0  0  0  0
   -1.4649   -5.1214    2.4843 C   0  0  0  0  0  0  0  0  0  0  0  0
   -0.1148   -4.7868    2.4734 C   0  0  0  0  0  0  0  0  0  0  0  0
    0.2708   -3.4498    2.4822 C   0  0  0  0  0  0  0  0  0  0  0  0
   -1.8465   -6.4589    2.4755 C   0  0  0  0  0  0  0  0  0  0  0  0
   -3.2014   -6.7728    2.4869 C   0  0  0  0  0  0  0  0  0  0  0  0
   -4.1651   -5.7702    2.5060 C   0  0  0  0  0  0  0  0  0  0  0  0
   -3.7585   -4.4398    2.5144 C   0  0  0  0  0  0  0  0  0  0  0  0
    3.3716    1.1601    2.4923 C   0  0  0  0  0  0  0  0  0  0  0  0
    3.9343   -0.2543    2.4827 C   0  0  0  0  0  0  0  0  0  0  0  0
    3.7837   -0.7830    1.2716 F   0  0  0  0  0  0  0  0  0  0  0  0
    5.2270   -0.2193    2.7935 F   0  0  0  0  0  0  0  0  0  0  0  0
    3.2838   -0.9962    3.3744 F   0  0  0  0  0  0  0  0  0  0  0  0
    6.1650    2.8326    3.6121 C   0  0  0  0  0  0  0  0  0  0  0  0
    7.5536    2.9029    3.5867 C   0  0  0  0  0  0  0  0  0  0  0  0
    8.2699    2.5389    2.4508 C   0  0  0  0  0  0  0  0  0  0  0  0
  1  2  1  0
  2  3  1  0
  2  4  1  0
  2  5  1  0
  5  6  2  0
  6  7  1  0
  7  8  1  0
  8  9  1  0
  9 10  2  0
 10 11  1  0
 11 12  1  0
 12 13  1  0
 13 14  1  0
 14 15  2  0
 15 16  1  0
 12 16  2  0
 14 17  1  0
 17 18  2  0
 18 19  1  0
 19 20  2  0
 20 21  1  0
 21 22  2  0
 22 17  1  0
 20 23  1  0
 23 24  2  0
 24 25  1  0
 25 26  2  0
 26 19  1  0
 11 27  2  0
 27  8  1  0
 27 28  1  0
 28 29  1  0
 28 30  1  0
 28 31  1  0
  7 32  2  0
 32 33  1  0
 33 34  2  0
 34  5  1  0
M  END
$$$$
m_271722____9492380____10189396
     RDKit          3D

 32 36  0  0  0  0  0  0  0  0999 V2000
    0.4648    3.7275    2.5286 S   0  0  0  0  0  0  0  0  0  0  0  0
   -0.5215    2.9336    3.2146 O   0  0  0  0  0  0  0  0  0  0  0  0
    0.6262    4.9859    3.2096 O   0  0  0  0  0  0  0  0  0  0  0  0
   -0.0241    3.9971    0.9972 N   0  0  0  0  0  0  0  0  0  0  0  0
    0.9827    4.8076    0.2969 C   0  0  0  0  0  0  0  0  0  0  0  0
   -0.1889    2.7124    0.3020 C   0  0  0  0  0  0  0  0  0  0  0  0
    1.9833    2.8783    2.5116 C   0  0  0  0  0  0  0  0  0  0  0  0
    3.1735    3.5977    2.5023 C   0  0  0  0  0  0  0  0  0  0  0  0
    4.3802    2.9056    2.4882 C   0  0  0  0  0  0  0  0  0  0  0  0
    4.4059    1.5148    2.4827 C   0  0  0  0  0  0  0  0  0  0  0  0
    3.2042    0.8141    2.4925 C   0  0  0  0  0  0  0  0  0  0  0  0
    1.9869    1.4870    2.5070 C   0  0  0  0  0  0  0  0  0  0  0  0
    5.6228    3.6526    2.4786 C   0  0  0  0  0  0  0  0  0  0  0  0
    5.7294    4.9601    2.4820 O   0  0  0  0  0  0  0  0  0  0  0  0
    7.0119    5.2390    2.4710 C   0  0  0  0  0  0  0  0  0  0  0  0
    7.6937    4.1181    2.4614 N   0  0  0  0  0  0  0  0  0  0  0  0
    6.8275    3.1300    2.4669 N   0  0  0  0  0  0  0  0  0  0  0  0
    7.5843    6.5716    2.4684 C   0  0  0  0  0  0  0  0  0  0  0  0
    8.2207    7.0092    3.5642 N   0  0  0  0  0  0  0  0  0  0  0  0
    8.7701    8.2317    3.6214 C   0  0  0  0  0  0  0  0  0  0  0  0
    8.6779    9.0696    2.5143 C   0  0  0  0  0  0  0  0  0  0  0  0
    8.0417    8.6329    1.4169 N   0  0  0  0  0  0  0  0  0  0  0  0
    7.4930    7.4103    1.3616 C   0  0  0  0  0  0  0  0  0  0  0  0
    6.8199    7.0000    0.1465 C   0  0  0  0  0  0  0  0  0  0  0  0
    7.3898    5.8059   -0.9274 S   0  0  0  0  0  0  0  0  0  0  0  0
    6.0931    5.9332   -2.0142 C   0  0  0  0  0  0  0  0  0  0  0  0
    5.2466    6.8937   -1.5051 C   0  0  0  0  0  0  0  0  0  0  0  0
    5.6836    7.4522   -0.3250 N   0  0  0  0  0  0  0  0  0  0  0  0
    4.1318    7.0991   -2.3158 C   0  0  0  0  0  0  0  0  0  0  0  0
    3.9368    6.3790   -3.4922 C   0  0  0  0  0  0  0  0  0  0  0  0
    4.8549    5.4204   -3.9116 C   0  0  0  0  0  0  0  0  0  0  0  0
    5.9880    5.1702   -3.1591 C   0  0  0  0  0  0  0  0  0  0  0  0
  1  2  2  0
  1  3  2  0
  1  4  1  0
  4  5  1  0
  4  6  1  0
  1  7  1  0
  7  8  2  0
  8  9  1  0
  9 10  2  0
 10 11  1  0
 11 12  2  0
 12  7  1  0
  9 13  1  0
 13 14  1  0
 14 15  1  0
 15 16  2  0
 16 17  1  0
 13 17  2  0
 15 18  1  0
 18 19  2  0
 19 20  1  0
 20 21  2  0
 21 22  1  0
 22 23  2  0
 23 18  1  0
 23 24  1  0
 24 25  1  0
 25 26  1  0
 26 27  2  0
 27 28  1  0
 24 28  2  0
 27 29  1  0
 29 30  2  0
 30 31  1  0
 31 32  2  0
 32 26  1  0
M  END
$$$$
s_22____15359960____323328
     RDKit          3D

 30 33  0  0  0  0  0  0  0  0999 V2000
   -0.6374    2.7251    2.5386 S   0  0  0  0  0  0  0  0  0  0  0  0
   -1.6603    3.4894    1.8729 O   0  0  0  0  0  0  0  0  0  0  0  0
   -0.4537    1.4711    1.8549 O   0  0  0  0  0  0  0  0  0  0  0  0
    0.7615    3.5615    2.5249 N   0  0  0  0  0  0  0  0  0  0  0  0
    1.9842    2.8802    2.5097 C   0  0  0  0  0  0  0  0  0  0  0  0
    3.1777    3.5943    2.4980 C   0  0  0  0  0  0  0  0  0  0  0  0
    4.3931    2.9175    2.4829 C   0  0  0  0  0  0  0  0  0  0  0  0
    4.3950    1.5262    2.4798 C   0  0  0  0  0  0  0  0  0  0  0  0
    5.6179    0.8451    2.4642 N   0  0  0  0  0  0  0  0  0  0  0  0
    5.7828   -0.2839    3.2225 C   0  0  0  0  0  0  0  0  0  0  0  0
    5.0521   -0.4953    4.1507 O   0  0  0  0  0  0  0  0  0  0  0  0
    6.8405   -1.2237    2.9035 C   0  0  0  0  0  0  0  0  0  0  0  0
    7.0998   -2.3764    3.5839 N   0  0  0  0  0  0  0  0  0  0  0  0
    8.1662   -2.9824    2.9867 C   0  0  0  0  0  0  0  0  0  0  0  0
    8.5824   -2.2161    1.9238 C   0  0  0  0  0  0  0  0  0  0  0  0
    9.6677   -2.6544    1.1696 C   0  0  0  0  0  0  0  0  0  0  0  0
   10.3384   -3.8415    1.4504 C   0  0  0  0  0  0  0  0  0  0  0  0
    9.8988   -4.6042    2.5274 C   0  0  0  0  0  0  0  0  0  0  0  0
    8.8183   -4.1729    3.2899 C   0  0  0  0  0  0  0  0  0  0  0  0
   11.5206   -4.3316    0.6303 C   0  0  0  0  0  0  0  0  0  0  0  0
    7.7308   -1.0861    1.8799 C   0  0  0  0  0  0  0  0  0  0  0  0
    3.2013    0.8121    2.4917 C   0  0  0  0  0  0  0  0  0  0  0  0
    1.9859    1.4888    2.5066 C   0  0  0  0  0  0  0  0  0  0  0  0
   -1.1168    2.4238    4.1836 C   0  0  0  0  0  0  0  0  0  0  0  0
   -1.9266    3.3419    4.8438 C   0  0  0  0  0  0  0  0  0  0  0  0
   -2.3060    3.0958    6.1590 C   0  0  0  0  0  0  0  0  0  0  0  0
   -1.8742    1.9385    6.7981 C   0  0  0  0  0  0  0  0  0  0  0  0
   -2.2411    1.7099    8.0558 F   0  0  0  0  0  0  0  0  0  0  0  0
   -1.0646    1.0249    6.1324 C   0  0  0  0  0  0  0  0  0  0  0  0
   -0.6813    1.2649    4.8173 C   0  0  0  0  0  0  0  0  0  0  0  0
  1  2  2  0
  1  3  2  0
  1  4  1  0
  4  5  1  0
  5  6  2  0
  6  7  1  0
  7  8  2  0
  8  9  1  0
  9 10  1  0
 10 11  2  0
 10 12  1  0
 12 13  1  0
 13 14  1  0
 14 15  2  0
 15 16  1  0
 16 17  2  0
 17 18  1  0
 18 19  2  0
 19 14  1  0
 17 20  1  0
 15 21  1  0
 12 21  2  0
  8 22  1  0
 22 23  2  0
 23  5  1  0
  1 24  1  0
 24 25  2  0
 25 26  1  0
 26 27  2  0
 27 28  1  0
 27 29  1  0
 29 30  2  0
 30 24  1  0
M  END
$$$$
s_270196____11244138____8772466
     RDKit          3D

 33 37  0  0  0  0  0  0  0  0999 V2000
   14.1917   -1.3438   -4.9021 Br  0  0  0  0  0  0  0  0  0  0  0  0
   12.2396   -1.4821   -4.7847 C   0  0  0  0  0  0  0  0  0  0  0  0
   11.5283   -0.9351   -3.7196 C   0  0  0  0  0  0  0  0  0  0  0  0
   10.1424   -1.0397   -3.6435 C   0  0  0  0  0  0  0  0  0  0  0  0
    9.4796   -1.6977   -4.6539 C   0  0  0  0  0  0  0  0  0  0  0  0
    8.1391   -1.6865   -4.3893 N   0  0  0  0  0  0  0  0  0  0  0  0
    7.9497   -1.0187   -3.2157 C   0  0  0  0  0  0  0  0  0  0  0  0
    6.6651   -0.7851   -2.5841 C   0  0  0  0  0  0  0  0  0  0  0  0
    5.4960   -1.1742   -3.0359 N   0  0  0  0  0  0  0  0  0  0  0  0
    4.5999   -0.7963   -2.2230 O   0  0  0  0  0  0  0  0  0  0  0  0
    5.1562   -0.1529   -1.2255 C   0  0  0  0  0  0  0  0  0  0  0  0
    6.4509   -0.1262   -1.4153 N   0  0  0  0  0  0  0  0  0  0  0  0
    4.4540    0.4308   -0.0985 C   0  0  0  0  0  0  0  0  0  0  0  0
    3.0628    0.4374   -0.0860 C   0  0  0  0  0  0  0  0  0  0  0  0
    2.4002    1.0000    1.0000 C   0  0  0  0  0  0  0  0  0  0  0  0
    1.0000    1.0000    1.0000 N   0  0  0  0  0  0  0  0  0  0  0  0
    0.1850   -0.4116    0.9975 S   0  0  0  0  0  0  0  0  0  0  0  0
   -1.1907   -0.1710    0.6466 O   0  0  0  0  0  0  0  0  0  0  0  0
    0.7764   -1.3056    0.0360 O   0  0  0  0  0  0  0  0  0  0  0  0
    0.2627   -1.1288    2.5806 C   0  0  0  0  0  0  0  0  0  0  0  0
   -0.7175   -0.8295    3.5209 C   0  0  0  0  0  0  0  0  0  0  0  0
   -0.6497   -1.4055    4.7849 C   0  0  0  0  0  0  0  0  0  0  0  0
    0.3931   -2.2721    5.0947 C   0  0  0  0  0  0  0  0  0  0  0  0
    0.4513   -2.8192    6.3057 F   0  0  0  0  0  0  0  0  0  0  0  0
    1.3699   -2.5669    4.1502 C   0  0  0  0  0  0  0  0  0  0  0  0
    1.3082   -1.9942    2.8844 C   0  0  0  0  0  0  0  0  0  0  0  0
    3.1190    1.5485    2.0581 C   0  0  0  0  0  0  0  0  0  0  0  0
    4.5104    1.5359    2.0349 C   0  0  0  0  0  0  0  0  0  0  0  0
    5.1831    0.9758    0.9539 C   0  0  0  0  0  0  0  0  0  0  0  0
    2.3844    2.1593    3.2399 C   0  0  0  0  0  0  0  0  0  0  0  0
    9.1535   -0.6039   -2.7292 C   0  0  0  0  0  0  0  0  0  0  0  0
   10.1611   -2.2554   -5.7283 C   0  0  0  0  0  0  0  0  0  0  0  0
   11.5459   -2.1457   -5.7921 C   0  0  0  0  0  0  0  0  0  0  0  0
  1  2  1  0
  2  3  2  0
  3  4  1  0
  4  5  2  0
  5  6  1  0
  6  7  1  0
  7  8  1  0
  8  9  2  0
  9 10  1  0
 10 11  1  0
 11 12  2  0
 12  8  1  0
 11 13  1  0
 13 14  2  0
 14 15  1  0
 15 16  1  0
 16 17  1  0
 17 18  2  0
 17 19  2  0
 17 20  1  0
 20 21  2  0
 21 22  1  0
 22 23  2  0
 23 24  1  0
 23 25  1  0
 25 26  2  0
 26 20  1  0
 15 27  2  0
 27 28  1  0
 28 29  2  0
 29 13  1  0
 27 30  1  0
  7 31  2  0
 31  4  1  0
  5 32  1  0
 32 33  2  0
 33  2  1  0
M  END
$$$$
s_22____13022848____59626
     RDKit          3D

 31 34  0  0  0  0  0  0  0  0999 V2000
    0.2748   -4.2242   -1.3919 Br  0  0  0  0  0  0  0  0  0  0  0  0
    1.7612   -4.4695   -0.1367 C   0  0  0  0  0  0  0  0  0  0  0  0
    2.4259   -3.3808    0.4264 C   0  0  0  0  0  0  0  0  0  0  0  0
    3.4897   -3.5239    1.3180 C   0  0  0  0  0  0  0  0  0  0  0  0
    3.8747   -4.8124    1.6184 C   0  0  0  0  0  0  0  0  0  0  0  0
    4.9358   -4.7665    2.4819 N   0  0  0  0  0  0  0  0  0  0  0  0
    5.2469   -3.4685    2.7565 C   0  0  0  0  0  0  0  0  0  0  0  0
    4.3700   -2.6955    2.0557 C   0  0  0  0  0  0  0  0  0  0  0  0
    4.3489   -1.2950    2.0624 N   0  0  0  0  0  0  0  0  0  0  0  0
    3.2280   -0.6288    2.4827 C   0  0  0  0  0  0  0  0  0  0  0  0
    2.2643   -1.2451    2.8452 O   0  0  0  0  0  0  0  0  0  0  0  0
    3.2062    0.8215    2.4897 C   0  0  0  0  0  0  0  0  0  0  0  0
    1.9856    1.4890    2.5053 C   0  0  0  0  0  0  0  0  0  0  0  0
    1.9769    2.8800    2.5117 C   0  0  0  0  0  0  0  0  0  0  0  0
    0.7417    3.5392    2.5275 N   0  0  0  0  0  0  0  0  0  0  0  0
   -0.2972    3.3533    1.2854 S   0  0  0  0  0  0  0  0  0  0  0  0
   -1.3114    4.3735    1.3510 O   0  0  0  0  0  0  0  0  0  0  0  0
    0.4177    3.4666    0.0405 O   0  0  0  0  0  0  0  0  0  0  0  0
   -1.0446    1.7855    1.3842 C   0  0  0  0  0  0  0  0  0  0  0  0
   -2.0349    1.5534    2.3330 C   0  0  0  0  0  0  0  0  0  0  0  0
   -2.6282    0.2979    2.4075 C   0  0  0  0  0  0  0  0  0  0  0  0
   -2.2276   -0.7090    1.5356 C   0  0  0  0  0  0  0  0  0  0  0  0
   -2.7997   -1.9074    1.6128 F   0  0  0  0  0  0  0  0  0  0  0  0
   -1.2370   -0.4705    0.5896 C   0  0  0  0  0  0  0  0  0  0  0  0
   -0.6393    0.7827    0.5098 C   0  0  0  0  0  0  0  0  0  0  0  0
    3.1722    3.5930    2.5023 C   0  0  0  0  0  0  0  0  0  0  0  0
    4.3872    2.9146    2.4871 C   0  0  0  0  0  0  0  0  0  0  0  0
    4.4074    1.5237    2.4807 C   0  0  0  0  0  0  0  0  0  0  0  0
    3.1505    5.1125    2.5107 C   0  0  0  0  0  0  0  0  0  0  0  0
    3.2294   -5.9228    1.0814 C   0  0  0  0  0  0  0  0  0  0  0  0
    2.1662   -5.7580    0.1983 C   0  0  0  0  0  0  0  0  0  0  0  0
  1  2  1  0
  2  3  2  0
  3  4  1  0
  4  5  2  0
  5  6  1  0
  6  7  1  0
  7  8  2  0
  8  4  1  0
  8  9  1  0
  9 10  1  0
 10 11  2  0
 10 12  1  0
 12 13  2  0
 13 14  1  0
 14 15  1  0
 15 16  1  0
 16 17  2  0
 16 18  2  0
 16 19  1  0
 19 20  2  0
 20 21  1  0
 21 22  2  0
 22 23  1  0
 22 24  1  0
 24 25  2  0
 25 19  1  0
 14 26  2  0
 26 27  1  0
 27 28  2  0
 28 12  1  0
 26 29  1  0
  5 30  1  0
 30 31  2  0
 31  2  1  0
M  END
$$$$
m_276910____14484250____14486152
     RDKit          3D

 31 35  0  0  0  0  0  0  0  0999 V2000
    2.5437    6.9747    3.3724 S   0  0  0  0  0  0  0  0  0  0  0  0
    3.8504    7.1777    3.9424 O   0  0  0  0  0  0  0  0  0  0  0  0
    2.6138    7.1328    1.9428 O   0  0  0  0  0  0  0  0  0  0  0  0
    2.0233    5.4715    3.7280 N   0  0  0  0  0  0  0  0  0  0  0  0
    0.8735    4.9643    3.1103 C   0  0  0  0  0  0  0  0  0  0  0  0
    0.8696    3.7122    2.5034 C   0  0  0  0  0  0  0  0  0  0  0  0
   -0.2892    3.2363    1.8984 C   0  0  0  0  0  0  0  0  0  0  0  0
   -1.4433    4.0128    1.8987 C   0  0  0  0  0  0  0  0  0  0  0  0
   -1.4391    5.2646    2.5054 C   0  0  0  0  0  0  0  0  0  0  0  0
   -0.2804    5.7402    3.1112 C   0  0  0  0  0  0  0  0  0  0  0  0
    2.0731    2.9029    2.5021 C   0  0  0  0  0  0  0  0  0  0  0  0
    3.3013    3.3623    2.5054 N   0  0  0  0  0  0  0  0  0  0  0  0
    4.1318    2.3463    2.5039 N   0  0  0  0  0  0  0  0  0  0  0  0
    3.3784    1.2115    2.4985 C   0  0  0  0  0  0  0  0  0  0  0  0
    2.1104    1.5412    2.4971 N   0  0  0  0  0  0  0  0  0  0  0  0
    3.9201   -0.2087    2.4922 C   0  0  0  0  0  0  0  0  0  0  0  0
    4.1044   -0.6744    1.0566 C   0  0  0  0  0  0  0  0  0  0  0  0
    5.1956   -0.3457    0.2208 C   0  0  0  0  0  0  0  0  0  0  0  0
    4.9355   -0.9854   -0.9702 C   0  0  0  0  0  0  0  0  0  0  0  0
    3.7556   -1.6677   -0.8768 N   0  0  0  0  0  0  0  0  0  0  0  0
    3.2389   -1.4766    0.3713 C   0  0  0  0  0  0  0  0  0  0  0  0
    5.8169   -0.8827   -2.0398 C   0  0  0  0  0  0  0  0  0  0  0  0
    6.9813   -0.1306   -1.9289 C   0  0  0  0  0  0  0  0  0  0  0  0
    7.2575    0.5206   -0.7307 C   0  0  0  0  0  0  0  0  0  0  0  0
    6.3624    0.4054    0.3283 C   0  0  0  0  0  0  0  0  0  0  0  0
    5.5236   -1.5910   -3.3517 C   0  0  0  0  0  0  0  0  0  0  0  0
    1.4352    8.1436    4.0317 C   0  0  0  0  0  0  0  0  0  0  0  0
    1.2314    8.4730    5.6872 S   0  0  0  0  0  0  0  0  0  0  0  0
    0.0264    9.6701    5.5421 C   0  0  0  0  0  0  0  0  0  0  0  0
   -0.1955    9.7881    4.2018 C   0  0  0  0  0  0  0  0  0  0  0  0
    0.5773    8.9509    3.3502 C   0  0  0  0  0  0  0  0  0  0  0  0
  1  2  2  0
  1  3  2  0
  1  4  1  0
  4  5  1  0
  5  6  1  0
  6  7  2  0
  7  8  1  0
  8  9  2  0
  9 10  1  0
 10  5  2  0
  6 11  1  0
 11 12  2  0
 12 13  1  0
 13 14  1  0
 14 15  2  0
 15 11  1  0
 14 16  1  0
 16 17  1  0
 17 18  1  0
 18 19  2  0
 19 20  1  0
 20 21  1  0
 17 21  2  0
 19 22  1  0
 22 23  2  0
 23 24  1  0
 24 25  2  0
 25 18  1  0
 22 26  1  0
  1 27  1  0
 27 28  1  0
 28 29  1  0
 29 30  2  0
 30 31  1  0
 27 31  2  0
M  END
$$$$
s_60____90602____5455734
     RDKit          3D

 33 37  0  0  0  0  0  0  0  0999 V2000
    1.0000    1.0000    1.0000 S   0  0  0  0  0  0  0  0  0  0  0  0
   -0.2371    0.7229    1.6829 O   0  0  0  0  0  0  0  0  0  0  0  0
    1.6829   -0.2371    0.7229 O   0  0  0  0  0  0  0  0  0  0  0  0
    1.9411    1.9411    1.9411 N   0  0  0  0  0  0  0  0  0  0  0  0
    1.4151    3.1033    2.5170 C   0  0  0  0  0  0  0  0  0  0  0  0
    1.9847    4.3361    2.2164 C   0  0  0  0  0  0  0  0  0  0  0  0
    1.4535    5.4840    2.7950 C   0  0  0  0  0  0  0  0  0  0  0  0
    0.3692    5.4110    3.6629 C   0  0  0  0  0  0  0  0  0  0  0  0
   -0.1842    4.1668    3.9484 C   0  0  0  0  0  0  0  0  0  0  0  0
    0.3303    3.0059    3.3816 C   0  0  0  0  0  0  0  0  0  0  0  0
    2.0720    6.8342    2.4707 C   0  0  0  0  0  0  0  0  0  0  0  0
    1.4681    7.3542    1.4059 F   0  0  0  0  0  0  0  0  0  0  0  0
    1.9213    7.6517    3.5090 F   0  0  0  0  0  0  0  0  0  0  0  0
    3.3675    6.6783    2.2136 F   0  0  0  0  0  0  0  0  0  0  0  0
    0.6652    1.8250   -0.4947 C   0  0  0  0  0  0  0  0  0  0  0  0
    1.5275    1.6494   -1.5717 C   0  0  0  0  0  0  0  0  0  0  0  0
    1.2886    2.2944   -2.7805 C   0  0  0  0  0  0  0  0  0  0  0  0
    1.9596    2.2983   -3.9688 N   0  0  0  0  0  0  0  0  0  0  0  0
    1.3111    3.0805   -4.8006 C   0  0  0  0  0  0  0  0  0  0  0  0
    0.2128    3.6037   -4.1853 N   0  0  0  0  0  0  0  0  0  0  0  0
    0.1941    3.1127   -2.9137 C   0  0  0  0  0  0  0  0  0  0  0  0
   -0.6715    3.2909   -1.8399 C   0  0  0  0  0  0  0  0  0  0  0  0
   -0.4455    2.6519   -0.6253 C   0  0  0  0  0  0  0  0  0  0  0  0
    1.7050    3.3483   -6.1707 C   0  0  0  0  0  0  0  0  0  0  0  0
    1.0639    4.1287   -7.0064 O   0  0  0  0  0  0  0  0  0  0  0  0
    1.6877    4.1507   -8.1690 C   0  0  0  0  0  0  0  0  0  0  0  0
    2.8045    3.3478   -8.1093 C   0  0  0  0  0  0  0  0  0  0  0  0
    3.6206    3.2305   -9.2319 C   0  0  0  0  0  0  0  0  0  0  0  0
    3.3420    3.9014  -10.4205 C   0  0  0  0  0  0  0  0  0  0  0  0
    2.2100    4.7084  -10.4652 C   0  0  0  0  0  0  0  0  0  0  0  0
    1.3919    4.8293   -9.3471 C   0  0  0  0  0  0  0  0  0  0  0  0
    4.2325    3.7764  -11.6499 C   0  0  0  0  0  0  0  0  0  0  0  0
    2.8002    2.8307   -6.7945 C   0  0  0  0  0  0  0  0  0  0  0  0
  1  2  2  0
  1  3  2  0
  1  4  1  0
  4  5  1  0
  5  6  2  0
  6  7  1  0
  7  8  2  0
  8  9  1  0
  9 10  2  0
 10  5  1  0
  7 11  1  0
 11 12  1  0
 11 13  1  0
 11 14  1  0
  1 15  1  0
 15 16  2  0
 16 17  1  0
 17 18  1  0
 18 19  2  0
 19 20  1  0
 20 21  1  0
 21 17  2  0
 21 22  1  0
 22 23  2  0
 23 15  1  0
 19 24  1  0
 24 25  1  0
 25 26  1  0
 26 27  2  0
 27 28  1  0
 28 29  2  0
 29 30  1  0
 30 31  2  0
 31 26  1  0
 29 32  1  0
 27 33  1  0
 24 33  2  0
M  END
$$$$
s_60____90603____16664868
     RDKit          3D

 31 35  0  0  0  0  0  0  0  0999 V2000
    6.3729   -8.5747    5.7430 Br  0  0  0  0  0  0  0  0  0  0  0  0
    6.1138   -8.4598    3.8035 C   0  0  0  0  0  0  0  0  0  0  0  0
    5.6465   -7.2897    3.2107 C   0  0  0  0  0  0  0  0  0  0  0  0
    5.4458   -7.1804    1.8366 C   0  0  0  0  0  0  0  0  0  0  0  0
    5.7620   -8.3574    1.2107 C   0  0  0  0  0  0  0  0  0  0  0  0
    5.4937   -8.1712   -0.4531 S   0  0  0  0  0  0  0  0  0  0  0  0
    4.9595   -6.5538   -0.4012 C   0  0  0  0  0  0  0  0  0  0  0  0
    5.0068   -6.1938    0.9116 C   0  0  0  0  0  0  0  0  0  0  0  0
    4.5981   -4.8430    1.2402 C   0  0  0  0  0  0  0  0  0  0  0  0
    4.1951   -3.9448    0.3713 N   0  0  0  0  0  0  0  0  0  0  0  0
    3.8988   -2.7998    1.0522 C   0  0  0  0  0  0  0  0  0  0  0  0
    4.1351   -3.0307    2.3849 C   0  0  0  0  0  0  0  0  0  0  0  0
    4.5750   -4.3161    2.4974 N   0  0  0  0  0  0  0  0  0  0  0  0
    3.9120   -2.0191    3.3127 C   0  0  0  0  0  0  0  0  0  0  0  0
    3.4492   -0.7702    2.9119 C   0  0  0  0  0  0  0  0  0  0  0  0
    3.2099   -0.5414    1.5610 C   0  0  0  0  0  0  0  0  0  0  0  0
    2.6300    1.0000    1.0000 S   0  0  0  0  0  0  0  0  0  0  0  0
    3.1100    1.2358   -0.3370 O   0  0  0  0  0  0  0  0  0  0  0  0
    3.1100    2.0400    1.8727 O   0  0  0  0  0  0  0  0  0  0  0  0
    1.0000    1.0000    1.0000 N   0  0  0  0  0  0  0  0  0  0  0  0
    0.3000    1.0000    2.2125 C   0  0  0  0  0  0  0  0  0  0  0  0
   -0.7167    0.0737    2.4189 C   0  0  0  0  0  0  0  0  0  0  0  0
   -1.0228   -0.8186    1.4535 O   0  0  0  0  0  0  0  0  0  0  0  0
   -2.0609   -1.7644    1.6643 C   0  0  0  0  0  0  0  0  0  0  0  0
   -1.4226    0.0589    3.6173 C   0  0  0  0  0  0  0  0  0  0  0  0
   -1.0963    0.9834    4.6037 C   0  0  0  0  0  0  0  0  0  0  0  0
   -0.0810    1.9119    4.4012 C   0  0  0  0  0  0  0  0  0  0  0  0
    0.6225    1.9228    3.2021 C   0  0  0  0  0  0  0  0  0  0  0  0
    3.4353   -1.5560    0.6369 C   0  0  0  0  0  0  0  0  0  0  0  0
    6.2323   -9.5633    1.6904 C   0  0  0  0  0  0  0  0  0  0  0  0
    6.4110   -9.5944    3.0599 C   0  0  0  0  0  0  0  0  0  0  0  0
  1  2  1  0
  2  3  2  0
  3  4  1  0
  4  5  2  0
  5  6  1  0
  6  7  1  0
  7  8  2  0
  8  4  1  0
  8  9  1  0
  9 10  2  0
 10 11  1  0
 11 12  2  0
 12 13  1  0
 13  9  1  0
 12 14  1  0
 14 15  2  0
 15 16  1  0
 16 17  1  0
 17 18  2  0
 17 19  2  0
 17 20  1  0
 20 21  1  0
 21 22  2  0
 22 23  1  0
 23 24  1  0
 22 25  1  0
 25 26  2  0
 26 27  1  0
 27 28  2  0
 28 21  1  0
 16 29  2  0
 29 11  1  0
  5 30  1  0
 30 31  2  0
 31  2  1  0
M  END
$$$$
s_4____66094____1317954
     RDKit          3D

 33 36  0  0  0  0  0  0  0  0999 V2000
    5.4790    2.8069    6.8995 Cl  0  0  0  0  0  0  0  0  0  0  0  0
    6.4148    2.9643    5.3936 C   0  0  0  0  0  0  0  0  0  0  0  0
    6.5624    1.8643    4.5549 C   0  0  0  0  0  0  0  0  0  0  0  0
    7.2973    2.0073    3.3828 C   0  0  0  0  0  0  0  0  0  0  0  0
    7.4485    0.9025    2.5365 N   0  0  0  0  0  0  0  0  0  0  0  0
    6.9047    0.9714    1.0015 S   0  0  0  0  0  0  0  0  0  0  0  0
    7.3781   -0.1767    0.2726 O   0  0  0  0  0  0  0  0  0  0  0  0
    7.3909    2.1726    0.3734 O   0  0  0  0  0  0  0  0  0  0  0  0
    5.1647    0.9809    1.0016 C   0  0  0  0  0  0  0  0  0  0  0  0
    4.4774   -0.2271    1.0554 C   0  0  0  0  0  0  0  0  0  0  0  0
    3.0868   -0.2077    1.0547 C   0  0  0  0  0  0  0  0  0  0  0  0
    2.3794   -1.4150    1.1084 N   0  0  0  0  0  0  0  0  0  0  0  0
    2.6572   -2.3196    0.3385 O   0  0  0  0  0  0  0  0  0  0  0  0
    1.4925   -1.5610    1.9186 O   0  0  0  0  0  0  0  0  0  0  0  0
    2.4000    1.0000    1.0000 C   0  0  0  0  0  0  0  0  0  0  0  0
    1.0000    1.0000    1.0000 N   0  0  0  0  0  0  0  0  0  0  0  0
    0.3150    2.1854    1.0498 N   0  0  0  0  0  0  0  0  0  0  0  0
   -0.9350    2.1854    1.0498 C   0  0  0  0  0  0  0  0  0  0  0  0
   -1.6601    3.0324    0.1225 C   0  0  0  0  0  0  0  0  0  0  0  0
   -2.0780    2.6788   -1.1843 C   0  0  0  0  0  0  0  0  0  0  0  0
   -2.7186    3.8066   -1.6589 C   0  0  0  0  0  0  0  0  0  0  0  0
   -2.6767    4.7688   -0.6881 N   0  0  0  0  0  0  0  0  0  0  0  0
   -2.0293    4.3090    0.4154 C   0  0  0  0  0  0  0  0  0  0  0  0
   -3.2481    3.8063   -2.9456 C   0  0  0  0  0  0  0  0  0  0  0  0
   -3.1451    2.6853   -3.7615 C   0  0  0  0  0  0  0  0  0  0  0  0
   -2.4989    1.5456   -3.2968 C   0  0  0  0  0  0  0  0  0  0  0  0
   -1.9708    1.5570   -2.0100 C   0  0  0  0  0  0  0  0  0  0  0  0
   -1.2730    0.2833   -1.5594 C   0  0  0  0  0  0  0  0  0  0  0  0
    3.0954    2.2032    0.9470 C   0  0  0  0  0  0  0  0  0  0  0  0
    4.4863    2.1944    0.9478 C   0  0  0  0  0  0  0  0  0  0  0  0
    7.8778    3.2267    3.0491 C   0  0  0  0  0  0  0  0  0  0  0  0
    7.7227    4.3190    3.8962 C   0  0  0  0  0  0  0  0  0  0  0  0
    6.9899    4.1893    5.0716 C   0  0  0  0  0  0  0  0  0  0  0  0
  1  2  1  0
  2  3  2  0
  3  4  1  0
  4  5  1  0
  5  6  1  0
  6  7  2  0
  6  8  2  0
  6  9  1  0
  9 10  2  0
 10 11  1  0
 11 12  1  0
 12 13  1  0
 12 14  2  0
 11 15  2  0
 15 16  1  0
 16 17  1  0
 17 18  2  0
 18 19  1  0
 19 20  1  0
 20 21  2  0
 21 22  1  0
 22 23  1  0
 19 23  2  0
 21 24  1  0
 24 25  2  0
 25 26  1  0
 26 27  2  0
 27 20  1  0
 27 28  1  0
 15 29  1  0
 29 30  2  0
 30  9  1  0
  4 31  2  0
 31 32  1  0
 32 33  2  0
 33  2  1  0
M  CHG  2  12   1  13  -1
M  END
$$$$
s_4____66185____1159878
     RDKit          3D

 32 35  0  0  0  0  0  0  0  0999 V2000
    6.7099   -4.1343    6.0246 Br  0  0  0  0  0  0  0  0  0  0  0  0
    6.9320   -2.5302    4.9208 C   0  0  0  0  0  0  0  0  0  0  0  0
    7.9923   -2.4487    4.0235 C   0  0  0  0  0  0  0  0  0  0  0  0
    8.1424   -1.3063    3.2442 C   0  0  0  0  0  0  0  0  0  0  0  0
    7.2331   -0.2608    3.3709 C   0  0  0  0  0  0  0  0  0  0  0  0
    7.4298    1.1650    2.3925 S   0  0  0  0  0  0  0  0  0  0  0  0
    8.8278    1.3648    2.1109 O   0  0  0  0  0  0  0  0  0  0  0  0
    6.9147    2.3080    3.1008 O   0  0  0  0  0  0  0  0  0  0  0  0
    6.6147    0.9803    0.9930 N   0  0  0  0  0  0  0  0  0  0  0  0
    5.2153    0.9811    0.9931 C   0  0  0  0  0  0  0  0  0  0  0  0
    4.5197   -0.1319    0.5321 C   0  0  0  0  0  0  0  0  0  0  0  0
    3.1287   -0.1224    0.5361 C   0  0  0  0  0  0  0  0  0  0  0  0
    2.4501    1.0000    1.0000 C   0  0  0  0  0  0  0  0  0  0  0  0
    3.1449    2.1129    1.4607 C   0  0  0  0  0  0  0  0  0  0  0  0
    4.5359    2.1034    1.4570 C   0  0  0  0  0  0  0  0  0  0  0  0
    1.0000    1.0000    1.0000 C   0  0  0  0  0  0  0  0  0  0  0  0
    0.4000   -0.0383    0.9555 O   0  0  0  0  0  0  0  0  0  0  0  0
    0.3150    2.1854    1.0508 N   0  0  0  0  0  0  0  0  0  0  0  0
   -1.0550    2.1854    1.0508 N   0  0  0  0  0  0  0  0  0  0  0  0
   -1.6800    3.2669    1.0972 C   0  0  0  0  0  0  0  0  0  0  0  0
   -3.1298    3.2669    1.0972 C   0  0  0  0  0  0  0  0  0  0  0  0
   -3.9489    4.4186    1.1466 C   0  0  0  0  0  0  0  0  0  0  0  0
   -5.2364    3.9256    1.1230 C   0  0  0  0  0  0  0  0  0  0  0  0
   -5.2119    2.5618    1.0656 N   0  0  0  0  0  0  0  0  0  0  0  0
   -3.9112    2.1506    1.0493 C   0  0  0  0  0  0  0  0  0  0  0  0
   -6.3188    4.7984    1.1576 C   0  0  0  0  0  0  0  0  0  0  0  0
   -6.1260    6.1748    1.2164 C   0  0  0  0  0  0  0  0  0  0  0  0
   -4.8297    6.6798    1.2412 C   0  0  0  0  0  0  0  0  0  0  0  0
   -3.7560    5.7952    1.2057 C   0  0  0  0  0  0  0  0  0  0  0  0
   -7.3201    7.1144    1.2516 C   0  0  0  0  0  0  0  0  0  0  0  0
    6.1730   -0.3419    4.2681 C   0  0  0  0  0  0  0  0  0  0  0  0
    6.0232   -1.4841    5.0467 C   0  0  0  0  0  0  0  0  0  0  0  0
  1  2  1  0
  2  3  2  0
  3  4  1  0
  4  5  2  0
  5  6  1  0
  6  7  2  0
  6  8  2  0
  6  9  1  0
  9 10  1  0
 10 11  2  0
 11 12  1  0
 12 13  2  0
 13 14  1  0
 14 15  2  0
 15 10  1  0
 13 16  1  0
 16 17  2  0
 16 18  1  0
 18 19  1  0
 19 20  2  0
 20 21  1  0
 21 22  1  0
 22 23  2  0
 23 24  1  0
 24 25  1  0
 21 25  2  0
 23 26  1  0
 26 27  2  0
 27 28  1  0
 28 29  2  0
 29 22  1  0
 27 30  1  0
  5 31  1  0
 31 32  2  0
 32  2  1  0
M  END
$$$$
s_20____1137306____79204
     RDKit          3D

 27 30  0  0  0  0  0  0  0  0999 V2000
    6.4743    0.0222   -3.4876 Cl  0  0  0  0  0  0  0  0  0  0  0  0
    7.8661    0.9060   -2.8155 C   0  0  0  0  0  0  0  0  0  0  0  0
    7.7885    1.4609   -1.5422 C   0  0  0  0  0  0  0  0  0  0  0  0
    8.8767    2.1501   -1.0170 C   0  0  0  0  0  0  0  0  0  0  0  0
   10.0409    2.2861   -1.7654 C   0  0  0  0  0  0  0  0  0  0  0  0
   10.1177    1.7316   -3.0389 C   0  0  0  0  0  0  0  0  0  0  0  0
    9.0305    1.0415   -3.5634 C   0  0  0  0  0  0  0  0  0  0  0  0
    6.5748    1.3192   -0.7617 C   0  0  0  0  0  0  0  0  0  0  0  0
    5.3562    1.4076   -1.2406 N   0  0  0  0  0  0  0  0  0  0  0  0
    4.4791    1.2218   -0.2116 C   0  0  0  0  0  0  0  0  0  0  0  0
    5.2103    1.0100    0.9292 C   0  0  0  0  0  0  0  0  0  0  0  0
    6.5295    1.0749    0.5789 N   0  0  0  0  0  0  0  0  0  0  0  0
    4.5314    0.7929    2.1235 C   0  0  0  0  0  0  0  0  0  0  0  0
    3.1412    0.7875    2.1586 C   0  0  0  0  0  0  0  0  0  0  0  0
    2.4015    1.0000    1.0000 C   0  0  0  0  0  0  0  0  0  0  0  0
    1.0000    1.0000    1.0000 N   0  0  0  0  0  0  0  0  0  0  0  0
    0.1850   -0.4116    0.9903 S   0  0  0  0  0  0  0  0  0  0  0  0
    0.7008   -1.2707    2.0244 O   0  0  0  0  0  0  0  0  0  0  0  0
   -1.2129   -0.1604    1.2278 O   0  0  0  0  0  0  0  0  0  0  0  0
    0.3809   -1.1837   -0.5563 C   0  0  0  0  0  0  0  0  0  0  0  0
    1.4419   -2.0599   -0.7589 C   0  0  0  0  0  0  0  0  0  0  0  0
    1.5936   -2.6735   -1.9976 C   0  0  0  0  0  0  0  0  0  0  0  0
    0.6861   -2.4066   -3.0172 C   0  0  0  0  0  0  0  0  0  0  0  0
    0.8375   -2.9973   -4.1993 F   0  0  0  0  0  0  0  0  0  0  0  0
   -0.3723   -1.5295   -2.8082 C   0  0  0  0  0  0  0  0  0  0  0  0
   -0.5297   -0.9122   -1.5719 C   0  0  0  0  0  0  0  0  0  0  0  0
    3.0903    1.2174   -0.1870 C   0  0  0  0  0  0  0  0  0  0  0  0
  1  2  1  0
  2  3  2  0
  3  4  1  0
  4  5  2  0
  5  6  1  0
  6  7  2  0
  7  2  1  0
  3  8  1  0
  8  9  2  0
  9 10  1  0
 10 11  2  0
 11 12  1  0
 12  8  1  0
 11 13  1  0
 13 14  2  0
 14 15  1  0
 15 16  1  0
 16 17  1  0
 17 18  2  0
 17 19  2  0
 17 20  1  0
 20 21  2  0
 21 22  1  0
 22 23  2  0
 23 24  1  0
 23 25  1  0
 25 26  2  0
 26 20  1  0
 15 27  2  0
 27 10  1  0
M  END
$$$$
m_270942____8687892____9830432____14067754
     RDKit          3D

 35 39  0  0  0  0  0  0  0  0999 V2000
    4.6902    5.9779    2.5477 S   0  0  0  0  0  0  0  0  0  0  0  0
    4.5682    7.3805    2.2451 O   0  0  0  0  0  0  0  0  0  0  0  0
    4.5011    5.7734    3.9605 O   0  0  0  0  0  0  0  0  0  0  0  0
    3.5593    5.1436    1.7218 N   0  0  0  0  0  0  0  0  0  0  0  0
    3.1154    3.9052    2.1995 C   0  0  0  0  0  0  0  0  0  0  0  0
    2.3128    3.1061    1.3919 C   0  0  0  0  0  0  0  0  0  0  0  0
    1.8777    1.8777    1.8777 C   0  0  0  0  0  0  0  0  0  0  0  0
    2.2337    1.4454    3.1508 C   0  0  0  0  0  0  0  0  0  0  0  0
    3.0375    2.2617    3.9403 C   0  0  0  0  0  0  0  0  0  0  0  0
    3.4844    3.4937    3.4756 C   0  0  0  0  0  0  0  0  0  0  0  0
    1.0000    1.0000    1.0000 C   0  0  0  0  0  0  0  0  0  0  0  0
    1.7961    0.4729   -0.1177 N   0  0  0  0  0  0  0  0  0  0  0  0
    2.9222   -0.3218    0.1374 C   0  0  0  0  0  0  0  0  0  0  0  0
    4.1595    0.0847    0.2799 N   0  0  0  0  0  0  0  0  0  0  0  0
    4.9698   -0.9251    0.5066 N   0  0  0  0  0  0  0  0  0  0  0  0
    4.2515   -2.0253    0.5144 C   0  0  0  0  0  0  0  0  0  0  0  0
    2.9590   -1.6715    0.2841 N   0  0  0  0  0  0  0  0  0  0  0  0
    1.8074   -2.5831    0.2082 C   0  0  0  0  0  0  0  0  0  0  0  0
    4.7516   -3.3696    0.7299 C   0  0  0  0  0  0  0  0  0  0  0  0
    4.0343   -4.5143    0.5460 N   0  0  0  0  0  0  0  0  0  0  0  0
    4.8445   -5.5681    0.8527 C   0  0  0  0  0  0  0  0  0  0  0  0
    6.0786   -5.0928    1.2283 C   0  0  0  0  0  0  0  0  0  0  0  0
    7.0654   -6.0075    1.5864 C   0  0  0  0  0  0  0  0  0  0  0  0
    6.8471   -7.3823    1.5703 C   0  0  0  0  0  0  0  0  0  0  0  0
    5.5929   -7.8427    1.1832 C   0  0  0  0  0  0  0  0  0  0  0  0
    4.5989   -6.9369    0.8278 C   0  0  0  0  0  0  0  0  0  0  0  0
    7.9214   -8.3917    1.9551 C   0  0  0  0  0  0  0  0  0  0  0  0
    6.0101   -3.6808    1.1527 C   0  0  0  0  0  0  0  0  0  0  0  0
    1.4112    0.7793   -1.5030 C   0  0  0  0  0  0  0  0  0  0  0  0
    6.2729    5.4209    2.0878 C   0  0  0  0  0  0  0  0  0  0  0  0
    6.9371    6.0240    1.0246 C   0  0  0  0  0  0  0  0  0  0  0  0
    8.2024    5.5689    0.6675 C   0  0  0  0  0  0  0  0  0  0  0  0
    8.7968    4.5221    1.3644 C   0  0  0  0  0  0  0  0  0  0  0  0
    8.1237    3.9255    2.4254 C   0  0  0  0  0  0  0  0  0  0  0  0
    6.8584    4.3727    2.7911 C   0  0  0  0  0  0  0  0  0  0  0  0
  1  2  2  0
  1  3  2  0
  1  4  1  0
  4  5  1  0
  5  6  2  0
  6  7  1  0
  7  8  2  0
  8  9  1  0
  9 10  2  0
 10  5  1  0
  7 11  1  0
 11 12  1  0
 12 13  1  0
 13 14  2  0
 14 15  1  0
 15 16  2  0
 16 17  1  0
 17 13  1  0
 17 18  1  0
 16 19  1  0
 19 20  1  0
 20 21  1  0
 21 22  2  0
 22 23  1  0
 23 24  2  0
 24 25  1  0
 25 26  2  0
 26 21  1  0
 24 27  1  0
 22 28  1  0
 19 28  2  0
 12 29  1  0
  1 30  1  0
 30 31  2  0
 31 32  1  0
 32 33  2  0
 33 34  1  0
 34 35  2  0
 35 30  1  0
M  END
$$$$
s_27c____5343226____11246302
     RDKit          3D

 33 37  0  0  0  0  0  0  0  0999 V2000
    2.0451    5.9598    8.9733 Cl  0  0  0  0  0  0  0  0  0  0  0  0
    1.3837    5.2211    7.4945 C   0  0  0  0  0  0  0  0  0  0  0  0
    0.5810    5.9759    6.6458 C   0  0  0  0  0  0  0  0  0  0  0  0
    0.0682    5.3912    5.4924 C   0  0  0  0  0  0  0  0  0  0  0  0
    0.3627    4.0630    5.2017 C   0  0  0  0  0  0  0  0  0  0  0  0
   -0.2830    3.3401    3.7565 S   0  0  0  0  0  0  0  0  0  0  0  0
   -1.5436    3.9566    3.4334 O   0  0  0  0  0  0  0  0  0  0  0  0
   -0.4795    1.9299    3.9717 O   0  0  0  0  0  0  0  0  0  0  0  0
    0.7615    3.5615    2.5249 N   0  0  0  0  0  0  0  0  0  0  0  0
    1.9825    2.8774    2.5113 C   0  0  0  0  0  0  0  0  0  0  0  0
    3.1724    3.5978    2.5023 C   0  0  0  0  0  0  0  0  0  0  0  0
    4.3794    2.9069    2.4885 C   0  0  0  0  0  0  0  0  0  0  0  0
    4.4073    1.5164    2.4834 C   0  0  0  0  0  0  0  0  0  0  0  0
    3.2044    0.8172    2.4929 C   0  0  0  0  0  0  0  0  0  0  0  0
    1.9858    1.4868    2.5068 C   0  0  0  0  0  0  0  0  0  0  0  0
    5.6831    3.6886    2.4782 C   0  0  0  0  0  0  0  0  0  0  0  0
    6.1168    3.9364    3.8607 N   0  0  0  0  0  0  0  0  0  0  0  0
    6.9475    3.0137    4.5106 C   0  0  0  0  0  0  0  0  0  0  0  0
    7.3291    1.9155    3.8433 N   0  0  0  0  0  0  0  0  0  0  0  0
    8.1228    0.9998    4.4199 C   0  0  0  0  0  0  0  0  0  0  0  0
    8.5342    1.1928    5.6829 N   0  0  0  0  0  0  0  0  0  0  0  0
    8.1748    2.2762    6.3888 C   0  0  0  0  0  0  0  0  0  0  0  0
    8.4613    2.6593    7.6749 N   0  0  0  0  0  0  0  0  0  0  0  0
    7.8789    3.8555    7.9619 C   0  0  0  0  0  0  0  0  0  0  0  0
    7.1959    4.2285    6.8246 C   0  0  0  0  0  0  0  0  0  0  0  0
    7.3685    3.2315    5.8202 C   0  0  0  0  0  0  0  0  0  0  0  0
    6.5075    5.4385    6.8688 C   0  0  0  0  0  0  0  0  0  0  0  0
    6.5054    6.2416    8.0043 C   0  0  0  0  0  0  0  0  0  0  0  0
    7.2047    5.8411    9.1390 C   0  0  0  0  0  0  0  0  0  0  0  0
    7.2118    6.5996   10.2308 F   0  0  0  0  0  0  0  0  0  0  0  0
    7.8979    4.6350    9.1141 C   0  0  0  0  0  0  0  0  0  0  0  0
    1.1653    3.3060    6.0490 C   0  0  0  0  0  0  0  0  0  0  0  0
    1.6763    3.8930    7.2018 C   0  0  0  0  0  0  0  0  0  0  0  0
  1  2  1  0
  2  3  2  0
  3  4  1  0
  4  5  2  0
  5  6  1  0
  6  7  2  0
  6  8  2  0
  6  9  1  0
  9 10  1  0
 10 11  2  0
 11 12  1  0
 12 13  2  0
 13 14  1  0
 14 15  2  0
 15 10  1  0
 12 16  1  0
 16 17  1  0
 17 18  1  0
 18 19  2  0
 19 20  1  0
 20 21  2  0
 21 22  1  0
 22 23  1  0
 23 24  1  0
 24 25  2  0
 25 26  1  0
 26 22  2  0
 26 18  1  0
 25 27  1  0
 27 28  2  0
 28 29  1  0
 29 30  1  0
 29 31  2  0
 31 24  1  0
  5 32  1  0
 32 33  2  0
 33  2  1  0
M  END
$$$$
s_271570____11829988____13775844
     RDKit          3D

 26 29  0  0  0  0  0  0  0  0999 V2000
    6.6338    3.4353    1.2502 S   0  0  0  0  0  0  0  0  0  0  0  0
    7.8799    4.0761    1.5820 O   0  0  0  0  0  0  0  0  0  0  0  0
    6.8607    2.0308    1.0274 O   0  0  0  0  0  0  0  0  0  0  0  0
    5.5801    3.6272    2.4789 N   0  0  0  0  0  0  0  0  0  0  0  0
    4.3737    2.9176    2.4835 C   0  0  0  0  0  0  0  0  0  0  0  0
    3.1433    3.5664    2.4932 C   0  0  0  0  0  0  0  0  0  0  0  0
    2.0017    2.8611    2.4979 N   0  0  0  0  0  0  0  0  0  0  0  0
    1.9994    1.5191    2.4940 C   0  0  0  0  0  0  0  0  0  0  0  0
    3.2043    0.8207    2.4847 C   0  0  0  0  0  0  0  0  0  0  0  0
    4.4026    1.5272    2.4796 C   0  0  0  0  0  0  0  0  0  0  0  0
    3.2281   -0.6291    2.4827 C   0  0  0  0  0  0  0  0  0  0  0  0
    3.9784   -1.4301    1.5907 C   0  0  0  0  0  0  0  0  0  0  0  0
    3.6894   -2.7207    1.9619 C   0  0  0  0  0  0  0  0  0  0  0  0
    2.8159   -2.7048    3.0131 N   0  0  0  0  0  0  0  0  0  0  0  0
    2.5237   -1.4156    3.3425 C   0  0  0  0  0  0  0  0  0  0  0  0
    4.2755   -3.7810    1.2765 C   0  0  0  0  0  0  0  0  0  0  0  0
    5.1463   -3.5574    0.2138 C   0  0  0  0  0  0  0  0  0  0  0  0
    5.4437   -2.2581   -0.1805 C   0  0  0  0  0  0  0  0  0  0  0  0
    4.8490   -1.2117    0.5219 C   0  0  0  0  0  0  0  0  0  0  0  0
    6.3938   -2.0286   -1.3492 C   0  0  0  0  0  0  0  0  0  0  0  0
    5.9788    4.1530   -0.1929 C   0  0  0  0  0  0  0  0  0  0  0  0
    6.2413    5.4881   -0.4825 C   0  0  0  0  0  0  0  0  0  0  0  0
    5.7115    6.0495   -1.6400 C   0  0  0  0  0  0  0  0  0  0  0  0
    4.9273    5.2855   -2.4979 C   0  0  0  0  0  0  0  0  0  0  0  0
    4.6703    3.9517   -2.1986 C   0  0  0  0  0  0  0  0  0  0  0  0
    5.1951    3.3802   -1.0442 C   0  0  0  0  0  0  0  0  0  0  0  0
  1  2  2  0
  1  3  2  0
  1  4  1  0
  4  5  1  0
  5  6  2  0
  6  7  1  0
  7  8  2  0
  8  9  1  0
  9 10  2  0
 10  5  1  0
  9 11  1  0
 11 12  1  0
 12 13  2  0
 13 14  1  0
 14 15  1  0
 11 15  2  0
 13 16  1  0
 16 17  2  0
 17 18  1  0
 18 19  2  0
 19 12  1  0
 18 20  1  0
  1 21  1  0
 21 22  2  0
 22 23  1  0
 23 24  2  0
 24 25  1  0
 25 26  2  0
 26 21  1  0
M  END
$$$$
s_4____66625____12059314
     RDKit          3D

 31 34  0  0  0  0  0  0  0  0999 V2000
    3.2320   -0.9187    2.4816 S   0  0  0  0  0  0  0  0  0  0  0  0
    4.4174   -1.3867    3.1519 O   0  0  0  0  0  0  0  0  0  0  0  0
    2.0662   -1.4171    3.1644 O   0  0  0  0  0  0  0  0  0  0  0  0
    3.2307   -1.4547    0.9423 N   0  0  0  0  0  0  0  0  0  0  0  0
    2.0391   -1.8992    0.3567 C   0  0  0  0  0  0  0  0  0  0  0  0
    1.2267   -0.9964   -0.3220 C   0  0  0  0  0  0  0  0  0  0  0  0
    0.0437   -1.4417   -0.9026 C   0  0  0  0  0  0  0  0  0  0  0  0
   -0.3193   -2.7805   -0.8021 C   0  0  0  0  0  0  0  0  0  0  0  0
    0.5009   -3.6743   -0.1216 C   0  0  0  0  0  0  0  0  0  0  0  0
    1.6860   -3.2404    0.4631 C   0  0  0  0  0  0  0  0  0  0  0  0
    4.4807   -1.4715    0.1688 C   0  0  0  0  0  0  0  0  0  0  0  0
    5.1800   -2.8068    0.3649 C   0  0  0  0  0  0  0  0  0  0  0  0
    3.2096    0.8218    2.4900 C   0  0  0  0  0  0  0  0  0  0  0  0
    2.0173    1.5392    2.4998 C   0  0  0  0  0  0  0  0  0  0  0  0
    2.0172    2.8806    2.5059 N   0  0  0  0  0  0  0  0  0  0  0  0
    3.1616    3.5805    2.5029 C   0  0  0  0  0  0  0  0  0  0  0  0
    3.1535    4.9803    2.5095 N   0  0  0  0  0  0  0  0  0  0  0  0
    1.9631    5.6584    2.5192 N   0  0  0  0  0  0  0  0  0  0  0  0
    1.9558    6.9083    2.5251 C   0  0  0  0  0  0  0  0  0  0  0  0
    0.6951    7.6264    2.5354 C   0  0  0  0  0  0  0  0  0  0  0  0
    0.5629    8.9840    2.5425 N   0  0  0  0  0  0  0  0  0  0  0  0
   -0.7713    9.2753    2.5516 C   0  0  0  0  0  0  0  0  0  0  0  0
   -1.4866    8.0976    2.5508 C   0  0  0  0  0  0  0  0  0  0  0  0
   -2.8783    8.1456    2.5538 C   0  0  0  0  0  0  0  0  0  0  0  0
   -3.5450    9.3664    2.5618 C   0  0  0  0  0  0  0  0  0  0  0  0
   -2.8024   10.5419    2.5656 C   0  0  0  0  0  0  0  0  0  0  0  0
   -1.4121   10.5057    2.5595 C   0  0  0  0  0  0  0  0  0  0  0  0
   -3.7148    6.8760    2.5493 C   0  0  0  0  0  0  0  0  0  0  0  0
   -0.5378    7.0484    2.5388 C   0  0  0  0  0  0  0  0  0  0  0  0
    4.3879    2.9236    2.4931 C   0  0  0  0  0  0  0  0  0  0  0  0
    4.4056    1.5327    2.4869 C   0  0  0  0  0  0  0  0  0  0  0  0
  1  2  2  0
  1  3  2  0
  1  4  1  0
  4  5  1  0
  5  6  2  0
  6  7  1  0
  7  8  2  0
  8  9  1  0
  9 10  2  0
 10  5  1  0
  4 11  1  0
 11 12  1  0
  1 13  1  0
 13 14  2  0
 14 15  1  0
 15 16  2  0
 16 17  1  0
 17 18  1  0
 18 19  2  0
 19 20  1  0
 20 21  1  0
 21 22  1  0
 22 23  2  0
 23 24  1  0
 24 25  2  0
 25 26  1  0
 26 27  2  0
 27 22  1  0
 24 28  1  0
 23 29  1  0
 20 29  2  0
 16 30  1  0
 30 31  2  0
 31 13  1  0
M  END
$$$$
s_20____78537____13452670
     RDKit          3D

 33 36  0  0  0  0  0  0  0  0999 V2000
    4.3075   -6.4883   -0.0695 Br  0  0  0  0  0  0  0  0  0  0  0  0
    4.6349   -4.8837    1.0074 C   0  0  0  0  0  0  0  0  0  0  0  0
    3.8654   -4.6397    2.1389 C   0  0  0  0  0  0  0  0  0  0  0  0
    4.0856   -3.5053    2.9144 C   0  0  0  0  0  0  0  0  0  0  0  0
    3.4428   -3.0905    4.0478 N   0  0  0  0  0  0  0  0  0  0  0  0
    3.9969   -1.9140    4.4609 C   0  0  0  0  0  0  0  0  0  0  0  0
    4.9910   -1.5891    3.5859 C   0  0  0  0  0  0  0  0  0  0  0  0
    6.0002   -0.1743    3.6773 S   0  0  0  0  0  0  0  0  0  0  0  0
    7.3821   -0.5621    3.5609 O   0  0  0  0  0  0  0  0  0  0  0  0
    5.7911    0.4836    4.9410 O   0  0  0  0  0  0  0  0  0  0  0  0
    5.6179    0.8451    2.4642 N   0  0  0  0  0  0  0  0  0  0  0  0
    4.3934    1.5236    2.4797 C   0  0  0  0  0  0  0  0  0  0  0  0
    4.3916    2.9147    2.4870 C   0  0  0  0  0  0  0  0  0  0  0  0
    3.1731    3.5859    2.5017 C   0  0  0  0  0  0  0  0  0  0  0  0
    3.1519    4.9853    2.5098 N   0  0  0  0  0  0  0  0  0  0  0  0
    3.4909    5.8135    1.1474 S   0  0  0  0  0  0  0  0  0  0  0  0
    3.4040    7.2266    1.4104 O   0  0  0  0  0  0  0  0  0  0  0  0
    4.8227    5.4883    0.7068 O   0  0  0  0  0  0  0  0  0  0  0  0
    2.3487    5.3831   -0.0922 C   0  0  0  0  0  0  0  0  0  0  0  0
    1.1675    6.1062   -0.2211 C   0  0  0  0  0  0  0  0  0  0  0  0
    0.2580    5.7569   -1.2136 C   0  0  0  0  0  0  0  0  0  0  0  0
    0.5379    4.6928   -2.0643 C   0  0  0  0  0  0  0  0  0  0  0  0
   -0.3368    4.3647   -3.0113 F   0  0  0  0  0  0  0  0  0  0  0  0
    1.7203    3.9739   -1.9299 C   0  0  0  0  0  0  0  0  0  0  0  0
    2.6340    4.3177   -0.9394 C   0  0  0  0  0  0  0  0  0  0  0  0
    1.9797    2.8727    2.5099 C   0  0  0  0  0  0  0  0  0  0  0  0
    0.8052    3.5371    2.5243 O   0  0  0  0  0  0  0  0  0  0  0  0
   -0.4183    2.8163    2.5328 C   0  0  0  0  0  0  0  0  0  0  0  0
    1.9840    1.4816    2.5026 C   0  0  0  0  0  0  0  0  0  0  0  0
    3.2010    0.8072    2.4870 C   0  0  0  0  0  0  0  0  0  0  0  0
    5.0655   -2.5911    2.5916 C   0  0  0  0  0  0  0  0  0  0  0  0
    5.8319   -2.8385    1.4565 C   0  0  0  0  0  0  0  0  0  0  0  0
    5.6278   -3.9681    0.6693 C   0  0  0  0  0  0  0  0  0  0  0  0
  1  2  1  0
  2  3  2  0
  3  4  1  0
  4  5  1  0
  5  6  1  0
  6  7  2  0
  7  8  1  0
  8  9  2  0
  8 10  2  0
  8 11  1  0
 11 12  1  0
 12 13  2  0
 13 14  1  0
 14 15  1  0
 15 16  1  0
 16 17  2  0
 16 18  2  0
 16 19  1  0
 19 20  2  0
 20 21  1  0
 21 22  2  0
 22 23  1  0
 22 24  1  0
 24 25  2  0
 25 19  1  0
 14 26  2  0
 26 27  1  0
 27 28  1  0
 26 29  1  0
 29 30  2  0
 30 12  1  0
  7 31  1  0
 31  4  2  0
 31 32  1  0
 32 33  2  0
 33  2  1  0
M  END
$$$$
s_22____4602506____59510
     RDKit          3D

 33 36  0  0  0  0  0  0  0  0999 V2000
    4.6656   -5.0993    0.0841 S   0  0  0  0  0  0  0  0  0  0  0  0
    5.4017   -6.2886    0.4268 O   0  0  0  0  0  0  0  0  0  0  0  0
    3.2637   -5.3141    0.3330 O   0  0  0  0  0  0  0  0  0  0  0  0
    5.1940   -3.8529    0.9918 N   0  0  0  0  0  0  0  0  0  0  0  0
    4.4937   -2.6412    0.9923 C   0  0  0  0  0  0  0  0  0  0  0  0
    5.1266   -1.4727    0.5811 C   0  0  0  0  0  0  0  0  0  0  0  0
    4.4227   -0.2729    0.5846 C   0  0  0  0  0  0  0  0  0  0  0  0
    3.0950   -0.2558    1.0000 C   0  0  0  0  0  0  0  0  0  0  0  0
    2.4620   -1.4236    1.4113 C   0  0  0  0  0  0  0  0  0  0  0  0
    3.1658   -2.6235    1.4076 C   0  0  0  0  0  0  0  0  0  0  0  0
    2.3700    1.0000    1.0000 C   0  0  0  0  0  0  0  0  0  0  0  0
    2.9700    2.0392    1.0000 O   0  0  0  0  0  0  0  0  0  0  0  0
    1.0000    1.0000    1.0000 N   0  0  0  0  0  0  0  0  0  0  0  0
    0.2650    2.2731    1.0000 C   0  0  0  0  0  0  0  0  0  0  0  0
    0.2272    2.8363   -0.4113 C   0  0  0  0  0  0  0  0  0  0  0  0
   -0.5330    4.1530   -0.4113 C   0  0  0  0  0  0  0  0  0  0  0  0
    0.0378    5.4304   -0.2115 C   0  0  0  0  0  0  0  0  0  0  0  0
   -1.0190    6.3085   -0.2967 C   0  0  0  0  0  0  0  0  0  0  0  0
   -2.1729    5.6167   -0.5343 N   0  0  0  0  0  0  0  0  0  0  0  0
   -1.8775    4.2866   -0.6035 C   0  0  0  0  0  0  0  0  0  0  0  0
   -0.8208    7.6761   -0.1492 C   0  0  0  0  0  0  0  0  0  0  0  0
    0.4509    8.1864    0.0880 C   0  0  0  0  0  0  0  0  0  0  0  0
    1.5285    7.3105    0.1755 C   0  0  0  0  0  0  0  0  0  0  0  0
    1.3092    5.9449    0.0250 C   0  0  0  0  0  0  0  0  0  0  0  0
   -1.9917    8.6399   -0.2439 C   0  0  0  0  0  0  0  0  0  0  0  0
   -2.5962    8.8399    1.1364 C   0  0  0  0  0  0  0  0  0  0  0  0
    4.9062   -4.7335   -1.5996 C   0  0  0  0  0  0  0  0  0  0  0  0
    6.1003   -5.0896   -2.2177 C   0  0  0  0  0  0  0  0  0  0  0  0
    6.2870   -4.7939   -3.5637 C   0  0  0  0  0  0  0  0  0  0  0  0
    5.2816   -4.1482   -4.2756 C   0  0  0  0  0  0  0  0  0  0  0  0
    5.4674   -3.8687   -5.5628 F   0  0  0  0  0  0  0  0  0  0  0  0
    4.0905   -3.7948   -3.6517 C   0  0  0  0  0  0  0  0  0  0  0  0
    3.8973   -4.0873   -2.3059 C   0  0  0  0  0  0  0  0  0  0  0  0
  1  2  2  0
  1  3  2  0
  1  4  1  0
  4  5  1  0
  5  6  2  0
  6  7  1  0
  7  8  2  0
  8  9  1  0
  9 10  2  0
 10  5  1  0
  8 11  1  0
 11 12  2  0
 11 13  1  0
 13 14  1  0
 14 15  1  0
 15 16  1  0
 16 17  1  0
 17 18  2  0
 18 19  1  0
 19 20  1  0
 16 20  2  0
 18 21  1  0
 21 22  2  0
 22 23  1  0
 23 24  2  0
 24 17  1  0
 21 25  1  0
 25 26  1  0
  1 27  1  0
 27 28  2  0
 28 29  1  0
 29 30  2  0
 30 31  1  0
 30 32  1  0
 32 33  2  0
 33 27  1  0
M  END
$$$$
s_27a____2767532____9051092
     RDKit          3D

 33 37  0  0  0  0  0  0  0  0999 V2000
   -2.5032    9.4043   -7.3558 Cl  0  0  0  0  0  0  0  0  0  0  0  0
   -2.2574    8.2132   -6.0560 C   0  0  0  0  0  0  0  0  0  0  0  0
   -3.3106    7.8969   -5.2041 C   0  0  0  0  0  0  0  0  0  0  0  0
   -3.1082    6.9647   -4.1927 C   0  0  0  0  0  0  0  0  0  0  0  0
   -1.8641    6.3611   -4.0421 C   0  0  0  0  0  0  0  0  0  0  0  0
   -0.8149    6.6812   -4.8966 C   0  0  0  0  0  0  0  0  0  0  0  0
   -1.0105    7.6132   -5.9104 C   0  0  0  0  0  0  0  0  0  0  0  0
   -1.6673    5.3909   -2.9819 C   0  0  0  0  0  0  0  0  0  0  0  0
   -2.6125    4.9981   -2.0878 N   0  0  0  0  0  0  0  0  0  0  0  0
   -2.0001    4.1236   -1.3351 C   0  0  0  0  0  0  0  0  0  0  0  0
   -2.3490    3.1238   -0.0053 S   0  0  0  0  0  0  0  0  0  0  0  0
   -0.7876    2.4581    0.0770 C   0  0  0  0  0  0  0  0  0  0  0  0
   -0.0862    3.0065   -0.8880 N   0  0  0  0  0  0  0  0  0  0  0  0
   -0.7131    3.8955   -1.6490 N   0  0  0  0  0  0  0  0  0  0  0  0
   -0.5118    4.7221   -2.7160 C   0  0  0  0  0  0  0  0  0  0  0  0
   -0.3787    1.5097    1.0203 N   0  0  0  0  0  0  0  0  0  0  0  0
    1.0000    1.0000    1.0000 C   0  0  0  0  0  0  0  0  0  0  0  0
    1.8776    1.8776    1.8776 C   0  0  0  0  0  0  0  0  0  0  0  0
    2.2455    1.4447    3.1472 C   0  0  0  0  0  0  0  0  0  0  0  0
    1.8181    0.2046    3.6375 N   0  0  0  0  0  0  0  0  0  0  0  0
    0.8685    0.1347    4.9605 S   0  0  0  0  0  0  0  0  0  0  0  0
    0.8533   -1.2122    5.4698 O   0  0  0  0  0  0  0  0  0  0  0  0
    1.3845    1.0235    5.9692 O   0  0  0  0  0  0  0  0  0  0  0  0
   -0.7500    0.6135    4.5387 C   0  0  0  0  0  0  0  0  0  0  0  0
   -1.6665   -0.3433    4.1145 C   0  0  0  0  0  0  0  0  0  0  0  0
   -2.9576    0.0533    3.7805 C   0  0  0  0  0  0  0  0  0  0  0  0
   -3.3281    1.3911    3.8682 C   0  0  0  0  0  0  0  0  0  0  0  0
   -2.4038    2.3398    4.2926 C   0  0  0  0  0  0  0  0  0  0  0  0
   -1.1104    1.9544    4.6294 C   0  0  0  0  0  0  0  0  0  0  0  0
    3.0484    2.2477    3.9500 C   0  0  0  0  0  0  0  0  0  0  0  0
    3.4837    3.4834    3.4833 C   0  0  0  0  0  0  0  0  0  0  0  0
    3.1157    3.9162    2.2140 C   0  0  0  0  0  0  0  0  0  0  0  0
    2.3121    3.1136    1.4114 C   0  0  0  0  0  0  0  0  0  0  0  0
  1  2  1  0
  2  3  2  0
  3  4  1  0
  4  5  2  0
  5  6  1  0
  6  7  2  0
  7  2  1  0
  5  8  1  0
  8  9  1  0
  9 10  2  0
 10 11  1  0
 11 12  1  0
 12 13  2  0
 13 14  1  0
 14 10  1  0
 14 15  1  0
  8 15  2  0
 12 16  1  0
 16 17  1  0
 17 18  1  0
 18 19  1  0
 19 20  1  0
 20 21  1  0
 21 22  2  0
 21 23  2  0
 21 24  1  0
 24 25  2  0
 25 26  1  0
 26 27  2  0
 27 28  1  0
 28 29  2  0
 29 24  1  0
 19 30  2  0
 30 31  1  0
 31 32  2  0
 32 33  1  0
 33 18  2  0
M  END
$$$$
s_270004____8297110____12112418
     RDKit          3D

 30 33  0  0  0  0  0  0  0  0999 V2000
    6.2249    4.0989   -3.8660 Cl  0  0  0  0  0  0  0  0  0  0  0  0
    5.6863    4.6583   -2.2637 C   0  0  0  0  0  0  0  0  0  0  0  0
    4.9286    5.8197   -2.1573 C   0  0  0  0  0  0  0  0  0  0  0  0
    4.5118    6.2499   -0.9018 C   0  0  0  0  0  0  0  0  0  0  0  0
    4.8562    5.5167    0.2291 C   0  0  0  0  0  0  0  0  0  0  0  0
    4.3300    6.0625    1.7955 S   0  0  0  0  0  0  0  0  0  0  0  0
    4.2186    7.4981    1.7911 O   0  0  0  0  0  0  0  0  0  0  0  0
    5.2884    5.6585    2.7914 O   0  0  0  0  0  0  0  0  0  0  0  0
    2.8786    5.4058    2.1404 N   0  0  0  0  0  0  0  0  0  0  0  0
    2.7760    4.0359    2.4082 C   0  0  0  0  0  0  0  0  0  0  0  0
    1.9718    3.2376    1.6016 C   0  0  0  0  0  0  0  0  0  0  0  0
    1.8777    1.8777    1.8777 C   0  0  0  0  0  0  0  0  0  0  0  0
    2.5730    1.3144    2.9424 C   0  0  0  0  0  0  0  0  0  0  0  0
    3.3715    2.1327    3.7352 C   0  0  0  0  0  0  0  0  0  0  0  0
    3.4808    3.4949    3.4779 C   0  0  0  0  0  0  0  0  0  0  0  0
    1.0000    1.0000    1.0000 C   0  0  0  0  0  0  0  0  0  0  0  0
    1.7961    0.4729   -0.1177 N   0  0  0  0  0  0  0  0  0  0  0  0
    0.9474   -0.3758   -0.9664 C   0  0  0  0  0  0  0  0  0  0  0  0
    1.7709   -0.9210   -2.1227 C   0  0  0  0  0  0  0  0  0  0  0  0
    2.4712   -2.0897   -2.1093 N   0  0  0  0  0  0  0  0  0  0  0  0
    3.0795   -2.2396   -3.3214 C   0  0  0  0  0  0  0  0  0  0  0  0
    2.7617   -1.1640   -4.1096 C   0  0  0  0  0  0  0  0  0  0  0  0
    3.2659   -1.0797   -5.4037 C   0  0  0  0  0  0  0  0  0  0  0  0
    4.0933   -2.0757   -5.9127 C   0  0  0  0  0  0  0  0  0  0  0  0
    4.4159   -3.1653   -5.1100 C   0  0  0  0  0  0  0  0  0  0  0  0
    3.9069   -3.2413   -3.8178 C   0  0  0  0  0  0  0  0  0  0  0  0
    5.3186   -4.2787   -5.6173 C   0  0  0  0  0  0  0  0  0  0  0  0
    1.9257   -0.3244   -3.3382 C   0  0  0  0  0  0  0  0  0  0  0  0
    5.6139    4.3548    0.1253 C   0  0  0  0  0  0  0  0  0  0  0  0
    6.0298    3.9271   -1.1313 C   0  0  0  0  0  0  0  0  0  0  0  0
  1  2  1  0
  2  3  2  0
  3  4  1  0
  4  5  2  0
  5  6  1  0
  6  7  2  0
  6  8  2  0
  6  9  1  0
  9 10  1  0
 10 11  2  0
 11 12  1  0
 12 13  2  0
 13 14  1  0
 14 15  2  0
 15 10  1  0
 12 16  1  0
 16 17  1  0
 17 18  1  0
 18 19  1  0
 19 20  1  0
 20 21  1  0
 21 22  2  0
 22 23  1  0
 23 24  2  0
 24 25  1  0
 25 26  2  0
 26 21  1  0
 25 27  1  0
 22 28  1  0
 19 28  2  0
  5 29  1  0
 29 30  2  0
 30  2  1  0
M  CHG  1  17   1
M  END
$$$$
s_270196____16763760____16887966
     RDKit          3D

 33 37  0  0  0  0  0  0  0  0999 V2000
    1.0000    1.0000    1.0000 S   0  0  0  0  0  0  0  0  0  0  0  0
   -0.2684    1.6482    0.7889 O   0  0  0  0  0  0  0  0  0  0  0  0
    0.7889   -0.2684    1.6482 O   0  0  0  0  0  0  0  0  0  0  0  0
    1.7337    0.7610   -0.4358 N   0  0  0  0  0  0  0  0  0  0  0  0
    2.8807   -0.0375   -0.5113 C   0  0  0  0  0  0  0  0  0  0  0  0
    4.0695    0.5120   -0.9796 C   0  0  0  0  0  0  0  0  0  0  0  0
    5.2026   -0.2914   -1.0503 C   0  0  0  0  0  0  0  0  0  0  0  0
    6.5048    0.3032   -1.5617 C   0  0  0  0  0  0  0  0  0  0  0  0
    7.5241    0.7688   -1.9621 C   0  0  0  0  0  0  0  0  0  0  0  0
    5.1582   -1.6260   -0.6612 C   0  0  0  0  0  0  0  0  0  0  0  0
    3.9579   -2.1536   -0.1957 C   0  0  0  0  0  0  0  0  0  0  0  0
    2.8125   -1.3691   -0.1164 C   0  0  0  0  0  0  0  0  0  0  0  0
    2.0045    2.0045    2.0045 C   0  0  0  0  0  0  0  0  0  0  0  0
    1.8584    3.3870    1.9602 C   0  0  0  0  0  0  0  0  0  0  0  0
    2.6665    4.1805    2.7676 C   0  0  0  0  0  0  0  0  0  0  0  0
    3.6073    3.5898    3.6054 C   0  0  0  0  0  0  0  0  0  0  0  0
    3.7498    2.2066    3.6463 C   0  0  0  0  0  0  0  0  0  0  0  0
    2.9434    1.4091    2.8407 C   0  0  0  0  0  0  0  0  0  0  0  0
    4.4448    4.4292    4.4418 C   0  0  0  0  0  0  0  0  0  0  0  0
    4.4123    5.7421    4.4987 N   0  0  0  0  0  0  0  0  0  0  0  0
    5.2794    6.1267    5.3359 O   0  0  0  0  0  0  0  0  0  0  0  0
    5.8986    5.0902    5.8453 C   0  0  0  0  0  0  0  0  0  0  0  0
    5.4010    4.0043    5.3091 N   0  0  0  0  0  0  0  0  0  0  0  0
    6.9553    5.1378    6.8368 C   0  0  0  0  0  0  0  0  0  0  0  0
    7.6187    4.0141    7.3815 C   0  0  0  0  0  0  0  0  0  0  0  0
    8.5303    4.5492    8.2669 C   0  0  0  0  0  0  0  0  0  0  0  0
    8.4331    5.9110    8.2692 N   0  0  0  0  0  0  0  0  0  0  0  0
    7.4605    6.2789    7.3861 C   0  0  0  0  0  0  0  0  0  0  0  0
    9.3714    3.7130    8.9934 C   0  0  0  0  0  0  0  0  0  0  0  0
    9.3104    2.3314    8.8429 C   0  0  0  0  0  0  0  0  0  0  0  0
    8.3926    1.7840    7.9520 C   0  0  0  0  0  0  0  0  0  0  0  0
    7.5574    2.6322    7.2312 C   0  0  0  0  0  0  0  0  0  0  0  0
   10.2384    1.4324    9.6433 C   0  0  0  0  0  0  0  0  0  0  0  0
  1  2  2  0
  1  3  2  0
  1  4  1  0
  4  5  1  0
  5  6  2  0
  6  7  1  0
  7  8  1  0
  8  9  3  0
  7 10  2  0
 10 11  1  0
 11 12  2  0
 12  5  1  0
  1 13  1  0
 13 14  2  0
 14 15  1  0
 15 16  2  0
 16 17  1  0
 17 18  2  0
 18 13  1  0
 16 19  1  0
 19 20  2  0
 20 21  1  0
 21 22  1  0
 22 23  2  0
 23 19  1  0
 22 24  1  0
 24 25  1  0
 25 26  2  0
 26 27  1  0
 27 28  1  0
 24 28  2  0
 26 29  1  0
 29 30  2  0
 30 31  1  0
 31 32  2  0
 32 25  1  0
 30 33  1  0
M  END
$$$$
s_22____58249____4556756
     RDKit          3D

 35 38  0  0  0  0  0  0  0  0999 V2000
    8.1234    4.6863   -3.4992 Cl  0  0  0  0  0  0  0  0  0  0  0  0
    6.5248    4.0091   -3.1094 C   0  0  0  0  0  0  0  0  0  0  0  0
    5.4543    4.8618   -2.8648 C   0  0  0  0  0  0  0  0  0  0  0  0
    5.6870    6.6243   -2.9436 Cl  0  0  0  0  0  0  0  0  0  0  0  0
    4.1978    4.3498   -2.5577 C   0  0  0  0  0  0  0  0  0  0  0  0
    4.0220    2.9708   -2.4976 C   0  0  0  0  0  0  0  0  0  0  0  0
    5.0961    2.1220   -2.7438 C   0  0  0  0  0  0  0  0  0  0  0  0
    4.8757    0.3982   -2.6694 S   0  0  0  0  0  0  0  0  0  0  0  0
    5.7910   -0.2424   -3.5779 O   0  0  0  0  0  0  0  0  0  0  0  0
    3.5234    0.0708   -3.0401 O   0  0  0  0  0  0  0  0  0  0  0  0
    5.1640   -0.1213   -1.1515 N   0  0  0  0  0  0  0  0  0  0  0  0
    4.4671    0.4403   -0.0754 C   0  0  0  0  0  0  0  0  0  0  0  0
    5.1652    0.9958    0.9908 C   0  0  0  0  0  0  0  0  0  0  0  0
    6.5147    0.9908    0.9801 O   0  0  0  0  0  0  0  0  0  0  0  0
    7.2297    2.2167    1.0280 C   0  0  0  0  0  0  0  0  0  0  0  0
    4.4871    1.5572    2.0680 C   0  0  0  0  0  0  0  0  0  0  0  0
    3.0958    1.5574    2.0679 C   0  0  0  0  0  0  0  0  0  0  0  0
    2.4000    1.0000    1.0000 C   0  0  0  0  0  0  0  0  0  0  0  0
    1.0000    1.0000    1.0000 N   0  0  0  0  0  0  0  0  0  0  0  0
    0.3150    2.1854    1.0512 C   0  0  0  0  0  0  0  0  0  0  0  0
    0.8607    3.1770    1.4497 O   0  0  0  0  0  0  0  0  0  0  0  0
   -1.1362    2.2444    0.6031 C   0  0  0  0  0  0  0  0  0  0  0  0
   -2.0448    2.2088    1.8217 C   0  0  0  0  0  0  0  0  0  0  0  0
   -2.3460    3.3111    2.6534 C   0  0  0  0  0  0  0  0  0  0  0  0
   -3.1967    2.8097    3.6127 C   0  0  0  0  0  0  0  0  0  0  0  0
   -3.4085    1.4788    3.3882 N   0  0  0  0  0  0  0  0  0  0  0  0
   -2.6978    1.1040    2.2856 C   0  0  0  0  0  0  0  0  0  0  0  0
   -3.7050    3.6311    4.6118 C   0  0  0  0  0  0  0  0  0  0  0  0
   -3.3642    4.9783    4.6633 C   0  0  0  0  0  0  0  0  0  0  0  0
   -2.5061    5.4990    3.6996 C   0  0  0  0  0  0  0  0  0  0  0  0
   -2.0079    4.6601    2.7077 C   0  0  0  0  0  0  0  0  0  0  0  0
   -4.6431    3.0712    5.6678 C   0  0  0  0  0  0  0  0  0  0  0  0
   -3.8320    2.5689    6.8511 C   0  0  0  0  0  0  0  0  0  0  0  0
    3.0759    0.4381   -0.0782 C   0  0  0  0  0  0  0  0  0  0  0  0
    6.3541    2.6301   -3.0508 C   0  0  0  0  0  0  0  0  0  0  0  0
  1  2  1  0
  2  3  2  0
  3  4  1  0
  3  5  1  0
  5  6  2  0
  6  7  1  0
  7  8  1  0
  8  9  2  0
  8 10  2  0
  8 11  1  0
 11 12  1  0
 12 13  2  0
 13 14  1  0
 14 15  1  0
 13 16  1  0
 16 17  2  0
 17 18  1  0
 18 19  1  0
 19 20  1  0
 20 21  2  0
 20 22  1  0
 22 23  1  0
 23 24  1  0
 24 25  2  0
 25 26  1  0
 26 27  1  0
 23 27  2  0
 25 28  1  0
 28 29  2  0
 29 30  1  0
 30 31  2  0
 31 24  1  0
 28 32  1  0
 32 33  1  0
 18 34  2  0
 34 12  1  0
  7 35  2  0
 35  2  1  0
M  END
$$$$
s_60____90603____7964240
     RDKit          3D

 33 37  0  0  0  0  0  0  0  0999 V2000
    1.0000    1.0000    1.0000 S   0  0  0  0  0  0  0  0  0  0  0  0
   -0.2735    1.6418    0.8003 O   0  0  0  0  0  0  0  0  0  0  0  0
    0.8003   -0.2735    1.6418 O   0  0  0  0  0  0  0  0  0  0  0  0
    1.7265    0.7739   -0.4415 N   0  0  0  0  0  0  0  0  0  0  0  0
    2.8149   -0.1003   -0.5474 C   0  0  0  0  0  0  0  0  0  0  0  0
    2.5969   -1.4307   -0.8887 C   0  0  0  0  0  0  0  0  0  0  0  0
    1.3418   -1.8721   -1.1164 O   0  0  0  0  0  0  0  0  0  0  0  0
    1.1325   -3.0702   -1.8493 C   0  0  0  0  0  0  0  0  0  0  0  0
    3.6662   -2.3135   -0.9988 C   0  0  0  0  0  0  0  0  0  0  0  0
    4.9543   -1.8453   -0.7622 C   0  0  0  0  0  0  0  0  0  0  0  0
    5.1768   -0.5159   -0.4198 C   0  0  0  0  0  0  0  0  0  0  0  0
    4.1051    0.3631   -0.3116 C   0  0  0  0  0  0  0  0  0  0  0  0
    2.0045    2.0045    2.0045 C   0  0  0  0  0  0  0  0  0  0  0  0
    1.7372    3.3673    2.0800 C   0  0  0  0  0  0  0  0  0  0  0  0
    2.5208    4.1981    2.8736 C   0  0  0  0  0  0  0  0  0  0  0  0
    2.4797    5.5395    3.1211 N   0  0  0  0  0  0  0  0  0  0  0  0
    3.4543    5.8309    3.9515 C   0  0  0  0  0  0  0  0  0  0  0  0
    4.1511    4.7016    4.2641 N   0  0  0  0  0  0  0  0  0  0  0  0
    3.5683    3.6712    3.5881 C   0  0  0  0  0  0  0  0  0  0  0  0
    3.8391    2.3090    3.5165 C   0  0  0  0  0  0  0  0  0  0  0  0
    3.0636    1.4660    2.7275 C   0  0  0  0  0  0  0  0  0  0  0  0
    3.7461    7.1571    4.4603 C   0  0  0  0  0  0  0  0  0  0  0  0
    4.6390    7.4491    5.3784 N   0  0  0  0  0  0  0  0  0  0  0  0
    4.6608    8.7417    5.6290 N   0  0  0  0  0  0  0  0  0  0  0  0
    3.7377    9.3518    4.8273 C   0  0  0  0  0  0  0  0  0  0  0  0
    3.1460    8.3665    4.0610 C   0  0  0  0  0  0  0  0  0  0  0  0
    2.1630    8.7399    3.1520 C   0  0  0  0  0  0  0  0  0  0  0  0
    1.7894   10.0722    3.0058 C   0  0  0  0  0  0  0  0  0  0  0  0
    2.3964   11.0590    3.7762 C   0  0  0  0  0  0  0  0  0  0  0  0
    3.3766   10.6884    4.6921 C   0  0  0  0  0  0  0  0  0  0  0  0
    2.0111   12.4478    3.6205 C   0  0  0  0  0  0  0  0  0  0  0  0
    2.5422   13.3021    4.2931 O   0  0  0  0  0  0  0  0  0  0  0  0
    1.1302   12.7629    2.7915 O   0  0  0  0  0  0  0  0  0  0  0  0
  1  2  2  0
  1  3  2  0
  1  4  1  0
  4  5  1  0
  5  6  2  0
  6  7  1  0
  7  8  1  0
  6  9  1  0
  9 10  2  0
 10 11  1  0
 11 12  2  0
 12  5  1  0
  1 13  1  0
 13 14  2  0
 14 15  1  0
 15 16  1  0
 16 17  2  0
 17 18  1  0
 18 19  1  0
 19 15  2  0
 19 20  1  0
 20 21  2  0
 21 13  1  0
 17 22  1  0
 22 23  2  0
 23 24  1  0
 24 25  1  0
 25 26  2  0
 26 22  1  0
 26 27  1  0
 27 28  2  0
 28 29  1  0
 29 30  2  0
 30 25  1  0
 29 31  1  0
 31 32  1  0
 31 33  2  0
M  CHG  1  32  -1
M  END
$$$$
s_22____751982____736774
     RDKit          3D

 32 35  0  0  0  0  0  0  0  0999 V2000
    1.8156   -3.4776    4.3265 S   0  0  0  0  0  0  0  0  0  0  0  0
    1.8147   -4.1551    5.5972 O   0  0  0  0  0  0  0  0  0  0  0  0
    0.6076   -2.7052    4.1935 O   0  0  0  0  0  0  0  0  0  0  0  0
    3.1066   -2.4863    4.2404 N   0  0  0  0  0  0  0  0  0  0  0  0
    3.4419   -1.8774    3.0249 C   0  0  0  0  0  0  0  0  0  0  0  0
    4.4616   -2.3924    2.2302 C   0  0  0  0  0  0  0  0  0  0  0  0
    4.7834   -1.7776    1.0240 C   0  0  0  0  0  0  0  0  0  0  0  0
    4.0871   -0.6460    0.6115 C   0  0  0  0  0  0  0  0  0  0  0  0
    3.0701   -0.1395    1.4148 C   0  0  0  0  0  0  0  0  0  0  0  0
    2.3700    1.0000    1.0000 N   0  0  0  0  0  0  0  0  0  0  0  0
    1.0000    1.0000    1.0000 C   0  0  0  0  0  0  0  0  0  0  0  0
    0.4000   -0.0392    1.0000 O   0  0  0  0  0  0  0  0  0  0  0  0
    0.2400    2.3164    1.0000 C   0  0  0  0  0  0  0  0  0  0  0  0
   -0.2291    2.6309   -0.4119 C   0  0  0  0  0  0  0  0  0  0  0  0
   -1.3639    2.0750   -1.0446 C   0  0  0  0  0  0  0  0  0  0  0  0
   -1.4109    2.6340   -2.2997 C   0  0  0  0  0  0  0  0  0  0  0  0
   -0.3584    3.4924   -2.4167 N   0  0  0  0  0  0  0  0  0  0  0  0
    0.3761    3.4998   -1.2690 C   0  0  0  0  0  0  0  0  0  0  0  0
   -2.4169    2.3085   -3.2035 C   0  0  0  0  0  0  0  0  0  0  0  0
   -3.4126    1.4000   -2.8579 C   0  0  0  0  0  0  0  0  0  0  0  0
   -3.3891    0.8216   -1.5923 C   0  0  0  0  0  0  0  0  0  0  0  0
   -4.3629   -0.0583   -1.2645 O   0  0  0  0  0  0  0  0  0  0  0  0
   -4.3687   -0.6651    0.0193 C   0  0  0  0  0  0  0  0  0  0  0  0
   -2.3687    1.1679   -0.7090 C   0  0  0  0  0  0  0  0  0  0  0  0
    2.7396   -0.7464    2.6222 C   0  0  0  0  0  0  0  0  0  0  0  0
    5.2238   -3.6289    2.6786 C   0  0  0  0  0  0  0  0  0  0  0  0
    1.8984   -4.6503    3.0441 C   0  0  0  0  0  0  0  0  0  0  0  0
    2.5507   -5.8609    3.2542 C   0  0  0  0  0  0  0  0  0  0  0  0
    2.6093   -6.7900    2.2202 C   0  0  0  0  0  0  0  0  0  0  0  0
    2.0235   -6.5117    0.9897 C   0  0  0  0  0  0  0  0  0  0  0  0
    1.3744   -5.2979    0.7898 C   0  0  0  0  0  0  0  0  0  0  0  0
    1.3096   -4.3620    1.8168 C   0  0  0  0  0  0  0  0  0  0  0  0
  1  2  2  0
  1  3  2  0
  1  4  1  0
  4  5  1  0
  5  6  2  0
  6  7  1  0
  7  8  2  0
  8  9  1  0
  9 10  1  0
 10 11  1  0
 11 12  2  0
 11 13  1  0
 13 14  1  0
 14 15  1  0
 15 16  2  0
 16 17  1  0
 17 18  1  0
 14 18  2  0
 16 19  1  0
 19 20  2  0
 20 21  1  0
 21 22  1  0
 22 23  1  0
 21 24  2  0
 24 15  1  0
  9 25  2  0
 25  5  1  0
  6 26  1  0
  1 27  1  0
 27 28  2  0
 28 29  1  0
 29 30  2  0
 30 31  1  0
 31 32  2  0
 32 27  1  0
M  END
$$$$
s_527a____283426____337220
     RDKit          3D

 32 35  0  0  0  0  0  0  0  0999 V2000
    0.5810    7.1554   -0.5567 Cl  0  0  0  0  0  0  0  0  0  0  0  0
   -0.0047    5.5136   -0.9164 C   0  0  0  0  0  0  0  0  0  0  0  0
   -0.0058    4.5410    0.0773 C   0  0  0  0  0  0  0  0  0  0  0  0
    0.4581    4.8618    1.3584 N   0  0  0  0  0  0  0  0  0  0  0  0
    0.4614    3.7298    2.5312 S   0  0  0  0  0  0  0  0  0  0  0  0
   -0.6136    2.7993    2.3033 O   0  0  0  0  0  0  0  0  0  0  0  0
    0.2835    4.3645    3.8115 O   0  0  0  0  0  0  0  0  0  0  0  0
    1.9794    2.8786    2.5117 C   0  0  0  0  0  0  0  0  0  0  0  0
    3.1743    3.5917    2.5017 C   0  0  0  0  0  0  0  0  0  0  0  0
    3.1523    4.9407    2.5105 O   0  0  0  0  0  0  0  0  0  0  0  0
    4.3702    5.6708    2.5004 C   0  0  0  0  0  0  0  0  0  0  0  0
    4.3907    2.9162    2.4847 C   0  0  0  0  0  0  0  0  0  0  0  0
    4.4132    1.5249    2.4778 C   0  0  0  0  0  0  0  0  0  0  0  0
    3.2138    0.8209    2.4890 C   0  0  0  0  0  0  0  0  0  0  0  0
    3.2274   -0.5788    2.4829 N   0  0  0  0  0  0  0  0  0  0  0  0
    4.4203   -1.2521    2.4665 C   0  0  0  0  0  0  0  0  0  0  0  0
    5.3911   -0.7655    2.9771 O   0  0  0  0  0  0  0  0  0  0  0  0
    4.5100   -2.5533    1.8319 C   0  0  0  0  0  0  0  0  0  0  0  0
    5.6388   -3.3139    1.7538 N   0  0  0  0  0  0  0  0  0  0  0  0
    5.3240   -4.4599    1.0841 C   0  0  0  0  0  0  0  0  0  0  0  0
    3.9934   -4.4292    0.7397 C   0  0  0  0  0  0  0  0  0  0  0  0
    3.4592   -5.5099    0.0430 C   0  0  0  0  0  0  0  0  0  0  0  0
    4.2227   -6.6194   -0.3090 C   0  0  0  0  0  0  0  0  0  0  0  0
    5.5659   -6.6326    0.0526 C   0  0  0  0  0  0  0  0  0  0  0  0
    6.1103   -5.5560    0.7448 C   0  0  0  0  0  0  0  0  0  0  0  0
    3.6481   -7.8066   -1.0647 C   0  0  0  0  0  0  0  0  0  0  0  0
    3.4786   -3.2001    1.2176 C   0  0  0  0  0  0  0  0  0  0  0  0
    1.9931    1.4877    2.5057 C   0  0  0  0  0  0  0  0  0  0  0  0
   -0.4616    3.2552   -0.1954 C   0  0  0  0  0  0  0  0  0  0  0  0
   -0.9184    2.9495   -1.4728 C   0  0  0  0  0  0  0  0  0  0  0  0
   -0.9143    3.9247   -2.4647 C   0  0  0  0  0  0  0  0  0  0  0  0
   -0.4586    5.2114   -2.1965 C   0  0  0  0  0  0  0  0  0  0  0  0
  1  2  1  0
  2  3  2  0
  3  4  1  0
  4  5  1  0
  5  6  2  0
  5  7  2  0
  5  8  1  0
  8  9  2  0
  9 10  1  0
 10 11  1  0
  9 12  1  0
 12 13  2  0
 13 14  1  0
 14 15  1  0
 15 16  1  0
 16 17  2  0
 16 18  1  0
 18 19  1  0
 19 20  1  0
 20 21  2  0
 21 22  1  0
 22 23  2  0
 23 24  1  0
 24 25  2  0
 25 20  1  0
 23 26  1  0
 21 27  1  0
 18 27  2  0
 14 28  2  0
 28  8  1  0
  3 29  1  0
 29 30  2  0
 30 31  1  0
 31 32  2  0
 32  2  1  0
M  END
$$$$
s_270196____8769560____8782586
     RDKit          3D

 33 37  0  0  0  0  0  0  0  0999 V2000
    2.8645   -4.6286    0.9211 S   0  0  0  0  0  0  0  0  0  0  0  0
    1.6745   -5.4212    0.7504 O   0  0  0  0  0  0  0  0  0  0  0  0
    3.1519   -3.9247   -0.3018 O   0  0  0  0  0  0  0  0  0  0  0  0
    2.6336   -3.5542    2.1250 N   0  0  0  0  0  0  0  0  0  0  0  0
    3.5105   -2.4729    2.2762 C   0  0  0  0  0  0  0  0  0  0  0  0
    3.0041   -1.1777    2.3015 C   0  0  0  0  0  0  0  0  0  0  0  0
    3.8847   -0.1115    2.4528 C   0  0  0  0  0  0  0  0  0  0  0  0
    5.2529   -0.3273    2.5768 C   0  0  0  0  0  0  0  0  0  0  0  0
    5.7373   -1.6308    2.5489 C   0  0  0  0  0  0  0  0  0  0  0  0
    4.8752   -2.7119    2.3990 C   0  0  0  0  0  0  0  0  0  0  0  0
    3.3614    1.2404    2.4813 C   0  0  0  0  0  0  0  0  0  0  0  0
    4.0728    2.3381    2.4784 N   0  0  0  0  0  0  0  0  0  0  0  0
    3.2833    3.3258    2.5129 O   0  0  0  0  0  0  0  0  0  0  0  0
    2.0455    2.8984    2.5387 C   0  0  0  0  0  0  0  0  0  0  0  0
    2.0479    1.5879    2.5206 N   0  0  0  0  0  0  0  0  0  0  0  0
    0.8058    3.7775    2.5836 C   0  0  0  0  0  0  0  0  0  0  0  0
    0.3556    4.0913    1.1661 C   0  0  0  0  0  0  0  0  0  0  0  0
   -0.8829    4.9697    1.2109 C   0  0  0  0  0  0  0  0  0  0  0  0
   -0.8776    6.3838    1.2313 C   0  0  0  0  0  0  0  0  0  0  0  0
   -2.2111    6.7309    1.2661 C   0  0  0  0  0  0  0  0  0  0  0  0
   -2.9747    5.5987    1.2758 N   0  0  0  0  0  0  0  0  0  0  0  0
   -2.1629    4.5045    1.2371 C   0  0  0  0  0  0  0  0  0  0  0  0
   -2.5803    8.0721    1.2874 C   0  0  0  0  0  0  0  0  0  0  0  0
   -1.6271    9.0846    1.2765 C   0  0  0  0  0  0  0  0  0  0  0  0
   -0.2754    8.7551    1.2430 C   0  0  0  0  0  0  0  0  0  0  0  0
    0.0717    7.4052    1.2205 C   0  0  0  0  0  0  0  0  0  0  0  0
    0.7667    9.8669    1.2352 C   0  0  0  0  0  0  0  0  0  0  0  0
    4.2014   -5.6679    1.3199 C   0  0  0  0  0  0  0  0  0  0  0  0
    4.0008   -6.7660    2.1501 C   0  0  0  0  0  0  0  0  0  0  0  0
    5.0786   -7.5892    2.4608 C   0  0  0  0  0  0  0  0  0  0  0  0
    6.3428   -7.3173    1.9486 C   0  0  0  0  0  0  0  0  0  0  0  0
    6.5327   -6.2162    1.1201 C   0  0  0  0  0  0  0  0  0  0  0  0
    5.4622   -5.3868    0.8027 C   0  0  0  0  0  0  0  0  0  0  0  0
  1  2  2  0
  1  3  2  0
  1  4  1  0
  4  5  1  0
  5  6  2  0
  6  7  1  0
  7  8  2  0
  8  9  1  0
  9 10  2  0
 10  5  1  0
  7 11  1  0
 11 12  2  0
 12 13  1  0
 13 14  1  0
 14 15  2  0
 15 11  1  0
 14 16  1  0
 16 17  1  0
 17 18  1  0
 18 19  1  0
 19 20  2  0
 20 21  1  0
 21 22  1  0
 18 22  2  0
 20 23  1  0
 23 24  2  0
 24 25  1  0
 25 26  2  0
 26 19  1  0
 25 27  1  0
  1 28  1  0
 28 29  2  0
 29 30  1  0
 30 31  2  0
 31 32  1  0
 32 33  2  0
 33 28  1  0
M  END
$$$$
s_527a____160558____157862
     RDKit          3D

 35 39  0  0  0  0  0  0  0  0999 V2000
    0.4299    3.7470    2.5290 Cl  0  0  0  0  0  0  0  0  0  0  0  0
    1.9828    2.8757    2.5094 C   0  0  0  0  0  0  0  0  0  0  0  0
    3.1792    3.5864    2.5020 C   0  0  0  0  0  0  0  0  0  0  0  0
    3.1519    4.9853    2.5098 N   0  0  0  0  0  0  0  0  0  0  0  0
    4.0533    5.8121    3.5872 S   0  0  0  0  0  0  0  0  0  0  0  0
    5.4073    5.3228    3.5561 O   0  0  0  0  0  0  0  0  0  0  0  0
    4.0409    7.2119    3.2497 O   0  0  0  0  0  0  0  0  0  0  0  0
    3.3946    5.5944    5.1826 C   0  0  0  0  0  0  0  0  0  0  0  0
    3.8362    4.5374    5.9714 C   0  0  0  0  0  0  0  0  0  0  0  0
    3.3055    4.3682    7.2457 C   0  0  0  0  0  0  0  0  0  0  0  0
    2.3428    5.2545    7.7169 C   0  0  0  0  0  0  0  0  0  0  0  0
    1.8398    5.0863    8.9368 F   0  0  0  0  0  0  0  0  0  0  0  0
    1.9055    6.3089    6.9232 C   0  0  0  0  0  0  0  0  0  0  0  0
    2.4319    6.4837    5.6479 C   0  0  0  0  0  0  0  0  0  0  0  0
    4.3966    2.9151    2.4867 C   0  0  0  0  0  0  0  0  0  0  0  0
    4.3941    1.5247    2.4794 C   0  0  0  0  0  0  0  0  0  0  0  0
    3.2015    0.8092    2.4872 C   0  0  0  0  0  0  0  0  0  0  0  0
    1.9858    1.4848    2.5024 C   0  0  0  0  0  0  0  0  0  0  0  0
    5.6615    0.8207    2.4636 C   0  0  0  0  0  0  0  0  0  0  0  0
    6.6475    1.3504    2.8962 O   0  0  0  0  0  0  0  0  0  0  0  0
    5.7333   -0.4493    1.9549 N   0  0  0  0  0  0  0  0  0  0  0  0
    6.8536   -1.2445    2.2154 C   0  0  0  0  0  0  0  0  0  0  0  0
    6.9279   -2.5598    3.2930 S   0  0  0  0  0  0  0  0  0  0  0  0
    8.5639   -2.9579    3.0375 C   0  0  0  0  0  0  0  0  0  0  0  0
    8.9755   -2.0407    2.1241 C   0  0  0  0  0  0  0  0  0  0  0  0
    8.0493   -1.1278    1.6946 N   0  0  0  0  0  0  0  0  0  0  0  0
   10.3462   -2.0913    1.6806 C   0  0  0  0  0  0  0  0  0  0  0  0
   10.7712   -2.4066    0.3690 C   0  0  0  0  0  0  0  0  0  0  0  0
   12.1464   -2.3385    0.4133 C   0  0  0  0  0  0  0  0  0  0  0  0
   12.5315   -1.9919    1.6806 N   0  0  0  0  0  0  0  0  0  0  0  0
   11.4299   -1.8399    2.4672 C   0  0  0  0  0  0  0  0  0  0  0  0
   12.8978   -2.6035   -0.7263 C   0  0  0  0  0  0  0  0  0  0  0  0
   12.2807   -2.9442   -1.9252 C   0  0  0  0  0  0  0  0  0  0  0  0
   10.8926   -3.0188   -1.9790 C   0  0  0  0  0  0  0  0  0  0  0  0
   10.1549   -2.7495   -0.8314 C   0  0  0  0  0  0  0  0  0  0  0  0
  1  2  1  0
  2  3  2  0
  3  4  1  0
  4  5  1  0
  5  6  2  0
  5  7  2  0
  5  8  1  0
  8  9  2  0
  9 10  1  0
 10 11  2  0
 11 12  1  0
 11 13  1  0
 13 14  2  0
 14  8  1  0
  3 15  1  0
 15 16  2  0
 16 17  1  0
 17 18  2  0
 18  2  1  0
 16 19  1  0
 19 20  2  0
 19 21  1  0
 21 22  1  0
 22 23  1  0
 23 24  1  0
 24 25  2  0
 25 26  1  0
 22 26  2  0
 25 27  1  0
 27 28  1  0
 28 29  2  0
 29 30  1  0
 30 31  1  0
 27 31  2  0
 29 32  1  0
 32 33  2  0
 33 34  1  0
 34 35  2  0
 35 28  1  0
M  END
$$$$
s_22____7963384____59922
     RDKit          3D

 32 35  0  0  0  0  0  0  0  0999 V2000
    6.9947    0.9836    0.9934 Cl  0  0  0  0  0  0  0  0  0  0  0  0
    5.2140    0.9907    0.9960 C   0  0  0  0  0  0  0  0  0  0  0  0
    4.5132   -0.1209    0.5379 C   0  0  0  0  0  0  0  0  0  0  0  0
    5.2165   -1.2392    0.0770 N   0  0  0  0  0  0  0  0  0  0  0  0
    4.8416   -1.9003   -1.3650 S   0  0  0  0  0  0  0  0  0  0  0  0
    5.5285   -3.1575   -1.5099 O   0  0  0  0  0  0  0  0  0  0  0  0
    3.4201   -2.1188   -1.4379 O   0  0  0  0  0  0  0  0  0  0  0  0
    5.3288   -0.8229   -2.6411 C   0  0  0  0  0  0  0  0  0  0  0  0
    6.6053   -0.9304   -3.1831 C   0  0  0  0  0  0  0  0  0  0  0  0
    6.9892   -0.0659   -4.2025 C   0  0  0  0  0  0  0  0  0  0  0  0
    6.0963    0.8933   -4.6685 C   0  0  0  0  0  0  0  0  0  0  0  0
    6.4706    1.7167   -5.6439 F   0  0  0  0  0  0  0  0  0  0  0  0
    4.8219    0.9956   -4.1222 C   0  0  0  0  0  0  0  0  0  0  0  0
    4.4316    0.1344   -3.1024 C   0  0  0  0  0  0  0  0  0  0  0  0
    3.1230   -0.1247    0.5361 C   0  0  0  0  0  0  0  0  0  0  0  0
    2.4499    1.0000    1.0000 C   0  0  0  0  0  0  0  0  0  0  0  0
    3.1451    2.1136    1.4593 C   0  0  0  0  0  0  0  0  0  0  0  0
    4.5359    2.1133    1.4594 C   0  0  0  0  0  0  0  0  0  0  0  0
    1.0000    1.0000    1.0000 C   0  0  0  0  0  0  0  0  0  0  0  0
    0.4000   -0.0383    0.9563 O   0  0  0  0  0  0  0  0  0  0  0  0
    0.3150    2.1854    1.0499 N   0  0  0  0  0  0  0  0  0  0  0  0
   -1.1550    2.1854    1.0499 C   0  0  0  0  0  0  0  0  0  0  0  0
   -1.6618    2.1251    2.4822 C   0  0  0  0  0  0  0  0  0  0  0  0
   -1.9135    3.1683    3.2386 N   0  0  0  0  0  0  0  0  0  0  0  0
   -2.3490    2.7167    4.4513 C   0  0  0  0  0  0  0  0  0  0  0  0
   -2.3558    1.3432    4.4125 C   0  0  0  0  0  0  0  0  0  0  0  0
   -1.9224    0.9789    3.1718 N   0  0  0  0  0  0  0  0  0  0  0  0
   -2.7677    0.6439    5.5425 C   0  0  0  0  0  0  0  0  0  0  0  0
   -3.1688    1.3067    6.6982 C   0  0  0  0  0  0  0  0  0  0  0  0
   -3.1585    2.6974    6.7285 C   0  0  0  0  0  0  0  0  0  0  0  0
   -2.7456    3.3955    5.5982 C   0  0  0  0  0  0  0  0  0  0  0  0
   -2.7275    4.9153    5.6094 C   0  0  0  0  0  0  0  0  0  0  0  0
  1  2  1  0
  2  3  2  0
  3  4  1  0
  4  5  1  0
  5  6  2  0
  5  7  2  0
  5  8  1  0
  8  9  2  0
  9 10  1  0
 10 11  2  0
 11 12  1  0
 11 13  1  0
 13 14  2  0
 14  8  1  0
  3 15  1  0
 15 16  2  0
 16 17  1  0
 17 18  2  0
 18  2  1  0
 16 19  1  0
 19 20  2  0
 19 21  1  0
 21 22  1  0
 22 23  1  0
 23 24  2  0
 24 25  1  0
 25 26  2  0
 26 27  1  0
 27 23  1  0
 26 28  1  0
 28 29  2  0
 29 30  1  0
 30 31  2  0
 31 25  1  0
 31 32  1  0
M  END
$$$$
m_276096____13706966____13711292
     RDKit          3D

 35 39  0  0  0  0  0  0  0  0999 V2000
    0.4648    3.7275    2.5286 S   0  0  0  0  0  0  0  0  0  0  0  0
   -0.5215    2.9336    3.2145 O   0  0  0  0  0  0  0  0  0  0  0  0
    0.6266    4.9857    3.2099 O   0  0  0  0  0  0  0  0  0  0  0  0
   -0.0243    3.9976    0.9974 N   0  0  0  0  0  0  0  0  0  0  0  0
    0.9826    4.8080    0.2972 C   0  0  0  0  0  0  0  0  0  0  0  0
    0.5267    5.0599   -1.1302 C   0  0  0  0  0  0  0  0  0  0  0  0
   -0.2420    6.1864   -1.4041 C   0  0  0  0  0  0  0  0  0  0  0  0
   -0.6575    6.4155   -2.7111 C   0  0  0  0  0  0  0  0  0  0  0  0
   -1.3940    7.4857   -2.9945 F   0  0  0  0  0  0  0  0  0  0  0  0
   -0.3105    5.5323   -3.7283 C   0  0  0  0  0  0  0  0  0  0  0  0
    0.4580    4.4082   -3.4416 C   0  0  0  0  0  0  0  0  0  0  0  0
    0.8807    4.1686   -2.1382 C   0  0  0  0  0  0  0  0  0  0  0  0
    1.9834    2.8778    2.5111 C   0  0  0  0  0  0  0  0  0  0  0  0
    3.1753    3.5954    2.5018 C   0  0  0  0  0  0  0  0  0  0  0  0
    4.3816    2.9033    2.4878 C   0  0  0  0  0  0  0  0  0  0  0  0
    4.4082    1.5127    2.4838 C   0  0  0  0  0  0  0  0  0  0  0  0
    3.2052    0.8142    2.4933 C   0  0  0  0  0  0  0  0  0  0  0  0
    1.9876    1.4868    2.5069 C   0  0  0  0  0  0  0  0  0  0  0  0
    5.6831    3.6886    2.4782 C   0  0  0  0  0  0  0  0  0  0  0  0
    6.1159    3.9367    3.8610 N   0  0  0  0  0  0  0  0  0  0  0  0
    7.2954    4.6459    4.1078 C   0  0  0  0  0  0  0  0  0  0  0  0
    8.8477    4.2530    3.5309 S   0  0  0  0  0  0  0  0  0  0  0  0
    9.6823    5.5510    4.2514 C   0  0  0  0  0  0  0  0  0  0  0  0
    8.7076    6.2281    4.9121 C   0  0  0  0  0  0  0  0  0  0  0  0
    7.4345    5.7304    4.8283 N   0  0  0  0  0  0  0  0  0  0  0  0
    9.0837    7.4151    5.6554 C   0  0  0  0  0  0  0  0  0  0  0  0
    9.7617    7.4455    6.8992 C   0  0  0  0  0  0  0  0  0  0  0  0
    9.8865    8.7895    7.1917 C   0  0  0  0  0  0  0  0  0  0  0  0
    9.3119    9.5077    6.1797 N   0  0  0  0  0  0  0  0  0  0  0  0
    8.8132    8.6777    5.2255 C   0  0  0  0  0  0  0  0  0  0  0  0
   10.5050    9.1809    8.3750 C   0  0  0  0  0  0  0  0  0  0  0  0
   11.0033    8.2388    9.2676 C   0  0  0  0  0  0  0  0  0  0  0  0
   10.8799    6.8829    8.9865 C   0  0  0  0  0  0  0  0  0  0  0  0
   10.2578    6.5020    7.8022 C   0  0  0  0  0  0  0  0  0  0  0  0
   10.1496    5.0060    7.5518 C   0  0  0  0  0  0  0  0  0  0  0  0
  1  2  2  0
  1  3  2  0
  1  4  1  0
  4  5  1  0
  5  6  1  0
  6  7  2  0
  7  8  1  0
  8  9  1  0
  8 10  2  0
 10 11  1  0
 11 12  2  0
 12  6  1  0
  1 13  1  0
 13 14  2  0
 14 15  1  0
 15 16  2  0
 16 17  1  0
 17 18  2  0
 18 13  1  0
 15 19  1  0
 19 20  1  0
 20 21  1  0
 21 22  1  0
 22 23  1  0
 23 24  2  0
 24 25  1  0
 21 25  2  0
 24 26  1  0
 26 27  1  0
 27 28  2  0
 28 29  1  0
 29 30  1  0
 26 30  2  0
 28 31  1  0
 31 32  2  0
 32 33  1  0
 33 34  2  0
 34 27  1  0
 34 35  1  0
M  END
$$$$
s_270196____8770000____8775706
     RDKit          3D

 31 35  0  0  0  0  0  0  0  0999 V2000
   -2.9216    1.5635    2.5540 F   0  0  0  0  0  0  0  0  0  0  0  0
   -2.9381    2.8934    2.5596 C   0  0  0  0  0  0  0  0  0  0  0  0
   -1.7418    3.6046    2.5502 C   0  0  0  0  0  0  0  0  0  0  0  0
   -1.7593    4.9949    2.5564 C   0  0  0  0  0  0  0  0  0  0  0  0
   -2.9725    5.6751    2.5703 C   0  0  0  0  0  0  0  0  0  0  0  0
   -4.1685    4.9643    2.5796 C   0  0  0  0  0  0  0  0  0  0  0  0
   -4.1511    3.5737    2.5737 C   0  0  0  0  0  0  0  0  0  0  0  0
   -0.4768    2.8955    2.5349 C   0  0  0  0  0  0  0  0  0  0  0  0
   -0.4616    1.6956    2.5303 O   0  0  0  0  0  0  0  0  0  0  0  0
    0.7008    3.5955    2.5256 N   0  0  0  0  0  0  0  0  0  0  0  0
    1.9830    2.8768    2.5101 C   0  0  0  0  0  0  0  0  0  0  0  0
    3.1728    3.5972    2.5008 C   0  0  0  0  0  0  0  0  0  0  0  0
    4.3800    2.9062    2.4867 C   0  0  0  0  0  0  0  0  0  0  0  0
    4.4072    1.5158    2.4809 C   0  0  0  0  0  0  0  0  0  0  0  0
    3.2053    0.8159    2.4905 C   0  0  0  0  0  0  0  0  0  0  0  0
    1.9867    1.4860    2.5051 C   0  0  0  0  0  0  0  0  0  0  0  0
    5.6240    3.6533    2.4786 C   0  0  0  0  0  0  0  0  0  0  0  0
    6.8343    3.1405    2.4653 N   0  0  0  0  0  0  0  0  0  0  0  0
    7.6700    4.0904    2.4594 O   0  0  0  0  0  0  0  0  0  0  0  0
    7.0399    5.2393    2.4695 C   0  0  0  0  0  0  0  0  0  0  0  0
    5.7515    5.0065    2.4804 N   0  0  0  0  0  0  0  0  0  0  0  0
    7.6645    6.5484    2.4671 C   0  0  0  0  0  0  0  0  0  0  0  0
    6.9980    7.7377    2.4777 N   0  0  0  0  0  0  0  0  0  0  0  0
    7.9270    8.7366    2.4680 C   0  0  0  0  0  0  0  0  0  0  0  0
    9.1848    8.1816    2.4550 C   0  0  0  0  0  0  0  0  0  0  0  0
   10.2886    9.0302    2.4428 C   0  0  0  0  0  0  0  0  0  0  0  0
   10.1618   10.4165    2.4503 C   0  0  0  0  0  0  0  0  0  0  0  0
    8.8805   10.9578    2.4678 C   0  0  0  0  0  0  0  0  0  0  0  0
    7.7712   10.1187    2.4756 C   0  0  0  0  0  0  0  0  0  0  0  0
   11.3601   11.3517    2.4425 C   0  0  0  0  0  0  0  0  0  0  0  0
    9.0087    6.7770    2.4487 C   0  0  0  0  0  0  0  0  0  0  0  0
  1  2  1  0
  2  3  2  0
  3  4  1  0
  4  5  2  0
  5  6  1  0
  6  7  2  0
  7  2  1  0
  3  8  1  0
  8  9  2  0
  8 10  1  0
 10 11  1  0
 11 12  2  0
 12 13  1  0
 13 14  2  0
 14 15  1  0
 15 16  2  0
 16 11  1  0
 13 17  1  0
 17 18  2  0
 18 19  1  0
 19 20  1  0
 20 21  2  0
 21 17  1  0
 20 22  1  0
 22 23  1  0
 23 24  1  0
 24 25  2  0
 25 26  1  0
 26 27  2  0
 27 28  1  0
 28 29  2  0
 29 24  1  0
 27 30  1  0
 25 31  1  0
 22 31  2  0
M  END
$$$$
s_270196____13268226____8785454
     RDKit          3D

 30 34  0  0  0  0  0  0  0  0999 V2000
    6.0005   -0.1720    3.6791 S   0  0  0  0  0  0  0  0  0  0  0  0
    7.3811   -0.5636    3.5605 O   0  0  0  0  0  0  0  0  0  0  0  0
    5.7960    0.4897    4.9416 O   0  0  0  0  0  0  0  0  0  0  0  0
    5.6179    0.8451    2.4642 N   0  0  0  0  0  0  0  0  0  0  0  0
    4.3950    1.5268    2.4808 C   0  0  0  0  0  0  0  0  0  0  0  0
    4.3871    2.9184    2.4851 C   0  0  0  0  0  0  0  0  0  0  0  0
    3.1704    3.5924    2.5011 C   0  0  0  0  0  0  0  0  0  0  0  0
    1.9734    2.8828    2.5131 C   0  0  0  0  0  0  0  0  0  0  0  0
    0.7968    3.5434    2.5296 O   0  0  0  0  0  0  0  0  0  0  0  0
    1.9898    1.4916    2.5089 C   0  0  0  0  0  0  0  0  0  0  0  0
    3.2027    0.8099    2.4927 C   0  0  0  0  0  0  0  0  0  0  0  0
    3.1757    5.0428    2.5051 C   0  0  0  0  0  0  0  0  0  0  0  0
    4.2431    5.8036    2.4948 O   0  0  0  0  0  0  0  0  0  0  0  0
    3.8951    7.0224    2.5014 N   0  0  0  0  0  0  0  0  0  0  0  0
    2.5843    7.0855    2.5177 C   0  0  0  0  0  0  0  0  0  0  0  0
    2.1155    5.8101    2.5211 N   0  0  0  0  0  0  0  0  0  0  0  0
    1.7843    8.2944    2.5326 C   0  0  0  0  0  0  0  0  0  0  0  0
    0.4216    8.3348    2.5495 N   0  0  0  0  0  0  0  0  0  0  0  0
    0.0453    9.6475    2.5599 C   0  0  0  0  0  0  0  0  0  0  0  0
    1.1683   10.4380    2.5498 C   0  0  0  0  0  0  0  0  0  0  0  0
    1.0389   11.8229    2.5540 C   0  0  0  0  0  0  0  0  0  0  0  0
   -0.2179   12.4188    2.5708 C   0  0  0  0  0  0  0  0  0  0  0  0
   -1.3548   11.6173    2.5833 C   0  0  0  0  0  0  0  0  0  0  0  0
   -1.2148   10.2335    2.5787 C   0  0  0  0  0  0  0  0  0  0  0  0
    2.2790    9.5640    2.5332 C   0  0  0  0  0  0  0  0  0  0  0  0
    4.9874   -1.5848    3.5938 C   0  0  0  0  0  0  0  0  0  0  0  0
    5.0828   -2.7858    2.3940 S   0  0  0  0  0  0  0  0  0  0  0  0
    3.8236   -3.7852    2.9613 C   0  0  0  0  0  0  0  0  0  0  0  0
    3.3508   -3.1599    4.0770 C   0  0  0  0  0  0  0  0  0  0  0  0
    3.9849   -1.9402    4.4428 C   0  0  0  0  0  0  0  0  0  0  0  0
  1  2  2  0
  1  3  2  0
  1  4  1  0
  4  5  1  0
  5  6  2  0
  6  7  1  0
  7  8  2  0
  8  9  1  0
  8 10  1  0
 10 11  2  0
 11  5  1  0
  7 12  1  0
 12 13  1  0
 13 14  1  0
 14 15  2  0
 15 16  1  0
 12 16  2  0
 15 17  1  0
 17 18  1  0
 18 19  1  0
 19 20  2  0
 20 21  1  0
 21 22  2  0
 22 23  1  0
 23 24  2  0
 24 19  1  0
 20 25  1  0
 17 25  2  0
  1 26  1  0
 26 27  1  0
 27 28  1  0
 28 29  2  0
 29 30  1  0
 26 30  2  0
M  END
$$$$
s_270196____9423372____8771900
     RDKit          3D

 32 36  0  0  0  0  0  0  0  0999 V2000
    2.1048    6.0347    9.1252 Br  0  0  0  0  0  0  0  0  0  0  0  0
    1.3798    5.2211    7.4963 C   0  0  0  0  0  0  0  0  0  0  0  0
    0.5735    5.9724    6.6469 C   0  0  0  0  0  0  0  0  0  0  0  0
    0.0630    5.3868    5.4932 C   0  0  0  0  0  0  0  0  0  0  0  0
    0.3634    4.0596    5.2027 C   0  0  0  0  0  0  0  0  0  0  0  0
   -0.2810    3.3352    3.7573 S   0  0  0  0  0  0  0  0  0  0  0  0
   -1.5443    3.9470    3.4359 O   0  0  0  0  0  0  0  0  0  0  0  0
   -0.4718    1.9241    3.9717 O   0  0  0  0  0  0  0  0  0  0  0  0
    0.7615    3.5615    2.5249 N   0  0  0  0  0  0  0  0  0  0  0  0
    1.9850    2.8822    2.5096 C   0  0  0  0  0  0  0  0  0  0  0  0
    3.1774    3.5986    2.4996 C   0  0  0  0  0  0  0  0  0  0  0  0
    4.3889    2.9151    2.4847 C   0  0  0  0  0  0  0  0  0  0  0  0
    4.3934    1.5238    2.4792 C   0  0  0  0  0  0  0  0  0  0  0  0
    3.2017    0.8073    2.4891 C   0  0  0  0  0  0  0  0  0  0  0  0
    1.9902    1.4907    2.5042 C   0  0  0  0  0  0  0  0  0  0  0  0
    5.6618    0.8205    2.4636 C   0  0  0  0  0  0  0  0  0  0  0  0
    6.8468    1.3808    2.4539 O   0  0  0  0  0  0  0  0  0  0  0  0
    7.7406    0.4821    2.4424 N   0  0  0  0  0  0  0  0  0  0  0  0
    7.1558   -0.6928    2.4428 C   0  0  0  0  0  0  0  0  0  0  0  0
    5.8140   -0.4795    2.4557 N   0  0  0  0  0  0  0  0  0  0  0  0
    7.8207   -1.9819    2.4290 C   0  0  0  0  0  0  0  0  0  0  0  0
    7.2192   -3.1466    2.4255 O   0  0  0  0  0  0  0  0  0  0  0  0
    8.1154   -4.1149    2.4141 C   0  0  0  0  0  0  0  0  0  0  0  0
    9.3811   -3.5731    2.4062 C   0  0  0  0  0  0  0  0  0  0  0  0
   10.4857   -4.4212    2.3853 C   0  0  0  0  0  0  0  0  0  0  0  0
   10.3518   -5.8077    2.3735 C   0  0  0  0  0  0  0  0  0  0  0  0
    9.0668   -6.3399    2.3820 C   0  0  0  0  0  0  0  0  0  0  0  0
    7.9603   -5.4976    2.4025 C   0  0  0  0  0  0  0  0  0  0  0  0
   11.5573   -6.7384    2.3496 C   0  0  0  0  0  0  0  0  0  0  0  0
    9.1693   -2.1763    2.4163 C   0  0  0  0  0  0  0  0  0  0  0  0
    1.1693    3.3080    6.0517 C   0  0  0  0  0  0  0  0  0  0  0  0
    1.6795    3.8939    7.2049 C   0  0  0  0  0  0  0  0  0  0  0  0
  1  2  1  0
  2  3  2  0
  3  4  1  0
  4  5  2  0
  5  6  1  0
  6  7  2  0
  6  8  2  0
  6  9  1  0
  9 10  1  0
 10 11  2  0
 11 12  1  0
 12 13  2  0
 13 14  1  0
 14 15  2  0
 15 10  1  0
 13 16  1  0
 16 17  1  0
 17 18  1  0
 18 19  2  0
 19 20  1  0
 16 20  2  0
 19 21  1  0
 21 22  1  0
 22 23  1  0
 23 24  2  0
 24 25  1  0
 25 26  2  0
 26 27  1  0
 27 28  2  0
 28 23  1  0
 26 29  1  0
 24 30  1  0
 21 30  2  0
  5 31  1  0
 31 32  2  0
 32  2  1  0
M  END
$$$$
s_276090____14022044____17593374
     RDKit          3D

 33 37  0  0  0  0  0  0  0  0999 V2000
    2.5087    6.9734    1.6612 S   0  0  0  0  0  0  0  0  0  0  0  0
    2.5803    7.1243    3.0915 O   0  0  0  0  0  0  0  0  0  0  0  0
    3.8140    7.1829    1.0905 O   0  0  0  0  0  0  0  0  0  0  0  0
    1.9919    5.4707    1.2986 N   0  0  0  0  0  0  0  0  0  0  0  0
    0.8444    4.9570    1.9152 C   0  0  0  0  0  0  0  0  0  0  0  0
    0.8448    3.7018    2.5156 C   0  0  0  0  0  0  0  0  0  0  0  0
   -0.3118    3.2199    3.1203 C   0  0  0  0  0  0  0  0  0  0  0  0
   -1.4687    3.9921    3.1231 C   0  0  0  0  0  0  0  0  0  0  0  0
   -1.4689    5.2468    2.5226 C   0  0  0  0  0  0  0  0  0  0  0  0
   -0.3121    5.7291    1.9187 C   0  0  0  0  0  0  0  0  0  0  0  0
    2.0507    2.8963    2.5119 C   0  0  0  0  0  0  0  0  0  0  0  0
    3.2767    3.3629    2.5101 N   0  0  0  0  0  0  0  0  0  0  0  0
    4.1101    2.3488    2.5054 N   0  0  0  0  0  0  0  0  0  0  0  0
    3.3604    1.2119    2.5035 C   0  0  0  0  0  0  0  0  0  0  0  0
    2.0907    1.5360    2.5088 N   0  0  0  0  0  0  0  0  0  0  0  0
    3.8638   -0.0934    2.4987 N   0  0  0  0  0  0  0  0  0  0  0  0
    5.2452   -0.3100    2.4933 C   0  0  0  0  0  0  0  0  0  0  0  0
    6.0289   -1.8208    2.4870 S   0  0  0  0  0  0  0  0  0  0  0  0
    7.6284   -1.2359    2.4863 C   0  0  0  0  0  0  0  0  0  0  0  0
    7.4735    0.1135    2.4948 C   0  0  0  0  0  0  0  0  0  0  0  0
    6.1914    0.5951    2.5008 N   0  0  0  0  0  0  0  0  0  0  0  0
    8.6662    0.9383    2.5017 C   0  0  0  0  0  0  0  0  0  0  0  0
    8.5356    2.3231    2.5154 C   0  0  0  0  0  0  0  0  0  0  0  0
    9.6698    3.1287    2.5224 C   0  0  0  0  0  0  0  0  0  0  0  0
   10.9257    2.5318    2.5142 C   0  0  0  0  0  0  0  0  0  0  0  0
   12.0178    3.2905    2.5209 F   0  0  0  0  0  0  0  0  0  0  0  0
   11.0565    1.1475    2.5001 C   0  0  0  0  0  0  0  0  0  0  0  0
    9.9232    0.3417    2.4931 C   0  0  0  0  0  0  0  0  0  0  0  0
    1.3960    8.1426    1.0095 C   0  0  0  0  0  0  0  0  0  0  0  0
    1.1891    8.4799   -0.6441 S   0  0  0  0  0  0  0  0  0  0  0  0
   -0.0098    9.6821   -0.4904 C   0  0  0  0  0  0  0  0  0  0  0  0
   -0.2242    9.7986    0.8512 C   0  0  0  0  0  0  0  0  0  0  0  0
    0.5452    8.9523    1.6969 C   0  0  0  0  0  0  0  0  0  0  0  0
  1  2  2  0
  1  3  2  0
  1  4  1  0
  4  5  1  0
  5  6  1  0
  6  7  2  0
  7  8  1  0
  8  9  2  0
  9 10  1  0
 10  5  2  0
  6 11  1  0
 11 12  2  0
 12 13  1  0
 13 14  1  0
 14 15  2  0
 15 11  1  0
 14 16  1  0
 16 17  1  0
 17 18  1  0
 18 19  1  0
 19 20  2  0
 20 21  1  0
 17 21  2  0
 20 22  1  0
 22 23  2  0
 23 24  1  0
 24 25  2  0
 25 26  1  0
 25 27  1  0
 27 28  2  0
 28 22  1  0
  1 29  1  0
 29 30  1  0
 30 31  1  0
 31 32  2  0
 32 33  1  0
 29 33  2  0
M  END
$$$$
m_275592____14115244____14136522____14130032
     RDKit          3D

 35 38  0  0  0  0  0  0  0  0999 V2000
    0.8208    3.5280    2.5233 F   0  0  0  0  0  0  0  0  0  0  0  0
    1.9783    2.8737    2.5102 C   0  0  0  0  0  0  0  0  0  0  0  0
    3.1731    3.5874    2.5029 C   0  0  0  0  0  0  0  0  0  0  0  0
    4.3905    2.9129    2.4883 C   0  0  0  0  0  0  0  0  0  0  0  0
    4.4155    1.5220    2.4820 C   0  0  0  0  0  0  0  0  0  0  0  0
    3.2140    0.8210    2.4898 C   0  0  0  0  0  0  0  0  0  0  0  0
    1.9906    1.4827    2.5040 C   0  0  0  0  0  0  0  0  0  0  0  0
    3.2290   -0.6987    2.4825 C   0  0  0  0  0  0  0  0  0  0  0  0
    3.2212   -1.1822    1.0943 N   0  0  0  0  0  0  0  0  0  0  0  0
    4.4040   -1.3957    0.4367 C   0  0  0  0  0  0  0  0  0  0  0  0
    5.4463   -1.1881    0.9939 O   0  0  0  0  0  0  0  0  0  0  0  0
    4.3959   -1.8956   -0.9988 C   0  0  0  0  0  0  0  0  0  0  0  0
    5.6570   -2.4713   -1.3066 O   0  0  0  0  0  0  0  0  0  0  0  0
    5.6495   -2.9383   -2.6476 C   0  0  0  0  0  0  0  0  0  0  0  0
    4.1271   -0.7321   -1.9389 C   0  0  0  0  0  0  0  0  0  0  0  0
    4.9733    0.3715   -1.9191 C   0  0  0  0  0  0  0  0  0  0  0  0
    4.7325    1.4394   -2.7774 C   0  0  0  0  0  0  0  0  0  0  0  0
    3.6468    1.3891   -3.6457 C   0  0  0  0  0  0  0  0  0  0  0  0
    3.4109    2.4063   -4.4698 F   0  0  0  0  0  0  0  0  0  0  0  0
    2.7969    0.2881   -3.6688 C   0  0  0  0  0  0  0  0  0  0  0  0
    3.0429   -0.7768   -2.8087 C   0  0  0  0  0  0  0  0  0  0  0  0
    3.1498    5.1072    2.5103 C   0  0  0  0  0  0  0  0  0  0  0  0
    3.1547    5.5906    3.8985 N   0  0  0  0  0  0  0  0  0  0  0  0
    4.3432    5.8341    4.5349 C   0  0  0  0  0  0  0  0  0  0  0  0
    5.3803    5.6528    3.9590 O   0  0  0  0  0  0  0  0  0  0  0  0
    4.3480    6.3109    5.9042 C   0  0  0  0  0  0  0  0  0  0  0  0
    5.5069    6.5965    6.6631 C   0  0  0  0  0  0  0  0  0  0  0  0
    5.0262    7.0106    7.8815 C   0  0  0  0  0  0  0  0  0  0  0  0
    3.6599    6.9766    7.8646 N   0  0  0  0  0  0  0  0  0  0  0  0
    3.2304    6.5446    6.6461 C   0  0  0  0  0  0  0  0  0  0  0  0
    5.9190    7.3784    8.8841 C   0  0  0  0  0  0  0  0  0  0  0  0
    7.2946    7.3275    8.6768 C   0  0  0  0  0  0  0  0  0  0  0  0
    7.7986    6.9033    7.4529 C   0  0  0  0  0  0  0  0  0  0  0  0
    6.8871    6.5435    6.4621 C   0  0  0  0  0  0  0  0  0  0  0  0
    9.3065    6.8469    7.2424 C   0  0  0  0  0  0  0  0  0  0  0  0
  1  2  1  0
  2  3  2  0
  3  4  1  0
  4  5  2  0
  5  6  1  0
  6  7  2  0
  7  2  1  0
  6  8  1  0
  8  9  1  0
  9 10  1  0
 10 11  2  0
 10 12  1  0
 12 13  1  0
 13 14  1  0
 12 15  1  0
 15 16  2  0
 16 17  1  0
 17 18  2  0
 18 19  1  0
 18 20  1  0
 20 21  2  0
 21 15  1  0
  3 22  1  0
 22 23  1  0
 23 24  1  0
 24 25  2  0
 24 26  1  0
 26 27  1  0
 27 28  2  0
 28 29  1  0
 29 30  1  0
 26 30  2  0
 28 31  1  0
 31 32  2  0
 32 33  1  0
 33 34  2  0
 34 27  1  0
 33 35  1  0
M  END
$$$$
s_22____9276248____60243
     RDKit          3D

 35 38  0  0  0  0  0  0  0  0999 V2000
    4.4868    3.9193    5.8537 S   0  0  0  0  0  0  0  0  0  0  0  0
    5.1554    5.0091    6.5162 O   0  0  0  0  0  0  0  0  0  0  0  0
    3.2005    3.7032    6.4639 O   0  0  0  0  0  0  0  0  0  0  0  0
    4.2862    4.2827    4.2774 N   0  0  0  0  0  0  0  0  0  0  0  0
    3.4775    3.4736    3.4698 C   0  0  0  0  0  0  0  0  0  0  0  0
    4.0219    2.8420    2.3566 C   0  0  0  0  0  0  0  0  0  0  0  0
    3.2206    2.0382    1.5520 C   0  0  0  0  0  0  0  0  0  0  0  0
    1.8776    1.8776    1.8776 C   0  0  0  0  0  0  0  0  0  0  0  0
    1.3306    2.5081    2.9902 C   0  0  0  0  0  0  0  0  0  0  0  0
    2.1342    3.3114    3.7925 C   0  0  0  0  0  0  0  0  0  0  0  0
    1.0000    1.0000    1.0000 C   0  0  0  0  0  0  0  0  0  0  0  0
    1.0389   -0.4301    1.5136 C   0  0  0  0  0  0  0  0  0  0  0  0
    2.0246   -1.0967    1.3584 O   0  0  0  0  0  0  0  0  0  0  0  0
   -0.0513   -0.9580    2.1536 N   0  0  0  0  0  0  0  0  0  0  0  0
    0.0969   -2.0773    2.9809 C   0  0  0  0  0  0  0  0  0  0  0  0
    1.2869   -2.6088    3.3801 N   0  0  0  0  0  0  0  0  0  0  0  0
    1.0298   -3.6866    4.1743 C   0  0  0  0  0  0  0  0  0  0  0  0
   -0.3331   -3.8371    4.2749 C   0  0  0  0  0  0  0  0  0  0  0  0
   -0.8440   -4.8781    5.0437 C   0  0  0  0  0  0  0  0  0  0  0  0
    0.0032   -5.7622    5.7052 C   0  0  0  0  0  0  0  0  0  0  0  0
   -0.4686   -6.7804    6.4554 O   0  0  0  0  0  0  0  0  0  0  0  0
   -1.6950   -6.6368    7.1567 C   0  0  0  0  0  0  0  0  0  0  0  0
    1.3793   -5.5956    5.5916 C   0  0  0  0  0  0  0  0  0  0  0  0
    1.8934   -4.5551    4.8245 C   0  0  0  0  0  0  0  0  0  0  0  0
   -0.9267   -2.8038    3.5119 C   0  0  0  0  0  0  0  0  0  0  0  0
    5.4474    2.4755    5.9984 C   0  0  0  0  0  0  0  0  0  0  0  0
    6.8327    2.5742    6.0826 C   0  0  0  0  0  0  0  0  0  0  0  0
    7.5879    1.4120    6.1979 C   0  0  0  0  0  0  0  0  0  0  0  0
    6.9775    0.1627    6.2303 C   0  0  0  0  0  0  0  0  0  0  0  0
    5.5912    0.0861    6.1447 C   0  0  0  0  0  0  0  0  0  0  0  0
    4.8170    1.2360    6.0285 C   0  0  0  0  0  0  0  0  0  0  0  0
    9.1013    1.5213    6.2904 C   0  0  0  0  0  0  0  0  0  0  0  0
    9.4612    1.6240    7.5666 F   0  0  0  0  0  0  0  0  0  0  0  0
    9.6575    0.4363    5.7589 F   0  0  0  0  0  0  0  0  0  0  0  0
    9.5094    2.5991    5.6265 F   0  0  0  0  0  0  0  0  0  0  0  0
  1  2  2  0
  1  3  2  0
  1  4  1  0
  4  5  1  0
  5  6  2  0
  6  7  1  0
  7  8  2  0
  8  9  1  0
  9 10  2  0
 10  5  1  0
  8 11  1  0
 11 12  1  0
 12 13  2  0
 12 14  1  0
 14 15  1  0
 15 16  1  0
 16 17  1  0
 17 18  2  0
 18 19  1  0
 19 20  2  0
 20 21  1  0
 21 22  1  0
 20 23  1  0
 23 24  2  0
 24 17  1  0
 18 25  1  0
 15 25  2  0
  1 26  1  0
 26 27  2  0
 27 28  1  0
 28 29  2  0
 29 30  1  0
 30 31  2  0
 31 26  1  0
 28 32  1  0
 32 33  1  0
 32 34  1  0
 32 35  1  0
M  END
$$$$
s_22____13570664____8752238
     RDKit          3D

 32 36  0  0  0  0  0  0  0  0999 V2000
    7.4720   -8.4358    7.4391 Br  0  0  0  0  0  0  0  0  0  0  0  0
    7.1948   -6.8727    6.2889 C   0  0  0  0  0  0  0  0  0  0  0  0
    5.9302   -6.4838    5.8558 C   0  0  0  0  0  0  0  0  0  0  0  0
    5.7605   -5.3703    5.0380 C   0  0  0  0  0  0  0  0  0  0  0  0
    4.4847   -4.9968    4.6140 C   0  0  0  0  0  0  0  0  0  0  0  0
    3.3671   -5.7307    4.9983 C   0  0  0  0  0  0  0  0  0  0  0  0
    3.5300   -6.8453    5.8144 C   0  0  0  0  0  0  0  0  0  0  0  0
    4.8052   -7.2105    6.2329 C   0  0  0  0  0  0  0  0  0  0  0  0
    4.2528   -3.8455    3.7612 C   0  0  0  0  0  0  0  0  0  0  0  0
    5.0085   -3.4925    2.7481 O   0  0  0  0  0  0  0  0  0  0  0  0
    4.5093   -2.4048    2.1985 C   0  0  0  0  0  0  0  0  0  0  0  0
    3.3866   -2.0625    2.9039 C   0  0  0  0  0  0  0  0  0  0  0  0
    3.2557   -2.9991    3.8864 N   0  0  0  0  0  0  0  0  0  0  0  0
    2.6813   -0.9291    2.4999 C   0  0  0  0  0  0  0  0  0  0  0  0
    3.0725   -0.1434    1.4162 C   0  0  0  0  0  0  0  0  0  0  0  0
    2.3700    1.0000    1.0000 N   0  0  0  0  0  0  0  0  0  0  0  0
    1.0000    1.0000    1.0000 C   0  0  0  0  0  0  0  0  0  0  0  0
    0.4000   -0.0392    1.0000 O   0  0  0  0  0  0  0  0  0  0  0  0
    0.2400    2.3164    1.0000 C   0  0  0  0  0  0  0  0  0  0  0  0
    0.2478    3.0137    0.0234 O   0  0  0  0  0  0  0  0  0  0  0  0
   -0.4945    2.7295    2.1801 C   0  0  0  0  0  0  0  0  0  0  0  0
   -1.1848    3.9370    2.1636 C   0  0  0  0  0  0  0  0  0  0  0  0
   -1.8947    4.3479    3.2873 C   0  0  0  0  0  0  0  0  0  0  0  0
   -1.9016    3.5389    4.4184 C   0  0  0  0  0  0  0  0  0  0  0  0
   -2.5762    3.9200    5.4991 F   0  0  0  0  0  0  0  0  0  0  0  0
   -1.2113    2.3319    4.4352 C   0  0  0  0  0  0  0  0  0  0  0  0
   -0.5015    1.9207    3.3122 C   0  0  0  0  0  0  0  0  0  0  0  0
    4.2169   -0.5134    0.7166 C   0  0  0  0  0  0  0  0  0  0  0  0
    4.9273   -1.6419    1.1131 C   0  0  0  0  0  0  0  0  0  0  0  0
    6.8983   -4.6575    4.6685 C   0  0  0  0  0  0  0  0  0  0  0  0
    8.1724   -5.0260    5.0881 C   0  0  0  0  0  0  0  0  0  0  0  0
    8.3150   -6.1433    5.9049 C   0  0  0  0  0  0  0  0  0  0  0  0
  1  2  1  0
  2  3  2  0
  3  4  1  0
  4  5  1  0
  5  6  2  0
  6  7  1  0
  7  8  2  0
  8  3  1  0
  5  9  1  0
  9 10  1  0
 10 11  1  0
 11 12  2  0
 12 13  1  0
  9 13  2  0
 12 14  1  0
 14 15  2  0
 15 16  1  0
 16 17  1  0
 17 18  2  0
 17 19  1  0
 19 20  2  0
 19 21  1  0
 21 22  2  0
 22 23  1  0
 23 24  2  0
 24 25  1  0
 24 26  1  0
 26 27  2  0
 27 21  1  0
 15 28  1  0
 28 29  2  0
 29 11  1  0
  4 30  2  0
 30 31  1  0
 31 32  2  0
 32  2  1  0
M  END
$$$$
s_527a____214634____16899706
     RDKit          3D

 33 36  0  0  0  0  0  0  0  0999 V2000
   12.1912   -3.2538   -0.6452 Cl  0  0  0  0  0  0  0  0  0  0  0  0
   10.5077   -3.0579   -0.0965 C   0  0  0  0  0  0  0  0  0  0  0  0
   10.0678   -1.9234    0.5844 C   0  0  0  0  0  0  0  0  0  0  0  0
    8.7508   -1.7614    1.0148 C   0  0  0  0  0  0  0  0  0  0  0  0
    7.8799   -2.7900    0.7362 C   0  0  0  0  0  0  0  0  0  0  0  0
    6.6526   -2.4526    1.2264 N   0  0  0  0  0  0  0  0  0  0  0  0
    6.7359   -1.2273    1.8145 C   0  0  0  0  0  0  0  0  0  0  0  0
    5.6419   -0.5247    2.4569 C   0  0  0  0  0  0  0  0  0  0  0  0
    4.7577   -1.1431    2.9820 O   0  0  0  0  0  0  0  0  0  0  0  0
    5.6179    0.8451    2.4642 N   0  0  0  0  0  0  0  0  0  0  0  0
    4.3934    1.5236    2.4797 C   0  0  0  0  0  0  0  0  0  0  0  0
    4.3916    2.9147    2.4870 C   0  0  0  0  0  0  0  0  0  0  0  0
    3.1731    3.5859    2.5017 C   0  0  0  0  0  0  0  0  0  0  0  0
    3.1519    4.9853    2.5098 N   0  0  0  0  0  0  0  0  0  0  0  0
    4.5510    5.8217    2.5002 S   0  0  0  0  0  0  0  0  0  0  0  0
    4.3830    7.0466    3.2383 O   0  0  0  0  0  0  0  0  0  0  0  0
    5.5872    5.0308    3.1120 O   0  0  0  0  0  0  0  0  0  0  0  0
    4.9952    6.1899    0.8590 C   0  0  0  0  0  0  0  0  0  0  0  0
    4.5521    7.3716    0.2744 C   0  0  0  0  0  0  0  0  0  0  0  0
    4.9099    7.6601   -1.0381 C   0  0  0  0  0  0  0  0  0  0  0  0
    5.7047    6.7680   -1.7500 C   0  0  0  0  0  0  0  0  0  0  0  0
    6.0430    7.0507   -3.0049 F   0  0  0  0  0  0  0  0  0  0  0  0
    6.1441    5.5883   -1.1599 C   0  0  0  0  0  0  0  0  0  0  0  0
    5.7897    5.2935    0.1522 C   0  0  0  0  0  0  0  0  0  0  0  0
    1.9797    2.8727    2.5099 C   0  0  0  0  0  0  0  0  0  0  0  0
    0.8052    3.5371    2.5243 O   0  0  0  0  0  0  0  0  0  0  0  0
   -0.4183    2.8163    2.5328 C   0  0  0  0  0  0  0  0  0  0  0  0
    1.9840    1.4816    2.5026 C   0  0  0  0  0  0  0  0  0  0  0  0
    3.2010    0.8072    2.4870 C   0  0  0  0  0  0  0  0  0  0  0  0
    8.0142   -0.7706    1.7015 C   0  0  0  0  0  0  0  0  0  0  0  0
    5.4355   -3.2745    1.1418 C   0  0  0  0  0  0  0  0  0  0  0  0
    8.2881   -3.9351    0.0605 C   0  0  0  0  0  0  0  0  0  0  0  0
    9.6042   -4.0807   -0.3633 C   0  0  0  0  0  0  0  0  0  0  0  0
  1  2  1  0
  2  3  2  0
  3  4  1  0
  4  5  2  0
  5  6  1  0
  6  7  1  0
  7  8  1  0
  8  9  2  0
  8 10  1  0
 10 11  1  0
 11 12  2  0
 12 13  1  0
 13 14  1  0
 14 15  1  0
 15 16  2  0
 15 17  2  0
 15 18  1  0
 18 19  2  0
 19 20  1  0
 20 21  2  0
 21 22  1  0
 21 23  1  0
 23 24  2  0
 24 18  1  0
 13 25  2  0
 25 26  1  0
 26 27  1  0
 25 28  1  0
 28 29  2  0
 29 11  1  0
  7 30  2  0
 30  4  1  0
  6 31  1  0
  5 32  1  0
 32 33  2  0
 33  2  1  0
M  END
$$$$
s_20____3082154____79206
     RDKit          3D

 30 33  0  0  0  0  0  0  0  0999 V2000
    8.8216    3.2605    6.9737 Cl  0  0  0  0  0  0  0  0  0  0  0  0
    8.3409    2.3982    5.4929 C   0  0  0  0  0  0  0  0  0  0  0  0
    8.6524    1.0546    5.3118 C   0  0  0  0  0  0  0  0  0  0  0  0
    8.2663    0.4022    4.1456 C   0  0  0  0  0  0  0  0  0  0  0  0
    8.5737   -0.8936    3.9858 N   0  0  0  0  0  0  0  0  0  0  0  0
    8.2228   -1.5663    2.8798 C   0  0  0  0  0  0  0  0  0  0  0  0
    7.5234   -0.9369    1.8557 C   0  0  0  0  0  0  0  0  0  0  0  0
    7.1944    0.4065    2.0005 C   0  0  0  0  0  0  0  0  0  0  0  0
    6.5147    1.0048    0.9975 O   0  0  0  0  0  0  0  0  0  0  0  0
    5.1658    1.0015    1.0010 C   0  0  0  0  0  0  0  0  0  0  0  0
    4.4691    1.7051    0.0249 C   0  0  0  0  0  0  0  0  0  0  0  0
    5.1364    2.3779   -0.9068 F   0  0  0  0  0  0  0  0  0  0  0  0
    3.0784    1.7102    0.0160 C   0  0  0  0  0  0  0  0  0  0  0  0
    2.3997    1.0000    1.0000 C   0  0  0  0  0  0  0  0  0  0  0  0
    1.0000    1.0000    1.0000 N   0  0  0  0  0  0  0  0  0  0  0  0
    0.1850   -0.4115    0.9807 S   0  0  0  0  0  0  0  0  0  0  0  0
   -1.1206   -0.2041    0.4097 O   0  0  0  0  0  0  0  0  0  0  0  0
    0.9081   -1.3725    0.1887 O   0  0  0  0  0  0  0  0  0  0  0  0
    0.0188   -1.0077    2.6071 C   0  0  0  0  0  0  0  0  0  0  0  0
   -0.7802   -0.3211    3.5153 C   0  0  0  0  0  0  0  0  0  0  0  0
   -0.8998   -0.8134    4.8105 C   0  0  0  0  0  0  0  0  0  0  0  0
   -1.6625   -0.1593    5.6815 F   0  0  0  0  0  0  0  0  0  0  0  0
   -0.2342   -1.9721    5.1975 C   0  0  0  0  0  0  0  0  0  0  0  0
    0.5621   -2.6492    4.2796 C   0  0  0  0  0  0  0  0  0  0  0  0
    0.6902   -2.1673    2.9809 C   0  0  0  0  0  0  0  0  0  0  0  0
    3.0827    0.2912    1.9833 C   0  0  0  0  0  0  0  0  0  0  0  0
    4.4740    0.2944    1.9796 C   0  0  0  0  0  0  0  0  0  0  0  0
    7.5675    1.0887    3.1567 C   0  0  0  0  0  0  0  0  0  0  0  0
    7.2662    2.4327    3.3588 C   0  0  0  0  0  0  0  0  0  0  0  0
    7.6436    3.1024    4.5178 C   0  0  0  0  0  0  0  0  0  0  0  0
  1  2  1  0
  2  3  2  0
  3  4  1  0
  4  5  2  0
  5  6  1  0
  6  7  2  0
  7  8  1  0
  8  9  1  0
  9 10  1  0
 10 11  2  0
 11 12  1  0
 11 13  1  0
 13 14  2  0
 14 15  1  0
 15 16  1  0
 16 17  2  0
 16 18  2  0
 16 19  1  0
 19 20  2  0
 20 21  1  0
 21 22  1  0
 21 23  2  0
 23 24  1  0
 24 25  2  0
 25 19  1  0
 14 26  1  0
 26 27  2  0
 27 10  1  0
  8 28  2  0
 28  4  1  0
 28 29  1  0
 29 30  2  0
 30  2  1  0
M  END
$$$$
s_22____751982____13309224
     RDKit          3D

 30 33  0  0  0  0  0  0  0  0999 V2000
    5.2489   -0.6097   -2.1938 S   0  0  0  0  0  0  0  0  0  0  0  0
    6.1908   -1.5418   -2.7573 O   0  0  0  0  0  0  0  0  0  0  0  0
    3.9502   -0.8284   -2.7761 O   0  0  0  0  0  0  0  0  0  0  0  0
    5.1652   -0.8298   -0.5809 N   0  0  0  0  0  0  0  0  0  0  0  0
    4.4774    0.0926    0.2168 C   0  0  0  0  0  0  0  0  0  0  0  0
    5.1709    1.0042    1.0072 C   0  0  0  0  0  0  0  0  0  0  0  0
    4.4742    1.9160    1.7943 C   0  0  0  0  0  0  0  0  0  0  0  0
    3.0830    1.9166    1.7935 C   0  0  0  0  0  0  0  0  0  0  0  0
    2.4003    1.0000    1.0000 C   0  0  0  0  0  0  0  0  0  0  0  0
    1.0000    1.0000    1.0000 N   0  0  0  0  0  0  0  0  0  0  0  0
    0.3150   -0.1863    0.9828 C   0  0  0  0  0  0  0  0  0  0  0  0
    0.8607   -1.1993    1.3235 O   0  0  0  0  0  0  0  0  0  0  0  0
   -1.0694   -0.2180    0.5528 C   0  0  0  0  0  0  0  0  0  0  0  0
   -1.8259   -1.2861    0.4934 O   0  0  0  0  0  0  0  0  0  0  0  0
   -3.0310   -0.9821    0.0648 C   0  0  0  0  0  0  0  0  0  0  0  0
   -3.0816    0.3690   -0.1773 C   0  0  0  0  0  0  0  0  0  0  0  0
   -4.2440    0.9791   -0.6409 C   0  0  0  0  0  0  0  0  0  0  0  0
   -5.3871    0.2197   -0.8689 C   0  0  0  0  0  0  0  0  0  0  0  0
   -5.3469   -1.1497   -0.6263 C   0  0  0  0  0  0  0  0  0  0  0  0
   -4.1750   -1.7405   -0.1636 C   0  0  0  0  0  0  0  0  0  0  0  0
   -4.3072    2.4739   -0.9111 C   0  0  0  0  0  0  0  0  0  0  0  0
   -1.7958    0.8577    0.1438 C   0  0  0  0  0  0  0  0  0  0  0  0
    3.0865    0.0844    0.2087 C   0  0  0  0  0  0  0  0  0  0  0  0
    6.6911    1.0057    1.0096 C   0  0  0  0  0  0  0  0  0  0  0  0
    5.7693    1.0158   -2.5310 C   0  0  0  0  0  0  0  0  0  0  0  0
    7.1261    1.2965   -2.6555 C   0  0  0  0  0  0  0  0  0  0  0  0
    7.5285    2.6007   -2.9255 C   0  0  0  0  0  0  0  0  0  0  0  0
    6.5856    3.6132   -3.0683 C   0  0  0  0  0  0  0  0  0  0  0  0
    5.2314    3.3220   -2.9411 C   0  0  0  0  0  0  0  0  0  0  0  0
    4.8180    2.0216   -2.6715 C   0  0  0  0  0  0  0  0  0  0  0  0
  1  2  2  0
  1  3  2  0
  1  4  1  0
  4  5  1  0
  5  6  2  0
  6  7  1  0
  7  8  2  0
  8  9  1  0
  9 10  1  0
 10 11  1  0
 11 12  2  0
 11 13  1  0
 13 14  1  0
 14 15  1  0
 15 16  2  0
 16 17  1  0
 17 18  2  0
 18 19  1  0
 19 20  2  0
 20 15  1  0
 17 21  1  0
 16 22  1  0
 13 22  2  0
  9 23  2  0
 23  5  1  0
  6 24  1  0
  1 25  1  0
 25 26  2  0
 26 27  1  0
 27 28  2  0
 28 29  1  0
 29 30  2  0
 30 25  1  0
M  END
$$$$
s_22____13422042____467358
     RDKit          3D

 28 31  0  0  0  0  0  0  0  0999 V2000
    3.9314   -1.3777    1.2489 S   0  0  0  0  0  0  0  0  0  0  0  0
    3.6231   -2.7808    1.3473 O   0  0  0  0  0  0  0  0  0  0  0  0
    3.4348   -0.8637   -0.0012 O   0  0  0  0  0  0  0  0  0  0  0  0
    3.2274   -0.5788    2.4829 N   0  0  0  0  0  0  0  0  0  0  0  0
    3.2063    0.8209    2.4893 C   0  0  0  0  0  0  0  0  0  0  0  0
    1.9866    1.4900    2.5045 C   0  0  0  0  0  0  0  0  0  0  0  0
    1.9777    2.8811    2.5108 C   0  0  0  0  0  0  0  0  0  0  0  0
    0.7870    3.5172    2.5262 O   0  0  0  0  0  0  0  0  0  0  0  0
    3.1737    3.5936    2.5011 C   0  0  0  0  0  0  0  0  0  0  0  0
    4.3880    2.9147    2.4850 C   0  0  0  0  0  0  0  0  0  0  0  0
    4.4071    1.5236    2.4787 C   0  0  0  0  0  0  0  0  0  0  0  0
    3.1538    5.0432    2.5080 C   0  0  0  0  0  0  0  0  0  0  0  0
    2.1731    5.6280    2.8769 O   0  0  0  0  0  0  0  0  0  0  0  0
    4.2547    5.7453    2.0934 N   0  0  0  0  0  0  0  0  0  0  0  0
    4.2355    7.1453    2.1001 C   0  0  0  0  0  0  0  0  0  0  0  0
    3.3336    7.9522    1.3729 C   0  0  0  0  0  0  0  0  0  0  0  0
    3.6791    9.2472    1.6770 C   0  0  0  0  0  0  0  0  0  0  0  0
    4.7346    9.2223    2.5418 N   0  0  0  0  0  0  0  0  0  0  0  0
    5.0886    7.9356    2.8099 C   0  0  0  0  0  0  0  0  0  0  0  0
    2.9738   10.3031    1.1070 C   0  0  0  0  0  0  0  0  0  0  0  0
    1.9221   10.0590    0.2309 C   0  0  0  0  0  0  0  0  0  0  0  0
    1.5673    8.7517   -0.0840 C   0  0  0  0  0  0  0  0  0  0  0  0
    2.2817    7.7078    0.4943 C   0  0  0  0  0  0  0  0  0  0  0  0
    5.6563   -1.1560    1.3231 C   0  0  0  0  0  0  0  0  0  0  0  0
    6.6788   -1.8283    2.5034 S   0  0  0  0  0  0  0  0  0  0  0  0
    8.1507   -1.1836    1.9340 C   0  0  0  0  0  0  0  0  0  0  0  0
    7.8145   -0.4530    0.8328 C   0  0  0  0  0  0  0  0  0  0  0  0
    6.4369   -0.4278    0.4791 C   0  0  0  0  0  0  0  0  0  0  0  0
  1  2  2  0
  1  3  2  0
  1  4  1  0
  4  5  1  0
  5  6  2  0
  6  7  1  0
  7  8  1  0
  7  9  2  0
  9 10  1  0
 10 11  2  0
 11  5  1  0
  9 12  1  0
 12 13  2  0
 12 14  1  0
 14 15  1  0
 15 16  1  0
 16 17  2  0
 17 18  1  0
 18 19  1  0
 15 19  2  0
 17 20  1  0
 20 21  2  0
 21 22  1  0
 22 23  2  0
 23 16  1  0
  1 24  1  0
 24 25  1  0
 25 26  1  0
 26 27  2  0
 27 28  1  0
 24 28  2  0
M  END
$$$$
s_22____765234____323328
     RDKit          3D

 31 34  0  0  0  0  0  0  0  0999 V2000
    6.9855    9.6253    2.7125 F   0  0  0  0  0  0  0  0  0  0  0  0
    5.8866    8.9420    3.0197 C   0  0  0  0  0  0  0  0  0  0  0  0
    5.6703    7.6915    2.4515 C   0  0  0  0  0  0  0  0  0  0  0  0
    4.5142    6.9936    2.7847 C   0  0  0  0  0  0  0  0  0  0  0  0
    3.5862    7.5309    3.6714 C   0  0  0  0  0  0  0  0  0  0  0  0
    3.8146    8.7821    4.2332 C   0  0  0  0  0  0  0  0  0  0  0  0
    4.9670    9.4902    3.9077 C   0  0  0  0  0  0  0  0  0  0  0  0
    4.2842    5.6894    2.1950 C   0  0  0  0  0  0  0  0  0  0  0  0
    5.0857    5.2265    1.4313 O   0  0  0  0  0  0  0  0  0  0  0  0
    3.1519    4.9853    2.5098 N   0  0  0  0  0  0  0  0  0  0  0  0
    3.1731    3.5859    2.5017 C   0  0  0  0  0  0  0  0  0  0  0  0
    1.9797    2.8727    2.5099 C   0  0  0  0  0  0  0  0  0  0  0  0
    0.8052    3.5371    2.5243 O   0  0  0  0  0  0  0  0  0  0  0  0
   -0.4183    2.8163    2.5328 C   0  0  0  0  0  0  0  0  0  0  0  0
    1.9840    1.4816    2.5026 C   0  0  0  0  0  0  0  0  0  0  0  0
    3.2010    0.8072    2.4870 C   0  0  0  0  0  0  0  0  0  0  0  0
    4.3934    1.5236    2.4797 C   0  0  0  0  0  0  0  0  0  0  0  0
    5.6179    0.8451    2.4642 N   0  0  0  0  0  0  0  0  0  0  0  0
    5.6419   -0.5247    2.4569 C   0  0  0  0  0  0  0  0  0  0  0  0
    4.7577   -1.1431    2.9820 O   0  0  0  0  0  0  0  0  0  0  0  0
    6.7361   -1.2274    1.8144 C   0  0  0  0  0  0  0  0  0  0  0  0
    6.8667   -2.5827    1.7441 N   0  0  0  0  0  0  0  0  0  0  0  0
    8.0198   -2.8561    1.0683 C   0  0  0  0  0  0  0  0  0  0  0  0
    8.6203   -1.6737    0.7058 C   0  0  0  0  0  0  0  0  0  0  0  0
    9.8205   -1.7233    0.0014 C   0  0  0  0  0  0  0  0  0  0  0  0
   10.4267   -2.9254   -0.3526 C   0  0  0  0  0  0  0  0  0  0  0  0
    9.8006   -4.1103    0.0201 C   0  0  0  0  0  0  0  0  0  0  0  0
    8.6037   -4.0717    0.7278 C   0  0  0  0  0  0  0  0  0  0  0  0
   11.7336   -2.9906   -1.1259 C   0  0  0  0  0  0  0  0  0  0  0  0
    7.7940   -0.6326    1.1928 C   0  0  0  0  0  0  0  0  0  0  0  0
    4.3916    2.9147    2.4870 C   0  0  0  0  0  0  0  0  0  0  0  0
  1  2  1  0
  2  3  2  0
  3  4  1  0
  4  5  2  0
  5  6  1  0
  6  7  2  0
  7  2  1  0
  4  8  1  0
  8  9  2  0
  8 10  1  0
 10 11  1  0
 11 12  2  0
 12 13  1  0
 13 14  1  0
 12 15  1  0
 15 16  2  0
 16 17  1  0
 17 18  1  0
 18 19  1  0
 19 20  2  0
 19 21  1  0
 21 22  1  0
 22 23  1  0
 23 24  2  0
 24 25  1  0
 25 26  2  0
 26 27  1  0
 27 28  2  0
 28 23  1  0
 26 29  1  0
 24 30  1  0
 21 30  2  0
 17 31  2  0
 31 11  1  0
M  END
$$$$
s_60____14805780____90889
     RDKit          3D

 29 33  0  0  0  0  0  0  0  0999 V2000
    1.8095    0.1464   -1.8425 Cl  0  0  0  0  0  0  0  0  0  0  0  0
    2.9214   -0.6726   -0.7188 C   0  0  0  0  0  0  0  0  0  0  0  0
    3.0950   -0.1799    0.5705 C   0  0  0  0  0  0  0  0  0  0  0  0
    3.9628   -0.8210    1.4485 C   0  0  0  0  0  0  0  0  0  0  0  0
    4.6582   -1.9527    1.0368 C   0  0  0  0  0  0  0  0  0  0  0  0
    4.4849   -2.4446   -0.2529 C   0  0  0  0  0  0  0  0  0  0  0  0
    3.6164   -1.8046   -1.1302 C   0  0  0  0  0  0  0  0  0  0  0  0
    2.3700    1.0000    1.0000 C   0  0  0  0  0  0  0  0  0  0  0  0
    2.9700    1.9766    1.3554 O   0  0  0  0  0  0  0  0  0  0  0  0
    1.0000    1.0000    1.0000 N   0  0  0  0  0  0  0  0  0  0  0  0
    0.2998    2.2128    1.0000 C   0  0  0  0  0  0  0  0  0  0  0  0
    0.7598    3.2701    0.2221 C   0  0  0  0  0  0  0  0  0  0  0  0
    0.0557    4.4698    0.2296 C   0  0  0  0  0  0  0  0  0  0  0  0
   -1.0916    4.6198    1.0010 C   0  0  0  0  0  0  0  0  0  0  0  0
   -1.5335    3.5492    1.7712 C   0  0  0  0  0  0  0  0  0  0  0  0
   -0.8456    2.3404    1.7786 C   0  0  0  0  0  0  0  0  0  0  0  0
    0.5304    5.5744   -0.5809 C   0  0  0  0  0  0  0  0  0  0  0  0
   -0.1986    6.5958   -0.9709 N   0  0  0  0  0  0  0  0  0  0  0  0
    0.5995    7.4178   -1.7125 C   0  0  0  0  0  0  0  0  0  0  0  0
    1.8612    6.8769   -1.7654 C   0  0  0  0  0  0  0  0  0  0  0  0
    1.8016    5.7119   -1.0549 N   0  0  0  0  0  0  0  0  0  0  0  0
    2.8047    7.5996   -2.4914 C   0  0  0  0  0  0  0  0  0  0  0  0
    2.4994    8.7575   -3.0998 N   0  0  0  0  0  0  0  0  0  0  0  0
    1.2662    9.2881   -3.0449 C   0  0  0  0  0  0  0  0  0  0  0  0
    0.2757    8.6159   -2.3383 C   0  0  0  0  0  0  0  0  0  0  0  0
   -1.0143    9.1290   -2.2590 C   0  0  0  0  0  0  0  0  0  0  0  0
   -1.3254   10.3280   -2.8902 C   0  0  0  0  0  0  0  0  0  0  0  0
   -0.3463   11.0133   -3.6000 C   0  0  0  0  0  0  0  0  0  0  0  0
    0.9401   10.4879   -3.6702 C   0  0  0  0  0  0  0  0  0  0  0  0
  1  2  1  0
  2  3  2  0
  3  4  1  0
  4  5  2  0
  5  6  1  0
  6  7  2  0
  7  2  1  0
  3  8  1  0
  8  9  2  0
  8 10  1  0
 10 11  1  0
 11 12  2  0
 12 13  1  0
 13 14  2  0
 14 15  1  0
 15 16  2  0
 16 11  1  0
 13 17  1  0
 17 18  2  0
 18 19  1  0
 19 20  2  0
 20 21  1  0
 21 17  1  0
 20 22  1  0
 22 23  2  0
 23 24  1  0
 24 25  2  0
 25 19  1  0
 25 26  1  0
 26 27  2  0
 27 28  1  0
 28 29  2  0
 29 24  1  0
M  END
$$$$
s_2230b____3049264____14478780
     RDKit          3D

 32 35  0  0  0  0  0  0  0  0999 V2000
    9.5012    0.5065    5.8157 Br  0  0  0  0  0  0  0  0  0  0  0  0
    7.8777    0.7691    4.7485 C   0  0  0  0  0  0  0  0  0  0  0  0
    7.4159    2.0404    4.4163 C   0  0  0  0  0  0  0  0  0  0  0  0
    6.2611    2.2175    3.6597 C   0  0  0  0  0  0  0  0  0  0  0  0
    5.5781    1.1002    3.2373 C   0  0  0  0  0  0  0  0  0  0  0  0
    4.4858    1.4915    2.5155 N   0  0  0  0  0  0  0  0  0  0  0  0
    4.4772    2.8544    2.4752 C   0  0  0  0  0  0  0  0  0  0  0  0
    3.4797    3.6650    1.8032 C   0  0  0  0  0  0  0  0  0  0  0  0
    3.5635    4.8618    1.8274 O   0  0  0  0  0  0  0  0  0  0  0  0
    2.3281    2.9985    1.0682 C   0  0  0  0  0  0  0  0  0  0  0  0
    1.8487    1.8487    1.8487 N   0  0  0  0  0  0  0  0  0  0  0  0
    1.0000    1.0000    1.0000 C   0  0  0  0  0  0  0  0  0  0  0  0
    1.8777    0.1223    0.1223 C   0  0  0  0  0  0  0  0  0  0  0  0
    2.9070   -0.6091    0.7052 C   0  0  0  0  0  0  0  0  0  0  0  0
    3.7067   -1.4108   -0.1026 C   0  0  0  0  0  0  0  0  0  0  0  0
    4.7456   -2.1517    0.4725 N   0  0  0  0  0  0  0  0  0  0  0  0
    4.5395   -3.7383    0.7842 S   0  0  0  0  0  0  0  0  0  0  0  0
    4.5458   -4.4752   -0.4529 O   0  0  0  0  0  0  0  0  0  0  0  0
    5.6102   -4.2051    1.6264 O   0  0  0  0  0  0  0  0  0  0  0  0
    3.0184   -3.9774    1.5939 C   0  0  0  0  0  0  0  0  0  0  0  0
    1.8669   -4.2112    0.8491 C   0  0  0  0  0  0  0  0  0  0  0  0
    0.6571   -4.4010    1.5094 C   0  0  0  0  0  0  0  0  0  0  0  0
    0.5985   -4.3566    2.8984 C   0  0  0  0  0  0  0  0  0  0  0  0
    1.7555   -4.1213    3.6336 C   0  0  0  0  0  0  0  0  0  0  0  0
    2.9704   -3.9304    2.9838 C   0  0  0  0  0  0  0  0  0  0  0  0
    3.4908   -1.4887   -1.4741 C   0  0  0  0  0  0  0  0  0  0  0  0
    2.4558   -0.7487   -2.0351 C   0  0  0  0  0  0  0  0  0  0  0  0
    1.6427    0.0599   -1.2471 C   0  0  0  0  0  0  0  0  0  0  0  0
    1.0682    2.3281    2.9985 C   0  0  0  0  0  0  0  0  0  0  0  0
    5.5511    3.3365    3.1624 C   0  0  0  0  0  0  0  0  0  0  0  0
    6.0124   -0.1807    3.5539 C   0  0  0  0  0  0  0  0  0  0  0  0
    7.1667   -0.3446    4.3119 C   0  0  0  0  0  0  0  0  0  0  0  0
  1  2  1  0
  2  3  2  0
  3  4  1  0
  4  5  2  0
  5  6  1  0
  6  7  1  0
  7  8  1  0
  8  9  2  0
  8 10  1  0
 10 11  1  0
 11 12  1  0
 12 13  1  0
 13 14  2  0
 14 15  1  0
 15 16  1  0
 16 17  1  0
 17 18  2  0
 17 19  2  0
 17 20  1  0
 20 21  2  0
 21 22  1  0
 22 23  2  0
 23 24  1  0
 24 25  2  0
 25 20  1  0
 15 26  2  0
 26 27  1  0
 27 28  2  0
 28 13  1  0
 11 29  1  0
  7 30  2  0
 30  4  1  0
  5 31  1  0
 31 32  2  0
 32  2  1  0
M  CHG  1  11   1
M  END
$$$$
m_274860b____17144820____17185630____17180112
     RDKit          3D

 33 37  0  0  0  0  0  0  0  0999 V2000
   -4.0548    1.6932    6.8736 F   0  0  0  0  0  0  0  0  0  0  0  0
   -3.3731    1.4970    5.7488 C   0  0  0  0  0  0  0  0  0  0  0  0
   -3.8121    0.5485    4.8315 C   0  0  0  0  0  0  0  0  0  0  0  0
   -3.0894    0.3535    3.6588 C   0  0  0  0  0  0  0  0  0  0  0  0
   -1.9422    1.1017    3.4163 C   0  0  0  0  0  0  0  0  0  0  0  0
   -1.5036    2.0507    4.3344 C   0  0  0  0  0  0  0  0  0  0  0  0
   -2.2265    2.2453    5.5063 C   0  0  0  0  0  0  0  0  0  0  0  0
   -1.2007    0.8853    2.1890 C   0  0  0  0  0  0  0  0  0  0  0  0
   -1.7836    0.6156    1.1753 O   0  0  0  0  0  0  0  0  0  0  0  0
    0.3150    1.0000    2.1865 C   0  0  0  0  0  0  0  0  0  0  0  0
    0.9116    1.0906    3.2237 O   0  0  0  0  0  0  0  0  0  0  0  0
    1.0000    1.0000    1.0000 N   0  0  0  0  0  0  0  0  0  0  0  0
    2.4700    1.0000    1.0000 C   0  0  0  0  0  0  0  0  0  0  0  0
    2.9767   -0.4332    1.0000 C   0  0  0  0  0  0  0  0  0  0  0  0
    3.2034   -1.0744   -0.2132 C   0  0  0  0  0  0  0  0  0  0  0  0
    3.6674   -2.3856   -0.2072 C   0  0  0  0  0  0  0  0  0  0  0  0
    3.8996   -3.0418   -1.4227 N   0  0  0  0  0  0  0  0  0  0  0  0
    4.3346   -4.2710   -1.5552 N   0  0  0  0  0  0  0  0  0  0  0  0
    4.4470   -4.5813   -2.7739 N   0  0  0  0  0  0  0  0  0  0  0  0
    4.0620   -3.5064   -3.5169 C   0  0  0  0  0  0  0  0  0  0  0  0
    4.0363   -3.4325   -4.9645 C   0  0  0  0  0  0  0  0  0  0  0  0
    3.6468   -2.3453   -5.6891 N   0  0  0  0  0  0  0  0  0  0  0  0
    3.7624   -2.6647   -7.0118 C   0  0  0  0  0  0  0  0  0  0  0  0
    4.2248   -3.9530   -7.1252 C   0  0  0  0  0  0  0  0  0  0  0  0
    4.4212   -4.5085   -8.3851 C   0  0  0  0  0  0  0  0  0  0  0  0
    4.1566   -3.7721   -9.5353 C   0  0  0  0  0  0  0  0  0  0  0  0
    3.6905   -2.4666   -9.4194 C   0  0  0  0  0  0  0  0  0  0  0  0
    3.4970   -1.9203   -8.1550 C   0  0  0  0  0  0  0  0  0  0  0  0
    4.3988   -4.4384   -5.8092 C   0  0  0  0  0  0  0  0  0  0  0  0
    3.7114   -2.5119   -2.6607 C   0  0  0  0  0  0  0  0  0  0  0  0
    3.9052   -3.0570    0.9872 C   0  0  0  0  0  0  0  0  0  0  0  0
    3.6716   -2.3961    2.1881 C   0  0  0  0  0  0  0  0  0  0  0  0
    3.2078   -1.0845    2.2070 C   0  0  0  0  0  0  0  0  0  0  0  0
  1  2  1  0
  2  3  2  0
  3  4  1  0
  4  5  2  0
  5  6  1  0
  6  7  2  0
  7  2  1  0
  5  8  1  0
  8  9  2  0
  8 10  1  0
 10 11  2  0
 10 12  1  0
 12 13  1  0
 13 14  1  0
 14 15  2  0
 15 16  1  0
 16 17  1  0
 17 18  1  0
 18 19  2  0
 19 20  1  0
 20 21  1  0
 21 22  1  0
 22 23  1  0
 23 24  2  0
 24 25  1  0
 25 26  2  0
 26 27  1  0
 27 28  2  0
 28 23  1  0
 24 29  1  0
 21 29  2  0
 20 30  2  0
 30 17  1  0
 16 31  2  0
 31 32  1  0
 32 33  2  0
 33 14  1  0
M  END
$$$$
s_527a____14797418____758434
     RDKit          3D

 29 32  0  0  0  0  0  0  0  0999 V2000
    0.6749    0.5016    2.5349 S   0  0  0  0  0  0  0  0  0  0  0  0
    0.9606   -0.6375    3.3682 O   0  0  0  0  0  0  0  0  0  0  0  0
   -0.4663    1.2060    3.0596 O   0  0  0  0  0  0  0  0  0  0  0  0
    0.3526   -0.0017    1.0184 N   0  0  0  0  0  0  0  0  0  0  0  0
    1.1664   -0.9670    0.4134 C   0  0  0  0  0  0  0  0  0  0  0  0
    0.8274   -2.3121    0.5135 C   0  0  0  0  0  0  0  0  0  0  0  0
   -0.2644   -2.6747    1.1804 F   0  0  0  0  0  0  0  0  0  0  0  0
    1.6241   -3.2848   -0.0814 C   0  0  0  0  0  0  0  0  0  0  0  0
    2.7628   -2.8916   -0.7764 C   0  0  0  0  0  0  0  0  0  0  0  0
    3.1059   -1.5478   -0.8783 C   0  0  0  0  0  0  0  0  0  0  0  0
    2.3064   -0.5787   -0.2827 C   0  0  0  0  0  0  0  0  0  0  0  0
    2.0529    1.5646    2.5128 C   0  0  0  0  0  0  0  0  0  0  0  0
    2.0067    2.9279    2.5019 C   0  0  0  0  0  0  0  0  0  0  0  0
    3.2923    3.3796    2.4882 N   0  0  0  0  0  0  0  0  0  0  0  0
    4.1376    2.3097    2.4928 C   0  0  0  0  0  0  0  0  0  0  0  0
    5.5856    2.3827    2.4823 C   0  0  0  0  0  0  0  0  0  0  0  0
    6.1324    3.4508    2.4682 O   0  0  0  0  0  0  0  0  0  0  0  0
    6.3295    1.2323    2.4884 N   0  0  0  0  0  0  0  0  0  0  0  0
    7.7290    1.3029    2.4782 C   0  0  0  0  0  0  0  0  0  0  0  0
    8.5863    0.7791    3.4746 C   0  0  0  0  0  0  0  0  0  0  0  0
    8.4590    0.0910    4.6796 C   0  0  0  0  0  0  0  0  0  0  0  0
    7.2534   -0.2308    5.1443 F   0  0  0  0  0  0  0  0  0  0  0  0
    9.5749   -0.2775    5.4241 C   0  0  0  0  0  0  0  0  0  0  0  0
   10.8454    0.0454    4.9592 C   0  0  0  0  0  0  0  0  0  0  0  0
   10.9853    0.7325    3.7573 C   0  0  0  0  0  0  0  0  0  0  0  0
    9.8575    1.0919    3.0276 C   0  0  0  0  0  0  0  0  0  0  0  0
    9.7875    1.7585    1.8380 N   0  0  0  0  0  0  0  0  0  0  0  0
    8.4735    1.8912    1.4972 C   0  0  0  0  0  0  0  0  0  0  0  0
    3.4042    1.1617    2.5084 C   0  0  0  0  0  0  0  0  0  0  0  0
  1  2  2  0
  1  3  2  0
  1  4  1  0
  4  5  1  0
  5  6  2  0
  6  7  1  0
  6  8  1  0
  8  9  2  0
  9 10  1  0
 10 11  2  0
 11  5  1  0
  1 12  1  0
 12 13  2  0
 13 14  1  0
 14 15  1  0
 15 16  1  0
 16 17  2  0
 16 18  1  0
 18 19  1  0
 19 20  1  0
 20 21  2  0
 21 22  1  0
 21 23  1  0
 23 24  2  0
 24 25  1  0
 25 26  2  0
 26 20  1  0
 26 27  1  0
 27 28  1  0
 19 28  2  0
 15 29  2  0
 29 12  1  0
M  END
$$$$
s_527a____214634____530808
     RDKit          3D

 33 36  0  0  0  0  0  0  0  0999 V2000
    4.8757    0.3982   -2.6694 S   0  0  0  0  0  0  0  0  0  0  0  0
    5.7910   -0.2424   -3.5779 O   0  0  0  0  0  0  0  0  0  0  0  0
    3.5234    0.0708   -3.0401 O   0  0  0  0  0  0  0  0  0  0  0  0
    5.1640   -0.1213   -1.1515 N   0  0  0  0  0  0  0  0  0  0  0  0
    4.4671    0.4403   -0.0754 C   0  0  0  0  0  0  0  0  0  0  0  0
    5.1652    0.9958    0.9908 C   0  0  0  0  0  0  0  0  0  0  0  0
    6.5147    0.9908    0.9801 O   0  0  0  0  0  0  0  0  0  0  0  0
    7.2297    2.2167    1.0280 C   0  0  0  0  0  0  0  0  0  0  0  0
    4.4871    1.5572    2.0680 C   0  0  0  0  0  0  0  0  0  0  0  0
    3.0958    1.5574    2.0679 C   0  0  0  0  0  0  0  0  0  0  0  0
    2.4000    1.0000    1.0000 C   0  0  0  0  0  0  0  0  0  0  0  0
    1.0000    1.0000    1.0000 N   0  0  0  0  0  0  0  0  0  0  0  0
    0.3150    2.1854    1.0512 C   0  0  0  0  0  0  0  0  0  0  0  0
    0.8607    3.1770    1.4497 O   0  0  0  0  0  0  0  0  0  0  0  0
   -1.0699    2.2417    0.6236 C   0  0  0  0  0  0  0  0  0  0  0  0
   -1.8534    3.3543    0.6269 N   0  0  0  0  0  0  0  0  0  0  0  0
   -3.0333    3.0069    0.1704 N   0  0  0  0  0  0  0  0  0  0  0  0
   -3.0653    1.7337   -0.1299 C   0  0  0  0  0  0  0  0  0  0  0  0
   -4.2027    1.0100   -0.6627 C   0  0  0  0  0  0  0  0  0  0  0  0
   -4.1764   -0.6468   -1.0378 S   0  0  0  0  0  0  0  0  0  0  0  0
   -5.7851   -0.7531   -1.5726 C   0  0  0  0  0  0  0  0  0  0  0  0
   -6.3231    0.4910   -1.4533 C   0  0  0  0  0  0  0  0  0  0  0  0
   -5.4505    1.4883   -0.9423 C   0  0  0  0  0  0  0  0  0  0  0  0
   -6.4709   -2.0076   -2.0857 C   0  0  0  0  0  0  0  0  0  0  0  0
   -1.7951    1.1936    0.1529 C   0  0  0  0  0  0  0  0  0  0  0  0
    3.0759    0.4381   -0.0782 C   0  0  0  0  0  0  0  0  0  0  0  0
    5.0961    2.1223   -2.7438 C   0  0  0  0  0  0  0  0  0  0  0  0
    6.3488    2.6436   -3.0497 C   0  0  0  0  0  0  0  0  0  0  0  0
    6.5190    4.0227   -3.1071 C   0  0  0  0  0  0  0  0  0  0  0  0
    5.4389    4.8634   -2.8598 C   0  0  0  0  0  0  0  0  0  0  0  0
    5.6093    6.1814   -2.9166 F   0  0  0  0  0  0  0  0  0  0  0  0
    4.1894    4.3358   -2.5544 C   0  0  0  0  0  0  0  0  0  0  0  0
    4.0124    2.9577   -2.4950 C   0  0  0  0  0  0  0  0  0  0  0  0
  1  2  2  0
  1  3  2  0
  1  4  1  0
  4  5  1  0
  5  6  2  0
  6  7  1  0
  7  8  1  0
  6  9  1  0
  9 10  2  0
 10 11  1  0
 11 12  1  0
 12 13  1  0
 13 14  2  0
 13 15  1  0
 15 16  1  0
 16 17  1  0
 17 18  2  0
 18 19  1  0
 19 20  1  0
 20 21  1  0
 21 22  2  0
 22 23  1  0
 19 23  2  0
 21 24  1  0
 18 25  1  0
 15 25  2  0
 11 26  2  0
 26  5  1  0
  1 27  1  0
 27 28  2  0
 28 29  1  0
 29 30  2  0
 30 31  1  0
 30 32  1  0
 32 33  2  0
 33 27  1  0
M  END
$$$$
s_708____244680____1107176
     RDKit          3D

 33 37  0  0  0  0  0  0  0  0999 V2000
   -0.3068    3.3487    1.3124 S   0  0  0  0  0  0  0  0  0  0  0  0
   -0.5079    1.9400    1.0915 O   0  0  0  0  0  0  0  0  0  0  0  0
   -1.5608    3.9631    1.6641 O   0  0  0  0  0  0  0  0  0  0  0  0
    0.7615    3.5615    2.5249 N   0  0  0  0  0  0  0  0  0  0  0  0
    1.9830    2.8768    2.5101 C   0  0  0  0  0  0  0  0  0  0  0  0
    3.1728    3.5972    2.5008 C   0  0  0  0  0  0  0  0  0  0  0  0
    4.3800    2.9062    2.4867 C   0  0  0  0  0  0  0  0  0  0  0  0
    4.4072    1.5158    2.4809 C   0  0  0  0  0  0  0  0  0  0  0  0
    3.2053    0.8159    2.4905 C   0  0  0  0  0  0  0  0  0  0  0  0
    1.9867    1.4860    2.5051 C   0  0  0  0  0  0  0  0  0  0  0  0
    5.6189    3.6503    2.4786 C   0  0  0  0  0  0  0  0  0  0  0  0
    6.7255    2.9398    2.4685 N   0  0  0  0  0  0  0  0  0  0  0  0
    7.8969    3.6407    2.4618 C   0  0  0  0  0  0  0  0  0  0  0  0
    9.4449    2.9346    2.4457 S   0  0  0  0  0  0  0  0  0  0  0  0
   10.3547    4.3702    2.4449 C   0  0  0  0  0  0  0  0  0  0  0  0
    9.4421    5.3817    2.4567 C   0  0  0  0  0  0  0  0  0  0  0  0
    9.9309    6.7470    2.4606 C   0  0  0  0  0  0  0  0  0  0  0  0
   10.9025    7.1289    3.3800 C   0  0  0  0  0  0  0  0  0  0  0  0
   11.3670    8.4397    3.3800 C   0  0  0  0  0  0  0  0  0  0  0  0
   10.8564    9.3518    2.4617 C   0  0  0  0  0  0  0  0  0  0  0  0
    9.8863    8.9683    1.5408 C   0  0  0  0  0  0  0  0  0  0  0  0
    9.4206    7.6576    1.5417 C   0  0  0  0  0  0  0  0  0  0  0  0
   11.3672   10.7837    2.4677 C   0  0  0  0  0  0  0  0  0  0  0  0
    8.0737    4.9854    2.4662 C   0  0  0  0  0  0  0  0  0  0  0  0
    6.8347    5.6926    2.4801 C   0  0  0  0  0  0  0  0  0  0  0  0
    6.7863    6.9127    2.4863 O   0  0  0  0  0  0  0  0  0  0  0  0
    5.6420    5.0204    2.4844 N   0  0  0  0  0  0  0  0  0  0  0  0
    0.3107    4.0810   -0.1399 C   0  0  0  0  0  0  0  0  0  0  0  0
    1.0966    3.3343   -1.0115 C   0  0  0  0  0  0  0  0  0  0  0  0
    1.5838    3.9323   -2.1695 C   0  0  0  0  0  0  0  0  0  0  0  0
    1.2897    5.2620   -2.4525 C   0  0  0  0  0  0  0  0  0  0  0  0
    0.5036    6.0000   -1.5738 C   0  0  0  0  0  0  0  0  0  0  0  0
    0.0111    5.4121   -0.4134 C   0  0  0  0  0  0  0  0  0  0  0  0
  1  2  2  0
  1  3  2  0
  1  4  1  0
  4  5  1  0
  5  6  2  0
  6  7  1  0
  7  8  2  0
  8  9  1  0
  9 10  2  0
 10  5  1  0
  7 11  1  0
 11 12  2  0
 12 13  1  0
 13 14  1  0
 14 15  1  0
 15 16  2  0
 16 17  1  0
 17 18  2  0
 18 19  1  0
 19 20  2  0
 20 21  1  0
 21 22  2  0
 22 17  1  0
 20 23  1  0
 16 24  1  0
 13 24  2  0
 24 25  1  0
 25 26  2  0
 25 27  1  0
 27 11  1  0
  1 28  1  0
 28 29  2  0
 29 30  1  0
 30 31  2  0
 31 32  1  0
 32 33  2  0
 33 28  1  0
M  END
$$$$
m_276096____13709666____13711158
     RDKit          3D

 32 36  0  0  0  0  0  0  0  0999 V2000
    6.0521   -2.2052   -5.0275 Br  0  0  0  0  0  0  0  0  0  0  0  0
    6.6097   -1.3273   -3.3662 C   0  0  0  0  0  0  0  0  0  0  0  0
    5.7921   -1.2975   -2.2381 C   0  0  0  0  0  0  0  0  0  0  0  0
    6.1813   -0.6723   -1.0489 C   0  0  0  0  0  0  0  0  0  0  0  0
    7.4198   -0.0746   -1.0315 C   0  0  0  0  0  0  0  0  0  0  0  0
    7.6192    0.4824    0.1965 N   0  0  0  0  0  0  0  0  0  0  0  0
    6.5150    0.2350    0.9571 C   0  0  0  0  0  0  0  0  0  0  0  0
    5.6056   -0.4702    0.2267 C   0  0  0  0  0  0  0  0  0  0  0  0
    6.3242    0.6847    2.3964 C   0  0  0  0  0  0  0  0  0  0  0  0
    5.6914    2.0114    2.4155 N   0  0  0  0  0  0  0  0  0  0  0  0
    4.2262    2.1265    2.4440 C   0  0  0  0  0  0  0  0  0  0  0  0
    3.3287    3.5724    2.4687 S   0  0  0  0  0  0  0  0  0  0  0  0
    1.7793    2.8660    2.4982 C   0  0  0  0  0  0  0  0  0  0  0  0
    2.0377    1.5325    2.4911 C   0  0  0  0  0  0  0  0  0  0  0  0
    3.3528    1.1511    2.4644 N   0  0  0  0  0  0  0  0  0  0  0  0
    0.9124    0.6182    2.5170 C   0  0  0  0  0  0  0  0  0  0  0  0
   -0.3798    1.1331    2.5429 C   0  0  0  0  0  0  0  0  0  0  0  0
   -1.4657    0.2641    2.5678 C   0  0  0  0  0  0  0  0  0  0  0  0
   -1.2460   -1.1096    2.5673 C   0  0  0  0  0  0  0  0  0  0  0  0
   -2.3872   -2.0358    2.5938 N   0  0  0  0  0  0  0  0  0  0  0  0
   -2.1715   -3.3887    2.5934 C   0  0  0  0  0  0  0  0  0  0  0  0
   -1.0510   -3.8176    2.5714 O   0  0  0  0  0  0  0  0  0  0  0  0
   -3.2974   -4.3025    2.6195 C   0  0  0  0  0  0  0  0  0  0  0  0
   -3.0712   -5.6750    2.6189 C   0  0  0  0  0  0  0  0  0  0  0  0
   -4.1540   -6.5479    2.6431 C   0  0  0  0  0  0  0  0  0  0  0  0
   -5.4512   -6.0465    2.6690 C   0  0  0  0  0  0  0  0  0  0  0  0
   -5.6652   -4.6736    2.6698 C   0  0  0  0  0  0  0  0  0  0  0  0
   -4.5908   -3.7904    2.6451 C   0  0  0  0  0  0  0  0  0  0  0  0
    0.0467   -1.6239    2.5414 C   0  0  0  0  0  0  0  0  0  0  0  0
    1.1326   -0.7548    2.5163 C   0  0  0  0  0  0  0  0  0  0  0  0
    8.2611   -0.0864   -2.1385 C   0  0  0  0  0  0  0  0  0  0  0  0
    7.8570   -0.7146   -3.3113 C   0  0  0  0  0  0  0  0  0  0  0  0
  1  2  1  0
  2  3  2  0
  3  4  1  0
  4  5  2  0
  5  6  1  0
  6  7  1  0
  7  8  2  0
  8  4  1  0
  7  9  1  0
  9 10  1  0
 10 11  1  0
 11 12  1  0
 12 13  1  0
 13 14  2  0
 14 15  1  0
 11 15  2  0
 14 16  1  0
 16 17  2  0
 17 18  1  0
 18 19  2  0
 19 20  1  0
 20 21  1  0
 21 22  2  0
 21 23  1  0
 23 24  2  0
 24 25  1  0
 25 26  2  0
 26 27  1  0
 27 28  2  0
 28 23  1  0
 19 29  1  0
 29 30  2  0
 30 16  1  0
  5 31  1  0
 31 32  2  0
 32  2  1  0
M  END
$$$$
s_43____1408318____1308662
     RDKit          3D

 33 37  0  0  0  0  0  0  0  0999 V2000
    6.0371   -1.6999   -1.0460 S   0  0  0  0  0  0  0  0  0  0  0  0
    5.1963   -0.2241   -1.1300 C   0  0  0  0  0  0  0  0  0  0  0  0
    5.3214    0.2240   -2.3592 N   0  0  0  0  0  0  0  0  0  0  0  0
    6.0556   -0.5721   -3.1940 C   0  0  0  0  0  0  0  0  0  0  0  0
    6.3321   -0.2739   -4.5860 C   0  0  0  0  0  0  0  0  0  0  0  0
    7.5629    0.1862   -5.1161 C   0  0  0  0  0  0  0  0  0  0  0  0
    7.3264    0.3219   -6.4701 C   0  0  0  0  0  0  0  0  0  0  0  0
    6.0303   -0.0345   -6.7208 N   0  0  0  0  0  0  0  0  0  0  0  0
    5.4037   -0.4045   -5.5724 C   0  0  0  0  0  0  0  0  0  0  0  0
    8.3430    0.7787   -7.3030 C   0  0  0  0  0  0  0  0  0  0  0  0
    9.5965    1.0979   -6.7935 C   0  0  0  0  0  0  0  0  0  0  0  0
    9.8456    0.9695   -5.4318 C   0  0  0  0  0  0  0  0  0  0  0  0
    8.8218    0.5145   -4.6073 C   0  0  0  0  0  0  0  0  0  0  0  0
    9.1531    0.3982   -3.1278 C   0  0  0  0  0  0  0  0  0  0  0  0
    6.5655   -1.7197   -2.6652 C   0  0  0  0  0  0  0  0  0  0  0  0
    4.4770    0.4028   -0.0382 C   0  0  0  0  0  0  0  0  0  0  0  0
    3.0860    0.3960   -0.0487 C   0  0  0  0  0  0  0  0  0  0  0  0
    2.4004    1.0000    1.0000 C   0  0  0  0  0  0  0  0  0  0  0  0
    1.0000    1.0000    1.0000 N   0  0  0  0  0  0  0  0  0  0  0  0
    0.3150   -0.1865    0.9987 C   0  0  0  0  0  0  0  0  0  0  0  0
    0.7944   -1.1566    1.5173 O   0  0  0  0  0  0  0  0  0  0  0  0
   -1.0523   -0.2739    0.3405 C   0  0  0  0  0  0  0  0  0  0  0  0
   -2.1049    0.2891    1.2819 C   0  0  0  0  0  0  0  0  0  0  0  0
   -2.2919   -0.2908    2.5323 C   0  0  0  0  0  0  0  0  0  0  0  0
   -3.2568    0.2270    3.3903 C   0  0  0  0  0  0  0  0  0  0  0  0
   -4.0250    1.3175    2.9961 C   0  0  0  0  0  0  0  0  0  0  0  0
   -3.8291    1.8889    1.7448 C   0  0  0  0  0  0  0  0  0  0  0  0
   -2.8679    1.3800    0.8775 C   0  0  0  0  0  0  0  0  0  0  0  0
   -1.3739   -1.7271    0.0317 C   0  0  0  0  0  0  0  0  0  0  0  0
   -2.7412   -1.8146   -0.6266 C   0  0  0  0  0  0  0  0  0  0  0  0
    3.0836    1.6048    2.0497 C   0  0  0  0  0  0  0  0  0  0  0  0
    4.4744    1.5992    2.0398 C   0  0  0  0  0  0  0  0  0  0  0  0
    5.1807    1.0011    1.0015 C   0  0  0  0  0  0  0  0  0  0  0  0
  1  2  1  0
  2  3  2  0
  3  4  1  0
  4  5  1  0
  5  6  1  0
  6  7  2  0
  7  8  1  0
  8  9  1  0
  5  9  2  0
  7 10  1  0
 10 11  2  0
 11 12  1  0
 12 13  2  0
 13  6  1  0
 13 14  1  0
  4 15  2  0
 15  1  1  0
  2 16  1  0
 16 17  2  0
 17 18  1  0
 18 19  1  0
 19 20  1  0
 20 21  2  0
 20 22  1  0
 22 23  1  0
 23 24  2  0
 24 25  1  0
 25 26  2  0
 26 27  1  0
 27 28  2  0
 28 23  1  0
 22 29  1  0
 29 30  1  0
 18 31  2  0
 31 32  1  0
 32 33  2  0
 33 16  1  0
M  END
$$$$
s_60____90602____90965
     RDKit          3D

 33 37  0  0  0  0  0  0  0  0999 V2000
    0.1850   -0.4116    0.9992 S   0  0  0  0  0  0  0  0  0  0  0  0
   -1.2129   -0.1587    0.7636 O   0  0  0  0  0  0  0  0  0  0  0  0
    0.7008   -1.2630   -0.0413 O   0  0  0  0  0  0  0  0  0  0  0  0
    1.0000    1.0000    1.0000 N   0  0  0  0  0  0  0  0  0  0  0  0
    2.3997    1.0000    1.0000 C   0  0  0  0  0  0  0  0  0  0  0  0
    3.0856    1.6046    2.0482 C   0  0  0  0  0  0  0  0  0  0  0  0
    4.4764    1.5985    2.0370 C   0  0  0  0  0  0  0  0  0  0  0  0
    5.1804    0.9997    0.9977 C   0  0  0  0  0  0  0  0  0  0  0  0
    4.4727    0.4008   -0.0398 C   0  0  0  0  0  0  0  0  0  0  0  0
    3.0822    0.3948   -0.0496 C   0  0  0  0  0  0  0  0  0  0  0  0
    5.2318    2.2579    3.1795 C   0  0  0  0  0  0  0  0  0  0  0  0
    5.4523    1.3642    4.1395 F   0  0  0  0  0  0  0  0  0  0  0  0
    6.3944    2.7237    2.7319 F   0  0  0  0  0  0  0  0  0  0  0  0
    4.5096    3.2629    3.6668 F   0  0  0  0  0  0  0  0  0  0  0  0
    0.3809   -1.1953    2.5401 C   0  0  0  0  0  0  0  0  0  0  0  0
   -0.5321   -0.9290    3.5549 C   0  0  0  0  0  0  0  0  0  0  0  0
   -0.4042   -1.5387    4.7984 C   0  0  0  0  0  0  0  0  0  0  0  0
   -1.1420   -1.4556    5.9433 N   0  0  0  0  0  0  0  0  0  0  0  0
   -0.5911   -2.2396    6.8411 C   0  0  0  0  0  0  0  0  0  0  0  0
    0.5093   -2.8478    6.3138 N   0  0  0  0  0  0  0  0  0  0  0  0
    0.6318   -2.4098    5.0287 C   0  0  0  0  0  0  0  0  0  0  0  0
    1.5469   -2.6800    4.0169 C   0  0  0  0  0  0  0  0  0  0  0  0
    1.4311   -2.0781    2.7684 C   0  0  0  0  0  0  0  0  0  0  0  0
   -1.0803   -2.4301    8.1927 C   0  0  0  0  0  0  0  0  0  0  0  0
   -0.3986   -3.2929    9.0439 C   0  0  0  0  0  0  0  0  0  0  0  0
   -0.8710   -3.4712   10.3393 C   0  0  0  0  0  0  0  0  0  0  0  0
   -2.0074   -2.8019   10.7839 C   0  0  0  0  0  0  0  0  0  0  0  0
   -2.6801   -1.9409    9.9223 C   0  0  0  0  0  0  0  0  0  0  0  0
   -2.2167   -1.7539    8.6236 C   0  0  0  0  0  0  0  0  0  0  0  0
   -2.4701   -2.9821   12.0822 C   0  0  0  0  0  0  0  0  0  0  0  0
   -1.7889   -3.8421   12.9378 C   0  0  0  0  0  0  0  0  0  0  0  0
   -0.6548   -4.5119   12.4921 C   0  0  0  0  0  0  0  0  0  0  0  0
   -0.1887   -4.3313   11.1939 C   0  0  0  0  0  0  0  0  0  0  0  0
  1  2  2  0
  1  3  2  0
  1  4  1  0
  4  5  1  0
  5  6  2  0
  6  7  1  0
  7  8  2  0
  8  9  1  0
  9 10  2  0
 10  5  1  0
  7 11  1  0
 11 12  1  0
 11 13  1  0
 11 14  1  0
  1 15  1  0
 15 16  2  0
 16 17  1  0
 17 18  1  0
 18 19  2  0
 19 20  1  0
 20 21  1  0
 21 17  2  0
 21 22  1  0
 22 23  2  0
 23 15  1  0
 19 24  1  0
 24 25  2  0
 25 26  1  0
 26 27  2  0
 27 28  1  0
 28 29  2  0
 29 24  1  0
 27 30  1  0
 30 31  2  0
 31 32  1  0
 32 33  2  0
 33 26  1  0
M  END
$$$$
s_6____71637____13207832
     RDKit          3D

 33 36  0  0  0  0  0  0  0  0999 V2000
    7.4299    1.6313    2.2520 S   0  0  0  0  0  0  0  0  0  0  0  0
    8.8279    1.7227    1.9191 O   0  0  0  0  0  0  0  0  0  0  0  0
    6.9148    2.9476    2.5267 O   0  0  0  0  0  0  0  0  0  0  0  0
    6.6147    0.9791    1.0002 N   0  0  0  0  0  0  0  0  0  0  0  0
    5.2153    0.9799    1.0000 C   0  0  0  0  0  0  0  0  0  0  0  0
    4.5197   -0.2237    0.9475 C   0  0  0  0  0  0  0  0  0  0  0  0
    3.1287   -0.2134    0.9480 C   0  0  0  0  0  0  0  0  0  0  0  0
    2.4501    1.0000    1.0000 C   0  0  0  0  0  0  0  0  0  0  0  0
    3.1449    2.2034    1.0523 C   0  0  0  0  0  0  0  0  0  0  0  0
    4.5359    2.1932    1.0521 C   0  0  0  0  0  0  0  0  0  0  0  0
    1.0000    1.0000    1.0000 C   0  0  0  0  0  0  0  0  0  0  0  0
    0.4000   -0.0383    0.9555 O   0  0  0  0  0  0  0  0  0  0  0  0
    0.2400    2.3151    1.0564 C   0  0  0  0  0  0  0  0  0  0  0  0
   -1.0600    2.3151    1.0564 C   0  0  0  0  0  0  0  0  0  0  0  0
   -1.7856    3.5707    1.1102 C   0  0  0  0  0  0  0  0  0  0  0  0
   -3.1935    3.7122    1.1163 C   0  0  0  0  0  0  0  0  0  0  0  0
   -3.4107    5.0659    1.1695 C   0  0  0  0  0  0  0  0  0  0  0  0
   -2.2115    5.7182    1.1992 N   0  0  0  0  0  0  0  0  0  0  0  0
   -1.2026    4.8012    1.1621 C   0  0  0  0  0  0  0  0  0  0  0  0
   -4.7179    5.5419    1.1894 C   0  0  0  0  0  0  0  0  0  0  0  0
   -5.8019    4.6703    1.1509 C   0  0  0  0  0  0  0  0  0  0  0  0
   -5.5910    3.2963    1.0928 C   0  0  0  0  0  0  0  0  0  0  0  0
   -4.2770    2.8365    1.0772 C   0  0  0  0  0  0  0  0  0  0  0  0
   -6.7285    2.3935    1.0521 C   0  0  0  0  0  0  0  0  0  0  0  0
   -6.5503    1.1977    1.0015 O   0  0  0  0  0  0  0  0  0  0  0  0
   -7.8912    2.8519    1.0693 O   0  0  0  0  0  0  0  0  0  0  0  0
    7.2332    0.6265    3.6586 C   0  0  0  0  0  0  0  0  0  0  0  0
    8.1365   -0.4015    3.9063 C   0  0  0  0  0  0  0  0  0  0  0  0
    7.9813   -1.2063    5.0304 C   0  0  0  0  0  0  0  0  0  0  0  0
    6.9178   -0.9694    5.8947 C   0  0  0  0  0  0  0  0  0  0  0  0
    6.0145    0.0587    5.6460 C   0  0  0  0  0  0  0  0  0  0  0  0
    6.1694    0.8639    4.5230 C   0  0  0  0  0  0  0  0  0  0  0  0
    6.7432   -1.8466    7.1235 C   0  0  0  0  0  0  0  0  0  0  0  0
  1  2  2  0
  1  3  2  0
  1  4  1  0
  4  5  1  0
  5  6  2  0
  6  7  1  0
  7  8  2  0
  8  9  1  0
  9 10  2  0
 10  5  1  0
  8 11  1  0
 11 12  2  0
 11 13  1  0
 13 14  2  0
 14 15  1  0
 15 16  1  0
 16 17  2  0
 17 18  1  0
 18 19  1  0
 15 19  2  0
 17 20  1  0
 20 21  2  0
 21 22  1  0
 22 23  2  0
 23 16  1  0
 22 24  1  0
 24 25  1  0
 24 26  2  0
  1 27  1  0
 27 28  2  0
 28 29  1  0
 29 30  2  0
 30 31  1  0
 31 32  2  0
 32 27  1  0
 30 33  1  0
M  CHG  1  25  -1
M  END
$$$$
s_8____15359954____821406
     RDKit          3D

 31 34  0  0  0  0  0  0  0  0999 V2000
   -0.6374    2.7251    2.5386 S   0  0  0  0  0  0  0  0  0  0  0  0
   -1.6451    3.4632    1.8220 O   0  0  0  0  0  0  0  0  0  0  0  0
   -0.4385    1.4466    1.9066 O   0  0  0  0  0  0  0  0  0  0  0  0
    0.7615    3.5615    2.5249 N   0  0  0  0  0  0  0  0  0  0  0  0
    1.9842    2.8802    2.5097 C   0  0  0  0  0  0  0  0  0  0  0  0
    3.1777    3.5943    2.4980 C   0  0  0  0  0  0  0  0  0  0  0  0
    4.3931    2.9175    2.4829 C   0  0  0  0  0  0  0  0  0  0  0  0
    4.3950    1.5262    2.4798 C   0  0  0  0  0  0  0  0  0  0  0  0
    5.6179    0.8451    2.4642 N   0  0  0  0  0  0  0  0  0  0  0  0
    5.9394   -0.0088    3.4862 C   0  0  0  0  0  0  0  0  0  0  0  0
    5.1693    0.1176    4.9400 S   0  0  0  0  0  0  0  0  0  0  0  0
    6.9004   -0.9675    3.3011 N   0  0  0  0  0  0  0  0  0  0  0  0
    7.5290   -1.5511    4.4073 C   0  0  0  0  0  0  0  0  0  0  0  0
    8.5730   -0.8768    5.0320 C   0  0  0  0  0  0  0  0  0  0  0  0
    9.1972   -1.4573    6.1317 C   0  0  0  0  0  0  0  0  0  0  0  0
    8.7737   -2.6995    6.5941 C   0  0  0  0  0  0  0  0  0  0  0  0
    7.7288   -3.3669    5.9635 C   0  0  0  0  0  0  0  0  0  0  0  0
    7.0997   -2.7932    4.8629 C   0  0  0  0  0  0  0  0  0  0  0  0
    9.3924   -3.2854    7.6936 C   0  0  0  0  0  0  0  0  0  0  0  0
   10.4364   -2.6124    8.3194 C   0  0  0  0  0  0  0  0  0  0  0  0
   10.8616   -1.3704    7.8595 C   0  0  0  0  0  0  0  0  0  0  0  0
   10.2412   -0.7870    6.7602 C   0  0  0  0  0  0  0  0  0  0  0  0
    3.2013    0.8121    2.4917 C   0  0  0  0  0  0  0  0  0  0  0  0
    1.9859    1.4888    2.5066 C   0  0  0  0  0  0  0  0  0  0  0  0
   -1.1535    2.4852    4.1825 C   0  0  0  0  0  0  0  0  0  0  0  0
   -1.9779    3.4267    4.7897 C   0  0  0  0  0  0  0  0  0  0  0  0
   -2.3866    3.2297    6.1043 C   0  0  0  0  0  0  0  0  0  0  0  0
   -1.9693    2.0975    6.7958 C   0  0  0  0  0  0  0  0  0  0  0  0
   -2.3643    1.9159    8.0527 F   0  0  0  0  0  0  0  0  0  0  0  0
   -1.1450    1.1603    6.1831 C   0  0  0  0  0  0  0  0  0  0  0  0
   -0.7324    1.3512    4.8688 C   0  0  0  0  0  0  0  0  0  0  0  0
  1  2  2  0
  1  3  2  0
  1  4  1  0
  4  5  1  0
  5  6  2  0
  6  7  1  0
  7  8  2  0
  8  9  1  0
  9 10  1  0
 10 11  2  0
 10 12  1  0
 12 13  1  0
 13 14  2  0
 14 15  1  0
 15 16  2  0
 16 17  1  0
 17 18  2  0
 18 13  1  0
 16 19  1  0
 19 20  2  0
 20 21  1  0
 21 22  2  0
 22 15  1  0
  8 23  1  0
 23 24  2  0
 24  5  1  0
  1 25  1  0
 25 26  2  0
 26 27  1  0
 27 28  2  0
 28 29  1  0
 28 30  1  0
 30 31  2  0
 31 25  1  0
M  END
$$$$
s_22____9276248____12103000
     RDKit          3D

 32 35  0  0  0  0  0  0  0  0999 V2000
    5.3746    3.5372   -0.0001 S   0  0  0  0  0  0  0  0  0  0  0  0
    4.5878    4.7132    0.2674 O   0  0  0  0  0  0  0  0  0  0  0  0
    6.6349    3.6358    0.6894 O   0  0  0  0  0  0  0  0  0  0  0  0
    5.6406    3.4148   -1.6036 N   0  0  0  0  0  0  0  0  0  0  0  0
    4.5711    3.5169   -2.5001 C   0  0  0  0  0  0  0  0  0  0  0  0
    4.2909    2.4461   -3.3428 C   0  0  0  0  0  0  0  0  0  0  0  0
    3.2261    2.5529   -4.2312 C   0  0  0  0  0  0  0  0  0  0  0  0
    2.9415    1.5387   -5.0446 F   0  0  0  0  0  0  0  0  0  0  0  0
    2.4515    3.7063   -4.2787 C   0  0  0  0  0  0  0  0  0  0  0  0
    2.7415    4.7690   -3.4303 C   0  0  0  0  0  0  0  0  0  0  0  0
    3.8047    4.6771   -2.5391 C   0  0  0  0  0  0  0  0  0  0  0  0
    4.5184    2.1280    0.5550 C   0  0  0  0  0  0  0  0  0  0  0  0
    3.1272    2.1306    0.5552 C   0  0  0  0  0  0  0  0  0  0  0  0
    2.4502    1.0000    1.0000 C   0  0  0  0  0  0  0  0  0  0  0  0
    3.1533   -0.1166    1.4390 C   0  0  0  0  0  0  0  0  0  0  0  0
    2.5072   -1.1984    1.8655 F   0  0  0  0  0  0  0  0  0  0  0  0
    4.5448   -0.1088    1.4340 C   0  0  0  0  0  0  0  0  0  0  0  0
    5.2328    1.0168    0.9915 C   0  0  0  0  0  0  0  0  0  0  0  0
    1.0000    1.0000    1.0000 C   0  0  0  0  0  0  0  0  0  0  0  0
    0.4000    2.0389    0.9735 O   0  0  0  0  0  0  0  0  0  0  0  0
    0.3150   -0.1861    1.0303 N   0  0  0  0  0  0  0  0  0  0  0  0
   -1.0848   -0.1861    1.0303 C   0  0  0  0  0  0  0  0  0  0  0  0
   -1.8717    0.9266    1.0016 N   0  0  0  0  0  0  0  0  0  0  0  0
   -3.1757    0.5292    1.0120 C   0  0  0  0  0  0  0  0  0  0  0  0
   -3.2113   -0.8446    1.0496 C   0  0  0  0  0  0  0  0  0  0  0  0
   -4.4440   -1.4895    1.0638 C   0  0  0  0  0  0  0  0  0  0  0  0
   -5.6317   -0.7643    1.0420 C   0  0  0  0  0  0  0  0  0  0  0  0
   -6.8394   -1.3672    1.0567 O   0  0  0  0  0  0  0  0  0  0  0  0
   -8.0240   -0.5845    1.0332 C   0  0  0  0  0  0  0  0  0  0  0  0
   -5.5769    0.6250    1.0049 C   0  0  0  0  0  0  0  0  0  0  0  0
   -4.3460    1.2729    0.9895 C   0  0  0  0  0  0  0  0  0  0  0  0
   -1.8712   -1.2988    1.0587 C   0  0  0  0  0  0  0  0  0  0  0  0
  1  2  2  0
  1  3  2  0
  1  4  1  0
  4  5  1  0
  5  6  2  0
  6  7  1  0
  7  8  1  0
  7  9  2  0
  9 10  1  0
 10 11  2  0
 11  5  1  0
  1 12  1  0
 12 13  2  0
 13 14  1  0
 14 15  2  0
 15 16  1  0
 15 17  1  0
 17 18  2  0
 18 12  1  0
 14 19  1  0
 19 20  2  0
 19 21  1  0
 21 22  1  0
 22 23  1  0
 23 24  1  0
 24 25  2  0
 25 26  1  0
 26 27  2  0
 27 28  1  0
 28 29  1  0
 27 30  1  0
 30 31  2  0
 31 24  1  0
 25 32  1  0
 22 32  2  0
M  END
$$$$
m_276910____14484268____14485954
     RDKit          3D

 31 35  0  0  0  0  0  0  0  0999 V2000
   -2.0068    1.7823    7.8539 F   0  0  0  0  0  0  0  0  0  0  0  0
   -1.6471    2.0259    6.5969 C   0  0  0  0  0  0  0  0  0  0  0  0
   -2.0995    3.1759    5.9581 C   0  0  0  0  0  0  0  0  0  0  0  0
   -1.7197    3.4236    4.6430 C   0  0  0  0  0  0  0  0  0  0  0  0
   -0.8933    2.5201    3.9832 C   0  0  0  0  0  0  0  0  0  0  0  0
   -0.4436    1.3723    4.6269 C   0  0  0  0  0  0  0  0  0  0  0  0
   -0.8197    1.1196    5.9419 C   0  0  0  0  0  0  0  0  0  0  0  0
   -0.4823    2.7965    2.5464 C   0  0  0  0  0  0  0  0  0  0  0  0
    0.7221    3.5486    2.5349 O   0  0  0  0  0  0  0  0  0  0  0  0
    1.9755    2.8817    2.5149 C   0  0  0  0  0  0  0  0  0  0  0  0
    3.1722    3.5918    2.5033 C   0  0  0  0  0  0  0  0  0  0  0  0
    4.3854    2.9103    2.4834 C   0  0  0  0  0  0  0  0  0  0  0  0
    4.4018    1.5195    2.4751 C   0  0  0  0  0  0  0  0  0  0  0  0
    3.2056    0.8098    2.4874 C   0  0  0  0  0  0  0  0  0  0  0  0
    1.9925    1.4906    2.5074 C   0  0  0  0  0  0  0  0  0  0  0  0
    3.1547    5.0417    2.5108 C   0  0  0  0  0  0  0  0  0  0  0  0
    4.2120    5.8174    2.5013 N   0  0  0  0  0  0  0  0  0  0  0  0
    3.8172    7.0688    2.5116 N   0  0  0  0  0  0  0  0  0  0  0  0
    2.4552    7.0604    2.5291 C   0  0  0  0  0  0  0  0  0  0  0  0
    2.0362    5.8190    2.5291 N   0  0  0  0  0  0  0  0  0  0  0  0
    1.5641    8.2917    2.5485 C   0  0  0  0  0  0  0  0  0  0  0  0
    1.2884    8.6950    3.9881 C   0  0  0  0  0  0  0  0  0  0  0  0
    2.0768    9.5889    4.7494 C   0  0  0  0  0  0  0  0  0  0  0  0
    1.4460    9.6416    5.9730 C   0  0  0  0  0  0  0  0  0  0  0  0
    0.3432    8.8346    5.9634 N   0  0  0  0  0  0  0  0  0  0  0  0
    0.2412    8.2471    4.7373 C   0  0  0  0  0  0  0  0  0  0  0  0
    1.9589   10.4442    6.9862 C   0  0  0  0  0  0  0  0  0  0  0  0
    3.1100   11.1974    6.7830 C   0  0  0  0  0  0  0  0  0  0  0  0
    3.7566   11.1460    5.5523 C   0  0  0  0  0  0  0  0  0  0  0  0
    3.2305   10.3411    4.5465 C   0  0  0  0  0  0  0  0  0  0  0  0
    3.6591   12.0705    7.8995 C   0  0  0  0  0  0  0  0  0  0  0  0
  1  2  1  0
  2  3  2  0
  3  4  1  0
  4  5  2  0
  5  6  1  0
  6  7  2  0
  7  2  1  0
  5  8  1  0
  8  9  1  0
  9 10  1  0
 10 11  1  0
 11 12  2  0
 12 13  1  0
 13 14  2  0
 14 15  1  0
 15 10  2  0
 11 16  1  0
 16 17  2  0
 17 18  1  0
 18 19  1  0
 19 20  2  0
 20 16  1  0
 19 21  1  0
 21 22  1  0
 22 23  1  0
 23 24  2  0
 24 25  1  0
 25 26  1  0
 22 26  2  0
 24 27  1  0
 27 28  2  0
 28 29  1  0
 29 30  2  0
 30 23  1  0
 28 31  1  0
M  END
$$$$
s_22____14797414____60216
     RDKit          3D

 32 35  0  0  0  0  0  0  0  0999 V2000
    7.7041   -3.1521   -0.7802 Cl  0  0  0  0  0  0  0  0  0  0  0  0
    7.4443   -3.0519    0.9781 C   0  0  0  0  0  0  0  0  0  0  0  0
    7.0838   -4.1881    1.6942 C   0  0  0  0  0  0  0  0  0  0  0  0
    6.9351   -5.3460    1.0571 F   0  0  0  0  0  0  0  0  0  0  0  0
    6.8800   -4.1129    3.0676 C   0  0  0  0  0  0  0  0  0  0  0  0
    7.0360   -2.8986    3.7292 C   0  0  0  0  0  0  0  0  0  0  0  0
    7.3962   -1.7706    2.9993 C   0  0  0  0  0  0  0  0  0  0  0  0
    7.5904   -0.2507    3.8233 S   0  0  0  0  0  0  0  0  0  0  0  0
    8.5741    0.5456    3.1362 O   0  0  0  0  0  0  0  0  0  0  0  0
    8.0254   -0.4896    5.1750 O   0  0  0  0  0  0  0  0  0  0  0  0
    6.1666    0.5426    3.8428 N   0  0  0  0  0  0  0  0  0  0  0  0
    5.7226    0.7865    2.4629 C   0  0  0  0  0  0  0  0  0  0  0  0
    4.3946    1.5264    2.4811 C   0  0  0  0  0  0  0  0  0  0  0  0
    4.3868    2.9177    2.4867 C   0  0  0  0  0  0  0  0  0  0  0  0
    3.1749    3.5997    2.5020 C   0  0  0  0  0  0  0  0  0  0  0  0
    1.9845    2.8800    2.5105 C   0  0  0  0  0  0  0  0  0  0  0  0
    1.9911    1.4894    2.5059 C   0  0  0  0  0  0  0  0  0  0  0  0
    3.2033    0.8072    2.4921 C   0  0  0  0  0  0  0  0  0  0  0  0
    0.7179    3.5859    2.5254 C   0  0  0  0  0  0  0  0  0  0  0  0
    0.6658    4.7324    2.1751 O   0  0  0  0  0  0  0  0  0  0  0  0
   -0.4193    2.9438    2.9396 N   0  0  0  0  0  0  0  0  0  0  0  0
   -1.6432    3.6259    2.9540 C   0  0  0  0  0  0  0  0  0  0  0  0
   -2.7981    3.2590    2.2235 C   0  0  0  0  0  0  0  0  0  0  0  0
   -3.1737    2.2538    1.3346 C   0  0  0  0  0  0  0  0  0  0  0  0
   -2.3047    1.3066    0.9870 F   0  0  0  0  0  0  0  0  0  0  0  0
   -4.4533    2.2092    0.7908 C   0  0  0  0  0  0  0  0  0  0  0  0
   -5.3800    3.1861    1.1396 C   0  0  0  0  0  0  0  0  0  0  0  0
   -5.0167    4.1951    2.0263 C   0  0  0  0  0  0  0  0  0  0  0  0
   -3.7326    4.2221    2.5591 C   0  0  0  0  0  0  0  0  0  0  0  0
   -3.1917    5.1172    3.4371 N   0  0  0  0  0  0  0  0  0  0  0  0
   -1.9006    4.7517    3.6816 C   0  0  0  0  0  0  0  0  0  0  0  0
    7.6032   -1.8313    1.6257 C   0  0  0  0  0  0  0  0  0  0  0  0
  1  2  1  0
  2  3  2  0
  3  4  1  0
  3  5  1  0
  5  6  2  0
  6  7  1  0
  7  8  1  0
  8  9  2  0
  8 10  2  0
  8 11  1  0
 11 12  1  0
 12 13  1  0
 13 14  2  0
 14 15  1  0
 15 16  2  0
 16 17  1  0
 17 18  2  0
 18 13  1  0
 16 19  1  0
 19 20  2  0
 19 21  1  0
 21 22  1  0
 22 23  1  0
 23 24  2  0
 24 25  1  0
 24 26  1  0
 26 27  2  0
 27 28  1  0
 28 29  2  0
 29 23  1  0
 29 30  1  0
 30 31  1  0
 22 31  2  0
  7 32  2  0
 32  2  1  0
M  END
$$$$
s_271570____11829988____16543346
     RDKit          3D

 31 35  0  0  0  0  0  0  0  0999 V2000
    2.0946  -10.8801    2.4350 Cl  0  0  0  0  0  0  0  0  0  0  0  0
    2.3383   -9.1168    2.4438 C   0  0  0  0  0  0  0  0  0  0  0  0
    3.6299   -8.6005    2.4391 C   0  0  0  0  0  0  0  0  0  0  0  0
    3.8091   -7.2218    2.4453 C   0  0  0  0  0  0  0  0  0  0  0  0
    2.7041   -6.3770    2.4562 C   0  0  0  0  0  0  0  0  0  0  0  0
    1.4153   -6.8988    2.4609 C   0  0  0  0  0  0  0  0  0  0  0  0
    1.2288   -8.2772    2.4550 C   0  0  0  0  0  0  0  0  0  0  0  0
    2.9063   -4.9406    2.4633 C   0  0  0  0  0  0  0  0  0  0  0  0
    4.1108   -4.3127    2.4601 N   0  0  0  0  0  0  0  0  0  0  0  0
    3.8176   -3.0410    2.4718 C   0  0  0  0  0  0  0  0  0  0  0  0
    4.6503   -1.5608    2.4717 S   0  0  0  0  0  0  0  0  0  0  0  0
    3.2281   -0.6293    2.4827 C   0  0  0  0  0  0  0  0  0  0  0  0
    2.2138   -1.4645    2.4855 N   0  0  0  0  0  0  0  0  0  0  0  0
    2.5077   -2.7605    2.4771 N   0  0  0  0  0  0  0  0  0  0  0  0
    1.9257   -3.9986    2.4751 C   0  0  0  0  0  0  0  0  0  0  0  0
    3.2043    0.8207    2.4847 C   0  0  0  0  0  0  0  0  0  0  0  0
    1.9994    1.5191    2.4940 C   0  0  0  0  0  0  0  0  0  0  0  0
    2.0017    2.8611    2.4979 N   0  0  0  0  0  0  0  0  0  0  0  0
    3.1433    3.5664    2.4932 C   0  0  0  0  0  0  0  0  0  0  0  0
    4.3737    2.9176    2.4835 C   0  0  0  0  0  0  0  0  0  0  0  0
    5.5801    3.6272    2.4789 N   0  0  0  0  0  0  0  0  0  0  0  0
    6.6338    3.4353    1.2502 S   0  0  0  0  0  0  0  0  0  0  0  0
    7.8799    4.0761    1.5820 O   0  0  0  0  0  0  0  0  0  0  0  0
    6.8607    2.0308    1.0274 O   0  0  0  0  0  0  0  0  0  0  0  0
    5.9788    4.1530   -0.1929 C   0  0  0  0  0  0  0  0  0  0  0  0
    6.2413    5.4881   -0.4825 C   0  0  0  0  0  0  0  0  0  0  0  0
    5.7115    6.0495   -1.6400 C   0  0  0  0  0  0  0  0  0  0  0  0
    4.9273    5.2855   -2.4979 C   0  0  0  0  0  0  0  0  0  0  0  0
    4.6703    3.9517   -2.1986 C   0  0  0  0  0  0  0  0  0  0  0  0
    5.1951    3.3802   -1.0442 C   0  0  0  0  0  0  0  0  0  0  0  0
    4.4026    1.5272    2.4796 C   0  0  0  0  0  0  0  0  0  0  0  0
  1  2  1  0
  2  3  2  0
  3  4  1  0
  4  5  2  0
  5  6  1  0
  6  7  2  0
  7  2  1  0
  5  8  1  0
  8  9  1  0
  9 10  2  0
 10 11  1  0
 11 12  1  0
 12 13  2  0
 13 14  1  0
 14 10  1  0
 14 15  1  0
  8 15  2  0
 12 16  1  0
 16 17  2  0
 17 18  1  0
 18 19  2  0
 19 20  1  0
 20 21  1  0
 21 22  1  0
 22 23  2  0
 22 24  2  0
 22 25  1  0
 25 26  2  0
 26 27  1  0
 27 28  2  0
 28 29  1  0
 29 30  2  0
 30 25  1  0
 20 31  2  0
 31 16  1  0
M  END
$$$$
s_22____13422042____59363
     RDKit          3D

 30 33  0  0  0  0  0  0  0  0999 V2000
    1.0000    1.0000    1.0000 S   0  0  0  0  0  0  0  0  0  0  0  0
   -0.2666    1.6504    0.7848 O   0  0  0  0  0  0  0  0  0  0  0  0
    0.7848   -0.2666    1.6504 O   0  0  0  0  0  0  0  0  0  0  0  0
    1.7363    0.7563   -0.4337 N   0  0  0  0  0  0  0  0  0  0  0  0
    2.4239   -0.4397   -0.6733 C   0  0  0  0  0  0  0  0  0  0  0  0
    3.7747   -0.5373   -0.3569 C   0  0  0  0  0  0  0  0  0  0  0  0
    4.4606   -1.7242   -0.5946 C   0  0  0  0  0  0  0  0  0  0  0  0
    3.7780   -2.8026   -1.1484 C   0  0  0  0  0  0  0  0  0  0  0  0
    2.4272   -2.7076   -1.4659 C   0  0  0  0  0  0  0  0  0  0  0  0
    1.7442   -1.5195   -1.2273 C   0  0  0  0  0  0  0  0  0  0  0  0
    4.5252   -4.1003   -1.4092 C   0  0  0  0  0  0  0  0  0  0  0  0
    1.6784    1.7922   -1.4751 C   0  0  0  0  0  0  0  0  0  0  0  0
    2.0045    2.0045    2.0045 C   0  0  0  0  0  0  0  0  0  0  0  0
    1.8611    3.3871    1.9566 C   0  0  0  0  0  0  0  0  0  0  0  0
    2.6713    4.1779    2.7649 C   0  0  0  0  0  0  0  0  0  0  0  0
    3.6142    3.6035    3.6112 C   0  0  0  0  0  0  0  0  0  0  0  0
    3.7415    2.2187    3.6444 C   0  0  0  0  0  0  0  0  0  0  0  0
    2.9408    1.4099    2.8445 C   0  0  0  0  0  0  0  0  0  0  0  0
    2.5242    5.6198    2.7174 C   0  0  0  0  0  0  0  0  0  0  0  0
    1.9208    6.1319    1.8153 O   0  0  0  0  0  0  0  0  0  0  0  0
    3.0741    6.3973    3.7022 N   0  0  0  0  0  0  0  0  0  0  0  0
    2.6808    7.7339    3.8405 C   0  0  0  0  0  0  0  0  0  0  0  0
    3.5544    8.8248    4.0405 C   0  0  0  0  0  0  0  0  0  0  0  0
    2.7420    9.9305    4.1196 C   0  0  0  0  0  0  0  0  0  0  0  0
    1.4462    9.5271    3.9755 N   0  0  0  0  0  0  0  0  0  0  0  0
    1.3932    8.1778    3.8045 C   0  0  0  0  0  0  0  0  0  0  0  0
    3.3031   11.1877    4.3238 C   0  0  0  0  0  0  0  0  0  0  0  0
    4.6799   11.3350    4.4497 C   0  0  0  0  0  0  0  0  0  0  0  0
    5.5092   10.2212    4.3731 C   0  0  0  0  0  0  0  0  0  0  0  0
    4.9329    8.9720    4.1683 C   0  0  0  0  0  0  0  0  0  0  0  0
  1  2  2  0
  1  3  2  0
  1  4  1  0
  4  5  1  0
  5  6  2  0
  6  7  1  0
  7  8  2  0
  8  9  1  0
  9 10  2  0
 10  5  1  0
  8 11  1  0
  4 12  1  0
  1 13  1  0
 13 14  2  0
 14 15  1  0
 15 16  2  0
 16 17  1  0
 17 18  2  0
 18 13  1  0
 15 19  1  0
 19 20  2  0
 19 21  1  0
 21 22  1  0
 22 23  1  0
 23 24  2  0
 24 25  1  0
 25 26  1  0
 22 26  2  0
 24 27  1  0
 27 28  2  0
 28 29  1  0
 29 30  2  0
 30 23  1  0
M  END
$$$$
s_270196____15766890____8779454
     RDKit          3D

 36 40  0  0  0  0  0  0  0  0999 V2000
    0.1850   -0.4116    0.9985 S   0  0  0  0  0  0  0  0  0  0  0  0
   -1.1907   -0.1712    0.6474 O   0  0  0  0  0  0  0  0  0  0  0  0
    0.7764   -1.3063    0.0375 O   0  0  0  0  0  0  0  0  0  0  0  0
    1.0000    1.0000    1.0000 N   0  0  0  0  0  0  0  0  0  0  0  0
    2.4004    1.0000    1.0000 C   0  0  0  0  0  0  0  0  0  0  0  0
    3.0860    1.6953    0.0095 C   0  0  0  0  0  0  0  0  0  0  0  0
    4.4770    1.6887    0.0201 C   0  0  0  0  0  0  0  0  0  0  0  0
    5.1807    0.9991    1.0016 C   0  0  0  0  0  0  0  0  0  0  0  0
    4.4744    0.3107    1.9824 C   0  0  0  0  0  0  0  0  0  0  0  0
    3.0836    0.3041    1.9916 C   0  0  0  0  0  0  0  0  0  0  0  0
    5.1963    2.4134   -1.0094 C   0  0  0  0  0  0  0  0  0  0  0  0
    4.6521    3.0612   -2.0107 O   0  0  0  0  0  0  0  0  0  0  0  0
    5.5618    3.5826   -2.7228 N   0  0  0  0  0  0  0  0  0  0  0  0
    6.7281    3.2841   -2.2003 C   0  0  0  0  0  0  0  0  0  0  0  0
    6.4973    2.5287   -1.0946 N   0  0  0  0  0  0  0  0  0  0  0  0
    8.0248    3.6847   -2.7116 C   0  0  0  0  0  0  0  0  0  0  0  0
    8.2296    4.4411   -3.8259 N   0  0  0  0  0  0  0  0  0  0  0  0
    9.5765    4.5993   -3.9743 C   0  0  0  0  0  0  0  0  0  0  0  0
   10.2914    5.2845   -4.9505 C   0  0  0  0  0  0  0  0  0  0  0  0
    9.6463    5.9125   -5.9295 F   0  0  0  0  0  0  0  0  0  0  0  0
   11.6810    5.3195   -4.9118 C   0  0  0  0  0  0  0  0  0  0  0  0
   12.3519    4.6618   -3.8851 C   0  0  0  0  0  0  0  0  0  0  0  0
   11.6218    3.9816   -2.9152 C   0  0  0  0  0  0  0  0  0  0  0  0
   12.3059    3.3557   -1.9331 O   0  0  0  0  0  0  0  0  0  0  0  0
   13.7249    3.4044   -1.9141 C   0  0  0  0  0  0  0  0  0  0  0  0
   10.2288    3.9480   -2.9551 C   0  0  0  0  0  0  0  0  0  0  0  0
    9.2237    3.3628   -2.1497 C   0  0  0  0  0  0  0  0  0  0  0  0
    0.2627   -1.1277    2.5820 C   0  0  0  0  0  0  0  0  0  0  0  0
   -0.6227   -0.7109    3.5704 C   0  0  0  0  0  0  0  0  0  0  0  0
   -0.5553   -1.2866    4.8345 C   0  0  0  0  0  0  0  0  0  0  0  0
    0.3925   -2.2701    5.0965 C   0  0  0  0  0  0  0  0  0  0  0  0
    0.4519   -2.8246    6.3262 O   0  0  0  0  0  0  0  0  0  0  0  0
   -0.5255   -2.4942    7.3019 C   0  0  0  0  0  0  0  0  0  0  0  0
   -0.2320   -3.2484    8.5886 C   0  0  0  0  0  0  0  0  0  0  0  0
    1.2749   -2.6822    4.1042 C   0  0  0  0  0  0  0  0  0  0  0  0
    1.2131   -2.1104    2.8380 C   0  0  0  0  0  0  0  0  0  0  0  0
  1  2  2  0
  1  3  2  0
  1  4  1  0
  4  5  1  0
  5  6  2  0
  6  7  1  0
  7  8  2  0
  8  9  1  0
  9 10  2  0
 10  5  1  0
  7 11  1  0
 11 12  1  0
 12 13  1  0
 13 14  2  0
 14 15  1  0
 11 15  2  0
 14 16  1  0
 16 17  1  0
 17 18  1  0
 18 19  2  0
 19 20  1  0
 19 21  1  0
 21 22  2  0
 22 23  1  0
 23 24  1  0
 24 25  1  0
 23 26  2  0
 26 18  1  0
 26 27  1  0
 16 27  2  0
  1 28  1  0
 28 29  2  0
 29 30  1  0
 30 31  2  0
 31 32  1  0
 32 33  1  0
 33 34  1  0
 31 35  1  0
 35 36  2  0
 36 28  1  0
M  END
$$$$
s_527a____9581340____13902764
     RDKit          3D

 31 34  0  0  0  0  0  0  0  0999 V2000
   -0.5433   12.7952    1.9418 Cl  0  0  0  0  0  0  0  0  0  0  0  0
    0.4163   11.3620    2.3813 C   0  0  0  0  0  0  0  0  0  0  0  0
    1.3057   11.3854    3.4521 C   0  0  0  0  0  0  0  0  0  0  0  0
    2.0369   10.2419    3.7645 C   0  0  0  0  0  0  0  0  0  0  0  0
    1.9126    9.0592    3.0378 C   0  0  0  0  0  0  0  0  0  0  0  0
    1.0280    9.0581    1.9808 C   0  0  0  0  0  0  0  0  0  0  0  0
    1.0374    7.8279    1.3904 N   0  0  0  0  0  0  0  0  0  0  0  0
    1.9287    7.0488    2.0685 C   0  0  0  0  0  0  0  0  0  0  0  0
    2.2368    5.6671    1.7558 C   0  0  0  0  0  0  0  0  0  0  0  0
    1.6894    5.1235    0.8367 O   0  0  0  0  0  0  0  0  0  0  0  0
    3.1529    4.9820    2.5097 N   0  0  0  0  0  0  0  0  0  0  0  0
    3.1579    3.5824    2.5035 C   0  0  0  0  0  0  0  0  0  0  0  0
    2.0142    2.8799    2.5076 N   0  0  0  0  0  0  0  0  0  0  0  0
    2.0146    1.5381    2.5013 C   0  0  0  0  0  0  0  0  0  0  0  0
    3.2079    0.8224    2.4899 C   0  0  0  0  0  0  0  0  0  0  0  0
    3.2274   -0.5788    2.4829 N   0  0  0  0  0  0  0  0  0  0  0  0
    3.9351   -1.3779    1.2511 S   0  0  0  0  0  0  0  0  0  0  0  0
    5.2528   -0.8427    1.0258 O   0  0  0  0  0  0  0  0  0  0  0  0
    4.0348   -2.7762    1.5803 O   0  0  0  0  0  0  0  0  0  0  0  0
    2.9393   -1.1804   -0.2474 C   0  0  0  0  0  0  0  0  0  0  0  0
    3.5994   -1.9258   -1.3964 C   0  0  0  0  0  0  0  0  0  0  0  0
    3.2727   -3.2572   -1.6321 C   0  0  0  0  0  0  0  0  0  0  0  0
    3.8796   -3.9357   -2.6840 C   0  0  0  0  0  0  0  0  0  0  0  0
    4.8046   -3.2823   -3.4916 C   0  0  0  0  0  0  0  0  0  0  0  0
    5.1228   -1.9521   -3.2470 C   0  0  0  0  0  0  0  0  0  0  0  0
    4.5233   -1.2628   -2.1980 C   0  0  0  0  0  0  0  0  0  0  0  0
    4.4030    1.5341    2.4843 C   0  0  0  0  0  0  0  0  0  0  0  0
    4.3843    2.9251    2.4916 C   0  0  0  0  0  0  0  0  0  0  0  0
    2.4842    7.7673    3.0849 C   0  0  0  0  0  0  0  0  0  0  0  0
    0.2857   10.1868    1.6498 C   0  0  0  0  0  0  0  0  0  0  0  0
    1.4542   12.6684    4.2546 C   0  0  0  0  0  0  0  0  0  0  0  0
  1  2  1  0
  2  3  2  0
  3  4  1  0
  4  5  2  0
  5  6  1  0
  6  7  1  0
  7  8  1  0
  8  9  1  0
  9 10  2  0
  9 11  1  0
 11 12  1  0
 12 13  2  0
 13 14  1  0
 14 15  2  0
 15 16  1  0
 16 17  1  0
 17 18  2  0
 17 19  2  0
 17 20  1  0
 20 21  1  0
 21 22  2  0
 22 23  1  0
 23 24  2  0
 24 25  1  0
 25 26  2  0
 26 21  1  0
 15 27  1  0
 27 28  2  0
 28 12  1  0
  8 29  2  0
 29  5  1  0
  6 30  2  0
 30  2  1  0
  3 31  1  0
M  END
$$$$
s_22____10738678____59626
     RDKit          3D

 34 37  0  0  0  0  0  0  0  0999 V2000
    5.3130   -2.4256    2.0235 S   0  0  0  0  0  0  0  0  0  0  0  0
    4.0185   -3.0096    2.2623 O   0  0  0  0  0  0  0  0  0  0  0  0
    6.2636   -3.4676    1.7338 O   0  0  0  0  0  0  0  0  0  0  0  0
    5.2229   -1.4045    0.7562 N   0  0  0  0  0  0  0  0  0  0  0  0
    4.5252   -0.1967    0.8784 C   0  0  0  0  0  0  0  0  0  0  0  0
    5.2230    1.0006    0.9989 C   0  0  0  0  0  0  0  0  0  0  0  0
    4.5297    2.2003    1.1203 C   0  0  0  0  0  0  0  0  0  0  0  0
    3.1384    2.2032    1.1211 C   0  0  0  0  0  0  0  0  0  0  0  0
    2.4504    1.0000    1.0000 C   0  0  0  0  0  0  0  0  0  0  0  0
    3.1344   -0.2051    0.8780 C   0  0  0  0  0  0  0  0  0  0  0  0
    1.0000    1.0000    1.0000 C   0  0  0  0  0  0  0  0  0  0  0  0
    0.4000    2.0391    1.0141 O   0  0  0  0  0  0  0  0  0  0  0  0
    0.3150   -0.1863    0.9839 N   0  0  0  0  0  0  0  0  0  0  0  0
   -1.0210   -0.2172    0.5689 C   0  0  0  0  0  0  0  0  0  0  0  0
   -1.9914   -0.6661    1.4582 C   0  0  0  0  0  0  0  0  0  0  0  0
   -3.3183   -0.6959    1.0422 C   0  0  0  0  0  0  0  0  0  0  0  0
   -3.6658   -0.2845   -0.2415 C   0  0  0  0  0  0  0  0  0  0  0  0
   -4.9909   -0.3135   -0.6597 C   0  0  0  0  0  0  0  0  0  0  0  0
   -5.9656   -0.7623    0.2252 C   0  0  0  0  0  0  0  0  0  0  0  0
   -7.3029   -0.7945   -0.1885 N   0  0  0  0  0  0  0  0  0  0  0  0
   -8.0396    0.4611   -0.3927 C   0  0  0  0  0  0  0  0  0  0  0  0
   -7.9702   -2.0840   -0.4186 C   0  0  0  0  0  0  0  0  0  0  0  0
   -5.6356   -1.1780    1.5111 C   0  0  0  0  0  0  0  0  0  0  0  0
   -4.3051   -1.1421    1.9148 C   0  0  0  0  0  0  0  0  0  0  0  0
   -2.6836    0.1622   -1.1204 C   0  0  0  0  0  0  0  0  0  0  0  0
   -1.3523    0.1974   -0.7172 C   0  0  0  0  0  0  0  0  0  0  0  0
    6.7432    1.0219    0.9995 C   0  0  0  0  0  0  0  0  0  0  0  0
    5.8243   -1.5509    3.4377 C   0  0  0  0  0  0  0  0  0  0  0  0
    4.8729   -0.9694    4.2690 C   0  0  0  0  0  0  0  0  0  0  0  0
    5.2878   -0.2709    5.3977 C   0  0  0  0  0  0  0  0  0  0  0  0
    6.6446   -0.1619    5.6832 C   0  0  0  0  0  0  0  0  0  0  0  0
    7.0340    0.5077    6.7647 F   0  0  0  0  0  0  0  0  0  0  0  0
    7.5907   -0.7454    4.8480 C   0  0  0  0  0  0  0  0  0  0  0  0
    7.1826   -1.4450    3.7175 C   0  0  0  0  0  0  0  0  0  0  0  0
  1  2  2  0
  1  3  2  0
  1  4  1  0
  4  5  1  0
  5  6  2  0
  6  7  1  0
  7  8  2  0
  8  9  1  0
  9 10  2  0
 10  5  1  0
  9 11  1  0
 11 12  2  0
 11 13  1  0
 13 14  1  0
 14 15  2  0
 15 16  1  0
 16 17  2  0
 17 18  1  0
 18 19  2  0
 19 20  1  0
 20 21  1  0
 20 22  1  0
 19 23  1  0
 23 24  2  0
 24 16  1  0
 17 25  1  0
 25 26  2  0
 26 14  1  0
  6 27  1  0
  1 28  1  0
 28 29  2  0
 29 30  1  0
 30 31  2  0
 31 32  1  0
 31 33  1  0
 33 34  2  0
 34 28  1  0
M  END
$$$$
m_276010b____17281670____17265702____17281282
     RDKit          3D

 34 38  0  0  0  0  0  0  0  0999 V2000
    1.2730    2.2230    3.6164 F   0  0  0  0  0  0  0  0  0  0  0  0
   -0.0471    2.3428    3.5019 C   0  0  0  0  0  0  0  0  0  0  0  0
   -0.6343    2.3969    2.2416 C   0  0  0  0  0  0  0  0  0  0  0  0
   -2.0134    2.5229    2.1112 C   0  0  0  0  0  0  0  0  0  0  0  0
   -2.8028    2.5961    3.2543 C   0  0  0  0  0  0  0  0  0  0  0  0
   -2.2115    2.5418    4.5127 C   0  0  0  0  0  0  0  0  0  0  0  0
   -0.8328    2.4151    4.6467 C   0  0  0  0  0  0  0  0  0  0  0  0
    0.2400    2.3164    1.0000 C   0  0  0  0  0  0  0  0  0  0  0  0
    1.1628    3.3957    1.0000 O   0  0  0  0  0  0  0  0  0  0  0  0
    0.4528    4.6254    1.0000 C   0  0  0  0  0  0  0  0  0  0  0  0
    1.0000    1.0000    1.0000 C   0  0  0  0  0  0  0  0  0  0  0  0
    0.4000   -0.0392    1.0000 O   0  0  0  0  0  0  0  0  0  0  0  0
    2.3700    1.0000    1.0000 N   0  0  0  0  0  0  0  0  0  0  0  0
    3.0703   -0.1398    1.4149 C   0  0  0  0  0  0  0  0  0  0  0  0
    2.9005   -0.6366    2.7031 C   0  0  0  0  0  0  0  0  0  0  0  0
    3.6103   -1.7700    3.0856 C   0  0  0  0  0  0  0  0  0  0  0  0
    4.4442   -2.3724    2.2248 N   0  0  0  0  0  0  0  0  0  0  0  0
    4.6210   -1.9089    0.9787 C   0  0  0  0  0  0  0  0  0  0  0  0
    3.9399   -0.7794    0.5374 C   0  0  0  0  0  0  0  0  0  0  0  0
    3.4287   -2.2579    4.3849 N   0  0  0  0  0  0  0  0  0  0  0  0
    2.4011   -2.0051    5.1581 N   0  0  0  0  0  0  0  0  0  0  0  0
    2.5219   -2.5843    6.2734 N   0  0  0  0  0  0  0  0  0  0  0  0
    3.6950   -3.2769    6.2607 C   0  0  0  0  0  0  0  0  0  0  0  0
    4.2232   -4.0842    7.3427 C   0  0  0  0  0  0  0  0  0  0  0  0
    5.4010   -4.7701    7.3089 N   0  0  0  0  0  0  0  0  0  0  0  0
    5.5472   -5.4037    8.5099 C   0  0  0  0  0  0  0  0  0  0  0  0
    4.4632   -5.1193    9.3038 C   0  0  0  0  0  0  0  0  0  0  0  0
    4.3833   -5.6586   10.5835 C   0  0  0  0  0  0  0  0  0  0  0  0
    5.3922   -6.4828   11.0713 C   0  0  0  0  0  0  0  0  0  0  0  0
    6.4908   -6.7683   10.2672 C   0  0  0  0  0  0  0  0  0  0  0  0
    6.5612   -6.2245    8.9889 C   0  0  0  0  0  0  0  0  0  0  0  0
    3.6194   -4.2727    8.5496 C   0  0  0  0  0  0  0  0  0  0  0  0
    4.2866   -3.0725    5.0551 C   0  0  0  0  0  0  0  0  0  0  0  0
   -0.6339    2.3969   -0.2411 C   0  0  0  0  0  0  0  0  0  0  0  0
  1  2  1  0
  2  3  2  0
  3  4  1  0
  4  5  2  0
  5  6  1  0
  6  7  2  0
  7  2  1  0
  3  8  1  0
  8  9  1  0
  9 10  1  0
  8 11  1  0
 11 12  2  0
 11 13  1  0
 13 14  1  0
 14 15  2  0
 15 16  1  0
 16 17  2  0
 17 18  1  0
 18 19  2  0
 19 14  1  0
 16 20  1  0
 20 21  1  0
 21 22  2  0
 22 23  1  0
 23 24  1  0
 24 25  1  0
 25 26  1  0
 26 27  2  0
 27 28  1  0
 28 29  2  0
 29 30  1  0
 30 31  2  0
 31 26  1  0
 27 32  1  0
 24 32  2  0
 23 33  2  0
 33 20  1  0
  8 34  1  0
M  END
$$$$
s_22____14522802____59626
     RDKit          3D

 33 36  0  0  0  0  0  0  0  0999 V2000
    5.2803   -0.4725   -2.2662 S   0  0  0  0  0  0  0  0  0  0  0  0
    6.2134   -1.3844   -2.8755 O   0  0  0  0  0  0  0  0  0  0  0  0
    3.9769   -0.6587   -2.8494 O   0  0  0  0  0  0  0  0  0  0  0  0
    5.2051   -0.7619   -0.6639 N   0  0  0  0  0  0  0  0  0  0  0  0
    4.5272    0.1288    0.1774 C   0  0  0  0  0  0  0  0  0  0  0  0
    5.2222    1.0052    1.0057 C   0  0  0  0  0  0  0  0  0  0  0  0
    4.5255    1.8813    1.8326 C   0  0  0  0  0  0  0  0  0  0  0  0
    3.1345    1.8809    1.8319 C   0  0  0  0  0  0  0  0  0  0  0  0
    2.4504    1.0000    1.0000 C   0  0  0  0  0  0  0  0  0  0  0  0
    3.1363    0.1199    0.1689 C   0  0  0  0  0  0  0  0  0  0  0  0
    1.0000    1.0000    1.0000 C   0  0  0  0  0  0  0  0  0  0  0  0
    0.4000    2.0391    1.0156 O   0  0  0  0  0  0  0  0  0  0  0  0
    0.3150   -0.1863    0.9822 N   0  0  0  0  0  0  0  0  0  0  0  0
   -1.0859   -0.1863    0.9822 C   0  0  0  0  0  0  0  0  0  0  0  0
   -2.0492   -1.5874    0.9612 S   0  0  0  0  0  0  0  0  0  0  0  0
   -3.5354   -0.7588    0.9766 C   0  0  0  0  0  0  0  0  0  0  0  0
   -4.8549   -1.3602    0.9731 C   0  0  0  0  0  0  0  0  0  0  0  0
   -4.9812   -2.7455    0.9557 C   0  0  0  0  0  0  0  0  0  0  0  0
   -6.2491   -3.3170    0.9515 C   0  0  0  0  0  0  0  0  0  0  0  0
   -7.3740   -2.4984    0.9657 C   0  0  0  0  0  0  0  0  0  0  0  0
   -7.2467   -1.1128    0.9856 C   0  0  0  0  0  0  0  0  0  0  0  0
   -5.9786   -0.5411    0.9884 C   0  0  0  0  0  0  0  0  0  0  0  0
   -8.7573   -3.1291    0.9595 C   0  0  0  0  0  0  0  0  0  0  0  0
   -3.2289    0.5656    0.9974 C   0  0  0  0  0  0  0  0  0  0  0  0
   -1.8896    0.8562    0.9957 N   0  0  0  0  0  0  0  0  0  0  0  0
    6.7418    1.0068    1.0057 C   0  0  0  0  0  0  0  0  0  0  0  0
    5.8079    1.1632   -2.5359 C   0  0  0  0  0  0  0  0  0  0  0  0
    7.1661    1.4375   -2.6560 C   0  0  0  0  0  0  0  0  0  0  0  0
    7.5818    2.7471   -2.8709 C   0  0  0  0  0  0  0  0  0  0  0  0
    6.6389    3.7653   -2.9638 C   0  0  0  0  0  0  0  0  0  0  0  0
    7.0439    5.0155   -3.1695 F   0  0  0  0  0  0  0  0  0  0  0  0
    5.2826    3.4843   -2.8426 C   0  0  0  0  0  0  0  0  0  0  0  0
    4.8601    2.1769   -2.6274 C   0  0  0  0  0  0  0  0  0  0  0  0
  1  2  2  0
  1  3  2  0
  1  4  1  0
  4  5  1  0
  5  6  2  0
  6  7  1  0
  7  8  2  0
  8  9  1  0
  9 10  2  0
 10  5  1  0
  9 11  1  0
 11 12  2  0
 11 13  1  0
 13 14  1  0
 14 15  1  0
 15 16  1  0
 16 17  1  0
 17 18  2  0
 18 19  1  0
 19 20  2  0
 20 21  1  0
 21 22  2  0
 22 17  1  0
 20 23  1  0
 16 24  2  0
 24 25  1  0
 14 25  2  0
  6 26  1  0
  1 27  1  0
 27 28  2  0
 28 29  1  0
 29 30  2  0
 30 31  1  0
 30 32  1  0
 32 33  2  0
 33 27  1  0
M  END
$$$$
m_276910____14484250____14486910
     RDKit          3D

 32 36  0  0  0  0  0  0  0  0999 V2000
   -0.4192    3.1227    1.4635 S   0  0  0  0  0  0  0  0  0  0  0  0
   -1.4932    4.0801    1.5230 O   0  0  0  0  0  0  0  0  0  0  0  0
    0.1369    3.1070    0.1352 O   0  0  0  0  0  0  0  0  0  0  0  0
    0.7390    3.5383    2.5324 N   0  0  0  0  0  0  0  0  0  0  0  0
    1.9763    2.8827    2.5144 C   0  0  0  0  0  0  0  0  0  0  0  0
    3.1726    3.5934    2.5027 C   0  0  0  0  0  0  0  0  0  0  0  0
    4.3857    2.9125    2.4852 C   0  0  0  0  0  0  0  0  0  0  0  0
    4.4026    1.5217    2.4775 C   0  0  0  0  0  0  0  0  0  0  0  0
    3.2065    0.8115    2.4890 C   0  0  0  0  0  0  0  0  0  0  0  0
    1.9934    1.4924    2.5075 C   0  0  0  0  0  0  0  0  0  0  0  0
    3.1550    5.0434    2.5097 C   0  0  0  0  0  0  0  0  0  0  0  0
    2.2276    5.7886    3.0588 N   0  0  0  0  0  0  0  0  0  0  0  0
    2.5979    7.0787    2.8339 C   0  0  0  0  0  0  0  0  0  0  0  0
    3.7242    7.0877    2.1626 N   0  0  0  0  0  0  0  0  0  0  0  0
    4.0967    5.8483    1.9441 N   0  0  0  0  0  0  0  0  0  0  0  0
    1.8672    8.2539    3.2673 C   0  0  0  0  0  0  0  0  0  0  0  0
    0.6556    8.2155    3.9941 C   0  0  0  0  0  0  0  0  0  0  0  0
    0.3303    9.5434    4.1844 C   0  0  0  0  0  0  0  0  0  0  0  0
    1.2894   10.3310    3.6101 N   0  0  0  0  0  0  0  0  0  0  0  0
    2.2439    9.5435    3.0403 C   0  0  0  0  0  0  0  0  0  0  0  0
    1.3007   11.8015    3.5981 C   0  0  0  0  0  0  0  0  0  0  0  0
    2.3986   12.2414    4.2065 F   0  0  0  0  0  0  0  0  0  0  0  0
    1.2868   12.2348    2.3408 F   0  0  0  0  0  0  0  0  0  0  0  0
   -0.8299    9.8833    4.8726 C   0  0  0  0  0  0  0  0  0  0  0  0
   -1.6738    8.9036    5.3800 C   0  0  0  0  0  0  0  0  0  0  0  0
   -1.3534    7.5625    5.1982 C   0  0  0  0  0  0  0  0  0  0  0  0
   -0.1928    7.2357    4.5059 C   0  0  0  0  0  0  0  0  0  0  0  0
   -1.0299    1.5406    1.8555 C   0  0  0  0  0  0  0  0  0  0  0  0
   -1.9794    1.1682    3.2158 S   0  0  0  0  0  0  0  0  0  0  0  0
   -2.1664   -0.5007    2.9222 C   0  0  0  0  0  0  0  0  0  0  0  0
   -1.4808   -0.7357    1.7671 C   0  0  0  0  0  0  0  0  0  0  0  0
   -0.8461    0.3843    1.1618 C   0  0  0  0  0  0  0  0  0  0  0  0
  1  2  2  0
  1  3  2  0
  1  4  1  0
  4  5  1  0
  5  6  1  0
  6  7  2  0
  7  8  1  0
  8  9  2  0
  9 10  1  0
 10  5  2  0
  6 11  1  0
 11 12  2  0
 12 13  1  0
 13 14  2  0
 14 15  1  0
 15 11  1  0
 13 16  1  0
 16 17  1  0
 17 18  2  0
 18 19  1  0
 19 20  1  0
 16 20  2  0
 19 21  1  0
 21 22  1  0
 21 23  1  0
 18 24  1  0
 24 25  2  0
 25 26  1  0
 26 27  2  0
 27 17  1  0
  1 28  1  0
 28 29  1  0
 29 30  1  0
 30 31  2  0
 31 32  1  0
 28 32  2  0
M  END
$$$$
s_270196____8771128____8772766
     RDKit          3D

 36 40  0  0  0  0  0  0  0  0999 V2000
    8.4098   -7.5598    5.9384 Br  0  0  0  0  0  0  0  0  0  0  0  0
    8.7168   -6.3097    4.4611 C   0  0  0  0  0  0  0  0  0  0  0  0
    8.0732   -5.0793    4.4902 C   0  0  0  0  0  0  0  0  0  0  0  0
    8.2521   -4.1502    3.4702 C   0  0  0  0  0  0  0  0  0  0  0  0
    9.0939   -4.4739    2.4077 C   0  0  0  0  0  0  0  0  0  0  0  0
    9.2712   -3.5569    1.4005 N   0  0  0  0  0  0  0  0  0  0  0  0
    8.6528   -2.3329    1.3963 C   0  0  0  0  0  0  0  0  0  0  0  0
    7.8180   -1.9829    2.4266 C   0  0  0  0  0  0  0  0  0  0  0  0
    7.5946   -2.8894    3.4974 C   0  0  0  0  0  0  0  0  0  0  0  0
    6.8453   -2.5568    4.4055 O   0  0  0  0  0  0  0  0  0  0  0  0
    7.1543   -0.6937    2.4417 C   0  0  0  0  0  0  0  0  0  0  0  0
    7.7400    0.4807    2.4430 N   0  0  0  0  0  0  0  0  0  0  0  0
    6.8470    1.3801    2.4552 O   0  0  0  0  0  0  0  0  0  0  0  0
    5.6615    0.8207    2.4636 C   0  0  0  0  0  0  0  0  0  0  0  0
    5.8126   -0.4794    2.4541 N   0  0  0  0  0  0  0  0  0  0  0  0
    4.3941    1.5247    2.4794 C   0  0  0  0  0  0  0  0  0  0  0  0
    4.3966    2.9151    2.4867 C   0  0  0  0  0  0  0  0  0  0  0  0
    3.1792    3.5864    2.5020 C   0  0  0  0  0  0  0  0  0  0  0  0
    3.1519    4.9853    2.5098 N   0  0  0  0  0  0  0  0  0  0  0  0
    4.2637    5.8175    3.3632 S   0  0  0  0  0  0  0  0  0  0  0  0
    3.7808    7.1518    3.6081 O   0  0  0  0  0  0  0  0  0  0  0  0
    4.4995    5.1542    4.6195 O   0  0  0  0  0  0  0  0  0  0  0  0
    5.7489    5.8948    2.4606 C   0  0  0  0  0  0  0  0  0  0  0  0
    5.8004    6.6307    1.2815 C   0  0  0  0  0  0  0  0  0  0  0  0
    6.9903    6.6883    0.5640 C   0  0  0  0  0  0  0  0  0  0  0  0
    8.1126    6.0126    1.0311 C   0  0  0  0  0  0  0  0  0  0  0  0
    9.2473    6.0723    0.3395 F   0  0  0  0  0  0  0  0  0  0  0  0
    8.0544    5.2785    2.2104 C   0  0  0  0  0  0  0  0  0  0  0  0
    6.8675    5.2166    2.9327 C   0  0  0  0  0  0  0  0  0  0  0  0
    1.9828    2.8757    2.5094 C   0  0  0  0  0  0  0  0  0  0  0  0
    0.4299    3.7470    2.5290 Cl  0  0  0  0  0  0  0  0  0  0  0  0
    1.9858    1.4848    2.5024 C   0  0  0  0  0  0  0  0  0  0  0  0
    3.2015    0.8092    2.4872 C   0  0  0  0  0  0  0  0  0  0  0  0
    9.7385   -5.7088    2.3802 C   0  0  0  0  0  0  0  0  0  0  0  0
    9.5575   -6.6349    3.4020 C   0  0  0  0  0  0  0  0  0  0  0  0
   10.6653   -6.0997    1.2392 C   0  0  0  0  0  0  0  0  0  0  0  0
  1  2  1  0
  2  3  2  0
  3  4  1  0
  4  5  2  0
  5  6  1  0
  6  7  1  0
  7  8  2  0
  8  9  1  0
  9  4  1  0
  9 10  2  0
  8 11  1  0
 11 12  2  0
 12 13  1  0
 13 14  1  0
 14 15  2  0
 15 11  1  0
 14 16  1  0
 16 17  2  0
 17 18  1  0
 18 19  1  0
 19 20  1  0
 20 21  2  0
 20 22  2  0
 20 23  1  0
 23 24  2  0
 24 25  1  0
 25 26  2  0
 26 27  1  0
 26 28  1  0
 28 29  2  0
 29 23  1  0
 18 30  2  0
 30 31  1  0
 30 32  1  0
 32 33  2  0
 33 16  1  0
  5 34  1  0
 34 35  2  0
 35  2  1  0
 34 36  1  0
M  END
$$$$
s_232682____15766234____3005030
     RDKit          3D

 26 29  0  0  0  0  0  0  0  0999 V2000
    0.1850   -0.4116    0.9966 S   0  0  0  0  0  0  0  0  0  0  0  0
   -1.2129   -0.1582    0.7615 O   0  0  0  0  0  0  0  0  0  0  0  0
    0.7008   -1.2612   -0.0454 O   0  0  0  0  0  0  0  0  0  0  0  0
    1.0000    1.0000    1.0000 N   0  0  0  0  0  0  0  0  0  0  0  0
    2.3980    1.0000    1.0000 C   0  0  0  0  0  0  0  0  0  0  0  0
    3.0244    1.6175    2.0693 C   0  0  0  0  0  0  0  0  0  0  0  0
    4.4079    1.6034    2.0428 C   0  0  0  0  0  0  0  0  0  0  0  0
    5.4237    2.2905    3.2193 S   0  0  0  0  0  0  0  0  0  0  0  0
    6.8844    1.8543    2.4629 C   0  0  0  0  0  0  0  0  0  0  0  0
    6.5750    1.2140    1.3627 N   0  0  0  0  0  0  0  0  0  0  0  0
    5.2377    1.0532    1.0913 C   0  0  0  0  0  0  0  0  0  0  0  0
    4.5583    0.4499    0.0407 C   0  0  0  0  0  0  0  0  0  0  0  0
    3.1669    0.4223   -0.0062 C   0  0  0  0  0  0  0  0  0  0  0  0
    8.2111    2.1487    2.9672 C   0  0  0  0  0  0  0  0  0  0  0  0
    9.6443    1.7038    2.1707 S   0  0  0  0  0  0  0  0  0  0  0  0
   10.7162    2.3652    3.3103 C   0  0  0  0  0  0  0  0  0  0  0  0
    9.9547    2.9227    4.2905 C   0  0  0  0  0  0  0  0  0  0  0  0
    8.5502    2.8125    4.1110 C   0  0  0  0  0  0  0  0  0  0  0  0
   12.2328    2.3268    3.2321 C   0  0  0  0  0  0  0  0  0  0  0  0
    0.3809   -1.1983    2.5365 C   0  0  0  0  0  0  0  0  0  0  0  0
   -0.5242   -0.9436    3.5614 C   0  0  0  0  0  0  0  0  0  0  0  0
   -0.3502   -1.5817    4.7848 C   0  0  0  0  0  0  0  0  0  0  0  0
   -1.2135   -1.3403    5.7671 F   0  0  0  0  0  0  0  0  0  0  0  0
    0.7091   -2.4607    4.9866 C   0  0  0  0  0  0  0  0  0  0  0  0
    1.6075   -2.7065    3.9534 C   0  0  0  0  0  0  0  0  0  0  0  0
    1.4448   -2.0746    2.7248 C   0  0  0  0  0  0  0  0  0  0  0  0
  1  2  2  0
  1  3  2  0
  1  4  1  0
  4  5  1  0
  5  6  2  0
  6  7  1  0
  7  8  1  0
  8  9  1  0
  9 10  2  0
 10 11  1  0
 11  7  2  0
 11 12  1  0
 12 13  2  0
 13  5  1  0
  9 14  1  0
 14 15  1  0
 15 16  1  0
 16 17  2  0
 17 18  1  0
 14 18  2  0
 16 19  1  0
  1 20  1  0
 20 21  2  0
 21 22  1  0
 22 23  1  0
 22 24  2  0
 24 25  1  0
 25 26  2  0
 26 20  1  0
M  END
$$$$
s_22____58831____15504564
     RDKit          3D

 33 36  0  0  0  0  0  0  0  0999 V2000
    8.6233   -1.0701    0.4220 Cl  0  0  0  0  0  0  0  0  0  0  0  0
    8.2196   -0.6036   -1.2474 C   0  0  0  0  0  0  0  0  0  0  0  0
    7.6695    0.6473   -1.5062 C   0  0  0  0  0  0  0  0  0  0  0  0
    7.3795    1.7579   -0.1981 S   0  0  0  0  0  0  0  0  0  0  0  0
    6.6012    2.8708   -0.6769 O   0  0  0  0  0  0  0  0  0  0  0  0
    8.6378    2.2367    0.3128 O   0  0  0  0  0  0  0  0  0  0  0  0
    6.5648    0.9964    0.9906 N   0  0  0  0  0  0  0  0  0  0  0  0
    5.1649    0.9962    0.9910 C   0  0  0  0  0  0  0  0  0  0  0  0
    4.4697    0.4426   -0.0789 C   0  0  0  0  0  0  0  0  0  0  0  0
    3.0785    0.4423   -0.0788 C   0  0  0  0  0  0  0  0  0  0  0  0
    2.3998    1.0000    1.0000 C   0  0  0  0  0  0  0  0  0  0  0  0
    1.0000    1.0000    1.0000 N   0  0  0  0  0  0  0  0  0  0  0  0
    0.3150    2.1852    1.0551 C   0  0  0  0  0  0  0  0  0  0  0  0
    0.7944    3.1779    0.5811 O   0  0  0  0  0  0  0  0  0  0  0  0
   -1.0523    2.2427    1.7167 C   0  0  0  0  0  0  0  0  0  0  0  0
   -1.9942    1.7135    1.1945 O   0  0  0  0  0  0  0  0  0  0  0  0
   -1.2184    2.9371    2.9790 C   0  0  0  0  0  0  0  0  0  0  0  0
   -2.4287    3.0660    3.6988 C   0  0  0  0  0  0  0  0  0  0  0  0
   -2.1179    3.8093    4.8240 C   0  0  0  0  0  0  0  0  0  0  0  0
   -0.7811    4.0899    4.7931 N   0  0  0  0  0  0  0  0  0  0  0  0
   -0.2233    3.5659    3.6656 C   0  0  0  0  0  0  0  0  0  0  0  0
   -3.0690    4.1575    5.7785 C   0  0  0  0  0  0  0  0  0  0  0  0
   -4.3920    3.7586    5.6162 C   0  0  0  0  0  0  0  0  0  0  0  0
   -4.7386    3.0073    4.4977 C   0  0  0  0  0  0  0  0  0  0  0  0
   -6.0031    2.6161    4.3458 F   0  0  0  0  0  0  0  0  0  0  0  0
   -3.7608    2.6770    3.5625 C   0  0  0  0  0  0  0  0  0  0  0  0
    3.0952    1.5535    2.0701 C   0  0  0  0  0  0  0  0  0  0  0  0
    4.4865    1.5541    2.0700 C   0  0  0  0  0  0  0  0  0  0  0  0
    7.3547    1.0121   -2.8110 C   0  0  0  0  0  0  0  0  0  0  0  0
    6.6530    2.6140   -3.1436 Cl  0  0  0  0  0  0  0  0  0  0  0  0
    7.5885    0.1246   -3.8565 C   0  0  0  0  0  0  0  0  0  0  0  0
    8.1382   -1.1272   -3.5967 C   0  0  0  0  0  0  0  0  0  0  0  0
    8.4533   -1.4908   -2.2920 C   0  0  0  0  0  0  0  0  0  0  0  0
  1  2  1  0
  2  3  2  0
  3  4  1  0
  4  5  2  0
  4  6  2  0
  4  7  1  0
  7  8  1  0
  8  9  2  0
  9 10  1  0
 10 11  2  0
 11 12  1  0
 12 13  1  0
 13 14  2  0
 13 15  1  0
 15 16  2  0
 15 17  1  0
 17 18  1  0
 18 19  2  0
 19 20  1  0
 20 21  1  0
 17 21  2  0
 19 22  1  0
 22 23  2  0
 23 24  1  0
 24 25  1  0
 24 26  2  0
 26 18  1  0
 11 27  1  0
 27 28  2  0
 28  8  1  0
  3 29  1  0
 29 30  1  0
 29 31  2  0
 31 32  1  0
 32 33  2  0
 33  2  1  0
M  END
$$$$
s_270196____11403542____8772766
     RDKit          3D

 35 39  0  0  0  0  0  0  0  0999 V2000
    0.4299    3.7470    2.5290 Cl  0  0  0  0  0  0  0  0  0  0  0  0
    1.9828    2.8757    2.5094 C   0  0  0  0  0  0  0  0  0  0  0  0
    3.1792    3.5864    2.5020 C   0  0  0  0  0  0  0  0  0  0  0  0
    3.1519    4.9853    2.5098 N   0  0  0  0  0  0  0  0  0  0  0  0
    3.7994    5.8062    3.7604 S   0  0  0  0  0  0  0  0  0  0  0  0
    3.3497    7.1736    3.7213 O   0  0  0  0  0  0  0  0  0  0  0  0
    3.3847    5.1996    4.9988 O   0  0  0  0  0  0  0  0  0  0  0  0
    5.5348    5.7630    3.6460 C   0  0  0  0  0  0  0  0  0  0  0  0
    6.1929    6.6661    2.8178 C   0  0  0  0  0  0  0  0  0  0  0  0
    7.5802    6.6262    2.7301 C   0  0  0  0  0  0  0  0  0  0  0  0
    8.2930    5.6880    3.4690 C   0  0  0  0  0  0  0  0  0  0  0  0
    9.6198    5.6559    3.3800 F   0  0  0  0  0  0  0  0  0  0  0  0
    7.6290    4.7878    4.2948 C   0  0  0  0  0  0  0  0  0  0  0  0
    6.2418    4.8221    4.3870 C   0  0  0  0  0  0  0  0  0  0  0  0
    4.3966    2.9151    2.4867 C   0  0  0  0  0  0  0  0  0  0  0  0
    4.3941    1.5247    2.4794 C   0  0  0  0  0  0  0  0  0  0  0  0
    3.2015    0.8092    2.4872 C   0  0  0  0  0  0  0  0  0  0  0  0
    1.9858    1.4848    2.5024 C   0  0  0  0  0  0  0  0  0  0  0  0
    5.6615    0.8207    2.4636 C   0  0  0  0  0  0  0  0  0  0  0  0
    6.8470    1.3801    2.4552 O   0  0  0  0  0  0  0  0  0  0  0  0
    7.7400    0.4807    2.4430 N   0  0  0  0  0  0  0  0  0  0  0  0
    7.1543   -0.6937    2.4417 C   0  0  0  0  0  0  0  0  0  0  0  0
    5.8126   -0.4794    2.4541 N   0  0  0  0  0  0  0  0  0  0  0  0
    7.8180   -1.9829    2.4266 C   0  0  0  0  0  0  0  0  0  0  0  0
    7.1447   -3.2256    2.4219 C   0  0  0  0  0  0  0  0  0  0  0  0
    8.1585   -4.1624    2.4064 C   0  0  0  0  0  0  0  0  0  0  0  0
    9.3665   -3.5215    2.3988 N   0  0  0  0  0  0  0  0  0  0  0  0
    9.1670   -2.1740    2.4113 C   0  0  0  0  0  0  0  0  0  0  0  0
   10.6851   -4.1725    2.3830 C   0  0  0  0  0  0  0  0  0  0  0  0
   11.3502   -3.8005    1.2929 F   0  0  0  0  0  0  0  0  0  0  0  0
   11.3702   -3.8126    3.4646 F   0  0  0  0  0  0  0  0  0  0  0  0
    7.8515   -5.5191    2.4033 C   0  0  0  0  0  0  0  0  0  0  0  0
    6.5324   -5.9543    2.4122 C   0  0  0  0  0  0  0  0  0  0  0  0
    5.5029   -5.0192    2.4231 C   0  0  0  0  0  0  0  0  0  0  0  0
    5.8227   -3.6661    2.4294 C   0  0  0  0  0  0  0  0  0  0  0  0
  1  2  1  0
  2  3  2  0
  3  4  1  0
  4  5  1  0
  5  6  2  0
  5  7  2  0
  5  8  1  0
  8  9  2  0
  9 10  1  0
 10 11  2  0
 11 12  1  0
 11 13  1  0
 13 14  2  0
 14  8  1  0
  3 15  1  0
 15 16  2  0
 16 17  1  0
 17 18  2  0
 18  2  1  0
 16 19  1  0
 19 20  1  0
 20 21  1  0
 21 22  2  0
 22 23  1  0
 19 23  2  0
 22 24  1  0
 24 25  1  0
 25 26  2  0
 26 27  1  0
 27 28  1  0
 24 28  2  0
 27 29  1  0
 29 30  1  0
 29 31  1  0
 26 32  1  0
 32 33  2  0
 33 34  1  0
 34 35  2  0
 35 25  1  0
M  END
$$$$
m_270942____9828416____9831356____14067606
     RDKit          3D

 36 40  0  0  0  0  0  0  0  0999 V2000
   -0.6361    2.7229    2.5367 S   0  0  0  0  0  0  0  0  0  0  0  0
   -1.6597    3.4865    1.8713 O   0  0  0  0  0  0  0  0  0  0  0  0
   -0.4500    1.4701    1.8515 O   0  0  0  0  0  0  0  0  0  0  0  0
    0.7615    3.5615    2.5249 N   0  0  0  0  0  0  0  0  0  0  0  0
    1.9850    2.8822    2.5096 C   0  0  0  0  0  0  0  0  0  0  0  0
    3.1774    3.5986    2.4996 C   0  0  0  0  0  0  0  0  0  0  0  0
    4.3889    2.9151    2.4847 C   0  0  0  0  0  0  0  0  0  0  0  0
    4.3934    1.5238    2.4792 C   0  0  0  0  0  0  0  0  0  0  0  0
    3.2017    0.8073    2.4891 C   0  0  0  0  0  0  0  0  0  0  0  0
    1.9902    1.4907    2.5042 C   0  0  0  0  0  0  0  0  0  0  0  0
    5.6621    0.8203    2.4636 C   0  0  0  0  0  0  0  0  0  0  0  0
    6.0899   -0.0228    3.3762 N   0  0  0  0  0  0  0  0  0  0  0  0
    7.2780   -0.4478    3.0080 N   0  0  0  0  0  0  0  0  0  0  0  0
    7.6459    0.0942    1.8734 C   0  0  0  0  0  0  0  0  0  0  0  0
    6.6242    0.9107    1.5071 N   0  0  0  0  0  0  0  0  0  0  0  0
    6.5710    1.7419    0.2950 C   0  0  0  0  0  0  0  0  0  0  0  0
    5.5376    1.1738   -0.6639 C   0  0  0  0  0  0  0  0  0  0  0  0
    8.8442   -0.1272    1.1808 N   0  0  0  0  0  0  0  0  0  0  0  0
    9.8611    0.9322    1.1141 C   0  0  0  0  0  0  0  0  0  0  0  0
   10.9501    0.6546    2.1380 C   0  0  0  0  0  0  0  0  0  0  0  0
   12.1620    0.0915    1.8661 N   0  0  0  0  0  0  0  0  0  0  0  0
   12.8590    0.0080    3.0365 C   0  0  0  0  0  0  0  0  0  0  0  0
   12.0851    0.5185    4.0516 C   0  0  0  0  0  0  0  0  0  0  0  0
   12.5932    0.5330    5.3469 C   0  0  0  0  0  0  0  0  0  0  0  0
   13.8644    0.0409    5.6273 C   0  0  0  0  0  0  0  0  0  0  0  0
   14.6411   -0.4755    4.5946 C   0  0  0  0  0  0  0  0  0  0  0  0
   14.1313   -0.4887    3.3004 C   0  0  0  0  0  0  0  0  0  0  0  0
   10.8650    0.9312    3.4698 C   0  0  0  0  0  0  0  0  0  0  0  0
    9.0841   -1.4188    0.5213 C   0  0  0  0  0  0  0  0  0  0  0  0
   -1.1161    2.4188    4.1811 C   0  0  0  0  0  0  0  0  0  0  0  0
   -1.9276    3.3323    4.8451 C   0  0  0  0  0  0  0  0  0  0  0  0
   -2.3127    3.0914    6.1600 C   0  0  0  0  0  0  0  0  0  0  0  0
   -1.8769    1.9333    6.7949 C   0  0  0  0  0  0  0  0  0  0  0  0
   -1.0648    1.0202    6.1301 C   0  0  0  0  0  0  0  0  0  0  0  0
   -0.6801    1.2601    4.8156 C   0  0  0  0  0  0  0  0  0  0  0  0
   -2.2939    1.6659    8.2319 C   0  0  0  0  0  0  0  0  0  0  0  0
  1  2  2  0
  1  3  2  0
  1  4  1  0
  4  5  1  0
  5  6  2  0
  6  7  1  0
  7  8  2  0
  8  9  1  0
  9 10  2  0
 10  5  1  0
  8 11  1  0
 11 12  2  0
 12 13  1  0
 13 14  2  0
 14 15  1  0
 15 11  1  0
 15 16  1  0
 16 17  1  0
 14 18  1  0
 18 19  1  0
 19 20  1  0
 20 21  1  0
 21 22  1  0
 22 23  2  0
 23 24  1  0
 24 25  2  0
 25 26  1  0
 26 27  2  0
 27 22  1  0
 23 28  1  0
 20 28  2  0
 18 29  1  0
  1 30  1  0
 30 31  2  0
 31 32  1  0
 32 33  2  0
 33 34  1  0
 34 35  2  0
 35 30  1  0
 33 36  1  0
M  END
$$$$
s_2708____5343244____15361692
     RDKit          3D

 35 38  0  0  0  0  0  0  0  0999 V2000
    9.2214    4.8483    1.2743 Cl  0  0  0  0  0  0  0  0  0  0  0  0
    8.1373    4.5413   -0.1044 C   0  0  0  0  0  0  0  0  0  0  0  0
    8.0093    3.2510   -0.6074 C   0  0  0  0  0  0  0  0  0  0  0  0
    7.1603    3.0197   -1.6848 C   0  0  0  0  0  0  0  0  0  0  0  0
    6.4514    4.0774   -2.2452 C   0  0  0  0  0  0  0  0  0  0  0  0
    5.3914    3.7784   -3.5925 S   0  0  0  0  0  0  0  0  0  0  0  0
    5.8956    2.6715   -4.3634 O   0  0  0  0  0  0  0  0  0  0  0  0
    5.3282    4.9528   -4.4233 O   0  0  0  0  0  0  0  0  0  0  0  0
    3.8995    3.4218   -3.0413 N   0  0  0  0  0  0  0  0  0  0  0  0
    3.6674    2.2072   -2.3856 C   0  0  0  0  0  0  0  0  0  0  0  0
    3.2034    2.2132   -1.0744 C   0  0  0  0  0  0  0  0  0  0  0  0
    2.9767    1.0000   -0.4332 C   0  0  0  0  0  0  0  0  0  0  0  0
    3.2078   -0.2070   -1.0845 C   0  0  0  0  0  0  0  0  0  0  0  0
    3.6716   -0.1881   -2.3961 C   0  0  0  0  0  0  0  0  0  0  0  0
    3.9052    1.0128   -3.0570 C   0  0  0  0  0  0  0  0  0  0  0  0
    2.4700    1.0000    1.0000 C   0  0  0  0  0  0  0  0  0  0  0  0
    1.0000    1.0000    1.0000 N   0  0  0  0  0  0  0  0  0  0  0  0
    0.3150    1.0000    2.1865 C   0  0  0  0  0  0  0  0  0  0  0  0
    0.9150    1.0000    3.2257 O   0  0  0  0  0  0  0  0  0  0  0  0
   -1.0550    1.0000    2.1865 N   0  0  0  0  0  0  0  0  0  0  0  0
   -1.7900    1.0000    3.4595 C   0  0  0  0  0  0  0  0  0  0  0  0
   -3.2844    1.0000    3.1818 C   0  0  0  0  0  0  0  0  0  0  0  0
   -4.0361    1.3712    4.4511 C   0  0  0  0  0  0  0  0  0  0  0  0
   -4.9018    2.4822    4.6257 C   0  0  0  0  0  0  0  0  0  0  0  0
   -5.3341    2.3869    5.9297 C   0  0  0  0  0  0  0  0  0  0  0  0
   -4.7625    1.2884    6.5065 N   0  0  0  0  0  0  0  0  0  0  0  0
   -3.9611    0.6536    5.6062 C   0  0  0  0  0  0  0  0  0  0  0  0
   -4.9738    0.8447    7.8919 C   0  0  0  0  0  0  0  0  0  0  0  0
   -6.2167    3.3377    6.4350 C   0  0  0  0  0  0  0  0  0  0  0  0
   -6.6732    4.3860    5.6431 C   0  0  0  0  0  0  0  0  0  0  0  0
   -6.2432    4.4881    4.3241 C   0  0  0  0  0  0  0  0  0  0  0  0
   -5.3612    3.5344    3.8286 C   0  0  0  0  0  0  0  0  0  0  0  0
   -4.9305    3.7016    2.3803 C   0  0  0  0  0  0  0  0  0  0  0  0
    6.5778    5.3688   -1.7438 C   0  0  0  0  0  0  0  0  0  0  0  0
    7.4278    5.5974   -0.6668 C   0  0  0  0  0  0  0  0  0  0  0  0
  1  2  1  0
  2  3  2  0
  3  4  1  0
  4  5  2  0
  5  6  1  0
  6  7  2  0
  6  8  2  0
  6  9  1  0
  9 10  1  0
 10 11  2  0
 11 12  1  0
 12 13  2  0
 13 14  1  0
 14 15  2  0
 15 10  1  0
 12 16  1  0
 16 17  1  0
 17 18  1  0
 18 19  2  0
 18 20  1  0
 20 21  1  0
 21 22  1  0
 22 23  1  0
 23 24  1  0
 24 25  2  0
 25 26  1  0
 26 27  1  0
 23 27  2  0
 26 28  1  0
 25 29  1  0
 29 30  2  0
 30 31  1  0
 31 32  2  0
 32 24  1  0
 32 33  1  0
  5 34  1  0
 34 35  2  0
 35  2  1  0
M  END
$$$$
s_60____90601____7842574
     RDKit          3D

 33 37  0  0  0  0  0  0  0  0999 V2000
    1.0000    1.0000    1.0000 S   0  0  0  0  0  0  0  0  0  0  0  0
   -0.2735    1.6418    0.8003 O   0  0  0  0  0  0  0  0  0  0  0  0
    0.8003   -0.2735    1.6418 O   0  0  0  0  0  0  0  0  0  0  0  0
    1.7265    0.7739   -0.4415 N   0  0  0  0  0  0  0  0  0  0  0  0
    2.8148   -0.1002   -0.5474 C   0  0  0  0  0  0  0  0  0  0  0  0
    2.6559   -1.3022   -1.2296 C   0  0  0  0  0  0  0  0  0  0  0  0
    3.7375   -2.1707   -1.3350 C   0  0  0  0  0  0  0  0  0  0  0  0
    4.9591   -1.8327   -0.7622 C   0  0  0  0  0  0  0  0  0  0  0  0
    6.0085   -2.6755   -0.8647 O   0  0  0  0  0  0  0  0  0  0  0  0
    7.2056   -2.4091   -0.1488 C   0  0  0  0  0  0  0  0  0  0  0  0
    5.1183   -0.6306   -0.0799 C   0  0  0  0  0  0  0  0  0  0  0  0
    4.0364    0.2377    0.0257 C   0  0  0  0  0  0  0  0  0  0  0  0
    2.0045    2.0045    2.0045 C   0  0  0  0  0  0  0  0  0  0  0  0
    1.7372    3.3673    2.0800 C   0  0  0  0  0  0  0  0  0  0  0  0
    2.5208    4.1981    2.8736 C   0  0  0  0  0  0  0  0  0  0  0  0
    2.4797    5.5395    3.1211 N   0  0  0  0  0  0  0  0  0  0  0  0
    3.4543    5.8309    3.9515 C   0  0  0  0  0  0  0  0  0  0  0  0
    4.1511    4.7016    4.2641 N   0  0  0  0  0  0  0  0  0  0  0  0
    3.5683    3.6712    3.5881 C   0  0  0  0  0  0  0  0  0  0  0  0
    3.8391    2.3090    3.5165 C   0  0  0  0  0  0  0  0  0  0  0  0
    3.0636    1.4660    2.7275 C   0  0  0  0  0  0  0  0  0  0  0  0
    3.7461    7.1571    4.4603 C   0  0  0  0  0  0  0  0  0  0  0  0
    4.6742    7.4688    5.4160 N   0  0  0  0  0  0  0  0  0  0  0  0
    4.6075    8.7710    5.5873 C   0  0  0  0  0  0  0  0  0  0  0  0
    3.6959    9.2796    4.7829 O   0  0  0  0  0  0  0  0  0  0  0  0
    3.1383    8.3138    4.0781 C   0  0  0  0  0  0  0  0  0  0  0  0
    5.4242    9.5117    6.5292 C   0  0  0  0  0  0  0  0  0  0  0  0
    6.3509    8.8372    7.3176 C   0  0  0  0  0  0  0  0  0  0  0  0
    7.1309    9.5523    8.2200 C   0  0  0  0  0  0  0  0  0  0  0  0
    6.9766   10.9313    8.3227 C   0  0  0  0  0  0  0  0  0  0  0  0
    6.0511   11.6054    7.5319 C   0  0  0  0  0  0  0  0  0  0  0  0
    5.2699   10.8901    6.6304 C   0  0  0  0  0  0  0  0  0  0  0  0
    7.8312   11.7073    9.3121 C   0  0  0  0  0  0  0  0  0  0  0  0
  1  2  2  0
  1  3  2  0
  1  4  1  0
  4  5  1  0
  5  6  2  0
  6  7  1  0
  7  8  2  0
  8  9  1  0
  9 10  1  0
  8 11  1  0
 11 12  2  0
 12  5  1  0
  1 13  1  0
 13 14  2  0
 14 15  1  0
 15 16  1  0
 16 17  2  0
 17 18  1  0
 18 19  1  0
 19 15  2  0
 19 20  1  0
 20 21  2  0
 21 13  1  0
 17 22  1  0
 22 23  1  0
 23 24  2  0
 24 25  1  0
 25 26  1  0
 22 26  2  0
 24 27  1  0
 27 28  2  0
 28 29  1  0
 29 30  2  0
 30 31  1  0
 31 32  2  0
 32 27  1  0
 30 33  1  0
M  END
$$$$
s_22____12058770____60255
     RDKit          3D

 31 34  0  0  0  0  0  0  0  0999 V2000
    3.9217    5.8589    4.4765 S   0  0  0  0  0  0  0  0  0  0  0  0
    2.5347    5.9885    4.8413 O   0  0  0  0  0  0  0  0  0  0  0  0
    4.7460    6.4143    5.5184 O   0  0  0  0  0  0  0  0  0  0  0  0
    4.2862    4.2827    4.2774 N   0  0  0  0  0  0  0  0  0  0  0  0
    3.4775    3.4736    3.4698 C   0  0  0  0  0  0  0  0  0  0  0  0
    4.0219    2.8420    2.3566 C   0  0  0  0  0  0  0  0  0  0  0  0
    3.2206    2.0382    1.5520 C   0  0  0  0  0  0  0  0  0  0  0  0
    1.8776    1.8776    1.8776 C   0  0  0  0  0  0  0  0  0  0  0  0
    1.3306    2.5081    2.9902 C   0  0  0  0  0  0  0  0  0  0  0  0
    2.1342    3.3114    3.7925 C   0  0  0  0  0  0  0  0  0  0  0  0
    1.0000    1.0000    1.0000 C   0  0  0  0  0  0  0  0  0  0  0  0
    1.0389   -0.4301    1.5136 C   0  0  0  0  0  0  0  0  0  0  0  0
    1.8955   -1.1804    1.1350 O   0  0  0  0  0  0  0  0  0  0  0  0
    0.0961   -0.8624    2.4087 N   0  0  0  0  0  0  0  0  0  0  0  0
   -0.1427   -2.2340    2.5670 C   0  0  0  0  0  0  0  0  0  0  0  0
   -0.3729   -2.8747    3.7470 N   0  0  0  0  0  0  0  0  0  0  0  0
   -0.5537   -4.1812    3.4322 C   0  0  0  0  0  0  0  0  0  0  0  0
   -0.4426   -4.3605    2.1346 N   0  0  0  0  0  0  0  0  0  0  0  0
   -0.1840   -3.1522    1.5600 C   0  0  0  0  0  0  0  0  0  0  0  0
   -0.8209   -5.1205    4.4633 C   0  0  0  0  0  0  0  0  0  0  0  0
   -0.8966   -4.7175    5.7698 C   0  0  0  0  0  0  0  0  0  0  0  0
   -0.7004   -3.3427    6.0713 C   0  0  0  0  0  0  0  0  0  0  0  0
   -0.4440   -2.4609    5.0537 C   0  0  0  0  0  0  0  0  0  0  0  0
   -1.0295   -6.5883    4.1320 C   0  0  0  0  0  0  0  0  0  0  0  0
    4.2124    6.7136    2.9894 C   0  0  0  0  0  0  0  0  0  0  0  0
    3.1910    6.8330    2.0529 C   0  0  0  0  0  0  0  0  0  0  0  0
    3.4297    7.5169    0.8657 C   0  0  0  0  0  0  0  0  0  0  0  0
    4.6822    8.0730    0.6280 C   0  0  0  0  0  0  0  0  0  0  0  0
    4.9030    8.7258   -0.5098 F   0  0  0  0  0  0  0  0  0  0  0  0
    5.6990    7.9498    1.5682 C   0  0  0  0  0  0  0  0  0  0  0  0
    5.4671    7.2670    2.7574 C   0  0  0  0  0  0  0  0  0  0  0  0
  1  2  2  0
  1  3  2  0
  1  4  1  0
  4  5  1  0
  5  6  2  0
  6  7  1  0
  7  8  2  0
  8  9  1  0
  9 10  2  0
 10  5  1  0
  8 11  1  0
 11 12  1  0
 12 13  2  0
 12 14  1  0
 14 15  1  0
 15 16  1  0
 16 17  1  0
 17 18  2  0
 18 19  1  0
 15 19  2  0
 17 20  1  0
 20 21  2  0
 21 22  1  0
 22 23  2  0
 23 16  1  0
 20 24  1  0
  1 25  1  0
 25 26  2  0
 26 27  1  0
 27 28  2  0
 28 29  1  0
 28 30  1  0
 30 31  2  0
 31 25  1  0
M  END
$$$$
s_527a____14056576____157860
     RDKit          3D

 32 35  0  0  0  0  0  0  0  0999 V2000
    6.0357   -8.7030   -0.5601 Br  0  0  0  0  0  0  0  0  0  0  0  0
    6.8116   -7.0341    0.1123 C   0  0  0  0  0  0  0  0  0  0  0  0
    5.9316   -5.9844    0.3075 C   0  0  0  0  0  0  0  0  0  0  0  0
    6.4960   -4.8133    0.7826 C   0  0  0  0  0  0  0  0  0  0  0  0
    5.6312   -3.3869    1.1033 S   0  0  0  0  0  0  0  0  0  0  0  0
    6.9807   -2.4893    1.6169 C   0  0  0  0  0  0  0  0  0  0  0  0
    8.0315   -3.2655    1.5388 N   0  0  0  0  0  0  0  0  0  0  0  0
    7.8140   -4.5476    1.0887 C   0  0  0  0  0  0  0  0  0  0  0  0
    8.6496   -5.6403    0.8734 C   0  0  0  0  0  0  0  0  0  0  0  0
    8.1624   -6.8542    0.3966 C   0  0  0  0  0  0  0  0  0  0  0  0
    6.9252   -1.1555    2.0373 N   0  0  0  0  0  0  0  0  0  0  0  0
    5.7158   -0.4849    2.0521 N   0  0  0  0  0  0  0  0  0  0  0  0
    5.6615    0.8207    2.4636 C   0  0  0  0  0  0  0  0  0  0  0  0
    6.6633    1.3824    2.8112 O   0  0  0  0  0  0  0  0  0  0  0  0
    4.3934    1.5238    2.4792 C   0  0  0  0  0  0  0  0  0  0  0  0
    4.3889    2.9151    2.4847 C   0  0  0  0  0  0  0  0  0  0  0  0
    3.1774    3.5986    2.4996 C   0  0  0  0  0  0  0  0  0  0  0  0
    1.9850    2.8822    2.5096 C   0  0  0  0  0  0  0  0  0  0  0  0
    0.7615    3.5615    2.5249 N   0  0  0  0  0  0  0  0  0  0  0  0
   -0.2810    3.3352    3.7573 S   0  0  0  0  0  0  0  0  0  0  0  0
   -1.5443    3.9470    3.4359 O   0  0  0  0  0  0  0  0  0  0  0  0
   -0.4718    1.9241    3.9717 O   0  0  0  0  0  0  0  0  0  0  0  0
    0.3633    4.0596    5.2025 C   0  0  0  0  0  0  0  0  0  0  0  0
    0.4380    5.4443    5.3129 C   0  0  0  0  0  0  0  0  0  0  0  0
   -0.1262    6.4759    3.9764 Cl  0  0  0  0  0  0  0  0  0  0  0  0
    0.9522    6.0229    6.4687 C   0  0  0  0  0  0  0  0  0  0  0  0
    1.3930    5.2166    7.5134 C   0  0  0  0  0  0  0  0  0  0  0  0
    1.3137    3.8329    7.3898 C   0  0  0  0  0  0  0  0  0  0  0  0
    1.8776    2.7997    8.7252 Cl  0  0  0  0  0  0  0  0  0  0  0  0
    0.8006    3.2428    6.2396 C   0  0  0  0  0  0  0  0  0  0  0  0
    1.9902    1.4907    2.5042 C   0  0  0  0  0  0  0  0  0  0  0  0
    3.2017    0.8073    2.4891 C   0  0  0  0  0  0  0  0  0  0  0  0
  1  2  1  0
  2  3  2  0
  3  4  1  0
  4  5  1  0
  5  6  1  0
  6  7  2  0
  7  8  1  0
  8  4  2  0
  8  9  1  0
  9 10  2  0
 10  2  1  0
  6 11  1  0
 11 12  1  0
 12 13  1  0
 13 14  2  0
 13 15  1  0
 15 16  2  0
 16 17  1  0
 17 18  2  0
 18 19  1  0
 19 20  1  0
 20 21  2  0
 20 22  2  0
 20 23  1  0
 23 24  2  0
 24 25  1  0
 24 26  1  0
 26 27  2  0
 27 28  1  0
 28 29  1  0
 28 30  2  0
 30 23  1  0
 18 31  1  0
 31 32  2  0
 32 15  1  0
M  END
$$$$
s_22____10266916____59626
     RDKit          3D

 35 38  0  0  0  0  0  0  0  0999 V2000
    4.8059   -0.4179   -2.4561 S   0  0  0  0  0  0  0  0  0  0  0  0
    5.7828   -1.1179   -3.2494 O   0  0  0  0  0  0  0  0  0  0  0  0
    3.5078   -1.0050   -2.6653 O   0  0  0  0  0  0  0  0  0  0  0  0
    5.2051   -0.5297   -0.8796 N   0  0  0  0  0  0  0  0  0  0  0  0
    4.5272    0.2436    0.0707 C   0  0  0  0  0  0  0  0  0  0  0  0
    5.2222    1.0044    1.0063 C   0  0  0  0  0  0  0  0  0  0  0  0
    4.5255    1.7651    1.9405 C   0  0  0  0  0  0  0  0  0  0  0  0
    3.1345    1.7648    1.9398 C   0  0  0  0  0  0  0  0  0  0  0  0
    2.4504    1.0000    1.0000 C   0  0  0  0  0  0  0  0  0  0  0  0
    3.1363    0.2359    0.0611 C   0  0  0  0  0  0  0  0  0  0  0  0
    1.0000    1.0000    1.0000 C   0  0  0  0  0  0  0  0  0  0  0  0
    0.4000    2.0391    1.0156 O   0  0  0  0  0  0  0  0  0  0  0  0
    0.3150   -0.1863    0.9822 N   0  0  0  0  0  0  0  0  0  0  0  0
   -0.9441   -0.2584    0.3749 C   0  0  0  0  0  0  0  0  0  0  0  0
   -2.2388    0.7933    0.7148 S   0  0  0  0  0  0  0  0  0  0  0  0
   -3.3113    0.0564   -0.3791 C   0  0  0  0  0  0  0  0  0  0  0  0
   -2.6376   -0.9846   -0.9795 C   0  0  0  0  0  0  0  0  0  0  0  0
   -1.3422   -1.1166   -0.5336 N   0  0  0  0  0  0  0  0  0  0  0  0
   -3.4054   -1.6749   -1.9119 C   0  0  0  0  0  0  0  0  0  0  0  0
   -4.7249   -1.3210   -2.1778 C   0  0  0  0  0  0  0  0  0  0  0  0
   -5.3291   -0.2574   -1.5155 C   0  0  0  0  0  0  0  0  0  0  0  0
   -6.6502    0.1410   -1.7395 N   0  0  0  0  0  0  0  0  0  0  0  0
   -7.6947   -0.8691   -1.9626 C   0  0  0  0  0  0  0  0  0  0  0  0
   -8.4741   -1.0847   -0.6755 C   0  0  0  0  0  0  0  0  0  0  0  0
   -6.9949    1.5699   -1.7520 C   0  0  0  0  0  0  0  0  0  0  0  0
   -7.1017    2.0528   -3.1893 C   0  0  0  0  0  0  0  0  0  0  0  0
   -4.6160    0.4693   -0.5792 C   0  0  0  0  0  0  0  0  0  0  0  0
    6.7418    1.0060    1.0065 C   0  0  0  0  0  0  0  0  0  0  0  0
    4.7680    1.2562   -2.9273 C   0  0  0  0  0  0  0  0  0  0  0  0
    5.9222    1.8608   -3.4140 C   0  0  0  0  0  0  0  0  0  0  0  0
    5.8858    3.1996   -3.7886 C   0  0  0  0  0  0  0  0  0  0  0  0
    4.7002    3.9176   -3.6739 C   0  0  0  0  0  0  0  0  0  0  0  0
    4.6730    5.1978   -4.0342 F   0  0  0  0  0  0  0  0  0  0  0  0
    3.5500    3.3074   -3.1864 C   0  0  0  0  0  0  0  0  0  0  0  0
    3.5795    1.9689   -2.8098 C   0  0  0  0  0  0  0  0  0  0  0  0
  1  2  2  0
  1  3  2  0
  1  4  1  0
  4  5  1  0
  5  6  2  0
  6  7  1  0
  7  8  2  0
  8  9  1  0
  9 10  2  0
 10  5  1  0
  9 11  1  0
 11 12  2  0
 11 13  1  0
 13 14  1  0
 14 15  1  0
 15 16  1  0
 16 17  2  0
 17 18  1  0
 14 18  2  0
 17 19  1  0
 19 20  2  0
 20 21  1  0
 21 22  1  0
 22 23  1  0
 23 24  1  0
 22 25  1  0
 25 26  1  0
 21 27  2  0
 27 16  1  0
  6 28  1  0
  1 29  1  0
 29 30  2  0
 30 31  1  0
 31 32  2  0
 32 33  1  0
 32 34  1  0
 34 35  2  0
 35 29  1  0
M  END
$$$$
s_527a____14797418____644968
     RDKit          3D

 29 32  0  0  0  0  0  0  0  0999 V2000
    8.4335    0.5523    2.2899 F   0  0  0  0  0  0  0  0  0  0  0  0
    9.3794    1.4662    2.0821 C   0  0  0  0  0  0  0  0  0  0  0  0
    9.1090    2.8169    2.2926 C   0  0  0  0  0  0  0  0  0  0  0  0
   10.1197    3.7330    2.0629 C   0  0  0  0  0  0  0  0  0  0  0  0
    9.6745    4.9987    2.3167 N   0  0  0  0  0  0  0  0  0  0  0  0
    8.3728    4.9234    2.7170 C   0  0  0  0  0  0  0  0  0  0  0  0
    8.0115    3.6073    2.7087 C   0  0  0  0  0  0  0  0  0  0  0  0
    6.7446    3.1220    3.0593 N   0  0  0  0  0  0  0  0  0  0  0  0
    5.6230    3.6528    2.4786 C   0  0  0  0  0  0  0  0  0  0  0  0
    5.6693    4.7355    1.9633 O   0  0  0  0  0  0  0  0  0  0  0  0
    4.3800    2.9062    2.4867 C   0  0  0  0  0  0  0  0  0  0  0  0
    3.1728    3.5972    2.5008 C   0  0  0  0  0  0  0  0  0  0  0  0
    1.9830    2.8768    2.5101 C   0  0  0  0  0  0  0  0  0  0  0  0
    0.7615    3.5615    2.5249 N   0  0  0  0  0  0  0  0  0  0  0  0
   -0.2727    3.1008    3.2963 C   0  0  0  0  0  0  0  0  0  0  0  0
   -0.0441    2.5060    4.3131 O   0  0  0  0  0  0  0  0  0  0  0  0
   -1.6437    3.3318    2.8839 C   0  0  0  0  0  0  0  0  0  0  0  0
   -2.6821    2.8575    3.6785 C   0  0  0  0  0  0  0  0  0  0  0  0
   -4.0030    3.0710    3.2974 C   0  0  0  0  0  0  0  0  0  0  0  0
   -4.2658    3.7595    2.1182 C   0  0  0  0  0  0  0  0  0  0  0  0
   -5.5241    3.9703    1.7425 F   0  0  0  0  0  0  0  0  0  0  0  0
   -3.2277    4.2334    1.3235 C   0  0  0  0  0  0  0  0  0  0  0  0
   -1.9072    4.0203    1.7039 C   0  0  0  0  0  0  0  0  0  0  0  0
    1.9867    1.4860    2.5051 C   0  0  0  0  0  0  0  0  0  0  0  0
    3.2053    0.8159    2.4905 C   0  0  0  0  0  0  0  0  0  0  0  0
    4.4072    1.5158    2.4809 C   0  0  0  0  0  0  0  0  0  0  0  0
   11.3773    3.3239    1.6332 C   0  0  0  0  0  0  0  0  0  0  0  0
   11.6353    1.9723    1.4264 C   0  0  0  0  0  0  0  0  0  0  0  0
   10.6309    1.0370    1.6523 C   0  0  0  0  0  0  0  0  0  0  0  0
  1  2  1  0
  2  3  2  0
  3  4  1  0
  4  5  1  0
  5  6  1  0
  6  7  2  0
  7  3  1  0
  7  8  1  0
  8  9  1  0
  9 10  2  0
  9 11  1  0
 11 12  2  0
 12 13  1  0
 13 14  1  0
 14 15  1  0
 15 16  2  0
 15 17  1  0
 17 18  2  0
 18 19  1  0
 19 20  2  0
 20 21  1  0
 20 22  1  0
 22 23  2  0
 23 17  1  0
 13 24  2  0
 24 25  1  0
 25 26  2  0
 26 11  1  0
  4 27  2  0
 27 28  1  0
 28 29  2  0
 29  2  1  0
M  END
$$$$
s_270196____9422972____8772164
     RDKit          3D

 32 36  0  0  0  0  0  0  0  0999 V2000
    1.0000    1.0000    1.0000 S   0  0  0  0  0  0  0  0  0  0  0  0
   -0.2684    1.6482    0.7889 O   0  0  0  0  0  0  0  0  0  0  0  0
    0.7889   -0.2684    1.6482 O   0  0  0  0  0  0  0  0  0  0  0  0
    1.7337    0.7610   -0.4358 N   0  0  0  0  0  0  0  0  0  0  0  0
    1.3494    1.5137   -1.5522 C   0  0  0  0  0  0  0  0  0  0  0  0
    1.9848    2.7220   -1.8200 C   0  0  0  0  0  0  0  0  0  0  0  0
    1.6004    3.4668   -2.9301 C   0  0  0  0  0  0  0  0  0  0  0  0
    0.5878    3.0022   -3.7625 C   0  0  0  0  0  0  0  0  0  0  0  0
   -0.0401    1.7924   -3.4854 C   0  0  0  0  0  0  0  0  0  0  0  0
    0.3357    1.0392   -2.3781 C   0  0  0  0  0  0  0  0  0  0  0  0
    2.7988   -0.2446   -0.5586 C   0  0  0  0  0  0  0  0  0  0  0  0
    2.1890   -1.5852   -0.9347 C   0  0  0  0  0  0  0  0  0  0  0  0
    2.0045    2.0045    2.0045 C   0  0  0  0  0  0  0  0  0  0  0  0
    1.8584    3.3870    1.9602 C   0  0  0  0  0  0  0  0  0  0  0  0
    2.6665    4.1805    2.7676 C   0  0  0  0  0  0  0  0  0  0  0  0
    3.6073    3.5898    3.6054 C   0  0  0  0  0  0  0  0  0  0  0  0
    3.7498    2.2066    3.6463 C   0  0  0  0  0  0  0  0  0  0  0  0
    2.9434    1.4091    2.8407 C   0  0  0  0  0  0  0  0  0  0  0  0
    4.4444    4.4288    4.4414 C   0  0  0  0  0  0  0  0  0  0  0  0
    4.4060    5.7381    4.4926 O   0  0  0  0  0  0  0  0  0  0  0  0
    5.2668    6.1553    5.3241 N   0  0  0  0  0  0  0  0  0  0  0  0
    5.8918    5.1215    5.8370 C   0  0  0  0  0  0  0  0  0  0  0  0
    5.3650    4.0049    5.2697 N   0  0  0  0  0  0  0  0  0  0  0  0
    6.9519    5.1643    6.8253 C   0  0  0  0  0  0  0  0  0  0  0  0
    7.6139    4.0371    7.3650 C   0  0  0  0  0  0  0  0  0  0  0  0
    8.5279    4.5531    8.2573 C   0  0  0  0  0  0  0  0  0  0  0  0
    8.4300    5.9187    8.2506 N   0  0  0  0  0  0  0  0  0  0  0  0
    7.4611    6.3028    7.3737 C   0  0  0  0  0  0  0  0  0  0  0  0
    9.3564    3.7031    8.9815 C   0  0  0  0  0  0  0  0  0  0  0  0
    9.2772    2.3235    8.8239 C   0  0  0  0  0  0  0  0  0  0  0  0
    8.3550    1.7927    7.9277 C   0  0  0  0  0  0  0  0  0  0  0  0
    7.5346    2.6557    7.2096 C   0  0  0  0  0  0  0  0  0  0  0  0
  1  2  2  0
  1  3  2  0
  1  4  1  0
  4  5  1  0
  5  6  2  0
  6  7  1  0
  7  8  2  0
  8  9  1  0
  9 10  2  0
 10  5  1  0
  4 11  1  0
 11 12  1  0
  1 13  1  0
 13 14  2  0
 14 15  1  0
 15 16  2  0
 16 17  1  0
 17 18  2  0
 18 13  1  0
 16 19  1  0
 19 20  1  0
 20 21  1  0
 21 22  2  0
 22 23  1  0
 19 23  2  0
 22 24  1  0
 24 25  1  0
 25 26  2  0
 26 27  1  0
 27 28  1  0
 24 28  2  0
 26 29  1  0
 29 30  2  0
 30 31  1  0
 31 32  2  0
 32 25  1  0
M  END
$$$$
s_27c____5343226____17322582
     RDKit          3D

 29 32  0  0  0  0  0  0  0  0999 V2000
   10.5876   -0.0384    8.8059 Br  0  0  0  0  0  0  0  0  0  0  0  0
    9.6091    0.4661    7.1845 C   0  0  0  0  0  0  0  0  0  0  0  0
    8.8737    1.6472    7.1380 C   0  0  0  0  0  0  0  0  0  0  0  0
    8.1710    2.0244    5.9975 C   0  0  0  0  0  0  0  0  0  0  0  0
    7.4008    3.1187    5.7353 N   0  0  0  0  0  0  0  0  0  0  0  0
    6.9465    3.0148    4.5098 C   0  0  0  0  0  0  0  0  0  0  0  0
    7.4188    1.8585    3.9698 N   0  0  0  0  0  0  0  0  0  0  0  0
    8.2028    1.2163    4.8889 C   0  0  0  0  0  0  0  0  0  0  0  0
    8.9340    0.0282    4.9270 C   0  0  0  0  0  0  0  0  0  0  0  0
    9.6412   -0.3554    6.0625 C   0  0  0  0  0  0  0  0  0  0  0  0
    6.1168    3.9364    3.8607 N   0  0  0  0  0  0  0  0  0  0  0  0
    5.6831    3.6886    2.4782 C   0  0  0  0  0  0  0  0  0  0  0  0
    4.3794    2.9069    2.4885 C   0  0  0  0  0  0  0  0  0  0  0  0
    3.1724    3.5978    2.5023 C   0  0  0  0  0  0  0  0  0  0  0  0
    1.9825    2.8774    2.5113 C   0  0  0  0  0  0  0  0  0  0  0  0
    0.7615    3.5615    2.5249 N   0  0  0  0  0  0  0  0  0  0  0  0
   -0.2830    3.3401    3.7565 S   0  0  0  0  0  0  0  0  0  0  0  0
   -1.5436    3.9566    3.4334 O   0  0  0  0  0  0  0  0  0  0  0  0
   -0.4795    1.9299    3.9717 O   0  0  0  0  0  0  0  0  0  0  0  0
    0.3627    4.0630    5.2017 C   0  0  0  0  0  0  0  0  0  0  0  0
    0.0682    5.3912    5.4924 C   0  0  0  0  0  0  0  0  0  0  0  0
    0.5810    5.9759    6.6458 C   0  0  0  0  0  0  0  0  0  0  0  0
    1.3837    5.2211    7.4945 C   0  0  0  0  0  0  0  0  0  0  0  0
    2.0451    5.9598    8.9733 Cl  0  0  0  0  0  0  0  0  0  0  0  0
    1.6763    3.8930    7.2018 C   0  0  0  0  0  0  0  0  0  0  0  0
    1.1653    3.3060    6.0490 C   0  0  0  0  0  0  0  0  0  0  0  0
    1.9858    1.4868    2.5068 C   0  0  0  0  0  0  0  0  0  0  0  0
    3.2044    0.8172    2.4929 C   0  0  0  0  0  0  0  0  0  0  0  0
    4.4073    1.5164    2.4834 C   0  0  0  0  0  0  0  0  0  0  0  0
  1  2  1  0
  2  3  2  0
  3  4  1  0
  4  5  1  0
  5  6  2  0
  6  7  1  0
  7  8  1  0
  8  4  2  0
  8  9  1  0
  9 10  2  0
 10  2  1  0
  6 11  1  0
 11 12  1  0
 12 13  1  0
 13 14  2  0
 14 15  1  0
 15 16  1  0
 16 17  1  0
 17 18  2  0
 17 19  2  0
 17 20  1  0
 20 21  2  0
 21 22  1  0
 22 23  2  0
 23 24  1  0
 23 25  1  0
 25 26  2  0
 26 20  1  0
 15 27  2  0
 27 28  1  0
 28 29  2  0
 29 13  1  0
M  END
$$$$
s_22____818092____59626
     RDKit          3D

 36 40  0  0  0  0  0  0  0  0999 V2000
   -0.1350    3.5946    3.9005 S   0  0  0  0  0  0  0  0  0  0  0  0
   -1.2321    4.5122    3.7328 O   0  0  0  0  0  0  0  0  0  0  0  0
   -0.6480    2.2819    4.1958 O   0  0  0  0  0  0  0  0  0  0  0  0
    0.7417    3.5392    2.5275 N   0  0  0  0  0  0  0  0  0  0  0  0
    1.9769    2.8800    2.5117 C   0  0  0  0  0  0  0  0  0  0  0  0
    3.1722    3.5930    2.5023 C   0  0  0  0  0  0  0  0  0  0  0  0
    4.3872    2.9146    2.4871 C   0  0  0  0  0  0  0  0  0  0  0  0
    4.4074    1.5237    2.4807 C   0  0  0  0  0  0  0  0  0  0  0  0
    3.2062    0.8215    2.4897 C   0  0  0  0  0  0  0  0  0  0  0  0
    1.9856    1.4890    2.5053 C   0  0  0  0  0  0  0  0  0  0  0  0
    3.2280   -0.6288    2.4827 C   0  0  0  0  0  0  0  0  0  0  0  0
    3.4958   -1.2200    1.4734 O   0  0  0  0  0  0  0  0  0  0  0  0
    2.9365   -1.3395    3.6547 N   0  0  0  0  0  0  0  0  0  0  0  0
    2.4196   -2.7142    3.6440 C   0  0  0  0  0  0  0  0  0  0  0  0
    3.0667   -3.5107    4.7648 C   0  0  0  0  0  0  0  0  0  0  0  0
    3.9181   -2.9561    5.6109 C   0  0  0  0  0  0  0  0  0  0  0  0
    4.4950   -3.7930    6.6447 C   0  0  0  0  0  0  0  0  0  0  0  0
    3.8676   -4.9139    7.2360 C   0  0  0  0  0  0  0  0  0  0  0  0
    4.7891   -5.3811    8.1492 C   0  0  0  0  0  0  0  0  0  0  0  0
    5.9077   -4.5989    8.1239 N   0  0  0  0  0  0  0  0  0  0  0  0
    5.7299   -3.6159    7.1948 C   0  0  0  0  0  0  0  0  0  0  0  0
    4.4986   -6.4988    8.9246 C   0  0  0  0  0  0  0  0  0  0  0  0
    3.2826   -7.1622    8.7956 C   0  0  0  0  0  0  0  0  0  0  0  0
    2.3476   -6.6962    7.8767 C   0  0  0  0  0  0  0  0  0  0  0  0
    2.6514   -5.5773    7.1071 C   0  0  0  0  0  0  0  0  0  0  0  0
    2.9824   -8.3831    9.6494 C   0  0  0  0  0  0  0  0  0  0  0  0
    4.3388   -1.4970    5.5673 C   0  0  0  0  0  0  0  0  0  0  0  0
    3.1234   -0.7821    4.9938 C   0  0  0  0  0  0  0  0  0  0  0  0
    3.1505    5.1125    2.5107 C   0  0  0  0  0  0  0  0  0  0  0  0
    0.8744    4.1312    5.2118 C   0  0  0  0  0  0  0  0  0  0  0  0
    0.9738    5.4898    5.4928 C   0  0  0  0  0  0  0  0  0  0  0  0
    1.7828    5.9126    6.5420 C   0  0  0  0  0  0  0  0  0  0  0  0
    2.4812    4.9765    7.2972 C   0  0  0  0  0  0  0  0  0  0  0  0
    3.2530    5.3884    8.2992 F   0  0  0  0  0  0  0  0  0  0  0  0
    2.3777    3.6199    7.0109 C   0  0  0  0  0  0  0  0  0  0  0  0
    1.5706    3.1902    5.9629 C   0  0  0  0  0  0  0  0  0  0  0  0
  1  2  2  0
  1  3  2  0
  1  4  1  0
  4  5  1  0
  5  6  2  0
  6  7  1  0
  7  8  2  0
  8  9  1  0
  9 10  2  0
 10  5  1  0
  9 11  1  0
 11 12  2  0
 11 13  1  0
 13 14  1  0
 14 15  1  0
 15 16  2  0
 16 17  1  0
 17 18  1  0
 18 19  2  0
 19 20  1  0
 20 21  1  0
 17 21  2  0
 19 22  1  0
 22 23  2  0
 23 24  1  0
 24 25  2  0
 25 18  1  0
 23 26  1  0
 16 27  1  0
 27 28  1  0
 28 13  1  0
  6 29  1  0
  1 30  1  0
 30 31  2  0
 31 32  1  0
 32 33  2  0
 33 34  1  0
 33 35  1  0
 35 36  2  0
 36 30  1  0
M  END
$$$$
s_22____803220____59922
     RDKit          3D

 31 34  0  0  0  0  0  0  0  0999 V2000
    0.4299    3.7470    2.5290 Cl  0  0  0  0  0  0  0  0  0  0  0  0
    1.9828    2.8757    2.5094 C   0  0  0  0  0  0  0  0  0  0  0  0
    3.1792    3.5864    2.5020 C   0  0  0  0  0  0  0  0  0  0  0  0
    3.1519    4.9853    2.5098 N   0  0  0  0  0  0  0  0  0  0  0  0
    3.7994    5.8062    3.7604 S   0  0  0  0  0  0  0  0  0  0  0  0
    3.3497    7.1736    3.7213 O   0  0  0  0  0  0  0  0  0  0  0  0
    3.3847    5.1996    4.9988 O   0  0  0  0  0  0  0  0  0  0  0  0
    5.5348    5.7630    3.6460 C   0  0  0  0  0  0  0  0  0  0  0  0
    6.1929    6.6661    2.8178 C   0  0  0  0  0  0  0  0  0  0  0  0
    7.5802    6.6262    2.7301 C   0  0  0  0  0  0  0  0  0  0  0  0
    8.2930    5.6880    3.4690 C   0  0  0  0  0  0  0  0  0  0  0  0
    9.6198    5.6559    3.3800 F   0  0  0  0  0  0  0  0  0  0  0  0
    7.6290    4.7878    4.2948 C   0  0  0  0  0  0  0  0  0  0  0  0
    6.2418    4.8221    4.3870 C   0  0  0  0  0  0  0  0  0  0  0  0
    4.3966    2.9151    2.4867 C   0  0  0  0  0  0  0  0  0  0  0  0
    4.3941    1.5247    2.4794 C   0  0  0  0  0  0  0  0  0  0  0  0
    3.2015    0.8092    2.4872 C   0  0  0  0  0  0  0  0  0  0  0  0
    1.9858    1.4848    2.5024 C   0  0  0  0  0  0  0  0  0  0  0  0
    5.6615    0.8207    2.4636 C   0  0  0  0  0  0  0  0  0  0  0  0
    6.6568    1.3849    2.1016 O   0  0  0  0  0  0  0  0  0  0  0  0
    5.7228   -0.4887    2.8620 N   0  0  0  0  0  0  0  0  0  0  0  0
    7.0077   -1.2025    2.8460 C   0  0  0  0  0  0  0  0  0  0  0  0
    7.6999   -1.0274    4.1840 C   0  0  0  0  0  0  0  0  0  0  0  0
    7.5673   -1.8726    5.3224 C   0  0  0  0  0  0  0  0  0  0  0  0
    8.3236   -1.4636    6.3989 C   0  0  0  0  0  0  0  0  0  0  0  0
    9.1371   -0.0535    5.8967 S   0  0  0  0  0  0  0  0  0  0  0  0
    8.5322    0.0407    4.3067 C   0  0  0  0  0  0  0  0  0  0  0  0
    8.4058   -2.0728    7.6421 C   0  0  0  0  0  0  0  0  0  0  0  0
    7.6442   -3.2187    7.8151 C   0  0  0  0  0  0  0  0  0  0  0  0
    6.8552   -3.6910    6.7707 C   0  0  0  0  0  0  0  0  0  0  0  0
    6.8225   -3.0247    5.5501 C   0  0  0  0  0  0  0  0  0  0  0  0
  1  2  1  0
  2  3  2  0
  3  4  1  0
  4  5  1  0
  5  6  2  0
  5  7  2  0
  5  8  1  0
  8  9  2  0
  9 10  1  0
 10 11  2  0
 11 12  1  0
 11 13  1  0
 13 14  2  0
 14  8  1  0
  3 15  1  0
 15 16  2  0
 16 17  1  0
 17 18  2  0
 18  2  1  0
 16 19  1  0
 19 20  2  0
 19 21  1  0
 21 22  1  0
 22 23  1  0
 23 24  1  0
 24 25  2  0
 25 26  1  0
 26 27  1  0
 23 27  2  0
 25 28  1  0
 28 29  2  0
 29 30  1  0
 30 31  2  0
 31 24  1  0
M  END
$$$$
m_275030____14114132____14126682____14145804
     RDKit          3D

 35 38  0  0  0  0  0  0  0  0999 V2000
    9.1596    0.2154    2.2608 Cl  0  0  0  0  0  0  0  0  0  0  0  0
    7.8362   -0.3769    1.2274 C   0  0  0  0  0  0  0  0  0  0  0  0
    6.7598   -1.0457    1.8005 C   0  0  0  0  0  0  0  0  0  0  0  0
    5.7299   -1.5053    0.9861 C   0  0  0  0  0  0  0  0  0  0  0  0
    5.7878   -1.2919   -0.3874 C   0  0  0  0  0  0  0  0  0  0  0  0
    4.4948   -1.8702   -1.3982 S   0  0  0  0  0  0  0  0  0  0  0  0
    3.9139   -3.0481   -0.8077 O   0  0  0  0  0  0  0  0  0  0  0  0
    5.0127   -2.1927   -2.7025 O   0  0  0  0  0  0  0  0  0  0  0  0
    3.2289   -0.5857   -1.5524 C   0  0  0  0  0  0  0  0  0  0  0  0
    2.6822   -0.2452   -0.1756 C   0  0  0  0  0  0  0  0  0  0  0  0
    1.6541    0.7980   -0.3008 N   0  0  0  0  0  0  0  0  0  0  0  0
    1.0000    1.0000    1.0000 C   0  0  0  0  0  0  0  0  0  0  0  0
    1.8777    1.8777    1.8777 C   0  0  0  0  0  0  0  0  0  0  0  0
    1.9410    3.2560    1.6958 C   0  0  0  0  0  0  0  0  0  0  0  0
    2.7550    4.0292    2.5171 C   0  0  0  0  0  0  0  0  0  0  0  0
    3.5060    3.4245    3.5205 C   0  0  0  0  0  0  0  0  0  0  0  0
    3.4421    2.0467    3.7028 C   0  0  0  0  0  0  0  0  0  0  0  0
    2.6283    1.2734    2.8811 C   0  0  0  0  0  0  0  0  0  0  0  0
    1.1204    3.9166    0.5998 C   0  0  0  0  0  0  0  0  0  0  0  0
   -0.2428    4.1650    1.0904 N   0  0  0  0  0  0  0  0  0  0  0  0
   -0.5422    5.3490    1.7114 C   0  0  0  0  0  0  0  0  0  0  0  0
    0.3084    6.1832    1.8548 O   0  0  0  0  0  0  0  0  0  0  0  0
   -1.8873    5.5941    2.1955 C   0  0  0  0  0  0  0  0  0  0  0  0
   -2.3012    6.7297    2.8263 N   0  0  0  0  0  0  0  0  0  0  0  0
   -3.6231    6.5809    3.1285 C   0  0  0  0  0  0  0  0  0  0  0  0
   -4.0504    5.3513    2.6862 C   0  0  0  0  0  0  0  0  0  0  0  0
   -5.3793    4.9918    2.8949 C   0  0  0  0  0  0  0  0  0  0  0  0
   -6.2880    5.8354    3.5279 C   0  0  0  0  0  0  0  0  0  0  0  0
   -5.8365    7.0767    3.9641 C   0  0  0  0  0  0  0  0  0  0  0  0
   -4.5097    7.4436    3.7644 C   0  0  0  0  0  0  0  0  0  0  0  0
   -7.7452    5.4540    3.7565 C   0  0  0  0  0  0  0  0  0  0  0  0
   -2.9298    4.7211    2.0936 C   0  0  0  0  0  0  0  0  0  0  0  0
    0.6528    0.3825   -1.2936 C   0  0  0  0  0  0  0  0  0  0  0  0
    6.8633   -0.6233   -0.9629 C   0  0  0  0  0  0  0  0  0  0  0  0
    7.8920   -0.1652   -0.1463 C   0  0  0  0  0  0  0  0  0  0  0  0
  1  2  1  0
  2  3  2  0
  3  4  1  0
  4  5  2  0
  5  6  1  0
  6  7  2  0
  6  8  2  0
  6  9  1  0
  9 10  1  0
 10 11  1  0
 11 12  1  0
 12 13  1  0
 13 14  1  0
 14 15  2  0
 15 16  1  0
 16 17  2  0
 17 18  1  0
 18 13  2  0
 14 19  1  0
 19 20  1  0
 20 21  1  0
 21 22  2  0
 21 23  1  0
 23 24  1  0
 24 25  1  0
 25 26  2  0
 26 27  1  0
 27 28  2  0
 28 29  1  0
 29 30  2  0
 30 25  1  0
 28 31  1  0
 26 32  1  0
 23 32  2  0
 11 33  1  0
  5 34  1  0
 34 35  2  0
 35  2  1  0
M  CHG  1  11   1
M  END
$$$$
s_60____90616____5455734
     RDKit          3D

 29 33  0  0  0  0  0  0  0  0999 V2000
    3.1541    4.7750    2.5015 O   0  0  0  0  0  0  0  0  0  0  0  0
    3.1617    3.5542    2.5011 C   0  0  0  0  0  0  0  0  0  0  0  0
    2.0033    2.8211    2.5106 N   0  0  0  0  0  0  0  0  0  0  0  0
    2.0168    1.4521    2.5105 C   0  0  0  0  0  0  0  0  0  0  0  0
    0.9800    0.5612    2.5127 N   0  0  0  0  0  0  0  0  0  0  0  0
    1.4690   -0.6559    2.5039 C   0  0  0  0  0  0  0  0  0  0  0  0
    2.8275   -0.5660    2.5051 N   0  0  0  0  0  0  0  0  0  0  0  0
    3.1805    0.7630    2.5012 C   0  0  0  0  0  0  0  0  0  0  0  0
    4.3794    1.5239    2.4957 C   0  0  0  0  0  0  0  0  0  0  0  0
    5.4731    0.9825    2.4900 O   0  0  0  0  0  0  0  0  0  0  0  0
    4.3622    2.8944    2.4901 N   0  0  0  0  0  0  0  0  0  0  0  0
    3.7413   -1.7206    2.4951 C   0  0  0  0  0  0  0  0  0  0  0  0
    0.6914   -1.8804    2.5023 C   0  0  0  0  0  0  0  0  0  0  0  0
    0.9714   -2.9568    1.8085 O   0  0  0  0  0  0  0  0  0  0  0  0
    0.0621   -3.8859    2.0343 C   0  0  0  0  0  0  0  0  0  0  0  0
   -0.8726   -3.4105    2.9265 C   0  0  0  0  0  0  0  0  0  0  0  0
   -1.9256   -4.2352    3.3148 C   0  0  0  0  0  0  0  0  0  0  0  0
   -2.0663   -5.5323    2.8267 C   0  0  0  0  0  0  0  0  0  0  0  0
   -1.1142   -5.9980    1.9259 C   0  0  0  0  0  0  0  0  0  0  0  0
   -0.0605   -5.1789    1.5350 C   0  0  0  0  0  0  0  0  0  0  0  0
   -3.2159   -6.4375    3.2497 C   0  0  0  0  0  0  0  0  0  0  0  0
   -0.4452   -2.0967    3.2220 C   0  0  0  0  0  0  0  0  0  0  0  0
    0.7177    3.5348    2.5208 C   0  0  0  0  0  0  0  0  0  0  0  0
    0.2631    3.7805    1.0909 C   0  0  0  0  0  0  0  0  0  0  0  0
    0.6436    4.9483    0.4379 C   0  0  0  0  0  0  0  0  0  0  0  0
    0.2248    5.1694   -0.8700 C   0  0  0  0  0  0  0  0  0  0  0  0
   -0.5673    4.2258   -1.5157 C   0  0  0  0  0  0  0  0  0  0  0  0
   -0.9408    3.0627   -0.8537 C   0  0  0  0  0  0  0  0  0  0  0  0
   -0.5290    2.8302    0.4545 C   0  0  0  0  0  0  0  0  0  0  0  0
  1  2  2  0
  2  3  1  0
  3  4  1  0
  4  5  1  0
  5  6  2  0
  6  7  1  0
  7  8  1  0
  4  8  2  0
  8  9  1  0
  9 10  2  0
  9 11  1  0
 11  2  1  0
  7 12  1  0
  6 13  1  0
 13 14  1  0
 14 15  1  0
 15 16  2  0
 16 17  1  0
 17 18  2  0
 18 19  1  0
 19 20  2  0
 20 15  1  0
 18 21  1  0
 16 22  1  0
 13 22  2  0
  3 23  1  0
 23 24  1  0
 24 25  2  0
 25 26  1  0
 26 27  2  0
 27 28  1  0
 28 29  2  0
 29 24  1  0
M  END
$$$$
m_270942____8687892____15115194____14067606
     RDKit          3D

 37 41  0  0  0  0  0  0  0  0999 V2000
   -0.2810    3.3352    3.7573 S   0  0  0  0  0  0  0  0  0  0  0  0
   -1.5443    3.9470    3.4359 O   0  0  0  0  0  0  0  0  0  0  0  0
   -0.4718    1.9241    3.9717 O   0  0  0  0  0  0  0  0  0  0  0  0
    0.7615    3.5615    2.5249 N   0  0  0  0  0  0  0  0  0  0  0  0
    1.9850    2.8822    2.5096 C   0  0  0  0  0  0  0  0  0  0  0  0
    3.1774    3.5986    2.4996 C   0  0  0  0  0  0  0  0  0  0  0  0
    4.3889    2.9151    2.4847 C   0  0  0  0  0  0  0  0  0  0  0  0
    4.3934    1.5238    2.4792 C   0  0  0  0  0  0  0  0  0  0  0  0
    3.2017    0.8073    2.4891 C   0  0  0  0  0  0  0  0  0  0  0  0
    1.9902    1.4907    2.5042 C   0  0  0  0  0  0  0  0  0  0  0  0
    5.6621    0.8203    2.4636 C   0  0  0  0  0  0  0  0  0  0  0  0
    6.7898    1.2480    2.9852 N   0  0  0  0  0  0  0  0  0  0  0  0
    7.7080    0.3331    2.7674 N   0  0  0  0  0  0  0  0  0  0  0  0
    7.2143   -0.6896    2.1142 C   0  0  0  0  0  0  0  0  0  0  0  0
    5.9037   -0.3975    1.9094 N   0  0  0  0  0  0  0  0  0  0  0  0
    4.9253   -1.2464    1.2130 C   0  0  0  0  0  0  0  0  0  0  0  0
    7.8976   -1.8462    1.7143 N   0  0  0  0  0  0  0  0  0  0  0  0
    9.2843   -1.8082    1.5189 C   0  0  0  0  0  0  0  0  0  0  0  0
    9.9534   -0.8308    0.9602 N   0  0  0  0  0  0  0  0  0  0  0  0
   11.2308   -1.1223    0.9375 N   0  0  0  0  0  0  0  0  0  0  0  0
   11.4129   -2.3445    1.5081 C   0  0  0  0  0  0  0  0  0  0  0  0
   12.6812   -3.0265    1.6791 C   0  0  0  0  0  0  0  0  0  0  0  0
   13.1393   -3.8728    0.6747 C   0  0  0  0  0  0  0  0  0  0  0  0
   14.3541   -4.5344    0.8229 C   0  0  0  0  0  0  0  0  0  0  0  0
   15.0960   -4.3385    1.9827 C   0  0  0  0  0  0  0  0  0  0  0  0
   16.2588   -4.9649    2.1367 F   0  0  0  0  0  0  0  0  0  0  0  0
   14.6379   -3.4928    2.9870 C   0  0  0  0  0  0  0  0  0  0  0  0
   13.4238   -2.8312    2.8394 C   0  0  0  0  0  0  0  0  0  0  0  0
   10.1970   -2.8179    1.8912 C   0  0  0  0  0  0  0  0  0  0  0  0
   12.2932   -0.2667    0.3899 C   0  0  0  0  0  0  0  0  0  0  0  0
    0.3631    4.0594    5.2021 C   0  0  0  0  0  0  0  0  0  0  0  0
    0.0691    5.3851    5.5018 C   0  0  0  0  0  0  0  0  0  0  0  0
    0.5829    5.9665    6.6565 C   0  0  0  0  0  0  0  0  0  0  0  0
    1.3889    5.2080    7.4989 C   0  0  0  0  0  0  0  0  0  0  0  0
    1.6829    3.8821    7.1982 C   0  0  0  0  0  0  0  0  0  0  0  0
    1.1691    3.3003    6.0445 C   0  0  0  0  0  0  0  0  0  0  0  0
    1.9537    5.8387    8.7610 C   0  0  0  0  0  0  0  0  0  0  0  0
  1  2  2  0
  1  3  2  0
  1  4  1  0
  4  5  1  0
  5  6  2  0
  6  7  1  0
  7  8  2  0
  8  9  1  0
  9 10  2  0
 10  5  1  0
  8 11  1  0
 11 12  2  0
 12 13  1  0
 13 14  2  0
 14 15  1  0
 15 11  1  0
 15 16  1  0
 14 17  1  0
 17 18  1  0
 18 19  2  0
 19 20  1  0
 20 21  1  0
 21 22  1  0
 22 23  2  0
 23 24  1  0
 24 25  2  0
 25 26  1  0
 25 27  1  0
 27 28  2  0
 28 22  1  0
 21 29  2  0
 29 18  1  0
 20 30  1  0
  1 31  1  0
 31 32  2  0
 32 33  1  0
 33 34  2  0
 34 35  1  0
 35 36  2  0
 36 31  1  0
 34 37  1  0
M  END
$$$$
s_271570____11829988____13286704
     RDKit          3D

 32 36  0  0  0  0  0  0  0  0999 V2000
    6.6338    3.4353    1.2502 S   0  0  0  0  0  0  0  0  0  0  0  0
    7.8799    4.0761    1.5820 O   0  0  0  0  0  0  0  0  0  0  0  0
    6.8607    2.0308    1.0274 O   0  0  0  0  0  0  0  0  0  0  0  0
    5.5801    3.6272    2.4789 N   0  0  0  0  0  0  0  0  0  0  0  0
    4.3737    2.9176    2.4835 C   0  0  0  0  0  0  0  0  0  0  0  0
    3.1433    3.5664    2.4932 C   0  0  0  0  0  0  0  0  0  0  0  0
    2.0017    2.8611    2.4979 N   0  0  0  0  0  0  0  0  0  0  0  0
    1.9994    1.5191    2.4940 C   0  0  0  0  0  0  0  0  0  0  0  0
    3.2043    0.8207    2.4847 C   0  0  0  0  0  0  0  0  0  0  0  0
    3.2281   -0.6335    2.4827 C   0  0  0  0  0  0  0  0  0  0  0  0
    4.2669   -1.3556    3.0651 C   0  0  0  0  0  0  0  0  0  0  0  0
    4.2786   -2.6981    3.0588 N   0  0  0  0  0  0  0  0  0  0  0  0
    3.2958   -3.4183    2.4945 C   0  0  0  0  0  0  0  0  0  0  0  0
    3.1248   -4.7698    2.3879 N   0  0  0  0  0  0  0  0  0  0  0  0
    1.9556   -5.0129    1.7298 C   0  0  0  0  0  0  0  0  0  0  0  0
    1.3996   -3.8056    1.4251 C   0  0  0  0  0  0  0  0  0  0  0  0
    2.2353   -2.7681    1.8989 C   0  0  0  0  0  0  0  0  0  0  0  0
    2.2089   -1.3766    1.8976 C   0  0  0  0  0  0  0  0  0  0  0  0
    0.0840   -3.6105    0.6876 C   0  0  0  0  0  0  0  0  0  0  0  0
    0.3638   -3.2930   -0.7726 C   0  0  0  0  0  0  0  0  0  0  0  0
    0.4625   -4.3285   -1.6962 C   0  0  0  0  0  0  0  0  0  0  0  0
    0.7195   -4.0337   -3.0312 C   0  0  0  0  0  0  0  0  0  0  0  0
    0.8744   -2.7114   -3.4341 C   0  0  0  0  0  0  0  0  0  0  0  0
    0.7733   -1.6852   -2.5028 C   0  0  0  0  0  0  0  0  0  0  0  0
    0.5173   -1.9670   -1.1649 C   0  0  0  0  0  0  0  0  0  0  0  0
    4.4026    1.5272    2.4796 C   0  0  0  0  0  0  0  0  0  0  0  0
    5.9788    4.1530   -0.1929 C   0  0  0  0  0  0  0  0  0  0  0  0
    6.2413    5.4881   -0.4825 C   0  0  0  0  0  0  0  0  0  0  0  0
    5.7115    6.0495   -1.6400 C   0  0  0  0  0  0  0  0  0  0  0  0
    4.9273    5.2855   -2.4979 C   0  0  0  0  0  0  0  0  0  0  0  0
    4.6703    3.9517   -2.1986 C   0  0  0  0  0  0  0  0  0  0  0  0
    5.1951    3.3802   -1.0442 C   0  0  0  0  0  0  0  0  0  0  0  0
  1  2  2  0
  1  3  2  0
  1  4  1  0
  4  5  1  0
  5  6  2  0
  6  7  1  0
  7  8  2  0
  8  9  1  0
  9 10  1  0
 10 11  2  0
 11 12  1  0
 12 13  2  0
 13 14  1  0
 14 15  1  0
 15 16  2  0
 16 17  1  0
 17 13  1  0
 17 18  2  0
 18 10  1  0
 16 19  1  0
 19 20  1  0
 20 21  2  0
 21 22  1  0
 22 23  2  0
 23 24  1  0
 24 25  2  0
 25 20  1  0
  9 26  2  0
 26  5  1  0
  1 27  1  0
 27 28  2  0
 28 29  1  0
 29 30  2  0
 30 31  1  0
 31 32  2  0
 32 27  1  0
M  END
$$$$
s_2740a____2161826____3308412
     RDKit          3D

 30 33  0  0  0  0  0  0  0  0999 V2000
   -1.3150    1.0000    2.1865 S   0  0  0  0  0  0  0  0  0  0  0  0
   -1.7950    0.1273    1.1464 O   0  0  0  0  0  0  0  0  0  0  0  0
   -1.7950    0.5357    3.4622 O   0  0  0  0  0  0  0  0  0  0  0  0
    0.3150    1.0000    2.1865 N   0  0  0  0  0  0  0  0  0  0  0  0
    1.0149    1.0000    3.3988 C   0  0  0  0  0  0  0  0  0  0  0  0
    1.3541    2.2145    3.9866 C   0  0  0  0  0  0  0  0  0  0  0  0
    2.0494    2.2144    5.1916 C   0  0  0  0  0  0  0  0  0  0  0  0
    2.3968    1.0097    5.7938 C   0  0  0  0  0  0  0  0  0  0  0  0
    3.0714    1.0099    6.9629 O   0  0  0  0  0  0  0  0  0  0  0  0
    2.0577   -0.2050    5.2061 C   0  0  0  0  0  0  0  0  0  0  0  0
    1.3626   -0.2047    4.0010 C   0  0  0  0  0  0  0  0  0  0  0  0
    1.0000    1.0000    1.0000 C   0  0  0  0  0  0  0  0  0  0  0  0
    0.4000    1.0000   -0.0392 O   0  0  0  0  0  0  0  0  0  0  0  0
    2.5200    1.0000    1.0000 C   0  0  0  0  0  0  0  0  0  0  0  0
    3.0272    1.0000   -0.4344 C   0  0  0  0  0  0  0  0  0  0  0  0
    3.1244   -0.1186   -1.3012 C   0  0  0  0  0  0  0  0  0  0  0  0
    3.6409    0.3851   -2.4718 C   0  0  0  0  0  0  0  0  0  0  0  0
    3.8396    1.7278   -2.3259 N   0  0  0  0  0  0  0  0  0  0  0  0
    3.4669    2.1180   -1.0760 C   0  0  0  0  0  0  0  0  0  0  0  0
    3.8732   -0.4745   -3.5412 C   0  0  0  0  0  0  0  0  0  0  0  0
    3.5924   -1.8336   -3.4485 C   0  0  0  0  0  0  0  0  0  0  0  0
    3.0702   -2.3514   -2.2686 C   0  0  0  0  0  0  0  0  0  0  0  0
    2.8420   -1.4832   -1.2072 C   0  0  0  0  0  0  0  0  0  0  0  0
    2.2736   -2.1048    0.0589 C   0  0  0  0  0  0  0  0  0  0  0  0
   -1.8949    2.6153    1.9016 C   0  0  0  0  0  0  0  0  0  0  0  0
   -2.1257    3.0485    0.6000 C   0  0  0  0  0  0  0  0  0  0  0  0
   -2.5896    4.3427    0.3864 C   0  0  0  0  0  0  0  0  0  0  0  0
   -2.8193    5.1947    1.4616 C   0  0  0  0  0  0  0  0  0  0  0  0
   -2.5846    4.7519    2.7591 C   0  0  0  0  0  0  0  0  0  0  0  0
   -2.1210    3.4599    2.9841 C   0  0  0  0  0  0  0  0  0  0  0  0
  1  2  2  0
  1  3  2  0
  1  4  1  0
  4  5  1  0
  5  6  2  0
  6  7  1  0
  7  8  2  0
  8  9  1  0
  8 10  1  0
 10 11  2  0
 11  5  1  0
  4 12  1  0
 12 13  2  0
 12 14  1  0
 14 15  1  0
 15 16  1  0
 16 17  2  0
 17 18  1  0
 18 19  1  0
 15 19  2  0
 17 20  1  0
 20 21  2  0
 21 22  1  0
 22 23  2  0
 23 16  1  0
 23 24  1  0
  1 25  1  0
 25 26  2  0
 26 27  1  0
 27 28  2  0
 28 29  1  0
 29 30  2  0
 30 25  1  0
M  END
$$$$
s_22____11678532____59379
     RDKit          3D

 32 35  0  0  0  0  0  0  0  0999 V2000
    0.1850   -0.4116    0.9985 S   0  0  0  0  0  0  0  0  0  0  0  0
   -1.1907   -0.1712    0.6474 O   0  0  0  0  0  0  0  0  0  0  0  0
    0.7764   -1.3063    0.0375 O   0  0  0  0  0  0  0  0  0  0  0  0
    1.0000    1.0000    1.0000 N   0  0  0  0  0  0  0  0  0  0  0  0
    2.4004    1.0000    1.0000 C   0  0  0  0  0  0  0  0  0  0  0  0
    3.0860    1.6953    0.0095 C   0  0  0  0  0  0  0  0  0  0  0  0
    4.4770    1.6887    0.0201 C   0  0  0  0  0  0  0  0  0  0  0  0
    5.1807    0.9991    1.0016 C   0  0  0  0  0  0  0  0  0  0  0  0
    4.4744    0.3107    1.9824 C   0  0  0  0  0  0  0  0  0  0  0  0
    3.0836    0.3041    1.9916 C   0  0  0  0  0  0  0  0  0  0  0  0
    5.1963    2.4134   -1.0094 C   0  0  0  0  0  0  0  0  0  0  0  0
    4.6603    2.6621   -2.0539 O   0  0  0  0  0  0  0  0  0  0  0  0
    6.4878    2.8142   -0.7897 N   0  0  0  0  0  0  0  0  0  0  0  0
    7.1825    3.5142   -1.7840 C   0  0  0  0  0  0  0  0  0  0  0  0
    7.9747    2.9447   -2.8046 C   0  0  0  0  0  0  0  0  0  0  0  0
    8.4598    3.9977   -3.5421 C   0  0  0  0  0  0  0  0  0  0  0  0
    7.9911    5.1611   -3.0062 N   0  0  0  0  0  0  0  0  0  0  0  0
    7.2092    4.8673   -1.9321 C   0  0  0  0  0  0  0  0  0  0  0  0
    6.4905    5.8730   -1.0480 C   0  0  0  0  0  0  0  0  0  0  0  0
    9.2908    3.7546   -4.6310 C   0  0  0  0  0  0  0  0  0  0  0  0
    9.6400    2.4568   -4.9900 C   0  0  0  0  0  0  0  0  0  0  0  0
    9.1497    1.3893   -4.2447 C   0  0  0  0  0  0  0  0  0  0  0  0
    8.3207    1.6439   -3.1569 C   0  0  0  0  0  0  0  0  0  0  0  0
    0.2627   -1.1277    2.5820 C   0  0  0  0  0  0  0  0  0  0  0  0
   -0.6227   -0.7109    3.5704 C   0  0  0  0  0  0  0  0  0  0  0  0
   -0.5553   -1.2866    4.8345 C   0  0  0  0  0  0  0  0  0  0  0  0
    0.3925   -2.2701    5.0965 C   0  0  0  0  0  0  0  0  0  0  0  0
    0.4519   -2.8246    6.3262 O   0  0  0  0  0  0  0  0  0  0  0  0
   -0.5255   -2.4942    7.3019 C   0  0  0  0  0  0  0  0  0  0  0  0
   -0.2320   -3.2484    8.5886 C   0  0  0  0  0  0  0  0  0  0  0  0
    1.2749   -2.6822    4.1042 C   0  0  0  0  0  0  0  0  0  0  0  0
    1.2131   -2.1104    2.8380 C   0  0  0  0  0  0  0  0  0  0  0  0
  1  2  2  0
  1  3  2  0
  1  4  1  0
  4  5  1  0
  5  6  2  0
  6  7  1  0
  7  8  2  0
  8  9  1  0
  9 10  2  0
 10  5  1  0
  7 11  1  0
 11 12  2  0
 11 13  1  0
 13 14  1  0
 14 15  1  0
 15 16  2  0
 16 17  1  0
 17 18  1  0
 14 18  2  0
 18 19  1  0
 16 20  1  0
 20 21  2  0
 21 22  1  0
 22 23  2  0
 23 15  1  0
  1 24  1  0
 24 25  2  0
 25 26  1  0
 26 27  2  0
 27 28  1  0
 28 29  1  0
 29 30  1  0
 27 31  1  0
 31 32  2  0
 32 24  1  0
M  END
$$$$
m_271722____10195452____14936398
     RDKit          3D

 34 38  0  0  0  0  0  0  0  0999 V2000
    6.0525   -1.2423    3.5491 S   0  0  0  0  0  0  0  0  0  0  0  0
    6.0753   -0.6762    4.8729 O   0  0  0  0  0  0  0  0  0  0  0  0
    5.1103   -2.3306    3.5086 O   0  0  0  0  0  0  0  0  0  0  0  0
    5.6076   -0.0983    2.4766 N   0  0  0  0  0  0  0  0  0  0  0  0
    6.2451    1.1485    2.4780 C   0  0  0  0  0  0  0  0  0  0  0  0
    5.5172    2.3343    2.4891 C   0  0  0  0  0  0  0  0  0  0  0  0
    6.1803    3.5573    2.4905 C   0  0  0  0  0  0  0  0  0  0  0  0
    7.5708    3.5945    2.4791 C   0  0  0  0  0  0  0  0  0  0  0  0
    8.2982    2.4089    2.4678 C   0  0  0  0  0  0  0  0  0  0  0  0
    7.6351    1.1859    2.4672 C   0  0  0  0  0  0  0  0  0  0  0  0
    4.0675    2.2955    2.5001 C   0  0  0  0  0  0  0  0  0  0  0  0
    3.2769    3.3431    2.5096 O   0  0  0  0  0  0  0  0  0  0  0  0
    2.0450    2.8920    2.5156 C   0  0  0  0  0  0  0  0  0  0  0  0
    2.0754    1.5792    2.5111 N   0  0  0  0  0  0  0  0  0  0  0  0
    3.3354    1.2067    2.5006 N   0  0  0  0  0  0  0  0  0  0  0  0
    0.8459    3.7074    2.5274 C   0  0  0  0  0  0  0  0  0  0  0  0
   -0.4333    3.2327    2.5355 N   0  0  0  0  0  0  0  0  0  0  0  0
   -1.2779    4.3043    2.5464 C   0  0  0  0  0  0  0  0  0  0  0  0
   -0.5374    5.4696    2.5447 C   0  0  0  0  0  0  0  0  0  0  0  0
   -1.2056    6.6917    2.5560 C   0  0  0  0  0  0  0  0  0  0  0  0
   -2.5959    6.7404    2.5667 C   0  0  0  0  0  0  0  0  0  0  0  0
   -3.3212    5.5534    2.5672 C   0  0  0  0  0  0  0  0  0  0  0  0
   -2.6680    4.3257    2.5572 C   0  0  0  0  0  0  0  0  0  0  0  0
   -4.7716    5.5644    2.5763 C   0  0  0  0  0  0  0  0  0  0  0  0
   -5.3795    4.5298    2.5753 O   0  0  0  0  0  0  0  0  0  0  0  0
   -5.4179    6.7038    2.5846 O   0  0  0  0  0  0  0  0  0  0  0  0
   -6.8379    6.7146    2.5923 C   0  0  0  0  0  0  0  0  0  0  0  0
   -0.4460    8.0091    2.5561 C   0  0  0  0  0  0  0  0  0  0  0  0
    0.8193    5.0710    2.5330 C   0  0  0  0  0  0  0  0  0  0  0  0
    7.6387   -1.8328    3.1431 C   0  0  0  0  0  0  0  0  0  0  0  0
    8.0093   -2.7870    1.7856 S   0  0  0  0  0  0  0  0  0  0  0  0
    9.6818   -2.9581    2.0681 C   0  0  0  0  0  0  0  0  0  0  0  0
    9.9186   -2.2677    3.2199 C   0  0  0  0  0  0  0  0  0  0  0  0
    8.7981   -1.6368    3.8283 C   0  0  0  0  0  0  0  0  0  0  0  0
  1  2  2  0
  1  3  2  0
  1  4  1  0
  4  5  1  0
  5  6  1  0
  6  7  2  0
  7  8  1  0
  8  9  2  0
  9 10  1  0
 10  5  2  0
  6 11  1  0
 11 12  1  0
 12 13  1  0
 13 14  2  0
 14 15  1  0
 11 15  2  0
 13 16  1  0
 16 17  1  0
 17 18  1  0
 18 19  2  0
 19 20  1  0
 20 21  2  0
 21 22  1  0
 22 23  2  0
 23 18  1  0
 22 24  1  0
 24 25  2  0
 24 26  1  0
 26 27  1  0
 20 28  1  0
 19 29  1  0
 16 29  2  0
  1 30  1  0
 30 31  1  0
 31 32  1  0
 32 33  2  0
 33 34  1  0
 30 34  2  0
M  END
$$$$
m_271722____10195450____10188152
     RDKit          3D

 35 39  0  0  0  0  0  0  0  0999 V2000
   -0.2810    3.3352    3.7573 S   0  0  0  0  0  0  0  0  0  0  0  0
   -1.5443    3.9470    3.4359 O   0  0  0  0  0  0  0  0  0  0  0  0
   -0.4718    1.9241    3.9717 O   0  0  0  0  0  0  0  0  0  0  0  0
    0.7615    3.5615    2.5249 N   0  0  0  0  0  0  0  0  0  0  0  0
    1.9850    2.8822    2.5096 C   0  0  0  0  0  0  0  0  0  0  0  0
    3.1774    3.5986    2.4996 C   0  0  0  0  0  0  0  0  0  0  0  0
    4.3889    2.9151    2.4847 C   0  0  0  0  0  0  0  0  0  0  0  0
    4.3934    1.5238    2.4792 C   0  0  0  0  0  0  0  0  0  0  0  0
    3.2017    0.8073    2.4891 C   0  0  0  0  0  0  0  0  0  0  0  0
    1.9902    1.4907    2.5042 C   0  0  0  0  0  0  0  0  0  0  0  0
    5.6622    0.8203    2.4636 C   0  0  0  0  0  0  0  0  0  0  0  0
    6.8470    1.3850    2.4539 O   0  0  0  0  0  0  0  0  0  0  0  0
    7.7317    0.4165    2.4431 C   0  0  0  0  0  0  0  0  0  0  0  0
    7.0991   -0.7343    2.4449 N   0  0  0  0  0  0  0  0  0  0  0  0
    5.8093   -0.4834    2.4585 N   0  0  0  0  0  0  0  0  0  0  0  0
    9.1719    0.5867    2.4294 C   0  0  0  0  0  0  0  0  0  0  0  0
    9.8388    1.7705    2.4255 C   0  0  0  0  0  0  0  0  0  0  0  0
   11.1713    1.4982    2.4149 N   0  0  0  0  0  0  0  0  0  0  0  0
   12.1973    2.4510    2.4075 C   0  0  0  0  0  0  0  0  0  0  0  0
   12.6846    2.9153    1.1903 C   0  0  0  0  0  0  0  0  0  0  0  0
   13.7029    3.8614    1.1658 C   0  0  0  0  0  0  0  0  0  0  0  0
   14.2234    4.3314    2.3673 C   0  0  0  0  0  0  0  0  0  0  0  0
   15.1974    5.2371    2.3563 F   0  0  0  0  0  0  0  0  0  0  0  0
   13.7377    3.8678    3.5853 C   0  0  0  0  0  0  0  0  0  0  0  0
   12.7186    2.9215    3.6083 C   0  0  0  0  0  0  0  0  0  0  0  0
   11.3445    0.1484    2.4113 C   0  0  0  0  0  0  0  0  0  0  0  0
   10.1246   -0.4553    2.4200 C   0  0  0  0  0  0  0  0  0  0  0  0
   12.6825   -0.5735    2.4007 C   0  0  0  0  0  0  0  0  0  0  0  0
    9.2084    3.1543    2.4348 C   0  0  0  0  0  0  0  0  0  0  0  0
    0.3631    4.0594    5.2021 C   0  0  0  0  0  0  0  0  0  0  0  0
    0.0690    5.3856    5.5020 C   0  0  0  0  0  0  0  0  0  0  0  0
    0.5905    5.9522    6.6608 C   0  0  0  0  0  0  0  0  0  0  0  0
    1.3977    5.2021    7.5097 C   0  0  0  0  0  0  0  0  0  0  0  0
    1.6863    3.8772    7.2001 C   0  0  0  0  0  0  0  0  0  0  0  0
    1.1700    3.3006    6.0444 C   0  0  0  0  0  0  0  0  0  0  0  0
  1  2  2  0
  1  3  2  0
  1  4  1  0
  4  5  1  0
  5  6  2  0
  6  7  1  0
  7  8  2  0
  8  9  1  0
  9 10  2  0
 10  5  1  0
  8 11  1  0
 11 12  1  0
 12 13  1  0
 13 14  2  0
 14 15  1  0
 11 15  2  0
 13 16  1  0
 16 17  2  0
 17 18  1  0
 18 19  1  0
 19 20  2  0
 20 21  1  0
 21 22  2  0
 22 23  1  0
 22 24  1  0
 24 25  2  0
 25 19  1  0
 18 26  1  0
 26 27  2  0
 27 16  1  0
 26 28  1  0
 17 29  1  0
  1 30  1  0
 30 31  2  0
 31 32  1  0
 32 33  2  0
 33 34  1  0
 34 35  2  0
 35 30  1  0
M  END
$$$$
s_22____16946154____59094
     RDKit          3D

 32 35  0  0  0  0  0  0  0  0999 V2000
   14.1913   -0.8397    1.9499 Br  0  0  0  0  0  0  0  0  0  0  0  0
   12.3805   -0.4156    2.5668 C   0  0  0  0  0  0  0  0  0  0  0  0
   11.4635    0.0498    1.6321 C   0  0  0  0  0  0  0  0  0  0  0  0
   10.1762    0.3541    2.0615 C   0  0  0  0  0  0  0  0  0  0  0  0
    9.0903    0.8167    1.3779 N   0  0  0  0  0  0  0  0  0  0  0  0
    8.0468    0.9572    2.2434 C   0  0  0  0  0  0  0  0  0  0  0  0
    6.7653    1.4111    1.9070 N   0  0  0  0  0  0  0  0  0  0  0  0
    5.6615    0.8207    2.4636 C   0  0  0  0  0  0  0  0  0  0  0  0
    5.7440   -0.2783    2.9384 O   0  0  0  0  0  0  0  0  0  0  0  0
    4.3934    1.5238    2.4792 C   0  0  0  0  0  0  0  0  0  0  0  0
    4.3889    2.9151    2.4847 C   0  0  0  0  0  0  0  0  0  0  0  0
    3.1774    3.5986    2.4996 C   0  0  0  0  0  0  0  0  0  0  0  0
    1.9850    2.8822    2.5096 C   0  0  0  0  0  0  0  0  0  0  0  0
    0.7615    3.5615    2.5249 N   0  0  0  0  0  0  0  0  0  0  0  0
   -0.3062    3.3447    1.3125 S   0  0  0  0  0  0  0  0  0  0  0  0
   -1.0810    4.5454    1.1348 O   0  0  0  0  0  0  0  0  0  0  0  0
    0.4036    3.0470    0.0954 O   0  0  0  0  0  0  0  0  0  0  0  0
   -1.3673    2.0222    1.7035 C   0  0  0  0  0  0  0  0  0  0  0  0
   -2.2471    2.0973    2.7794 C   0  0  0  0  0  0  0  0  0  0  0  0
   -3.0838    1.0251    3.0694 C   0  0  0  0  0  0  0  0  0  0  0  0
   -3.0413   -0.1220    2.2842 C   0  0  0  0  0  0  0  0  0  0  0  0
   -2.1606   -0.1921    1.2101 C   0  0  0  0  0  0  0  0  0  0  0  0
   -1.3212    0.8772    0.9152 C   0  0  0  0  0  0  0  0  0  0  0  0
   -2.1101   -1.4437    0.3480 C   0  0  0  0  0  0  0  0  0  0  0  0
   -2.3196    3.3359    3.6579 C   0  0  0  0  0  0  0  0  0  0  0  0
    1.9902    1.4907    2.5042 C   0  0  0  0  0  0  0  0  0  0  0  0
    3.2017    0.8073    2.4891 C   0  0  0  0  0  0  0  0  0  0  0  0
    8.4535    0.5856    3.4894 C   0  0  0  0  0  0  0  0  0  0  0  0
    9.8080    0.2010    3.3762 C   0  0  0  0  0  0  0  0  0  0  0  0
   10.7367   -0.2660    4.3001 C   0  0  0  0  0  0  0  0  0  0  0  0
   12.0326   -0.5782    3.9035 C   0  0  0  0  0  0  0  0  0  0  0  0
    9.0439    1.1212   -0.0603 C   0  0  0  0  0  0  0  0  0  0  0  0
  1  2  1  0
  2  3  2  0
  3  4  1  0
  4  5  1  0
  5  6  1  0
  6  7  1  0
  7  8  1  0
  8  9  2  0
  8 10  1  0
 10 11  2  0
 11 12  1  0
 12 13  2  0
 13 14  1  0
 14 15  1  0
 15 16  2  0
 15 17  2  0
 15 18  1  0
 18 19  2  0
 19 20  1  0
 20 21  2  0
 21 22  1  0
 22 23  2  0
 23 18  1  0
 22 24  1  0
 19 25  1  0
 13 26  1  0
 26 27  2  0
 27 10  1  0
  6 28  2  0
 28 29  1  0
 29  4  2  0
 29 30  1  0
 30 31  2  0
 31  2  1  0
  5 32  1  0
M  END
$$$$
s_2430a____1029012____12054266
     RDKit          3D

 31 34  0  0  0  0  0  0  0  0999 V2000
    5.4574   -4.0126    9.2194 Br  0  0  0  0  0  0  0  0  0  0  0  0
    5.4092   -3.9522    7.2611 C   0  0  0  0  0  0  0  0  0  0  0  0
    4.3625   -4.5606    6.5753 C   0  0  0  0  0  0  0  0  0  0  0  0
    4.3365   -4.5129    5.1854 C   0  0  0  0  0  0  0  0  0  0  0  0
    5.3550   -3.8596    4.4986 C   0  0  0  0  0  0  0  0  0  0  0  0
    5.3144   -3.8063    2.7595 S   0  0  0  0  0  0  0  0  0  0  0  0
    4.6538   -4.9837    2.2585 O   0  0  0  0  0  0  0  0  0  0  0  0
    6.6601   -3.7571    2.2492 O   0  0  0  0  0  0  0  0  0  0  0  0
    4.4462   -2.3902    2.2428 C   0  0  0  0  0  0  0  0  0  0  0  0
    3.4507   -1.8582    3.0556 C   0  0  0  0  0  0  0  0  0  0  0  0
    2.7597   -0.7263    2.6369 C   0  0  0  0  0  0  0  0  0  0  0  0
    3.0701   -0.1395    1.4147 C   0  0  0  0  0  0  0  0  0  0  0  0
    2.3700    1.0000    1.0000 N   0  0  0  0  0  0  0  0  0  0  0  0
    1.0000    1.0000    1.0000 C   0  0  0  0  0  0  0  0  0  0  0  0
    0.4000   -0.0392    1.0000 O   0  0  0  0  0  0  0  0  0  0  0  0
    0.3150    2.1865    1.0000 N   0  0  0  0  0  0  0  0  0  0  0  0
   -1.1550    2.1865    1.0000 C   0  0  0  0  0  0  0  0  0  0  0  0
   -1.6626    2.1865    2.4356 C   0  0  0  0  0  0  0  0  0  0  0  0
   -1.9230    3.2406    3.1723 O   0  0  0  0  0  0  0  0  0  0  0  0
   -2.3313    2.8806    4.3783 C   0  0  0  0  0  0  0  0  0  0  0  0
   -2.3948    1.5036    4.4745 C   0  0  0  0  0  0  0  0  0  0  0  0
   -2.8279    0.9425    5.6772 C   0  0  0  0  0  0  0  0  0  0  0  0
   -3.1925    1.7205    6.7752 C   0  0  0  0  0  0  0  0  0  0  0  0
   -3.1207    3.1057    6.6691 C   0  0  0  0  0  0  0  0  0  0  0  0
   -2.6909    3.6696    5.4702 C   0  0  0  0  0  0  0  0  0  0  0  0
   -3.6639    1.0852    8.0746 C   0  0  0  0  0  0  0  0  0  0  0  0
   -1.9406    1.0838    3.2009 C   0  0  0  0  0  0  0  0  0  0  0  0
    4.0662   -0.6764    0.6068 C   0  0  0  0  0  0  0  0  0  0  0  0
    4.7609   -1.8083    1.0194 C   0  0  0  0  0  0  0  0  0  0  0  0
    6.4018   -3.2514    5.1839 C   0  0  0  0  0  0  0  0  0  0  0  0
    6.4273   -3.2991    6.5734 C   0  0  0  0  0  0  0  0  0  0  0  0
  1  2  1  0
  2  3  2  0
  3  4  1  0
  4  5  2  0
  5  6  1  0
  6  7  2  0
  6  8  2  0
  6  9  1  0
  9 10  2  0
 10 11  1  0
 11 12  2  0
 12 13  1  0
 13 14  1  0
 14 15  2  0
 14 16  1  0
 16 17  1  0
 17 18  1  0
 18 19  1  0
 19 20  1  0
 20 21  2  0
 21 22  1  0
 22 23  2  0
 23 24  1  0
 24 25  2  0
 25 20  1  0
 23 26  1  0
 21 27  1  0
 18 27  2  0
 12 28  1  0
 28 29  2  0
 29  9  1  0
  5 30  1  0
 30 31  2  0
 31  2  1  0
M  END
$$$$
s_274090____12938270____16902232
     RDKit          3D

 31 35  0  0  0  0  0  0  0  0999 V2000
    0.4035    3.7617    2.5294 S   0  0  0  0  0  0  0  0  0  0  0  0
   -0.5815    2.9669    3.2162 O   0  0  0  0  0  0  0  0  0  0  0  0
    0.5645    5.0203    3.2102 O   0  0  0  0  0  0  0  0  0  0  0  0
    1.9839    2.8796    2.5102 C   0  0  0  0  0  0  0  0  0  0  0  0
    3.1759    3.5959    2.4998 C   0  0  0  0  0  0  0  0  0  0  0  0
    4.3919    2.9202    2.4850 C   0  0  0  0  0  0  0  0  0  0  0  0
    4.3969    1.5294    2.4802 C   0  0  0  0  0  0  0  0  0  0  0  0
    3.2042    0.8137    2.4901 C   0  0  0  0  0  0  0  0  0  0  0  0
    1.9884    1.4885    2.5055 C   0  0  0  0  0  0  0  0  0  0  0  0
    5.7228    0.7864    2.4629 C   0  0  0  0  0  0  0  0  0  0  0  0
    6.1656    0.5421    3.8430 N   0  0  0  0  0  0  0  0  0  0  0  0
    5.8761   -0.5129    4.5640 N   0  0  0  0  0  0  0  0  0  0  0  0
    6.3982   -0.4461    5.7120 N   0  0  0  0  0  0  0  0  0  0  0  0
    7.0847    0.7275    5.7788 C   0  0  0  0  0  0  0  0  0  0  0  0
    7.8379    1.2094    6.9199 C   0  0  0  0  0  0  0  0  0  0  0  0
    8.5204    2.3887    6.9697 N   0  0  0  0  0  0  0  0  0  0  0  0
    9.0958    2.4836    8.2046 C   0  0  0  0  0  0  0  0  0  0  0  0
    8.7780    1.3658    8.9365 C   0  0  0  0  0  0  0  0  0  0  0  0
    9.2562    1.2312   10.2357 C   0  0  0  0  0  0  0  0  0  0  0  0
   10.0528    2.2192   10.8053 C   0  0  0  0  0  0  0  0  0  0  0  0
   10.3722    3.3521   10.0640 C   0  0  0  0  0  0  0  0  0  0  0  0
    9.8893    3.4771    8.7656 C   0  0  0  0  0  0  0  0  0  0  0  0
    7.9711    0.5542    8.1071 C   0  0  0  0  0  0  0  0  0  0  0  0
    6.9449    1.3691    4.5865 C   0  0  0  0  0  0  0  0  0  0  0  0
   -0.1201    4.0491    0.8953 C   0  0  0  0  0  0  0  0  0  0  0  0
   -0.9162    3.1100    0.2486 C   0  0  0  0  0  0  0  0  0  0  0  0
   -1.3361    3.3375   -1.0580 C   0  0  0  0  0  0  0  0  0  0  0  0
   -0.9502    4.5082   -1.7021 C   0  0  0  0  0  0  0  0  0  0  0  0
   -0.1535    5.4468   -1.0547 C   0  0  0  0  0  0  0  0  0  0  0  0
    0.2660    5.2203    0.2515 C   0  0  0  0  0  0  0  0  0  0  0  0
   -1.4054    4.7610   -3.1301 C   0  0  0  0  0  0  0  0  0  0  0  0
  1  2  2  0
  1  3  2  0
  1  4  1  0
  4  5  2  0
  5  6  1  0
  6  7  2  0
  7  8  1  0
  8  9  2  0
  9  4  1  0
  7 10  1  0
 10 11  1  0
 11 12  1  0
 12 13  2  0
 13 14  1  0
 14 15  1  0
 15 16  1  0
 16 17  1  0
 17 18  2  0
 18 19  1  0
 19 20  2  0
 20 21  1  0
 21 22  2  0
 22 17  1  0
 18 23  1  0
 15 23  2  0
 14 24  2  0
 24 11  1  0
  1 25  1  0
 25 26  2  0
 26 27  1  0
 27 28  2  0
 28 29  1  0
 29 30  2  0
 30 25  1  0
 28 31  1  0
M  END
$$$$
s_232682____11680614____4549212
     RDKit          3D

 31 34  0  0  0  0  0  0  0  0999 V2000
    1.0000    1.0000    1.0000 S   0  0  0  0  0  0  0  0  0  0  0  0
    0.1686    1.8314    0.1686 O   0  0  0  0  0  0  0  0  0  0  0  0
    0.1686    0.1686    1.8314 O   0  0  0  0  0  0  0  0  0  0  0  0
    1.9411    0.0589    0.0589 N   0  0  0  0  0  0  0  0  0  0  0  0
    2.9818   -0.6840    0.6298 C   0  0  0  0  0  0  0  0  0  0  0  0
    4.3110   -0.2987    0.4851 C   0  0  0  0  0  0  0  0  0  0  0  0
    5.3222   -1.0582    1.0649 C   0  0  0  0  0  0  0  0  0  0  0  0
    5.0045   -2.2034    1.7876 C   0  0  0  0  0  0  0  0  0  0  0  0
    3.6756   -2.5885    1.9320 C   0  0  0  0  0  0  0  0  0  0  0  0
    2.6643   -1.8285    1.3529 C   0  0  0  0  0  0  0  0  0  0  0  0
    4.6423    0.8948   -0.2692 C   0  0  0  0  0  0  0  0  0  0  0  0
    3.8288    1.5162   -1.0918 N   0  0  0  0  0  0  0  0  0  0  0  0
    4.4923    2.5892   -1.6103 C   0  0  0  0  0  0  0  0  0  0  0  0
    5.7563    2.6042   -1.0719 C   0  0  0  0  0  0  0  0  0  0  0  0
    5.8440    1.5360   -0.2281 N   0  0  0  0  0  0  0  0  0  0  0  0
    6.6364    3.6138   -1.4485 C   0  0  0  0  0  0  0  0  0  0  0  0
    6.2533    4.5962   -2.3559 C   0  0  0  0  0  0  0  0  0  0  0  0
    4.9737    4.5785   -2.9012 C   0  0  0  0  0  0  0  0  0  0  0  0
    4.1013    3.5655   -2.5185 C   0  0  0  0  0  0  0  0  0  0  0  0
    4.5117    5.6317   -3.8968 C   0  0  0  0  0  0  0  0  0  0  0  0
    2.0450    2.0450    2.0450 C   0  0  0  0  0  0  0  0  0  0  0  0
    1.1673    2.9227    2.9227 C   0  0  0  0  0  0  0  0  0  0  0  0
    0.7755    2.4558    4.1731 C   0  0  0  0  0  0  0  0  0  0  0  0
   -0.0271    3.2618    4.9737 C   0  0  0  0  0  0  0  0  0  0  0  0
   -0.4368    4.5180    4.5390 C   0  0  0  0  0  0  0  0  0  0  0  0
   -0.0336    4.9660    3.2852 C   0  0  0  0  0  0  0  0  0  0  0  0
    0.7689    4.1758    2.4689 C   0  0  0  0  0  0  0  0  0  0  0  0
   -0.4630    2.7634    6.3421 C   0  0  0  0  0  0  0  0  0  0  0  0
    0.4341    3.1289    7.2535 F   0  0  0  0  0  0  0  0  0  0  0  0
   -1.6459    3.2881    6.6490 F   0  0  0  0  0  0  0  0  0  0  0  0
   -0.5584    1.4370    6.3211 F   0  0  0  0  0  0  0  0  0  0  0  0
  1  2  2  0
  1  3  2  0
  1  4  1  0
  4  5  1  0
  5  6  1  0
  6  7  2  0
  7  8  1  0
  8  9  2  0
  9 10  1  0
 10  5  2  0
  6 11  1  0
 11 12  2  0
 12 13  1  0
 13 14  2  0
 14 15  1  0
 15 11  1  0
 14 16  1  0
 16 17  2  0
 17 18  1  0
 18 19  2  0
 19 13  1  0
 18 20  1  0
  1 21  1  0
 21 22  1  0
 22 23  2  0
 23 24  1  0
 24 25  2  0
 25 26  1  0
 26 27  2  0
 27 22  1  0
 24 28  1  0
 28 29  1  0
 28 30  1  0
 28 31  1  0
M  END
$$$$
s_22____3049244____8798980
     RDKit          3D

 32 35  0  0  0  0  0  0  0  0999 V2000
   -1.8365    7.7707   -2.8175 Cl  0  0  0  0  0  0  0  0  0  0  0  0
   -1.4776    6.0856   -2.3676 C   0  0  0  0  0  0  0  0  0  0  0  0
   -0.1862    5.5655   -2.3938 C   0  0  0  0  0  0  0  0  0  0  0  0
    0.0856    4.2456   -2.0418 C   0  0  0  0  0  0  0  0  0  0  0  0
   -0.9770    3.4540   -1.6624 C   0  0  0  0  0  0  0  0  0  0  0  0
   -0.5093    2.2051   -1.3709 N   0  0  0  0  0  0  0  0  0  0  0  0
    0.8416    2.1990   -1.5588 C   0  0  0  0  0  0  0  0  0  0  0  0
    1.7140    1.0588   -1.3534 C   0  0  0  0  0  0  0  0  0  0  0  0
    2.3638    0.6285   -2.2658 O   0  0  0  0  0  0  0  0  0  0  0  0
    1.7961    0.4729   -0.1177 N   0  0  0  0  0  0  0  0  0  0  0  0
    1.0000    1.0000    1.0000 C   0  0  0  0  0  0  0  0  0  0  0  0
    1.8777    1.8777    1.8777 C   0  0  0  0  0  0  0  0  0  0  0  0
    1.9718    3.2376    1.6016 C   0  0  0  0  0  0  0  0  0  0  0  0
    2.7760    4.0359    2.4082 C   0  0  0  0  0  0  0  0  0  0  0  0
    2.8786    5.4058    2.1404 N   0  0  0  0  0  0  0  0  0  0  0  0
    2.4259    6.4927    3.2676 S   0  0  0  0  0  0  0  0  0  0  0  0
    3.0449    6.1654    4.5259 O   0  0  0  0  0  0  0  0  0  0  0  0
    2.8390    7.8098    2.8576 O   0  0  0  0  0  0  0  0  0  0  0  0
    0.6957    6.4569    3.4458 C   0  0  0  0  0  0  0  0  0  0  0  0
    0.1129    5.5988    4.3728 C   0  0  0  0  0  0  0  0  0  0  0  0
   -1.2720    5.5805    4.5053 C   0  0  0  0  0  0  0  0  0  0  0  0
   -2.0655    6.4095    3.7193 C   0  0  0  0  0  0  0  0  0  0  0  0
   -1.4728    7.2631    2.7949 C   0  0  0  0  0  0  0  0  0  0  0  0
   -0.0892    7.2899    2.6544 C   0  0  0  0  0  0  0  0  0  0  0  0
    3.4808    3.4949    3.4779 C   0  0  0  0  0  0  0  0  0  0  0  0
    3.3715    2.1327    3.7352 C   0  0  0  0  0  0  0  0  0  0  0  0
    2.5730    1.3144    2.9424 C   0  0  0  0  0  0  0  0  0  0  0  0
    2.6803   -0.6828    0.0904 C   0  0  0  0  0  0  0  0  0  0  0  0
    1.2437    3.4363   -1.9685 C   0  0  0  0  0  0  0  0  0  0  0  0
   -2.2790    3.9389   -1.6236 C   0  0  0  0  0  0  0  0  0  0  0  0
   -2.5270    5.2606   -1.9790 C   0  0  0  0  0  0  0  0  0  0  0  0
   -3.4252    3.0339   -1.2024 C   0  0  0  0  0  0  0  0  0  0  0  0
  1  2  1  0
  2  3  2  0
  3  4  1  0
  4  5  2  0
  5  6  1  0
  6  7  1  0
  7  8  1  0
  8  9  2  0
  8 10  1  0
 10 11  1  0
 11 12  1  0
 12 13  2  0
 13 14  1  0
 14 15  1  0
 15 16  1  0
 16 17  2  0
 16 18  2  0
 16 19  1  0
 19 20  2  0
 20 21  1  0
 21 22  2  0
 22 23  1  0
 23 24  2  0
 24 19  1  0
 14 25  2  0
 25 26  1  0
 26 27  2  0
 27 12  1  0
 10 28  1  0
  7 29  2  0
 29  4  1  0
  5 30  1  0
 30 31  2  0
 31  2  1  0
 30 32  1  0
M  END
$$$$
m_276096____13707002____13711292
     RDKit          3D

 31 35  0  0  0  0  0  0  0  0999 V2000
   -1.2699    0.0458    2.9670 S   0  0  0  0  0  0  0  0  0  0  0  0
    0.1076   -0.8094    2.4495 C   0  0  0  0  0  0  0  0  0  0  0  0
    0.1202   -1.9304    3.1261 N   0  0  0  0  0  0  0  0  0  0  0  0
   -0.9151   -2.1045    4.0057 C   0  0  0  0  0  0  0  0  0  0  0  0
   -1.0938   -3.2684    4.8519 C   0  0  0  0  0  0  0  0  0  0  0  0
   -0.8474   -3.3373    6.2455 C   0  0  0  0  0  0  0  0  0  0  0  0
   -1.1613   -4.6380    6.5877 C   0  0  0  0  0  0  0  0  0  0  0  0
   -1.5655   -5.2967    5.4596 N   0  0  0  0  0  0  0  0  0  0  0  0
   -1.5306   -4.4686    4.3821 C   0  0  0  0  0  0  0  0  0  0  0  0
   -1.0150   -5.0561    7.9067 C   0  0  0  0  0  0  0  0  0  0  0  0
   -0.5604   -4.1826    8.8881 C   0  0  0  0  0  0  0  0  0  0  0  0
   -0.2373   -2.8721    8.5553 C   0  0  0  0  0  0  0  0  0  0  0  0
   -0.3845   -2.4648    7.2335 C   0  0  0  0  0  0  0  0  0  0  0  0
   -0.0122   -1.0220    6.9303 C   0  0  0  0  0  0  0  0  0  0  0  0
   -1.8333   -1.1069    4.0870 C   0  0  0  0  0  0  0  0  0  0  0  0
    1.0378   -0.3831    1.4966 N   0  0  0  0  0  0  0  0  0  0  0  0
    1.0000    1.0000    1.0000 C   0  0  0  0  0  0  0  0  0  0  0  0
    1.8778    1.8778    1.8778 C   0  0  0  0  0  0  0  0  0  0  0  0
    3.2214    2.0410    1.5554 C   0  0  0  0  0  0  0  0  0  0  0  0
    4.0287    2.8439    2.3540 C   0  0  0  0  0  0  0  0  0  0  0  0
    3.4804    3.4749    3.4660 C   0  0  0  0  0  0  0  0  0  0  0  0
    2.1378    3.3115    3.7896 C   0  0  0  0  0  0  0  0  0  0  0  0
    1.3307    2.5074    2.9916 C   0  0  0  0  0  0  0  0  0  0  0  0
    4.3577    4.3544    4.3420 C   0  0  0  0  0  0  0  0  0  0  0  0
    4.3209    5.6895    3.8597 O   0  0  0  0  0  0  0  0  0  0  0  0
    5.0299    6.6532    4.4856 C   0  0  0  0  0  0  0  0  0  0  0  0
    4.9895    7.9589    4.0081 C   0  0  0  0  0  0  0  0  0  0  0  0
    5.7231    8.9480    4.6566 C   0  0  0  0  0  0  0  0  0  0  0  0
    6.4882    8.6279    5.7737 C   0  0  0  0  0  0  0  0  0  0  0  0
    6.5247    7.3197    6.2451 C   0  0  0  0  0  0  0  0  0  0  0  0
    5.7938    6.3262    5.6013 C   0  0  0  0  0  0  0  0  0  0  0  0
  1  2  1  0
  2  3  2  0
  3  4  1  0
  4  5  1  0
  5  6  1  0
  6  7  2  0
  7  8  1  0
  8  9  1  0
  5  9  2  0
  7 10  1  0
 10 11  2  0
 11 12  1  0
 12 13  2  0
 13  6  1  0
 13 14  1  0
  4 15  2  0
 15  1  1  0
  2 16  1  0
 16 17  1  0
 17 18  1  0
 18 19  2  0
 19 20  1  0
 20 21  2  0
 21 22  1  0
 22 23  2  0
 23 18  1  0
 21 24  1  0
 24 25  1  0
 25 26  1  0
 26 27  2  0
 27 28  1  0
 28 29  2  0
 29 30  1  0
 30 31  2  0
 31 26  1  0
M  END
$$$$
s_270196____8770982____8773732
     RDKit          3D

 33 37  0  0  0  0  0  0  0  0999 V2000
    0.2107    7.6505    7.0374 Cl  0  0  0  0  0  0  0  0  0  0  0  0
    0.5833    5.9537    6.6485 C   0  0  0  0  0  0  0  0  0  0  0  0
    1.3914    5.2063    7.4984 C   0  0  0  0  0  0  0  0  0  0  0  0
    1.8819    5.7674    8.5998 F   0  0  0  0  0  0  0  0  0  0  0  0
    1.6844    3.8808    7.1972 C   0  0  0  0  0  0  0  0  0  0  0  0
    1.1693    3.2989    6.0427 C   0  0  0  0  0  0  0  0  0  0  0  0
    0.3631    4.0594    5.2022 C   0  0  0  0  0  0  0  0  0  0  0  0
   -0.2810    3.3352    3.7573 S   0  0  0  0  0  0  0  0  0  0  0  0
   -1.5443    3.9470    3.4359 O   0  0  0  0  0  0  0  0  0  0  0  0
   -0.4718    1.9241    3.9717 O   0  0  0  0  0  0  0  0  0  0  0  0
    0.7615    3.5615    2.5249 N   0  0  0  0  0  0  0  0  0  0  0  0
    1.9850    2.8822    2.5096 C   0  0  0  0  0  0  0  0  0  0  0  0
    3.1774    3.5986    2.4996 C   0  0  0  0  0  0  0  0  0  0  0  0
    4.3889    2.9151    2.4847 C   0  0  0  0  0  0  0  0  0  0  0  0
    4.3934    1.5238    2.4792 C   0  0  0  0  0  0  0  0  0  0  0  0
    3.2017    0.8073    2.4891 C   0  0  0  0  0  0  0  0  0  0  0  0
    1.9902    1.4907    2.5042 C   0  0  0  0  0  0  0  0  0  0  0  0
    5.6621    0.8204    2.4636 C   0  0  0  0  0  0  0  0  0  0  0  0
    6.8482    1.3820    2.4539 O   0  0  0  0  0  0  0  0  0  0  0  0
    7.7419    0.4850    2.4422 N   0  0  0  0  0  0  0  0  0  0  0  0
    7.1590   -0.6873    2.4417 C   0  0  0  0  0  0  0  0  0  0  0  0
    5.8127   -0.4819    2.4562 N   0  0  0  0  0  0  0  0  0  0  0  0
    7.8599   -2.0348    2.4274 C   0  0  0  0  0  0  0  0  0  0  0  0
    8.1080   -2.4919    3.8551 C   0  0  0  0  0  0  0  0  0  0  0  0
    7.1511   -3.0957    4.7043 C   0  0  0  0  0  0  0  0  0  0  0  0
    7.8124   -3.3367    5.8845 C   0  0  0  0  0  0  0  0  0  0  0  0
    7.1516   -3.9125    6.9046 N   0  0  0  0  0  0  0  0  0  0  0  0
    5.8612   -4.2713    6.8249 C   0  0  0  0  0  0  0  0  0  0  0  0
    5.1498   -4.0490    5.6518 C   0  0  0  0  0  0  0  0  0  0  0  0
    5.8123   -3.4530    4.5845 C   0  0  0  0  0  0  0  0  0  0  0  0
    9.1049   -2.9041    5.7647 N   0  0  0  0  0  0  0  0  0  0  0  0
    9.2936   -2.3835    4.5192 C   0  0  0  0  0  0  0  0  0  0  0  0
    0.0620    5.3857    5.4910 C   0  0  0  0  0  0  0  0  0  0  0  0
  1  2  1  0
  2  3  2  0
  3  4  1  0
  3  5  1  0
  5  6  2  0
  6  7  1  0
  7  8  1  0
  8  9  2  0
  8 10  2  0
  8 11  1  0
 11 12  1  0
 12 13  2  0
 13 14  1  0
 14 15  2  0
 15 16  1  0
 16 17  2  0
 17 12  1  0
 15 18  1  0
 18 19  1  0
 19 20  1  0
 20 21  2  0
 21 22  1  0
 18 22  2  0
 21 23  1  0
 23 24  1  0
 24 25  1  0
 25 26  1  0
 26 27  2  0
 27 28  1  0
 28 29  2  0
 29 30  1  0
 30 25  2  0
 26 31  1  0
 31 32  1  0
 24 32  2  0
  7 33  2  0
 33  2  1  0
M  END
$$$$
m_275592____14114784____15840316____15856734
     RDKit          3D

 33 36  0  0  0  0  0  0  0  0999 V2000
   -0.4962    0.3768    6.3176 F   0  0  0  0  0  0  0  0  0  0  0  0
   -1.1168    1.5001    6.6737 C   0  0  0  0  0  0  0  0  0  0  0  0
   -1.0163    2.6565    5.8967 C   0  0  0  0  0  0  0  0  0  0  0  0
   -1.6854    3.7837    6.3250 C   0  0  0  0  0  0  0  0  0  0  0  0
   -1.4693    4.8057    5.4485 N   0  0  0  0  0  0  0  0  0  0  0  0
   -0.6589    4.3566    4.4457 C   0  0  0  0  0  0  0  0  0  0  0  0
   -0.3718    3.0484    4.7008 C   0  0  0  0  0  0  0  0  0  0  0  0
    0.4652    2.2114    3.8639 C   0  0  0  0  0  0  0  0  0  0  0  0
    0.6642    1.0677    4.1675 O   0  0  0  0  0  0  0  0  0  0  0  0
    1.0289    2.7263    2.7263 N   0  0  0  0  0  0  0  0  0  0  0  0
    1.8776    1.8776    1.8776 C   0  0  0  0  0  0  0  0  0  0  0  0
    1.0000    1.0000    1.0000 C   0  0  0  0  0  0  0  0  0  0  0  0
    1.8487    0.1513    0.1513 N   0  0  0  0  0  0  0  0  0  0  0  0
    1.7598   -1.2129    0.2402 C   0  0  0  0  0  0  0  0  0  0  0  0
    0.9891   -1.7150    1.0109 O   0  0  0  0  0  0  0  0  0  0  0  0
    2.6374   -2.0905   -0.6374 C   0  0  0  0  0  0  0  0  0  0  0  0
    2.4384   -2.1467   -1.8194 O   0  0  0  0  0  0  0  0  0  0  0  0
    3.7151   -2.8598   -0.0462 C   0  0  0  0  0  0  0  0  0  0  0  0
    4.5089   -3.6579   -0.8633 C   0  0  0  0  0  0  0  0  0  0  0  0
    5.5472   -4.4020   -0.3120 C   0  0  0  0  0  0  0  0  0  0  0  0
    5.7755   -4.3364    1.0581 C   0  0  0  0  0  0  0  0  0  0  0  0
    6.7647   -5.0426    1.5976 F   0  0  0  0  0  0  0  0  0  0  0  0
    4.9818   -3.5389    1.8752 C   0  0  0  0  0  0  0  0  0  0  0  0
    3.9438   -2.7948    1.3247 C   0  0  0  0  0  0  0  0  0  0  0  0
    0.1223    1.8777    0.1223 C   0  0  0  0  0  0  0  0  0  0  0  0
    0.6961    2.6130   -0.9098 C   0  0  0  0  0  0  0  0  0  0  0  0
   -0.1106    3.4156   -1.7100 C   0  0  0  0  0  0  0  0  0  0  0  0
   -1.4803    3.4775   -1.4763 C   0  0  0  0  0  0  0  0  0  0  0  0
   -2.0426    2.7383   -0.4428 C   0  0  0  0  0  0  0  0  0  0  0  0
   -1.2466    1.9325    0.3648 C   0  0  0  0  0  0  0  0  0  0  0  0
   -2.4354    3.7700    7.4970 C   0  0  0  0  0  0  0  0  0  0  0  0
   -2.5296    2.6137    8.2648 C   0  0  0  0  0  0  0  0  0  0  0  0
   -1.8631    1.4666    7.8476 C   0  0  0  0  0  0  0  0  0  0  0  0
  1  2  1  0
  2  3  2  0
  3  4  1  0
  4  5  1  0
  5  6  1  0
  6  7  2  0
  7  3  1  0
  7  8  1  0
  8  9  2  0
  8 10  1  0
 10 11  1  0
 11 12  1  0
 12 13  1  0
 13 14  1  0
 14 15  2  0
 14 16  1  0
 16 17  2  0
 16 18  1  0
 18 19  2  0
 19 20  1  0
 20 21  2  0
 21 22  1  0
 21 23  1  0
 23 24  2  0
 24 18  1  0
 12 25  1  0
 25 26  2  0
 26 27  1  0
 27 28  2  0
 28 29  1  0
 29 30  2  0
 30 25  1  0
  4 31  2  0
 31 32  1  0
 32 33  2  0
 33  2  1  0
M  END
$$$$
EN300-97624
     RDKit          3D

 22 24  0  0  0  0  0  0  0  0999 V2000
    0.2728    3.8349    2.5310 Br  0  0  0  0  0  0  0  0  0  0  0  0
    1.9821    2.8757    2.5101 C   0  0  0  0  0  0  0  0  0  0  0  0
    3.1788    3.5859    2.5020 C   0  0  0  0  0  0  0  0  0  0  0  0
    3.1526    4.9354    2.5095 O   0  0  0  0  0  0  0  0  0  0  0  0
    4.3682    5.6692    2.5014 C   0  0  0  0  0  0  0  0  0  0  0  0
    4.3963    2.9144    2.4866 C   0  0  0  0  0  0  0  0  0  0  0  0
    4.3934    1.5238    2.4793 C   0  0  0  0  0  0  0  0  0  0  0  0
    5.9146    0.6791    2.4604 S   0  0  0  0  0  0  0  0  0  0  0  0
    5.7570   -0.5782    1.7764 O   0  0  0  0  0  0  0  0  0  0  0  0
    6.8985    1.4776    1.7764 O   0  0  0  0  0  0  0  0  0  0  0  0
    6.4042    0.4073    3.9912 N   0  0  0  0  0  0  0  0  0  0  0  0
    5.7203   -0.5172    4.7917 C   0  0  0  0  0  0  0  0  0  0  0  0
    5.1215   -0.1223    5.9840 C   0  0  0  0  0  0  0  0  0  0  0  0
    4.4456   -1.0497    6.7715 C   0  0  0  0  0  0  0  0  0  0  0  0
    3.7920   -0.8966    7.9572 N   0  0  0  0  0  0  0  0  0  0  0  0
    3.2960   -2.0642    8.3306 N   0  0  0  0  0  0  0  0  0  0  0  0
    3.5910   -2.9857    7.4418 C   0  0  0  0  0  0  0  0  0  0  0  0
    4.3401   -2.3711    6.4106 C   0  0  0  0  0  0  0  0  0  0  0  0
    4.9420   -2.7622    5.2180 C   0  0  0  0  0  0  0  0  0  0  0  0
    5.6236   -1.8529    4.4137 C   0  0  0  0  0  0  0  0  0  0  0  0
    3.1998    0.8088    2.4869 C   0  0  0  0  0  0  0  0  0  0  0  0
    1.9842    1.4849    2.5023 C   0  0  0  0  0  0  0  0  0  0  0  0
  1  2  1  0
  2  3  2  0
  3  4  1  0
  4  5  1  0
  3  6  1  0
  6  7  2  0
  7  8  1  0
  8  9  2  0
  8 10  2  0
  8 11  1  0
 11 12  1  0
 12 13  2  0
 13 14  1  0
 14 15  1  0
 15 16  1  0
 16 17  2  0
 17 18  1  0
 18 14  2  0
 18 19  1  0
 19 20  2  0
 20 12  1  0
  7 21  1  0
 21 22  2  0
 22  2  1  0
M  END
$$$$
s_6____1308954____71241
     RDKit          3D

 35 38  0  0  0  0  0  0  0  0999 V2000
   -0.0135    3.7233    1.1859 S   0  0  0  0  0  0  0  0  0  0  0  0
    0.7831    4.4526    0.2335 O   0  0  0  0  0  0  0  0  0  0  0  0
   -0.3471    2.4317    0.6436 O   0  0  0  0  0  0  0  0  0  0  0  0
    0.8052    3.5371    2.5243 O   0  0  0  0  0  0  0  0  0  0  0  0
    1.9815    2.8761    2.5093 C   0  0  0  0  0  0  0  0  0  0  0  0
    3.1771    3.5857    2.5018 C   0  0  0  0  0  0  0  0  0  0  0  0
    3.1526    4.9354    2.5095 O   0  0  0  0  0  0  0  0  0  0  0  0
    4.3692    5.6677    2.5019 C   0  0  0  0  0  0  0  0  0  0  0  0
    4.3943    2.9118    2.4874 C   0  0  0  0  0  0  0  0  0  0  0  0
    4.3925    1.5210    2.4801 C   0  0  0  0  0  0  0  0  0  0  0  0
    3.2037    0.7990    2.4875 C   0  0  0  0  0  0  0  0  0  0  0  0
    1.9930    1.4848    2.5026 C   0  0  0  0  0  0  0  0  0  0  0  0
    5.6615    0.8207    2.4636 C   0  0  0  0  0  0  0  0  0  0  0  0
    5.6865   -0.4791    2.4566 C   0  0  0  0  0  0  0  0  0  0  0  0
    5.4791   -1.1717    1.2694 C   0  0  0  0  0  0  0  0  0  0  0  0
    5.3089   -1.7398    0.2958 N   0  0  0  0  0  0  0  0  0  0  0  0
    5.9427   -1.2413    3.7464 C   0  0  0  0  0  0  0  0  0  0  0  0
    5.0244   -1.7187    4.3537 O   0  0  0  0  0  0  0  0  0  0  0  0
    7.2965   -1.3916    4.2430 C   0  0  0  0  0  0  0  0  0  0  0  0
    7.6643   -2.0750    5.4251 C   0  0  0  0  0  0  0  0  0  0  0  0
    9.0368   -1.9543    5.4788 C   0  0  0  0  0  0  0  0  0  0  0  0
    9.4841   -1.2421    4.4033 N   0  0  0  0  0  0  0  0  0  0  0  0
    8.4112   -0.8925    3.6367 C   0  0  0  0  0  0  0  0  0  0  0  0
    9.7469   -2.5224    6.5312 C   0  0  0  0  0  0  0  0  0  0  0  0
    9.0922   -3.2180    7.5425 C   0  0  0  0  0  0  0  0  0  0  0  0
    7.7074   -3.3434    7.4956 C   0  0  0  0  0  0  0  0  0  0  0  0
    7.0094   -2.7704    6.4367 C   0  0  0  0  0  0  0  0  0  0  0  0
    9.8839   -3.8342    8.6842 C   0  0  0  0  0  0  0  0  0  0  0  0
   -1.4744    4.6078    1.5179 C   0  0  0  0  0  0  0  0  0  0  0  0
   -1.4756    5.9962    1.4396 C   0  0  0  0  0  0  0  0  0  0  0  0
   -2.6425    6.7057    1.7047 C   0  0  0  0  0  0  0  0  0  0  0  0
   -3.7977    6.0110    2.0470 C   0  0  0  0  0  0  0  0  0  0  0  0
   -3.7956    4.6222    2.1256 C   0  0  0  0  0  0  0  0  0  0  0  0
   -2.6297    3.9124    1.8601 C   0  0  0  0  0  0  0  0  0  0  0  0
   -5.0748    6.7814    2.3387 C   0  0  0  0  0  0  0  0  0  0  0  0
  1  2  2  0
  1  3  2  0
  1  4  1  0
  4  5  1  0
  5  6  2  0
  6  7  1  0
  7  8  1  0
  6  9  1  0
  9 10  2  0
 10 11  1  0
 11 12  2  0
 12  5  1  0
 10 13  1  0
 13 14  2  0
 14 15  1  0
 15 16  3  0
 14 17  1  0
 17 18  2  0
 17 19  1  0
 19 20  1  0
 20 21  2  0
 21 22  1  0
 22 23  1  0
 19 23  2  0
 21 24  1  0
 24 25  2  0
 25 26  1  0
 26 27  2  0
 27 20  1  0
 25 28  1  0
  1 29  1  0
 29 30  2  0
 30 31  1  0
 31 32  2  0
 32 33  1  0
 33 34  2  0
 34 29  1  0
 32 35  1  0
M  END
$$$$
s_60____14805780____10747216
     RDKit          3D

 28 32  0  0  0  0  0  0  0  0999 V2000
    2.9100    2.0392    1.0000 O   0  0  0  0  0  0  0  0  0  0  0  0
    2.3100    1.0000    1.0000 C   0  0  0  0  0  0  0  0  0  0  0  0
    1.0000    1.0000    1.0000 O   0  0  0  0  0  0  0  0  0  0  0  0
    0.2900    2.2298    1.0000 C   0  0  0  0  0  0  0  0  0  0  0  0
   -1.2047    1.9520    1.0000 C   0  0  0  0  0  0  0  0  0  0  0  0
   -1.8822    1.8260    2.2084 C   0  0  0  0  0  0  0  0  0  0  0  0
   -3.2497    1.5710    2.2038 C   0  0  0  0  0  0  0  0  0  0  0  0
   -3.9297    1.4451    0.9971 C   0  0  0  0  0  0  0  0  0  0  0  0
   -3.2428    1.5733   -0.2039 C   0  0  0  0  0  0  0  0  0  0  0  0
   -1.8752    1.8277   -0.2127 C   0  0  0  0  0  0  0  0  0  0  0  0
    3.0349   -0.2556    1.0000 C   0  0  0  0  0  0  0  0  0  0  0  0
    4.3939   -0.3837    1.0000 N   0  0  0  0  0  0  0  0  0  0  0  0
    4.7088   -1.7097    0.9986 C   0  0  0  0  0  0  0  0  0  0  0  0
    3.5408   -2.4143    0.9994 C   0  0  0  0  0  0  0  0  0  0  0  0
    3.4194   -3.8597    0.9917 C   0  0  0  0  0  0  0  0  0  0  0  0
    2.2859   -4.5247    0.9928 N   0  0  0  0  0  0  0  0  0  0  0  0
    2.5846   -5.8563    0.9852 C   0  0  0  0  0  0  0  0  0  0  0  0
    3.9506   -6.0017    0.9702 C   0  0  0  0  0  0  0  0  0  0  0  0
    4.4641   -4.7360    0.9824 N   0  0  0  0  0  0  0  0  0  0  0  0
    4.4245   -7.3112    0.9615 C   0  0  0  0  0  0  0  0  0  0  0  0
    3.5953   -8.3678    0.9639 N   0  0  0  0  0  0  0  0  0  0  0  0
    2.2593   -8.2253    0.9750 C   0  0  0  0  0  0  0  0  0  0  0  0
    1.7196   -6.9443    0.9866 C   0  0  0  0  0  0  0  0  0  0  0  0
    0.3424   -6.7527    1.0011 C   0  0  0  0  0  0  0  0  0  0  0  0
   -0.5120   -7.8495    1.0032 C   0  0  0  0  0  0  0  0  0  0  0  0
    0.0115   -9.1371    0.9906 C   0  0  0  0  0  0  0  0  0  0  0  0
    1.3915   -9.3133    0.9757 C   0  0  0  0  0  0  0  0  0  0  0  0
    2.4678   -1.4942    0.9998 C   0  0  0  0  0  0  0  0  0  0  0  0
  1  2  2  0
  2  3  1  0
  3  4  1  0
  4  5  1  0
  5  6  2  0
  6  7  1  0
  7  8  2  0
  8  9  1  0
  9 10  2  0
 10  5  1  0
  2 11  1  0
 11 12  1  0
 12 13  1  0
 13 14  2  0
 14 15  1  0
 15 16  2  0
 16 17  1  0
 17 18  2  0
 18 19  1  0
 19 15  1  0
 18 20  1  0
 20 21  2  0
 21 22  1  0
 22 23  2  0
 23 17  1  0
 23 24  1  0
 24 25  2  0
 25 26  1  0
 26 27  2  0
 27 22  1  0
 14 28  1  0
 11 28  2  0
M  END
$$$$
s_27c____3049248____12433864
     RDKit          3D

 31 34  0  0  0  0  0  0  0  0999 V2000
    2.7732   -3.4423    2.7930 Cl  0  0  0  0  0  0  0  0  0  0  0  0
    3.2389   -2.5222    1.3393 C   0  0  0  0  0  0  0  0  0  0  0  0
    2.4585   -1.4565    1.1203 N   0  0  0  0  0  0  0  0  0  0  0  0
    2.6384   -0.6280    0.0806 C   0  0  0  0  0  0  0  0  0  0  0  0
    1.7961    0.4729   -0.1177 N   0  0  0  0  0  0  0  0  0  0  0  0
    1.0000    1.0000    1.0000 C   0  0  0  0  0  0  0  0  0  0  0  0
    1.8777    1.8777    1.8777 C   0  0  0  0  0  0  0  0  0  0  0  0
    1.9718    3.2376    1.6016 C   0  0  0  0  0  0  0  0  0  0  0  0
    2.7760    4.0359    2.4082 C   0  0  0  0  0  0  0  0  0  0  0  0
    2.8786    5.4058    2.1404 N   0  0  0  0  0  0  0  0  0  0  0  0
    2.4259    6.4927    3.2676 S   0  0  0  0  0  0  0  0  0  0  0  0
    3.0449    6.1654    4.5259 O   0  0  0  0  0  0  0  0  0  0  0  0
    2.8390    7.8098    2.8576 O   0  0  0  0  0  0  0  0  0  0  0  0
    0.6957    6.4569    3.4458 C   0  0  0  0  0  0  0  0  0  0  0  0
    0.1129    5.5988    4.3728 C   0  0  0  0  0  0  0  0  0  0  0  0
   -1.2720    5.5805    4.5053 C   0  0  0  0  0  0  0  0  0  0  0  0
   -2.0655    6.4095    3.7193 C   0  0  0  0  0  0  0  0  0  0  0  0
   -1.4728    7.2631    2.7949 C   0  0  0  0  0  0  0  0  0  0  0  0
   -0.0892    7.2899    2.6544 C   0  0  0  0  0  0  0  0  0  0  0  0
    3.4808    3.4949    3.4779 C   0  0  0  0  0  0  0  0  0  0  0  0
    3.3715    2.1327    3.7352 C   0  0  0  0  0  0  0  0  0  0  0  0
    2.5730    1.3144    2.9424 C   0  0  0  0  0  0  0  0  0  0  0  0
    1.7080    1.1016   -1.4436 C   0  0  0  0  0  0  0  0  0  0  0  0
    3.6742   -0.8621   -0.8179 C   0  0  0  0  0  0  0  0  0  0  0  0
    4.5058   -1.9590   -0.6180 C   0  0  0  0  0  0  0  0  0  0  0  0
    4.3030   -2.8129    0.4666 C   0  0  0  0  0  0  0  0  0  0  0  0
    5.1853   -3.8968    0.5970 C   0  0  0  0  0  0  0  0  0  0  0  0
    6.2185   -4.1234   -0.3075 C   0  0  0  0  0  0  0  0  0  0  0  0
    6.3889   -3.2504   -1.3773 C   0  0  0  0  0  0  0  0  0  0  0  0
    5.5322   -2.1661   -1.5340 C   0  0  0  0  0  0  0  0  0  0  0  0
    5.1411   -4.9385    1.7071 C   0  0  0  0  0  0  0  0  0  0  0  0
  1  2  1  0
  2  3  2  0
  3  4  1  0
  4  5  1  0
  5  6  1  0
  6  7  1  0
  7  8  2  0
  8  9  1  0
  9 10  1  0
 10 11  1  0
 11 12  2  0
 11 13  2  0
 11 14  1  0
 14 15  2  0
 15 16  1  0
 16 17  2  0
 17 18  1  0
 18 19  2  0
 19 14  1  0
  9 20  2  0
 20 21  1  0
 21 22  2  0
 22  7  1  0
  5 23  1  0
  4 24  2  0
 24 25  1  0
 25 26  2  0
 26  2  1  0
 26 27  1  0
 27 28  2  0
 28 29  1  0
 29 30  2  0
 30 25  1  0
 27 31  1  0
M  END
$$$$
s_240690b____7357692____14038776
     RDKit          3D

 34 37  0  0  0  0  0  0  0  0999 V2000
    7.3802    1.6398    2.2587 S   0  0  0  0  0  0  0  0  0  0  0  0
    8.7780    1.7328    1.9255 O   0  0  0  0  0  0  0  0  0  0  0  0
    6.8647    2.9551    2.5379 O   0  0  0  0  0  0  0  0  0  0  0  0
    6.5648    0.9914    1.0051 N   0  0  0  0  0  0  0  0  0  0  0  0
    5.1649    0.9918    1.0053 C   0  0  0  0  0  0  0  0  0  0  0  0
    4.4697    0.0343    1.7363 C   0  0  0  0  0  0  0  0  0  0  0  0
    3.0785    0.0344    1.7366 C   0  0  0  0  0  0  0  0  0  0  0  0
    2.3998    1.0000    1.0000 C   0  0  0  0  0  0  0  0  0  0  0  0
    1.0000    1.0000    1.0000 N   0  0  0  0  0  0  0  0  0  0  0  0
    0.3150    2.1852    1.0551 C   0  0  0  0  0  0  0  0  0  0  0  0
    0.7944    3.1296    1.6192 O   0  0  0  0  0  0  0  0  0  0  0  0
   -1.0523    2.3038    0.4017 C   0  0  0  0  0  0  0  0  0  0  0  0
   -1.2600    1.1692   -0.5095 N   0  0  0  0  0  0  0  0  0  0  0  0
   -2.5823    1.2839   -1.1413 C   0  0  0  0  0  0  0  0  0  0  0  0
   -2.1289    2.2958    1.4746 C   0  0  0  0  0  0  0  0  0  0  0  0
   -2.4075    3.7211    1.9236 C   0  0  0  0  0  0  0  0  0  0  0  0
   -1.9752    4.2874    3.1458 C   0  0  0  0  0  0  0  0  0  0  0  0
   -2.4556    5.5791    3.1109 C   0  0  0  0  0  0  0  0  0  0  0  0
   -3.1427    5.7831    1.9435 N   0  0  0  0  0  0  0  0  0  0  0  0
   -3.1160    4.6368    1.2059 C   0  0  0  0  0  0  0  0  0  0  0  0
   -2.2119    6.4469    4.1706 C   0  0  0  0  0  0  0  0  0  0  0  0
   -1.4820    6.0321    5.2799 C   0  0  0  0  0  0  0  0  0  0  0  0
   -0.9924    4.7308    5.3233 C   0  0  0  0  0  0  0  0  0  0  0  0
   -1.2446    3.8747    4.2560 C   0  0  0  0  0  0  0  0  0  0  0  0
    3.0952    1.9577    0.2691 C   0  0  0  0  0  0  0  0  0  0  0  0
    4.4865    1.9575    0.2685 C   0  0  0  0  0  0  0  0  0  0  0  0
    7.1845    0.6303    3.6622 C   0  0  0  0  0  0  0  0  0  0  0  0
    8.0965   -0.3946    3.8931 C   0  0  0  0  0  0  0  0  0  0  0  0
    7.9331   -1.1975    5.0168 C   0  0  0  0  0  0  0  0  0  0  0  0
    8.7965   -2.1819    5.2527 F   0  0  0  0  0  0  0  0  0  0  0  0
    6.8748   -0.9762    5.8913 C   0  0  0  0  0  0  0  0  0  0  0  0
    6.7341   -1.7532    6.9614 F   0  0  0  0  0  0  0  0  0  0  0  0
    5.9645    0.0490    5.6566 C   0  0  0  0  0  0  0  0  0  0  0  0
    6.1244    0.8547    4.5341 C   0  0  0  0  0  0  0  0  0  0  0  0
  1  2  2  0
  1  3  2  0
  1  4  1  0
  4  5  1  0
  5  6  2  0
  6  7  1  0
  7  8  2  0
  8  9  1  0
  9 10  1  0
 10 11  2  0
 10 12  1  0
 12 13  1  0
 13 14  1  0
 12 15  1  0
 15 16  1  0
 16 17  1  0
 17 18  2  0
 18 19  1  0
 19 20  1  0
 16 20  2  0
 18 21  1  0
 21 22  2  0
 22 23  1  0
 23 24  2  0
 24 17  1  0
  8 25  1  0
 25 26  2  0
 26  5  1  0
  1 27  1  0
 27 28  2  0
 28 29  1  0
 29 30  1  0
 29 31  2  0
 31 32  1  0
 31 33  1  0
 33 34  2  0
 34 27  1  0
M  CHG  1  13   1
M  END
$$$$
s_11a____52494____954394
     RDKit          3D

 33 37  0  0  0  0  0  0  0  0999 V2000
    3.3831    3.5589    2.4991 S   0  0  0  0  0  0  0  0  0  0  0  0
    4.2670    2.1059    2.4948 C   0  0  0  0  0  0  0  0  0  0  0  0
    5.6624    1.9886    2.4971 N   0  0  0  0  0  0  0  0  0  0  0  0
    6.2457    0.7490    2.4930 C   0  0  0  0  0  0  0  0  0  0  0  0
    5.6182   -0.2081    2.1322 O   0  0  0  0  0  0  0  0  0  0  0  0
    7.6208    0.5935    2.9245 C   0  0  0  0  0  0  0  0  0  0  0  0
    8.1936   -0.6739    2.9125 C   0  0  0  0  0  0  0  0  0  0  0  0
    9.5129   -0.8181    3.3275 C   0  0  0  0  0  0  0  0  0  0  0  0
   10.0786   -2.0218    3.3218 F   0  0  0  0  0  0  0  0  0  0  0  0
   10.2517    0.2821    3.7497 C   0  0  0  0  0  0  0  0  0  0  0  0
    9.6674    1.5446    3.7574 C   0  0  0  0  0  0  0  0  0  0  0  0
    8.3491    1.7024    3.3442 C   0  0  0  0  0  0  0  0  0  0  0  0
    3.3653    1.0868    2.4927 C   0  0  0  0  0  0  0  0  0  0  0  0
    2.0179    1.5312    2.4897 C   0  0  0  0  0  0  0  0  0  0  0  0
    1.8232    2.8844    2.4936 C   0  0  0  0  0  0  0  0  0  0  0  0
    0.5644    3.6017    2.4880 C   0  0  0  0  0  0  0  0  0  0  0  0
    0.4907    4.6802    1.9671 O   0  0  0  0  0  0  0  0  0  0  0  0
   -0.5418    3.0486    3.0773 N   0  0  0  0  0  0  0  0  0  0  0  0
   -1.5708    3.8722    3.5441 C   0  0  0  0  0  0  0  0  0  0  0  0
   -2.9274    4.3916    2.6572 S   0  0  0  0  0  0  0  0  0  0  0  0
   -3.6517    5.3169    3.8900 C   0  0  0  0  0  0  0  0  0  0  0  0
   -2.7960    5.1787    4.9357 C   0  0  0  0  0  0  0  0  0  0  0  0
   -1.6845    4.4040    4.7353 N   0  0  0  0  0  0  0  0  0  0  0  0
   -3.1164    5.8592    6.1754 C   0  0  0  0  0  0  0  0  0  0  0  0
   -4.4218    6.1407    6.6410 C   0  0  0  0  0  0  0  0  0  0  0  0
   -4.2400    6.7946    7.8398 C   0  0  0  0  0  0  0  0  0  0  0  0
   -2.8975    6.8949    8.0898 N   0  0  0  0  0  0  0  0  0  0  0  0
   -2.1991    6.3236    7.0694 C   0  0  0  0  0  0  0  0  0  0  0  0
   -5.3379    7.2274    8.5751 C   0  0  0  0  0  0  0  0  0  0  0  0
   -6.6334    7.0138    8.1166 C   0  0  0  0  0  0  0  0  0  0  0  0
   -6.8272    6.3574    6.9054 C   0  0  0  0  0  0  0  0  0  0  0  0
   -5.7193    5.9291    6.1824 C   0  0  0  0  0  0  0  0  0  0  0  0
    0.8383    0.5810    2.4818 C   0  0  0  0  0  0  0  0  0  0  0  0
  1  2  1  0
  2  3  1  0
  3  4  1  0
  4  5  2  0
  4  6  1  0
  6  7  2  0
  7  8  1  0
  8  9  1  0
  8 10  2  0
 10 11  1  0
 11 12  2  0
 12  6  1  0
  2 13  2  0
 13 14  1  0
 14 15  2  0
 15  1  1  0
 15 16  1  0
 16 17  2  0
 16 18  1  0
 18 19  1  0
 19 20  1  0
 20 21  1  0
 21 22  2  0
 22 23  1  0
 19 23  2  0
 22 24  1  0
 24 25  1  0
 25 26  2  0
 26 27  1  0
 27 28  1  0
 24 28  2  0
 26 29  1  0
 29 30  2  0
 30 31  1  0
 31 32  2  0
 32 25  1  0
 14 33  1  0
M  END
$$$$
s_270196____8770754____8773206
     RDKit          3D

 32 36  0  0  0  0  0  0  0  0999 V2000
   -0.2812    3.3391    3.7578 S   0  0  0  0  0  0  0  0  0  0  0  0
   -1.5431    3.9538    3.4361 O   0  0  0  0  0  0  0  0  0  0  0  0
   -0.4756    1.9287    3.9736 O   0  0  0  0  0  0  0  0  0  0  0  0
    0.7615    3.5615    2.5249 N   0  0  0  0  0  0  0  0  0  0  0  0
    1.9840    2.8787    2.5100 C   0  0  0  0  0  0  0  0  0  0  0  0
    3.1767    3.5941    2.4993 C   0  0  0  0  0  0  0  0  0  0  0  0
    4.3927    2.9183    2.4838 C   0  0  0  0  0  0  0  0  0  0  0  0
    4.3954    1.5271    2.4800 C   0  0  0  0  0  0  0  0  0  0  0  0
    3.2040    0.8092    2.4905 C   0  0  0  0  0  0  0  0  0  0  0  0
    1.9898    1.4877    2.5058 C   0  0  0  0  0  0  0  0  0  0  0  0
    5.7226    0.7865    2.4629 C   0  0  0  0  0  0  0  0  0  0  0  0
    6.1814    0.5358    3.8900 C   0  0  0  0  0  0  0  0  0  0  0  0
    5.8965   -0.5161    4.6137 O   0  0  0  0  0  0  0  0  0  0  0  0
    6.4359   -0.4138    5.7544 N   0  0  0  0  0  0  0  0  0  0  0  0
    7.0885    0.7219    5.8017 C   0  0  0  0  0  0  0  0  0  0  0  0
    6.9311    1.3415    4.6019 N   0  0  0  0  0  0  0  0  0  0  0  0
    7.8463    1.2257    6.9326 C   0  0  0  0  0  0  0  0  0  0  0  0
    8.5004    2.3583    6.9790 N   0  0  0  0  0  0  0  0  0  0  0  0
    9.0821    2.5142    8.1492 N   0  0  0  0  0  0  0  0  0  0  0  0
    8.8005    1.4278    8.9286 C   0  0  0  0  0  0  0  0  0  0  0  0
    8.0112    0.5905    8.1820 C   0  0  0  0  0  0  0  0  0  0  0  0
    7.5709   -0.6045    8.7421 C   0  0  0  0  0  0  0  0  0  0  0  0
    7.9181   -0.9592   10.0417 C   0  0  0  0  0  0  0  0  0  0  0  0
    8.7181   -0.1058   10.7949 C   0  0  0  0  0  0  0  0  0  0  0  0
    9.1554    1.0878   10.2299 C   0  0  0  0  0  0  0  0  0  0  0  0
    0.3650    4.0630    5.2016 C   0  0  0  0  0  0  0  0  0  0  0  0
    0.0722    5.3903    5.4968 C   0  0  0  0  0  0  0  0  0  0  0  0
    0.5923    5.9636    6.6522 C   0  0  0  0  0  0  0  0  0  0  0  0
    1.3963    5.2068    7.4979 C   0  0  0  0  0  0  0  0  0  0  0  0
    1.8901    5.7620    8.6013 F   0  0  0  0  0  0  0  0  0  0  0  0
    1.6854    3.8806    7.1969 C   0  0  0  0  0  0  0  0  0  0  0  0
    1.1688    3.3011    6.0431 C   0  0  0  0  0  0  0  0  0  0  0  0
  1  2  2  0
  1  3  2  0
  1  4  1  0
  4  5  1  0
  5  6  2  0
  6  7  1  0
  7  8  2  0
  8  9  1  0
  9 10  2  0
 10  5  1  0
  8 11  1  0
 11 12  1  0
 12 13  1  0
 13 14  1  0
 14 15  2  0
 15 16  1  0
 12 16  2  0
 15 17  1  0
 17 18  2  0
 18 19  1  0
 19 20  1  0
 20 21  2  0
 21 17  1  0
 21 22  1  0
 22 23  2  0
 23 24  1  0
 24 25  2  0
 25 20  1  0
  1 26  1  0
 26 27  2  0
 27 28  1  0
 28 29  2  0
 29 30  1  0
 29 31  1  0
 31 32  2  0
 32 26  1  0
M  END
$$$$
s_22____8126070____59100
     RDKit          3D

 36 40  0  0  0  0  0  0  0  0999 V2000
   -0.2810    3.3352    3.7573 S   0  0  0  0  0  0  0  0  0  0  0  0
   -1.5443    3.9470    3.4359 O   0  0  0  0  0  0  0  0  0  0  0  0
   -0.4718    1.9241    3.9717 O   0  0  0  0  0  0  0  0  0  0  0  0
    0.7615    3.5615    2.5249 N   0  0  0  0  0  0  0  0  0  0  0  0
    1.9850    2.8822    2.5096 C   0  0  0  0  0  0  0  0  0  0  0  0
    3.1774    3.5986    2.4996 C   0  0  0  0  0  0  0  0  0  0  0  0
    4.3889    2.9151    2.4847 C   0  0  0  0  0  0  0  0  0  0  0  0
    4.3934    1.5238    2.4792 C   0  0  0  0  0  0  0  0  0  0  0  0
    3.2017    0.8073    2.4891 C   0  0  0  0  0  0  0  0  0  0  0  0
    1.9902    1.4907    2.5042 C   0  0  0  0  0  0  0  0  0  0  0  0
    5.6615    0.8207    2.4636 C   0  0  0  0  0  0  0  0  0  0  0  0
    5.7162   -0.3257    2.8140 O   0  0  0  0  0  0  0  0  0  0  0  0
    6.7971    1.4652    2.0489 N   0  0  0  0  0  0  0  0  0  0  0  0
    8.0241    0.7848    2.0339 C   0  0  0  0  0  0  0  0  0  0  0  0
    9.5082    1.4588    1.5448 S   0  0  0  0  0  0  0  0  0  0  0  0
   10.4314    0.0597    1.8226 C   0  0  0  0  0  0  0  0  0  0  0  0
    9.5548   -0.8790    2.2804 C   0  0  0  0  0  0  0  0  0  0  0  0
    8.2516   -0.4605    2.3824 N   0  0  0  0  0  0  0  0  0  0  0  0
    9.9994   -2.2146    2.6287 C   0  0  0  0  0  0  0  0  0  0  0  0
   10.4478   -2.6275    3.9057 C   0  0  0  0  0  0  0  0  0  0  0  0
   10.7594   -3.9606    3.7637 C   0  0  0  0  0  0  0  0  0  0  0  0
   11.2208   -4.6481    4.8232 N   0  0  0  0  0  0  0  0  0  0  0  0
   11.3972   -4.0956    6.0316 C   0  0  0  0  0  0  0  0  0  0  0  0
   11.0988   -2.7524    6.2310 C   0  0  0  0  0  0  0  0  0  0  0  0
   10.6210   -2.0265    5.1476 C   0  0  0  0  0  0  0  0  0  0  0  0
   10.5162   -4.3408    2.4733 N   0  0  0  0  0  0  0  0  0  0  0  0
   10.0480   -3.2714    1.7692 C   0  0  0  0  0  0  0  0  0  0  0  0
   11.9267   -0.0928    1.6058 C   0  0  0  0  0  0  0  0  0  0  0  0
    0.3632    4.0594    5.2022 C   0  0  0  0  0  0  0  0  0  0  0  0
    0.0603    5.3866    5.4888 C   0  0  0  0  0  0  0  0  0  0  0  0
    0.5793    5.9586    6.6453 C   0  0  0  0  0  0  0  0  0  0  0  0
    0.2993    7.2266    6.9346 F   0  0  0  0  0  0  0  0  0  0  0  0
    1.3868    5.2129    7.4972 C   0  0  0  0  0  0  0  0  0  0  0  0
    1.8741    5.7756    8.5993 F   0  0  0  0  0  0  0  0  0  0  0  0
    1.6881    3.8864    7.2068 C   0  0  0  0  0  0  0  0  0  0  0  0
    1.1707    3.3103    6.0513 C   0  0  0  0  0  0  0  0  0  0  0  0
  1  2  2  0
  1  3  2  0
  1  4  1  0
  4  5  1  0
  5  6  2  0
  6  7  1  0
  7  8  2  0
  8  9  1  0
  9 10  2  0
 10  5  1  0
  8 11  1  0
 11 12  2  0
 11 13  1  0
 13 14  1  0
 14 15  1  0
 15 16  1  0
 16 17  2  0
 17 18  1  0
 14 18  2  0
 17 19  1  0
 19 20  1  0
 20 21  1  0
 21 22  2  0
 22 23  1  0
 23 24  2  0
 24 25  1  0
 25 20  2  0
 21 26  1  0
 26 27  1  0
 19 27  2  0
 16 28  1  0
  1 29  1  0
 29 30  2  0
 30 31  1  0
 31 32  1  0
 31 33  2  0
 33 34  1  0
 33 35  1  0
 35 36  2  0
 36 29  1  0
M  END
$$$$
m_275536a____17109990____17090172
     RDKit          3D

 33 37  0  0  0  0  0  0  0  0999 V2000
    0.1850   -0.4116    0.9985 S   0  0  0  0  0  0  0  0  0  0  0  0
   -1.1907   -0.1712    0.6474 O   0  0  0  0  0  0  0  0  0  0  0  0
    0.7764   -1.3063    0.0375 O   0  0  0  0  0  0  0  0  0  0  0  0
    1.0000    1.0000    1.0000 N   0  0  0  0  0  0  0  0  0  0  0  0
    2.4004    1.0000    1.0000 C   0  0  0  0  0  0  0  0  0  0  0  0
    3.0860    1.6953    0.0095 C   0  0  0  0  0  0  0  0  0  0  0  0
    4.4770    1.6887    0.0201 C   0  0  0  0  0  0  0  0  0  0  0  0
    5.1807    0.9991    1.0016 C   0  0  0  0  0  0  0  0  0  0  0  0
    4.4744    0.3107    1.9824 C   0  0  0  0  0  0  0  0  0  0  0  0
    3.0836    0.3041    1.9916 C   0  0  0  0  0  0  0  0  0  0  0  0
    5.1963    2.4134   -1.0094 C   0  0  0  0  0  0  0  0  0  0  0  0
    6.5837    2.5228   -1.1022 N   0  0  0  0  0  0  0  0  0  0  0  0
    6.8594    2.9070   -2.4304 N   0  0  0  0  0  0  0  0  0  0  0  0
    5.6845    3.6151   -2.7591 N   0  0  0  0  0  0  0  0  0  0  0  0
    4.6445    3.0625   -2.0131 C   0  0  0  0  0  0  0  0  0  0  0  0
    5.5864    4.7322   -3.7092 C   0  0  0  0  0  0  0  0  0  0  0  0
    5.5396    4.1880   -5.1283 C   0  0  0  0  0  0  0  0  0  0  0  0
    4.4604    3.8610   -5.7938 N   0  0  0  0  0  0  0  0  0  0  0  0
    4.7560    3.4195   -6.9977 N   0  0  0  0  0  0  0  0  0  0  0  0
    6.1131    3.4556   -7.1436 C   0  0  0  0  0  0  0  0  0  0  0  0
    6.6449    3.9374   -5.9717 C   0  0  0  0  0  0  0  0  0  0  0  0
    8.0263    4.0663   -5.8643 C   0  0  0  0  0  0  0  0  0  0  0  0
    8.8746    3.7205   -6.9111 C   0  0  0  0  0  0  0  0  0  0  0  0
    8.3254    3.2334   -8.0932 C   0  0  0  0  0  0  0  0  0  0  0  0
    6.9446    3.1038   -8.2008 C   0  0  0  0  0  0  0  0  0  0  0  0
    0.2627   -1.1278    2.5821 C   0  0  0  0  0  0  0  0  0  0  0  0
   -0.6209   -0.7136    3.5729 C   0  0  0  0  0  0  0  0  0  0  0  0
   -0.5607   -1.2847    4.8400 C   0  0  0  0  0  0  0  0  0  0  0  0
    0.3890   -2.2673    5.0985 C   0  0  0  0  0  0  0  0  0  0  0  0
    0.4596   -2.8936    6.4814 C   0  0  0  0  0  0  0  0  0  0  0  0
    0.5126   -3.3634    7.5187 N   0  0  0  0  0  0  0  0  0  0  0  0
    1.2728   -2.6808    4.1070 C   0  0  0  0  0  0  0  0  0  0  0  0
    1.2127   -2.1108    2.8402 C   0  0  0  0  0  0  0  0  0  0  0  0
  1  2  2  0
  1  3  2  0
  1  4  1  0
  4  5  1  0
  5  6  2  0
  6  7  1  0
  7  8  2  0
  8  9  1  0
  9 10  2  0
 10  5  1  0
  7 11  1  0
 11 12  1  0
 12 13  1  0
 13 14  1  0
 14 15  1  0
 11 15  2  0
 14 16  1  0
 16 17  1  0
 17 18  2  0
 18 19  1  0
 19 20  1  0
 20 21  2  0
 21 17  1  0
 21 22  1  0
 22 23  2  0
 23 24  1  0
 24 25  2  0
 25 20  1  0
  1 26  1  0
 26 27  2  0
 27 28  1  0
 28 29  2  0
 29 30  1  0
 30 31  3  0
 29 32  1  0
 32 33  2  0
 33 26  1  0
M  CHG  1  12  -1
M  END
$$$$
m_273170____10756572____10761984____10755784
     RDKit          3D

 40 45  0  0  0  0  0  0  0  0999 V2000
    2.5249    5.7951    2.3845 S   0  0  0  0  0  0  0  0  0  0  0  0
    3.7672    6.3759    2.8238 O   0  0  0  0  0  0  0  0  0  0  0  0
    2.2943    6.1408    1.0058 O   0  0  0  0  0  0  0  0  0  0  0  0
    1.3037    6.3678    3.2998 N   0  0  0  0  0  0  0  0  0  0  0  0
    1.2354    7.8301    3.1662 C   0  0  0  0  0  0  0  0  0  0  0  0
    2.6058    4.0640    2.5427 C   0  0  0  0  0  0  0  0  0  0  0  0
    1.8027    3.2597    1.7404 C   0  0  0  0  0  0  0  0  0  0  0  0
    1.8777    1.8777    1.8777 C   0  0  0  0  0  0  0  0  0  0  0  0
    2.7407    1.2964    2.8006 C   0  0  0  0  0  0  0  0  0  0  0  0
    3.5352    2.1186    3.5931 C   0  0  0  0  0  0  0  0  0  0  0  0
    3.4754    3.5031    3.4723 C   0  0  0  0  0  0  0  0  0  0  0  0
    1.0000    1.0000    1.0000 C   0  0  0  0  0  0  0  0  0  0  0  0
    1.7941    0.4801   -0.1233 N   0  0  0  0  0  0  0  0  0  0  0  0
    2.2645   -0.7876   -0.2518 C   0  0  0  0  0  0  0  0  0  0  0  0
    2.9110   -0.8126   -1.3910 N   0  0  0  0  0  0  0  0  0  0  0  0
    2.8759    0.3595   -1.9849 N   0  0  0  0  0  0  0  0  0  0  0  0
    2.1898    1.1789   -1.2205 C   0  0  0  0  0  0  0  0  0  0  0  0
    1.9086    2.5750   -1.5014 C   0  0  0  0  0  0  0  0  0  0  0  0
    0.6586    3.0668   -1.4822 N   0  0  0  0  0  0  0  0  0  0  0  0
    0.3884    4.3572   -1.7406 C   0  0  0  0  0  0  0  0  0  0  0  0
    1.4241    5.2377   -2.0420 C   0  0  0  0  0  0  0  0  0  0  0  0
    2.7283    4.7547   -2.0686 C   0  0  0  0  0  0  0  0  0  0  0  0
    2.9790    3.4131   -1.7973 C   0  0  0  0  0  0  0  0  0  0  0  0
    1.1773    6.5793   -2.3138 C   0  0  0  0  0  0  0  0  0  0  0  0
   -0.1337    7.0428   -2.2824 C   0  0  0  0  0  0  0  0  0  0  0  0
   -1.1862    6.1840   -1.9839 C   0  0  0  0  0  0  0  0  0  0  0  0
   -0.9139    4.8465   -1.7155 C   0  0  0  0  0  0  0  0  0  0  0  0
    2.0975   -1.8491    0.6482 N   0  0  0  0  0  0  0  0  0  0  0  0
    1.0118   -1.8093    1.6384 C   0  0  0  0  0  0  0  0  0  0  0  0
   -0.2383   -2.4490    1.0474 C   0  0  0  0  0  0  0  0  0  0  0  0
   -0.3468   -3.6862    0.6190 O   0  0  0  0  0  0  0  0  0  0  0  0
   -1.5610   -3.9160    0.1684 C   0  0  0  0  0  0  0  0  0  0  0  0
   -2.2843   -2.7694    0.3037 C   0  0  0  0  0  0  0  0  0  0  0  0
   -1.4242   -1.8042    0.8770 C   0  0  0  0  0  0  0  0  0  0  0  0
    3.0081   -3.0021    0.6018 C   0  0  0  0  0  0  0  0  0  0  0  0
    4.2570   -2.6966    1.4207 C   0  0  0  0  0  0  0  0  0  0  0  0
    4.0671   -2.8683    2.8160 O   0  0  0  0  0  0  0  0  0  0  0  0
    5.3565   -2.9924    3.3864 C   0  0  0  0  0  0  0  0  0  0  0  0
    6.2593   -3.5725    2.3161 C   0  0  0  0  0  0  0  0  0  0  0  0
    5.2978   -3.7711    1.1632 C   0  0  0  0  0  0  0  0  0  0  0  0
  1  2  2  0
  1  3  2  0
  1  4  1  0
  4  5  1  0
  1  6  1  0
  6  7  2  0
  7  8  1  0
  8  9  2  0
  9 10  1  0
 10 11  2  0
 11  6  1  0
  8 12  1  0
 12 13  1  0
 13 14  1  0
 14 15  2  0
 15 16  1  0
 16 17  2  0
 17 13  1  0
 17 18  1  0
 18 19  2  0
 19 20  1  0
 20 21  2  0
 21 22  1  0
 22 23  2  0
 23 18  1  0
 21 24  1  0
 24 25  2  0
 25 26  1  0
 26 27  2  0
 27 20  1  0
 14 28  1  0
 28 29  1  0
 29 30  1  0
 30 31  1  0
 31 32  1  0
 32 33  2  0
 33 34  1  0
 30 34  2  0
 28 35  1  0
 35 36  1  0
 36 37  1  0
 37 38  1  0
 38 39  1  0
 39 40  1  0
 40 36  1  0
M  END
$$$$
m_273170____10759452____10761548____10755784
     RDKit          3D

 41 46  0  0  0  0  0  0  0  0999 V2000
    4.7645   -5.2586    3.1309 F   0  0  0  0  0  0  0  0  0  0  0  0
    4.1094   -4.1030    3.1889 C   0  0  0  0  0  0  0  0  0  0  0  0
    3.7168   -3.5570    4.4057 C   0  0  0  0  0  0  0  0  0  0  0  0
    3.0570   -2.3894    4.4352 N   0  0  0  0  0  0  0  0  0  0  0  0
    2.7604   -1.7231    3.3094 C   0  0  0  0  0  0  0  0  0  0  0  0
    3.1293   -2.2231    2.0648 C   0  0  0  0  0  0  0  0  0  0  0  0
    3.8142   -3.4322    2.0070 C   0  0  0  0  0  0  0  0  0  0  0  0
    2.8010   -1.4805    0.7791 C   0  0  0  0  0  0  0  0  0  0  0  0
    3.2232   -0.0772    0.9021 N   0  0  0  0  0  0  0  0  0  0  0  0
    2.4017    1.0000    1.0000 C   0  0  0  0  0  0  0  0  0  0  0  0
    3.1912    2.0415    1.0908 N   0  0  0  0  0  0  0  0  0  0  0  0
    4.4560    1.6855    1.0558 N   0  0  0  0  0  0  0  0  0  0  0  0
    4.5040    0.3775    0.9393 C   0  0  0  0  0  0  0  0  0  0  0  0
    5.7075   -0.4292    0.8647 C   0  0  0  0  0  0  0  0  0  0  0  0
    6.3465   -0.8574    1.9660 N   0  0  0  0  0  0  0  0  0  0  0  0
    7.4613   -1.6049    1.9071 C   0  0  0  0  0  0  0  0  0  0  0  0
    7.9941   -1.9625    0.6714 C   0  0  0  0  0  0  0  0  0  0  0  0
    7.3522   -1.5324   -0.4853 C   0  0  0  0  0  0  0  0  0  0  0  0
    6.1991   -0.7588   -0.3945 C   0  0  0  0  0  0  0  0  0  0  0  0
    9.1465   -2.7356    0.5766 C   0  0  0  0  0  0  0  0  0  0  0  0
    9.7737   -3.1555    1.7448 C   0  0  0  0  0  0  0  0  0  0  0  0
    9.2618   -2.8121    2.9916 C   0  0  0  0  0  0  0  0  0  0  0  0
    8.1079   -2.0382    3.0603 C   0  0  0  0  0  0  0  0  0  0  0  0
    1.0000    1.0000    1.0000 N   0  0  0  0  0  0  0  0  0  0  0  0
    0.2650   -0.2731    1.0004 C   0  0  0  0  0  0  0  0  0  0  0  0
   -1.0632   -0.0910    1.7170 C   0  0  0  0  0  0  0  0  0  0  0  0
   -2.2379    0.0354    0.9829 C   0  0  0  0  0  0  0  0  0  0  0  0
   -2.2201   -0.0012   -0.4169 N   0  0  0  0  0  0  0  0  0  0  0  0
   -2.7869    0.8690   -1.0570 O   0  0  0  0  0  0  0  0  0  0  0  0
   -1.6426   -0.8959   -0.9914 O   0  0  0  0  0  0  0  0  0  0  0  0
   -3.4529    0.2019    1.6384 C   0  0  0  0  0  0  0  0  0  0  0  0
   -3.4935    0.2417    3.0281 C   0  0  0  0  0  0  0  0  0  0  0  0
   -2.3191    0.1155    3.7619 C   0  0  0  0  0  0  0  0  0  0  0  0
   -1.1038   -0.0502    3.1063 C   0  0  0  0  0  0  0  0  0  0  0  0
    0.2650    2.2731    0.9996 C   0  0  0  0  0  0  0  0  0  0  0  0
    4.0269   -4.2538    5.5800 N   0  0  0  0  0  0  0  0  0  0  0  0
    4.4810   -5.6527    5.5782 C   0  0  0  0  0  0  0  0  0  0  0  0
    5.3622   -5.8997    6.7926 C   0  0  0  0  0  0  0  0  0  0  0  0
    4.6653   -5.6948    8.0193 O   0  0  0  0  0  0  0  0  0  0  0  0
    3.6241   -4.7278    7.9363 C   0  0  0  0  0  0  0  0  0  0  0  0
    3.9242   -3.6432    6.9127 C   0  0  0  0  0  0  0  0  0  0  0  0
  1  2  1  0
  2  3  2  0
  3  4  1  0
  4  5  2  0
  5  6  1  0
  6  7  2  0
  7  2  1  0
  6  8  1  0
  8  9  1  0
  9 10  1  0
 10 11  2  0
 11 12  1  0
 12 13  2  0
 13  9  1  0
 13 14  1  0
 14 15  2  0
 15 16  1  0
 16 17  2  0
 17 18  1  0
 18 19  2  0
 19 14  1  0
 17 20  1  0
 20 21  2  0
 21 22  1  0
 22 23  2  0
 23 16  1  0
 10 24  1  0
 24 25  1  0
 25 26  1  0
 26 27  2  0
 27 28  1  0
 28 29  1  0
 28 30  2  0
 27 31  1  0
 31 32  2  0
 32 33  1  0
 33 34  2  0
 34 26  1  0
 24 35  1  0
  3 36  1  0
 36 37  1  0
 37 38  1  0
 38 39  1  0
 39 40  1  0
 40 41  1  0
 41 36  1  0
M  CHG  2  28   1  29  -1
M  END
$$$$
m_273170____10756432____10761548____10766638
     RDKit          3D

 43 48  0  0  0  0  0  0  0  0999 V2000
    4.6058   -2.3295    1.7131 S   0  0  0  0  0  0  0  0  0  0  0  0
    4.8011   -2.0333    3.3777 C   0  0  0  0  0  0  0  0  0  0  0  0
    4.3737   -0.8133    3.5868 N   0  0  0  0  0  0  0  0  0  0  0  0
    3.9082   -0.1501    2.4826 C   0  0  0  0  0  0  0  0  0  0  0  0
    3.3905    1.2051    2.4893 C   0  0  0  0  0  0  0  0  0  0  0  0
    4.1071    2.3065    2.4903 N   0  0  0  0  0  0  0  0  0  0  0  0
    3.2789    3.3271    2.4974 N   0  0  0  0  0  0  0  0  0  0  0  0
    2.0315    2.9267    2.5008 C   0  0  0  0  0  0  0  0  0  0  0  0
    2.0806    1.5694    2.4959 N   0  0  0  0  0  0  0  0  0  0  0  0
    0.9245    0.6605    2.4981 C   0  0  0  0  0  0  0  0  0  0  0  0
    0.8353   -0.0427    3.8428 C   0  0  0  0  0  0  0  0  0  0  0  0
   -0.1704   -0.9636    4.1212 C   0  0  0  0  0  0  0  0  0  0  0  0
   -1.0878   -1.2363    3.1687 O   0  0  0  0  0  0  0  0  0  0  0  0
   -2.0728   -2.1266    3.4152 C   0  0  0  0  0  0  0  0  0  0  0  0
   -1.8621   -3.4690    3.1169 C   0  0  0  0  0  0  0  0  0  0  0  0
   -2.8780   -4.3844    3.3718 C   0  0  0  0  0  0  0  0  0  0  0  0
   -2.6888   -5.6708    3.0907 F   0  0  0  0  0  0  0  0  0  0  0  0
   -4.0896   -3.9742    3.9170 C   0  0  0  0  0  0  0  0  0  0  0  0
   -4.2802   -2.6277    4.2082 C   0  0  0  0  0  0  0  0  0  0  0  0
   -3.2773   -1.6963    3.9610 C   0  0  0  0  0  0  0  0  0  0  0  0
   -0.2193   -1.5659    5.3190 N   0  0  0  0  0  0  0  0  0  0  0  0
    0.6858   -1.3061    6.2741 C   0  0  0  0  0  0  0  0  0  0  0  0
    1.7133   -0.3952    6.0532 C   0  0  0  0  0  0  0  0  0  0  0  0
    1.7839    0.2418    4.8190 C   0  0  0  0  0  0  0  0  0  0  0  0
    0.8853    3.7336    2.5048 N   0  0  0  0  0  0  0  0  0  0  0  0
   -0.4485    3.1157    2.5084 C   0  0  0  0  0  0  0  0  0  0  0  0
   -1.1103    3.3467    3.8572 C   0  0  0  0  0  0  0  0  0  0  0  0
   -2.4657    3.6518    3.9238 C   0  0  0  0  0  0  0  0  0  0  0  0
   -3.2395    3.7521    2.7610 N   0  0  0  0  0  0  0  0  0  0  0  0
   -3.8059    2.7664    2.3182 O   0  0  0  0  0  0  0  0  0  0  0  0
   -3.3464    4.8164    2.1954 O   0  0  0  0  0  0  0  0  0  0  0  0
   -3.0710    3.8630    5.1578 C   0  0  0  0  0  0  0  0  0  0  0  0
   -2.3211    3.7690    6.3253 C   0  0  0  0  0  0  0  0  0  0  0  0
   -0.9660    3.4642    6.2587 C   0  0  0  0  0  0  0  0  0  0  0  0
   -0.3604    3.2537    5.0246 C   0  0  0  0  0  0  0  0  0  0  0  0
    1.0172    5.1977    2.5052 C   0  0  0  0  0  0  0  0  0  0  0  0
    3.9421   -0.8166    1.2996 C   0  0  0  0  0  0  0  0  0  0  0  0
    5.3251   -2.9234    4.3226 N   0  0  0  0  0  0  0  0  0  0  0  0
    5.4234   -2.5024    5.7289 C   0  0  0  0  0  0  0  0  0  0  0  0
    5.2224   -3.6829    6.6665 C   0  0  0  0  0  0  0  0  0  0  0  0
    5.9779   -4.8130    6.2496 O   0  0  0  0  0  0  0  0  0  0  0  0
    5.5176   -5.2898    4.9919 C   0  0  0  0  0  0  0  0  0  0  0  0
    5.7420   -4.2658    3.8897 C   0  0  0  0  0  0  0  0  0  0  0  0
  1  2  1  0
  2  3  2  0
  3  4  1  0
  4  5  1  0
  5  6  2  0
  6  7  1  0
  7  8  2  0
  8  9  1  0
  9  5  1  0
  9 10  1  0
 10 11  1  0
 11 12  1  0
 12 13  1  0
 13 14  1  0
 14 15  2  0
 15 16  1  0
 16 17  1  0
 16 18  2  0
 18 19  1  0
 19 20  2  0
 20 14  1  0
 12 21  2  0
 21 22  1  0
 22 23  2  0
 23 24  1  0
 24 11  2  0
  8 25  1  0
 25 26  1  0
 26 27  1  0
 27 28  2  0
 28 29  1  0
 29 30  1  0
 29 31  2  0
 28 32  1  0
 32 33  2  0
 33 34  1  0
 34 35  2  0
 35 27  1  0
 25 36  1  0
  4 37  2  0
 37  1  1  0
  2 38  1  0
 38 39  1  0
 39 40  1  0
 40 41  1  0
 41 42  1  0
 42 43  1  0
 43 38  1  0
M  CHG  2  29   1  30  -1
M  END
$$$$
s_2____11687950____8992042____86635
     RDKit          3D

 38 43  0  0  0  0  0  0  0  0999 V2000
   -1.9513    6.0842    0.4460 S   0  0  0  0  0  0  0  0  0  0  0  0
   -1.1728    7.0069   -0.3390 O   0  0  0  0  0  0  0  0  0  0  0  0
   -3.2098    5.8392   -0.2095 O   0  0  0  0  0  0  0  0  0  0  0  0
   -2.2222    6.7207    1.9220 N   0  0  0  0  0  0  0  0  0  0  0  0
   -1.0821    4.5864    0.6111 C   0  0  0  0  0  0  0  0  0  0  0  0
   -0.7377    4.1262    1.8777 C   0  0  0  0  0  0  0  0  0  0  0  0
   -0.0423    2.9284    2.0032 C   0  0  0  0  0  0  0  0  0  0  0  0
    0.2999    2.2052    0.8655 C   0  0  0  0  0  0  0  0  0  0  0  0
    1.0000    1.0000    1.0000 N   0  0  0  0  0  0  0  0  0  0  0  0
    2.2727    1.0000    1.0000 C   0  0  0  0  0  0  0  0  0  0  0  0
    3.2932    2.2218    0.3944 S   0  0  0  0  0  0  0  0  0  0  0  0
    4.7811    1.4716    0.7594 C   0  0  0  0  0  0  0  0  0  0  0  0
    4.4252    0.2929    1.3410 C   0  0  0  0  0  0  0  0  0  0  0  0
    3.0922    0.0268    1.4798 N   0  0  0  0  0  0  0  0  0  0  0  0
    2.5424   -1.1964    2.0815 C   0  0  0  0  0  0  0  0  0  0  0  0
    2.4675   -1.0292    3.5923 C   0  0  0  0  0  0  0  0  0  0  0  0
    3.4798   -1.3722    4.4089 N   0  0  0  0  0  0  0  0  0  0  0  0
    3.4239   -1.2300    5.7455 C   0  0  0  0  0  0  0  0  0  0  0  0
    4.4863   -1.5912    6.5845 N   0  0  0  0  0  0  0  0  0  0  0  0
    4.3429   -1.4028    8.0363 C   0  0  0  0  0  0  0  0  0  0  0  0
    5.6814   -1.0676    8.6759 C   0  0  0  0  0  0  0  0  0  0  0  0
    6.7050   -1.9423    8.2206 O   0  0  0  0  0  0  0  0  0  0  0  0
    6.9357   -1.7243    6.8354 C   0  0  0  0  0  0  0  0  0  0  0  0
    5.7274   -2.1253    6.0031 C   0  0  0  0  0  0  0  0  0  0  0  0
    2.2762   -0.7061    6.3316 C   0  0  0  0  0  0  0  0  0  0  0  0
    1.2096   -0.3407    5.5161 C   0  0  0  0  0  0  0  0  0  0  0  0
    1.3012   -0.5017    4.1374 C   0  0  0  0  0  0  0  0  0  0  0  0
    5.4808   -0.5996    1.7731 C   0  0  0  0  0  0  0  0  0  0  0  0
    5.4724   -1.9052    1.6503 O   0  0  0  0  0  0  0  0  0  0  0  0
    6.5784   -2.4279    2.1388 C   0  0  0  0  0  0  0  0  0  0  0  0
    7.3674   -1.4058    2.6115 C   0  0  0  0  0  0  0  0  0  0  0  0
    8.6006   -1.6985    3.1852 C   0  0  0  0  0  0  0  0  0  0  0  0
    9.0504   -3.0108    3.2916 C   0  0  0  0  0  0  0  0  0  0  0  0
    8.2521   -4.0455    2.8145 C   0  0  0  0  0  0  0  0  0  0  0  0
    7.0205   -3.7435    2.2423 C   0  0  0  0  0  0  0  0  0  0  0  0
    6.6442   -0.2173    2.3681 C   0  0  0  0  0  0  0  0  0  0  0  0
   -0.0472    2.6709   -0.3977 C   0  0  0  0  0  0  0  0  0  0  0  0
   -0.7424    3.8680   -0.5304 C   0  0  0  0  0  0  0  0  0  0  0  0
  1  2  2  0
  1  3  2  0
  1  4  1  0
  1  5  1  0
  5  6  2  0
  6  7  1  0
  7  8  2  0
  8  9  1  0
  9 10  2  0
 10 11  1  0
 11 12  1  0
 12 13  2  0
 13 14  1  0
 14 10  1  0
 14 15  1  0
 15 16  1  0
 16 17  2  0
 17 18  1  0
 18 19  1  0
 19 20  1  0
 20 21  1  0
 21 22  1  0
 22 23  1  0
 23 24  1  0
 24 19  1  0
 18 25  2  0
 25 26  1  0
 26 27  2  0
 27 16  1  0
 13 28  1  0
 28 29  1  0
 29 30  1  0
 30 31  2  0
 31 32  1  0
 32 33  2  0
 33 34  1  0
 34 35  2  0
 35 30  1  0
 31 36  1  0
 28 36  2  0
  8 37  1  0
 37 38  2  0
 38  5  1  0
M  END
$$$$
s_2____11687950____8992042____12433048
     RDKit          3D

 43 48  0  0  0  0  0  0  0  0999 V2000
   -7.0559   -0.6476    5.8037 Cl  0  0  0  0  0  0  0  0  0  0  0  0
   -5.6236   -1.0425    4.8240 C   0  0  0  0  0  0  0  0  0  0  0  0
   -5.5561   -0.6183    3.5011 C   0  0  0  0  0  0  0  0  0  0  0  0
   -4.4345   -0.9305    2.7404 C   0  0  0  0  0  0  0  0  0  0  0  0
   -3.3955   -1.6602    3.3079 C   0  0  0  0  0  0  0  0  0  0  0  0
   -2.3097   -1.9595    2.5631 O   0  0  0  0  0  0  0  0  0  0  0  0
   -1.2568   -1.1152    2.5346 C   0  0  0  0  0  0  0  0  0  0  0  0
   -0.8473   -0.5537    1.3297 C   0  0  0  0  0  0  0  0  0  0  0  0
    0.2399    0.3140    1.3103 C   0  0  0  0  0  0  0  0  0  0  0  0
    0.9034    0.6099    2.4960 C   0  0  0  0  0  0  0  0  0  0  0  0
    0.4940    0.0492    3.7015 C   0  0  0  0  0  0  0  0  0  0  0  0
   -0.5928   -0.8187    3.7205 C   0  0  0  0  0  0  0  0  0  0  0  0
    2.0334    1.5154    2.4653 C   0  0  0  0  0  0  0  0  0  0  0  0
    3.3388    1.1121    2.4746 N   0  0  0  0  0  0  0  0  0  0  0  0
    4.2406    2.1295    2.4468 C   0  0  0  0  0  0  0  0  0  0  0  0
    3.3299    3.5681    2.4036 S   0  0  0  0  0  0  0  0  0  0  0  0
    1.7813    2.8529    2.4247 C   0  0  0  0  0  0  0  0  0  0  0  0
    5.5094    2.0301    2.4537 N   0  0  0  0  0  0  0  0  0  0  0  0
    6.2585    2.6964    3.4312 C   0  0  0  0  0  0  0  0  0  0  0  0
    7.2750    3.5624    3.0423 C   0  0  0  0  0  0  0  0  0  0  0  0
    8.0233    4.2276    4.0074 C   0  0  0  0  0  0  0  0  0  0  0  0
    7.7433    4.0173    5.3535 C   0  0  0  0  0  0  0  0  0  0  0  0
    8.6746    4.8465    6.5666 S   0  0  0  0  0  0  0  0  0  0  0  0
    7.7920    5.6072    7.4126 O   0  0  0  0  0  0  0  0  0  0  0  0
    9.3913    3.8840    7.3627 O   0  0  0  0  0  0  0  0  0  0  0  0
    9.7352    5.8517    5.8444 N   0  0  0  0  0  0  0  0  0  0  0  0
    6.7279    3.1530    5.7488 C   0  0  0  0  0  0  0  0  0  0  0  0
    5.9835    2.4907    4.7785 C   0  0  0  0  0  0  0  0  0  0  0  0
    3.7804   -0.2891    2.5193 C   0  0  0  0  0  0  0  0  0  0  0  0
    4.0575   -0.7790    1.1053 C   0  0  0  0  0  0  0  0  0  0  0  0
    3.1120   -1.3542    0.3409 N   0  0  0  0  0  0  0  0  0  0  0  0
    3.3461   -1.7921   -0.9094 C   0  0  0  0  0  0  0  0  0  0  0  0
    2.3523   -2.3887   -1.6943 N   0  0  0  0  0  0  0  0  0  0  0  0
    2.6863   -2.8423   -3.0535 C   0  0  0  0  0  0  0  0  0  0  0  0
    1.8813   -4.0768   -3.4292 C   0  0  0  0  0  0  0  0  0  0  0  0
    0.5087   -3.9259   -3.0900 O   0  0  0  0  0  0  0  0  0  0  0  0
    0.3468   -3.8248   -1.6813 C   0  0  0  0  0  0  0  0  0  0  0  0
    1.0053   -2.5686   -1.1317 C   0  0  0  0  0  0  0  0  0  0  0  0
    4.6173   -1.6536   -1.4573 C   0  0  0  0  0  0  0  0  0  0  0  0
    5.6195   -1.0628   -0.6939 C   0  0  0  0  0  0  0  0  0  0  0  0
    5.3426   -0.6216    0.5960 C   0  0  0  0  0  0  0  0  0  0  0  0
   -3.4693   -2.0815    4.6309 C   0  0  0  0  0  0  0  0  0  0  0  0
   -4.5881   -1.7730    5.3971 C   0  0  0  0  0  0  0  0  0  0  0  0
  1  2  1  0
  2  3  2  0
  3  4  1  0
  4  5  2  0
  5  6  1  0
  6  7  1  0
  7  8  2  0
  8  9  1  0
  9 10  2  0
 10 11  1  0
 11 12  2  0
 12  7  1  0
 10 13  1  0
 13 14  1  0
 14 15  1  0
 15 16  1  0
 16 17  1  0
 13 17  2  0
 15 18  2  0
 18 19  1  0
 19 20  2  0
 20 21  1  0
 21 22  2  0
 22 23  1  0
 23 24  2  0
 23 25  2  0
 23 26  1  0
 22 27  1  0
 27 28  2  0
 28 19  1  0
 14 29  1  0
 29 30  1  0
 30 31  2  0
 31 32  1  0
 32 33  1  0
 33 34  1  0
 34 35  1  0
 35 36  1  0
 36 37  1  0
 37 38  1  0
 38 33  1  0
 32 39  2  0
 39 40  1  0
 40 41  2  0
 41 30  1  0
  5 42  1  0
 42 43  2  0
 43  2  1  0
M  END
$$$$
s_2____821402____8992042____236124
     RDKit          3D

 40 45  0  0  0  0  0  0  0  0999 V2000
   -0.3062    3.3447    1.3125 S   0  0  0  0  0  0  0  0  0  0  0  0
   -0.5014    1.9353    1.0911 O   0  0  0  0  0  0  0  0  0  0  0  0
   -1.5625    3.9539    1.6646 O   0  0  0  0  0  0  0  0  0  0  0  0
    0.7615    3.5615    2.5249 N   0  0  0  0  0  0  0  0  0  0  0  0
    1.9850    2.8822    2.5096 C   0  0  0  0  0  0  0  0  0  0  0  0
    3.1774    3.5986    2.4996 C   0  0  0  0  0  0  0  0  0  0  0  0
    4.3889    2.9151    2.4847 C   0  0  0  0  0  0  0  0  0  0  0  0
    4.3934    1.5238    2.4792 C   0  0  0  0  0  0  0  0  0  0  0  0
    3.2017    0.8073    2.4891 C   0  0  0  0  0  0  0  0  0  0  0  0
    1.9902    1.4907    2.5042 C   0  0  0  0  0  0  0  0  0  0  0  0
    5.6599    0.8215    2.4637 C   0  0  0  0  0  0  0  0  0  0  0  0
    6.3415    0.4457    3.5867 N   0  0  0  0  0  0  0  0  0  0  0  0
    7.5139   -0.1981    3.3425 C   0  0  0  0  0  0  0  0  0  0  0  0
    7.6623   -0.2845    1.6479 S   0  0  0  0  0  0  0  0  0  0  0  0
    6.2079    0.5157    1.2552 C   0  0  0  0  0  0  0  0  0  0  0  0
    8.3374   -0.6452    4.2038 N   0  0  0  0  0  0  0  0  0  0  0  0
    9.2670   -1.6265    3.8399 C   0  0  0  0  0  0  0  0  0  0  0  0
   10.4048   -1.8094    4.6189 C   0  0  0  0  0  0  0  0  0  0  0  0
   11.3283   -2.7851    4.2569 C   0  0  0  0  0  0  0  0  0  0  0  0
   11.1063   -3.5649    3.1259 C   0  0  0  0  0  0  0  0  0  0  0  0
    9.9657   -3.3754    2.3527 C   0  0  0  0  0  0  0  0  0  0  0  0
    9.0376   -2.4014    2.7078 C   0  0  0  0  0  0  0  0  0  0  0  0
   12.0247   -4.5430    2.7587 C   0  0  0  0  0  0  0  0  0  0  0  0
   13.1629   -4.7271    3.5365 C   0  0  0  0  0  0  0  0  0  0  0  0
   13.3872   -3.9493    4.6677 C   0  0  0  0  0  0  0  0  0  0  0  0
   12.4673   -2.9723    5.0326 C   0  0  0  0  0  0  0  0  0  0  0  0
    5.8909    0.7008    4.9623 C   0  0  0  0  0  0  0  0  0  0  0  0
    6.6190    1.9164    5.5175 C   0  0  0  0  0  0  0  0  0  0  0  0
    6.1420    3.1672    5.3868 N   0  0  0  0  0  0  0  0  0  0  0  0
    6.7778    4.2488    5.8722 C   0  0  0  0  0  0  0  0  0  0  0  0
    6.2695    5.5454    5.7294 N   0  0  0  0  0  0  0  0  0  0  0  0
    4.9935    5.7431    5.0241 C   0  0  0  0  0  0  0  0  0  0  0  0
    4.2248    6.9186    5.6075 C   0  0  0  0  0  0  0  0  0  0  0  0
    5.0675    8.0475    5.7998 O   0  0  0  0  0  0  0  0  0  0  0  0
    6.0650    7.7705    6.7742 C   0  0  0  0  0  0  0  0  0  0  0  0
    7.0121    6.6750    6.3089 C   0  0  0  0  0  0  0  0  0  0  0  0
    7.9856    4.0899    6.5438 C   0  0  0  0  0  0  0  0  0  0  0  0
    8.5082    2.8094    6.6970 C   0  0  0  0  0  0  0  0  0  0  0  0
    7.8243    1.7129    6.1820 C   0  0  0  0  0  0  0  0  0  0  0  0
    0.3329    4.1099   -0.1982 C   0  0  0  0  0  0  0  0  0  0  0  0
  1  2  2  0
  1  3  2  0
  1  4  1  0
  4  5  1  0
  5  6  2  0
  6  7  1  0
  7  8  2  0
  8  9  1  0
  9 10  2  0
 10  5  1  0
  8 11  1  0
 11 12  1  0
 12 13  1  0
 13 14  1  0
 14 15  1  0
 11 15  2  0
 13 16  2  0
 16 17  1  0
 17 18  2  0
 18 19  1  0
 19 20  2  0
 20 21  1  0
 21 22  2  0
 22 17  1  0
 20 23  1  0
 23 24  2  0
 24 25  1  0
 25 26  2  0
 26 19  1  0
 12 27  1  0
 27 28  1  0
 28 29  2  0
 29 30  1  0
 30 31  1  0
 31 32  1  0
 32 33  1  0
 33 34  1  0
 34 35  1  0
 35 36  1  0
 36 31  1  0
 30 37  2  0
 37 38  1  0
 38 39  2  0
 39 28  1  0
  1 40  1  0
M  END
$$$$
m_273170____10758172____10760336____10766636
     RDKit          3D

 41 46  0  0  0  0  0  0  0  0999 V2000
    4.4791   -3.3475   -2.6552 S   0  0  0  0  0  0  0  0  0  0  0  0
    5.8417   -3.0683   -3.0280 O   0  0  0  0  0  0  0  0  0  0  0  0
    4.4178   -4.6151   -1.9746 O   0  0  0  0  0  0  0  0  0  0  0  0
    3.5503   -3.4038   -3.9935 N   0  0  0  0  0  0  0  0  0  0  0  0
    3.8984   -2.0933   -1.5986 C   0  0  0  0  0  0  0  0  0  0  0  0
    2.9369   -2.3880   -0.6380 C   0  0  0  0  0  0  0  0  0  0  0  0
    2.4709   -1.3868    0.2080 C   0  0  0  0  0  0  0  0  0  0  0  0
    2.9766   -0.0976    0.0790 C   0  0  0  0  0  0  0  0  0  0  0  0
    3.9379    0.1965   -0.8824 C   0  0  0  0  0  0  0  0  0  0  0  0
    4.4046   -0.8040   -1.7279 C   0  0  0  0  0  0  0  0  0  0  0  0
    2.4700    1.0000    1.0000 C   0  0  0  0  0  0  0  0  0  0  0  0
    1.0000    1.0000    1.0000 N   0  0  0  0  0  0  0  0  0  0  0  0
    0.2992    1.0000    2.2139 C   0  0  0  0  0  0  0  0  0  0  0  0
   -1.0010    1.0000    2.3749 N   0  0  0  0  0  0  0  0  0  0  0  0
   -1.3236    1.0040    3.6491 N   0  0  0  0  0  0  0  0  0  0  0  0
   -0.2104    1.0064    4.3473 C   0  0  0  0  0  0  0  0  0  0  0  0
    0.8251    1.0040    3.4661 N   0  0  0  0  0  0  0  0  0  0  0  0
    2.2562    1.0047    3.8049 C   0  0  0  0  0  0  0  0  0  0  0  0
    2.7490   -0.4285    3.9264 C   0  0  0  0  0  0  0  0  0  0  0  0
    4.0681   -0.8189    4.2400 C   0  0  0  0  0  0  0  0  0  0  0  0
    3.9973   -2.1927    4.2265 C   0  0  0  0  0  0  0  0  0  0  0  0
    2.7737   -2.5734    3.9354 O   0  0  0  0  0  0  0  0  0  0  0  0
    1.9860   -1.5426    3.7465 C   0  0  0  0  0  0  0  0  0  0  0  0
    5.1532   -2.9226    4.4914 C   0  0  0  0  0  0  0  0  0  0  0  0
    6.3650   -2.2969    4.7694 C   0  0  0  0  0  0  0  0  0  0  0  0
    6.4282   -0.9079    4.7823 C   0  0  0  0  0  0  0  0  0  0  0  0
    5.2736   -0.1800    4.5166 C   0  0  0  0  0  0  0  0  0  0  0  0
   -0.1104    1.0108    5.7960 C   0  0  0  0  0  0  0  0  0  0  0  0
   -0.2762   -0.3284    6.8294 S   0  0  0  0  0  0  0  0  0  0  0  0
   -0.0224    0.5333    8.2735 C   0  0  0  0  0  0  0  0  0  0  0  0
    0.1762    1.7880    7.9477 N   0  0  0  0  0  0  0  0  0  0  0  0
    0.1323    2.0745    6.6091 C   0  0  0  0  0  0  0  0  0  0  0  0
    0.3319    3.4618    6.0290 C   0  0  0  0  0  0  0  0  0  0  0  0
   -0.0247   -0.0064    9.5651 N   0  0  0  0  0  0  0  0  0  0  0  0
   -0.2642   -1.4474    9.7411 C   0  0  0  0  0  0  0  0  0  0  0  0
    0.5083   -1.9865   10.9351 C   0  0  0  0  0  0  0  0  0  0  0  0
    0.3709   -1.1397   12.0690 O   0  0  0  0  0  0  0  0  0  0  0  0
    0.9599    0.1305   11.8227 C   0  0  0  0  0  0  0  0  0  0  0  0
    0.2360    0.8765   10.7122 C   0  0  0  0  0  0  0  0  0  0  0  0
    0.2650    1.0000   -0.2731 C   0  0  0  0  0  0  0  0  0  0  0  0
    2.9767    2.3466    0.5099 C   0  0  0  0  0  0  0  0  0  0  0  0
  1  2  2  0
  1  3  2  0
  1  4  1  0
  1  5  1  0
  5  6  2  0
  6  7  1  0
  7  8  2  0
  8  9  1  0
  9 10  2  0
 10  5  1  0
  8 11  1  0
 11 12  1  0
 12 13  1  0
 13 14  2  0
 14 15  1  0
 15 16  2  0
 16 17  1  0
 17 13  1  0
 17 18  1  0
 18 19  1  0
 19 20  1  0
 20 21  2  0
 21 22  1  0
 22 23  1  0
 19 23  2  0
 21 24  1  0
 24 25  2  0
 25 26  1  0
 26 27  2  0
 27 20  1  0
 16 28  1  0
 28 29  1  0
 29 30  1  0
 30 31  2  0
 31 32  1  0
 28 32  2  0
 32 33  1  0
 30 34  1  0
 34 35  1  0
 35 36  1  0
 36 37  1  0
 37 38  1  0
 38 39  1  0
 39 34  1  0
 12 40  1  0
 11 41  1  0
M  END
$$$$
s_2____821402____8992042____5126092
     RDKit          3D

 40 45  0  0  0  0  0  0  0  0999 V2000
    7.7291   -0.1642    1.6606 S   0  0  0  0  0  0  0  0  0  0  0  0
    7.4377   -0.3353    3.3300 C   0  0  0  0  0  0  0  0  0  0  0  0
    8.1875   -0.9149    4.1795 N   0  0  0  0  0  0  0  0  0  0  0  0
    9.1490   -1.8372    3.7501 C   0  0  0  0  0  0  0  0  0  0  0  0
   10.4451   -1.4013    3.4949 C   0  0  0  0  0  0  0  0  0  0  0  0
   11.4004   -2.3186    3.0684 C   0  0  0  0  0  0  0  0  0  0  0  0
   11.0529   -3.6558    2.9025 C   0  0  0  0  0  0  0  0  0  0  0  0
    9.7544   -4.0831    3.1602 C   0  0  0  0  0  0  0  0  0  0  0  0
    8.7932   -3.1719    3.5865 C   0  0  0  0  0  0  0  0  0  0  0  0
   12.0031   -4.5785    2.4775 C   0  0  0  0  0  0  0  0  0  0  0  0
   13.2994   -4.1443    2.2219 C   0  0  0  0  0  0  0  0  0  0  0  0
   13.6497   -2.8083    2.3872 C   0  0  0  0  0  0  0  0  0  0  0  0
   12.6978   -1.8880    2.8123 C   0  0  0  0  0  0  0  0  0  0  0  0
    6.2458    0.2737    3.5698 N   0  0  0  0  0  0  0  0  0  0  0  0
    5.6599    0.8215    2.4637 C   0  0  0  0  0  0  0  0  0  0  0  0
    4.3934    1.5238    2.4792 C   0  0  0  0  0  0  0  0  0  0  0  0
    4.3898    2.9144    2.4850 C   0  0  0  0  0  0  0  0  0  0  0  0
    3.1783    3.5981    2.5011 C   0  0  0  0  0  0  0  0  0  0  0  0
    1.9856    2.8824    2.5103 C   0  0  0  0  0  0  0  0  0  0  0  0
    0.8052    3.5371    2.5243 O   0  0  0  0  0  0  0  0  0  0  0  0
    0.7807    4.9569    2.5297 C   0  0  0  0  0  0  0  0  0  0  0  0
   -0.6608    5.4387    2.5457 C   0  0  0  0  0  0  0  0  0  0  0  0
   -1.5593    4.6433    2.5517 O   0  0  0  0  0  0  0  0  0  0  0  0
   -0.9343    6.7811    2.5533 N   0  0  0  0  0  0  0  0  0  0  0  0
    1.9898    1.4913    2.5046 C   0  0  0  0  0  0  0  0  0  0  0  0
    3.2009    0.8075    2.4890 C   0  0  0  0  0  0  0  0  0  0  0  0
    6.3094    0.6985    1.2732 C   0  0  0  0  0  0  0  0  0  0  0  0
    5.6795    0.3205    4.9253 C   0  0  0  0  0  0  0  0  0  0  0  0
    6.2621    1.5080    5.6779 C   0  0  0  0  0  0  0  0  0  0  0  0
    5.6922    2.7262    5.6592 N   0  0  0  0  0  0  0  0  0  0  0  0
    6.1993    3.7830    6.3193 C   0  0  0  0  0  0  0  0  0  0  0  0
    5.5954    5.0457    6.2915 N   0  0  0  0  0  0  0  0  0  0  0  0
    6.2108    6.1529    7.0400 C   0  0  0  0  0  0  0  0  0  0  0  0
    5.9860    7.4803    6.3325 C   0  0  0  0  0  0  0  0  0  0  0  0
    4.6355    7.6233    5.9116 O   0  0  0  0  0  0  0  0  0  0  0  0
    4.3090    6.6496    4.9287 C   0  0  0  0  0  0  0  0  0  0  0  0
    4.3740    5.2395    5.4955 C   0  0  0  0  0  0  0  0  0  0  0  0
    7.3658    3.6319    7.0621 C   0  0  0  0  0  0  0  0  0  0  0  0
    7.9817    2.3849    7.1032 C   0  0  0  0  0  0  0  0  0  0  0  0
    7.4302    1.3135    6.4081 C   0  0  0  0  0  0  0  0  0  0  0  0
  1  2  1  0
  2  3  2  0
  3  4  1  0
  4  5  2  0
  5  6  1  0
  6  7  2  0
  7  8  1  0
  8  9  2  0
  9  4  1  0
  7 10  1  0
 10 11  2  0
 11 12  1  0
 12 13  2  0
 13  6  1  0
  2 14  1  0
 14 15  1  0
 15 16  1  0
 16 17  2  0
 17 18  1  0
 18 19  2  0
 19 20  1  0
 20 21  1  0
 21 22  1  0
 22 23  2  0
 22 24  1  0
 19 25  1  0
 25 26  2  0
 26 16  1  0
 15 27  2  0
 27  1  1  0
 14 28  1  0
 28 29  1  0
 29 30  2  0
 30 31  1  0
 31 32  1  0
 32 33  1  0
 33 34  1  0
 34 35  1  0
 35 36  1  0
 36 37  1  0
 37 32  1  0
 31 38  2  0
 38 39  1  0
 39 40  2  0
 40 29  1  0
M  END
$$$$
m_273170____10756154____10764092____10755784
     RDKit          3D

 41 45  0  0  0  0  0  0  0  0999 V2000
    1.9641    5.9495   -1.2092 S   0  0  0  0  0  0  0  0  0  0  0  0
    1.4070    6.8964   -2.1402 O   0  0  0  0  0  0  0  0  0  0  0  0
    0.9860    5.6367   -0.1997 O   0  0  0  0  0  0  0  0  0  0  0  0
    3.2854    6.5934   -0.5045 N   0  0  0  0  0  0  0  0  0  0  0  0
    4.2838    6.9128   -1.5350 C   0  0  0  0  0  0  0  0  0  0  0  0
    2.9098    7.8213    0.2111 C   0  0  0  0  0  0  0  0  0  0  0  0
    2.4087    4.4959   -2.0564 C   0  0  0  0  0  0  0  0  0  0  0  0
    2.7795    3.3446   -1.3681 C   0  0  0  0  0  0  0  0  0  0  0  0
    3.1307    2.1965   -2.0709 C   0  0  0  0  0  0  0  0  0  0  0  0
    3.1109    2.1994   -3.4619 C   0  0  0  0  0  0  0  0  0  0  0  0
    2.7384    3.3555   -4.1399 C   0  0  0  0  0  0  0  0  0  0  0  0
    2.3856    4.5092   -3.4470 C   0  0  0  0  0  0  0  0  0  0  0  0
    2.8010    3.3415    0.1519 C   0  0  0  0  0  0  0  0  0  0  0  0
    3.2232    2.0176    0.6335 N   0  0  0  0  0  0  0  0  0  0  0  0
    2.4017    1.0000    1.0000 C   0  0  0  0  0  0  0  0  0  0  0  0
    3.1912    0.0177    1.3579 N   0  0  0  0  0  0  0  0  0  0  0  0
    4.4560    0.3552    1.2392 N   0  0  0  0  0  0  0  0  0  0  0  0
    4.5040    1.5898    0.7919 C   0  0  0  0  0  0  0  0  0  0  0  0
    5.7075    2.3525    0.5187 C   0  0  0  0  0  0  0  0  0  0  0  0
    6.1195    2.6099   -0.7343 N   0  0  0  0  0  0  0  0  0  0  0  0
    7.2326    3.3154   -0.9992 C   0  0  0  0  0  0  0  0  0  0  0  0
    8.0079    3.8099    0.0454 C   0  0  0  0  0  0  0  0  0  0  0  0
    7.6058    3.5582    1.3528 C   0  0  0  0  0  0  0  0  0  0  0  0
    6.4489    2.8253    1.5960 C   0  0  0  0  0  0  0  0  0  0  0  0
    9.1657    4.5459   -0.1835 C   0  0  0  0  0  0  0  0  0  0  0  0
    9.5606    4.7943   -1.4941 C   0  0  0  0  0  0  0  0  0  0  0  0
    8.8005    4.3087   -2.5531 C   0  0  0  0  0  0  0  0  0  0  0  0
    7.6455    3.5753   -2.3016 C   0  0  0  0  0  0  0  0  0  0  0  0
    1.0000    1.0000    1.0000 N   0  0  0  0  0  0  0  0  0  0  0  0
    0.2650   -0.2731    1.0004 C   0  0  0  0  0  0  0  0  0  0  0  0
    0.2274   -0.8333   -0.4021 C   0  0  0  0  0  0  0  0  0  0  0  0
    1.1819   -1.6750   -0.9042 N   0  0  0  0  0  0  0  0  0  0  0  0
    0.9991   -2.0569   -2.1418 C   0  0  0  0  0  0  0  0  0  0  0  0
   -0.4494   -1.3278   -2.6625 S   0  0  0  0  0  0  0  0  0  0  0  0
   -0.8052   -0.4959   -1.2171 C   0  0  0  0  0  0  0  0  0  0  0  0
    1.8513   -2.9682   -3.0109 C   0  0  0  0  0  0  0  0  0  0  0  0
    2.0879   -2.3424   -4.2633 O   0  0  0  0  0  0  0  0  0  0  0  0
    2.8837   -3.1935   -5.0749 C   0  0  0  0  0  0  0  0  0  0  0  0
    3.1370   -2.5236   -6.4156 C   0  0  0  0  0  0  0  0  0  0  0  0
    3.1781   -3.2334   -2.3183 C   0  0  0  0  0  0  0  0  0  0  0  0
    0.2650    2.2731    0.9996 C   0  0  0  0  0  0  0  0  0  0  0  0
  1  2  2  0
  1  3  2  0
  1  4  1  0
  4  5  1  0
  4  6  1  0
  1  7  1  0
  7  8  2  0
  8  9  1  0
  9 10  2  0
 10 11  1  0
 11 12  2  0
 12  7  1  0
  8 13  1  0
 13 14  1  0
 14 15  1  0
 15 16  2  0
 16 17  1  0
 17 18  2  0
 18 14  1  0
 18 19  1  0
 19 20  2  0
 20 21  1  0
 21 22  2  0
 22 23  1  0
 23 24  2  0
 24 19  1  0
 22 25  1  0
 25 26  2  0
 26 27  1  0
 27 28  2  0
 28 21  1  0
 15 29  1  0
 29 30  1  0
 30 31  1  0
 31 32  1  0
 32 33  2  0
 33 34  1  0
 34 35  1  0
 31 35  2  0
 33 36  1  0
 36 37  1  0
 37 38  1  0
 38 39  1  0
 36 40  1  0
 29 41  1  0
M  END
$$$$
m_273170____10756154____10760760____10766638
     RDKit          3D

 42 47  0  0  0  0  0  0  0  0999 V2000
    3.9585    0.2458    1.1826 S   0  0  0  0  0  0  0  0  0  0  0  0
    5.2980    0.0463    1.6720 O   0  0  0  0  0  0  0  0  0  0  0  0
    3.1778   -0.9400    1.4236 O   0  0  0  0  0  0  0  0  0  0  0  0
    4.0045    0.5500   -0.4181 N   0  0  0  0  0  0  0  0  0  0  0  0
    4.8015    1.7604   -0.6641 C   0  0  0  0  0  0  0  0  0  0  0  0
    4.6165   -0.5899   -1.1161 C   0  0  0  0  0  0  0  0  0  0  0  0
    3.2341    1.5952    2.0089 C   0  0  0  0  0  0  0  0  0  0  0  0
    1.8777    1.8777    1.8777 C   0  0  0  0  0  0  0  0  0  0  0  0
    1.3249    2.9632    2.5494 C   0  0  0  0  0  0  0  0  0  0  0  0
    2.1281    3.7663    3.3526 C   0  0  0  0  0  0  0  0  0  0  0  0
    3.4825    3.4748    3.4770 C   0  0  0  0  0  0  0  0  0  0  0  0
    4.0457    2.3919    2.8095 C   0  0  0  0  0  0  0  0  0  0  0  0
    1.0000    1.0000    1.0000 C   0  0  0  0  0  0  0  0  0  0  0  0
   -0.3812    1.5041    1.0281 N   0  0  0  0  0  0  0  0  0  0  0  0
   -1.4425    0.8978    1.6207 C   0  0  0  0  0  0  0  0  0  0  0  0
   -2.4671    1.6852    1.4050 N   0  0  0  0  0  0  0  0  0  0  0  0
   -2.1154    2.7469    0.7144 N   0  0  0  0  0  0  0  0  0  0  0  0
   -0.8277    2.6596    0.4678 C   0  0  0  0  0  0  0  0  0  0  0  0
   -0.0324    3.6239   -0.2687 C   0  0  0  0  0  0  0  0  0  0  0  0
    0.3561    4.8457    0.2128 N   0  0  0  0  0  0  0  0  0  0  0  0
    1.0719    5.5763   -0.6047 C   0  0  0  0  0  0  0  0  0  0  0  0
    1.2410    4.6681   -2.0341 S   0  0  0  0  0  0  0  0  0  0  0  0
    0.3564    3.3028   -1.5300 C   0  0  0  0  0  0  0  0  0  0  0  0
    1.5925    6.8540   -0.3675 N   0  0  0  0  0  0  0  0  0  0  0  0
    2.3691    7.5208   -1.4244 C   0  0  0  0  0  0  0  0  0  0  0  0
    2.1684    9.0278   -1.3797 C   0  0  0  0  0  0  0  0  0  0  0  0
    2.2733    9.5275   -0.0527 O   0  0  0  0  0  0  0  0  0  0  0  0
    1.2261    9.0163    0.7616 C   0  0  0  0  0  0  0  0  0  0  0  0
    1.3299    7.5075    0.9238 C   0  0  0  0  0  0  0  0  0  0  0  0
   -1.4441   -0.3195    2.3155 N   0  0  0  0  0  0  0  0  0  0  0  0
   -1.1977   -0.3390    3.7646 C   0  0  0  0  0  0  0  0  0  0  0  0
   -2.4815   -0.7023    4.4918 C   0  0  0  0  0  0  0  0  0  0  0  0
   -3.6503   -0.1431    4.3015 O   0  0  0  0  0  0  0  0  0  0  0  0
   -4.5581   -0.6809    5.0923 C   0  0  0  0  0  0  0  0  0  0  0  0
   -3.9698   -1.6590    5.8507 C   0  0  0  0  0  0  0  0  0  0  0  0
   -4.7393   -2.3896    6.7557 C   0  0  0  0  0  0  0  0  0  0  0  0
   -6.0996   -2.1389    6.9118 C   0  0  0  0  0  0  0  0  0  0  0  0
   -6.6922   -1.1417    6.1447 C   0  0  0  0  0  0  0  0  0  0  0  0
   -5.9170   -0.4223    5.2417 C   0  0  0  0  0  0  0  0  0  0  0  0
   -2.6135   -1.6642    5.4504 C   0  0  0  0  0  0  0  0  0  0  0  0
   -0.1263   -1.3692    4.0826 C   0  0  0  0  0  0  0  0  0  0  0  0
   -1.6923   -1.5767    1.5952 C   0  0  0  0  0  0  0  0  0  0  0  0
  1  2  2  0
  1  3  2  0
  1  4  1  0
  4  5  1  0
  4  6  1  0
  1  7  1  0
  7  8  2  0
  8  9  1  0
  9 10  2  0
 10 11  1  0
 11 12  2  0
 12  7  1  0
  8 13  1  0
 13 14  1  0
 14 15  1  0
 15 16  2  0
 16 17  1  0
 17 18  2  0
 18 14  1  0
 18 19  1  0
 19 20  1  0
 20 21  2  0
 21 22  1  0
 22 23  1  0
 19 23  2  0
 21 24  1  0
 24 25  1  0
 25 26  1  0
 26 27  1  0
 27 28  1  0
 28 29  1  0
 29 24  1  0
 15 30  1  0
 30 31  1  0
 31 32  1  0
 32 33  1  0
 33 34  1  0
 34 35  2  0
 35 36  1  0
 36 37  2  0
 37 38  1  0
 38 39  2  0
 39 34  1  0
 35 40  1  0
 32 40  2  0
 31 41  1  0
 30 42  1  0
M  END
$$$$
m_273170____10756572____10764022____10766732
     RDKit          3D

 39 43  0  0  0  0  0  0  0  0999 V2000
    0.4476   -3.8023    5.1611 S   0  0  0  0  0  0  0  0  0  0  0  0
    0.4175   -4.3263    3.8201 O   0  0  0  0  0  0  0  0  0  0  0  0
    1.5625   -4.3706    5.8736 O   0  0  0  0  0  0  0  0  0  0  0  0
   -0.9393   -4.1871    5.9260 N   0  0  0  0  0  0  0  0  0  0  0  0
   -2.0774   -3.6070    5.1986 C   0  0  0  0  0  0  0  0  0  0  0  0
    0.6174   -2.0713    5.1038 C   0  0  0  0  0  0  0  0  0  0  0  0
    0.6996   -1.4266    3.8736 C   0  0  0  0  0  0  0  0  0  0  0  0
    0.8353   -0.0428    3.8429 C   0  0  0  0  0  0  0  0  0  0  0  0
    0.8883    0.6970    5.0195 C   0  0  0  0  0  0  0  0  0  0  0  0
    0.8044    0.0330    6.2389 C   0  0  0  0  0  0  0  0  0  0  0  0
    0.6689   -1.3505    6.2923 C   0  0  0  0  0  0  0  0  0  0  0  0
    0.9245    0.6605    2.4981 C   0  0  0  0  0  0  0  0  0  0  0  0
    2.0806    1.5694    2.4959 N   0  0  0  0  0  0  0  0  0  0  0  0
    2.0315    2.9267    2.5008 C   0  0  0  0  0  0  0  0  0  0  0  0
    3.2789    3.3271    2.4974 N   0  0  0  0  0  0  0  0  0  0  0  0
    4.1071    2.3065    2.4903 N   0  0  0  0  0  0  0  0  0  0  0  0
    3.3905    1.2051    2.4893 C   0  0  0  0  0  0  0  0  0  0  0  0
    3.9082   -0.1501    2.4826 C   0  0  0  0  0  0  0  0  0  0  0  0
    3.9830   -0.9257    1.3256 C   0  0  0  0  0  0  0  0  0  0  0  0
    4.4878   -2.2224    1.3727 C   0  0  0  0  0  0  0  0  0  0  0  0
    4.9185   -2.7380    2.5902 C   0  0  0  0  0  0  0  0  0  0  0  0
    4.8476   -1.9710    3.7478 C   0  0  0  0  0  0  0  0  0  0  0  0
    4.3419   -0.6768    3.6937 C   0  0  0  0  0  0  0  0  0  0  0  0
    4.5668   -3.0066    0.2265 C   0  0  0  0  0  0  0  0  0  0  0  0
    4.1372   -2.4982   -0.9948 C   0  0  0  0  0  0  0  0  0  0  0  0
    3.6290   -1.2057   -1.0701 C   0  0  0  0  0  0  0  0  0  0  0  0
    3.5599   -0.4414    0.0899 C   0  0  0  0  0  0  0  0  0  0  0  0
    0.8853    3.7336    2.5048 N   0  0  0  0  0  0  0  0  0  0  0  0
    0.2805    4.1574    1.2338 C   0  0  0  0  0  0  0  0  0  0  0  0
    1.0603    5.3336    0.6689 C   0  0  0  0  0  0  0  0  0  0  0  0
    2.0861    5.2463   -0.1412 O   0  0  0  0  0  0  0  0  0  0  0  0
    2.5314    6.4436   -0.4431 C   0  0  0  0  0  0  0  0  0  0  0  0
    1.7683    7.3713    0.1971 C   0  0  0  0  0  0  0  0  0  0  0  0
    0.8031    6.6454    0.9275 C   0  0  0  0  0  0  0  0  0  0  0  0
    3.7065    6.7445   -1.3593 C   0  0  0  0  0  0  0  0  0  0  0  0
    0.2881    4.1559    3.7799 C   0  0  0  0  0  0  0  0  0  0  0  0
   -1.1406    3.6441    3.8643 C   0  0  0  0  0  0  0  0  0  0  0  0
   -1.7175    4.0521    5.0961 O   0  0  0  0  0  0  0  0  0  0  0  0
   -3.0522    3.5739    5.1750 C   0  0  0  0  0  0  0  0  0  0  0  0
  1  2  2  0
  1  3  2  0
  1  4  1  0
  4  5  1  0
  1  6  1  0
  6  7  2  0
  7  8  1  0
  8  9  2  0
  9 10  1  0
 10 11  2  0
 11  6  1  0
  8 12  1  0
 12 13  1  0
 13 14  1  0
 14 15  2  0
 15 16  1  0
 16 17  2  0
 17 13  1  0
 17 18  1  0
 18 19  2  0
 19 20  1  0
 20 21  2  0
 21 22  1  0
 22 23  2  0
 23 18  1  0
 20 24  1  0
 24 25  2  0
 25 26  1  0
 26 27  2  0
 27 19  1  0
 14 28  1  0
 28 29  1  0
 29 30  1  0
 30 31  1  0
 31 32  1  0
 32 33  2  0
 33 34  1  0
 30 34  2  0
 32 35  1  0
 28 36  1  0
 36 37  1  0
 37 38  1  0
 38 39  1  0
M  END
$$$$
s_46____548782____5531510____12122144
     RDKit          3D

 35 39  0  0  0  0  0  0  0  0999 V2000
    4.4740    4.4816    4.4796 S   0  0  0  0  0  0  0  0  0  0  0  0
    3.9843    4.4463    5.8334 O   0  0  0  0  0  0  0  0  0  0  0  0
    5.8290    3.9954    4.4466 O   0  0  0  0  0  0  0  0  0  0  0  0
    4.4330    6.0144    3.9267 N   0  0  0  0  0  0  0  0  0  0  0  0
    4.9330    6.0503    2.5448 C   0  0  0  0  0  0  0  0  0  0  0  0
    3.4722    3.4754    3.4742 C   0  0  0  0  0  0  0  0  0  0  0  0
    4.0202    2.8440    2.3629 C   0  0  0  0  0  0  0  0  0  0  0  0
    3.2212    2.0390    1.5574 C   0  0  0  0  0  0  0  0  0  0  0  0
    1.8774    1.8774    1.8774 C   0  0  0  0  0  0  0  0  0  0  0  0
    1.3299    2.5098    2.9889 C   0  0  0  0  0  0  0  0  0  0  0  0
    2.1282    3.3140    3.7948 C   0  0  0  0  0  0  0  0  0  0  0  0
    1.0000    1.0000    1.0000 C   0  0  0  0  0  0  0  0  0  0  0  0
    1.0354   -0.3817    1.4981 N   0  0  0  0  0  0  0  0  0  0  0  0
    0.2593   -0.7737    2.5865 C   0  0  0  0  0  0  0  0  0  0  0  0
    0.5675   -2.4553    2.8679 S   0  0  0  0  0  0  0  0  0  0  0  0
    1.7155   -2.6608    1.5830 C   0  0  0  0  0  0  0  0  0  0  0  0
    1.8295   -1.3769    0.9280 C   0  0  0  0  0  0  0  0  0  0  0  0
    2.5563   -1.1869   -0.0342 O   0  0  0  0  0  0  0  0  0  0  0  0
    2.3541   -3.7759    1.2704 C   0  0  0  0  0  0  0  0  0  0  0  0
    3.7241   -3.9742    1.7066 C   0  0  0  0  0  0  0  0  0  0  0  0
    4.2919   -2.9930    2.4239 N   0  0  0  0  0  0  0  0  0  0  0  0
    5.5530   -3.0835    2.8723 C   0  0  0  0  0  0  0  0  0  0  0  0
    6.3215   -4.2119    2.6039 C   0  0  0  0  0  0  0  0  0  0  0  0
    5.7581   -5.2454    1.8619 C   0  0  0  0  0  0  0  0  0  0  0  0
    4.4484   -5.1293    1.4071 C   0  0  0  0  0  0  0  0  0  0  0  0
    3.9173   -6.1835    0.6676 C   0  0  0  0  0  0  0  0  0  0  0  0
    4.6536   -7.3283    0.3812 C   0  0  0  0  0  0  0  0  0  0  0  0
    5.9613   -7.4226    0.8461 C   0  0  0  0  0  0  0  0  0  0  0  0
    6.5131   -6.3815    1.5860 C   0  0  0  0  0  0  0  0  0  0  0  0
   -0.5653   -0.0089    3.2763 C   0  0  0  0  0  0  0  0  0  0  0  0
   -1.3500   -0.5931    4.4395 C   0  0  0  0  0  0  0  0  0  0  0  0
   -2.4980   -0.9092    4.2904 O   0  0  0  0  0  0  0  0  0  0  0  0
   -0.6804   -0.7771    5.7924 C   0  0  0  0  0  0  0  0  0  0  0  0
   -1.3890    0.0118    6.8545 C   0  0  0  0  0  0  0  0  0  0  0  0
   -0.0754    0.4958    6.3107 C   0  0  0  0  0  0  0  0  0  0  0  0
  1  2  2  0
  1  3  2  0
  1  4  1  0
  4  5  1  0
  1  6  1  0
  6  7  2  0
  7  8  1  0
  8  9  2  0
  9 10  1  0
 10 11  2  0
 11  6  1  0
  9 12  1  0
 12 13  1  0
 13 14  1  0
 14 15  1  0
 15 16  1  0
 16 17  1  0
 17 13  1  0
 17 18  2  0
 16 19  2  0
 19 20  1  0
 20 21  2  0
 21 22  1  0
 22 23  2  0
 23 24  1  0
 24 25  2  0
 25 20  1  0
 25 26  1  0
 26 27  2  0
 27 28  1  0
 28 29  2  0
 29 24  1  0
 14 30  2  0
 30 31  1  0
 31 32  2  0
 31 33  1  0
 33 34  1  0
 34 35  1  0
 35 33  1  0
M  END
$$$$
m_273170____10756668____10761108____10766638
     RDKit          3D

 40 46  0  0  0  0  0  0  0  0999 V2000
   -4.0004    2.6311    0.4362 S   0  0  0  0  0  0  0  0  0  0  0  0
   -4.5337    1.2841   -0.4603 C   0  0  0  0  0  0  0  0  0  0  0  0
   -3.7278    0.2317   -0.0846 C   0  0  0  0  0  0  0  0  0  0  0  0
   -4.0184   -0.9689   -0.7236 C   0  0  0  0  0  0  0  0  0  0  0  0
   -5.0421   -1.0737   -1.6595 C   0  0  0  0  0  0  0  0  0  0  0  0
   -5.8166    0.0342   -1.9897 C   0  0  0  0  0  0  0  0  0  0  0  0
   -5.5684    1.2563   -1.3833 C   0  0  0  0  0  0  0  0  0  0  0  0
   -2.7512    0.5863    0.8891 C   0  0  0  0  0  0  0  0  0  0  0  0
   -2.7439    1.8799    1.3077 C   0  0  0  0  0  0  0  0  0  0  0  0
   -1.7201   -0.3369    1.5092 C   0  0  0  0  0  0  0  0  0  0  0  0
   -0.9010    0.4177    2.4696 N   0  0  0  0  0  0  0  0  0  0  0  0
    0.2992    1.0000    2.2139 C   0  0  0  0  0  0  0  0  0  0  0  0
    0.6692    1.5596    3.3392 N   0  0  0  0  0  0  0  0  0  0  0  0
   -0.2231    1.3648    4.2845 N   0  0  0  0  0  0  0  0  0  0  0  0
   -1.2065    0.6599    3.7721 C   0  0  0  0  0  0  0  0  0  0  0  0
   -2.3989    0.2225    4.4734 C   0  0  0  0  0  0  0  0  0  0  0  0
   -3.2367    1.0462    5.1772 N   0  0  0  0  0  0  0  0  0  0  0  0
   -4.2634    0.4622    5.7426 C   0  0  0  0  0  0  0  0  0  0  0  0
   -4.1403   -1.1925    5.3641 S   0  0  0  0  0  0  0  0  0  0  0  0
   -2.7134   -1.0984    4.4391 C   0  0  0  0  0  0  0  0  0  0  0  0
   -5.2642    1.0642    6.5144 N   0  0  0  0  0  0  0  0  0  0  0  0
   -5.2179    2.5167    6.7443 C   0  0  0  0  0  0  0  0  0  0  0  0
   -6.6200    3.0972    6.8465 C   0  0  0  0  0  0  0  0  0  0  0  0
   -7.4488    2.3097    7.6918 O   0  0  0  0  0  0  0  0  0  0  0  0
   -7.6509    1.0171    7.1357 C   0  0  0  0  0  0  0  0  0  0  0  0
   -6.3499    0.2331    7.0563 C   0  0  0  0  0  0  0  0  0  0  0  0
    1.0000    1.0000    1.0000 N   0  0  0  0  0  0  0  0  0  0  0  0
    0.2658    1.0000   -0.2717 C   0  0  0  0  0  0  0  0  0  0  0  0
    0.5941   -0.2091   -1.0992 C   0  0  0  0  0  0  0  0  0  0  0  0
    1.1857    1.1258   -1.4518 C   0  0  0  0  0  0  0  0  0  0  0  0
    2.4700    1.0000    1.0000 C   0  0  0  0  0  0  0  0  0  0  0  0
    2.9767    2.3843    1.3709 C   0  0  0  0  0  0  0  0  0  0  0  0
    4.2757    2.5466    1.8409 C   0  0  0  0  0  0  0  0  0  0  0  0
    5.1335    1.4487    1.9812 N   0  0  0  0  0  0  0  0  0  0  0  0
    5.7355    1.2748    3.0280 O   0  0  0  0  0  0  0  0  0  0  0  0
    5.2777    0.6725    1.0642 O   0  0  0  0  0  0  0  0  0  0  0  0
    4.7391    3.8130    2.1802 C   0  0  0  0  0  0  0  0  0  0  0  0
    3.9038    4.9174    2.0494 C   0  0  0  0  0  0  0  0  0  0  0  0
    2.6051    4.7550    1.5796 C   0  0  0  0  0  0  0  0  0  0  0  0
    2.1413    3.4884    1.2410 C   0  0  0  0  0  0  0  0  0  0  0  0
  1  2  1  0
  2  3  2  0
  3  4  1  0
  4  5  2  0
  5  6  1  0
  6  7  2  0
  7  2  1  0
  3  8  1  0
  8  9  2  0
  9  1  1  0
  8 10  1  0
 10 11  1  0
 11 12  1  0
 12 13  2  0
 13 14  1  0
 14 15  2  0
 15 11  1  0
 15 16  1  0
 16 17  1  0
 17 18  2  0
 18 19  1  0
 19 20  1  0
 16 20  2  0
 18 21  1  0
 21 22  1  0
 22 23  1  0
 23 24  1  0
 24 25  1  0
 25 26  1  0
 26 21  1  0
 12 27  1  0
 27 28  1  0
 28 29  1  0
 29 30  1  0
 30 28  1  0
 27 31  1  0
 31 32  1  0
 32 33  2  0
 33 34  1  0
 34 35  1  0
 34 36  2  0
 33 37  1  0
 37 38  2  0
 38 39  1  0
 39 40  2  0
 40 32  1  0
M  CHG  2  34   1  35  -1
M  END
$$$$
m_271722____10195638____14652800
     RDKit          3D

 28 32  0  0  0  0  0  0  0  0999 V2000
    7.0358    4.4472    1.0144 S   0  0  0  0  0  0  0  0  0  0  0  0
    7.8478    2.9514    1.0037 C   0  0  0  0  0  0  0  0  0  0  0  0
    6.9188    2.0286    1.0025 N   0  0  0  0  0  0  0  0  0  0  0  0
    5.6279    2.4860    1.0031 C   0  0  0  0  0  0  0  0  0  0  0  0
    4.4578    1.6439    1.0023 C   0  0  0  0  0  0  0  0  0  0  0  0
    3.2149    2.0656    1.0028 O   0  0  0  0  0  0  0  0  0  0  0  0
    2.4498    1.0000    1.0000 C   0  0  0  0  0  0  0  0  0  0  0  0
    3.2131   -0.0686    0.9990 N   0  0  0  0  0  0  0  0  0  0  0  0
    4.4646    0.3319    0.9996 N   0  0  0  0  0  0  0  0  0  0  0  0
    1.0000    1.0000    1.0000 C   0  0  0  0  0  0  0  0  0  0  0  0
    0.3500   -0.1258    0.9970 C   0  0  0  0  0  0  0  0  0  0  0  0
   -1.1018   -0.1258    0.9970 C   0  0  0  0  0  0  0  0  0  0  0  0
   -1.8546   -1.2990    0.9939 C   0  0  0  0  0  0  0  0  0  0  0  0
   -3.2419   -1.2032    0.9946 C   0  0  0  0  0  0  0  0  0  0  0  0
   -3.8405   -0.0038    0.9980 N   0  0  0  0  0  0  0  0  0  0  0  0
   -3.1324    1.1352    1.0004 C   0  0  0  0  0  0  0  0  0  0  0  0
   -1.7424    1.1081    0.9999 C   0  0  0  0  0  0  0  0  0  0  0  0
   -4.0194   -2.3562    0.9928 C   0  0  0  0  0  0  0  0  0  0  0  0
   -3.4263   -3.6141    0.9893 C   0  0  0  0  0  0  0  0  0  0  0  0
   -2.0408   -3.7293    0.9878 C   0  0  0  0  0  0  0  0  0  0  0  0
   -1.2774   -2.5673    0.9900 C   0  0  0  0  0  0  0  0  0  0  0  0
    5.4476    3.8323    1.0092 C   0  0  0  0  0  0  0  0  0  0  0  0
    9.2346    2.7607    1.0053 N   0  0  0  0  0  0  0  0  0  0  0  0
    9.7713    1.3908    0.9950 C   0  0  0  0  0  0  0  0  0  0  0  0
   11.0838    1.3254    0.2294 C   0  0  0  0  0  0  0  0  0  0  0  0
   11.9559    2.3853    0.6004 O   0  0  0  0  0  0  0  0  0  0  0  0
   11.4046    3.6428    0.2321 C   0  0  0  0  0  0  0  0  0  0  0  0
   10.1204    3.9347    0.9933 C   0  0  0  0  0  0  0  0  0  0  0  0
  1  2  1  0
  2  3  2  0
  3  4  1  0
  4  5  1  0
  5  6  1  0
  6  7  1  0
  7  8  2  0
  8  9  1  0
  5  9  2  0
  7 10  1  0
 10 11  2  0
 11 12  1  0
 12 13  2  0
 13 14  1  0
 14 15  2  0
 15 16  1  0
 16 17  2  0
 17 12  1  0
 14 18  1  0
 18 19  2  0
 19 20  1  0
 20 21  2  0
 21 13  1  0
  4 22  2  0
 22  1  1  0
  2 23  1  0
 23 24  1  0
 24 25  1  0
 25 26  1  0
 26 27  1  0
 27 28  1  0
 28 23  1  0
M  END
$$$$
s_270196____10855104____14652798
     RDKit          3D

 29 32  0  0  0  0  0  0  0  0999 V2000
    0.4036    3.7617    2.5293 S   0  0  0  0  0  0  0  0  0  0  0  0
   -0.5826    2.9678    3.2153 O   0  0  0  0  0  0  0  0  0  0  0  0
    0.5651    5.0202    3.2103 O   0  0  0  0  0  0  0  0  0  0  0  0
   -0.0853    4.0313    0.9979 N   0  0  0  0  0  0  0  0  0  0  0  0
   -1.3682    4.7488    1.0123 C   0  0  0  0  0  0  0  0  0  0  0  0
   -1.8241    5.0003   -0.4157 C   0  0  0  0  0  0  0  0  0  0  0  0
    1.9833    2.8783    2.5116 C   0  0  0  0  0  0  0  0  0  0  0  0
    3.1735    3.5977    2.5023 C   0  0  0  0  0  0  0  0  0  0  0  0
    4.3802    2.9056    2.4882 C   0  0  0  0  0  0  0  0  0  0  0  0
    4.4059    1.5148    2.4827 C   0  0  0  0  0  0  0  0  0  0  0  0
    3.2042    0.8141    2.4925 C   0  0  0  0  0  0  0  0  0  0  0  0
    1.9869    1.4870    2.5070 C   0  0  0  0  0  0  0  0  0  0  0  0
    5.6232    3.6528    2.4786 C   0  0  0  0  0  0  0  0  0  0  0  0
    6.8335    3.1456    2.4651 N   0  0  0  0  0  0  0  0  0  0  0  0
    7.6722    4.0959    2.4574 O   0  0  0  0  0  0  0  0  0  0  0  0
    7.0362    5.2421    2.4670 C   0  0  0  0  0  0  0  0  0  0  0  0
    5.7489    5.0058    2.4790 N   0  0  0  0  0  0  0  0  0  0  0  0
    7.6853    6.6165    2.4633 C   0  0  0  0  0  0  0  0  0  0  0  0
    6.9450    7.6851    2.4738 C   0  0  0  0  0  0  0  0  0  0  0  0
    7.5650    8.9978    2.4703 C   0  0  0  0  0  0  0  0  0  0  0  0
    6.8258   10.1795    2.4811 C   0  0  0  0  0  0  0  0  0  0  0  0
    7.5049   11.3930    2.4771 C   0  0  0  0  0  0  0  0  0  0  0  0
    8.8450   11.4221    2.4630 N   0  0  0  0  0  0  0  0  0  0  0  0
    9.5724   10.2953    2.4518 C   0  0  0  0  0  0  0  0  0  0  0  0
    8.9542    9.0500    2.4550 C   0  0  0  0  0  0  0  0  0  0  0  0
    6.7944   12.5885    2.4889 C   0  0  0  0  0  0  0  0  0  0  0  0
    5.4038   12.5895    2.5037 C   0  0  0  0  0  0  0  0  0  0  0  0
    4.7079   11.3859    2.5072 C   0  0  0  0  0  0  0  0  0  0  0  0
    5.4325   10.1993    2.4957 C   0  0  0  0  0  0  0  0  0  0  0  0
  1  2  2  0
  1  3  2  0
  1  4  1  0
  4  5  1  0
  5  6  1  0
  1  7  1  0
  7  8  2  0
  8  9  1  0
  9 10  2  0
 10 11  1  0
 11 12  2  0
 12  7  1  0
  9 13  1  0
 13 14  2  0
 14 15  1  0
 15 16  1  0
 16 17  2  0
 17 13  1  0
 16 18  1  0
 18 19  2  0
 19 20  1  0
 20 21  2  0
 21 22  1  0
 22 23  2  0
 23 24  1  0
 24 25  2  0
 25 20  1  0
 22 26  1  0
 26 27  2  0
 27 28  1  0
 28 29  2  0
 29 21  1  0
M  END
$$$$
m_273170____10759492____10762538____10766638
     RDKit          3D

 42 47  0  0  0  0  0  0  0  0999 V2000
    4.6058   -2.3295    1.7131 S   0  0  0  0  0  0  0  0  0  0  0  0
    4.8011   -2.0333    3.3777 C   0  0  0  0  0  0  0  0  0  0  0  0
    4.3737   -0.8133    3.5868 N   0  0  0  0  0  0  0  0  0  0  0  0
    3.9082   -0.1501    2.4826 C   0  0  0  0  0  0  0  0  0  0  0  0
    3.3905    1.2051    2.4893 C   0  0  0  0  0  0  0  0  0  0  0  0
    4.1071    2.3065    2.4903 N   0  0  0  0  0  0  0  0  0  0  0  0
    3.2789    3.3271    2.4974 N   0  0  0  0  0  0  0  0  0  0  0  0
    2.0315    2.9267    2.5008 C   0  0  0  0  0  0  0  0  0  0  0  0
    2.0806    1.5694    2.4959 N   0  0  0  0  0  0  0  0  0  0  0  0
    0.9245    0.6605    2.4981 C   0  0  0  0  0  0  0  0  0  0  0  0
    0.6865    0.1469    3.9085 C   0  0  0  0  0  0  0  0  0  0  0  0
    1.3778    0.4594    4.9762 O   0  0  0  0  0  0  0  0  0  0  0  0
    0.9059   -0.1657    6.0427 C   0  0  0  0  0  0  0  0  0  0  0  0
   -0.1756   -0.9396    5.6872 C   0  0  0  0  0  0  0  0  0  0  0  0
   -0.8522   -1.6975    6.6386 C   0  0  0  0  0  0  0  0  0  0  0  0
   -0.4537   -1.6929    7.9705 C   0  0  0  0  0  0  0  0  0  0  0  0
    0.6367   -0.9149    8.3449 C   0  0  0  0  0  0  0  0  0  0  0  0
    1.3007   -0.1643    7.3786 C   0  0  0  0  0  0  0  0  0  0  0  0
   -0.2916   -0.7120    4.2983 C   0  0  0  0  0  0  0  0  0  0  0  0
   -1.2216   -1.2610    3.4886 O   0  0  0  0  0  0  0  0  0  0  0  0
   -2.4613   -0.6004    3.2809 C   0  0  0  0  0  0  0  0  0  0  0  0
    0.8853    3.7336    2.5048 N   0  0  0  0  0  0  0  0  0  0  0  0
    0.9743    5.1346    2.9407 C   0  0  0  0  0  0  0  0  0  0  0  0
    1.5226    5.9848    1.8058 C   0  0  0  0  0  0  0  0  0  0  0  0
    0.7291    6.2082    0.6859 C   0  0  0  0  0  0  0  0  0  0  0  0
    1.2333    6.9860   -0.3511 C   0  0  0  0  0  0  0  0  0  0  0  0
    0.4508    7.2233   -1.4869 N   0  0  0  0  0  0  0  0  0  0  0  0
   -0.6970    7.6184   -1.3652 O   0  0  0  0  0  0  0  0  0  0  0  0
    0.9127    7.0367   -2.5896 O   0  0  0  0  0  0  0  0  0  0  0  0
    2.5111    7.5285   -0.2631 C   0  0  0  0  0  0  0  0  0  0  0  0
    2.9886    8.2818   -1.2769 O   0  0  0  0  0  0  0  0  0  0  0  0
    4.3882    8.4738   -1.4206 C   0  0  0  0  0  0  0  0  0  0  0  0
    3.3027    7.3041    0.8587 C   0  0  0  0  0  0  0  0  0  0  0  0
    2.8008    6.5263    1.8971 C   0  0  0  0  0  0  0  0  0  0  0  0
   -0.4056    3.1787    2.0729 C   0  0  0  0  0  0  0  0  0  0  0  0
    3.9421   -0.8166    1.2996 C   0  0  0  0  0  0  0  0  0  0  0  0
    5.3251   -2.9234    4.3226 N   0  0  0  0  0  0  0  0  0  0  0  0
    5.4234   -2.5024    5.7289 C   0  0  0  0  0  0  0  0  0  0  0  0
    5.2224   -3.6829    6.6665 C   0  0  0  0  0  0  0  0  0  0  0  0
    5.9779   -4.8130    6.2496 O   0  0  0  0  0  0  0  0  0  0  0  0
    5.5176   -5.2898    4.9919 C   0  0  0  0  0  0  0  0  0  0  0  0
    5.7420   -4.2658    3.8897 C   0  0  0  0  0  0  0  0  0  0  0  0
  1  2  1  0
  2  3  2  0
  3  4  1  0
  4  5  1  0
  5  6  2  0
  6  7  1  0
  7  8  2  0
  8  9  1  0
  9  5  1  0
  9 10  1  0
 10 11  1  0
 11 12  1  0
 12 13  1  0
 13 14  2  0
 14 15  1  0
 15 16  2  0
 16 17  1  0
 17 18  2  0
 18 13  1  0
 14 19  1  0
 11 19  2  0
 19 20  1  0
 20 21  1  0
  8 22  1  0
 22 23  1  0
 23 24  1  0
 24 25  2  0
 25 26  1  0
 26 27  1  0
 27 28  1  0
 27 29  2  0
 26 30  2  0
 30 31  1  0
 31 32  1  0
 30 33  1  0
 33 34  2  0
 34 24  1  0
 22 35  1  0
  4 36  2  0
 36  1  1  0
  2 37  1  0
 37 38  1  0
 38 39  1  0
 39 40  1  0
 40 41  1  0
 41 42  1  0
 42 37  1  0
M  CHG  2  27   1  28  -1
M  END
$$$$
m_273170____17619788____10761004____10766638
     RDKit          3D

 42 47  0  0  0  0  0  0  0  0999 V2000
    5.3989   -2.0192    2.2162 S   0  0  0  0  0  0  0  0  0  0  0  0
    3.8395   -2.3879    2.7898 C   0  0  0  0  0  0  0  0  0  0  0  0
    3.1971   -1.2494    2.8665 N   0  0  0  0  0  0  0  0  0  0  0  0
    3.9050   -0.1416    2.4827 C   0  0  0  0  0  0  0  0  0  0  0  0
    3.3905    1.2051    2.4893 C   0  0  0  0  0  0  0  0  0  0  0  0
    4.1071    2.3065    2.4903 N   0  0  0  0  0  0  0  0  0  0  0  0
    3.2789    3.3271    2.4974 N   0  0  0  0  0  0  0  0  0  0  0  0
    2.0315    2.9267    2.5008 C   0  0  0  0  0  0  0  0  0  0  0  0
    2.0806    1.5694    2.4959 N   0  0  0  0  0  0  0  0  0  0  0  0
    0.9245    0.6605    2.4981 C   0  0  0  0  0  0  0  0  0  0  0  0
    0.6734    0.1567    1.0862 C   0  0  0  0  0  0  0  0  0  0  0  0
    0.5227   -1.2083    0.8678 C   0  0  0  0  0  0  0  0  0  0  0  0
    0.2933   -1.6573   -0.4281 C   0  0  0  0  0  0  0  0  0  0  0  0
    0.1471   -2.9605   -0.6541 F   0  0  0  0  0  0  0  0  0  0  0  0
    0.2170   -0.7546   -1.4841 C   0  0  0  0  0  0  0  0  0  0  0  0
   -0.0150   -1.2278   -2.7809 N   0  0  0  0  0  0  0  0  0  0  0  0
    0.7027   -0.8676   -3.6992 O   0  0  0  0  0  0  0  0  0  0  0  0
   -0.9276   -1.9942   -2.9910 O   0  0  0  0  0  0  0  0  0  0  0  0
    0.3695    0.6095   -1.2610 C   0  0  0  0  0  0  0  0  0  0  0  0
    0.5992    1.0637    0.0336 C   0  0  0  0  0  0  0  0  0  0  0  0
    0.8853    3.7336    2.5048 N   0  0  0  0  0  0  0  0  0  0  0  0
   -0.4030    3.1782    2.9437 C   0  0  0  0  0  0  0  0  0  0  0  0
   -0.6743    3.6005    4.3787 C   0  0  0  0  0  0  0  0  0  0  0  0
   -1.6853    4.5179    4.6448 C   0  0  0  0  0  0  0  0  0  0  0  0
   -1.9245    4.8959    5.9620 C   0  0  0  0  0  0  0  0  0  0  0  0
   -1.1699    4.3712    7.0061 C   0  0  0  0  0  0  0  0  0  0  0  0
   -0.1635    3.4552    6.7182 C   0  0  0  0  0  0  0  0  0  0  0  0
    0.0918    3.0635    5.4079 C   0  0  0  0  0  0  0  0  0  0  0  0
   -3.0282    5.8989    6.2569 C   0  0  0  0  0  0  0  0  0  0  0  0
    0.9717    5.1351    2.0699 C   0  0  0  0  0  0  0  0  0  0  0  0
    0.7147    5.2184    0.5706 C   0  0  0  0  0  0  0  0  0  0  0  0
   -0.4538    5.3820   -0.0072 O   0  0  0  0  0  0  0  0  0  0  0  0
   -0.3241    5.4098   -1.3159 C   0  0  0  0  0  0  0  0  0  0  0  0
    0.9964    5.2514   -1.6115 C   0  0  0  0  0  0  0  0  0  0  0  0
    1.6822    5.1239   -0.3813 C   0  0  0  0  0  0  0  0  0  0  0  0
    5.1849   -0.3358    2.0717 C   0  0  0  0  0  0  0  0  0  0  0  0
    3.3567   -3.6583    3.1188 N   0  0  0  0  0  0  0  0  0  0  0  0
    1.9086   -3.8545    3.2892 C   0  0  0  0  0  0  0  0  0  0  0  0
    1.4923   -5.2500    2.8504 C   0  0  0  0  0  0  0  0  0  0  0  0
    2.3698   -6.2417    3.3685 O   0  0  0  0  0  0  0  0  0  0  0  0
    3.6769   -6.0872    2.8312 C   0  0  0  0  0  0  0  0  0  0  0  0
    4.3069   -4.7717    3.2630 C   0  0  0  0  0  0  0  0  0  0  0  0
  1  2  1  0
  2  3  2  0
  3  4  1  0
  4  5  1  0
  5  6  2  0
  6  7  1  0
  7  8  2  0
  8  9  1  0
  9  5  1  0
  9 10  1  0
 10 11  1  0
 11 12  2  0
 12 13  1  0
 13 14  1  0
 13 15  2  0
 15 16  1  0
 16 17  1  0
 16 18  2  0
 15 19  1  0
 19 20  2  0
 20 11  1  0
  8 21  1  0
 21 22  1  0
 22 23  1  0
 23 24  2  0
 24 25  1  0
 25 26  2  0
 26 27  1  0
 27 28  2  0
 28 23  1  0
 25 29  1  0
 21 30  1  0
 30 31  1  0
 31 32  1  0
 32 33  1  0
 33 34  2  0
 34 35  1  0
 31 35  2  0
  4 36  2  0
 36  1  1  0
  2 37  1  0
 37 38  1  0
 38 39  1  0
 39 40  1  0
 40 41  1  0
 41 42  1  0
 42 37  1  0
M  CHG  2  16   1  17  -1
M  END
$$$$
m_273170____10759452____10761862____10766558
     RDKit          3D

 46 51  0  0  0  0  0  0  0  0999 V2000
    3.3425   10.1629   -3.8608 Cl  0  0  0  0  0  0  0  0  0  0  0  0
    2.0536    9.3853   -2.9111 C   0  0  0  0  0  0  0  0  0  0  0  0
    2.3833    8.6182   -1.7985 C   0  0  0  0  0  0  0  0  0  0  0  0
    1.3619    8.0185   -1.0695 C   0  0  0  0  0  0  0  0  0  0  0  0
    1.6898    7.2455    0.0505 N   0  0  0  0  0  0  0  0  0  0  0  0
    2.9079    7.0278    0.4894 N   0  0  0  0  0  0  0  0  0  0  0  0
    2.8842    6.2676    1.5572 C   0  0  0  0  0  0  0  0  0  0  0  0
    1.5225    5.9845    1.8061 C   0  0  0  0  0  0  0  0  0  0  0  0
    0.7891    6.6071    0.8458 C   0  0  0  0  0  0  0  0  0  0  0  0
    0.9743    5.1346    2.9407 C   0  0  0  0  0  0  0  0  0  0  0  0
    0.8853    3.7336    2.5048 N   0  0  0  0  0  0  0  0  0  0  0  0
    2.0315    2.9267    2.5008 C   0  0  0  0  0  0  0  0  0  0  0  0
    3.2789    3.3271    2.4974 N   0  0  0  0  0  0  0  0  0  0  0  0
    4.1071    2.3065    2.4903 N   0  0  0  0  0  0  0  0  0  0  0  0
    3.3905    1.2051    2.4893 C   0  0  0  0  0  0  0  0  0  0  0  0
    2.0806    1.5694    2.4959 N   0  0  0  0  0  0  0  0  0  0  0  0
    0.9245    0.6605    2.4981 C   0  0  0  0  0  0  0  0  0  0  0  0
    0.4554    0.4405    3.9276 C   0  0  0  0  0  0  0  0  0  0  0  0
   -0.8310    0.7810    4.3328 C   0  0  0  0  0  0  0  0  0  0  0  0
   -1.2307    0.5812    5.5976 N   0  0  0  0  0  0  0  0  0  0  0  0
   -0.4110    0.0482    6.5161 C   0  0  0  0  0  0  0  0  0  0  0  0
   -0.8269   -0.1613    7.8366 N   0  0  0  0  0  0  0  0  0  0  0  0
   -1.4906   -1.3985    8.2745 C   0  0  0  0  0  0  0  0  0  0  0  0
   -1.1951   -1.6369    9.7469 C   0  0  0  0  0  0  0  0  0  0  0  0
   -1.6902   -0.5884   10.5764 O   0  0  0  0  0  0  0  0  0  0  0  0
   -1.7310    0.6825    9.9366 C   0  0  0  0  0  0  0  0  0  0  0  0
   -0.6334    0.8396    8.8951 C   0  0  0  0  0  0  0  0  0  0  0  0
    0.8856   -0.3108    6.1657 C   0  0  0  0  0  0  0  0  0  0  0  0
    1.7188   -0.8408    7.0561 F   0  0  0  0  0  0  0  0  0  0  0  0
    1.3247   -0.1140    4.8610 C   0  0  0  0  0  0  0  0  0  0  0  0
    3.9080   -0.1495    2.4826 C   0  0  0  0  0  0  0  0  0  0  0  0
    5.1351   -0.4092    3.0844 C   0  0  0  0  0  0  0  0  0  0  0  0
    5.6287   -1.7094    3.0761 C   0  0  0  0  0  0  0  0  0  0  0  0
    7.1615   -2.0524    3.8245 S   0  0  0  0  0  0  0  0  0  0  0  0
    7.5449   -0.9459    4.6626 O   0  0  0  0  0  0  0  0  0  0  0  0
    7.0489   -3.2442    4.6249 O   0  0  0  0  0  0  0  0  0  0  0  0
    8.2911   -2.2773    2.6711 N   0  0  0  0  0  0  0  0  0  0  0  0
    8.4061   -1.0606    1.8541 C   0  0  0  0  0  0  0  0  0  0  0  0
    9.5862   -2.5671    3.3034 C   0  0  0  0  0  0  0  0  0  0  0  0
    4.9150   -2.7431    2.4781 C   0  0  0  0  0  0  0  0  0  0  0  0
    3.6897   -2.4624    1.8823 C   0  0  0  0  0  0  0  0  0  0  0  0
    3.1781   -1.1688    1.8799 C   0  0  0  0  0  0  0  0  0  0  0  0
   -0.4056    3.1787    2.0729 C   0  0  0  0  0  0  0  0  0  0  0  0
    0.0310    8.1788   -1.4415 C   0  0  0  0  0  0  0  0  0  0  0  0
   -0.2856    8.9484   -2.5561 C   0  0  0  0  0  0  0  0  0  0  0  0
    0.7267    9.5536   -3.2938 C   0  0  0  0  0  0  0  0  0  0  0  0
  1  2  1  0
  2  3  2  0
  3  4  1  0
  4  5  1  0
  5  6  1  0
  6  7  2  0
  7  8  1  0
  8  9  2  0
  9  5  1  0
  8 10  1  0
 10 11  1  0
 11 12  1  0
 12 13  2  0
 13 14  1  0
 14 15  2  0
 15 16  1  0
 16 12  1  0
 16 17  1  0
 17 18  1  0
 18 19  2  0
 19 20  1  0
 20 21  2  0
 21 22  1  0
 22 23  1  0
 23 24  1  0
 24 25  1  0
 25 26  1  0
 26 27  1  0
 27 22  1  0
 21 28  1  0
 28 29  1  0
 28 30  2  0
 30 18  1  0
 15 31  1  0
 31 32  2  0
 32 33  1  0
 33 34  1  0
 34 35  2  0
 34 36  2  0
 34 37  1  0
 37 38  1  0
 37 39  1  0
 33 40  2  0
 40 41  1  0
 41 42  2  0
 42 31  1  0
 11 43  1  0
  4 44  2  0
 44 45  1  0
 45 46  2  0
 46  2  1  0
M  END
$$$$
m_273170____10756572____10764846____10766638
     RDKit          3D

 44 50  0  0  0  0  0  0  0  0999 V2000
    4.4060    4.9375    1.3610 S   0  0  0  0  0  0  0  0  0  0  0  0
    5.7656    4.8288    1.8227 O   0  0  0  0  0  0  0  0  0  0  0  0
    4.3732    4.8000   -0.0720 O   0  0  0  0  0  0  0  0  0  0  0  0
    3.8043    6.3931    1.7810 N   0  0  0  0  0  0  0  0  0  0  0  0
    2.4164    6.5041    1.3097 C   0  0  0  0  0  0  0  0  0  0  0  0
    3.4447    3.6813    2.0865 C   0  0  0  0  0  0  0  0  0  0  0  0
    2.6407    2.8778    1.2843 C   0  0  0  0  0  0  0  0  0  0  0  0
    1.8777    1.8777    1.8777 C   0  0  0  0  0  0  0  0  0  0  0  0
    1.9106    1.6740    3.2531 C   0  0  0  0  0  0  0  0  0  0  0  0
    2.7213    2.4884    4.0371 C   0  0  0  0  0  0  0  0  0  0  0  0
    3.4920    3.4948    3.4641 C   0  0  0  0  0  0  0  0  0  0  0  0
    1.0000    1.0000    1.0000 C   0  0  0  0  0  0  0  0  0  0  0  0
    1.7941    0.4801   -0.1233 N   0  0  0  0  0  0  0  0  0  0  0  0
    1.6656    0.8377   -1.4273 C   0  0  0  0  0  0  0  0  0  0  0  0
    2.5624    0.1380   -2.0773 N   0  0  0  0  0  0  0  0  0  0  0  0
    3.2451   -0.6359   -1.2633 N   0  0  0  0  0  0  0  0  0  0  0  0
    2.7891   -0.4433   -0.0461 C   0  0  0  0  0  0  0  0  0  0  0  0
    3.2646   -1.0993    1.1574 C   0  0  0  0  0  0  0  0  0  0  0  0
    4.4505   -0.8190    1.7825 N   0  0  0  0  0  0  0  0  0  0  0  0
    4.7040   -1.5200    2.8591 C   0  0  0  0  0  0  0  0  0  0  0  0
    3.3833   -2.5734    3.0656 S   0  0  0  0  0  0  0  0  0  0  0  0
    2.4865   -2.0661    1.7095 C   0  0  0  0  0  0  0  0  0  0  0  0
    5.8348   -1.4369    3.6801 N   0  0  0  0  0  0  0  0  0  0  0  0
    5.9410   -2.3248    4.8485 C   0  0  0  0  0  0  0  0  0  0  0  0
    7.3904   -2.6967    5.1205 C   0  0  0  0  0  0  0  0  0  0  0  0
    8.2393   -1.5574    5.0636 O   0  0  0  0  0  0  0  0  0  0  0  0
    8.2639   -1.0134    3.7505 C   0  0  0  0  0  0  0  0  0  0  0  0
    6.8994   -0.4806    3.3404 C   0  0  0  0  0  0  0  0  0  0  0  0
    0.7612    1.7587   -1.9671 N   0  0  0  0  0  0  0  0  0  0  0  0
    1.1826    3.1660   -2.0618 C   0  0  0  0  0  0  0  0  0  0  0  0
    0.4189    3.8019   -3.2112 C   0  0  0  0  0  0  0  0  0  0  0  0
    0.7702    4.7327   -4.1432 N   0  0  0  0  0  0  0  0  0  0  0  0
   -0.2434    4.9659   -4.9435 C   0  0  0  0  0  0  0  0  0  0  0  0
   -1.2683    4.1696   -4.5299 N   0  0  0  0  0  0  0  0  0  0  0  0
   -2.5385    4.1140   -5.1162 C   0  0  0  0  0  0  0  0  0  0  0  0
   -2.8712    3.0503   -5.9484 C   0  0  0  0  0  0  0  0  0  0  0  0
   -4.1324    2.9929   -6.5329 C   0  0  0  0  0  0  0  0  0  0  0  0
   -5.0474    4.0080   -6.2724 C   0  0  0  0  0  0  0  0  0  0  0  0
   -4.7173    5.0728   -5.4407 C   0  0  0  0  0  0  0  0  0  0  0  0
   -3.4554    5.1277   -4.8579 C   0  0  0  0  0  0  0  0  0  0  0  0
   -6.4259    3.9475   -6.9099 C   0  0  0  0  0  0  0  0  0  0  0  0
   -0.8583    3.4363   -3.4579 C   0  0  0  0  0  0  0  0  0  0  0  0
   -1.5646    2.3865   -2.6175 C   0  0  0  0  0  0  0  0  0  0  0  0
   -0.5540    1.2702   -2.4162 C   0  0  0  0  0  0  0  0  0  0  0  0
  1  2  2  0
  1  3  2  0
  1  4  1  0
  4  5  1  0
  1  6  1  0
  6  7  2  0
  7  8  1  0
  8  9  2  0
  9 10  1  0
 10 11  2  0
 11  6  1  0
  8 12  1  0
 12 13  1  0
 13 14  1  0
 14 15  2  0
 15 16  1  0
 16 17  2  0
 17 13  1  0
 17 18  1  0
 18 19  1  0
 19 20  2  0
 20 21  1  0
 21 22  1  0
 18 22  2  0
 20 23  1  0
 23 24  1  0
 24 25  1  0
 25 26  1  0
 26 27  1  0
 27 28  1  0
 28 23  1  0
 14 29  1  0
 29 30  1  0
 30 31  1  0
 31 32  1  0
 32 33  2  0
 33 34  1  0
 34 35  1  0
 35 36  2  0
 36 37  1  0
 37 38  2  0
 38 39  1  0
 39 40  2  0
 40 35  1  0
 38 41  1  0
 34 42  1  0
 31 42  2  0
 42 43  1  0
 43 44  1  0
 44 29  1  0
M  END
$$$$
s_43____4567528____16895040
     RDKit          3D

 25 28  0  0  0  0  0  0  0  0999 V2000
    1.0000    1.0000    1.0000 S   0  0  0  0  0  0  0  0  0  0  0  0
   -0.2684    1.6482    0.7889 O   0  0  0  0  0  0  0  0  0  0  0  0
    0.7889   -0.2684    1.6482 O   0  0  0  0  0  0  0  0  0  0  0  0
    1.7337    0.7610   -0.4358 N   0  0  0  0  0  0  0  0  0  0  0  0
    0.8850   -0.0877   -1.2845 C   0  0  0  0  0  0  0  0  0  0  0  0
    2.0045    2.0045    2.0045 C   0  0  0  0  0  0  0  0  0  0  0  0
    1.8584    3.3870    1.9602 C   0  0  0  0  0  0  0  0  0  0  0  0
    2.6665    4.1805    2.7676 C   0  0  0  0  0  0  0  0  0  0  0  0
    3.6073    3.5898    3.6054 C   0  0  0  0  0  0  0  0  0  0  0  0
    3.7498    2.2066    3.6463 C   0  0  0  0  0  0  0  0  0  0  0  0
    2.9434    1.4091    2.8407 C   0  0  0  0  0  0  0  0  0  0  0  0
    4.4406    4.4251    4.4377 C   0  0  0  0  0  0  0  0  0  0  0  0
    5.3962    3.9591    5.2975 N   0  0  0  0  0  0  0  0  0  0  0  0
    6.0390    4.8867    5.9712 C   0  0  0  0  0  0  0  0  0  0  0  0
    5.4042    6.3884    5.4879 S   0  0  0  0  0  0  0  0  0  0  0  0
    4.2664    5.7752    4.3785 C   0  0  0  0  0  0  0  0  0  0  0  0
    7.0967    4.6888    6.9435 C   0  0  0  0  0  0  0  0  0  0  0  0
    7.5839    3.5289    7.3139 O   0  0  0  0  0  0  0  0  0  0  0  0
    8.5356    3.6863    8.2108 C   0  0  0  0  0  0  0  0  0  0  0  0
    8.6889    5.0322    8.4465 C   0  0  0  0  0  0  0  0  0  0  0  0
    9.6396    5.4651    9.3655 C   0  0  0  0  0  0  0  0  0  0  0  0
   10.4389    4.5579   10.0539 C   0  0  0  0  0  0  0  0  0  0  0  0
   10.2835    3.1959    9.8166 C   0  0  0  0  0  0  0  0  0  0  0  0
    9.3305    2.7722    8.8960 C   0  0  0  0  0  0  0  0  0  0  0  0
    7.7474    5.6783    7.6154 C   0  0  0  0  0  0  0  0  0  0  0  0
  1  2  2  0
  1  3  2  0
  1  4  1  0
  4  5  1  0
  1  6  1  0
  6  7  2  0
  7  8  1  0
  8  9  2  0
  9 10  1  0
 10 11  2  0
 11  6  1  0
  9 12  1  0
 12 13  1  0
 13 14  2  0
 14 15  1  0
 15 16  1  0
 12 16  2  0
 14 17  1  0
 17 18  1  0
 18 19  1  0
 19 20  2  0
 20 21  1  0
 21 22  2  0
 22 23  1  0
 23 24  2  0
 24 19  1  0
 20 25  1  0
 17 25  2  0
M  END
$$$$
m_273170____10757278____10765544____10755784
     RDKit          3D

 38 42  0  0  0  0  0  0  0  0999 V2000
   -1.1344   -4.0419    0.5507 S   0  0  0  0  0  0  0  0  0  0  0  0
   -1.1716   -3.6108    1.9242 O   0  0  0  0  0  0  0  0  0  0  0  0
   -2.2135   -3.4241   -0.1756 O   0  0  0  0  0  0  0  0  0  0  0  0
    0.4452   -3.5602   -0.1903 C   0  0  0  0  0  0  0  0  0  0  0  0
    0.5934   -2.0485   -0.1294 C   0  0  0  0  0  0  0  0  0  0  0  0
    0.6867   -1.4171    1.1065 C   0  0  0  0  0  0  0  0  0  0  0  0
    0.8228   -0.0334    1.1492 C   0  0  0  0  0  0  0  0  0  0  0  0
    0.8657    0.7187   -0.0202 C   0  0  0  0  0  0  0  0  0  0  0  0
    0.7707    0.0676   -1.2457 C   0  0  0  0  0  0  0  0  0  0  0  0
    0.6344   -1.3154   -1.3107 C   0  0  0  0  0  0  0  0  0  0  0  0
    0.9245    0.6605    2.4981 C   0  0  0  0  0  0  0  0  0  0  0  0
    2.0806    1.5694    2.4959 N   0  0  0  0  0  0  0  0  0  0  0  0
    2.0315    2.9267    2.5008 C   0  0  0  0  0  0  0  0  0  0  0  0
    3.2789    3.3271    2.4974 N   0  0  0  0  0  0  0  0  0  0  0  0
    4.1071    2.3065    2.4903 N   0  0  0  0  0  0  0  0  0  0  0  0
    3.3905    1.2051    2.4893 C   0  0  0  0  0  0  0  0  0  0  0  0
    3.9081   -0.1498    2.4826 C   0  0  0  0  0  0  0  0  0  0  0  0
    3.2433   -1.1699    3.0513 N   0  0  0  0  0  0  0  0  0  0  0  0
    3.7133   -2.4293    3.0510 C   0  0  0  0  0  0  0  0  0  0  0  0
    4.9334   -2.7165    2.4461 C   0  0  0  0  0  0  0  0  0  0  0  0
    5.6437   -1.6797    1.8501 C   0  0  0  0  0  0  0  0  0  0  0  0
    5.1318   -0.3866    1.8659 C   0  0  0  0  0  0  0  0  0  0  0  0
    5.4558   -4.0052    2.4213 C   0  0  0  0  0  0  0  0  0  0  0  0
    4.7388   -5.0369    3.0187 C   0  0  0  0  0  0  0  0  0  0  0  0
    3.5174   -4.7717    3.6294 C   0  0  0  0  0  0  0  0  0  0  0  0
    3.0129   -3.4753    3.6422 C   0  0  0  0  0  0  0  0  0  0  0  0
    0.8853    3.7336    2.5048 N   0  0  0  0  0  0  0  0  0  0  0  0
    0.9717    5.1351    2.0699 C   0  0  0  0  0  0  0  0  0  0  0  0
    0.7157    5.2181    0.5767 C   0  0  0  0  0  0  0  0  0  0  0  0
   -0.8079    5.4304   -0.1483 S   0  0  0  0  0  0  0  0  0  0  0  0
   -0.2418    5.4078   -1.7555 C   0  0  0  0  0  0  0  0  0  0  0  0
    1.0679    5.2448   -1.6893 N   0  0  0  0  0  0  0  0  0  0  0  0
    1.6245    5.1362   -0.4343 C   0  0  0  0  0  0  0  0  0  0  0  0
   -0.4030    3.1782    2.9437 C   0  0  0  0  0  0  0  0  0  0  0  0
   -0.9132    3.9658    4.1395 C   0  0  0  0  0  0  0  0  0  0  0  0
   -2.0977    3.3593    4.6352 O   0  0  0  0  0  0  0  0  0  0  0  0
   -2.5743    4.0951    5.7523 C   0  0  0  0  0  0  0  0  0  0  0  0
   -1.3110   -5.8418    0.4782 C   0  0  0  0  0  0  0  0  0  0  0  0
  1  2  2  0
  1  3  2  0
  1  4  1  0
  4  5  1  0
  5  6  2  0
  6  7  1  0
  7  8  2  0
  8  9  1  0
  9 10  2  0
 10  5  1  0
  7 11  1  0
 11 12  1  0
 12 13  1  0
 13 14  2  0
 14 15  1  0
 15 16  2  0
 16 12  1  0
 16 17  1  0
 17 18  2  0
 18 19  1  0
 19 20  2  0
 20 21  1  0
 21 22  2  0
 22 17  1  0
 20 23  1  0
 23 24  2  0
 24 25  1  0
 25 26  2  0
 26 19  1  0
 13 27  1  0
 27 28  1  0
 28 29  1  0
 29 30  1  0
 30 31  1  0
 31 32  2  0
 32 33  1  0
 29 33  2  0
 27 34  1  0
 34 35  1  0
 35 36  1  0
 36 37  1  0
  1 38  1  0
M  END
$$$$
m_273170____10756144____10760336____10766638
     RDKit          3D

 43 48  0  0  0  0  0  0  0  0999 V2000
   -1.0282    3.9994    8.8794 S   0  0  0  0  0  0  0  0  0  0  0  0
   -0.0020    3.2668    9.5749 O   0  0  0  0  0  0  0  0  0  0  0  0
   -0.9091    5.4012    9.1865 O   0  0  0  0  0  0  0  0  0  0  0  0
   -2.4934    3.4626    9.3507 N   0  0  0  0  0  0  0  0  0  0  0  0
   -0.8482    3.7639    7.1651 C   0  0  0  0  0  0  0  0  0  0  0  0
   -1.4846    4.6251    6.2778 C   0  0  0  0  0  0  0  0  0  0  0  0
   -1.3422    4.4389    4.9065 C   0  0  0  0  0  0  0  0  0  0  0  0
   -0.5609    3.3868    4.4408 C   0  0  0  0  0  0  0  0  0  0  0  0
    0.0750    2.5254    5.3289 C   0  0  0  0  0  0  0  0  0  0  0  0
   -0.0664    2.7115    6.6997 C   0  0  0  0  0  0  0  0  0  0  0  0
   -0.4030    3.1782    2.9437 C   0  0  0  0  0  0  0  0  0  0  0  0
    0.8853    3.7336    2.5048 N   0  0  0  0  0  0  0  0  0  0  0  0
    2.0315    2.9267    2.5008 C   0  0  0  0  0  0  0  0  0  0  0  0
    3.2789    3.3271    2.4974 N   0  0  0  0  0  0  0  0  0  0  0  0
    4.1071    2.3065    2.4903 N   0  0  0  0  0  0  0  0  0  0  0  0
    3.3905    1.2051    2.4893 C   0  0  0  0  0  0  0  0  0  0  0  0
    2.0806    1.5694    2.4959 N   0  0  0  0  0  0  0  0  0  0  0  0
    0.9245    0.6605    2.4981 C   0  0  0  0  0  0  0  0  0  0  0  0
    0.6734    0.1566    1.0861 C   0  0  0  0  0  0  0  0  0  0  0  0
    0.5231   -1.2096    0.8709 C   0  0  0  0  0  0  0  0  0  0  0  0
    0.2946   -1.6726   -0.4212 C   0  0  0  0  0  0  0  0  0  0  0  0
    0.2191   -0.7696   -1.4783 C   0  0  0  0  0  0  0  0  0  0  0  0
   -0.0100   -1.2280   -2.7720 C   0  0  0  0  0  0  0  0  0  0  0  0
   -0.1613   -2.5937   -2.9886 C   0  0  0  0  0  0  0  0  0  0  0  0
   -0.3839   -3.0396   -4.2435 O   0  0  0  0  0  0  0  0  0  0  0  0
    0.3017   -4.1877   -4.7211 C   0  0  0  0  0  0  0  0  0  0  0  0
   -0.0891   -3.5041   -1.9398 C   0  0  0  0  0  0  0  0  0  0  0  0
    0.1406   -3.0358   -0.6502 C   0  0  0  0  0  0  0  0  0  0  0  0
    0.3687    0.5965   -1.2627 C   0  0  0  0  0  0  0  0  0  0  0  0
    0.5973    1.0572    0.0295 C   0  0  0  0  0  0  0  0  0  0  0  0
    3.9050   -0.1416    2.4827 C   0  0  0  0  0  0  0  0  0  0  0  0
    3.1971   -1.2494    2.8665 N   0  0  0  0  0  0  0  0  0  0  0  0
    3.8395   -2.3879    2.7898 C   0  0  0  0  0  0  0  0  0  0  0  0
    5.3989   -2.0192    2.2162 S   0  0  0  0  0  0  0  0  0  0  0  0
    5.1849   -0.3358    2.0717 C   0  0  0  0  0  0  0  0  0  0  0  0
    3.3567   -3.6583    3.1188 N   0  0  0  0  0  0  0  0  0  0  0  0
    1.9086   -3.8545    3.2892 C   0  0  0  0  0  0  0  0  0  0  0  0
    1.4923   -5.2500    2.8504 C   0  0  0  0  0  0  0  0  0  0  0  0
    2.3698   -6.2417    3.3685 O   0  0  0  0  0  0  0  0  0  0  0  0
    3.6769   -6.0872    2.8312 C   0  0  0  0  0  0  0  0  0  0  0  0
    4.3069   -4.7717    3.2630 C   0  0  0  0  0  0  0  0  0  0  0  0
    0.9717    5.1351    2.0699 C   0  0  0  0  0  0  0  0  0  0  0  0
   -1.5340    3.8825    2.2120 C   0  0  0  0  0  0  0  0  0  0  0  0
  1  2  2  0
  1  3  2  0
  1  4  1  0
  1  5  1  0
  5  6  2  0
  6  7  1  0
  7  8  2  0
  8  9  1  0
  9 10  2  0
 10  5  1  0
  8 11  1  0
 11 12  1  0
 12 13  1  0
 13 14  2  0
 14 15  1  0
 15 16  2  0
 16 17  1  0
 17 13  1  0
 17 18  1  0
 18 19  1  0
 19 20  2  0
 20 21  1  0
 21 22  2  0
 22 23  1  0
 23 24  2  0
 24 25  1  0
 25 26  1  0
 24 27  1  0
 27 28  2  0
 28 21  1  0
 22 29  1  0
 29 30  2  0
 30 19  1  0
 16 31  1  0
 31 32  1  0
 32 33  2  0
 33 34  1  0
 34 35  1  0
 31 35  2  0
 33 36  1  0
 36 37  1  0
 37 38  1  0
 38 39  1  0
 39 40  1  0
 40 41  1  0
 41 36  1  0
 12 42  1  0
 11 43  1  0
M  END
$$$$
m_273170____10756114____10760440____10766732
     RDKit          3D

 42 47  0  0  0  0  0  0  0  0999 V2000
   -2.6091    4.3456    7.9746 O   0  0  0  0  0  0  0  0  0  0  0  0
   -1.7625    3.9874    7.1725 N   0  0  0  0  0  0  0  0  0  0  0  0
   -0.7625    3.4261    7.5585 O   0  0  0  0  0  0  0  0  0  0  0  0
   -1.9480    4.2257    5.8058 C   0  0  0  0  0  0  0  0  0  0  0  0
   -1.1376    3.5767    4.8802 C   0  0  0  0  0  0  0  0  0  0  0  0
   -1.3312    3.8217    3.5249 C   0  0  0  0  0  0  0  0  0  0  0  0
   -2.3175    4.7011    3.0910 C   0  0  0  0  0  0  0  0  0  0  0  0
   -3.1161    5.3385    4.0353 C   0  0  0  0  0  0  0  0  0  0  0  0
   -2.9407    5.1089    5.3955 C   0  0  0  0  0  0  0  0  0  0  0  0
   -0.4485    3.1157    2.5084 C   0  0  0  0  0  0  0  0  0  0  0  0
    0.8853    3.7336    2.5048 N   0  0  0  0  0  0  0  0  0  0  0  0
    2.0315    2.9267    2.5008 C   0  0  0  0  0  0  0  0  0  0  0  0
    3.2789    3.3271    2.4974 N   0  0  0  0  0  0  0  0  0  0  0  0
    4.1071    2.3065    2.4903 N   0  0  0  0  0  0  0  0  0  0  0  0
    3.3905    1.2051    2.4893 C   0  0  0  0  0  0  0  0  0  0  0  0
    2.0806    1.5694    2.4959 N   0  0  0  0  0  0  0  0  0  0  0  0
    0.9245    0.6605    2.4981 C   0  0  0  0  0  0  0  0  0  0  0  0
    0.6865    0.1468    3.9087 C   0  0  0  0  0  0  0  0  0  0  0  0
    1.4535   -1.0931    4.1155 N   0  0  0  0  0  0  0  0  0  0  0  0
    1.4495   -1.5046    5.5274 C   0  0  0  0  0  0  0  0  0  0  0  0
    2.2523   -2.7834    5.7048 C   0  0  0  0  0  0  0  0  0  0  0  0
    1.7399   -3.8115    4.8690 O   0  0  0  0  0  0  0  0  0  0  0  0
    1.7468   -3.4390    3.4975 C   0  0  0  0  0  0  0  0  0  0  0  0
    0.9276   -2.1777    3.2719 C   0  0  0  0  0  0  0  0  0  0  0  0
   -0.7945   -0.1354    4.1020 C   0  0  0  0  0  0  0  0  0  0  0  0
   -1.6167   -0.5507    3.1706 O   0  0  0  0  0  0  0  0  0  0  0  0
   -2.8248   -0.6985    3.6621 C   0  0  0  0  0  0  0  0  0  0  0  0
   -2.8071   -0.3643    4.9815 C   0  0  0  0  0  0  0  0  0  0  0  0
   -1.4764    0.0059    5.2721 C   0  0  0  0  0  0  0  0  0  0  0  0
   -4.0440   -1.1678    2.8849 C   0  0  0  0  0  0  0  0  0  0  0  0
    3.9087   -0.1514    2.4826 C   0  0  0  0  0  0  0  0  0  0  0  0
    3.9835   -0.9271    1.3256 C   0  0  0  0  0  0  0  0  0  0  0  0
    4.4883   -2.2237    1.3727 C   0  0  0  0  0  0  0  0  0  0  0  0
    4.9190   -2.7393    2.5902 C   0  0  0  0  0  0  0  0  0  0  0  0
    4.8482   -1.9723    3.7478 C   0  0  0  0  0  0  0  0  0  0  0  0
    4.3424   -0.6781    3.6937 C   0  0  0  0  0  0  0  0  0  0  0  0
    4.5673   -3.0080    0.2265 C   0  0  0  0  0  0  0  0  0  0  0  0
    4.1377   -2.4995   -0.9948 C   0  0  0  0  0  0  0  0  0  0  0  0
    3.6295   -1.2071   -1.0701 C   0  0  0  0  0  0  0  0  0  0  0  0
    3.5604   -0.4428    0.0899 C   0  0  0  0  0  0  0  0  0  0  0  0
    1.0172    5.1977    2.5052 C   0  0  0  0  0  0  0  0  0  0  0  0
   -1.0683    3.2401    1.1261 C   0  0  0  0  0  0  0  0  0  0  0  0
  1  2  1  0
  2  3  2  0
  2  4  1  0
  4  5  2  0
  5  6  1  0
  6  7  2  0
  7  8  1  0
  8  9  2  0
  9  4  1  0
  6 10  1  0
 10 11  1  0
 11 12  1  0
 12 13  2  0
 13 14  1  0
 14 15  2  0
 15 16  1  0
 16 12  1  0
 16 17  1  0
 17 18  1  0
 18 19  1  0
 19 20  1  0
 20 21  1  0
 21 22  1  0
 22 23  1  0
 23 24  1  0
 24 19  1  0
 18 25  1  0
 25 26  1  0
 26 27  1  0
 27 28  2  0
 28 29  1  0
 25 29  2  0
 27 30  1  0
 15 31  1  0
 31 32  2  0
 32 33  1  0
 33 34  2  0
 34 35  1  0
 35 36  2  0
 36 31  1  0
 33 37  1  0
 37 38  2  0
 38 39  1  0
 39 40  2  0
 40 32  1  0
 11 41  1  0
 10 42  1  0
M  CHG  3   1  -1   2   1  19   1
M  END
$$$$
m_273170____10756572____10761162____10755784
     RDKit          3D

 38 42  0  0  0  0  0  0  0  0999 V2000
    2.1943   -0.9256   -3.7011 S   0  0  0  0  0  0  0  0  0  0  0  0
    2.6920   -0.4330   -4.9594 O   0  0  0  0  0  0  0  0  0  0  0  0
    3.1773   -1.7904   -3.1015 O   0  0  0  0  0  0  0  0  0  0  0  0
    0.8167   -1.7603   -3.9511 N   0  0  0  0  0  0  0  0  0  0  0  0
    1.0859   -2.8927   -4.8488 C   0  0  0  0  0  0  0  0  0  0  0  0
    1.8756    0.4150   -2.6384 C   0  0  0  0  0  0  0  0  0  0  0  0
    1.5776    0.1786   -1.3001 C   0  0  0  0  0  0  0  0  0  0  0  0
    1.3249    1.2596   -0.4622 C   0  0  0  0  0  0  0  0  0  0  0  0
    1.3675    2.5635   -0.9443 C   0  0  0  0  0  0  0  0  0  0  0  0
    1.6674    2.7780   -2.2857 C   0  0  0  0  0  0  0  0  0  0  0  0
    1.9228    1.7111   -3.1410 C   0  0  0  0  0  0  0  0  0  0  0  0
    1.0000    1.0000    1.0000 C   0  0  0  0  0  0  0  0  0  0  0  0
    1.8491    1.8491    1.8491 N   0  0  0  0  0  0  0  0  0  0  0  0
    1.4341    2.9089    2.5903 C   0  0  0  0  0  0  0  0  0  0  0  0
    2.5076    3.3689    3.1840 N   0  0  0  0  0  0  0  0  0  0  0  0
    3.5695    2.6646    2.8617 N   0  0  0  0  0  0  0  0  0  0  0  0
    3.1893    1.7162    2.0355 C   0  0  0  0  0  0  0  0  0  0  0  0
    4.0482    0.7122    1.4344 C   0  0  0  0  0  0  0  0  0  0  0  0
    5.1684    1.0399    0.7694 N   0  0  0  0  0  0  0  0  0  0  0  0
    5.9696    0.1180    0.2099 C   0  0  0  0  0  0  0  0  0  0  0  0
    5.6496   -1.2335    0.3089 C   0  0  0  0  0  0  0  0  0  0  0  0
    4.4950   -1.6007    0.9923 C   0  0  0  0  0  0  0  0  0  0  0  0
    3.6833   -0.6245    1.5617 C   0  0  0  0  0  0  0  0  0  0  0  0
    6.4585   -2.2122   -0.2590 C   0  0  0  0  0  0  0  0  0  0  0  0
    7.6086   -1.8246   -0.9384 C   0  0  0  0  0  0  0  0  0  0  0  0
    7.9509   -0.4813   -1.0515 C   0  0  0  0  0  0  0  0  0  0  0  0
    7.1258    0.4789   -0.4749 C   0  0  0  0  0  0  0  0  0  0  0  0
    0.1296    3.4105    2.6963 N   0  0  0  0  0  0  0  0  0  0  0  0
   -1.0160    2.5599    2.3425 C   0  0  0  0  0  0  0  0  0  0  0  0
   -1.5587    1.8937    3.5963 C   0  0  0  0  0  0  0  0  0  0  0  0
   -1.1305    0.8275    3.9425 O   0  0  0  0  0  0  0  0  0  0  0  0
   -2.5642    2.5279    4.3518 N   0  0  0  0  0  0  0  0  0  0  0  0
   -2.8339    2.1877    5.7576 C   0  0  0  0  0  0  0  0  0  0  0  0
   -4.2933    2.4787    6.0657 C   0  0  0  0  0  0  0  0  0  0  0  0
   -4.6246    3.8580    5.9288 O   0  0  0  0  0  0  0  0  0  0  0  0
   -3.8721    4.5199    4.9172 C   0  0  0  0  0  0  0  0  0  0  0  0
   -3.4290    3.5820    3.8041 C   0  0  0  0  0  0  0  0  0  0  0  0
   -0.0930    4.7872    3.1612 C   0  0  0  0  0  0  0  0  0  0  0  0
  1  2  2  0
  1  3  2  0
  1  4  1  0
  4  5  1  0
  1  6  1  0
  6  7  2  0
  7  8  1  0
  8  9  2  0
  9 10  1  0
 10 11  2  0
 11  6  1  0
  8 12  1  0
 12 13  1  0
 13 14  1  0
 14 15  2  0
 15 16  1  0
 16 17  2  0
 17 13  1  0
 17 18  1  0
 18 19  2  0
 19 20  1  0
 20 21  2  0
 21 22  1  0
 22 23  2  0
 23 18  1  0
 21 24  1  0
 24 25  2  0
 25 26  1  0
 26 27  2  0
 27 20  1  0
 14 28  1  0
 28 29  1  0
 29 30  1  0
 30 31  2  0
 30 32  1  0
 32 33  1  0
 33 34  1  0
 34 35  1  0
 35 36  1  0
 36 37  1  0
 37 32  1  0
 28 38  1  0
M  END
$$$$
s_22____16643718____137563
     RDKit          3D

 36 41  0  0  0  0  0  0  0  0999 V2000
   -0.3126    5.3711   -1.4563 F   0  0  0  0  0  0  0  0  0  0  0  0
    0.6908    6.0014   -0.8522 C   0  0  0  0  0  0  0  0  0  0  0  0
    1.0320    5.6690    0.4541 C   0  0  0  0  0  0  0  0  0  0  0  0
    2.0855    6.3403    1.0659 C   0  0  0  0  0  0  0  0  0  0  0  0
    2.7950    7.3299    0.3929 C   0  0  0  0  0  0  0  0  0  0  0  0
    2.4449    7.6527   -0.9141 C   0  0  0  0  0  0  0  0  0  0  0  0
    1.3920    6.9890   -1.5365 C   0  0  0  0  0  0  0  0  0  0  0  0
    2.4594    5.9793    2.4937 C   0  0  0  0  0  0  0  0  0  0  0  0
    3.4643    4.9065    2.4807 N   0  0  0  0  0  0  0  0  0  0  0  0
    4.7692    5.0808    2.4544 N   0  0  0  0  0  0  0  0  0  0  0  0
    5.3984    3.9309    2.4464 C   0  0  0  0  0  0  0  0  0  0  0  0
    4.4033    2.9277    2.4670 C   0  0  0  0  0  0  0  0  0  0  0  0
    3.1847    3.5699    2.4880 C   0  0  0  0  0  0  0  0  0  0  0  0
    2.0399    2.8609    2.5011 N   0  0  0  0  0  0  0  0  0  0  0  0
    1.9991    1.5162    2.5002 C   0  0  0  0  0  0  0  0  0  0  0  0
    0.7624    0.7588    2.5100 C   0  0  0  0  0  0  0  0  0  0  0  0
    0.8058   -0.6316    2.5084 C   0  0  0  0  0  0  0  0  0  0  0  0
   -0.3829   -1.3542    2.5169 C   0  0  0  0  0  0  0  0  0  0  0  0
   -1.6029   -0.6862    2.5283 C   0  0  0  0  0  0  0  0  0  0  0  0
   -1.6340    0.7029    2.5303 C   0  0  0  0  0  0  0  0  0  0  0  0
   -0.4524    1.4369    2.5212 C   0  0  0  0  0  0  0  0  0  0  0  0
    3.2069    0.8255    2.4899 C   0  0  0  0  0  0  0  0  0  0  0  0
    4.4023    1.5371    2.4741 C   0  0  0  0  0  0  0  0  0  0  0  0
    5.7019    0.7490    2.4614 C   0  0  0  0  0  0  0  0  0  0  0  0
    6.7537    1.3265    2.4448 O   0  0  0  0  0  0  0  0  0  0  0  0
    5.6726   -0.6207    2.4688 N   0  0  0  0  0  0  0  0  0  0  0  0
    6.8697   -1.3466    2.4570 C   0  0  0  0  0  0  0  0  0  0  0  0
    7.0046   -2.7035    2.4623 N   0  0  0  0  0  0  0  0  0  0  0  0
    8.3454   -2.9587    2.4249 C   0  0  0  0  0  0  0  0  0  0  0  0
    9.0003   -1.8188    2.4284 N   0  0  0  0  0  0  0  0  0  0  0  0
    8.1100   -0.7868    2.4420 C   0  0  0  0  0  0  0  0  0  0  0  0
    9.0223   -4.3239    2.3684 C   0  0  0  0  0  0  0  0  0  0  0  0
    8.2474   -5.3298    1.5308 C   0  0  0  0  0  0  0  0  0  0  0  0
    7.1548   -5.9551    2.2012 O   0  0  0  0  0  0  0  0  0  0  0  0
    6.4202   -5.1057    3.0828 C   0  0  0  0  0  0  0  0  0  0  0  0
    5.9812   -3.7703    2.4872 C   0  0  0  0  0  0  0  0  0  0  0  0
  1  2  1  0
  2  3  2  0
  3  4  1  0
  4  5  2  0
  5  6  1  0
  6  7  2  0
  7  2  1  0
  4  8  1  0
  8  9  1  0
  9 10  1  0
 10 11  2  0
 11 12  1  0
 12 13  2  0
 13  9  1  0
 13 14  1  0
 14 15  2  0
 15 16  1  0
 16 17  2  0
 17 18  1  0
 18 19  2  0
 19 20  1  0
 20 21  2  0
 21 16  1  0
 15 22  1  0
 22 23  2  0
 23 12  1  0
 23 24  1  0
 24 25  2  0
 24 26  1  0
 26 27  1  0
 27 28  1  0
 28 29  1  0
 29 30  2  0
 30 31  1  0
 27 31  2  0
 29 32  1  0
 32 33  1  0
 33 34  1  0
 34 35  1  0
 35 36  1  0
 36 28  1  0
M  END
$$$$
m_273170____10759058____10761548____10766740
     RDKit          3D

 37 41  0  0  0  0  0  0  0  0999 V2000
   -4.1955    1.5440    1.8086 O   0  0  0  0  0  0  0  0  0  0  0  0
   -3.8764    2.3974    2.6199 N   0  0  0  0  0  0  0  0  0  0  0  0
   -4.2416    3.5412    2.4702 O   0  0  0  0  0  0  0  0  0  0  0  0
   -3.0876    2.0532    3.7245 C   0  0  0  0  0  0  0  0  0  0  0  0
   -1.6994    2.1101    3.6581 C   0  0  0  0  0  0  0  0  0  0  0  0
   -0.9355    1.7655    4.7678 C   0  0  0  0  0  0  0  0  0  0  0  0
   -1.5594    1.3624    5.9435 C   0  0  0  0  0  0  0  0  0  0  0  0
   -2.9472    1.3053    6.0100 C   0  0  0  0  0  0  0  0  0  0  0  0
   -3.7114    1.6510    4.9004 C   0  0  0  0  0  0  0  0  0  0  0  0
   -1.0174    2.5499    2.3727 C   0  0  0  0  0  0  0  0  0  0  0  0
    0.1296    3.4105    2.6963 N   0  0  0  0  0  0  0  0  0  0  0  0
    1.4341    2.9089    2.5903 C   0  0  0  0  0  0  0  0  0  0  0  0
    2.5076    3.3689    3.1840 N   0  0  0  0  0  0  0  0  0  0  0  0
    3.5695    2.6646    2.8617 N   0  0  0  0  0  0  0  0  0  0  0  0
    3.1893    1.7162    2.0355 C   0  0  0  0  0  0  0  0  0  0  0  0
    1.8491    1.8491    1.8491 N   0  0  0  0  0  0  0  0  0  0  0  0
    1.0000    1.0000    1.0000 C   0  0  0  0  0  0  0  0  0  0  0  0
    1.3249    1.2596   -0.4620 C   0  0  0  0  0  0  0  0  0  0  0  0
    1.6044    0.2798   -1.4394 C   0  0  0  0  0  0  0  0  0  0  0  0
    1.8296    0.9267   -2.5582 N   0  0  0  0  0  0  0  0  0  0  0  0
    1.7148    2.2224   -2.3678 N   0  0  0  0  0  0  0  0  0  0  0  0
    1.4024    2.4753   -1.0675 C   0  0  0  0  0  0  0  0  0  0  0  0
    1.9003    3.2510   -3.4018 C   0  0  0  0  0  0  0  0  0  0  0  0
    0.9544    2.9809   -4.5606 C   0  0  0  0  0  0  0  0  0  0  0  0
    1.1335    3.9743   -5.5593 O   0  0  0  0  0  0  0  0  0  0  0  0
    0.2499    3.7220   -6.6418 C   0  0  0  0  0  0  0  0  0  0  0  0
    4.0477    0.7127    1.4348 C   0  0  0  0  0  0  0  0  0  0  0  0
    4.7253    1.0175    0.2593 C   0  0  0  0  0  0  0  0  0  0  0  0
    5.5477    0.0529   -0.3118 C   0  0  0  0  0  0  0  0  0  0  0  0
    5.6946   -1.2000    0.2764 C   0  0  0  0  0  0  0  0  0  0  0  0
    5.0113   -1.4922    1.4528 C   0  0  0  0  0  0  0  0  0  0  0  0
    4.1857   -0.5347    2.0342 C   0  0  0  0  0  0  0  0  0  0  0  0
    6.5228   -2.1570   -0.2985 C   0  0  0  0  0  0  0  0  0  0  0  0
    7.2049   -1.8546   -1.4728 C   0  0  0  0  0  0  0  0  0  0  0  0
    7.0559   -0.6034   -2.0608 C   0  0  0  0  0  0  0  0  0  0  0  0
    6.2294    0.3566   -1.4860 C   0  0  0  0  0  0  0  0  0  0  0  0
   -0.0916    4.7972    3.1309 C   0  0  0  0  0  0  0  0  0  0  0  0
  1  2  1  0
  2  3  2  0
  2  4  1  0
  4  5  2  0
  5  6  1  0
  6  7  2  0
  7  8  1  0
  8  9  2  0
  9  4  1  0
  5 10  1  0
 10 11  1  0
 11 12  1  0
 12 13  2  0
 13 14  1  0
 14 15  2  0
 15 16  1  0
 16 12  1  0
 16 17  1  0
 17 18  1  0
 18 19  1  0
 19 20  2  0
 20 21  1  0
 21 22  1  0
 18 22  2  0
 21 23  1  0
 23 24  1  0
 24 25  1  0
 25 26  1  0
 15 27  1  0
 27 28  2  0
 28 29  1  0
 29 30  2  0
 30 31  1  0
 31 32  2  0
 32 27  1  0
 30 33  1  0
 33 34  2  0
 34 35  1  0
 35 36  2  0
 36 29  1  0
 11 37  1  0
M  CHG  2   1  -1   2   1
M  END
$$$$
s_43____3014702____87561
     RDKit          3D

 26 29  0  0  0  0  0  0  0  0999 V2000
    1.0000    1.0000    1.0000 S   0  0  0  0  0  0  0  0  0  0  0  0
   -0.2684    1.6482    0.7889 O   0  0  0  0  0  0  0  0  0  0  0  0
    0.7889   -0.2684    1.6482 O   0  0  0  0  0  0  0  0  0  0  0  0
    1.7337    0.7610   -0.4358 N   0  0  0  0  0  0  0  0  0  0  0  0
    0.8850   -0.0877   -1.2845 C   0  0  0  0  0  0  0  0  0  0  0  0
    2.0045    2.0045    2.0045 C   0  0  0  0  0  0  0  0  0  0  0  0
    1.8584    3.3870    1.9602 C   0  0  0  0  0  0  0  0  0  0  0  0
    2.6665    4.1805    2.7676 C   0  0  0  0  0  0  0  0  0  0  0  0
    3.6073    3.5898    3.6054 C   0  0  0  0  0  0  0  0  0  0  0  0
    3.7498    2.2066    3.6463 C   0  0  0  0  0  0  0  0  0  0  0  0
    2.9434    1.4091    2.8407 C   0  0  0  0  0  0  0  0  0  0  0  0
    4.4451    4.4296    4.4422 C   0  0  0  0  0  0  0  0  0  0  0  0
    5.6400    3.8786    5.5194 S   0  0  0  0  0  0  0  0  0  0  0  0
    6.1297    5.4128    6.0741 C   0  0  0  0  0  0  0  0  0  0  0  0
    5.3367    6.2821    5.3870 C   0  0  0  0  0  0  0  0  0  0  0  0
    4.4348    5.7419    4.5127 N   0  0  0  0  0  0  0  0  0  0  0  0
    5.4959    7.7017    5.6352 C   0  0  0  0  0  0  0  0  0  0  0  0
    6.4521    8.1255    6.5517 C   0  0  0  0  0  0  0  0  0  0  0  0
    6.6018    9.4878    6.7852 C   0  0  0  0  0  0  0  0  0  0  0  0
    5.8107   10.4184    6.1179 C   0  0  0  0  0  0  0  0  0  0  0  0
    4.8578    9.9812    5.2029 C   0  0  0  0  0  0  0  0  0  0  0  0
    4.6989    8.6203    4.9603 C   0  0  0  0  0  0  0  0  0  0  0  0
    5.9703   11.7790    6.3536 C   0  0  0  0  0  0  0  0  0  0  0  0
    6.9281   12.2070    7.2675 C   0  0  0  0  0  0  0  0  0  0  0  0
    7.7166   11.2765    7.9352 C   0  0  0  0  0  0  0  0  0  0  0  0
    7.5601    9.9145    7.6991 C   0  0  0  0  0  0  0  0  0  0  0  0
  1  2  2  0
  1  3  2  0
  1  4  1  0
  4  5  1  0
  1  6  1  0
  6  7  2  0
  7  8  1  0
  8  9  2  0
  9 10  1  0
 10 11  2  0
 11  6  1  0
  9 12  1  0
 12 13  1  0
 13 14  1  0
 14 15  2  0
 15 16  1  0
 12 16  2  0
 15 17  1  0
 17 18  2  0
 18 19  1  0
 19 20  2  0
 20 21  1  0
 21 22  2  0
 22 17  1  0
 20 23  1  0
 23 24  2  0
 24 25  1  0
 25 26  2  0
 26 19  1  0
M  END
$$$$
m_273170____10758966____10761548____10766638
     RDKit          3D

 39 44  0  0  0  0  0  0  0  0999 V2000
    7.5041   -1.7831   -0.0114 S   0  0  0  0  0  0  0  0  0  0  0  0
    7.5554   -1.4753    1.6618 C   0  0  0  0  0  0  0  0  0  0  0  0
    6.5112   -0.7326    1.9312 N   0  0  0  0  0  0  0  0  0  0  0  0
    5.7075   -0.4292    0.8647 C   0  0  0  0  0  0  0  0  0  0  0  0
    4.5040    0.3775    0.9393 C   0  0  0  0  0  0  0  0  0  0  0  0
    4.4560    1.6855    1.0558 N   0  0  0  0  0  0  0  0  0  0  0  0
    3.1912    2.0415    1.0908 N   0  0  0  0  0  0  0  0  0  0  0  0
    2.4017    1.0000    1.0000 C   0  0  0  0  0  0  0  0  0  0  0  0
    3.2232   -0.0772    0.9021 N   0  0  0  0  0  0  0  0  0  0  0  0
    2.8010   -1.4805    0.7791 C   0  0  0  0  0  0  0  0  0  0  0  0
    3.1273   -2.2186    2.0569 C   0  0  0  0  0  0  0  0  0  0  0  0
    2.7829   -1.7615    3.2961 N   0  0  0  0  0  0  0  0  0  0  0  0
    3.1513   -2.5313    4.2962 C   0  0  0  0  0  0  0  0  0  0  0  0
    3.9586   -3.8666    3.6236 S   0  0  0  0  0  0  0  0  0  0  0  0
    3.7993   -3.3988    1.9915 C   0  0  0  0  0  0  0  0  0  0  0  0
    2.9535   -2.3313    5.7141 C   0  0  0  0  0  0  0  0  0  0  0  0
    1.9221   -1.7358    6.2764 O   0  0  0  0  0  0  0  0  0  0  0  0
    2.0568   -1.7107    7.5827 C   0  0  0  0  0  0  0  0  0  0  0  0
    3.2361   -2.3185    7.8939 C   0  0  0  0  0  0  0  0  0  0  0  0
    3.8310   -2.7281    6.6786 C   0  0  0  0  0  0  0  0  0  0  0  0
    1.0000    1.0000    1.0000 N   0  0  0  0  0  0  0  0  0  0  0  0
    0.2650   -0.2731    1.0004 C   0  0  0  0  0  0  0  0  0  0  0  0
   -1.0632   -0.0910    1.7170 C   0  0  0  0  0  0  0  0  0  0  0  0
   -2.2379    0.0354    0.9829 C   0  0  0  0  0  0  0  0  0  0  0  0
   -2.2201   -0.0012   -0.4169 N   0  0  0  0  0  0  0  0  0  0  0  0
   -2.7869    0.8690   -1.0570 O   0  0  0  0  0  0  0  0  0  0  0  0
   -1.6426   -0.8959   -0.9914 O   0  0  0  0  0  0  0  0  0  0  0  0
   -3.4529    0.2019    1.6384 C   0  0  0  0  0  0  0  0  0  0  0  0
   -3.4935    0.2417    3.0281 C   0  0  0  0  0  0  0  0  0  0  0  0
   -2.3191    0.1155    3.7619 C   0  0  0  0  0  0  0  0  0  0  0  0
   -1.1038   -0.0502    3.1063 C   0  0  0  0  0  0  0  0  0  0  0  0
    0.2650    2.2731    0.9996 C   0  0  0  0  0  0  0  0  0  0  0  0
    6.0747   -0.9203   -0.3473 C   0  0  0  0  0  0  0  0  0  0  0  0
    8.5317   -1.9256    2.5583 N   0  0  0  0  0  0  0  0  0  0  0  0
    9.6432   -2.7487    2.0562 C   0  0  0  0  0  0  0  0  0  0  0  0
   10.9164   -2.4848    2.8451 C   0  0  0  0  0  0  0  0  0  0  0  0
   10.6682   -2.4738    4.2451 O   0  0  0  0  0  0  0  0  0  0  0  0
    9.8150   -1.3923    4.5963 C   0  0  0  0  0  0  0  0  0  0  0  0
    8.4347   -1.5448    3.9756 C   0  0  0  0  0  0  0  0  0  0  0  0
  1  2  1  0
  2  3  2  0
  3  4  1  0
  4  5  1  0
  5  6  2  0
  6  7  1  0
  7  8  2  0
  8  9  1  0
  9  5  1  0
  9 10  1  0
 10 11  1  0
 11 12  1  0
 12 13  2  0
 13 14  1  0
 14 15  1  0
 11 15  2  0
 13 16  1  0
 16 17  1  0
 17 18  1  0
 18 19  2  0
 19 20  1  0
 16 20  2  0
  8 21  1  0
 21 22  1  0
 22 23  1  0
 23 24  2  0
 24 25  1  0
 25 26  1  0
 25 27  2  0
 24 28  1  0
 28 29  2  0
 29 30  1  0
 30 31  2  0
 31 23  1  0
 21 32  1  0
  4 33  2  0
 33  1  1  0
  2 34  1  0
 34 35  1  0
 35 36  1  0
 36 37  1  0
 37 38  1  0
 38 39  1  0
 39 34  1  0
M  CHG  2  25   1  26  -1
M  END
$$$$
s_2____2757072____14411970____6286554
     RDKit          3D

 40 45  0  0  0  0  0  0  0  0999 V2000
   -0.7363    3.3686   -4.9788 S   0  0  0  0  0  0  0  0  0  0  0  0
    0.5227    3.4648   -5.6710 O   0  0  0  0  0  0  0  0  0  0  0  0
   -1.5146    2.2973   -5.5445 O   0  0  0  0  0  0  0  0  0  0  0  0
   -1.5503    4.7723   -5.1341 N   0  0  0  0  0  0  0  0  0  0  0  0
   -0.4483    3.0487   -3.2931 C   0  0  0  0  0  0  0  0  0  0  0  0
   -1.3789    2.3226   -2.5579 C   0  0  0  0  0  0  0  0  0  0  0  0
   -1.1509    2.0655   -1.2098 C   0  0  0  0  0  0  0  0  0  0  0  0
    0.0117    2.5423   -0.6138 C   0  0  0  0  0  0  0  0  0  0  0  0
    0.9419    3.2690   -1.3498 C   0  0  0  0  0  0  0  0  0  0  0  0
    0.7149    3.5258   -2.6974 C   0  0  0  0  0  0  0  0  0  0  0  0
    0.2650    2.2652    0.8588 C   0  0  0  0  0  0  0  0  0  0  0  0
    1.0000    1.0000    1.0000 N   0  0  0  0  0  0  0  0  0  0  0  0
    2.2727    1.0000    1.0000 C   0  0  0  0  0  0  0  0  0  0  0  0
    3.2932    2.3553    0.8488 S   0  0  0  0  0  0  0  0  0  0  0  0
    4.7811    1.5254    0.9352 C   0  0  0  0  0  0  0  0  0  0  0  0
    4.4252    0.2189    1.0786 C   0  0  0  0  0  0  0  0  0  0  0  0
    3.0922   -0.0787    1.1180 N   0  0  0  0  0  0  0  0  0  0  0  0
    2.5424   -1.4338    1.2651 C   0  0  0  0  0  0  0  0  0  0  0  0
    2.3539   -2.0560   -0.1089 C   0  0  0  0  0  0  0  0  0  0  0  0
    1.8039   -3.4115    0.0382 N   0  0  0  0  0  0  0  0  0  0  0  0
    0.5242   -3.7112    0.0698 N   0  0  0  0  0  0  0  0  0  0  0  0
    0.3623   -5.0054    0.2098 C   0  0  0  0  0  0  0  0  0  0  0  0
    1.6574   -5.5647    0.2698 C   0  0  0  0  0  0  0  0  0  0  0  0
    2.5495   -4.5439    0.1572 C   0  0  0  0  0  0  0  0  0  0  0  0
    1.9909   -7.0415    0.4286 C   0  0  0  0  0  0  0  0  0  0  0  0
    2.8027   -7.5946   -0.7291 C   0  0  0  0  0  0  0  0  0  0  0  0
    3.4152   -8.7552   -0.1945 O   0  0  0  0  0  0  0  0  0  0  0  0
    3.5194   -8.6205    1.2149 C   0  0  0  0  0  0  0  0  0  0  0  0
    2.9669   -7.2562    1.5664 C   0  0  0  0  0  0  0  0  0  0  0  0
    5.4824   -0.7690    1.1795 C   0  0  0  0  0  0  0  0  0  0  0  0
    5.8167   -1.7338    0.2050 C   0  0  0  0  0  0  0  0  0  0  0  0
    6.8230   -2.4173    0.6950 N   0  0  0  0  0  0  0  0  0  0  0  0
    7.1499   -1.9703    1.8849 N   0  0  0  0  0  0  0  0  0  0  0  0
    8.1805   -2.4778    2.6853 C   0  0  0  0  0  0  0  0  0  0  0  0
    8.9490   -3.5425    2.2254 C   0  0  0  0  0  0  0  0  0  0  0  0
    9.9722   -4.0438    3.0233 C   0  0  0  0  0  0  0  0  0  0  0  0
   10.2204   -3.4811    4.2707 C   0  0  0  0  0  0  0  0  0  0  0  0
    9.4461   -2.4167    4.7201 C   0  0  0  0  0  0  0  0  0  0  0  0
    8.4203   -1.9071    3.9310 C   0  0  0  0  0  0  0  0  0  0  0  0
    6.3325   -0.9360    2.2285 C   0  0  0  0  0  0  0  0  0  0  0  0
  1  2  2  0
  1  3  2  0
  1  4  1  0
  1  5  1  0
  5  6  2  0
  6  7  1  0
  7  8  2  0
  8  9  1  0
  9 10  2  0
 10  5  1  0
  8 11  1  0
 11 12  1  0
 12 13  2  0
 13 14  1  0
 14 15  1  0
 15 16  2  0
 16 17  1  0
 17 13  1  0
 17 18  1  0
 18 19  1  0
 19 20  1  0
 20 21  1  0
 21 22  2  0
 22 23  1  0
 23 24  2  0
 24 20  1  0
 23 25  1  0
 25 26  1  0
 26 27  1  0
 27 28  1  0
 28 29  1  0
 29 25  1  0
 16 30  1  0
 30 31  1  0
 31 32  2  0
 32 33  1  0
 33 34  1  0
 34 35  2  0
 35 36  1  0
 36 37  2  0
 37 38  1  0
 38 39  2  0
 39 34  1  0
 33 40  1  0
 30 40  2  0
M  END
$$$$
m_273170____10756572____10760044____10766638
     RDKit          3D

 42 47  0  0  0  0  0  0  0  0999 V2000
    2.1943   -0.9256   -3.7011 S   0  0  0  0  0  0  0  0  0  0  0  0
    2.6920   -0.4330   -4.9594 O   0  0  0  0  0  0  0  0  0  0  0  0
    3.1773   -1.7904   -3.1015 O   0  0  0  0  0  0  0  0  0  0  0  0
    0.8167   -1.7603   -3.9511 N   0  0  0  0  0  0  0  0  0  0  0  0
    1.0859   -2.8927   -4.8488 C   0  0  0  0  0  0  0  0  0  0  0  0
    1.8756    0.4150   -2.6384 C   0  0  0  0  0  0  0  0  0  0  0  0
    1.5776    0.1786   -1.3001 C   0  0  0  0  0  0  0  0  0  0  0  0
    1.3249    1.2596   -0.4622 C   0  0  0  0  0  0  0  0  0  0  0  0
    1.3675    2.5635   -0.9443 C   0  0  0  0  0  0  0  0  0  0  0  0
    1.6674    2.7780   -2.2857 C   0  0  0  0  0  0  0  0  0  0  0  0
    1.9228    1.7111   -3.1410 C   0  0  0  0  0  0  0  0  0  0  0  0
    1.0000    1.0000    1.0000 C   0  0  0  0  0  0  0  0  0  0  0  0
    1.8491    1.8491    1.8491 N   0  0  0  0  0  0  0  0  0  0  0  0
    1.5116    3.0613    2.3604 C   0  0  0  0  0  0  0  0  0  0  0  0
    2.5527    3.4581    3.0497 N   0  0  0  0  0  0  0  0  0  0  0  0
    3.5217    2.5713    3.0027 N   0  0  0  0  0  0  0  0  0  0  0  0
    3.1118    1.5641    2.2651 C   0  0  0  0  0  0  0  0  0  0  0  0
    3.8675    0.3759    1.9566 C   0  0  0  0  0  0  0  0  0  0  0  0
    3.3230   -0.8075    1.5337 N   0  0  0  0  0  0  0  0  0  0  0  0
    4.1756   -1.7745    1.3041 C   0  0  0  0  0  0  0  0  0  0  0  0
    5.7181   -1.1440    1.6508 S   0  0  0  0  0  0  0  0  0  0  0  0
    5.2177    0.4217    2.0964 C   0  0  0  0  0  0  0  0  0  0  0  0
    3.8897   -3.0726    0.8701 N   0  0  0  0  0  0  0  0  0  0  0  0
    2.5970   -3.3451    0.2225 C   0  0  0  0  0  0  0  0  0  0  0  0
    2.7343   -4.4318   -0.8326 C   0  0  0  0  0  0  0  0  0  0  0  0
    3.4882   -5.5355   -0.3477 O   0  0  0  0  0  0  0  0  0  0  0  0
    4.8287   -5.1484   -0.0754 C   0  0  0  0  0  0  0  0  0  0  0  0
    4.8982   -4.1279    1.0504 C   0  0  0  0  0  0  0  0  0  0  0  0
    0.3027    3.7487    2.1850 N   0  0  0  0  0  0  0  0  0  0  0  0
   -0.9047    3.0187    1.7725 C   0  0  0  0  0  0  0  0  0  0  0  0
   -1.6513    2.5368    3.0053 C   0  0  0  0  0  0  0  0  0  0  0  0
   -2.7055    3.1869    3.4667 N   0  0  0  0  0  0  0  0  0  0  0  0
   -3.3846    2.7596    4.5784 C   0  0  0  0  0  0  0  0  0  0  0  0
   -2.9665    1.6147    5.2479 C   0  0  0  0  0  0  0  0  0  0  0  0
   -3.6651    1.1903    6.3766 C   0  0  0  0  0  0  0  0  0  0  0  0
   -4.7729    1.8783    6.8574 C   0  0  0  0  0  0  0  0  0  0  0  0
   -5.1852    3.0216    6.1836 C   0  0  0  0  0  0  0  0  0  0  0  0
   -4.4932    3.4518    5.0562 C   0  0  0  0  0  0  0  0  0  0  0  0
   -1.8315    0.9211    4.7436 C   0  0  0  0  0  0  0  0  0  0  0  0
   -1.3924   -0.0922    5.2661 O   0  0  0  0  0  0  0  0  0  0  0  0
   -1.1991    1.4034    3.6284 N   0  0  0  0  0  0  0  0  0  0  0  0
    0.2424    5.1995    2.4134 C   0  0  0  0  0  0  0  0  0  0  0  0
  1  2  2  0
  1  3  2  0
  1  4  1  0
  4  5  1  0
  1  6  1  0
  6  7  2  0
  7  8  1  0
  8  9  2  0
  9 10  1  0
 10 11  2  0
 11  6  1  0
  8 12  1  0
 12 13  1  0
 13 14  1  0
 14 15  2  0
 15 16  1  0
 16 17  2  0
 17 13  1  0
 17 18  1  0
 18 19  1  0
 19 20  2  0
 20 21  1  0
 21 22  1  0
 18 22  2  0
 20 23  1  0
 23 24  1  0
 24 25  1  0
 25 26  1  0
 26 27  1  0
 27 28  1  0
 28 23  1  0
 14 29  1  0
 29 30  1  0
 30 31  1  0
 31 32  2  0
 32 33  1  0
 33 34  2  0
 34 35  1  0
 35 36  2  0
 36 37  1  0
 37 38  2  0
 38 33  1  0
 34 39  1  0
 39 40  2  0
 39 41  1  0
 41 31  1  0
 29 42  1  0
M  END
$$$$
m_273170____10756572____10765700____10766638
     RDKit          3D

 40 45  0  0  0  0  0  0  0  0999 V2000
    4.4060    4.9375    1.3610 S   0  0  0  0  0  0  0  0  0  0  0  0
    5.7656    4.8288    1.8227 O   0  0  0  0  0  0  0  0  0  0  0  0
    4.3732    4.8000   -0.0720 O   0  0  0  0  0  0  0  0  0  0  0  0
    3.8043    6.3931    1.7810 N   0  0  0  0  0  0  0  0  0  0  0  0
    2.4164    6.5041    1.3097 C   0  0  0  0  0  0  0  0  0  0  0  0
    3.4447    3.6813    2.0865 C   0  0  0  0  0  0  0  0  0  0  0  0
    2.6407    2.8778    1.2843 C   0  0  0  0  0  0  0  0  0  0  0  0
    1.8777    1.8777    1.8777 C   0  0  0  0  0  0  0  0  0  0  0  0
    1.9106    1.6740    3.2531 C   0  0  0  0  0  0  0  0  0  0  0  0
    2.7213    2.4884    4.0371 C   0  0  0  0  0  0  0  0  0  0  0  0
    3.4920    3.4948    3.4641 C   0  0  0  0  0  0  0  0  0  0  0  0
    1.0000    1.0000    1.0000 C   0  0  0  0  0  0  0  0  0  0  0  0
    1.7941    0.4801   -0.1233 N   0  0  0  0  0  0  0  0  0  0  0  0
    1.6656    0.8377   -1.4273 C   0  0  0  0  0  0  0  0  0  0  0  0
    2.5624    0.1380   -2.0773 N   0  0  0  0  0  0  0  0  0  0  0  0
    3.2451   -0.6359   -1.2633 N   0  0  0  0  0  0  0  0  0  0  0  0
    2.7891   -0.4433   -0.0461 C   0  0  0  0  0  0  0  0  0  0  0  0
    3.2646   -1.0993    1.1574 C   0  0  0  0  0  0  0  0  0  0  0  0
    4.4502   -0.8186    1.7828 N   0  0  0  0  0  0  0  0  0  0  0  0
    4.7038   -1.5197    2.8593 C   0  0  0  0  0  0  0  0  0  0  0  0
    3.3835   -2.5737    3.0654 S   0  0  0  0  0  0  0  0  0  0  0  0
    2.4868   -2.0665    1.7092 C   0  0  0  0  0  0  0  0  0  0  0  0
    5.8344   -1.4362    3.6806 N   0  0  0  0  0  0  0  0  0  0  0  0
    5.9406   -2.3242    4.8489 C   0  0  0  0  0  0  0  0  0  0  0  0
    7.3902   -2.6955    5.1213 C   0  0  0  0  0  0  0  0  0  0  0  0
    8.2386   -1.5559    5.0648 O   0  0  0  0  0  0  0  0  0  0  0  0
    8.2632   -1.0116    3.7517 C   0  0  0  0  0  0  0  0  0  0  0  0
    6.8986   -0.4794    3.3414 C   0  0  0  0  0  0  0  0  0  0  0  0
    0.7602    1.7597   -1.9677 N   0  0  0  0  0  0  0  0  0  0  0  0
   -0.5697    1.3211   -2.4234 C   0  0  0  0  0  0  0  0  0  0  0  0
   -0.6331    1.1390   -3.9338 C   0  0  0  0  0  0  0  0  0  0  0  0
    0.0387    1.9670   -4.8402 C   0  0  0  0  0  0  0  0  0  0  0  0
    0.8308    3.0024   -4.4724 O   0  0  0  0  0  0  0  0  0  0  0  0
    0.5799    3.7996   -3.3209 C   0  0  0  0  0  0  0  0  0  0  0  0
    1.1723    3.1680   -2.0721 C   0  0  0  0  0  0  0  0  0  0  0  0
    1.1770    5.1890   -3.4733 C   0  0  0  0  0  0  0  0  0  0  0  0
   -0.0898    1.7361   -6.2056 C   0  0  0  0  0  0  0  0  0  0  0  0
   -0.8724    0.6808   -6.6632 C   0  0  0  0  0  0  0  0  0  0  0  0
   -1.5264   -0.1441   -5.7547 C   0  0  0  0  0  0  0  0  0  0  0  0
   -1.4092    0.0783   -4.3866 C   0  0  0  0  0  0  0  0  0  0  0  0
  1  2  2  0
  1  3  2  0
  1  4  1  0
  4  5  1  0
  1  6  1  0
  6  7  2  0
  7  8  1  0
  8  9  2  0
  9 10  1  0
 10 11  2  0
 11  6  1  0
  8 12  1  0
 12 13  1  0
 13 14  1  0
 14 15  2  0
 15 16  1  0
 16 17  2  0
 17 13  1  0
 17 18  1  0
 18 19  1  0
 19 20  2  0
 20 21  1  0
 21 22  1  0
 18 22  2  0
 20 23  1  0
 23 24  1  0
 24 25  1  0
 25 26  1  0
 26 27  1  0
 27 28  1  0
 28 23  1  0
 14 29  1  0
 29 30  1  0
 30 31  1  0
 31 32  2  0
 32 33  1  0
 33 34  1  0
 34 35  1  0
 35 29  1  0
 34 36  1  0
 32 37  1  0
 37 38  2  0
 38 39  1  0
 39 40  2  0
 40 31  1  0
M  END
$$$$
m_273170____10759042____10761984____10766740
     RDKit          3D

 41 46  0  0  0  0  0  0  0  0999 V2000
    9.6641    3.9414    6.2867 O   0  0  0  0  0  0  0  0  0  0  0  0
    8.8409    4.9069    5.9462 C   0  0  0  0  0  0  0  0  0  0  0  0
    8.7706    5.8194    6.9531 C   0  0  0  0  0  0  0  0  0  0  0  0
    9.6398    5.3255    7.9533 C   0  0  0  0  0  0  0  0  0  0  0  0
   10.1652    4.1597    7.4831 C   0  0  0  0  0  0  0  0  0  0  0  0
    8.0665    5.0077    4.6381 C   0  0  0  0  0  0  0  0  0  0  0  0
    7.3710    3.7384    4.3813 N   0  0  0  0  0  0  0  0  0  0  0  0
    6.4255    3.2593    5.2985 C   0  0  0  0  0  0  0  0  0  0  0  0
    6.6471    2.4735    6.3231 N   0  0  0  0  0  0  0  0  0  0  0  0
    5.5353    2.2146    6.9746 N   0  0  0  0  0  0  0  0  0  0  0  0
    4.5552    2.8442    6.3666 C   0  0  0  0  0  0  0  0  0  0  0  0
    5.0905    3.5091    5.3082 N   0  0  0  0  0  0  0  0  0  0  0  0
    4.3589    4.3481    4.3471 C   0  0  0  0  0  0  0  0  0  0  0  0
    3.4808    3.4687    3.4713 C   0  0  0  0  0  0  0  0  0  0  0  0
    2.1383    3.7935    3.3040 C   0  0  0  0  0  0  0  0  0  0  0  0
    1.3307    2.9935    2.5029 C   0  0  0  0  0  0  0  0  0  0  0  0
    1.8776    1.8776    1.8776 C   0  0  0  0  0  0  0  0  0  0  0  0
    3.2191    1.5516    2.0450 C   0  0  0  0  0  0  0  0  0  0  0  0
    4.0265    2.3510    2.8474 C   0  0  0  0  0  0  0  0  0  0  0  0
    1.0000    1.0000    1.0000 C   0  0  0  0  0  0  0  0  0  0  0  0
    1.6402    0.7899   -0.2500 O   0  0  0  0  0  0  0  0  0  0  0  0
    0.8204   -0.0299   -1.0698 C   0  0  0  0  0  0  0  0  0  0  0  0
    1.5057   -0.2548   -2.4078 C   0  0  0  0  0  0  0  0  0  0  0  0
    0.6858   -1.0746   -3.2276 O   0  0  0  0  0  0  0  0  0  0  0  0
    1.3260   -1.2847   -4.4776 C   0  0  0  0  0  0  0  0  0  0  0  0
    3.1591    2.8293    6.7577 C   0  0  0  0  0  0  0  0  0  0  0  0
    2.5347    4.0282    7.0839 C   0  0  0  0  0  0  0  0  0  0  0  0
    1.1956    4.0087    7.4571 C   0  0  0  0  0  0  0  0  0  0  0  0
    0.4851    2.8130    7.5072 C   0  0  0  0  0  0  0  0  0  0  0  0
    1.1216    1.6202    7.1779 C   0  0  0  0  0  0  0  0  0  0  0  0
    2.4614    1.6269    6.8024 C   0  0  0  0  0  0  0  0  0  0  0  0
   -0.8549    2.8030    7.8766 C   0  0  0  0  0  0  0  0  0  0  0  0
   -1.4839    4.0009    8.2005 C   0  0  0  0  0  0  0  0  0  0  0  0
   -0.7728    5.1948    8.1522 C   0  0  0  0  0  0  0  0  0  0  0  0
    0.5678    5.2074    7.7806 C   0  0  0  0  0  0  0  0  0  0  0  0
    7.6671    2.9715    3.1627 C   0  0  0  0  0  0  0  0  0  0  0  0
    7.3477    3.8207    1.9378 C   0  0  0  0  0  0  0  0  0  0  0  0
    8.4487    4.5964    1.4921 O   0  0  0  0  0  0  0  0  0  0  0  0
    8.1690    4.9623    0.1538 C   0  0  0  0  0  0  0  0  0  0  0  0
    7.2752    3.8823   -0.4222 C   0  0  0  0  0  0  0  0  0  0  0  0
    7.1627    2.9126    0.7355 C   0  0  0  0  0  0  0  0  0  0  0  0
  1  2  1  0
  2  3  2  0
  3  4  1  0
  4  5  2  0
  5  1  1  0
  2  6  1  0
  6  7  1  0
  7  8  1  0
  8  9  2  0
  9 10  1  0
 10 11  2  0
 11 12  1  0
 12  8  1  0
 12 13  1  0
 13 14  1  0
 14 15  2  0
 15 16  1  0
 16 17  2  0
 17 18  1  0
 18 19  2  0
 19 14  1  0
 17 20  1  0
 20 21  1  0
 21 22  1  0
 22 23  1  0
 23 24  1  0
 24 25  1  0
 11 26  1  0
 26 27  2  0
 27 28  1  0
 28 29  2  0
 29 30  1  0
 30 31  2  0
 31 26  1  0
 29 32  1  0
 32 33  2  0
 33 34  1  0
 34 35  2  0
 35 28  1  0
  7 36  1  0
 36 37  1  0
 37 38  1  0
 38 39  1  0
 39 40  1  0
 40 41  1  0
 41 37  1  0
M  END
$$$$
m_274972____15150082____12615770____14260852
     RDKit          3D

 28 32  0  0  0  0  0  0  0  0999 V2000
    5.4654   -1.9798    2.3750 S   0  0  0  0  0  0  0  0  0  0  0  0
    3.8153   -2.3902    2.3889 C   0  0  0  0  0  0  0  0  0  0  0  0
    3.1362   -1.2653    2.4190 N   0  0  0  0  0  0  0  0  0  0  0  0
    3.8973   -0.1294    2.4325 C   0  0  0  0  0  0  0  0  0  0  0  0
    3.3679    1.2133    2.4745 C   0  0  0  0  0  0  0  0  0  0  0  0
    4.0997    2.3609    2.4928 N   0  0  0  0  0  0  0  0  0  0  0  0
    3.2864    3.3264    2.5304 N   0  0  0  0  0  0  0  0  0  0  0  0
    2.0449    2.9079    2.5406 N   0  0  0  0  0  0  0  0  0  0  0  0
    2.0495    1.5504    2.5067 C   0  0  0  0  0  0  0  0  0  0  0  0
    0.8509    3.7641    2.5836 C   0  0  0  0  0  0  0  0  0  0  0  0
    0.4156    4.0964    1.1686 C   0  0  0  0  0  0  0  0  0  0  0  0
    0.1007    2.9306    0.4280 O   0  0  0  0  0  0  0  0  0  0  0  0
   -1.2840    2.9674    0.1245 C   0  0  0  0  0  0  0  0  0  0  0  0
   -1.5608    4.4454   -0.0179 C   0  0  0  0  0  0  0  0  0  0  0  0
   -2.8668    4.7096   -0.0106 F   0  0  0  0  0  0  0  0  0  0  0  0
   -1.0307    4.9668   -1.1242 F   0  0  0  0  0  0  0  0  0  0  0  0
   -0.8707    4.8786    1.2607 C   0  0  0  0  0  0  0  0  0  0  0  0
    5.2502   -0.2906    2.4139 C   0  0  0  0  0  0  0  0  0  0  0  0
    3.2779   -3.7384    2.3657 C   0  0  0  0  0  0  0  0  0  0  0  0
    1.9561   -3.9778    2.3789 N   0  0  0  0  0  0  0  0  0  0  0  0
    1.4493   -5.2218    2.3575 C   0  0  0  0  0  0  0  0  0  0  0  0
    2.3041   -6.3204    2.3201 C   0  0  0  0  0  0  0  0  0  0  0  0
    3.6776   -6.1009    2.3056 C   0  0  0  0  0  0  0  0  0  0  0  0
    4.1748   -4.8015    2.3289 C   0  0  0  0  0  0  0  0  0  0  0  0
    1.8108   -7.6207    2.2969 C   0  0  0  0  0  0  0  0  0  0  0  0
    0.4342   -7.8192    2.3121 C   0  0  0  0  0  0  0  0  0  0  0  0
   -0.4412   -6.7390    2.3492 C   0  0  0  0  0  0  0  0  0  0  0  0
    0.0765   -5.4480    2.3718 C   0  0  0  0  0  0  0  0  0  0  0  0
  1  2  1  0
  2  3  2  0
  3  4  1  0
  4  5  1  0
  5  6  1  0
  6  7  2  0
  7  8  1  0
  8  9  1  0
  5  9  2  0
  8 10  1  0
 10 11  1  0
 11 12  1  0
 12 13  1  0
 13 14  1  0
 14 15  1  0
 14 16  1  0
 14 17  1  0
 17 11  1  0
  4 18  2  0
 18  1  1  0
  2 19  1  0
 19 20  2  0
 20 21  1  0
 21 22  2  0
 22 23  1  0
 23 24  2  0
 24 19  1  0
 22 25  1  0
 25 26  2  0
 26 27  1  0
 27 28  2  0
 28 21  1  0
M  END
$$$$
m_273170____14419994____10761548____10755784
     RDKit          3D

 37 42  0  0  0  0  0  0  0  0999 V2000
   -0.1091    0.8727    4.6614 O   0  0  0  0  0  0  0  0  0  0  0  0
   -0.2562    0.0089    3.8124 N   0  0  0  0  0  0  0  0  0  0  0  0
    0.5278   -0.9100    3.7421 O   0  0  0  0  0  0  0  0  0  0  0  0
   -1.3324    0.0810    2.9194 C   0  0  0  0  0  0  0  0  0  0  0  0
   -1.1350   -0.0496    1.5488 C   0  0  0  0  0  0  0  0  0  0  0  0
   -2.2185    0.0234    0.6802 C   0  0  0  0  0  0  0  0  0  0  0  0
   -3.4993    0.2286    1.1818 C   0  0  0  0  0  0  0  0  0  0  0  0
   -3.6967    0.3594    2.5520 C   0  0  0  0  0  0  0  0  0  0  0  0
   -2.6132    0.2853    3.4210 C   0  0  0  0  0  0  0  0  0  0  0  0
    0.2650   -0.2731    1.0004 C   0  0  0  0  0  0  0  0  0  0  0  0
    1.0000    1.0000    1.0000 N   0  0  0  0  0  0  0  0  0  0  0  0
    2.4017    1.0000    1.0000 C   0  0  0  0  0  0  0  0  0  0  0  0
    3.1912    1.9825    1.3572 N   0  0  0  0  0  0  0  0  0  0  0  0
    4.4560    1.6477    1.2313 N   0  0  0  0  0  0  0  0  0  0  0  0
    4.5040    0.4144    0.7803 C   0  0  0  0  0  0  0  0  0  0  0  0
    3.2232   -0.0152    0.6266 N   0  0  0  0  0  0  0  0  0  0  0  0
    2.8010   -1.3388    0.1446 C   0  0  0  0  0  0  0  0  0  0  0  0
    2.5317   -1.2716   -1.3492 C   0  0  0  0  0  0  0  0  0  0  0  0
    1.3383   -0.9742   -1.9356 N   0  0  0  0  0  0  0  0  0  0  0  0
    1.5044   -1.0189   -3.1871 N   0  0  0  0  0  0  0  0  0  0  0  0
    2.7415   -1.3289   -3.4876 N   0  0  0  0  0  0  0  0  0  0  0  0
    3.4397   -1.5008   -2.3344 C   0  0  0  0  0  0  0  0  0  0  0  0
    3.2829   -1.4693   -4.8441 C   0  0  0  0  0  0  0  0  0  0  0  0
    4.4245   -0.5168   -5.1552 C   0  0  0  0  0  0  0  0  0  0  0  0
    5.0537   -1.6111   -5.8132 O   0  0  0  0  0  0  0  0  0  0  0  0
    4.3472   -2.5360   -4.9847 C   0  0  0  0  0  0  0  0  0  0  0  0
    5.7075   -0.3455    0.4994 C   0  0  0  0  0  0  0  0  0  0  0  0
    6.1142   -0.5986   -0.7562 N   0  0  0  0  0  0  0  0  0  0  0  0
    7.2273   -1.3013   -1.0282 C   0  0  0  0  0  0  0  0  0  0  0  0
    8.0076   -1.7986    0.0115 C   0  0  0  0  0  0  0  0  0  0  0  0
    7.6103   -1.5524    1.3214 C   0  0  0  0  0  0  0  0  0  0  0  0
    6.4537   -0.8216    1.5720 C   0  0  0  0  0  0  0  0  0  0  0  0
    9.1674   -2.5290   -0.2249 C   0  0  0  0  0  0  0  0  0  0  0  0
    9.5586   -2.7701   -1.5380 C   0  0  0  0  0  0  0  0  0  0  0  0
    8.7929   -2.2826   -2.5921 C   0  0  0  0  0  0  0  0  0  0  0  0
    7.6366   -1.5538   -2.3332 C   0  0  0  0  0  0  0  0  0  0  0  0
    0.2650    2.2731    0.9996 C   0  0  0  0  0  0  0  0  0  0  0  0
  1  2  1  0
  2  3  2  0
  2  4  1  0
  4  5  2  0
  5  6  1  0
  6  7  2  0
  7  8  1  0
  8  9  2  0
  9  4  1  0
  5 10  1  0
 10 11  1  0
 11 12  1  0
 12 13  2  0
 13 14  1  0
 14 15  2  0
 15 16  1  0
 16 12  1  0
 16 17  1  0
 17 18  1  0
 18 19  1  0
 19 20  2  0
 20 21  1  0
 21 22  1  0
 18 22  2  0
 21 23  1  0
 23 24  1  0
 24 25  1  0
 25 26  1  0
 26 23  1  0
 15 27  1  0
 27 28  2  0
 28 29  1  0
 29 30  2  0
 30 31  1  0
 31 32  2  0
 32 27  1  0
 30 33  1  0
 33 34  2  0
 34 35  1  0
 35 36  2  0
 36 29  1  0
 11 37  1  0
M  CHG  2   1  -1   2   1
M  END
$$$$
s_2____11687950____16506322____86635
     RDKit          3D

 37 42  0  0  0  0  0  0  0  0999 V2000
    8.7035    4.6112   -1.7892 S   0  0  0  0  0  0  0  0  0  0  0  0
    8.4310    6.0251   -1.8034 O   0  0  0  0  0  0  0  0  0  0  0  0
   10.1044    4.3949   -1.5351 O   0  0  0  0  0  0  0  0  0  0  0  0
    8.3074    3.9669   -3.2332 N   0  0  0  0  0  0  0  0  0  0  0  0
    7.7633    3.8519   -0.5379 C   0  0  0  0  0  0  0  0  0  0  0  0
    8.0337    4.1380    0.7961 C   0  0  0  0  0  0  0  0  0  0  0  0
    7.2790    3.5274    1.7920 C   0  0  0  0  0  0  0  0  0  0  0  0
    6.2650    2.6409    1.4454 C   0  0  0  0  0  0  0  0  0  0  0  0
    5.5094    2.0301    2.4537 N   0  0  0  0  0  0  0  0  0  0  0  0
    4.2406    2.1295    2.4468 C   0  0  0  0  0  0  0  0  0  0  0  0
    3.3299    3.5681    2.4036 S   0  0  0  0  0  0  0  0  0  0  0  0
    1.7813    2.8529    2.4247 C   0  0  0  0  0  0  0  0  0  0  0  0
    2.0334    1.5154    2.4653 C   0  0  0  0  0  0  0  0  0  0  0  0
    3.3388    1.1121    2.4746 N   0  0  0  0  0  0  0  0  0  0  0  0
    3.7804   -0.2891    2.5193 C   0  0  0  0  0  0  0  0  0  0  0  0
    3.8082   -0.7669    3.9655 C   0  0  0  0  0  0  0  0  0  0  0  0
    4.1627   -2.0042    4.4166 C   0  0  0  0  0  0  0  0  0  0  0  0
    4.0261   -1.9736    5.7717 N   0  0  0  0  0  0  0  0  0  0  0  0
    3.5811   -0.7806    6.1329 N   0  0  0  0  0  0  0  0  0  0  0  0
    3.4302    0.0001    5.0905 C   0  0  0  0  0  0  0  0  0  0  0  0
    4.3482   -3.1730    6.5705 C   0  0  0  0  0  0  0  0  0  0  0  0
    4.0795   -4.4875    5.8461 C   0  0  0  0  0  0  0  0  0  0  0  0
    4.5988   -4.4704    4.4735 N   0  0  0  0  0  0  0  0  0  0  0  0
    4.5780   -3.2460    3.7833 C   0  0  0  0  0  0  0  0  0  0  0  0
    4.8915   -3.2843    2.6194 O   0  0  0  0  0  0  0  0  0  0  0  0
    5.0984   -5.7114    3.8508 C   0  0  0  0  0  0  0  0  0  0  0  0
    0.9034    0.6099    2.4960 C   0  0  0  0  0  0  0  0  0  0  0  0
    0.8189   -0.5252    1.8447 O   0  0  0  0  0  0  0  0  0  0  0  0
   -0.3343   -1.1158    2.0823 C   0  0  0  0  0  0  0  0  0  0  0  0
   -1.0555   -0.3244    2.9449 C   0  0  0  0  0  0  0  0  0  0  0  0
   -2.3226   -0.7293    3.3524 C   0  0  0  0  0  0  0  0  0  0  0  0
   -2.8758   -1.9231    2.8999 C   0  0  0  0  0  0  0  0  0  0  0  0
   -2.1469   -2.7238    2.0262 C   0  0  0  0  0  0  0  0  0  0  0  0
   -0.8807   -2.3110    1.6242 C   0  0  0  0  0  0  0  0  0  0  0  0
   -0.2405    0.7982    3.2100 C   0  0  0  0  0  0  0  0  0  0  0  0
    6.0000    2.3590    0.1099 C   0  0  0  0  0  0  0  0  0  0  0  0
    6.7510    2.9659   -0.8909 C   0  0  0  0  0  0  0  0  0  0  0  0
  1  2  2  0
  1  3  2  0
  1  4  1  0
  1  5  1  0
  5  6  2  0
  6  7  1  0
  7  8  2  0
  8  9  1  0
  9 10  2  0
 10 11  1  0
 11 12  1  0
 12 13  2  0
 13 14  1  0
 14 10  1  0
 14 15  1  0
 15 16  1  0
 16 17  2  0
 17 18  1  0
 18 19  1  0
 19 20  2  0
 20 16  1  0
 18 21  1  0
 21 22  1  0
 22 23  1  0
 23 24  1  0
 24 17  1  0
 24 25  2  0
 23 26  1  0
 13 27  1  0
 27 28  1  0
 28 29  1  0
 29 30  2  0
 30 31  1  0
 31 32  2  0
 32 33  1  0
 33 34  2  0
 34 29  1  0
 30 35  1  0
 27 35  2  0
  8 36  1  0
 36 37  2  0
 37  5  1  0
M  END
$$$$
s_22____9105540____135464
     RDKit          3D

 35 39  0  0  0  0  0  0  0  0999 V2000
    4.9514   -5.2455    1.5652 F   0  0  0  0  0  0  0  0  0  0  0  0
    4.3258   -4.1508    1.9885 C   0  0  0  0  0  0  0  0  0  0  0  0
    4.5514   -3.9862    3.2888 F   0  0  0  0  0  0  0  0  0  0  0  0
    4.8126   -3.0224    1.2771 O   0  0  0  0  0  0  0  0  0  0  0  0
    4.1440   -1.8524    1.7295 C   0  0  0  0  0  0  0  0  0  0  0  0
    4.6283   -0.6171    1.0000 C   0  0  0  0  0  0  0  0  0  0  0  0
    3.2209   -0.2141    1.0000 N   0  0  0  0  0  0  0  0  0  0  0  0
    2.5200    1.0000    1.0000 C   0  0  0  0  0  0  0  0  0  0  0  0
    3.1200    2.0392    1.0000 O   0  0  0  0  0  0  0  0  0  0  0  0
    1.0000    1.0000    1.0000 C   0  0  0  0  0  0  0  0  0  0  0  0
    0.3500    2.1258    1.0000 C   0  0  0  0  0  0  0  0  0  0  0  0
   -1.1013    2.1258    1.0000 C   0  0  0  0  0  0  0  0  0  0  0  0
   -1.9357    3.2646    1.0000 C   0  0  0  0  0  0  0  0  0  0  0  0
   -3.1675    2.8055    1.0035 N   0  0  0  0  0  0  0  0  0  0  0  0
   -3.1893    1.4941    0.9985 N   0  0  0  0  0  0  0  0  0  0  0  0
   -4.3398    0.6962    0.9986 C   0  0  0  0  0  0  0  0  0  0  0  0
   -5.5946    1.2970    1.0043 C   0  0  0  0  0  0  0  0  0  0  0  0
   -6.7353    0.5010    1.0041 C   0  0  0  0  0  0  0  0  0  0  0  0
   -6.6163   -0.8846    0.9985 C   0  0  0  0  0  0  0  0  0  0  0  0
   -5.3566   -1.4745    0.9922 C   0  0  0  0  0  0  0  0  0  0  0  0
   -4.2090   -0.6886    0.9925 C   0  0  0  0  0  0  0  0  0  0  0  0
   -1.9089    1.0304    1.0018 C   0  0  0  0  0  0  0  0  0  0  0  0
   -1.5237    4.6548    0.9976 C   0  0  0  0  0  0  0  0  0  0  0  0
   -0.4380    5.0492    1.7726 C   0  0  0  0  0  0  0  0  0  0  0  0
   -0.0393    6.3819    1.7722 C   0  0  0  0  0  0  0  0  0  0  0  0
   -0.7333    7.3037    0.9948 C   0  0  0  0  0  0  0  0  0  0  0  0
   -0.3194    8.6937    0.9921 C   0  0  0  0  0  0  0  0  0  0  0  0
   -1.0116    9.6173    0.2157 C   0  0  0  0  0  0  0  0  0  0  0  0
   -0.6107   10.9494    0.2153 C   0  0  0  0  0  0  0  0  0  0  0  0
    0.4741   11.3494    0.9885 C   0  0  0  0  0  0  0  0  0  0  0  0
    1.1578   10.4182    1.7605 C   0  0  0  0  0  0  0  0  0  0  0  0
    0.7671    9.0832    1.7689 C   0  0  0  0  0  0  0  0  0  0  0  0
   -1.8193    6.9098    0.2195 C   0  0  0  0  0  0  0  0  0  0  0  0
   -2.2175    5.5765    0.2205 C   0  0  0  0  0  0  0  0  0  0  0  0
    2.8480   -1.6250    0.9885 C   0  0  0  0  0  0  0  0  0  0  0  0
  1  2  1  0
  2  3  1  0
  2  4  1  0
  4  5  1  0
  5  6  1  0
  6  7  1  0
  7  8  1  0
  8  9  2  0
  8 10  1  0
 10 11  2  0
 11 12  1  0
 12 13  1  0
 13 14  2  0
 14 15  1  0
 15 16  1  0
 16 17  2  0
 17 18  1  0
 18 19  2  0
 19 20  1  0
 20 21  2  0
 21 16  1  0
 15 22  1  0
 12 22  2  0
 13 23  1  0
 23 24  2  0
 24 25  1  0
 25 26  2  0
 26 27  1  0
 27 28  2  0
 28 29  1  0
 29 30  2  0
 30 31  1  0
 31 32  2  0
 32 27  1  0
 26 33  1  0
 33 34  2  0
 34 23  1  0
  7 35  1  0
 35  5  1  0
M  END
$$$$
m_273170____10756572____10760500____10766636
     RDKit          3D

 44 49  0  0  0  0  0  0  0  0999 V2000
    0.4235   -3.7837   -0.1915 S   0  0  0  0  0  0  0  0  0  0  0  0
    0.4627   -4.2164   -1.5644 O   0  0  0  0  0  0  0  0  0  0  0  0
    1.5010   -4.4012    0.5374 O   0  0  0  0  0  0  0  0  0  0  0  0
   -1.0004   -4.2156    0.4739 N   0  0  0  0  0  0  0  0  0  0  0  0
   -1.1446   -5.6774    0.4167 C   0  0  0  0  0  0  0  0  0  0  0  0
    0.5942   -2.0531   -0.1237 C   0  0  0  0  0  0  0  0  0  0  0  0
    0.6868   -1.4170    1.1101 C   0  0  0  0  0  0  0  0  0  0  0  0
    0.8228   -0.0333    1.1493 C   0  0  0  0  0  0  0  0  0  0  0  0
    0.8675    0.7144   -0.0226 C   0  0  0  0  0  0  0  0  0  0  0  0
    0.7733    0.0587   -1.2459 C   0  0  0  0  0  0  0  0  0  0  0  0
    0.6363   -1.3242   -1.3076 C   0  0  0  0  0  0  0  0  0  0  0  0
    0.9245    0.6605    2.4981 C   0  0  0  0  0  0  0  0  0  0  0  0
    2.0806    1.5694    2.4959 N   0  0  0  0  0  0  0  0  0  0  0  0
    2.0315    2.9267    2.5008 C   0  0  0  0  0  0  0  0  0  0  0  0
    3.2789    3.3271    2.4974 N   0  0  0  0  0  0  0  0  0  0  0  0
    4.1071    2.3065    2.4903 N   0  0  0  0  0  0  0  0  0  0  0  0
    3.3905    1.2051    2.4893 C   0  0  0  0  0  0  0  0  0  0  0  0
    3.9087   -0.1515    2.4826 C   0  0  0  0  0  0  0  0  0  0  0  0
    3.2993   -1.4756    3.3565 S   0  0  0  0  0  0  0  0  0  0  0  0
    4.4400   -2.6008    2.7863 C   0  0  0  0  0  0  0  0  0  0  0  0
    5.2397   -1.9619    1.9663 N   0  0  0  0  0  0  0  0  0  0  0  0
    4.9741   -0.6307    1.7848 C   0  0  0  0  0  0  0  0  0  0  0  0
    5.7823    0.2829    0.8831 C   0  0  0  0  0  0  0  0  0  0  0  0
    4.5034   -3.9559    3.1322 N   0  0  0  0  0  0  0  0  0  0  0  0
    5.8187   -4.5966    3.2883 C   0  0  0  0  0  0  0  0  0  0  0  0
    5.7750   -5.6774    4.3575 C   0  0  0  0  0  0  0  0  0  0  0  0
    4.6347   -6.5132    4.2062 O   0  0  0  0  0  0  0  0  0  0  0  0
    3.4382   -5.7743    4.4142 C   0  0  0  0  0  0  0  0  0  0  0  0
    3.2537   -4.6990    3.3542 C   0  0  0  0  0  0  0  0  0  0  0  0
    0.8853    3.7336    2.5048 N   0  0  0  0  0  0  0  0  0  0  0  0
   -0.4030    3.1782    2.9437 C   0  0  0  0  0  0  0  0  0  0  0  0
   -0.6743    3.6004    4.3785 C   0  0  0  0  0  0  0  0  0  0  0  0
   -1.6604    4.5167    4.8044 C   0  0  0  0  0  0  0  0  0  0  0  0
   -1.5547    4.5941    6.1097 N   0  0  0  0  0  0  0  0  0  0  0  0
   -0.5920    3.8076    6.5375 N   0  0  0  0  0  0  0  0  0  0  0  0
   -0.0118    3.1684    5.4853 C   0  0  0  0  0  0  0  0  0  0  0  0
   -0.1935    3.6428    7.9431 C   0  0  0  0  0  0  0  0  0  0  0  0
   -1.1575    2.6923    8.6350 C   0  0  0  0  0  0  0  0  0  0  0  0
   -0.8937    1.3265    8.6404 C   0  0  0  0  0  0  0  0  0  0  0  0
   -1.7787    0.4603    9.2739 C   0  0  0  0  0  0  0  0  0  0  0  0
   -2.9167    0.9617    9.8970 C   0  0  0  0  0  0  0  0  0  0  0  0
   -3.1697    2.3278    9.8857 C   0  0  0  0  0  0  0  0  0  0  0  0
   -2.2928    3.2044    9.2551 C   0  0  0  0  0  0  0  0  0  0  0  0
    0.9717    5.1351    2.0699 C   0  0  0  0  0  0  0  0  0  0  0  0
  1  2  2  0
  1  3  2  0
  1  4  1  0
  4  5  1  0
  1  6  1  0
  6  7  2  0
  7  8  1  0
  8  9  2  0
  9 10  1  0
 10 11  2  0
 11  6  1  0
  8 12  1  0
 12 13  1  0
 13 14  1  0
 14 15  2  0
 15 16  1  0
 16 17  2  0
 17 13  1  0
 17 18  1  0
 18 19  1  0
 19 20  1  0
 20 21  2  0
 21 22  1  0
 18 22  2  0
 22 23  1  0
 20 24  1  0
 24 25  1  0
 25 26  1  0
 26 27  1  0
 27 28  1  0
 28 29  1  0
 29 24  1  0
 14 30  1  0
 30 31  1  0
 31 32  1  0
 32 33  1  0
 33 34  2  0
 34 35  1  0
 35 36  1  0
 32 36  2  0
 35 37  1  0
 37 38  1  0
 38 39  2  0
 39 40  1  0
 40 41  2  0
 41 42  1  0
 42 43  2  0
 43 38  1  0
 30 44  1  0
M  END
$$$$
m_273170____10757054____10763944____10766638
     RDKit          3D

 40 45  0  0  0  0  0  0  0  0999 V2000
    3.7369    8.2047    4.2984 S   0  0  0  0  0  0  0  0  0  0  0  0
    3.6360    7.3322    2.8405 C   0  0  0  0  0  0  0  0  0  0  0  0
    4.3580    6.2526    3.0073 N   0  0  0  0  0  0  0  0  0  0  0  0
    4.9552    6.1215    4.2328 C   0  0  0  0  0  0  0  0  0  0  0  0
    5.7901    5.0138    4.6256 C   0  0  0  0  0  0  0  0  0  0  0  0
    6.3749    4.8621    5.7925 N   0  0  0  0  0  0  0  0  0  0  0  0
    7.0456    3.7321    5.7641 N   0  0  0  0  0  0  0  0  0  0  0  0
    6.9180    3.1327    4.6062 C   0  0  0  0  0  0  0  0  0  0  0  0
    6.1169    3.9379    3.8613 N   0  0  0  0  0  0  0  0  0  0  0  0
    5.6836    3.6889    2.4782 C   0  0  0  0  0  0  0  0  0  0  0  0
    4.3809    2.9058    2.4886 C   0  0  0  0  0  0  0  0  0  0  0  0
    3.1760    3.6008    2.5018 C   0  0  0  0  0  0  0  0  0  0  0  0
    1.9854    2.8827    2.5104 C   0  0  0  0  0  0  0  0  0  0  0  0
    0.7436    3.5712    2.5251 O   0  0  0  0  0  0  0  0  0  0  0  0
   -0.4736    2.8400    2.5339 C   0  0  0  0  0  0  0  0  0  0  0  0
   -0.8941    2.5733    3.9700 C   0  0  0  0  0  0  0  0  0  0  0  0
   -0.5250    1.5772    4.5282 O   0  0  0  0  0  0  0  0  0  0  0  0
   -1.6945    3.4702    4.6272 N   0  0  0  0  0  0  0  0  0  0  0  0
    1.9989    1.4916    2.5063 C   0  0  0  0  0  0  0  0  0  0  0  0
    3.2106    0.8076    2.4943 C   0  0  0  0  0  0  0  0  0  0  0  0
    4.4085    1.5148    2.4845 C   0  0  0  0  0  0  0  0  0  0  0  0
    7.5155    1.8523    4.2008 N   0  0  0  0  0  0  0  0  0  0  0  0
    7.2682    1.3197    2.8532 C   0  0  0  0  0  0  0  0  0  0  0  0
    8.3386    1.8293    1.9028 C   0  0  0  0  0  0  0  0  0  0  0  0
    9.4790    1.2370    1.6503 O   0  0  0  0  0  0  0  0  0  0  0  0
   10.1863    1.9377    0.7857 C   0  0  0  0  0  0  0  0  0  0  0  0
    9.4810    3.0583    0.4326 C   0  0  0  0  0  0  0  0  0  0  0  0
   10.0195    3.9519   -0.4928 C   0  0  0  0  0  0  0  0  0  0  0  0
   11.2703    3.7322   -1.0629 C   0  0  0  0  0  0  0  0  0  0  0  0
   11.9858    2.5969   -0.6979 C   0  0  0  0  0  0  0  0  0  0  0  0
   11.4377    1.7097    0.2220 C   0  0  0  0  0  0  0  0  0  0  0  0
    8.2759    2.9774    1.1683 C   0  0  0  0  0  0  0  0  0  0  0  0
    8.3604    1.1044    5.1431 C   0  0  0  0  0  0  0  0  0  0  0  0
    4.7429    7.1144    5.1350 C   0  0  0  0  0  0  0  0  0  0  0  0
    2.9258    7.7106    1.6951 N   0  0  0  0  0  0  0  0  0  0  0  0
    2.9459    6.8325    0.5147 C   0  0  0  0  0  0  0  0  0  0  0  0
    1.6294    6.9077   -0.2431 C   0  0  0  0  0  0  0  0  0  0  0  0
    1.2039    8.2536   -0.4146 O   0  0  0  0  0  0  0  0  0  0  0  0
    0.9134    8.8533    0.8411 C   0  0  0  0  0  0  0  0  0  0  0  0
    2.1579    8.9649    1.7086 C   0  0  0  0  0  0  0  0  0  0  0  0
  1  2  1  0
  2  3  2  0
  3  4  1  0
  4  5  1  0
  5  6  2  0
  6  7  1  0
  7  8  2  0
  8  9  1  0
  9  5  1  0
  9 10  1  0
 10 11  1  0
 11 12  2  0
 12 13  1  0
 13 14  1  0
 14 15  1  0
 15 16  1  0
 16 17  2  0
 16 18  1  0
 13 19  2  0
 19 20  1  0
 20 21  2  0
 21 11  1  0
  8 22  1  0
 22 23  1  0
 23 24  1  0
 24 25  1  0
 25 26  1  0
 26 27  2  0
 27 28  1  0
 28 29  2  0
 29 30  1  0
 30 31  2  0
 31 26  1  0
 27 32  1  0
 24 32  2  0
 22 33  1  0
  4 34  2  0
 34  1  1  0
  2 35  1  0
 35 36  1  0
 36 37  1  0
 37 38  1  0
 38 39  1  0
 39 40  1  0
 40 35  1  0
M  END
$$$$
m_273170____10756572____14482586____10766638
     RDKit          3D

 38 42  0  0  0  0  0  0  0  0999 V2000
   -1.8354    0.0841    6.0277 Cl  0  0  0  0  0  0  0  0  0  0  0  0
   -2.2303    1.4353    4.9382 C   0  0  0  0  0  0  0  0  0  0  0  0
   -1.4411    1.6896    3.8215 C   0  0  0  0  0  0  0  0  0  0  0  0
   -1.7761    2.7525    2.9889 C   0  0  0  0  0  0  0  0  0  0  0  0
   -2.8430    3.5188    3.2607 N   0  0  0  0  0  0  0  0  0  0  0  0
   -3.6154    3.2899    4.3323 C   0  0  0  0  0  0  0  0  0  0  0  0
   -3.3320    2.2424    5.2021 C   0  0  0  0  0  0  0  0  0  0  0  0
   -0.9047    3.0187    1.7725 C   0  0  0  0  0  0  0  0  0  0  0  0
    0.3027    3.7487    2.1850 N   0  0  0  0  0  0  0  0  0  0  0  0
    1.5116    3.0613    2.3604 C   0  0  0  0  0  0  0  0  0  0  0  0
    2.5527    3.4581    3.0497 N   0  0  0  0  0  0  0  0  0  0  0  0
    3.5217    2.5713    3.0027 N   0  0  0  0  0  0  0  0  0  0  0  0
    3.1118    1.5641    2.2651 C   0  0  0  0  0  0  0  0  0  0  0  0
    1.8491    1.8491    1.8491 N   0  0  0  0  0  0  0  0  0  0  0  0
    1.0000    1.0000    1.0000 C   0  0  0  0  0  0  0  0  0  0  0  0
    1.3249    1.2596   -0.4622 C   0  0  0  0  0  0  0  0  0  0  0  0
    1.5776    0.1786   -1.3001 C   0  0  0  0  0  0  0  0  0  0  0  0
    1.8756    0.4150   -2.6384 C   0  0  0  0  0  0  0  0  0  0  0  0
    2.1943   -0.9256   -3.7011 S   0  0  0  0  0  0  0  0  0  0  0  0
    2.6920   -0.4330   -4.9594 O   0  0  0  0  0  0  0  0  0  0  0  0
    3.1773   -1.7904   -3.1015 O   0  0  0  0  0  0  0  0  0  0  0  0
    0.8167   -1.7603   -3.9511 N   0  0  0  0  0  0  0  0  0  0  0  0
    1.0859   -2.8927   -4.8488 C   0  0  0  0  0  0  0  0  0  0  0  0
    1.9228    1.7111   -3.1410 C   0  0  0  0  0  0  0  0  0  0  0  0
    1.6674    2.7780   -2.2857 C   0  0  0  0  0  0  0  0  0  0  0  0
    1.3675    2.5635   -0.9443 C   0  0  0  0  0  0  0  0  0  0  0  0
    3.8675    0.3759    1.9566 C   0  0  0  0  0  0  0  0  0  0  0  0
    3.3230   -0.8075    1.5337 N   0  0  0  0  0  0  0  0  0  0  0  0
    4.1756   -1.7745    1.3041 C   0  0  0  0  0  0  0  0  0  0  0  0
    5.7181   -1.1440    1.6508 S   0  0  0  0  0  0  0  0  0  0  0  0
    5.2177    0.4217    2.0964 C   0  0  0  0  0  0  0  0  0  0  0  0
    3.8897   -3.0726    0.8701 N   0  0  0  0  0  0  0  0  0  0  0  0
    2.5970   -3.3451    0.2225 C   0  0  0  0  0  0  0  0  0  0  0  0
    2.7343   -4.4318   -0.8326 C   0  0  0  0  0  0  0  0  0  0  0  0
    3.4882   -5.5355   -0.3477 O   0  0  0  0  0  0  0  0  0  0  0  0
    4.8287   -5.1484   -0.0754 C   0  0  0  0  0  0  0  0  0  0  0  0
    4.8982   -4.1279    1.0504 C   0  0  0  0  0  0  0  0  0  0  0  0
    0.2424    5.1995    2.4134 C   0  0  0  0  0  0  0  0  0  0  0  0
  1  2  1  0
  2  3  2  0
  3  4  1  0
  4  5  2  0
  5  6  1  0
  6  7  2  0
  7  2  1  0
  4  8  1  0
  8  9  1  0
  9 10  1  0
 10 11  2  0
 11 12  1  0
 12 13  2  0
 13 14  1  0
 14 10  1  0
 14 15  1  0
 15 16  1  0
 16 17  2  0
 17 18  1  0
 18 19  1  0
 19 20  2  0
 19 21  2  0
 19 22  1  0
 22 23  1  0
 18 24  2  0
 24 25  1  0
 25 26  2  0
 26 16  1  0
 13 27  1  0
 27 28  1  0
 28 29  2  0
 29 30  1  0
 30 31  1  0
 27 31  2  0
 29 32  1  0
 32 33  1  0
 33 34  1  0
 34 35  1  0
 35 36  1  0
 36 37  1  0
 37 32  1  0
  9 38  1  0
M  END
$$$$
s_2____821402____16506322____236124
     RDKit          3D

 39 44  0  0  0  0  0  0  0  0999 V2000
   -2.1114   -3.5801    2.8995 S   0  0  0  0  0  0  0  0  0  0  0  0
   -3.3333   -4.2998    2.6492 O   0  0  0  0  0  0  0  0  0  0  0  0
   -1.0738   -4.0808    2.0355 O   0  0  0  0  0  0  0  0  0  0  0  0
   -2.3450   -1.9940    2.6054 N   0  0  0  0  0  0  0  0  0  0  0  0
   -1.2533   -1.1189    2.5749 C   0  0  0  0  0  0  0  0  0  0  0  0
   -0.7081   -0.6462    3.7642 C   0  0  0  0  0  0  0  0  0  0  0  0
    0.3771    0.2230    3.7244 C   0  0  0  0  0  0  0  0  0  0  0  0
    0.9034    0.6099    2.4960 C   0  0  0  0  0  0  0  0  0  0  0  0
    0.3587    0.1379    1.3068 C   0  0  0  0  0  0  0  0  0  0  0  0
   -0.7263   -0.7316    1.3466 C   0  0  0  0  0  0  0  0  0  0  0  0
    2.0334    1.5154    2.4653 C   0  0  0  0  0  0  0  0  0  0  0  0
    3.3388    1.1121    2.4746 N   0  0  0  0  0  0  0  0  0  0  0  0
    4.2406    2.1295    2.4468 C   0  0  0  0  0  0  0  0  0  0  0  0
    3.3299    3.5681    2.4036 S   0  0  0  0  0  0  0  0  0  0  0  0
    1.7813    2.8529    2.4247 C   0  0  0  0  0  0  0  0  0  0  0  0
    5.5094    2.0301    2.4537 N   0  0  0  0  0  0  0  0  0  0  0  0
    6.2648    2.6407    1.4456 C   0  0  0  0  0  0  0  0  0  0  0  0
    6.3555    4.0283    1.4080 C   0  0  0  0  0  0  0  0  0  0  0  0
    7.1066    4.6346    0.4059 C   0  0  0  0  0  0  0  0  0  0  0  0
    7.7569    3.8521   -0.5434 C   0  0  0  0  0  0  0  0  0  0  0  0
    7.6609    2.4652   -0.4982 C   0  0  0  0  0  0  0  0  0  0  0  0
    6.9113    1.8513    0.5004 C   0  0  0  0  0  0  0  0  0  0  0  0
    8.5105    4.4514   -1.5474 C   0  0  0  0  0  0  0  0  0  0  0  0
    8.6022    5.8387   -1.5865 C   0  0  0  0  0  0  0  0  0  0  0  0
    7.9536    6.6233   -0.6385 C   0  0  0  0  0  0  0  0  0  0  0  0
    7.2009    6.0215    0.3641 C   0  0  0  0  0  0  0  0  0  0  0  0
    3.7804   -0.2891    2.5193 C   0  0  0  0  0  0  0  0  0  0  0  0
    4.0469   -0.6917    3.9641 C   0  0  0  0  0  0  0  0  0  0  0  0
    4.4702   -1.9074    4.4148 C   0  0  0  0  0  0  0  0  0  0  0  0
    4.5601   -1.8054    5.7703 N   0  0  0  0  0  0  0  0  0  0  0  0
    4.1821   -0.5911    6.1369 N   0  0  0  0  0  0  0  0  0  0  0  0
    3.8613    0.1361    5.0941 C   0  0  0  0  0  0  0  0  0  0  0  0
    5.0089   -2.9649    6.5668 C   0  0  0  0  0  0  0  0  0  0  0  0
    4.6227   -4.3124    5.9670 C   0  0  0  0  0  0  0  0  0  0  0  0
    4.9074   -4.3714    4.5285 N   0  0  0  0  0  0  0  0  0  0  0  0
    4.7737   -3.1842    3.7878 C   0  0  0  0  0  0  0  0  0  0  0  0
    4.8899   -3.2857    2.5917 O   0  0  0  0  0  0  0  0  0  0  0  0
    5.2957   -5.6477    3.8978 C   0  0  0  0  0  0  0  0  0  0  0  0
   -1.6202   -3.8076    4.6267 C   0  0  0  0  0  0  0  0  0  0  0  0
  1  2  2  0
  1  3  2  0
  1  4  1  0
  4  5  1  0
  5  6  2  0
  6  7  1  0
  7  8  2  0
  8  9  1  0
  9 10  2  0
 10  5  1  0
  8 11  1  0
 11 12  1  0
 12 13  1  0
 13 14  1  0
 14 15  1  0
 11 15  2  0
 13 16  2  0
 16 17  1  0
 17 18  2  0
 18 19  1  0
 19 20  2  0
 20 21  1  0
 21 22  2  0
 22 17  1  0
 20 23  1  0
 23 24  2  0
 24 25  1  0
 25 26  2  0
 26 19  1  0
 12 27  1  0
 27 28  1  0
 28 29  2  0
 29 30  1  0
 30 31  1  0
 31 32  2  0
 32 28  1  0
 30 33  1  0
 33 34  1  0
 34 35  1  0
 35 36  1  0
 36 29  1  0
 36 37  2  0
 35 38  1  0
  1 39  1  0
M  END
$$$$
s_27a____903498____802690
     RDKit          3D

 36 41  0  0  0  0  0  0  0  0999 V2000
    5.2446    3.4629    0.7532 S   0  0  0  0  0  0  0  0  0  0  0  0
    4.4944    1.9435    0.9060 C   0  0  0  0  0  0  0  0  0  0  0  0
    5.1138    0.7659    1.0256 N   0  0  0  0  0  0  0  0  0  0  0  0
    4.3332   -0.3124    1.1347 C   0  0  0  0  0  0  0  0  0  0  0  0
    2.9964   -0.1961    1.1220 N   0  0  0  0  0  0  0  0  0  0  0  0
    2.4004    1.0000    1.0000 C   0  0  0  0  0  0  0  0  0  0  0  0
    1.0000    1.0000    1.0000 N   0  0  0  0  0  0  0  0  0  0  0  0
    0.3000   -0.2089    0.9073 C   0  0  0  0  0  0  0  0  0  0  0  0
   -0.6094   -0.7178    1.8589 C   0  0  0  0  0  0  0  0  0  0  0  0
   -1.0337   -1.8644    1.3836 N   0  0  0  0  0  0  0  0  0  0  0  0
   -0.4732   -2.1190    0.2221 N   0  0  0  0  0  0  0  0  0  0  0  0
    0.3710   -1.1058   -0.1136 C   0  0  0  0  0  0  0  0  0  0  0  0
   -0.7145   -3.3155   -0.5972 C   0  0  0  0  0  0  0  0  0  0  0  0
   -0.7909   -2.9193   -2.0619 C   0  0  0  0  0  0  0  0  0  0  0  0
   -1.8442   -1.9989   -2.2699 O   0  0  0  0  0  0  0  0  0  0  0  0
   -2.1142   -2.0191   -3.6651 C   0  0  0  0  0  0  0  0  0  0  0  0
   -1.7021   -3.3932   -4.1558 C   0  0  0  0  0  0  0  0  0  0  0  0
   -1.2178   -4.0998   -2.9044 C   0  0  0  0  0  0  0  0  0  0  0  0
    3.1397    2.1753    0.8844 C   0  0  0  0  0  0  0  0  0  0  0  0
    2.7981    3.5571    0.7452 C   0  0  0  0  0  0  0  0  0  0  0  0
    1.4450    4.0814    0.6926 C   0  0  0  0  0  0  0  0  0  0  0  0
    0.9615    4.5974   -0.5052 C   0  0  0  0  0  0  0  0  0  0  0  0
   -0.3327    5.1033   -0.5726 C   0  0  0  0  0  0  0  0  0  0  0  0
   -1.1279    5.0861    0.5681 C   0  0  0  0  0  0  0  0  0  0  0  0
   -2.3667    5.5665    0.5171 F   0  0  0  0  0  0  0  0  0  0  0  0
   -0.6445    4.5707    1.7657 C   0  0  0  0  0  0  0  0  0  0  0  0
    0.6491    4.0648    1.8337 C   0  0  0  0  0  0  0  0  0  0  0  0
    3.8441    4.4269    0.6606 C   0  0  0  0  0  0  0  0  0  0  0  0
    5.0371   -1.6515    1.2710 C   0  0  0  0  0  0  0  0  0  0  0  0
    5.1685   -2.0074    2.7427 C   0  0  0  0  0  0  0  0  0  0  0  0
    4.1575   -2.7340    3.3625 C   0  0  0  0  0  0  0  0  0  0  0  0
    4.2722   -3.0629    4.7093 C   0  0  0  0  0  0  0  0  0  0  0  0
    5.3986   -2.6601    5.4193 C   0  0  0  0  0  0  0  0  0  0  0  0
    5.5154   -2.9718    6.7073 F   0  0  0  0  0  0  0  0  0  0  0  0
    6.4122   -1.9324    4.8044 C   0  0  0  0  0  0  0  0  0  0  0  0
    6.2921   -1.6068    3.4576 C   0  0  0  0  0  0  0  0  0  0  0  0
  1  2  1  0
  2  3  2  0
  3  4  1  0
  4  5  2  0
  5  6  1  0
  6  7  1  0
  7  8  1  0
  8  9  1  0
  9 10  2  0
 10 11  1  0
 11 12  1  0
  8 12  2  0
 11 13  1  0
 13 14  1  0
 14 15  1  0
 15 16  1  0
 16 17  1  0
 17 18  1  0
 18 14  1  0
  6 19  2  0
 19  2  1  0
 19 20  1  0
 20 21  1  0
 21 22  2  0
 22 23  1  0
 23 24  2  0
 24 25  1  0
 24 26  1  0
 26 27  2  0
 27 21  1  0
 20 28  2  0
 28  1  1  0
  4 29  1  0
 29 30  1  0
 30 31  2  0
 31 32  1  0
 32 33  2  0
 33 34  1  0
 33 35  1  0
 35 36  2  0
 36 30  1  0
M  END
$$$$
s_2____821402____14411970____3082104
     RDKit          3D

 40 46  0  0  0  0  0  0  0  0999 V2000
    2.6090    3.5373    3.4632 S   0  0  0  0  0  0  0  0  0  0  0  0
    1.3028    2.7818    2.6733 C   0  0  0  0  0  0  0  0  0  0  0  0
    0.0662    3.0420    2.8251 N   0  0  0  0  0  0  0  0  0  0  0  0
   -0.3493    3.8867    3.8611 C   0  0  0  0  0  0  0  0  0  0  0  0
   -0.5655    5.2350    3.5956 C   0  0  0  0  0  0  0  0  0  0  0  0
   -0.9787    6.0740    4.6258 C   0  0  0  0  0  0  0  0  0  0  0  0
   -1.1713    5.5598    5.9044 C   0  0  0  0  0  0  0  0  0  0  0  0
   -0.9529    4.2102    6.1610 C   0  0  0  0  0  0  0  0  0  0  0  0
   -0.5391    3.3647    5.1363 C   0  0  0  0  0  0  0  0  0  0  0  0
   -1.5854    6.3926    6.9388 C   0  0  0  0  0  0  0  0  0  0  0  0
   -1.8021    7.7409    6.6751 C   0  0  0  0  0  0  0  0  0  0  0  0
   -1.6106    8.2576    5.3978 C   0  0  0  0  0  0  0  0  0  0  0  0
   -1.1967    7.4227    4.3656 C   0  0  0  0  0  0  0  0  0  0  0  0
    1.8486    1.8486    1.8486 N   0  0  0  0  0  0  0  0  0  0  0  0
    3.2133    1.7925    1.8857 C   0  0  0  0  0  0  0  0  0  0  0  0
    4.0121    0.8800    1.0888 C   0  0  0  0  0  0  0  0  0  0  0  0
    4.6913   -0.1783    1.6847 C   0  0  0  0  0  0  0  0  0  0  0  0
    5.4769   -1.0530    0.9401 C   0  0  0  0  0  0  0  0  0  0  0  0
    6.1437   -2.1262    1.5444 N   0  0  0  0  0  0  0  0  0  0  0  0
    7.1991   -2.7552    0.8774 C   0  0  0  0  0  0  0  0  0  0  0  0
    7.8172   -3.6705    1.3980 O   0  0  0  0  0  0  0  0  0  0  0  0
    7.5431   -2.2489   -0.5148 C   0  0  0  0  0  0  0  0  0  0  0  0
    6.3964   -1.6734   -1.1255 O   0  0  0  0  0  0  0  0  0  0  0  0
    5.5900   -0.8492   -0.4266 C   0  0  0  0  0  0  0  0  0  0  0  0
    4.9002    0.1930   -1.0352 C   0  0  0  0  0  0  0  0  0  0  0  0
    4.1119    1.0625   -0.2858 C   0  0  0  0  0  0  0  0  0  0  0  0
    8.0746   -3.4171   -1.3294 C   0  0  0  0  0  0  0  0  0  0  0  0
    3.8623    2.6474    2.7236 C   0  0  0  0  0  0  0  0  0  0  0  0
    1.0000    1.0000    1.0000 C   0  0  0  0  0  0  0  0  0  0  0  0
    0.5290   -0.2048    1.7982 C   0  0  0  0  0  0  0  0  0  0  0  0
   -0.3198   -1.0536    0.9493 N   0  0  0  0  0  0  0  0  0  0  0  0
    0.1092   -2.0405    0.1941 N   0  0  0  0  0  0  0  0  0  0  0  0
   -0.8947   -2.6008   -0.4377 C   0  0  0  0  0  0  0  0  0  0  0  0
   -2.0553   -1.9017   -0.0406 C   0  0  0  0  0  0  0  0  0  0  0  0
   -1.6707   -0.9339    0.8347 C   0  0  0  0  0  0  0  0  0  0  0  0
   -3.4768   -2.1841   -0.5064 C   0  0  0  0  0  0  0  0  0  0  0  0
   -4.4149   -2.5418    0.6325 C   0  0  0  0  0  0  0  0  0  0  0  0
   -5.7051   -2.2777    0.1095 O   0  0  0  0  0  0  0  0  0  0  0  0
   -5.6004   -1.3103   -0.9241 C   0  0  0  0  0  0  0  0  0  0  0  0
   -4.1407   -0.9210   -1.0133 C   0  0  0  0  0  0  0  0  0  0  0  0
  1  2  1  0
  2  3  2  0
  3  4  1  0
  4  5  2  0
  5  6  1  0
  6  7  2  0
  7  8  1  0
  8  9  2  0
  9  4  1  0
  7 10  1  0
 10 11  2  0
 11 12  1  0
 12 13  2  0
 13  6  1  0
  2 14  1  0
 14 15  1  0
 15 16  1  0
 16 17  2  0
 17 18  1  0
 18 19  1  0
 19 20  1  0
 20 21  2  0
 20 22  1  0
 22 23  1  0
 23 24  1  0
 24 18  2  0
 24 25  1  0
 25 26  2  0
 26 16  1  0
 22 27  1  0
 15 28  2  0
 28  1  1  0
 14 29  1  0
 29 30  1  0
 30 31  1  0
 31 32  1  0
 32 33  2  0
 33 34  1  0
 34 35  2  0
 35 31  1  0
 34 36  1  0
 36 37  1  0
 37 38  1  0
 38 39  1  0
 39 40  1  0
 40 36  1  0
M  END
$$$$
s_11a____16643716____53734
     RDKit          3D

 35 40  0  0  0  0  0  0  0  0999 V2000
    6.7289    1.2323    2.4904 O   0  0  0  0  0  0  0  0  0  0  0  0
    5.6674    0.6727    2.4940 C   0  0  0  0  0  0  0  0  0  0  0  0
    5.6148   -0.6963    2.4943 N   0  0  0  0  0  0  0  0  0  0  0  0
    6.7996   -1.4424    2.4904 C   0  0  0  0  0  0  0  0  0  0  0  0
    6.9114   -2.8014    2.4902 N   0  0  0  0  0  0  0  0  0  0  0  0
    8.2480   -3.0791    2.4644 C   0  0  0  0  0  0  0  0  0  0  0  0
    8.9220   -1.9505    2.4797 N   0  0  0  0  0  0  0  0  0  0  0  0
    8.0492   -0.9037    2.4900 C   0  0  0  0  0  0  0  0  0  0  0  0
    8.9022   -4.4553    2.4075 C   0  0  0  0  0  0  0  0  0  0  0  0
    8.1185   -5.4439    1.5576 C   0  0  0  0  0  0  0  0  0  0  0  0
    7.0091   -6.0538    2.2144 O   0  0  0  0  0  0  0  0  0  0  0  0
    6.2804   -5.1963    3.0931 C   0  0  0  0  0  0  0  0  0  0  0  0
    5.8699   -3.8507    2.5000 C   0  0  0  0  0  0  0  0  0  0  0  0
    4.3812    1.4826    2.4982 C   0  0  0  0  0  0  0  0  0  0  0  0
    4.3698    2.8769    2.4981 C   0  0  0  0  0  0  0  0  0  0  0  0
    3.1472    3.5433    2.5017 C   0  0  0  0  0  0  0  0  0  0  0  0
    2.0021    2.8437    2.5053 N   0  0  0  0  0  0  0  0  0  0  0  0
    1.9969    1.5018    2.5051 C   0  0  0  0  0  0  0  0  0  0  0  0
    0.7548    0.7529    2.5084 C   0  0  0  0  0  0  0  0  0  0  0  0
    0.7913   -0.6380    2.5081 C   0  0  0  0  0  0  0  0  0  0  0  0
   -0.4015   -1.3537    2.5107 C   0  0  0  0  0  0  0  0  0  0  0  0
   -1.6140   -0.6720    2.5138 C   0  0  0  0  0  0  0  0  0  0  0  0
   -2.8554   -1.4218    2.5156 C   0  0  0  0  0  0  0  0  0  0  0  0
   -4.0700   -0.7438    2.5188 C   0  0  0  0  0  0  0  0  0  0  0  0
   -5.2583   -1.4669    2.5214 C   0  0  0  0  0  0  0  0  0  0  0  0
   -5.2264   -2.8575    2.5196 C   0  0  0  0  0  0  0  0  0  0  0  0
   -4.0073   -3.5241    2.5160 C   0  0  0  0  0  0  0  0  0  0  0  0
   -2.8121   -2.8125    2.5140 C   0  0  0  0  0  0  0  0  0  0  0  0
   -1.6503    0.7185    2.5142 C   0  0  0  0  0  0  0  0  0  0  0  0
   -0.4576    1.4353    2.5115 C   0  0  0  0  0  0  0  0  0  0  0  0
    3.1833    0.7780    2.5015 C   0  0  0  0  0  0  0  0  0  0  0  0
    3.1251    4.9345    2.5024 C   0  0  0  0  0  0  0  0  0  0  0  0
    4.3041    5.6719    2.4991 C   0  0  0  0  0  0  0  0  0  0  0  0
    5.5319    5.0200    2.4952 C   0  0  0  0  0  0  0  0  0  0  0  0
    5.5429    3.6294    2.4950 C   0  0  0  0  0  0  0  0  0  0  0  0
  1  2  2  0
  2  3  1  0
  3  4  1  0
  4  5  1  0
  5  6  1  0
  6  7  2  0
  7  8  1  0
  4  8  2  0
  6  9  1  0
  9 10  1  0
 10 11  1  0
 11 12  1  0
 12 13  1  0
 13  5  1  0
  2 14  1  0
 14 15  2  0
 15 16  1  0
 16 17  2  0
 17 18  1  0
 18 19  1  0
 19 20  2  0
 20 21  1  0
 21 22  2  0
 22 23  1  0
 23 24  2  0
 24 25  1  0
 25 26  2  0
 26 27  1  0
 27 28  2  0
 28 23  1  0
 22 29  1  0
 29 30  2  0
 30 19  1  0
 18 31  2  0
 31 14  1  0
 16 32  1  0
 32 33  2  0
 33 34  1  0
 34 35  2  0
 35 15  1  0
M  END
$$$$
m_273170____14188226____10762266____10766638
     RDKit          3D

 42 47  0  0  0  0  0  0  0  0999 V2000
   -0.3194    2.3941   -4.4978 Cl  0  0  0  0  0  0  0  0  0  0  0  0
    1.3732    2.9273   -4.6035 C   0  0  0  0  0  0  0  0  0  0  0  0
    2.0836    3.1388   -3.3956 C   0  0  0  0  0  0  0  0  0  0  0  0
    1.7088    3.0135   -2.1443 N   0  0  0  0  0  0  0  0  0  0  0  0
    2.7795    3.3446   -1.3678 C   0  0  0  0  0  0  0  0  0  0  0  0
    3.8215    3.6765   -2.1789 C   0  0  0  0  0  0  0  0  0  0  0  0
    3.3750    3.5431   -3.4604 N   0  0  0  0  0  0  0  0  0  0  0  0
    3.9945    3.7510   -4.6659 C   0  0  0  0  0  0  0  0  0  0  0  0
    3.3265    3.5526   -5.8471 C   0  0  0  0  0  0  0  0  0  0  0  0
    4.0832    3.8057   -7.4381 Cl  0  0  0  0  0  0  0  0  0  0  0  0
    1.9735    3.1280   -5.8155 C   0  0  0  0  0  0  0  0  0  0  0  0
    2.8010    3.3415    0.1519 C   0  0  0  0  0  0  0  0  0  0  0  0
    3.2232    2.0176    0.6335 N   0  0  0  0  0  0  0  0  0  0  0  0
    2.4017    1.0000    1.0000 C   0  0  0  0  0  0  0  0  0  0  0  0
    3.1912    0.0177    1.3579 N   0  0  0  0  0  0  0  0  0  0  0  0
    4.4560    0.3552    1.2392 N   0  0  0  0  0  0  0  0  0  0  0  0
    4.5040    1.5898    0.7919 C   0  0  0  0  0  0  0  0  0  0  0  0
    5.7075    2.3525    0.5187 C   0  0  0  0  0  0  0  0  0  0  0  0
    6.2850    2.4835   -0.7163 N   0  0  0  0  0  0  0  0  0  0  0  0
    7.3707    3.2143   -0.7603 C   0  0  0  0  0  0  0  0  0  0  0  0
    7.6589    3.7387    0.8329 S   0  0  0  0  0  0  0  0  0  0  0  0
    6.3157    2.9825    1.5570 C   0  0  0  0  0  0  0  0  0  0  0  0
    8.1530    3.5063   -1.8839 N   0  0  0  0  0  0  0  0  0  0  0  0
    9.3520    4.3443   -1.7262 C   0  0  0  0  0  0  0  0  0  0  0  0
   10.4384    3.9313   -2.7072 C   0  0  0  0  0  0  0  0  0  0  0  0
    9.9149    3.7480   -4.0164 O   0  0  0  0  0  0  0  0  0  0  0  0
    8.9960    2.6636   -4.0435 C   0  0  0  0  0  0  0  0  0  0  0  0
    7.7697    2.9485   -3.1897 C   0  0  0  0  0  0  0  0  0  0  0  0
    1.0000    1.0000    1.0000 N   0  0  0  0  0  0  0  0  0  0  0  0
    0.2650   -0.2731    1.0004 C   0  0  0  0  0  0  0  0  0  0  0  0
    0.2272   -0.8368   -0.4108 C   0  0  0  0  0  0  0  0  0  0  0  0
   -0.8245   -0.4917   -1.2530 C   0  0  0  0  0  0  0  0  0  0  0  0
   -0.8537   -1.0102   -2.5434 C   0  0  0  0  0  0  0  0  0  0  0  0
   -1.9068   -0.6700   -3.4003 N   0  0  0  0  0  0  0  0  0  0  0  0
   -1.9406   -1.1199   -4.5338 O   0  0  0  0  0  0  0  0  0  0  0  0
   -2.7837    0.0704   -3.0168 O   0  0  0  0  0  0  0  0  0  0  0  0
    0.1474   -1.8621   -2.9971 C   0  0  0  0  0  0  0  0  0  0  0  0
    1.1891   -2.1934   -2.1376 C   0  0  0  0  0  0  0  0  0  0  0  0
    1.2398   -1.6868   -0.8427 C   0  0  0  0  0  0  0  0  0  0  0  0
    0.2650    2.2731    0.9996 C   0  0  0  0  0  0  0  0  0  0  0  0
   -0.0965    2.6499    2.4270 C   0  0  0  0  0  0  0  0  0  0  0  0
   -1.3434    2.7931    2.7656 C   0  0  0  0  0  0  0  0  0  0  0  0
  1  2  1  0
  2  3  1  0
  3  4  2  0
  4  5  1  0
  5  6  2  0
  6  7  1  0
  7  3  1  0
  7  8  1  0
  8  9  2  0
  9 10  1  0
  9 11  1  0
  2 11  2  0
  5 12  1  0
 12 13  1  0
 13 14  1  0
 14 15  2  0
 15 16  1  0
 16 17  2  0
 17 13  1  0
 17 18  1  0
 18 19  1  0
 19 20  2  0
 20 21  1  0
 21 22  1  0
 18 22  2  0
 20 23  1  0
 23 24  1  0
 24 25  1  0
 25 26  1  0
 26 27  1  0
 27 28  1  0
 28 23  1  0
 14 29  1  0
 29 30  1  0
 30 31  1  0
 31 32  2  0
 32 33  1  0
 33 34  1  0
 34 35  1  0
 34 36  2  0
 33 37  2  0
 37 38  1  0
 38 39  2  0
 39 31  1  0
 29 40  1  0
 40 41  1  0
 41 42  2  0
M  CHG  2  34   1  35  -1
M  END
$$$$
m_273170____10758976____10761990____10766638
     RDKit          3D

 44 49  0  0  0  0  0  0  0  0999 V2000
    4.5942   -2.3414    3.2283 S   0  0  0  0  0  0  0  0  0  0  0  0
    4.7934   -2.0272    1.5675 C   0  0  0  0  0  0  0  0  0  0  0  0
    4.3649   -0.8057    1.3703 N   0  0  0  0  0  0  0  0  0  0  0  0
    3.9082   -0.1501    2.4826 C   0  0  0  0  0  0  0  0  0  0  0  0
    3.3905    1.2051    2.4893 C   0  0  0  0  0  0  0  0  0  0  0  0
    4.1071    2.3065    2.4903 N   0  0  0  0  0  0  0  0  0  0  0  0
    3.2789    3.3271    2.4974 N   0  0  0  0  0  0  0  0  0  0  0  0
    2.0315    2.9267    2.5008 C   0  0  0  0  0  0  0  0  0  0  0  0
    2.0806    1.5694    2.4959 N   0  0  0  0  0  0  0  0  0  0  0  0
    0.9245    0.6605    2.4981 C   0  0  0  0  0  0  0  0  0  0  0  0
    0.5987    0.2566    1.0792 C   0  0  0  0  0  0  0  0  0  0  0  0
    0.4532    1.1513    0.0546 N   0  0  0  0  0  0  0  0  0  0  0  0
    0.1608    0.6301   -1.1089 C   0  0  0  0  0  0  0  0  0  0  0  0
    0.0919   -1.0560   -0.8784 S   0  0  0  0  0  0  0  0  0  0  0  0
    0.4440   -1.0613    0.7901 C   0  0  0  0  0  0  0  0  0  0  0  0
   -0.0780    1.3148   -2.4454 C   0  0  0  0  0  0  0  0  0  0  0  0
   -1.4756    0.9828   -2.9422 C   0  0  0  0  0  0  0  0  0  0  0  0
   -1.7144    1.6674   -4.2784 C   0  0  0  0  0  0  0  0  0  0  0  0
   -1.3879    1.0077   -5.4588 C   0  0  0  0  0  0  0  0  0  0  0  0
   -1.6073    1.6382   -6.6792 C   0  0  0  0  0  0  0  0  0  0  0  0
   -2.1506    2.9182   -6.7132 C   0  0  0  0  0  0  0  0  0  0  0  0
   -2.4733    3.5673   -5.5279 C   0  0  0  0  0  0  0  0  0  0  0  0
   -2.2582    2.9479   -4.3011 C   0  0  0  0  0  0  0  0  0  0  0  0
    0.8853    3.7336    2.5048 N   0  0  0  0  0  0  0  0  0  0  0  0
   -0.4030    3.1782    2.9437 C   0  0  0  0  0  0  0  0  0  0  0  0
   -0.7332    3.7006    4.3324 C   0  0  0  0  0  0  0  0  0  0  0  0
   -1.4934    3.5986    1.9718 C   0  0  0  0  0  0  0  0  0  0  0  0
    0.9717    5.1351    2.0699 C   0  0  0  0  0  0  0  0  0  0  0  0
    2.0722    5.2765    1.0311 C   0  0  0  0  0  0  0  0  0  0  0  0
    1.8902    4.7231   -0.2323 C   0  0  0  0  0  0  0  0  0  0  0  0
    2.8988    4.8538   -1.1816 C   0  0  0  0  0  0  0  0  0  0  0  0
    4.0704    5.5319   -0.8622 C   0  0  0  0  0  0  0  0  0  0  0  0
    5.0836    5.6626   -1.8198 N   0  0  0  0  0  0  0  0  0  0  0  0
    6.2343    5.8621   -1.4671 O   0  0  0  0  0  0  0  0  0  0  0  0
    4.8178    5.5776   -2.9972 O   0  0  0  0  0  0  0  0  0  0  0  0
    4.2494    6.0844    0.4018 C   0  0  0  0  0  0  0  0  0  0  0  0
    3.2428    5.9552    1.3531 C   0  0  0  0  0  0  0  0  0  0  0  0
    3.9425   -0.8281    3.6591 C   0  0  0  0  0  0  0  0  0  0  0  0
    5.3063   -2.9122    0.6117 N   0  0  0  0  0  0  0  0  0  0  0  0
    5.4101   -2.4752   -0.7893 C   0  0  0  0  0  0  0  0  0  0  0  0
    6.6111   -3.1121   -1.4714 C   0  0  0  0  0  0  0  0  0  0  0  0
    6.6883   -4.5047   -1.1950 O   0  0  0  0  0  0  0  0  0  0  0  0
    6.9185   -4.7308    0.1896 C   0  0  0  0  0  0  0  0  0  0  0  0
    5.7507   -4.2484    1.0365 C   0  0  0  0  0  0  0  0  0  0  0  0
  1  2  1  0
  2  3  2  0
  3  4  1  0
  4  5  1  0
  5  6  2  0
  6  7  1  0
  7  8  2  0
  8  9  1  0
  9  5  1  0
  9 10  1  0
 10 11  1  0
 11 12  1  0
 12 13  2  0
 13 14  1  0
 14 15  1  0
 11 15  2  0
 13 16  1  0
 16 17  1  0
 17 18  1  0
 18 19  2  0
 19 20  1  0
 20 21  2  0
 21 22  1  0
 22 23  2  0
 23 18  1  0
  8 24  1  0
 24 25  1  0
 25 26  1  0
 25 27  1  0
 24 28  1  0
 28 29  1  0
 29 30  2  0
 30 31  1  0
 31 32  2  0
 32 33  1  0
 33 34  1  0
 33 35  2  0
 32 36  1  0
 36 37  2  0
 37 29  1  0
  4 38  2  0
 38  1  1  0
  2 39  1  0
 39 40  1  0
 40 41  1  0
 41 42  1  0
 42 43  1  0
 43 44  1  0
 44 39  1  0
M  CHG  2  33   1  34  -1
M  END
$$$$
m_273170____10756154____10763080____10755784
     RDKit          3D

 43 48  0  0  0  0  0  0  0  0999 V2000
   -0.5841   -0.6014   -1.0691 S   0  0  0  0  0  0  0  0  0  0  0  0
   -0.9518   -1.3266   -2.2576 O   0  0  0  0  0  0  0  0  0  0  0  0
   -0.0763   -1.5205   -0.0837 O   0  0  0  0  0  0  0  0  0  0  0  0
   -1.8936    0.1650   -0.4734 N   0  0  0  0  0  0  0  0  0  0  0  0
   -2.4120    1.1033   -1.4792 C   0  0  0  0  0  0  0  0  0  0  0  0
   -2.9314   -0.8224   -0.1435 C   0  0  0  0  0  0  0  0  0  0  0  0
    0.6445    0.5676   -1.4596 C   0  0  0  0  0  0  0  0  0  0  0  0
    1.3249    1.2596   -0.4622 C   0  0  0  0  0  0  0  0  0  0  0  0
    2.3022    2.1890   -0.8030 C   0  0  0  0  0  0  0  0  0  0  0  0
    2.5995    2.4265   -2.1411 C   0  0  0  0  0  0  0  0  0  0  0  0
    1.9137    1.7291   -3.1300 C   0  0  0  0  0  0  0  0  0  0  0  0
    0.9343    0.7976   -2.8003 C   0  0  0  0  0  0  0  0  0  0  0  0
    1.0000    1.0000    1.0000 C   0  0  0  0  0  0  0  0  0  0  0  0
    1.8491    1.8491    1.8491 N   0  0  0  0  0  0  0  0  0  0  0  0
    3.1106    1.5609    2.2618 C   0  0  0  0  0  0  0  0  0  0  0  0
    3.4876    2.5822    2.9906 N   0  0  0  0  0  0  0  0  0  0  0  0
    2.5421    3.4925    3.0611 N   0  0  0  0  0  0  0  0  0  0  0  0
    1.5156    3.0632    2.3622 C   0  0  0  0  0  0  0  0  0  0  0  0
    0.2578    3.7618    2.1755 C   0  0  0  0  0  0  0  0  0  0  0  0
    0.0512    4.5901    1.1383 N   0  0  0  0  0  0  0  0  0  0  0  0
   -1.1098    5.2412    0.9568 C   0  0  0  0  0  0  0  0  0  0  0  0
   -2.1530    5.0684    1.8628 C   0  0  0  0  0  0  0  0  0  0  0  0
   -1.9658    4.2161    2.9461 C   0  0  0  0  0  0  0  0  0  0  0  0
   -0.7524    3.5548    3.1095 C   0  0  0  0  0  0  0  0  0  0  0  0
   -3.3672    5.7278    1.7028 C   0  0  0  0  0  0  0  0  0  0  0  0
   -3.5345    6.5759    0.6132 C   0  0  0  0  0  0  0  0  0  0  0  0
   -2.5084    6.7658   -0.3063 C   0  0  0  0  0  0  0  0  0  0  0  0
   -1.3033    6.0950   -0.1247 C   0  0  0  0  0  0  0  0  0  0  0  0
    3.8548    0.4089    1.9726 N   0  0  0  0  0  0  0  0  0  0  0  0
    3.1722   -0.8149    1.5283 C   0  0  0  0  0  0  0  0  0  0  0  0
    4.0941   -1.6060    0.6146 C   0  0  0  0  0  0  0  0  0  0  0  0
    4.5533   -2.8592    1.0059 C   0  0  0  0  0  0  0  0  0  0  0  0
    4.1778   -3.4142    2.2448 N   0  0  0  0  0  0  0  0  0  0  0  0
    2.9814   -4.2548    2.4077 C   0  0  0  0  0  0  0  0  0  0  0  0
    2.4747   -4.1233    3.8343 C   0  0  0  0  0  0  0  0  0  0  0  0
    3.4122   -4.5895    4.8010 O   0  0  0  0  0  0  0  0  0  0  0  0
    4.7676   -4.3930    4.4111 C   0  0  0  0  0  0  0  0  0  0  0  0
    4.9459   -3.2033    3.4796 C   0  0  0  0  0  0  0  0  0  0  0  0
    5.3967   -3.5828    0.1699 C   0  0  0  0  0  0  0  0  0  0  0  0
    5.7807   -3.0535   -1.0576 C   0  0  0  0  0  0  0  0  0  0  0  0
    5.3216   -1.8005   -1.4487 C   0  0  0  0  0  0  0  0  0  0  0  0
    4.4789   -1.0764   -0.6123 C   0  0  0  0  0  0  0  0  0  0  0  0
    5.3180    0.4245    2.1136 C   0  0  0  0  0  0  0  0  0  0  0  0
  1  2  2  0
  1  3  2  0
  1  4  1  0
  4  5  1  0
  4  6  1  0
  1  7  1  0
  7  8  2  0
  8  9  1  0
  9 10  2  0
 10 11  1  0
 11 12  2  0
 12  7  1  0
  8 13  1  0
 13 14  1  0
 14 15  1  0
 15 16  2  0
 16 17  1  0
 17 18  2  0
 18 14  1  0
 18 19  1  0
 19 20  2  0
 20 21  1  0
 21 22  2  0
 22 23  1  0
 23 24  2  0
 24 19  1  0
 22 25  1  0
 25 26  2  0
 26 27  1  0
 27 28  2  0
 28 21  1  0
 15 29  1  0
 29 30  1  0
 30 31  1  0
 31 32  1  0
 32 33  1  0
 33 34  1  0
 34 35  1  0
 35 36  1  0
 36 37  1  0
 37 38  1  0
 38 33  1  0
 32 39  2  0
 39 40  1  0
 40 41  2  0
 41 42  1  0
 42 31  2  0
 29 43  1  0
M  END
$$$$
m_273170____14419910____10761862____10766638
     RDKit          3D

 43 49  0  0  0  0  0  0  0  0999 V2000
    3.8879   -3.4255    7.1312 Cl  0  0  0  0  0  0  0  0  0  0  0  0
    2.2662   -2.6988    7.0289 C   0  0  0  0  0  0  0  0  0  0  0  0
    1.7772   -2.2735    5.7981 C   0  0  0  0  0  0  0  0  0  0  0  0
    0.5078   -1.7081    5.7388 C   0  0  0  0  0  0  0  0  0  0  0  0
    0.0116   -1.2777    4.5001 N   0  0  0  0  0  0  0  0  0  0  0  0
   -1.2508   -1.0343    4.2339 N   0  0  0  0  0  0  0  0  0  0  0  0
   -1.3930   -0.6460    2.9898 C   0  0  0  0  0  0  0  0  0  0  0  0
   -0.0965   -0.6489    2.4282 C   0  0  0  0  0  0  0  0  0  0  0  0
    0.7710   -1.0513    3.3940 C   0  0  0  0  0  0  0  0  0  0  0  0
    0.2650   -0.2731    1.0004 C   0  0  0  0  0  0  0  0  0  0  0  0
    1.0000    1.0000    1.0000 N   0  0  0  0  0  0  0  0  0  0  0  0
    2.4017    1.0000    1.0000 C   0  0  0  0  0  0  0  0  0  0  0  0
    3.1912    1.9825    1.3572 N   0  0  0  0  0  0  0  0  0  0  0  0
    4.4560    1.6477    1.2313 N   0  0  0  0  0  0  0  0  0  0  0  0
    4.5040    0.4144    0.7803 C   0  0  0  0  0  0  0  0  0  0  0  0
    3.2232   -0.0152    0.6266 N   0  0  0  0  0  0  0  0  0  0  0  0
    2.8010   -1.3388    0.1446 C   0  0  0  0  0  0  0  0  0  0  0  0
    2.5316   -1.2716   -1.3501 C   0  0  0  0  0  0  0  0  0  0  0  0
    3.4875   -0.7054   -2.1870 C   0  0  0  0  0  0  0  0  0  0  0  0
    3.2378   -0.6461   -3.5541 C   0  0  0  0  0  0  0  0  0  0  0  0
    2.0526   -1.1433   -4.0858 C   0  0  0  0  0  0  0  0  0  0  0  0
    1.1099   -1.7058   -3.2313 C   0  0  0  0  0  0  0  0  0  0  0  0
    1.3397   -1.7749   -1.8612 C   0  0  0  0  0  0  0  0  0  0  0  0
    4.2738   -0.0291   -4.4800 C   0  0  0  0  0  0  0  0  0  0  0  0
    5.1468   -1.0088   -5.0003 O   0  0  0  0  0  0  0  0  0  0  0  0
    6.2629   -0.2734   -5.4755 C   0  0  0  0  0  0  0  0  0  0  0  0
    6.2939    0.9480   -4.5784 C   0  0  0  0  0  0  0  0  0  0  0  0
    5.1562    0.8098   -3.7519 O   0  0  0  0  0  0  0  0  0  0  0  0
    5.6999   -0.3407    0.5011 C   0  0  0  0  0  0  0  0  0  0  0  0
    5.7578   -1.7061    0.4116 N   0  0  0  0  0  0  0  0  0  0  0  0
    6.9386   -2.2081    0.1502 C   0  0  0  0  0  0  0  0  0  0  0  0
    8.0031   -0.8860    0.0253 S   0  0  0  0  0  0  0  0  0  0  0  0
    6.8595    0.3421    0.3163 C   0  0  0  0  0  0  0  0  0  0  0  0
    7.2742   -3.5581    0.0087 N   0  0  0  0  0  0  0  0  0  0  0  0
    6.2004   -4.5605   -0.0729 C   0  0  0  0  0  0  0  0  0  0  0  0
    6.6052   -5.7211   -0.9687 C   0  0  0  0  0  0  0  0  0  0  0  0
    7.9220   -6.1701   -0.6752 O   0  0  0  0  0  0  0  0  0  0  0  0
    8.8760   -5.1583   -0.9701 C   0  0  0  0  0  0  0  0  0  0  0  0
    8.6920   -3.9395   -0.0787 C   0  0  0  0  0  0  0  0  0  0  0  0
    0.2650    2.2731    0.9996 C   0  0  0  0  0  0  0  0  0  0  0  0
   -0.2646   -1.5671    6.8872 C   0  0  0  0  0  0  0  0  0  0  0  0
    0.2359   -1.9965    8.1119 C   0  0  0  0  0  0  0  0  0  0  0  0
    1.5040   -2.5638    8.1848 C   0  0  0  0  0  0  0  0  0  0  0  0
  1  2  1  0
  2  3  2  0
  3  4  1  0
  4  5  1  0
  5  6  1  0
  6  7  2  0
  7  8  1  0
  8  9  2  0
  9  5  1  0
  8 10  1  0
 10 11  1  0
 11 12  1  0
 12 13  2  0
 13 14  1  0
 14 15  2  0
 15 16  1  0
 16 12  1  0
 16 17  1  0
 17 18  1  0
 18 19  2  0
 19 20  1  0
 20 21  2  0
 21 22  1  0
 22 23  2  0
 23 18  1  0
 20 24  1  0
 24 25  1  0
 25 26  1  0
 26 27  1  0
 27 28  1  0
 28 24  1  0
 15 29  1  0
 29 30  1  0
 30 31  2  0
 31 32  1  0
 32 33  1  0
 29 33  2  0
 31 34  1  0
 34 35  1  0
 35 36  1  0
 36 37  1  0
 37 38  1  0
 38 39  1  0
 39 34  1  0
 11 40  1  0
  4 41  2  0
 41 42  1  0
 42 43  2  0
 43  2  1  0
M  END
$$$$
m_273170____10756154____10761984____10766770
     RDKit          3D

 41 46  0  0  0  0  0  0  0  0999 V2000
    3.9585    0.2458    1.1826 S   0  0  0  0  0  0  0  0  0  0  0  0
    5.2980    0.0463    1.6720 O   0  0  0  0  0  0  0  0  0  0  0  0
    3.1778   -0.9400    1.4236 O   0  0  0  0  0  0  0  0  0  0  0  0
    4.0045    0.5500   -0.4181 N   0  0  0  0  0  0  0  0  0  0  0  0
    4.8015    1.7604   -0.6641 C   0  0  0  0  0  0  0  0  0  0  0  0
    4.6165   -0.5899   -1.1161 C   0  0  0  0  0  0  0  0  0  0  0  0
    3.2341    1.5952    2.0089 C   0  0  0  0  0  0  0  0  0  0  0  0
    1.8777    1.8777    1.8777 C   0  0  0  0  0  0  0  0  0  0  0  0
    1.3249    2.9632    2.5494 C   0  0  0  0  0  0  0  0  0  0  0  0
    2.1281    3.7663    3.3526 C   0  0  0  0  0  0  0  0  0  0  0  0
    3.4825    3.4748    3.4770 C   0  0  0  0  0  0  0  0  0  0  0  0
    4.0457    2.3919    2.8095 C   0  0  0  0  0  0  0  0  0  0  0  0
    1.0000    1.0000    1.0000 C   0  0  0  0  0  0  0  0  0  0  0  0
   -0.3812    1.5041    1.0281 N   0  0  0  0  0  0  0  0  0  0  0  0
   -1.4425    0.8978    1.6207 C   0  0  0  0  0  0  0  0  0  0  0  0
   -2.4671    1.6852    1.4050 N   0  0  0  0  0  0  0  0  0  0  0  0
   -2.1154    2.7469    0.7144 N   0  0  0  0  0  0  0  0  0  0  0  0
   -0.8277    2.6596    0.4678 C   0  0  0  0  0  0  0  0  0  0  0  0
   -0.0324    3.6239   -0.2687 C   0  0  0  0  0  0  0  0  0  0  0  0
    0.7488    3.2476   -1.3596 C   0  0  0  0  0  0  0  0  0  0  0  0
    0.8125    1.9764   -1.7981 N   0  0  0  0  0  0  0  0  0  0  0  0
    1.5644    1.6084   -2.8464 C   0  0  0  0  0  0  0  0  0  0  0  0
    2.3176    2.5573   -3.5305 C   0  0  0  0  0  0  0  0  0  0  0  0
    2.2724    3.8801   -3.1027 C   0  0  0  0  0  0  0  0  0  0  0  0
    1.4849    4.2314   -2.0123 C   0  0  0  0  0  0  0  0  0  0  0  0
    1.4527    5.5593   -1.5990 C   0  0  0  0  0  0  0  0  0  0  0  0
    0.6668    5.9144   -0.5080 C   0  0  0  0  0  0  0  0  0  0  0  0
   -0.0766    4.9459    0.1583 C   0  0  0  0  0  0  0  0  0  0  0  0
   -1.4441   -0.3195    2.3155 N   0  0  0  0  0  0  0  0  0  0  0  0
   -1.1977   -0.3390    3.7646 C   0  0  0  0  0  0  0  0  0  0  0  0
   -0.5302   -1.6535    4.1486 C   0  0  0  0  0  0  0  0  0  0  0  0
   -1.1442   -2.7604    4.5001 O   0  0  0  0  0  0  0  0  0  0  0  0
   -0.2730   -3.7085    4.7691 C   0  0  0  0  0  0  0  0  0  0  0  0
    0.9764   -3.1955    4.5896 C   0  0  0  0  0  0  0  0  0  0  0  0
    0.8157   -1.8500    4.1850 C   0  0  0  0  0  0  0  0  0  0  0  0
   -1.6923   -1.5767    1.5952 C   0  0  0  0  0  0  0  0  0  0  0  0
   -3.1424   -2.0006    1.7976 C   0  0  0  0  0  0  0  0  0  0  0  0
   -4.0765   -1.0440    1.3233 O   0  0  0  0  0  0  0  0  0  0  0  0
   -5.3059   -1.7262    1.1617 C   0  0  0  0  0  0  0  0  0  0  0  0
   -4.9723   -3.1772    0.8782 C   0  0  0  0  0  0  0  0  0  0  0  0
   -3.4581   -3.1587    0.8685 C   0  0  0  0  0  0  0  0  0  0  0  0
  1  2  2  0
  1  3  2  0
  1  4  1  0
  4  5  1  0
  4  6  1  0
  1  7  1  0
  7  8  2  0
  8  9  1  0
  9 10  2  0
 10 11  1  0
 11 12  2  0
 12  7  1  0
  8 13  1  0
 13 14  1  0
 14 15  1  0
 15 16  2  0
 16 17  1  0
 17 18  2  0
 18 14  1  0
 18 19  1  0
 19 20  1  0
 20 21  2  0
 21 22  1  0
 22 23  2  0
 23 24  1  0
 24 25  2  0
 25 20  1  0
 25 26  1  0
 26 27  2  0
 27 28  1  0
 28 19  2  0
 15 29  1  0
 29 30  1  0
 30 31  1  0
 31 32  1  0
 32 33  1  0
 33 34  2  0
 34 35  1  0
 31 35  2  0
 29 36  1  0
 36 37  1  0
 37 38  1  0
 38 39  1  0
 39 40  1  0
 40 41  1  0
 41 37  1  0
M  END
$$$$
s_270196____12890970____8772094
     RDKit          3D

 36 41  0  0  0  0  0  0  0  0999 V2000
    3.2897    3.3251    2.4953 O   0  0  0  0  0  0  0  0  0  0  0  0
    4.0828    2.3380    2.4895 N   0  0  0  0  0  0  0  0  0  0  0  0
    3.3784    1.2345    2.4974 C   0  0  0  0  0  0  0  0  0  0  0  0
    2.0616    1.5822    2.5110 N   0  0  0  0  0  0  0  0  0  0  0  0
    2.0505    2.8931    2.5095 C   0  0  0  0  0  0  0  0  0  0  0  0
    0.8640    3.7278    2.5208 C   0  0  0  0  0  0  0  0  0  0  0  0
   -0.3153    3.1810    2.5345 C   0  0  0  0  0  0  0  0  0  0  0  0
   -1.5023    4.0160    2.5458 C   0  0  0  0  0  0  0  0  0  0  0  0
   -2.8398    3.5647    2.5610 C   0  0  0  0  0  0  0  0  0  0  0  0
   -3.5832    4.6489    2.5635 N   0  0  0  0  0  0  0  0  0  0  0  0
   -2.8465    5.7340    2.5585 N   0  0  0  0  0  0  0  0  0  0  0  0
   -3.3284    7.0486    2.5612 C   0  0  0  0  0  0  0  0  0  0  0  0
   -2.4305    8.1112    2.5552 C   0  0  0  0  0  0  0  0  0  0  0  0
   -2.9131    9.4159    2.5577 C   0  0  0  0  0  0  0  0  0  0  0  0
   -4.2839    9.6502    2.5663 C   0  0  0  0  0  0  0  0  0  0  0  0
   -5.1724    8.5801    2.5717 C   0  0  0  0  0  0  0  0  0  0  0  0
   -4.7014    7.2713    2.5694 C   0  0  0  0  0  0  0  0  0  0  0  0
   -1.5326    5.3766    2.5417 C   0  0  0  0  0  0  0  0  0  0  0  0
   -3.3026    2.1906    2.5710 C   0  0  0  0  0  0  0  0  0  0  0  0
   -2.6354    1.2483    3.3467 C   0  0  0  0  0  0  0  0  0  0  0  0
   -3.0769   -0.0708    3.3594 C   0  0  0  0  0  0  0  0  0  0  0  0
   -4.1823   -0.4300    2.5945 C   0  0  0  0  0  0  0  0  0  0  0  0
   -4.6452   -1.8044    2.6064 C   0  0  0  0  0  0  0  0  0  0  0  0
   -5.2681   -2.3314    1.4799 C   0  0  0  0  0  0  0  0  0  0  0  0
   -5.7114   -3.6499    1.4958 C   0  0  0  0  0  0  0  0  0  0  0  0
   -5.5291   -4.4313    2.6320 C   0  0  0  0  0  0  0  0  0  0  0  0
   -4.9050   -3.8943    3.7513 C   0  0  0  0  0  0  0  0  0  0  0  0
   -4.4580   -2.5771    3.7481 C   0  0  0  0  0  0  0  0  0  0  0  0
   -4.8501    0.5121    1.8185 C   0  0  0  0  0  0  0  0  0  0  0  0
   -4.4077    1.8313    1.8063 C   0  0  0  0  0  0  0  0  0  0  0  0
    3.9320   -0.1807    2.4921 C   0  0  0  0  0  0  0  0  0  0  0  0
    3.5695   -1.1107    1.3448 C   0  0  0  0  0  0  0  0  0  0  0  0
    4.0181   -0.5489    0.1202 O   0  0  0  0  0  0  0  0  0  0  0  0
    3.6797   -1.4173   -0.9511 C   0  0  0  0  0  0  0  0  0  0  0  0
    4.0816   -0.8276    3.8397 C   0  0  0  0  0  0  0  0  0  0  0  0
    5.2978   -0.3655    3.0896 C   0  0  0  0  0  0  0  0  0  0  0  0
  1  2  1  0
  2  3  2  0
  3  4  1  0
  4  5  2  0
  5  1  1  0
  5  6  1  0
  6  7  2  0
  7  8  1  0
  8  9  1  0
  9 10  2  0
 10 11  1  0
 11 12  1  0
 12 13  2  0
 13 14  1  0
 14 15  2  0
 15 16  1  0
 16 17  2  0
 17 12  1  0
 11 18  1  0
  8 18  2  0
  9 19  1  0
 19 20  2  0
 20 21  1  0
 21 22  2  0
 22 23  1  0
 23 24  2  0
 24 25  1  0
 25 26  2  0
 26 27  1  0
 27 28  2  0
 28 23  1  0
 22 29  1  0
 29 30  2  0
 30 19  1  0
  3 31  1  0
 31 32  1  0
 32 33  1  0
 33 34  1  0
 31 35  1  0
 35 36  1  0
 36 31  1  0
M  END
$$$$
s_2____1137266____8992042____6286554
     RDKit          3D

 40 45  0  0  0  0  0  0  0  0999 V2000
    3.3299    3.5681    2.4036 S   0  0  0  0  0  0  0  0  0  0  0  0
    4.2406    2.1295    2.4468 C   0  0  0  0  0  0  0  0  0  0  0  0
    5.5094    2.0301    2.4537 N   0  0  0  0  0  0  0  0  0  0  0  0
    6.2979    3.0995    2.0115 C   0  0  0  0  0  0  0  0  0  0  0  0
    6.7163    4.0712    2.9144 C   0  0  0  0  0  0  0  0  0  0  0  0
    7.4992    5.1352    2.4777 C   0  0  0  0  0  0  0  0  0  0  0  0
    7.8539    5.2096    1.1345 C   0  0  0  0  0  0  0  0  0  0  0  0
    7.4366    4.2393    0.2294 C   0  0  0  0  0  0  0  0  0  0  0  0
    6.6538    3.1768    0.6690 C   0  0  0  0  0  0  0  0  0  0  0  0
    8.7089    6.3711    0.6549 C   0  0  0  0  0  0  0  0  0  0  0  0
    9.1688    7.0475    1.7036 F   0  0  0  0  0  0  0  0  0  0  0  0
    9.7321    5.9034   -0.0544 F   0  0  0  0  0  0  0  0  0  0  0  0
    7.9743    7.1780   -0.1056 F   0  0  0  0  0  0  0  0  0  0  0  0
    3.3388    1.1121    2.4746 N   0  0  0  0  0  0  0  0  0  0  0  0
    2.0334    1.5154    2.4653 C   0  0  0  0  0  0  0  0  0  0  0  0
    0.9034    0.6099    2.4960 C   0  0  0  0  0  0  0  0  0  0  0  0
    0.5002   -0.1817    3.5927 C   0  0  0  0  0  0  0  0  0  0  0  0
   -0.5590   -0.8458    3.1965 N   0  0  0  0  0  0  0  0  0  0  0  0
   -0.8565   -0.5435    1.9544 N   0  0  0  0  0  0  0  0  0  0  0  0
   -1.9279   -1.0748    1.2263 C   0  0  0  0  0  0  0  0  0  0  0  0
   -2.7746   -2.0023    1.8248 C   0  0  0  0  0  0  0  0  0  0  0  0
   -3.8382   -2.5278    1.0983 C   0  0  0  0  0  0  0  0  0  0  0  0
   -4.0485   -2.1253   -0.2162 C   0  0  0  0  0  0  0  0  0  0  0  0
   -3.1960   -1.1969   -0.8042 C   0  0  0  0  0  0  0  0  0  0  0  0
   -2.1292   -0.6648   -0.0876 C   0  0  0  0  0  0  0  0  0  0  0  0
    0.0372    0.3664    1.4757 C   0  0  0  0  0  0  0  0  0  0  0  0
    1.7813    2.8529    2.4247 C   0  0  0  0  0  0  0  0  0  0  0  0
    3.7804   -0.2891    2.5193 C   0  0  0  0  0  0  0  0  0  0  0  0
    3.9383   -0.8167    1.1005 C   0  0  0  0  0  0  0  0  0  0  0  0
    5.0950   -0.7268    0.4200 N   0  0  0  0  0  0  0  0  0  0  0  0
    5.2452   -1.1884   -0.8346 C   0  0  0  0  0  0  0  0  0  0  0  0
    6.4554   -1.0886   -1.5313 N   0  0  0  0  0  0  0  0  0  0  0  0
    6.5411   -1.6175   -2.9016 C   0  0  0  0  0  0  0  0  0  0  0  0
    7.5009   -0.7927   -3.7451 C   0  0  0  0  0  0  0  0  0  0  0  0
    8.7130   -0.5319   -3.0490 O   0  0  0  0  0  0  0  0  0  0  0  0
    8.4728    0.2802   -1.9072 C   0  0  0  0  0  0  0  0  0  0  0  0
    7.6039   -0.4361   -0.8845 C   0  0  0  0  0  0  0  0  0  0  0  0
    4.1682   -1.7903   -1.4771 C   0  0  0  0  0  0  0  0  0  0  0  0
    2.9563   -1.8999   -0.8021 C   0  0  0  0  0  0  0  0  0  0  0  0
    2.8359   -1.4112    0.4948 C   0  0  0  0  0  0  0  0  0  0  0  0
  1  2  1  0
  2  3  2  0
  3  4  1  0
  4  5  2  0
  5  6  1  0
  6  7  2  0
  7  8  1  0
  8  9  2  0
  9  4  1  0
  7 10  1  0
 10 11  1  0
 10 12  1  0
 10 13  1  0
  2 14  1  0
 14 15  1  0
 15 16  1  0
 16 17  1  0
 17 18  2  0
 18 19  1  0
 19 20  1  0
 20 21  2  0
 21 22  1  0
 22 23  2  0
 23 24  1  0
 24 25  2  0
 25 20  1  0
 19 26  1  0
 16 26  2  0
 15 27  2  0
 27  1  1  0
 14 28  1  0
 28 29  1  0
 29 30  2  0
 30 31  1  0
 31 32  1  0
 32 33  1  0
 33 34  1  0
 34 35  1  0
 35 36  1  0
 36 37  1  0
 37 32  1  0
 31 38  2  0
 38 39  1  0
 39 40  2  0
 40 29  1  0
M  END
$$$$
m_273170____10756572____10765544____10766652
     RDKit          3D

 40 44  0  0  0  0  0  0  0  0999 V2000
   -0.0754   -3.1508   -0.9238 S   0  0  0  0  0  0  0  0  0  0  0  0
   -0.2080   -3.3001   -2.3499 O   0  0  0  0  0  0  0  0  0  0  0  0
    1.0701   -3.8949   -0.4678 O   0  0  0  0  0  0  0  0  0  0  0  0
   -1.4173   -3.7161   -0.1912 N   0  0  0  0  0  0  0  0  0  0  0  0
   -1.5935   -5.1378   -0.5209 C   0  0  0  0  0  0  0  0  0  0  0  0
    0.1333   -1.4678   -0.5336 C   0  0  0  0  0  0  0  0  0  0  0  0
    0.4328   -1.0946    0.7728 C   0  0  0  0  0  0  0  0  0  0  0  0
    0.5967    0.2541    1.0704 C   0  0  0  0  0  0  0  0  0  0  0  0
    0.4661    1.2253    0.0833 C   0  0  0  0  0  0  0  0  0  0  0  0
    0.1664    0.8309   -1.2166 C   0  0  0  0  0  0  0  0  0  0  0  0
   -0.0021   -0.5126   -1.5356 C   0  0  0  0  0  0  0  0  0  0  0  0
    0.9245    0.6605    2.4981 C   0  0  0  0  0  0  0  0  0  0  0  0
    2.0806    1.5694    2.4959 N   0  0  0  0  0  0  0  0  0  0  0  0
    2.0315    2.9267    2.5008 C   0  0  0  0  0  0  0  0  0  0  0  0
    3.2789    3.3271    2.4974 N   0  0  0  0  0  0  0  0  0  0  0  0
    4.1071    2.3065    2.4903 N   0  0  0  0  0  0  0  0  0  0  0  0
    3.3905    1.2051    2.4893 C   0  0  0  0  0  0  0  0  0  0  0  0
    3.9084   -0.1505    2.4826 C   0  0  0  0  0  0  0  0  0  0  0  0
    3.0678   -1.5549    2.9497 S   0  0  0  0  0  0  0  0  0  0  0  0
    4.3586   -2.6230    2.6476 C   0  0  0  0  0  0  0  0  0  0  0  0
    5.3744   -1.9154    2.2134 N   0  0  0  0  0  0  0  0  0  0  0  0
    5.1499   -0.5668    2.1183 C   0  0  0  0  0  0  0  0  0  0  0  0
    6.1917    0.4300    1.6391 C   0  0  0  0  0  0  0  0  0  0  0  0
    4.3149   -4.0583    2.8549 C   0  0  0  0  0  0  0  0  0  0  0  0
    5.5018   -4.7778    2.9461 C   0  0  0  0  0  0  0  0  0  0  0  0
    5.4553   -6.1540    3.1441 C   0  0  0  0  0  0  0  0  0  0  0  0
    4.2283   -6.8003    3.2506 C   0  0  0  0  0  0  0  0  0  0  0  0
    3.0491   -6.0712    3.1584 C   0  0  0  0  0  0  0  0  0  0  0  0
    3.0822   -4.6948    2.9599 C   0  0  0  0  0  0  0  0  0  0  0  0
    0.8853    3.7336    2.5048 N   0  0  0  0  0  0  0  0  0  0  0  0
    0.9717    5.1351    2.0699 C   0  0  0  0  0  0  0  0  0  0  0  0
    0.7157    5.2181    0.5767 C   0  0  0  0  0  0  0  0  0  0  0  0
   -0.8079    5.4304   -0.1483 S   0  0  0  0  0  0  0  0  0  0  0  0
   -0.2418    5.4078   -1.7555 C   0  0  0  0  0  0  0  0  0  0  0  0
    1.0679    5.2448   -1.6893 N   0  0  0  0  0  0  0  0  0  0  0  0
    1.6245    5.1362   -0.4343 C   0  0  0  0  0  0  0  0  0  0  0  0
   -0.4030    3.1782    2.9437 C   0  0  0  0  0  0  0  0  0  0  0  0
   -0.7332    3.7006    4.3324 C   0  0  0  0  0  0  0  0  0  0  0  0
   -1.9179    3.0757    4.8039 O   0  0  0  0  0  0  0  0  0  0  0  0
   -2.2264    3.5637    6.1012 C   0  0  0  0  0  0  0  0  0  0  0  0
  1  2  2  0
  1  3  2  0
  1  4  1  0
  4  5  1  0
  1  6  1  0
  6  7  2  0
  7  8  1  0
  8  9  2  0
  9 10  1  0
 10 11  2  0
 11  6  1  0
  8 12  1  0
 12 13  1  0
 13 14  1  0
 14 15  2  0
 15 16  1  0
 16 17  2  0
 17 13  1  0
 17 18  1  0
 18 19  1  0
 19 20  1  0
 20 21  2  0
 21 22  1  0
 18 22  2  0
 22 23  1  0
 20 24  1  0
 24 25  2  0
 25 26  1  0
 26 27  2  0
 27 28  1  0
 28 29  2  0
 29 24  1  0
 14 30  1  0
 30 31  1  0
 31 32  1  0
 32 33  1  0
 33 34  1  0
 34 35  2  0
 35 36  1  0
 32 36  2  0
 30 37  1  0
 37 38  1  0
 38 39  1  0
 39 40  1  0
M  END
$$$$
m_276910____14484388____14486608
     RDKit          3D

 28 31  0  0  0  0  0  0  0  0999 V2000
    1.0000    1.0000    1.0000 S   0  0  0  0  0  0  0  0  0  0  0  0
   -0.2666    1.6504    0.7848 O   0  0  0  0  0  0  0  0  0  0  0  0
    0.7848   -0.2666    1.6504 O   0  0  0  0  0  0  0  0  0  0  0  0
    1.7363    0.7563   -0.4337 N   0  0  0  0  0  0  0  0  0  0  0  0
    0.8876   -0.0924   -1.2824 C   0  0  0  0  0  0  0  0  0  0  0  0
    1.5741   -0.3196   -2.6193 C   0  0  0  0  0  0  0  0  0  0  0  0
    2.0045    2.0045    2.0045 C   0  0  0  0  0  0  0  0  0  0  0  0
    1.8611    3.3871    1.9566 C   0  0  0  0  0  0  0  0  0  0  0  0
    2.6713    4.1779    2.7649 C   0  0  0  0  0  0  0  0  0  0  0  0
    3.6142    3.6035    3.6112 C   0  0  0  0  0  0  0  0  0  0  0  0
    3.7415    2.2187    3.6444 C   0  0  0  0  0  0  0  0  0  0  0  0
    2.9408    1.4099    2.8445 C   0  0  0  0  0  0  0  0  0  0  0  0
    2.5242    5.6198    2.7174 C   0  0  0  0  0  0  0  0  0  0  0  0
    3.2199    6.4774    3.4226 N   0  0  0  0  0  0  0  0  0  0  0  0
    2.7632    7.7111    3.0741 C   0  0  0  0  0  0  0  0  0  0  0  0
    1.8142    7.5769    2.1794 N   0  0  0  0  0  0  0  0  0  0  0  0
    1.6394    6.2990    1.9361 N   0  0  0  0  0  0  0  0  0  0  0  0
    3.2449    8.9635    3.6012 C   0  0  0  0  0  0  0  0  0  0  0  0
    4.2380    9.0864    4.5362 N   0  0  0  0  0  0  0  0  0  0  0  0
    4.5357   10.3115    4.8902 C   0  0  0  0  0  0  0  0  0  0  0  0
    3.5025   11.3304    4.0008 S   0  0  0  0  0  0  0  0  0  0  0  0
    2.6760   10.1103    3.1471 C   0  0  0  0  0  0  0  0  0  0  0  0
    5.5012   10.7164    5.8195 N   0  0  0  0  0  0  0  0  0  0  0  0
    6.3129    9.6969    6.5024 C   0  0  0  0  0  0  0  0  0  0  0  0
    7.7117   10.2186    6.7926 C   0  0  0  0  0  0  0  0  0  0  0  0
    7.6744   11.5280    7.3454 O   0  0  0  0  0  0  0  0  0  0  0  0
    7.1488   12.4561    6.4055 C   0  0  0  0  0  0  0  0  0  0  0  0
    5.6961   12.1521    6.0722 C   0  0  0  0  0  0  0  0  0  0  0  0
  1  2  2  0
  1  3  2  0
  1  4  1  0
  4  5  1  0
  5  6  1  0
  1  7  1  0
  7  8  2  0
  8  9  1  0
  9 10  2  0
 10 11  1  0
 11 12  2  0
 12  7  1  0
  9 13  1  0
 13 14  2  0
 14 15  1  0
 15 16  2  0
 16 17  1  0
 17 13  1  0
 15 18  1  0
 18 19  1  0
 19 20  2  0
 20 21  1  0
 21 22  1  0
 18 22  2  0
 20 23  1  0
 23 24  1  0
 24 25  1  0
 25 26  1  0
 26 27  1  0
 27 28  1  0
 28 23  1  0
M  END
$$$$
m_273170____14412036____10761502____10755784
     RDKit          3D

 40 45  0  0  0  0  0  0  0  0999 V2000
   -1.8061    0.3250    2.8595 O   0  0  0  0  0  0  0  0  0  0  0  0
   -0.8179   -0.5000    3.2673 C   0  0  0  0  0  0  0  0  0  0  0  0
    0.2272   -0.8359    2.4124 C   0  0  0  0  0  0  0  0  0  0  0  0
    1.2365   -1.6877    2.8488 C   0  0  0  0  0  0  0  0  0  0  0  0
    1.2023   -2.2024    4.1407 C   0  0  0  0  0  0  0  0  0  0  0  0
    0.1578   -1.8662    4.9962 C   0  0  0  0  0  0  0  0  0  0  0  0
   -0.8525   -1.0149    4.5594 C   0  0  0  0  0  0  0  0  0  0  0  0
    0.2650   -0.2731    1.0004 C   0  0  0  0  0  0  0  0  0  0  0  0
    1.0000    1.0000    1.0000 N   0  0  0  0  0  0  0  0  0  0  0  0
    2.4017    1.0000    1.0000 C   0  0  0  0  0  0  0  0  0  0  0  0
    3.1912    0.0175    0.6428 N   0  0  0  0  0  0  0  0  0  0  0  0
    4.4560    0.3523    0.7687 N   0  0  0  0  0  0  0  0  0  0  0  0
    4.5040    1.5856    1.2197 C   0  0  0  0  0  0  0  0  0  0  0  0
    3.2232    2.0152    1.3734 N   0  0  0  0  0  0  0  0  0  0  0  0
    2.8010    3.3388    1.8554 C   0  0  0  0  0  0  0  0  0  0  0  0
    2.8897    3.3776    3.3723 C   0  0  0  0  0  0  0  0  0  0  0  0
    2.4676    4.7010    3.8542 N   0  0  0  0  0  0  0  0  0  0  0  0
    1.2362    5.0352    4.1709 N   0  0  0  0  0  0  0  0  0  0  0  0
    1.1903    6.2853    4.5658 C   0  0  0  0  0  0  0  0  0  0  0  0
    2.5121    6.7758    4.4900 C   0  0  0  0  0  0  0  0  0  0  0  0
    3.3000    5.7612    4.0424 C   0  0  0  0  0  0  0  0  0  0  0  0
    2.9693    8.1830    4.8478 C   0  0  0  0  0  0  0  0  0  0  0  0
    4.0009    8.2071    5.9615 C   0  0  0  0  0  0  0  0  0  0  0  0
    4.6421    9.4613    5.8076 O   0  0  0  0  0  0  0  0  0  0  0  0
    4.5159    9.8874    4.4594 C   0  0  0  0  0  0  0  0  0  0  0  0
    3.7775    8.7919    3.7213 C   0  0  0  0  0  0  0  0  0  0  0  0
    5.7075    2.3455    1.5006 C   0  0  0  0  0  0  0  0  0  0  0  0
    6.1128    2.5977    2.7563 N   0  0  0  0  0  0  0  0  0  0  0  0
    7.2257    3.3002    3.0265 C   0  0  0  0  0  0  0  0  0  0  0  0
    8.0051    3.7959    1.9846 C   0  0  0  0  0  0  0  0  0  0  0  0
    7.6083    3.5492    0.6744 C   0  0  0  0  0  0  0  0  0  0  0  0
    6.4507    2.8188    0.4238 C   0  0  0  0  0  0  0  0  0  0  0  0
    9.1628    4.5264    2.2311 C   0  0  0  0  0  0  0  0  0  0  0  0
    9.5425    4.7626    3.5482 C   0  0  0  0  0  0  0  0  0  0  0  0
    8.7816    4.2784    4.6070 C   0  0  0  0  0  0  0  0  0  0  0  0
    7.6279    3.5503    4.3348 C   0  0  0  0  0  0  0  0  0  0  0  0
    0.2650    2.2731    0.9996 C   0  0  0  0  0  0  0  0  0  0  0  0
   -0.3095    2.5259   -0.3848 C   0  0  0  0  0  0  0  0  0  0  0  0
   -1.0195    3.7557   -0.3852 O   0  0  0  0  0  0  0  0  0  0  0  0
   -2.8649    0.6570    3.7456 C   0  0  0  0  0  0  0  0  0  0  0  0
  1  2  1  0
  2  3  2  0
  3  4  1  0
  4  5  2  0
  5  6  1  0
  6  7  2  0
  7  2  1  0
  3  8  1  0
  8  9  1  0
  9 10  1  0
 10 11  2  0
 11 12  1  0
 12 13  2  0
 13 14  1  0
 14 10  1  0
 14 15  1  0
 15 16  1  0
 16 17  1  0
 17 18  1  0
 18 19  2  0
 19 20  1  0
 20 21  2  0
 21 17  1  0
 20 22  1  0
 22 23  1  0
 23 24  1  0
 24 25  1  0
 25 26  1  0
 26 22  1  0
 13 27  1  0
 27 28  2  0
 28 29  1  0
 29 30  2  0
 30 31  1  0
 31 32  2  0
 32 27  1  0
 30 33  1  0
 33 34  2  0
 34 35  1  0
 35 36  2  0
 36 29  1  0
  9 37  1  0
 37 38  1  0
 38 39  1  0
  1 40  1  0
M  END
$$$$
m_274972____12934192____12615770____14260852
     RDKit          3D

 29 32  0  0  0  0  0  0  0  0999 V2000
   10.2247    1.6719    2.3661 S   0  0  0  0  0  0  0  0  0  0  0  0
   10.8020    2.8102    3.0328 O   0  0  0  0  0  0  0  0  0  0  0  0
   10.6267    0.4653    3.0415 O   0  0  0  0  0  0  0  0  0  0  0  0
   10.7414    1.6275    0.8208 N   0  0  0  0  0  0  0  0  0  0  0  0
   12.2071    1.5178    0.7972 C   0  0  0  0  0  0  0  0  0  0  0  0
    8.4200    1.8069    2.3952 C   0  0  0  0  0  0  0  0  0  0  0  0
    7.6437    0.6529    2.4108 C   0  0  0  0  0  0  0  0  0  0  0  0
    6.2577    0.7683    2.4333 C   0  0  0  0  0  0  0  0  0  0  0  0
    5.6642    2.0267    2.4390 C   0  0  0  0  0  0  0  0  0  0  0  0
    6.4448    3.1781    2.4235 C   0  0  0  0  0  0  0  0  0  0  0  0
    7.8313    3.0673    2.4012 C   0  0  0  0  0  0  0  0  0  0  0  0
    4.2182    2.1329    2.4615 C   0  0  0  0  0  0  0  0  0  0  0  0
    3.3303    3.5831    2.4714 S   0  0  0  0  0  0  0  0  0  0  0  0
    1.7841    2.8690    2.4950 C   0  0  0  0  0  0  0  0  0  0  0  0
    2.0375    1.5302    2.4908 C   0  0  0  0  0  0  0  0  0  0  0  0
    3.3498    1.1464    2.4729 N   0  0  0  0  0  0  0  0  0  0  0  0
    0.9118    0.6170    2.5150 C   0  0  0  0  0  0  0  0  0  0  0  0
   -0.4029    0.9692    2.5332 N   0  0  0  0  0  0  0  0  0  0  0  0
   -1.0790   -0.0974    2.5525 N   0  0  0  0  0  0  0  0  0  0  0  0
   -0.3062   -1.1554    2.5502 N   0  0  0  0  0  0  0  0  0  0  0  0
    0.9871   -0.7420    2.5276 C   0  0  0  0  0  0  0  0  0  0  0  0
   -0.7634   -2.5524    2.5709 C   0  0  0  0  0  0  0  0  0  0  0  0
   -0.9436   -3.0464    1.1486 C   0  0  0  0  0  0  0  0  0  0  0  0
    0.2689   -2.9799    0.4275 O   0  0  0  0  0  0  0  0  0  0  0  0
    0.3263   -4.1018   -0.4465 C   0  0  0  0  0  0  0  0  0  0  0  0
   -0.9891   -4.8556   -0.3259 C   0  0  0  0  0  0  0  0  0  0  0  0
   -0.8272   -6.1630   -0.5085 F   0  0  0  0  0  0  0  0  0  0  0  0
   -1.9348   -4.4178   -1.1524 F   0  0  0  0  0  0  0  0  0  0  0  0
   -1.2724   -4.5267    1.1185 C   0  0  0  0  0  0  0  0  0  0  0  0
  1  2  2  0
  1  3  2  0
  1  4  1  0
  4  5  1  0
  1  6  1  0
  6  7  2  0
  7  8  1  0
  8  9  2  0
  9 10  1  0
 10 11  2  0
 11  6  1  0
  9 12  1  0
 12 13  1  0
 13 14  1  0
 14 15  2  0
 15 16  1  0
 12 16  2  0
 15 17  1  0
 17 18  1  0
 18 19  2  0
 19 20  1  0
 20 21  1  0
 17 21  2  0
 20 22  1  0
 22 23  1  0
 23 24  1  0
 24 25  1  0
 25 26  1  0
 26 27  1  0
 26 28  1  0
 26 29  1  0
 29 23  1  0
M  END
$$$$
s_270196____10336828____8774752
     RDKit          3D

 35 40  0  0  0  0  0  0  0  0999 V2000
   -4.5017    6.4409    6.5578 F   0  0  0  0  0  0  0  0  0  0  0  0
   -4.6825    5.2799    5.9356 C   0  0  0  0  0  0  0  0  0  0  0  0
   -4.2535    5.1231    4.6223 C   0  0  0  0  0  0  0  0  0  0  0  0
   -4.4518    3.8994    3.9913 C   0  0  0  0  0  0  0  0  0  0  0  0
   -5.0675    2.8411    4.6521 C   0  0  0  0  0  0  0  0  0  0  0  0
   -5.4913    3.0100    5.9662 C   0  0  0  0  0  0  0  0  0  0  0  0
   -5.2995    4.2298    6.6078 C   0  0  0  0  0  0  0  0  0  0  0  0
   -3.9847    3.7262    2.5558 C   0  0  0  0  0  0  0  0  0  0  0  0
   -2.5986    3.2358    2.5473 N   0  0  0  0  0  0  0  0  0  0  0  0
   -2.2349    1.9703    2.5543 N   0  0  0  0  0  0  0  0  0  0  0  0
   -0.9292    1.8550    2.5462 C   0  0  0  0  0  0  0  0  0  0  0  0
   -0.4094    3.1692    2.5355 C   0  0  0  0  0  0  0  0  0  0  0  0
   -1.4865    4.0281    2.5369 C   0  0  0  0  0  0  0  0  0  0  0  0
   -1.2961    5.3611    2.5378 N   0  0  0  0  0  0  0  0  0  0  0  0
   -0.0807    5.9378    2.5319 C   0  0  0  0  0  0  0  0  0  0  0  0
    0.1172    7.3745    2.5371 C   0  0  0  0  0  0  0  0  0  0  0  0
   -0.9858    8.2220    2.5489 C   0  0  0  0  0  0  0  0  0  0  0  0
   -0.7915    9.5994    2.5530 C   0  0  0  0  0  0  0  0  0  0  0  0
    0.4984   10.1199    2.5468 C   0  0  0  0  0  0  0  0  0  0  0  0
    1.5927    9.2638    2.5355 C   0  0  0  0  0  0  0  0  0  0  0  0
    1.4116    7.8846    2.5306 C   0  0  0  0  0  0  0  0  0  0  0  0
    1.0363    5.1084    2.5196 C   0  0  0  0  0  0  0  0  0  0  0  0
    0.8640    3.7279    2.5208 C   0  0  0  0  0  0  0  0  0  0  0  0
    2.0505    2.8931    2.5095 C   0  0  0  0  0  0  0  0  0  0  0  0
    3.2897    3.3251    2.4953 O   0  0  0  0  0  0  0  0  0  0  0  0
    4.0828    2.3380    2.4895 N   0  0  0  0  0  0  0  0  0  0  0  0
    3.3784    1.2345    2.4974 C   0  0  0  0  0  0  0  0  0  0  0  0
    2.0616    1.5822    2.5110 N   0  0  0  0  0  0  0  0  0  0  0  0
    3.9317   -0.1800    2.4921 C   0  0  0  0  0  0  0  0  0  0  0  0
    3.4931   -0.8642    3.6565 O   0  0  0  0  0  0  0  0  0  0  0  0
    3.9563   -0.1791    4.8108 C   0  0  0  0  0  0  0  0  0  0  0  0
    3.4356   -0.9137    1.2560 C   0  0  0  0  0  0  0  0  0  0  0  0
    3.9633   -2.3181    1.2166 C   0  0  0  0  0  0  0  0  0  0  0  0
    4.5500   -1.2703    0.3148 C   0  0  0  0  0  0  0  0  0  0  0  0
    5.4508   -0.1298    2.4759 C   0  0  0  0  0  0  0  0  0  0  0  0
  1  2  1  0
  2  3  2  0
  3  4  1  0
  4  5  2  0
  5  6  1  0
  6  7  2  0
  7  2  1  0
  4  8  1  0
  8  9  1  0
  9 10  1  0
 10 11  2  0
 11 12  1  0
 12 13  2  0
 13  9  1  0
 13 14  1  0
 14 15  2  0
 15 16  1  0
 16 17  2  0
 17 18  1  0
 18 19  2  0
 19 20  1  0
 20 21  2  0
 21 16  1  0
 15 22  1  0
 22 23  2  0
 23 12  1  0
 23 24  1  0
 24 25  1  0
 25 26  1  0
 26 27  2  0
 27 28  1  0
 24 28  2  0
 27 29  1  0
 29 30  1  0
 30 31  1  0
 29 32  1  0
 32 33  1  0
 33 34  1  0
 34 32  1  0
 29 35  1  0
M  END
$$$$
s_2____821402____16506322____5126092
     RDKit          3D

 39 44  0  0  0  0  0  0  0  0999 V2000
    7.6624   -0.2842    1.6479 S   0  0  0  0  0  0  0  0  0  0  0  0
    7.5138   -0.1983    3.3425 C   0  0  0  0  0  0  0  0  0  0  0  0
    8.3371   -0.6456    4.2038 N   0  0  0  0  0  0  0  0  0  0  0  0
    9.5568   -1.1926    3.7882 C   0  0  0  0  0  0  0  0  0  0  0  0
   10.6517   -0.3546    3.6038 C   0  0  0  0  0  0  0  0  0  0  0  0
   11.8638   -0.8989    3.1908 C   0  0  0  0  0  0  0  0  0  0  0  0
   11.9693   -2.2684    2.9679 C   0  0  0  0  0  0  0  0  0  0  0  0
   10.8693   -3.0991    3.1549 C   0  0  0  0  0  0  0  0  0  0  0  0
    9.6536   -2.5624    3.5672 C   0  0  0  0  0  0  0  0  0  0  0  0
   13.1782   -2.8196    2.5561 C   0  0  0  0  0  0  0  0  0  0  0  0
   14.2739   -1.9832    2.3713 C   0  0  0  0  0  0  0  0  0  0  0  0
   14.1715   -0.6139    2.5937 C   0  0  0  0  0  0  0  0  0  0  0  0
   12.9616   -0.0656    3.0055 C   0  0  0  0  0  0  0  0  0  0  0  0
    6.3413    0.4454    3.5867 N   0  0  0  0  0  0  0  0  0  0  0  0
    5.6599    0.8215    2.4637 C   0  0  0  0  0  0  0  0  0  0  0  0
    4.3934    1.5238    2.4792 C   0  0  0  0  0  0  0  0  0  0  0  0
    4.3898    2.9144    2.4850 C   0  0  0  0  0  0  0  0  0  0  0  0
    3.1783    3.5981    2.5011 C   0  0  0  0  0  0  0  0  0  0  0  0
    1.9856    2.8824    2.5103 C   0  0  0  0  0  0  0  0  0  0  0  0
    0.8052    3.5371    2.5243 O   0  0  0  0  0  0  0  0  0  0  0  0
    0.7807    4.9569    2.5297 C   0  0  0  0  0  0  0  0  0  0  0  0
   -0.6608    5.4387    2.5457 C   0  0  0  0  0  0  0  0  0  0  0  0
   -1.5593    4.6433    2.5517 O   0  0  0  0  0  0  0  0  0  0  0  0
   -0.9343    6.7811    2.5533 N   0  0  0  0  0  0  0  0  0  0  0  0
    1.9898    1.4913    2.5046 C   0  0  0  0  0  0  0  0  0  0  0  0
    3.2009    0.8075    2.4890 C   0  0  0  0  0  0  0  0  0  0  0  0
    6.2081    0.5160    1.2552 C   0  0  0  0  0  0  0  0  0  0  0  0
    5.8905    0.7002    4.9623 C   0  0  0  0  0  0  0  0  0  0  0  0
    6.5251    1.9869    5.4746 C   0  0  0  0  0  0  0  0  0  0  0  0
    6.3538    2.5570    6.7017 C   0  0  0  0  0  0  0  0  0  0  0  0
    7.1044    3.6939    6.7061 N   0  0  0  0  0  0  0  0  0  0  0  0
    7.6872    3.8298    5.5256 N   0  0  0  0  0  0  0  0  0  0  0  0
    7.3825    2.8306    4.7332 C   0  0  0  0  0  0  0  0  0  0  0  0
    7.1431    4.5448    7.9123 C   0  0  0  0  0  0  0  0  0  0  0  0
    5.8505    4.5284    8.7209 C   0  0  0  0  0  0  0  0  0  0  0  0
    5.3434    3.1645    8.9121 N   0  0  0  0  0  0  0  0  0  0  0  0
    5.5634    2.2361    7.8798 C   0  0  0  0  0  0  0  0  0  0  0  0
    5.0296    1.1620    8.0056 O   0  0  0  0  0  0  0  0  0  0  0  0
    4.6102    2.8081   10.1420 C   0  0  0  0  0  0  0  0  0  0  0  0
  1  2  1  0
  2  3  2  0
  3  4  1  0
  4  5  2  0
  5  6  1  0
  6  7  2  0
  7  8  1  0
  8  9  2  0
  9  4  1  0
  7 10  1  0
 10 11  2  0
 11 12  1  0
 12 13  2  0
 13  6  1  0
  2 14  1  0
 14 15  1  0
 15 16  1  0
 16 17  2  0
 17 18  1  0
 18 19  2  0
 19 20  1  0
 20 21  1  0
 21 22  1  0
 22 23  2  0
 22 24  1  0
 19 25  1  0
 25 26  2  0
 26 16  1  0
 15 27  2  0
 27  1  1  0
 14 28  1  0
 28 29  1  0
 29 30  2  0
 30 31  1  0
 31 32  1  0
 32 33  2  0
 33 29  1  0
 31 34  1  0
 34 35  1  0
 35 36  1  0
 36 37  1  0
 37 30  1  0
 37 38  2  0
 36 39  1  0
M  END
$$$$
s_1458____472432____10860122
     RDKit          3D

 35 39  0  0  0  0  0  0  0  0999 V2000
    0.4000   -0.0392    1.0000 O   0  0  0  0  0  0  0  0  0  0  0  0
    1.0000    1.0000    1.0000 C   0  0  0  0  0  0  0  0  0  0  0  0
    0.3450    2.1345    1.0000 O   0  0  0  0  0  0  0  0  0  0  0  0
   -1.0750    2.1345    1.0000 C   0  0  0  0  0  0  0  0  0  0  0  0
   -1.5814    3.5669    1.0000 C   0  0  0  0  0  0  0  0  0  0  0  0
   -1.0935    4.3165    2.2297 C   0  0  0  0  0  0  0  0  0  0  0  0
   -0.7276    4.8786    3.1515 N   0  0  0  0  0  0  0  0  0  0  0  0
   -1.4067    4.3387   -0.2960 C   0  0  0  0  0  0  0  0  0  0  0  0
   -2.7430    3.7859   -0.7268 C   0  0  0  0  0  0  0  0  0  0  0  0
   -3.0607    3.7354    0.7502 C   0  0  0  0  0  0  0  0  0  0  0  0
    2.5200    1.0000    1.0000 C   0  0  0  0  0  0  0  0  0  0  0  0
    3.1700   -0.1258    1.0000 C   0  0  0  0  0  0  0  0  0  0  0  0
    4.6213   -0.1258    1.0000 C   0  0  0  0  0  0  0  0  0  0  0  0
    5.4557   -1.2646    1.0000 C   0  0  0  0  0  0  0  0  0  0  0  0
    6.6875   -0.8055    1.0035 N   0  0  0  0  0  0  0  0  0  0  0  0
    6.7093    0.5059    0.9985 N   0  0  0  0  0  0  0  0  0  0  0  0
    7.8598    1.3038    0.9986 C   0  0  0  0  0  0  0  0  0  0  0  0
    9.1146    0.7030    1.0043 C   0  0  0  0  0  0  0  0  0  0  0  0
   10.2553    1.4990    1.0041 C   0  0  0  0  0  0  0  0  0  0  0  0
   10.1363    2.8846    0.9985 C   0  0  0  0  0  0  0  0  0  0  0  0
    8.8766    3.4745    0.9922 C   0  0  0  0  0  0  0  0  0  0  0  0
    7.7290    2.6886    0.9925 C   0  0  0  0  0  0  0  0  0  0  0  0
    5.4289    0.9696    1.0018 C   0  0  0  0  0  0  0  0  0  0  0  0
    5.0437   -2.6548    0.9976 C   0  0  0  0  0  0  0  0  0  0  0  0
    3.9619   -3.0476    0.2165 C   0  0  0  0  0  0  0  0  0  0  0  0
    3.5641   -4.3806    0.2110 C   0  0  0  0  0  0  0  0  0  0  0  0
    4.2556   -5.3044    0.9884 C   0  0  0  0  0  0  0  0  0  0  0  0
    3.8435   -6.6949    0.9841 C   0  0  0  0  0  0  0  0  0  0  0  0
    4.0411   -7.4757    2.1183 C   0  0  0  0  0  0  0  0  0  0  0  0
    3.6451   -8.8092    2.1095 C   0  0  0  0  0  0  0  0  0  0  0  0
    3.0552   -9.3522    0.9729 C   0  0  0  0  0  0  0  0  0  0  0  0
    2.8624   -8.5627   -0.1540 C   0  0  0  0  0  0  0  0  0  0  0  0
    3.2547   -7.2281   -0.1581 C   0  0  0  0  0  0  0  0  0  0  0  0
    5.3378   -4.9120    1.7699 C   0  0  0  0  0  0  0  0  0  0  0  0
    5.7349   -3.5784    1.7748 C   0  0  0  0  0  0  0  0  0  0  0  0
  1  2  2  0
  2  3  1  0
  3  4  1  0
  4  5  1  0
  5  6  1  0
  6  7  3  0
  5  8  1  0
  8  9  1  0
  9 10  1  0
 10  5  1  0
  2 11  1  0
 11 12  2  0
 12 13  1  0
 13 14  1  0
 14 15  2  0
 15 16  1  0
 16 17  1  0
 17 18  2  0
 18 19  1  0
 19 20  2  0
 20 21  1  0
 21 22  2  0
 22 17  1  0
 16 23  1  0
 13 23  2  0
 14 24  1  0
 24 25  2  0
 25 26  1  0
 26 27  2  0
 27 28  1  0
 28 29  2  0
 29 30  1  0
 30 31  2  0
 31 32  1  0
 32 33  2  0
 33 28  1  0
 27 34  1  0
 34 35  2  0
 35 24  1  0
M  END
$$$$
s_270196____8771312____8772102
     RDKit          3D

 35 40  0  0  0  0  0  0  0  0999 V2000
   -1.6232    3.2823    2.4603 O   0  0  0  0  0  0  0  0  0  0  0  0
   -1.5503    3.3599    1.2441 C   0  0  0  0  0  0  0  0  0  0  0  0
   -1.3119    4.5184    0.6528 O   0  0  0  0  0  0  0  0  0  0  0  0
   -1.2275    4.6319   -0.6620 C   0  0  0  0  0  0  0  0  0  0  0  0
   -1.3884    3.5219   -1.4860 C   0  0  0  0  0  0  0  0  0  0  0  0
   -1.3046    3.6154   -2.8715 C   0  0  0  0  0  0  0  0  0  0  0  0
   -1.0525    4.8547   -3.4501 C   0  0  0  0  0  0  0  0  0  0  0  0
   -0.8881    5.9779   -2.6453 C   0  0  0  0  0  0  0  0  0  0  0  0
   -0.9761    5.8613   -1.2620 C   0  0  0  0  0  0  0  0  0  0  0  0
   -1.6465    2.2586   -0.8922 C   0  0  0  0  0  0  0  0  0  0  0  0
   -1.7273    2.1783    0.4735 C   0  0  0  0  0  0  0  0  0  0  0  0
   -1.9904    0.8924    1.0906 C   0  0  0  0  0  0  0  0  0  0  0  0
   -3.1444    0.4540    1.5424 N   0  0  0  0  0  0  0  0  0  0  0  0
   -3.0364   -0.7564    2.0356 N   0  0  0  0  0  0  0  0  0  0  0  0
   -4.0786   -1.5075    2.5936 C   0  0  0  0  0  0  0  0  0  0  0  0
   -5.2961   -0.8949    2.8726 C   0  0  0  0  0  0  0  0  0  0  0  0
   -6.3289   -1.6441    3.4266 C   0  0  0  0  0  0  0  0  0  0  0  0
   -6.1400   -2.9950    3.6976 C   0  0  0  0  0  0  0  0  0  0  0  0
   -4.9187   -3.5972    3.4141 C   0  0  0  0  0  0  0  0  0  0  0  0
   -3.8787   -2.8580    2.8602 C   0  0  0  0  0  0  0  0  0  0  0  0
   -1.7420   -1.1651    1.9257 C   0  0  0  0  0  0  0  0  0  0  0  0
   -1.0642   -0.1455    1.3313 C   0  0  0  0  0  0  0  0  0  0  0  0
    0.3500   -0.1258    1.0059 C   0  0  0  0  0  0  0  0  0  0  0  0
    1.0000    1.0000    1.0000 C   0  0  0  0  0  0  0  0  0  0  0  0
    2.4507    1.0000    1.0000 C   0  0  0  0  0  0  0  0  0  0  0  0
    3.2158    2.0664    0.9944 O   0  0  0  0  0  0  0  0  0  0  0  0
    4.4324    1.7153    0.9971 N   0  0  0  0  0  0  0  0  0  0  0  0
    4.4911    0.4074    1.0023 C   0  0  0  0  0  0  0  0  0  0  0  0
    3.2140   -0.0658    1.0048 N   0  0  0  0  0  0  0  0  0  0  0  0
    5.7568   -0.4307    1.0047 C   0  0  0  0  0  0  0  0  0  0  0  0
    6.0174   -1.0759   -0.2322 O   0  0  0  0  0  0  0  0  0  0  0  0
    6.1591   -0.1004   -1.2543 C   0  0  0  0  0  0  0  0  0  0  0  0
    5.8358   -1.3184    2.2225 C   0  0  0  0  0  0  0  0  0  0  0  0
    7.3095   -0.9836    2.2803 C   0  0  0  0  0  0  0  0  0  0  0  0
    6.9215    0.3184    1.6142 C   0  0  0  0  0  0  0  0  0  0  0  0
  1  2  2  0
  2  3  1  0
  3  4  1  0
  4  5  2  0
  5  6  1  0
  6  7  2  0
  7  8  1  0
  8  9  2  0
  9  4  1  0
  5 10  1  0
 10 11  2  0
 11  2  1  0
 11 12  1  0
 12 13  2  0
 13 14  1  0
 14 15  1  0
 15 16  2  0
 16 17  1  0
 17 18  2  0
 18 19  1  0
 19 20  2  0
 20 15  1  0
 14 21  1  0
 21 22  2  0
 22 12  1  0
 22 23  1  0
 23 24  2  0
 24 25  1  0
 25 26  1  0
 26 27  1  0
 27 28  2  0
 28 29  1  0
 25 29  2  0
 28 30  1  0
 30 31  1  0
 31 32  1  0
 30 33  1  0
 33 34  1  0
 34 35  1  0
 35 30  1  0
M  END
$$$$
m_273170____10756424____10764916____10755784
     RDKit          3D

 44 50  0  0  0  0  0  0  0  0999 V2000
   -0.1848   -2.4596    6.2298 O   0  0  0  0  0  0  0  0  0  0  0  0
   -0.1518   -1.2964    6.6034 C   0  0  0  0  0  0  0  0  0  0  0  0
    0.3062   -0.8804    7.7985 O   0  0  0  0  0  0  0  0  0  0  0  0
    0.2896    0.5267    7.8886 C   0  0  0  0  0  0  0  0  0  0  0  0
   -0.4487    1.0060    6.6524 C   0  0  0  0  0  0  0  0  0  0  0  0
   -0.5911   -0.2090    5.8485 N   0  0  0  0  0  0  0  0  0  0  0  0
   -1.0853   -0.2673    4.5403 C   0  0  0  0  0  0  0  0  0  0  0  0
   -0.1974   -0.2422    3.4699 C   0  0  0  0  0  0  0  0  0  0  0  0
   -0.7003   -0.3005    2.1745 C   0  0  0  0  0  0  0  0  0  0  0  0
   -2.0691   -0.3823    1.9419 C   0  0  0  0  0  0  0  0  0  0  0  0
   -2.9379   -0.4062    3.0283 C   0  0  0  0  0  0  0  0  0  0  0  0
   -2.4578   -0.3491    4.3321 C   0  0  0  0  0  0  0  0  0  0  0  0
    0.2650   -0.2731    1.0004 C   0  0  0  0  0  0  0  0  0  0  0  0
    1.0000    1.0000    1.0000 N   0  0  0  0  0  0  0  0  0  0  0  0
    2.4017    1.0000    1.0000 C   0  0  0  0  0  0  0  0  0  0  0  0
    3.1912    2.0415    1.0908 N   0  0  0  0  0  0  0  0  0  0  0  0
    4.4560    1.6855    1.0558 N   0  0  0  0  0  0  0  0  0  0  0  0
    4.5040    0.3775    0.9393 C   0  0  0  0  0  0  0  0  0  0  0  0
    3.2232   -0.0772    0.9021 N   0  0  0  0  0  0  0  0  0  0  0  0
    2.8010   -1.4805    0.7791 C   0  0  0  0  0  0  0  0  0  0  0  0
    2.7795   -2.1257    2.1554 C   0  0  0  0  0  0  0  0  0  0  0  0
    2.3172   -3.4244    2.3457 C   0  0  0  0  0  0  0  0  0  0  0  0
    2.3119   -3.9640    3.5740 N   0  0  0  0  0  0  0  0  0  0  0  0
    2.7455   -3.2797    4.6426 C   0  0  0  0  0  0  0  0  0  0  0  0
    3.2182   -1.9783    4.5112 C   0  0  0  0  0  0  0  0  0  0  0  0
    3.2342   -1.3958    3.2483 C   0  0  0  0  0  0  0  0  0  0  0  0
    1.8577   -4.1613    1.2367 N   0  0  0  0  0  0  0  0  0  0  0  0
    2.7440   -5.0112    0.4264 C   0  0  0  0  0  0  0  0  0  0  0  0
    2.1907   -5.0979   -0.9863 C   0  0  0  0  0  0  0  0  0  0  0  0
    0.9057   -5.7115   -1.0419 O   0  0  0  0  0  0  0  0  0  0  0  0
    0.1132   -5.4639    0.1149 C   0  0  0  0  0  0  0  0  0  0  0  0
    0.4568   -4.1461    0.7934 C   0  0  0  0  0  0  0  0  0  0  0  0
    5.7075   -0.4292    0.8647 C   0  0  0  0  0  0  0  0  0  0  0  0
    6.3465   -0.8574    1.9660 N   0  0  0  0  0  0  0  0  0  0  0  0
    7.4613   -1.6049    1.9071 C   0  0  0  0  0  0  0  0  0  0  0  0
    7.9941   -1.9625    0.6714 C   0  0  0  0  0  0  0  0  0  0  0  0
    7.3522   -1.5324   -0.4853 C   0  0  0  0  0  0  0  0  0  0  0  0
    6.1991   -0.7588   -0.3945 C   0  0  0  0  0  0  0  0  0  0  0  0
    9.1465   -2.7356    0.5766 C   0  0  0  0  0  0  0  0  0  0  0  0
    9.7737   -3.1555    1.7448 C   0  0  0  0  0  0  0  0  0  0  0  0
    9.2618   -2.8121    2.9916 C   0  0  0  0  0  0  0  0  0  0  0  0
    8.1079   -2.0382    3.0603 C   0  0  0  0  0  0  0  0  0  0  0  0
    0.2650    2.2731    0.9996 C   0  0  0  0  0  0  0  0  0  0  0  0
   -0.5128   -0.4095   -0.2983 C   0  0  0  0  0  0  0  0  0  0  0  0
  1  2  2  0
  2  3  1  0
  3  4  1  0
  4  5  1  0
  5  6  1  0
  6  2  1  0
  6  7  1  0
  7  8  2  0
  8  9  1  0
  9 10  2  0
 10 11  1  0
 11 12  2  0
 12  7  1  0
  9 13  1  0
 13 14  1  0
 14 15  1  0
 15 16  2  0
 16 17  1  0
 17 18  2  0
 18 19  1  0
 19 15  1  0
 19 20  1  0
 20 21  1  0
 21 22  1  0
 22 23  2  0
 23 24  1  0
 24 25  2  0
 25 26  1  0
 26 21  2  0
 22 27  1  0
 27 28  1  0
 28 29  1  0
 29 30  1  0
 30 31  1  0
 31 32  1  0
 32 27  1  0
 18 33  1  0
 33 34  2  0
 34 35  1  0
 35 36  2  0
 36 37  1  0
 37 38  2  0
 38 33  1  0
 36 39  1  0
 39 40  2  0
 40 41  1  0
 41 42  2  0
 42 35  1  0
 14 43  1  0
 13 44  1  0
M  END
$$$$
m_273170____10758782____10761548____10766740
     RDKit          3D

 41 46  0  0  0  0  0  0  0  0999 V2000
    1.3267   -3.0955    2.5292 O   0  0  0  0  0  0  0  0  0  0  0  0
    0.1564   -2.8274    2.3128 N   0  0  0  0  0  0  0  0  0  0  0  0
   -0.4918   -3.5144    1.5565 O   0  0  0  0  0  0  0  0  0  0  0  0
   -0.4368   -1.7246    2.9396 C   0  0  0  0  0  0  0  0  0  0  0  0
   -0.4128   -0.4663    2.3472 C   0  0  0  0  0  0  0  0  0  0  0  0
   -1.0097    0.6147    2.9867 C   0  0  0  0  0  0  0  0  0  0  0  0
   -1.6291    0.4381    4.2193 C   0  0  0  0  0  0  0  0  0  0  0  0
   -1.6529   -0.8198    4.8116 C   0  0  0  0  0  0  0  0  0  0  0  0
   -1.0569   -1.9013    4.1717 C   0  0  0  0  0  0  0  0  0  0  0  0
    0.2650   -0.2731    1.0004 C   0  0  0  0  0  0  0  0  0  0  0  0
    1.0000    1.0000    1.0000 N   0  0  0  0  0  0  0  0  0  0  0  0
    2.4017    1.0000    1.0000 C   0  0  0  0  0  0  0  0  0  0  0  0
    3.1912    1.0004    2.0455 N   0  0  0  0  0  0  0  0  0  0  0  0
    4.4560    1.0042    1.6877 N   0  0  0  0  0  0  0  0  0  0  0  0
    4.5040    1.0062    0.3746 C   0  0  0  0  0  0  0  0  0  0  0  0
    3.2232    1.0036   -0.0816 N   0  0  0  0  0  0  0  0  0  0  0  0
    2.8010    1.0039   -1.4903 C   0  0  0  0  0  0  0  0  0  0  0  0
    3.1211    2.3524   -2.1151 C   0  0  0  0  0  0  0  0  0  0  0  0
    2.5442    2.7371   -3.3206 C   0  0  0  0  0  0  0  0  0  0  0  0
    1.6489    1.8728   -3.9805 N   0  0  0  0  0  0  0  0  0  0  0  0
    2.0910    0.8757   -4.9679 C   0  0  0  0  0  0  0  0  0  0  0  0
    0.9600    0.6156   -5.9489 C   0  0  0  0  0  0  0  0  0  0  0  0
   -0.1966    0.0615   -5.3275 O   0  0  0  0  0  0  0  0  0  0  0  0
   -0.3846    0.5077   -3.9884 C   0  0  0  0  0  0  0  0  0  0  0  0
    0.1993    1.8908   -3.7411 C   0  0  0  0  0  0  0  0  0  0  0  0
    2.8451    3.9735   -3.8826 C   0  0  0  0  0  0  0  0  0  0  0  0
    3.7303    4.8201   -3.2235 C   0  0  0  0  0  0  0  0  0  0  0  0
    4.3128    4.4449   -2.0173 C   0  0  0  0  0  0  0  0  0  0  0  0
    4.0058    3.2063   -1.4631 C   0  0  0  0  0  0  0  0  0  0  0  0
    4.0629    6.1731   -3.8319 C   0  0  0  0  0  0  0  0  0  0  0  0
    5.7068    1.0103   -0.4351 C   0  0  0  0  0  0  0  0  0  0  0  0
    6.6048    2.0643   -0.3077 C   0  0  0  0  0  0  0  0  0  0  0  0
    7.7573    2.0630   -1.0854 C   0  0  0  0  0  0  0  0  0  0  0  0
    8.0145    1.0282   -1.9799 C   0  0  0  0  0  0  0  0  0  0  0  0
    7.1079   -0.0209   -2.0975 C   0  0  0  0  0  0  0  0  0  0  0  0
    5.9511   -0.0310   -1.3242 C   0  0  0  0  0  0  0  0  0  0  0  0
    9.1716    1.0321   -2.7502 C   0  0  0  0  0  0  0  0  0  0  0  0
   10.0741    2.0833   -2.6232 C   0  0  0  0  0  0  0  0  0  0  0  0
    9.8153    3.1177   -1.7307 C   0  0  0  0  0  0  0  0  0  0  0  0
    8.6590    3.1147   -0.9573 C   0  0  0  0  0  0  0  0  0  0  0  0
    0.2650    2.2731    0.9996 C   0  0  0  0  0  0  0  0  0  0  0  0
  1  2  1  0
  2  3  2  0
  2  4  1  0
  4  5  2  0
  5  6  1  0
  6  7  2  0
  7  8  1  0
  8  9  2  0
  9  4  1  0
  5 10  1  0
 10 11  1  0
 11 12  1  0
 12 13  2  0
 13 14  1  0
 14 15  2  0
 15 16  1  0
 16 12  1  0
 16 17  1  0
 17 18  1  0
 18 19  1  0
 19 20  1  0
 20 21  1  0
 21 22  1  0
 22 23  1  0
 23 24  1  0
 24 25  1  0
 25 20  1  0
 19 26  2  0
 26 27  1  0
 27 28  2  0
 28 29  1  0
 29 18  2  0
 27 30  1  0
 15 31  1  0
 31 32  2  0
 32 33  1  0
 33 34  2  0
 34 35  1  0
 35 36  2  0
 36 31  1  0
 34 37  1  0
 37 38  2  0
 38 39  1  0
 39 40  2  0
 40 33  1  0
 11 41  1  0
M  CHG  2   1  -1   2   1
M  END
$$$$
s_43____3014702____87588
     RDKit          3D

 27 30  0  0  0  0  0  0  0  0999 V2000
    0.4648    3.7275    2.5286 S   0  0  0  0  0  0  0  0  0  0  0  0
   -0.5203    2.9301    3.2123 O   0  0  0  0  0  0  0  0  0  0  0  0
    0.6237    4.9846    3.2127 O   0  0  0  0  0  0  0  0  0  0  0  0
   -0.0241    4.0000    0.9977 N   0  0  0  0  0  0  0  0  0  0  0  0
    0.9815    4.8140    0.2998 C   0  0  0  0  0  0  0  0  0  0  0  0
    1.9848    2.8811    2.5100 C   0  0  0  0  0  0  0  0  0  0  0  0
    3.1740    3.6024    2.5029 C   0  0  0  0  0  0  0  0  0  0  0  0
    4.3836    2.9156    2.4883 C   0  0  0  0  0  0  0  0  0  0  0  0
    4.3937    1.5243    2.4800 C   0  0  0  0  0  0  0  0  0  0  0  0
    3.2017    0.8072    2.4872 C   0  0  0  0  0  0  0  0  0  0  0  0
    1.9898    1.4900    2.5021 C   0  0  0  0  0  0  0  0  0  0  0  0
    5.6630    0.8199    2.4636 C   0  0  0  0  0  0  0  0  0  0  0  0
    5.8598   -0.8692    2.4518 S   0  0  0  0  0  0  0  0  0  0  0  0
    7.5630   -0.8704    2.4327 C   0  0  0  0  0  0  0  0  0  0  0  0
    7.8952    0.4511    2.4332 C   0  0  0  0  0  0  0  0  0  0  0  0
    6.8653    1.3505    2.4501 N   0  0  0  0  0  0  0  0  0  0  0  0
    9.3011    0.8072    2.4258 C   0  0  0  0  0  0  0  0  0  0  0  0
   10.1862    0.3966    3.4599 C   0  0  0  0  0  0  0  0  0  0  0  0
    9.7428   -0.2753    4.3778 O   0  0  0  0  0  0  0  0  0  0  0  0
   11.4635    0.7370    3.4258 O   0  0  0  0  0  0  0  0  0  0  0  0
   11.9710    1.4636    2.4444 C   0  0  0  0  0  0  0  0  0  0  0  0
   11.1702    1.9042    1.3948 C   0  0  0  0  0  0  0  0  0  0  0  0
   11.6802    2.6697    0.3511 C   0  0  0  0  0  0  0  0  0  0  0  0
   13.0300    3.0045    0.3567 C   0  0  0  0  0  0  0  0  0  0  0  0
   13.8492    2.5745    1.3962 C   0  0  0  0  0  0  0  0  0  0  0  0
   13.3180    1.8099    2.4297 C   0  0  0  0  0  0  0  0  0  0  0  0
    9.7927    1.5614    1.3925 C   0  0  0  0  0  0  0  0  0  0  0  0
  1  2  2  0
  1  3  2  0
  1  4  1  0
  4  5  1  0
  1  6  1  0
  6  7  2  0
  7  8  1  0
  8  9  2  0
  9 10  1  0
 10 11  2  0
 11  6  1  0
  9 12  1  0
 12 13  1  0
 13 14  1  0
 14 15  2  0
 15 16  1  0
 12 16  2  0
 15 17  1  0
 17 18  1  0
 18 19  2  0
 18 20  1  0
 20 21  1  0
 21 22  2  0
 22 23  1  0
 23 24  2  0
 24 25  1  0
 25 26  2  0
 26 21  1  0
 22 27  1  0
 17 27  2  0
M  END
$$$$
m_273170____10756136____10765408____10755784
     RDKit          3D

 40 45  0  0  0  0  0  0  0  0999 V2000
   -2.8508   -1.5629    2.1881 O   0  0  0  0  0  0  0  0  0  0  0  0
   -1.6370   -1.4877    1.6023 C   0  0  0  0  0  0  0  0  0  0  0  0
   -1.0920   -2.6195    1.0045 C   0  0  0  0  0  0  0  0  0  0  0  0
    0.1598   -2.5257    0.4058 C   0  0  0  0  0  0  0  0  0  0  0  0
    0.6959   -3.6188   -0.1765 O   0  0  0  0  0  0  0  0  0  0  0  0
    2.0784   -3.6453   -0.4995 C   0  0  0  0  0  0  0  0  0  0  0  0
    0.8673   -1.3288    0.3963 C   0  0  0  0  0  0  0  0  0  0  0  0
    0.3002   -0.2121    1.0004 C   0  0  0  0  0  0  0  0  0  0  0  0
    1.0000    1.0000    1.0000 N   0  0  0  0  0  0  0  0  0  0  0  0
    2.4017    1.0000    1.0000 C   0  0  0  0  0  0  0  0  0  0  0  0
    3.1912    0.0177    1.3579 N   0  0  0  0  0  0  0  0  0  0  0  0
    4.4560    0.3552    1.2392 N   0  0  0  0  0  0  0  0  0  0  0  0
    4.5040    1.5898    0.7919 C   0  0  0  0  0  0  0  0  0  0  0  0
    3.2232    2.0176    0.6335 N   0  0  0  0  0  0  0  0  0  0  0  0
    2.8010    3.3415    0.1519 C   0  0  0  0  0  0  0  0  0  0  0  0
    2.8983    3.3837   -1.3656 C   0  0  0  0  0  0  0  0  0  0  0  0
    2.3418    2.3937   -2.1698 C   0  0  0  0  0  0  0  0  0  0  0  0
    2.4420    2.4538   -3.5055 N   0  0  0  0  0  0  0  0  0  0  0  0
    3.0778    3.4631   -4.1194 C   0  0  0  0  0  0  0  0  0  0  0  0
    3.1812    3.5258   -5.5138 N   0  0  0  0  0  0  0  0  0  0  0  0
    4.4666    3.9026   -6.1224 C   0  0  0  0  0  0  0  0  0  0  0  0
    4.6685    3.1933   -7.4526 C   0  0  0  0  0  0  0  0  0  0  0  0
    3.4993    3.2575   -8.2591 O   0  0  0  0  0  0  0  0  0  0  0  0
    2.4282    2.5486   -7.6498 C   0  0  0  0  0  0  0  0  0  0  0  0
    2.0088    3.1904   -6.3361 C   0  0  0  0  0  0  0  0  0  0  0  0
    3.6557    4.4848   -3.3720 C   0  0  0  0  0  0  0  0  0  0  0  0
    3.5613    4.4377   -1.9850 C   0  0  0  0  0  0  0  0  0  0  0  0
    5.7075    2.3525    0.5187 C   0  0  0  0  0  0  0  0  0  0  0  0
    6.1181    2.6090   -0.7344 N   0  0  0  0  0  0  0  0  0  0  0  0
    7.2308    3.3144   -0.9975 C   0  0  0  0  0  0  0  0  0  0  0  0
    8.0044    3.8089    0.0493 C   0  0  0  0  0  0  0  0  0  0  0  0
    7.6020    3.5578    1.3570 C   0  0  0  0  0  0  0  0  0  0  0  0
    6.4451    2.8238    1.6002 C   0  0  0  0  0  0  0  0  0  0  0  0
    9.1615    4.5428   -0.1898 C   0  0  0  0  0  0  0  0  0  0  0  0
    9.5471    4.7829   -1.5045 C   0  0  0  0  0  0  0  0  0  0  0  0
    8.7919    4.3003   -2.5681 C   0  0  0  0  0  0  0  0  0  0  0  0
    7.6386    3.5689   -2.3033 C   0  0  0  0  0  0  0  0  0  0  0  0
    0.2650    2.2731    0.9996 C   0  0  0  0  0  0  0  0  0  0  0  0
   -0.9499   -0.2785    1.6063 C   0  0  0  0  0  0  0  0  0  0  0  0
   -3.5582   -0.3748    2.5111 C   0  0  0  0  0  0  0  0  0  0  0  0
  1  2  1  0
  2  3  2  0
  3  4  1  0
  4  5  1  0
  5  6  1  0
  4  7  2  0
  7  8  1  0
  8  9  1  0
  9 10  1  0
 10 11  2  0
 11 12  1  0
 12 13  2  0
 13 14  1  0
 14 10  1  0
 14 15  1  0
 15 16  1  0
 16 17  2  0
 17 18  1  0
 18 19  2  0
 19 20  1  0
 20 21  1  0
 21 22  1  0
 22 23  1  0
 23 24  1  0
 24 25  1  0
 25 20  1  0
 19 26  1  0
 26 27  2  0
 27 16  1  0
 13 28  1  0
 28 29  2  0
 29 30  1  0
 30 31  2  0
 31 32  1  0
 32 33  2  0
 33 28  1  0
 31 34  1  0
 34 35  2  0
 35 36  1  0
 36 37  2  0
 37 30  1  0
  9 38  1  0
  8 39  2  0
 39  2  1  0
  1 40  1  0
M  END
$$$$
m_273170____10756380____10764522____10755784
     RDKit          3D

 44 49  0  0  0  0  0  0  0  0999 V2000
   -6.9824   -2.6437   -3.6627 O   0  0  0  0  0  0  0  0  0  0  0  0
   -6.3558   -3.7592   -3.0434 C   0  0  0  0  0  0  0  0  0  0  0  0
   -5.7522   -3.3753   -1.7014 C   0  0  0  0  0  0  0  0  0  0  0  0
   -4.9826   -2.1264   -1.8091 N   0  0  0  0  0  0  0  0  0  0  0  0
   -3.8490   -1.9444   -1.0087 C   0  0  0  0  0  0  0  0  0  0  0  0
   -2.7249   -1.3966   -1.4947 N   0  0  0  0  0  0  0  0  0  0  0  0
   -1.6383   -1.2228   -0.7286 C   0  0  0  0  0  0  0  0  0  0  0  0
   -1.6374   -1.6071    0.6089 C   0  0  0  0  0  0  0  0  0  0  0  0
   -2.7943   -2.1766    1.1297 C   0  0  0  0  0  0  0  0  0  0  0  0
   -3.9126   -2.3500    0.3209 C   0  0  0  0  0  0  0  0  0  0  0  0
   -0.4200   -1.4215    1.5020 C   0  0  0  0  0  0  0  0  0  0  0  0
    0.7689   -1.9667    0.8298 N   0  0  0  0  0  0  0  0  0  0  0  0
    1.7578   -1.2444    0.2422 C   0  0  0  0  0  0  0  0  0  0  0  0
    2.6089   -2.1233   -0.2263 N   0  0  0  0  0  0  0  0  0  0  0  0
    2.2161   -3.3511    0.0302 N   0  0  0  0  0  0  0  0  0  0  0  0
    1.0784   -3.2827    0.6840 C   0  0  0  0  0  0  0  0  0  0  0  0
    0.2988   -4.4094    1.1610 C   0  0  0  0  0  0  0  0  0  0  0  0
   -0.7921   -4.8463    0.5102 N   0  0  0  0  0  0  0  0  0  0  0  0
   -1.5203   -5.8887    0.9439 C   0  0  0  0  0  0  0  0  0  0  0  0
   -1.1518   -6.5579    2.1080 C   0  0  0  0  0  0  0  0  0  0  0  0
   -0.0260   -6.1261    2.8017 C   0  0  0  0  0  0  0  0  0  0  0  0
    0.7093   -5.0432    2.3296 C   0  0  0  0  0  0  0  0  0  0  0  0
   -1.8843   -7.6406    2.5831 C   0  0  0  0  0  0  0  0  0  0  0  0
   -3.0069   -8.0568    1.8753 C   0  0  0  0  0  0  0  0  0  0  0  0
   -3.3963   -7.4057    0.7096 C   0  0  0  0  0  0  0  0  0  0  0  0
   -2.6472   -6.3254    0.2545 C   0  0  0  0  0  0  0  0  0  0  0  0
    1.8487    0.1513    0.1513 N   0  0  0  0  0  0  0  0  0  0  0  0
    2.7928    0.7664   -0.7928 C   0  0  0  0  0  0  0  0  0  0  0  0
    2.1937    0.7524   -2.1900 C   0  0  0  0  0  0  0  0  0  0  0  0
    2.4227   -0.3348   -3.0270 C   0  0  0  0  0  0  0  0  0  0  0  0
    1.8734   -0.3432   -4.3050 C   0  0  0  0  0  0  0  0  0  0  0  0
    1.1007    0.7296   -4.7370 C   0  0  0  0  0  0  0  0  0  0  0  0
    0.8782    1.8100   -3.8921 C   0  0  0  0  0  0  0  0  0  0  0  0
    1.4225    1.8306   -2.6122 C   0  0  0  0  0  0  0  0  0  0  0  0
    1.0000    1.0000    1.0000 C   0  0  0  0  0  0  0  0  0  0  0  0
    1.8776    1.8776    1.8776 C   0  0  0  0  0  0  0  0  0  0  0  0
    1.0577    2.6974    2.6974 O   0  0  0  0  0  0  0  0  0  0  0  0
    1.8776    3.5172    3.5172 C   0  0  0  0  0  0  0  0  0  0  0  0
    1.0000    4.3948    4.3948 C   0  0  0  0  0  0  0  0  0  0  0  0
    0.3529    5.3707    3.5916 O   0  0  0  0  0  0  0  0  0  0  0  0
    1.1643    6.5334    3.5137 C   0  0  0  0  0  0  0  0  0  0  0  0
   -5.3751   -1.0633   -2.7470 C   0  0  0  0  0  0  0  0  0  0  0  0
   -6.0260   -1.6445   -3.9928 C   0  0  0  0  0  0  0  0  0  0  0  0
   -7.3568   -4.8788   -2.8090 C   0  0  0  0  0  0  0  0  0  0  0  0
  1  2  1  0
  2  3  1  0
  3  4  1  0
  4  5  1  0
  5  6  2  0
  6  7  1  0
  7  8  2  0
  8  9  1  0
  9 10  2  0
 10  5  1  0
  8 11  1  0
 11 12  1  0
 12 13  1  0
 13 14  2  0
 14 15  1  0
 15 16  2  0
 16 12  1  0
 16 17  1  0
 17 18  2  0
 18 19  1  0
 19 20  2  0
 20 21  1  0
 21 22  2  0
 22 17  1  0
 20 23  1  0
 23 24  2  0
 24 25  1  0
 25 26  2  0
 26 19  1  0
 13 27  1  0
 27 28  1  0
 28 29  1  0
 29 30  2  0
 30 31  1  0
 31 32  2  0
 32 33  1  0
 33 34  2  0
 34 29  1  0
 27 35  1  0
 35 36  1  0
 36 37  1  0
 37 38  1  0
 38 39  1  0
 39 40  1  0
 40 41  1  0
  4 42  1  0
 42 43  1  0
 43  1  1  0
  2 44  1  0
M  END
$$$$
s_1458____472438____10860122
     RDKit          3D

 34 38  0  0  0  0  0  0  0  0999 V2000
    5.4013    3.4312    1.1006 O   0  0  0  0  0  0  0  0  0  0  0  0
    4.9694    3.1608    2.2101 C   0  0  0  0  0  0  0  0  0  0  0  0
    4.5381    4.1136    3.0193 O   0  0  0  0  0  0  0  0  0  0  0  0
    4.0651    3.8499    4.2257 C   0  0  0  0  0  0  0  0  0  0  0  0
    4.0018    2.5421    4.6974 C   0  0  0  0  0  0  0  0  0  0  0  0
    3.5089    2.2391    5.9625 C   0  0  0  0  0  0  0  0  0  0  0  0
    3.0663    3.2735    6.7799 C   0  0  0  0  0  0  0  0  0  0  0  0
    3.1202    4.5887    6.3286 C   0  0  0  0  0  0  0  0  0  0  0  0
    3.6171    4.8688    5.0598 C   0  0  0  0  0  0  0  0  0  0  0  0
    4.4552    1.4887    3.8610 C   0  0  0  0  0  0  0  0  0  0  0  0
    4.9390    1.7988    2.6168 C   0  0  0  0  0  0  0  0  0  0  0  0
    5.4046    0.7301    1.7539 C   0  0  0  0  0  0  0  0  0  0  0  0
    6.6511    0.3665    1.5487 N   0  0  0  0  0  0  0  0  0  0  0  0
    6.7238   -0.6418    0.7131 N   0  0  0  0  0  0  0  0  0  0  0  0
    7.9027   -1.2666    0.2870 C   0  0  0  0  0  0  0  0  0  0  0  0
    9.0528   -0.5082    0.0935 C   0  0  0  0  0  0  0  0  0  0  0  0
   10.2218   -1.1323   -0.3295 C   0  0  0  0  0  0  0  0  0  0  0  0
   10.2347   -2.5044   -0.5559 C   0  0  0  0  0  0  0  0  0  0  0  0
    9.0790   -3.2528   -0.3586 C   0  0  0  0  0  0  0  0  0  0  0  0
    7.9043   -2.6396    0.0641 C   0  0  0  0  0  0  0  0  0  0  0  0
    5.4654   -0.9803    0.3177 C   0  0  0  0  0  0  0  0  0  0  0  0
    4.6172   -0.1329    0.9613 C   0  0  0  0  0  0  0  0  0  0  0  0
    3.1700   -0.1162    0.8530 C   0  0  0  0  0  0  0  0  0  0  0  0
    2.5200    1.0000    1.0000 C   0  0  0  0  0  0  0  0  0  0  0  0
    1.0000    1.0000    1.0000 C   0  0  0  0  0  0  0  0  0  0  0  0
    0.4000   -0.0392    1.0000 O   0  0  0  0  0  0  0  0  0  0  0  0
    0.3450    2.1345    1.0000 O   0  0  0  0  0  0  0  0  0  0  0  0
   -1.0750    2.1345    1.0000 C   0  0  0  0  0  0  0  0  0  0  0  0
   -1.5814    3.5669    1.0000 C   0  0  0  0  0  0  0  0  0  0  0  0
   -1.0935    4.3165    2.2297 C   0  0  0  0  0  0  0  0  0  0  0  0
   -0.7276    4.8786    3.1515 N   0  0  0  0  0  0  0  0  0  0  0  0
   -1.4067    4.3387   -0.2960 C   0  0  0  0  0  0  0  0  0  0  0  0
   -2.7430    3.7859   -0.7268 C   0  0  0  0  0  0  0  0  0  0  0  0
   -3.0607    3.7354    0.7502 C   0  0  0  0  0  0  0  0  0  0  0  0
  1  2  2  0
  2  3  1  0
  3  4  1  0
  4  5  2  0
  5  6  1  0
  6  7  2  0
  7  8  1  0
  8  9  2  0
  9  4  1  0
  5 10  1  0
 10 11  2  0
 11  2  1  0
 11 12  1  0
 12 13  2  0
 13 14  1  0
 14 15  1  0
 15 16  2  0
 16 17  1  0
 17 18  2  0
 18 19  1  0
 19 20  2  0
 20 15  1  0
 14 21  1  0
 21 22  2  0
 22 12  1  0
 22 23  1  0
 23 24  2  0
 24 25  1  0
 25 26  2  0
 25 27  1  0
 27 28  1  0
 28 29  1  0
 29 30  1  0
 30 31  3  0
 29 32  1  0
 32 33  1  0
 33 34  1  0
 34 29  1  0
M  END
$$$$
s_270196____8770700____14652798
     RDKit          3D

 33 37  0  0  0  0  0  0  0  0999 V2000
    0.4648    3.7275    2.5286 S   0  0  0  0  0  0  0  0  0  0  0  0
   -0.5215    2.9336    3.2146 O   0  0  0  0  0  0  0  0  0  0  0  0
    0.6262    4.9859    3.2096 O   0  0  0  0  0  0  0  0  0  0  0  0
   -0.0241    3.9971    0.9972 N   0  0  0  0  0  0  0  0  0  0  0  0
   -0.4508    2.9268    0.1989 C   0  0  0  0  0  0  0  0  0  0  0  0
   -0.5120    1.6640    0.5416 N   0  0  0  0  0  0  0  0  0  0  0  0
   -0.9477    0.9458   -0.4159 O   0  0  0  0  0  0  0  0  0  0  0  0
   -1.1963    1.6979   -1.4596 C   0  0  0  0  0  0  0  0  0  0  0  0
   -0.8999    2.9833   -1.1343 C   0  0  0  0  0  0  0  0  0  0  0  0
   -1.7282    1.2136   -2.7986 C   0  0  0  0  0  0  0  0  0  0  0  0
    1.9833    2.8783    2.5116 C   0  0  0  0  0  0  0  0  0  0  0  0
    3.1735    3.5977    2.5023 C   0  0  0  0  0  0  0  0  0  0  0  0
    4.3802    2.9056    2.4882 C   0  0  0  0  0  0  0  0  0  0  0  0
    4.4059    1.5148    2.4827 C   0  0  0  0  0  0  0  0  0  0  0  0
    3.2042    0.8141    2.4925 C   0  0  0  0  0  0  0  0  0  0  0  0
    1.9869    1.4870    2.5070 C   0  0  0  0  0  0  0  0  0  0  0  0
    5.6232    3.6528    2.4786 C   0  0  0  0  0  0  0  0  0  0  0  0
    5.7430    4.9598    2.4818 N   0  0  0  0  0  0  0  0  0  0  0  0
    6.9757    5.2547    2.4736 O   0  0  0  0  0  0  0  0  0  0  0  0
    7.6895    4.1553    2.4634 C   0  0  0  0  0  0  0  0  0  0  0  0
    6.8769    3.1292    2.4676 N   0  0  0  0  0  0  0  0  0  0  0  0
    9.1383    4.0872    2.4510 C   0  0  0  0  0  0  0  0  0  0  0  0
    9.7346    2.9321    2.4415 C   0  0  0  0  0  0  0  0  0  0  0  0
   11.1848    2.8639    2.4291 C   0  0  0  0  0  0  0  0  0  0  0  0
   11.8815    1.6567    2.4186 C   0  0  0  0  0  0  0  0  0  0  0  0
   13.2718    1.6872    2.4066 C   0  0  0  0  0  0  0  0  0  0  0  0
   13.9261    2.8572    2.4054 N   0  0  0  0  0  0  0  0  0  0  0  0
   13.2723    4.0282    2.4159 C   0  0  0  0  0  0  0  0  0  0  0  0
   11.8826    4.0664    2.4282 C   0  0  0  0  0  0  0  0  0  0  0  0
   13.9942    0.4990    2.3947 C   0  0  0  0  0  0  0  0  0  0  0  0
   13.3427   -0.7297    2.3957 C   0  0  0  0  0  0  0  0  0  0  0  0
   11.9534   -0.7797    2.4083 C   0  0  0  0  0  0  0  0  0  0  0  0
   11.2454    0.4169    2.4197 C   0  0  0  0  0  0  0  0  0  0  0  0
  1  2  2  0
  1  3  2  0
  1  4  1  0
  4  5  1  0
  5  6  2  0
  6  7  1  0
  7  8  1  0
  8  9  2  0
  9  5  1  0
  8 10  1  0
  1 11  1  0
 11 12  2  0
 12 13  1  0
 13 14  2  0
 14 15  1  0
 15 16  2  0
 16 11  1  0
 13 17  1  0
 17 18  2  0
 18 19  1  0
 19 20  1  0
 20 21  2  0
 21 17  1  0
 20 22  1  0
 22 23  2  0
 23 24  1  0
 24 25  2  0
 25 26  1  0
 26 27  2  0
 27 28  1  0
 28 29  2  0
 29 24  1  0
 26 30  1  0
 30 31  2  0
 31 32  1  0
 32 33  2  0
 33 25  1  0
M  END
$$$$
m_273170____10756154____10761984____10766526
     RDKit          3D

 45 50  0  0  0  0  0  0  0  0999 V2000
   -0.5856   -0.5999   -1.0691 S   0  0  0  0  0  0  0  0  0  0  0  0
   -0.9547   -1.3225   -2.2587 O   0  0  0  0  0  0  0  0  0  0  0  0
   -0.0718   -1.5205   -0.0883 O   0  0  0  0  0  0  0  0  0  0  0  0
   -1.8956    0.1605   -0.4669 N   0  0  0  0  0  0  0  0  0  0  0  0
   -2.4201    1.1003   -1.4682 C   0  0  0  0  0  0  0  0  0  0  0  0
   -2.9292   -0.8312   -0.1368 C   0  0  0  0  0  0  0  0  0  0  0  0
    0.6381    0.5742   -1.4599 C   0  0  0  0  0  0  0  0  0  0  0  0
    1.3195    1.2652   -0.4624 C   0  0  0  0  0  0  0  0  0  0  0  0
    2.2928    2.1988   -0.8033 C   0  0  0  0  0  0  0  0  0  0  0  0
    2.5852    2.4414   -2.1416 C   0  0  0  0  0  0  0  0  0  0  0  0
    1.8983    1.7449   -3.1306 C   0  0  0  0  0  0  0  0  0  0  0  0
    0.9229    0.8093   -2.8007 C   0  0  0  0  0  0  0  0  0  0  0  0
    1.0000    1.0000    1.0000 C   0  0  0  0  0  0  0  0  0  0  0  0
    1.8481    1.8481    1.8481 N   0  0  0  0  0  0  0  0  0  0  0  0
    1.5169    3.0567    2.3676 C   0  0  0  0  0  0  0  0  0  0  0  0
    2.5576    3.4637    3.0523 N   0  0  0  0  0  0  0  0  0  0  0  0
    3.5256    2.5769    3.0030 N   0  0  0  0  0  0  0  0  0  0  0  0
    3.1121    1.5700    2.2672 C   0  0  0  0  0  0  0  0  0  0  0  0
    3.9113    0.3175    1.9432 C   0  0  0  0  0  0  0  0  0  0  0  0
    3.6417   -0.6808    2.9163 O   0  0  0  0  0  0  0  0  0  0  0  0
    4.2439   -1.8864    2.8313 C   0  0  0  0  0  0  0  0  0  0  0  0
    3.9996   -2.8843    3.7699 C   0  0  0  0  0  0  0  0  0  0  0  0
    3.0833   -2.6390    4.8670 C   0  0  0  0  0  0  0  0  0  0  0  0
    3.2239   -1.4901    5.6385 C   0  0  0  0  0  0  0  0  0  0  0  0
    2.3434   -1.2592    6.6904 C   0  0  0  0  0  0  0  0  0  0  0  0
    1.3310   -2.1730    6.9634 C   0  0  0  0  0  0  0  0  0  0  0  0
    1.1998   -3.3170    6.1858 C   0  0  0  0  0  0  0  0  0  0  0  0
    2.0743   -3.5597    5.1316 C   0  0  0  0  0  0  0  0  0  0  0  0
    4.6354   -4.1169    3.6563 C   0  0  0  0  0  0  0  0  0  0  0  0
    5.5150   -4.3515    2.6046 C   0  0  0  0  0  0  0  0  0  0  0  0
    5.7585   -3.3542    1.6660 C   0  0  0  0  0  0  0  0  0  0  0  0
    5.1231   -2.1218    1.7792 C   0  0  0  0  0  0  0  0  0  0  0  0
    0.3082    3.7410    2.2023 N   0  0  0  0  0  0  0  0  0  0  0  0
   -0.7808    3.1323    1.4249 C   0  0  0  0  0  0  0  0  0  0  0  0
   -1.9758    4.0768    1.3990 C   0  0  0  0  0  0  0  0  0  0  0  0
   -2.9604    4.1045    2.2683 O   0  0  0  0  0  0  0  0  0  0  0  0
   -3.8305    5.0395    1.9537 C   0  0  0  0  0  0  0  0  0  0  0  0
   -3.3968    5.6530    0.8172 C   0  0  0  0  0  0  0  0  0  0  0  0
   -2.1839    5.0268    0.4474 C   0  0  0  0  0  0  0  0  0  0  0  0
    0.1270    5.0690    2.8061 C   0  0  0  0  0  0  0  0  0  0  0  0
   -0.6697    4.9350    4.0988 C   0  0  0  0  0  0  0  0  0  0  0  0
   -0.0369    4.1091    5.0632 O   0  0  0  0  0  0  0  0  0  0  0  0
   -0.6236    4.4245    6.3119 C   0  0  0  0  0  0  0  0  0  0  0  0
   -1.0929    5.8633    6.2289 C   0  0  0  0  0  0  0  0  0  0  0  0
   -0.6508    6.2615    4.8364 C   0  0  0  0  0  0  0  0  0  0  0  0
  1  2  2  0
  1  3  2  0
  1  4  1  0
  4  5  1  0
  4  6  1  0
  1  7  1  0
  7  8  2  0
  8  9  1  0
  9 10  2  0
 10 11  1  0
 11 12  2  0
 12  7  1  0
  8 13  1  0
 13 14  1  0
 14 15  1  0
 15 16  2  0
 16 17  1  0
 17 18  2  0
 18 14  1  0
 18 19  1  0
 19 20  1  0
 20 21  1  0
 21 22  1  0
 22 23  1  0
 23 24  2  0
 24 25  1  0
 25 26  2  0
 26 27  1  0
 27 28  2  0
 28 23  1  0
 22 29  2  0
 29 30  1  0
 30 31  2  0
 31 32  1  0
 32 21  2  0
 15 33  1  0
 33 34  1  0
 34 35  1  0
 35 36  1  0
 36 37  1  0
 37 38  2  0
 38 39  1  0
 35 39  2  0
 33 40  1  0
 40 41  1  0
 41 42  1  0
 42 43  1  0
 43 44  1  0
 44 45  1  0
 45 41  1  0
M  END
$$$$
s_43____2503812____17055450
     RDKit          3D

 28 31  0  0  0  0  0  0  0  0999 V2000
    0.4036    3.7617    2.5293 S   0  0  0  0  0  0  0  0  0  0  0  0
   -0.5826    2.9678    3.2153 O   0  0  0  0  0  0  0  0  0  0  0  0
    0.5651    5.0202    3.2103 O   0  0  0  0  0  0  0  0  0  0  0  0
   -0.0853    4.0313    0.9979 N   0  0  0  0  0  0  0  0  0  0  0  0
   -1.3682    4.7488    1.0123 C   0  0  0  0  0  0  0  0  0  0  0  0
    0.9215    4.8418    0.2976 C   0  0  0  0  0  0  0  0  0  0  0  0
    1.9833    2.8783    2.5116 C   0  0  0  0  0  0  0  0  0  0  0  0
    3.1735    3.5977    2.5023 C   0  0  0  0  0  0  0  0  0  0  0  0
    4.3802    2.9056    2.4882 C   0  0  0  0  0  0  0  0  0  0  0  0
    4.4059    1.5148    2.4827 C   0  0  0  0  0  0  0  0  0  0  0  0
    3.2042    0.8141    2.4925 C   0  0  0  0  0  0  0  0  0  0  0  0
    1.9869    1.4870    2.5070 C   0  0  0  0  0  0  0  0  0  0  0  0
    5.6177    3.6495    2.4786 C   0  0  0  0  0  0  0  0  0  0  0  0
    6.8635    3.0862    2.4646 N   0  0  0  0  0  0  0  0  0  0  0  0
    7.8614    3.9417    2.4672 C   0  0  0  0  0  0  0  0  0  0  0  0
    7.1848    5.5017    2.4854 S   0  0  0  0  0  0  0  0  0  0  0  0
    5.5538    5.0106    2.4938 C   0  0  0  0  0  0  0  0  0  0  0  0
    9.2789    3.6344    2.4519 C   0  0  0  0  0  0  0  0  0  0  0  0
    9.8513    2.3444    2.4368 C   0  0  0  0  0  0  0  0  0  0  0  0
   11.1510    2.5194    2.4253 N   0  0  0  0  0  0  0  0  0  0  0  0
   11.4453    3.7985    2.4316 N   0  0  0  0  0  0  0  0  0  0  0  0
   12.7402    4.3312    2.4234 C   0  0  0  0  0  0  0  0  0  0  0  0
   12.9172    5.7111    2.4315 C   0  0  0  0  0  0  0  0  0  0  0  0
   14.2051    6.2366    2.4236 C   0  0  0  0  0  0  0  0  0  0  0  0
   15.3038    5.3841    2.4076 C   0  0  0  0  0  0  0  0  0  0  0  0
   15.1150    4.0061    2.4003 C   0  0  0  0  0  0  0  0  0  0  0  0
   13.8318    3.4693    2.4079 C   0  0  0  0  0  0  0  0  0  0  0  0
   10.2991    4.5344    2.4494 C   0  0  0  0  0  0  0  0  0  0  0  0
  1  2  2  0
  1  3  2  0
  1  4  1  0
  4  5  1  0
  4  6  1  0
  1  7  1  0
  7  8  2  0
  8  9  1  0
  9 10  2  0
 10 11  1  0
 11 12  2  0
 12  7  1  0
  9 13  1  0
 13 14  1  0
 14 15  2  0
 15 16  1  0
 16 17  1  0
 13 17  2  0
 15 18  1  0
 18 19  1  0
 19 20  2  0
 20 21  1  0
 21 22  1  0
 22 23  2  0
 23 24  1  0
 24 25  2  0
 25 26  1  0
 26 27  2  0
 27 22  1  0
 21 28  1  0
 18 28  2  0
M  END
$$$$
m_273170____17619788____10761984____10766684
     RDKit          3D

 42 47  0  0  0  0  0  0  0  0999 V2000
    0.1471   -2.9605   -0.6541 F   0  0  0  0  0  0  0  0  0  0  0  0
    0.2933   -1.6573   -0.4281 C   0  0  0  0  0  0  0  0  0  0  0  0
    0.2170   -0.7546   -1.4841 C   0  0  0  0  0  0  0  0  0  0  0  0
   -0.0150   -1.2278   -2.7809 N   0  0  0  0  0  0  0  0  0  0  0  0
    0.7027   -0.8676   -3.6992 O   0  0  0  0  0  0  0  0  0  0  0  0
   -0.9276   -1.9942   -2.9910 O   0  0  0  0  0  0  0  0  0  0  0  0
    0.3695    0.6095   -1.2610 C   0  0  0  0  0  0  0  0  0  0  0  0
    0.5992    1.0637    0.0336 C   0  0  0  0  0  0  0  0  0  0  0  0
    0.6734    0.1567    1.0862 C   0  0  0  0  0  0  0  0  0  0  0  0
    0.5227   -1.2083    0.8678 C   0  0  0  0  0  0  0  0  0  0  0  0
    0.9245    0.6605    2.4981 C   0  0  0  0  0  0  0  0  0  0  0  0
    2.0806    1.5694    2.4959 N   0  0  0  0  0  0  0  0  0  0  0  0
    2.0315    2.9267    2.5008 C   0  0  0  0  0  0  0  0  0  0  0  0
    3.2789    3.3271    2.4974 N   0  0  0  0  0  0  0  0  0  0  0  0
    4.1071    2.3065    2.4903 N   0  0  0  0  0  0  0  0  0  0  0  0
    3.3905    1.2051    2.4893 C   0  0  0  0  0  0  0  0  0  0  0  0
    3.9082   -0.1501    2.4826 C   0  0  0  0  0  0  0  0  0  0  0  0
    3.1775   -1.2411    2.4818 O   0  0  0  0  0  0  0  0  0  0  0  0
    3.9566   -2.2970    2.4757 C   0  0  0  0  0  0  0  0  0  0  0  0
    5.2584   -1.8938    2.4698 C   0  0  0  0  0  0  0  0  0  0  0  0
    5.2271   -0.4831    2.4742 C   0  0  0  0  0  0  0  0  0  0  0  0
    3.4828   -3.7413    2.4738 C   0  0  0  0  0  0  0  0  0  0  0  0
    3.3296   -4.1875    1.1344 O   0  0  0  0  0  0  0  0  0  0  0  0
    4.3677   -4.7641    0.4921 C   0  0  0  0  0  0  0  0  0  0  0  0
    4.2110   -5.1989   -0.8198 C   0  0  0  0  0  0  0  0  0  0  0  0
    5.2843   -5.7934   -1.4768 C   0  0  0  0  0  0  0  0  0  0  0  0
    6.5022   -5.9482   -0.8222 C   0  0  0  0  0  0  0  0  0  0  0  0
    6.6514   -5.5120    0.4902 C   0  0  0  0  0  0  0  0  0  0  0  0
    5.5825   -4.9169    1.1527 C   0  0  0  0  0  0  0  0  0  0  0  0
    0.8853    3.7336    2.5048 N   0  0  0  0  0  0  0  0  0  0  0  0
   -0.4030    3.1782    2.9437 C   0  0  0  0  0  0  0  0  0  0  0  0
   -0.5612    3.3873    4.4444 C   0  0  0  0  0  0  0  0  0  0  0  0
   -0.5707    4.5431    5.0689 O   0  0  0  0  0  0  0  0  0  0  0  0
   -0.7246    4.3693    6.3636 C   0  0  0  0  0  0  0  0  0  0  0  0
   -0.8157    3.0308    6.6009 C   0  0  0  0  0  0  0  0  0  0  0  0
   -0.7079    2.3816    5.3491 C   0  0  0  0  0  0  0  0  0  0  0  0
    0.9717    5.1351    2.0699 C   0  0  0  0  0  0  0  0  0  0  0  0
    0.8381    5.2057    0.5531 C   0  0  0  0  0  0  0  0  0  0  0  0
   -0.5053    5.1212    0.1050 O   0  0  0  0  0  0  0  0  0  0  0  0
   -0.5236    5.6341   -1.2140 C   0  0  0  0  0  0  0  0  0  0  0  0
    0.6129    6.6315   -1.3163 C   0  0  0  0  0  0  0  0  0  0  0  0
    1.1827    6.6085    0.0865 C   0  0  0  0  0  0  0  0  0  0  0  0
  1  2  1  0
  2  3  2  0
  3  4  1  0
  4  5  1  0
  4  6  2  0
  3  7  1  0
  7  8  2  0
  8  9  1  0
  9 10  2  0
 10  2  1  0
  9 11  1  0
 11 12  1  0
 12 13  1  0
 13 14  2  0
 14 15  1  0
 15 16  2  0
 16 12  1  0
 16 17  1  0
 17 18  1  0
 18 19  1  0
 19 20  2  0
 20 21  1  0
 17 21  2  0
 19 22  1  0
 22 23  1  0
 23 24  1  0
 24 25  2  0
 25 26  1  0
 26 27  2  0
 27 28  1  0
 28 29  2  0
 29 24  1  0
 13 30  1  0
 30 31  1  0
 31 32  1  0
 32 33  1  0
 33 34  1  0
 34 35  2  0
 35 36  1  0
 32 36  2  0
 30 37  1  0
 37 38  1  0
 38 39  1  0
 39 40  1  0
 40 41  1  0
 41 42  1  0
 42 38  1  0
M  CHG  2   4   1   5  -1
M  END
$$$$
s_2____2757072____16506322____12433048
     RDKit          3D

 43 48  0  0  0  0  0  0  0  0999 V2000
    7.4654   -8.1467   -3.5614 Cl  0  0  0  0  0  0  0  0  0  0  0  0
    7.7720   -6.7279   -2.5318 C   0  0  0  0  0  0  0  0  0  0  0  0
    8.2389   -5.5496   -3.1046 C   0  0  0  0  0  0  0  0  0  0  0  0
    8.4773   -4.4444   -2.2947 C   0  0  0  0  0  0  0  0  0  0  0  0
    8.2466   -4.5279   -0.9257 C   0  0  0  0  0  0  0  0  0  0  0  0
    8.4803   -3.4508   -0.1459 O   0  0  0  0  0  0  0  0  0  0  0  0
    7.4961   -2.5550    0.0803 C   0  0  0  0  0  0  0  0  0  0  0  0
    6.9823   -1.8049   -0.9724 C   0  0  0  0  0  0  0  0  0  0  0  0
    5.9692   -0.8830   -0.7290 C   0  0  0  0  0  0  0  0  0  0  0  0
    5.4821   -0.7235    0.5637 C   0  0  0  0  0  0  0  0  0  0  0  0
    5.9951   -1.4738    1.6168 C   0  0  0  0  0  0  0  0  0  0  0  0
    7.0083   -2.3951    1.3733 C   0  0  0  0  0  0  0  0  0  0  0  0
    4.4252    0.2391    0.8067 C   0  0  0  0  0  0  0  0  0  0  0  0
    3.0922   -0.0540    0.7420 N   0  0  0  0  0  0  0  0  0  0  0  0
    2.2727    1.0000    1.0000 C   0  0  0  0  0  0  0  0  0  0  0  0
    3.2932    2.3253    1.3214 S   0  0  0  0  0  0  0  0  0  0  0  0
    4.7811    1.5159    1.1188 C   0  0  0  0  0  0  0  0  0  0  0  0
    1.0000    1.0000    1.0000 N   0  0  0  0  0  0  0  0  0  0  0  0
    0.2650    2.2652    0.8588 C   0  0  0  0  0  0  0  0  0  0  0  0
   -1.0629    2.0052    0.1670 C   0  0  0  0  0  0  0  0  0  0  0  0
   -2.1851    1.7035    0.9311 C   0  0  0  0  0  0  0  0  0  0  0  0
   -3.3988    1.4673    0.2934 C   0  0  0  0  0  0  0  0  0  0  0  0
   -3.4787    1.5337   -1.0934 C   0  0  0  0  0  0  0  0  0  0  0  0
   -4.9978    1.2378   -1.8880 S   0  0  0  0  0  0  0  0  0  0  0  0
   -4.7562    0.6747   -3.1911 O   0  0  0  0  0  0  0  0  0  0  0  0
   -5.7781    0.3159   -1.1039 O   0  0  0  0  0  0  0  0  0  0  0  0
   -5.8113    2.6415   -2.0450 N   0  0  0  0  0  0  0  0  0  0  0  0
   -2.3564    1.8352   -1.8581 C   0  0  0  0  0  0  0  0  0  0  0  0
   -1.1438    2.0719   -1.2201 C   0  0  0  0  0  0  0  0  0  0  0  0
    2.5424   -1.3777    0.4166 C   0  0  0  0  0  0  0  0  0  0  0  0
    2.2374   -1.4485   -1.0742 C   0  0  0  0  0  0  0  0  0  0  0  0
    1.7181   -2.5079   -1.7584 C   0  0  0  0  0  0  0  0  0  0  0  0
    1.6291   -2.1186   -3.0609 N   0  0  0  0  0  0  0  0  0  0  0  0
    2.0987   -0.8865   -3.1752 N   0  0  0  0  0  0  0  0  0  0  0  0
    2.4809   -0.4193   -2.0113 C   0  0  0  0  0  0  0  0  0  0  0  0
    1.0868   -3.0492   -4.0711 C   0  0  0  0  0  0  0  0  0  0  0  0
    1.3699   -4.5174   -3.7728 C   0  0  0  0  0  0  0  0  0  0  0  0
    1.0893   -4.8539   -2.3721 N   0  0  0  0  0  0  0  0  0  0  0  0
    1.3193   -3.8610   -1.4040 C   0  0  0  0  0  0  0  0  0  0  0  0
    1.2020   -4.2009   -0.2529 O   0  0  0  0  0  0  0  0  0  0  0  0
    0.6060   -6.2008   -2.0122 C   0  0  0  0  0  0  0  0  0  0  0  0
    7.7802   -5.7089   -0.3594 C   0  0  0  0  0  0  0  0  0  0  0  0
    7.5400   -6.8179   -1.1634 C   0  0  0  0  0  0  0  0  0  0  0  0
  1  2  1  0
  2  3  2  0
  3  4  1  0
  4  5  2  0
  5  6  1  0
  6  7  1  0
  7  8  2  0
  8  9  1  0
  9 10  2  0
 10 11  1  0
 11 12  2  0
 12  7  1  0
 10 13  1  0
 13 14  1  0
 14 15  1  0
 15 16  1  0
 16 17  1  0
 13 17  2  0
 15 18  2  0
 18 19  1  0
 19 20  1  0
 20 21  2  0
 21 22  1  0
 22 23  2  0
 23 24  1  0
 24 25  2  0
 24 26  2  0
 24 27  1  0
 23 28  1  0
 28 29  2  0
 29 20  1  0
 14 30  1  0
 30 31  1  0
 31 32  2  0
 32 33  1  0
 33 34  1  0
 34 35  2  0
 35 31  1  0
 33 36  1  0
 36 37  1  0
 37 38  1  0
 38 39  1  0
 39 32  1  0
 39 40  2  0
 38 41  1  0
  5 42  1  0
 42 43  2  0
 43  2  1  0
M  END
$$$$
m_273170____10756572____10763508____10766638
     RDKit          3D

 41 46  0  0  0  0  0  0  0  0999 V2000
    4.4060    4.9375    1.3610 S   0  0  0  0  0  0  0  0  0  0  0  0
    5.7656    4.8288    1.8227 O   0  0  0  0  0  0  0  0  0  0  0  0
    4.3732    4.8000   -0.0720 O   0  0  0  0  0  0  0  0  0  0  0  0
    3.8043    6.3931    1.7810 N   0  0  0  0  0  0  0  0  0  0  0  0
    2.4164    6.5041    1.3097 C   0  0  0  0  0  0  0  0  0  0  0  0
    3.4447    3.6813    2.0865 C   0  0  0  0  0  0  0  0  0  0  0  0
    2.6407    2.8778    1.2843 C   0  0  0  0  0  0  0  0  0  0  0  0
    1.8777    1.8777    1.8777 C   0  0  0  0  0  0  0  0  0  0  0  0
    1.9106    1.6740    3.2531 C   0  0  0  0  0  0  0  0  0  0  0  0
    2.7213    2.4884    4.0371 C   0  0  0  0  0  0  0  0  0  0  0  0
    3.4920    3.4948    3.4641 C   0  0  0  0  0  0  0  0  0  0  0  0
    1.0000    1.0000    1.0000 C   0  0  0  0  0  0  0  0  0  0  0  0
    1.7941    0.4801   -0.1233 N   0  0  0  0  0  0  0  0  0  0  0  0
    1.6656    0.8377   -1.4273 C   0  0  0  0  0  0  0  0  0  0  0  0
    2.5624    0.1380   -2.0773 N   0  0  0  0  0  0  0  0  0  0  0  0
    3.2451   -0.6359   -1.2633 N   0  0  0  0  0  0  0  0  0  0  0  0
    2.7891   -0.4433   -0.0461 C   0  0  0  0  0  0  0  0  0  0  0  0
    3.2646   -1.0993    1.1574 C   0  0  0  0  0  0  0  0  0  0  0  0
    4.4502   -0.8186    1.7828 N   0  0  0  0  0  0  0  0  0  0  0  0
    4.7038   -1.5197    2.8593 C   0  0  0  0  0  0  0  0  0  0  0  0
    3.3835   -2.5737    3.0654 S   0  0  0  0  0  0  0  0  0  0  0  0
    2.4868   -2.0665    1.7092 C   0  0  0  0  0  0  0  0  0  0  0  0
    5.8344   -1.4362    3.6806 N   0  0  0  0  0  0  0  0  0  0  0  0
    5.9406   -2.3242    4.8489 C   0  0  0  0  0  0  0  0  0  0  0  0
    7.3902   -2.6955    5.1213 C   0  0  0  0  0  0  0  0  0  0  0  0
    8.2386   -1.5559    5.0648 O   0  0  0  0  0  0  0  0  0  0  0  0
    8.2632   -1.0116    3.7517 C   0  0  0  0  0  0  0  0  0  0  0  0
    6.8986   -0.4794    3.3414 C   0  0  0  0  0  0  0  0  0  0  0  0
    0.7595    1.7605   -1.9681 N   0  0  0  0  0  0  0  0  0  0  0  0
   -0.5239    1.4937   -2.4374 C   0  0  0  0  0  0  0  0  0  0  0  0
   -1.2668    2.6482   -2.4631 C   0  0  0  0  0  0  0  0  0  0  0  0
   -2.5774    2.6705   -2.9319 C   0  0  0  0  0  0  0  0  0  0  0  0
   -3.1566    1.4771   -3.3482 C   0  0  0  0  0  0  0  0  0  0  0  0
   -4.4323    1.4901   -3.7906 O   0  0  0  0  0  0  0  0  0  0  0  0
   -5.4996    1.6850   -2.8744 C   0  0  0  0  0  0  0  0  0  0  0  0
   -2.4457    0.2825   -3.3114 C   0  0  0  0  0  0  0  0  0  0  0  0
   -3.0397   -0.8620   -3.7121 O   0  0  0  0  0  0  0  0  0  0  0  0
   -2.8849   -2.0480   -2.9467 C   0  0  0  0  0  0  0  0  0  0  0  0
   -1.1301    0.3137   -2.8609 C   0  0  0  0  0  0  0  0  0  0  0  0
   -0.4065    3.7585   -1.9105 C   0  0  0  0  0  0  0  0  0  0  0  0
    0.9905    3.1993   -2.0951 C   0  0  0  0  0  0  0  0  0  0  0  0
  1  2  2  0
  1  3  2  0
  1  4  1  0
  4  5  1  0
  1  6  1  0
  6  7  2  0
  7  8  1  0
  8  9  2  0
  9 10  1  0
 10 11  2  0
 11  6  1  0
  8 12  1  0
 12 13  1  0
 13 14  1  0
 14 15  2  0
 15 16  1  0
 16 17  2  0
 17 13  1  0
 17 18  1  0
 18 19  1  0
 19 20  2  0
 20 21  1  0
 21 22  1  0
 18 22  2  0
 20 23  1  0
 23 24  1  0
 24 25  1  0
 25 26  1  0
 26 27  1  0
 27 28  1  0
 28 23  1  0
 14 29  1  0
 29 30  1  0
 30 31  1  0
 31 32  2  0
 32 33  1  0
 33 34  1  0
 34 35  1  0
 33 36  2  0
 36 37  1  0
 37 38  1  0
 36 39  1  0
 39 30  2  0
 31 40  1  0
 40 41  1  0
 41 29  1  0
M  END
$$$$
m_273170____17619788____10762102____10766740
     RDKit          3D

 42 47  0  0  0  0  0  0  0  0999 V2000
    4.7641    3.6678    7.0485 F   0  0  0  0  0  0  0  0  0  0  0  0
    4.1091    3.6147    5.8914 C   0  0  0  0  0  0  0  0  0  0  0  0
    3.7234    4.7903    5.2550 C   0  0  0  0  0  0  0  0  0  0  0  0
    4.0304    6.0243    5.8402 N   0  0  0  0  0  0  0  0  0  0  0  0
    3.1598    6.8679    5.9773 O   0  0  0  0  0  0  0  0  0  0  0  0
    5.1593    6.2544    6.2099 O   0  0  0  0  0  0  0  0  0  0  0  0
    3.0372    4.7479    4.0462 C   0  0  0  0  0  0  0  0  0  0  0  0
    2.7400    3.5137    3.4777 C   0  0  0  0  0  0  0  0  0  0  0  0
    3.1291    2.3411    4.1178 C   0  0  0  0  0  0  0  0  0  0  0  0
    3.8144    2.3784    5.3272 C   0  0  0  0  0  0  0  0  0  0  0  0
    2.8010    0.9961    3.4903 C   0  0  0  0  0  0  0  0  0  0  0  0
    3.2232    0.9964    2.0816 N   0  0  0  0  0  0  0  0  0  0  0  0
    2.4017    1.0000    1.0000 C   0  0  0  0  0  0  0  0  0  0  0  0
    3.1912    0.9996   -0.0455 N   0  0  0  0  0  0  0  0  0  0  0  0
    4.4560    0.9958    0.3123 N   0  0  0  0  0  0  0  0  0  0  0  0
    4.5040    0.9938    1.6254 C   0  0  0  0  0  0  0  0  0  0  0  0
    5.7068    0.9897    2.4351 C   0  0  0  0  0  0  0  0  0  0  0  0
    6.6100    2.0397    2.3107 C   0  0  0  0  0  0  0  0  0  0  0  0
    7.7612    2.0319    3.0902 C   0  0  0  0  0  0  0  0  0  0  0  0
    8.0134    0.9932    3.9816 C   0  0  0  0  0  0  0  0  0  0  0  0
    7.1013   -0.0513    4.0969 C   0  0  0  0  0  0  0  0  0  0  0  0
    5.9452   -0.0544    3.3224 C   0  0  0  0  0  0  0  0  0  0  0  0
    9.1645    0.9956    4.7609 C   0  0  0  0  0  0  0  0  0  0  0  0
   10.0689    2.0460    4.6416 C   0  0  0  0  0  0  0  0  0  0  0  0
    9.8171    3.0822    3.7492 C   0  0  0  0  0  0  0  0  0  0  0  0
    8.6647    3.0830    2.9700 C   0  0  0  0  0  0  0  0  0  0  0  0
    1.0000    1.0000    1.0000 N   0  0  0  0  0  0  0  0  0  0  0  0
    0.2650   -0.2731    1.0004 C   0  0  0  0  0  0  0  0  0  0  0  0
    0.2272   -0.8365   -0.4101 C   0  0  0  0  0  0  0  0  0  0  0  0
   -0.8271   -0.4878   -1.2479 C   0  0  0  0  0  0  0  0  0  0  0  0
   -0.8594   -1.0039   -2.5387 C   0  0  0  0  0  0  0  0  0  0  0  0
   -1.8737   -0.6794   -3.3677 O   0  0  0  0  0  0  0  0  0  0  0  0
   -1.9089   -1.2051   -4.6863 C   0  0  0  0  0  0  0  0  0  0  0  0
    0.1460   -1.8555   -2.9849 C   0  0  0  0  0  0  0  0  0  0  0  0
    1.1949   -2.1979   -2.1370 C   0  0  0  0  0  0  0  0  0  0  0  0
    1.2390   -1.6873   -0.8438 C   0  0  0  0  0  0  0  0  0  0  0  0
    0.2650    2.2731    0.9996 C   0  0  0  0  0  0  0  0  0  0  0  0
   -0.8691    2.2053    2.0158 C   0  0  0  0  0  0  0  0  0  0  0  0
   -0.4200    1.9709    3.3409 O   0  0  0  0  0  0  0  0  0  0  0  0
   -1.4722    2.3686    4.1999 C   0  0  0  0  0  0  0  0  0  0  0  0
   -2.2523    3.4462    3.4737 C   0  0  0  0  0  0  0  0  0  0  0  0
   -1.4719    3.5884    2.1838 C   0  0  0  0  0  0  0  0  0  0  0  0
  1  2  1  0
  2  3  2  0
  3  4  1  0
  4  5  1  0
  4  6  2  0
  3  7  1  0
  7  8  2  0
  8  9  1  0
  9 10  2  0
 10  2  1  0
  9 11  1  0
 11 12  1  0
 12 13  1  0
 13 14  2  0
 14 15  1  0
 15 16  2  0
 16 12  1  0
 16 17  1  0
 17 18  2  0
 18 19  1  0
 19 20  2  0
 20 21  1  0
 21 22  2  0
 22 17  1  0
 20 23  1  0
 23 24  2  0
 24 25  1  0
 25 26  2  0
 26 19  1  0
 13 27  1  0
 27 28  1  0
 28 29  1  0
 29 30  2  0
 30 31  1  0
 31 32  1  0
 32 33  1  0
 31 34  2  0
 34 35  1  0
 35 36  2  0
 36 29  1  0
 27 37  1  0
 37 38  1  0
 38 39  1  0
 39 40  1  0
 40 41  1  0
 41 42  1  0
 42 38  1  0
M  CHG  2   4   1   5  -1
M  END
$$$$
m_273170____10756572____10764092____10766770
     RDKit          3D

 40 44  0  0  0  0  0  0  0  0999 V2000
    5.1287    5.6921   -3.8844 S   0  0  0  0  0  0  0  0  0  0  0  0
    6.4780    5.4264   -3.4574 O   0  0  0  0  0  0  0  0  0  0  0  0
    5.0660    5.6631   -5.3227 O   0  0  0  0  0  0  0  0  0  0  0  0
    4.6692    7.1618   -3.3500 N   0  0  0  0  0  0  0  0  0  0  0  0
    4.7332    7.1914   -1.8817 C   0  0  0  0  0  0  0  0  0  0  0  0
    4.0645    4.4791   -3.2328 C   0  0  0  0  0  0  0  0  0  0  0  0
    3.8683    4.4005   -1.8577 C   0  0  0  0  0  0  0  0  0  0  0  0
    3.0151    3.4260   -1.3508 C   0  0  0  0  0  0  0  0  0  0  0  0
    2.3610    2.5374   -2.1976 C   0  0  0  0  0  0  0  0  0  0  0  0
    2.5711    2.6331   -3.5694 C   0  0  0  0  0  0  0  0  0  0  0  0
    3.4206    3.6000   -4.0972 C   0  0  0  0  0  0  0  0  0  0  0  0
    2.8010    3.3415    0.1519 C   0  0  0  0  0  0  0  0  0  0  0  0
    3.2232    2.0176    0.6335 N   0  0  0  0  0  0  0  0  0  0  0  0
    2.4017    1.0000    1.0000 C   0  0  0  0  0  0  0  0  0  0  0  0
    3.1912    0.0177    1.3579 N   0  0  0  0  0  0  0  0  0  0  0  0
    4.4560    0.3552    1.2392 N   0  0  0  0  0  0  0  0  0  0  0  0
    4.5040    1.5898    0.7919 C   0  0  0  0  0  0  0  0  0  0  0  0
    5.7075    2.3525    0.5187 C   0  0  0  0  0  0  0  0  0  0  0  0
    6.1576    3.3455    1.3865 C   0  0  0  0  0  0  0  0  0  0  0  0
    5.5116    3.6559    2.5261 N   0  0  0  0  0  0  0  0  0  0  0  0
    5.9394    4.6122    3.3640 C   0  0  0  0  0  0  0  0  0  0  0  0
    7.0966    5.3274    3.0720 C   0  0  0  0  0  0  0  0  0  0  0  0
    7.7879    5.0297    1.9022 C   0  0  0  0  0  0  0  0  0  0  0  0
    7.3196    4.0340    1.0525 C   0  0  0  0  0  0  0  0  0  0  0  0
    8.0243    3.7506   -0.1129 C   0  0  0  0  0  0  0  0  0  0  0  0
    7.5584    2.7559   -0.9660 C   0  0  0  0  0  0  0  0  0  0  0  0
    6.3987    2.0559   -0.6502 C   0  0  0  0  0  0  0  0  0  0  0  0
    1.0000    1.0000    1.0000 N   0  0  0  0  0  0  0  0  0  0  0  0
    0.2650   -0.2731    1.0004 C   0  0  0  0  0  0  0  0  0  0  0  0
    0.2274   -0.8333   -0.4021 C   0  0  0  0  0  0  0  0  0  0  0  0
    1.1819   -1.6750   -0.9042 N   0  0  0  0  0  0  0  0  0  0  0  0
    0.9991   -2.0569   -2.1418 C   0  0  0  0  0  0  0  0  0  0  0  0
   -0.4494   -1.3278   -2.6625 S   0  0  0  0  0  0  0  0  0  0  0  0
   -0.8052   -0.4959   -1.2171 C   0  0  0  0  0  0  0  0  0  0  0  0
    1.8513   -2.9682   -3.0109 C   0  0  0  0  0  0  0  0  0  0  0  0
    2.0879   -2.3424   -4.2633 O   0  0  0  0  0  0  0  0  0  0  0  0
    2.8837   -3.1935   -5.0749 C   0  0  0  0  0  0  0  0  0  0  0  0
    3.1370   -2.5236   -6.4156 C   0  0  0  0  0  0  0  0  0  0  0  0
    3.1781   -3.2334   -2.3183 C   0  0  0  0  0  0  0  0  0  0  0  0
    0.2650    2.2731    0.9996 C   0  0  0  0  0  0  0  0  0  0  0  0
  1  2  2  0
  1  3  2  0
  1  4  1  0
  4  5  1  0
  1  6  1  0
  6  7  2  0
  7  8  1  0
  8  9  2  0
  9 10  1  0
 10 11  2  0
 11  6  1  0
  8 12  1  0
 12 13  1  0
 13 14  1  0
 14 15  2  0
 15 16  1  0
 16 17  2  0
 17 13  1  0
 17 18  1  0
 18 19  1  0
 19 20  2  0
 20 21  1  0
 21 22  2  0
 22 23  1  0
 23 24  2  0
 24 19  1  0
 24 25  1  0
 25 26  2  0
 26 27  1  0
 27 18  2  0
 14 28  1  0
 28 29  1  0
 29 30  1  0
 30 31  1  0
 31 32  2  0
 32 33  1  0
 33 34  1  0
 30 34  2  0
 32 35  1  0
 35 36  1  0
 36 37  1  0
 37 38  1  0
 35 39  1  0
 28 40  1  0
M  END
$$$$
m_273170____10755986____10760756____10766638
     RDKit          3D

 42 47  0  0  0  0  0  0  0  0999 V2000
   -4.2209   -0.0004    5.0130 S   0  0  0  0  0  0  0  0  0  0  0  0
   -5.2219   -0.9806    4.6802 O   0  0  0  0  0  0  0  0  0  0  0  0
   -3.7053   -0.2690    6.3304 O   0  0  0  0  0  0  0  0  0  0  0  0
   -2.9244   -0.0795    3.8556 C   0  0  0  0  0  0  0  0  0  0  0  0
   -1.6062    0.0318    4.2845 C   0  0  0  0  0  0  0  0  0  0  0  0
   -0.5678   -0.0311    3.3609 C   0  0  0  0  0  0  0  0  0  0  0  0
   -0.8657   -0.2048    2.0136 C   0  0  0  0  0  0  0  0  0  0  0  0
   -2.1845   -0.3156    1.5852 C   0  0  0  0  0  0  0  0  0  0  0  0
   -3.2229   -0.2534    2.5080 C   0  0  0  0  0  0  0  0  0  0  0  0
    0.2650   -0.2731    1.0004 C   0  0  0  0  0  0  0  0  0  0  0  0
    1.0000    1.0000    1.0000 N   0  0  0  0  0  0  0  0  0  0  0  0
    2.4017    1.0000    1.0000 C   0  0  0  0  0  0  0  0  0  0  0  0
    3.1912    1.9823    0.6421 N   0  0  0  0  0  0  0  0  0  0  0  0
    4.4560    1.6448    0.7608 N   0  0  0  0  0  0  0  0  0  0  0  0
    4.5040    0.4102    1.2081 C   0  0  0  0  0  0  0  0  0  0  0  0
    3.2232   -0.0176    1.3665 N   0  0  0  0  0  0  0  0  0  0  0  0
    2.8010   -1.3415    1.8481 C   0  0  0  0  0  0  0  0  0  0  0  0
    2.8982   -1.3837    3.3644 C   0  0  0  0  0  0  0  0  0  0  0  0
    2.4619   -2.7520    3.8622 C   0  0  0  0  0  0  0  0  0  0  0  0
    2.5558   -2.7928    5.3281 N   0  0  0  0  0  0  0  0  0  0  0  0
    3.6500   -3.1756    6.0462 C   0  0  0  0  0  0  0  0  0  0  0  0
    3.3716   -3.0838    7.3888 C   0  0  0  0  0  0  0  0  0  0  0  0
    4.3390   -3.4335    8.3361 C   0  0  0  0  0  0  0  0  0  0  0  0
    5.5944   -3.8702    7.9219 C   0  0  0  0  0  0  0  0  0  0  0  0
    5.8850   -3.9633    6.5660 C   0  0  0  0  0  0  0  0  0  0  0  0
    4.9062   -3.6134    5.6415 C   0  0  0  0  0  0  0  0  0  0  0  0
    2.0306   -2.6318    7.4332 C   0  0  0  0  0  0  0  0  0  0  0  0
    1.5426   -2.4554    6.1748 C   0  0  0  0  0  0  0  0  0  0  0  0
    5.7075   -0.3525    1.4813 C   0  0  0  0  0  0  0  0  0  0  0  0
    6.2850   -0.4835    2.7163 N   0  0  0  0  0  0  0  0  0  0  0  0
    7.3707   -1.2143    2.7603 C   0  0  0  0  0  0  0  0  0  0  0  0
    7.6589   -1.7387    1.1671 S   0  0  0  0  0  0  0  0  0  0  0  0
    6.3157   -0.9825    0.4430 C   0  0  0  0  0  0  0  0  0  0  0  0
    8.1530   -1.5063    3.8839 N   0  0  0  0  0  0  0  0  0  0  0  0
    9.3520   -2.3443    3.7262 C   0  0  0  0  0  0  0  0  0  0  0  0
   10.4384   -1.9313    4.7072 C   0  0  0  0  0  0  0  0  0  0  0  0
    9.9149   -1.7480    6.0164 O   0  0  0  0  0  0  0  0  0  0  0  0
    8.9960   -0.6636    6.0435 C   0  0  0  0  0  0  0  0  0  0  0  0
    7.7697   -0.9485    5.1897 C   0  0  0  0  0  0  0  0  0  0  0  0
    0.2650    2.2731    0.9996 C   0  0  0  0  0  0  0  0  0  0  0  0
   -0.3095   -0.5269   -0.3837 C   0  0  0  0  0  0  0  0  0  0  0  0
   -4.9595    1.6517    4.9795 C   0  0  0  0  0  0  0  0  0  0  0  0
  1  2  2  0
  1  3  2  0
  1  4  1  0
  4  5  2  0
  5  6  1  0
  6  7  2  0
  7  8  1  0
  8  9  2  0
  9  4  1  0
  7 10  1  0
 10 11  1  0
 11 12  1  0
 12 13  2  0
 13 14  1  0
 14 15  2  0
 15 16  1  0
 16 12  1  0
 16 17  1  0
 17 18  1  0
 18 19  1  0
 19 20  1  0
 20 21  1  0
 21 22  1  0
 22 23  2  0
 23 24  1  0
 24 25  2  0
 25 26  1  0
 26 21  2  0
 22 27  1  0
 27 28  2  0
 28 20  1  0
 15 29  1  0
 29 30  1  0
 30 31  2  0
 31 32  1  0
 32 33  1  0
 29 33  2  0
 31 34  1  0
 34 35  1  0
 35 36  1  0
 36 37  1  0
 37 38  1  0
 38 39  1  0
 39 34  1  0
 11 40  1  0
 10 41  1  0
  1 42  1  0
M  END
$$$$
m_273170____10756572____14045910____10755784
     RDKit          3D

 38 43  0  0  0  0  0  0  0  0999 V2000
    0.0575    3.7241   -3.3504 S   0  0  0  0  0  0  0  0  0  0  0  0
   -0.0265    3.3635   -4.7420 O   0  0  0  0  0  0  0  0  0  0  0  0
   -1.2698    3.8533   -2.8070 O   0  0  0  0  0  0  0  0  0  0  0  0
    0.8452    5.1436   -3.2036 N   0  0  0  0  0  0  0  0  0  0  0  0
    0.9310    5.5117   -1.7830 C   0  0  0  0  0  0  0  0  0  0  0  0
    0.9221    2.4884   -2.4821 C   0  0  0  0  0  0  0  0  0  0  0  0
    0.6259    2.2502   -1.1438 C   0  0  0  0  0  0  0  0  0  0  0  0
    1.3249    1.2596   -0.4622 C   0  0  0  0  0  0  0  0  0  0  0  0
    2.3081    0.5104   -1.0999 C   0  0  0  0  0  0  0  0  0  0  0  0
    2.5887    0.7645   -2.4385 C   0  0  0  0  0  0  0  0  0  0  0  0
    1.9018    1.7510   -3.1386 C   0  0  0  0  0  0  0  0  0  0  0  0
    1.0000    1.0000    1.0000 C   0  0  0  0  0  0  0  0  0  0  0  0
    1.8491    1.8491    1.8491 N   0  0  0  0  0  0  0  0  0  0  0  0
    1.5940    3.1350    2.2043 C   0  0  0  0  0  0  0  0  0  0  0  0
    2.6007    3.5013    2.9585 N   0  0  0  0  0  0  0  0  0  0  0  0
    3.4710    2.5263    3.0984 N   0  0  0  0  0  0  0  0  0  0  0  0
    3.0294    1.4906    2.4210 C   0  0  0  0  0  0  0  0  0  0  0  0
    3.6858    0.2018    2.3076 C   0  0  0  0  0  0  0  0  0  0  0  0
    4.5441   -0.0743    1.3117 N   0  0  0  0  0  0  0  0  0  0  0  0
    5.1569   -1.2644    1.1984 C   0  0  0  0  0  0  0  0  0  0  0  0
    4.9105   -2.2654    2.1344 C   0  0  0  0  0  0  0  0  0  0  0  0
    4.0258   -2.0061    3.1761 C   0  0  0  0  0  0  0  0  0  0  0  0
    3.4048   -0.7642    3.2687 C   0  0  0  0  0  0  0  0  0  0  0  0
    5.5292   -3.5079    2.0451 C   0  0  0  0  0  0  0  0  0  0  0  0
    6.4103   -3.7477    0.9960 C   0  0  0  0  0  0  0  0  0  0  0  0
    6.6739   -2.7648    0.0479 C   0  0  0  0  0  0  0  0  0  0  0  0
    6.0428   -1.5300    0.1588 C   0  0  0  0  0  0  0  0  0  0  0  0
    0.4865    3.9120    1.8379 N   0  0  0  0  0  0  0  0  0  0  0  0
   -0.1096    4.7663    2.7733 C   0  0  0  0  0  0  0  0  0  0  0  0
   -0.3296    4.4808    4.1377 C   0  0  0  0  0  0  0  0  0  0  0  0
   -0.9067    5.5435    4.6459 N   0  0  0  0  0  0  0  0  0  0  0  0
   -1.0674    6.4673    3.7245 N   0  0  0  0  0  0  0  0  0  0  0  0
   -0.5812    6.0203    2.5347 C   0  0  0  0  0  0  0  0  0  0  0  0
   -1.6800    7.7866    3.9375 C   0  0  0  0  0  0  0  0  0  0  0  0
   -1.2372    8.7348    2.8348 C   0  0  0  0  0  0  0  0  0  0  0  0
   -1.8260   10.1266    2.9777 C   0  0  0  0  0  0  0  0  0  0  0  0
   -0.4893   10.6520    2.4873 C   0  0  0  0  0  0  0  0  0  0  0  0
    0.0972    9.4023    3.0916 C   0  0  0  0  0  0  0  0  0  0  0  0
  1  2  2  0
  1  3  2  0
  1  4  1  0
  4  5  1  0
  1  6  1  0
  6  7  2  0
  7  8  1  0
  8  9  2  0
  9 10  1  0
 10 11  2  0
 11  6  1  0
  8 12  1  0
 12 13  1  0
 13 14  1  0
 14 15  2  0
 15 16  1  0
 16 17  2  0
 17 13  1  0
 17 18  1  0
 18 19  2  0
 19 20  1  0
 20 21  2  0
 21 22  1  0
 22 23  2  0
 23 18  1  0
 21 24  1  0
 24 25  2  0
 25 26  1  0
 26 27  2  0
 27 20  1  0
 14 28  1  0
 28 29  1  0
 29 30  1  0
 30 31  2  0
 31 32  1  0
 32 33  1  0
 29 33  2  0
 32 34  1  0
 34 35  1  0
 35 36  1  0
 36 37  1  0
 37 38  1  0
 38 35  1  0
M  END
$$$$
s_2____152259____15775474____236124
     RDKit          3D

 39 44  0  0  0  0  0  0  0  0999 V2000
   -0.2810    3.3352    3.7573 S   0  0  0  0  0  0  0  0  0  0  0  0
   -1.5443    3.9470    3.4359 O   0  0  0  0  0  0  0  0  0  0  0  0
   -0.4718    1.9241    3.9717 O   0  0  0  0  0  0  0  0  0  0  0  0
    0.7615    3.5615    2.5249 N   0  0  0  0  0  0  0  0  0  0  0  0
    1.9850    2.8822    2.5096 C   0  0  0  0  0  0  0  0  0  0  0  0
    3.1774    3.5986    2.4996 C   0  0  0  0  0  0  0  0  0  0  0  0
    4.3889    2.9151    2.4847 C   0  0  0  0  0  0  0  0  0  0  0  0
    4.3934    1.5238    2.4792 C   0  0  0  0  0  0  0  0  0  0  0  0
    3.2017    0.8073    2.4891 C   0  0  0  0  0  0  0  0  0  0  0  0
    1.9902    1.4907    2.5042 C   0  0  0  0  0  0  0  0  0  0  0  0
    5.6599    0.8215    2.4637 C   0  0  0  0  0  0  0  0  0  0  0  0
    6.3185    0.4543    1.3242 N   0  0  0  0  0  0  0  0  0  0  0  0
    7.4899   -0.2015    1.5397 C   0  0  0  0  0  0  0  0  0  0  0  0
    7.6735   -0.2993    3.2302 S   0  0  0  0  0  0  0  0  0  0  0  0
    6.2321    0.5062    3.6584 C   0  0  0  0  0  0  0  0  0  0  0  0
    8.2890   -0.6541    0.6585 N   0  0  0  0  0  0  0  0  0  0  0  0
    9.4056   -1.4113    1.0462 C   0  0  0  0  0  0  0  0  0  0  0  0
   10.6364   -0.8204    1.3261 C   0  0  0  0  0  0  0  0  0  0  0  0
   11.7501   -1.5651    1.7035 C   0  0  0  0  0  0  0  0  0  0  0  0
   12.9460   -0.9887    1.9515 O   0  0  0  0  0  0  0  0  0  0  0  0
   13.9893   -1.6539    2.6411 C   0  0  0  0  0  0  0  0  0  0  0  0
   14.0293   -3.0827    2.1294 C   0  0  0  0  0  0  0  0  0  0  0  0
   12.7257   -3.6375    2.2300 O   0  0  0  0  0  0  0  0  0  0  0  0
   11.6399   -2.9437    1.8240 C   0  0  0  0  0  0  0  0  0  0  0  0
   10.4095   -3.5390    1.5406 C   0  0  0  0  0  0  0  0  0  0  0  0
    9.2991   -2.7959    1.1550 C   0  0  0  0  0  0  0  0  0  0  0  0
    5.8378    0.7156   -0.0400 C   0  0  0  0  0  0  0  0  0  0  0  0
    6.6040    1.8874   -0.6314 C   0  0  0  0  0  0  0  0  0  0  0  0
    6.1517    3.1944   -0.4807 C   0  0  0  0  0  0  0  0  0  0  0  0
    6.8471    4.2105   -1.0131 N   0  0  0  0  0  0  0  0  0  0  0  0
    7.9858    4.0173   -1.6993 C   0  0  0  0  0  0  0  0  0  0  0  0
    8.6995    5.0811   -2.2464 C   0  0  0  0  0  0  0  0  0  0  0  0
    8.2818    6.3377   -2.1124 F   0  0  0  0  0  0  0  0  0  0  0  0
    9.8766    4.8581   -2.9530 C   0  0  0  0  0  0  0  0  0  0  0  0
   10.3522    3.5616   -3.1197 C   0  0  0  0  0  0  0  0  0  0  0  0
    9.6512    2.4891   -2.5791 C   0  0  0  0  0  0  0  0  0  0  0  0
    8.4759    2.7264   -1.8741 C   0  0  0  0  0  0  0  0  0  0  0  0
    7.7795    1.6497   -1.3358 C   0  0  0  0  0  0  0  0  0  0  0  0
    0.3891    4.0886    5.2605 C   0  0  0  0  0  0  0  0  0  0  0  0
  1  2  2  0
  1  3  2  0
  1  4  1  0
  4  5  1  0
  5  6  2  0
  6  7  1  0
  7  8  2  0
  8  9  1  0
  9 10  2  0
 10  5  1  0
  8 11  1  0
 11 12  1  0
 12 13  1  0
 13 14  1  0
 14 15  1  0
 11 15  2  0
 13 16  2  0
 16 17  1  0
 17 18  2  0
 18 19  1  0
 19 20  1  0
 20 21  1  0
 21 22  1  0
 22 23  1  0
 23 24  1  0
 24 19  2  0
 24 25  1  0
 25 26  2  0
 26 17  1  0
 12 27  1  0
 27 28  1  0
 28 29  2  0
 29 30  1  0
 30 31  2  0
 31 32  1  0
 32 33  1  0
 32 34  2  0
 34 35  1  0
 35 36  2  0
 36 37  1  0
 37 31  1  0
 37 38  2  0
 38 28  1  0
  1 39  1  0
M  END
$$$$
s_46____548782____15738290____12634624
     RDKit          3D

 35 39  0  0  0  0  0  0  0  0999 V2000
    5.5201   -0.4769   -2.6218 Br  0  0  0  0  0  0  0  0  0  0  0  0
    4.3843   -1.1697   -1.1817 C   0  0  0  0  0  0  0  0  0  0  0  0
    3.5698   -2.2858   -1.3562 C   0  0  0  0  0  0  0  0  0  0  0  0
    2.7798   -2.7428   -0.3057 C   0  0  0  0  0  0  0  0  0  0  0  0
    2.7983   -2.0908    0.9227 C   0  0  0  0  0  0  0  0  0  0  0  0
    3.6170   -0.9780    1.0824 C   0  0  0  0  0  0  0  0  0  0  0  0
    4.4123   -0.5088    0.0419 C   0  0  0  0  0  0  0  0  0  0  0  0
    3.6456   -0.2893    2.3577 C   0  0  0  0  0  0  0  0  0  0  0  0
    3.2995    0.9851    2.4289 C   0  0  0  0  0  0  0  0  0  0  0  0
    4.3765    2.3441    2.4956 S   0  0  0  0  0  0  0  0  0  0  0  0
    3.1474    3.5639    2.5524 C   0  0  0  0  0  0  0  0  0  0  0  0
    1.9137    2.9173    2.5293 N   0  0  0  0  0  0  0  0  0  0  0  0
    1.9586    1.5243    2.4686 C   0  0  0  0  0  0  0  0  0  0  0  0
    0.9613    0.8205    2.4494 O   0  0  0  0  0  0  0  0  0  0  0  0
    0.6577    3.6785    2.5692 C   0  0  0  0  0  0  0  0  0  0  0  0
    0.3459    4.2148    1.1812 C   0  0  0  0  0  0  0  0  0  0  0  0
    0.8597    3.5626    0.0653 C   0  0  0  0  0  0  0  0  0  0  0  0
    0.5715    4.0585   -1.2020 C   0  0  0  0  0  0  0  0  0  0  0  0
    1.0842    3.4089   -2.3315 N   0  0  0  0  0  0  0  0  0  0  0  0
    0.6862    2.2942   -2.6273 O   0  0  0  0  0  0  0  0  0  0  0  0
    1.9219    3.9531   -3.0143 O   0  0  0  0  0  0  0  0  0  0  0  0
   -0.2204    5.1921   -1.3514 C   0  0  0  0  0  0  0  0  0  0  0  0
   -0.7301    5.8377   -0.2287 C   0  0  0  0  0  0  0  0  0  0  0  0
   -0.4472    5.3492    1.0429 C   0  0  0  0  0  0  0  0  0  0  0  0
   -0.5432    5.7441   -2.7306 C   0  0  0  0  0  0  0  0  0  0  0  0
    3.3477    4.8665    2.6124 C   0  0  0  0  0  0  0  0  0  0  0  0
    4.7642    5.4172    2.6371 C   0  0  0  0  0  0  0  0  0  0  0  0
    5.2574    5.8497    1.6323 O   0  0  0  0  0  0  0  0  0  0  0  0
    5.5563    5.4200    3.9352 C   0  0  0  0  0  0  0  0  0  0  0  0
    5.9462    6.8163    4.3238 C   0  0  0  0  0  0  0  0  0  0  0  0
    6.9711    5.8850    3.7427 C   0  0  0  0  0  0  0  0  0  0  0  0
    1.9584   -3.8556   -0.4570 C   0  0  0  0  0  0  0  0  0  0  0  0
    1.9303   -4.5171   -1.6804 C   0  0  0  0  0  0  0  0  0  0  0  0
    2.7101   -4.0816   -2.7468 C   0  0  0  0  0  0  0  0  0  0  0  0
    3.5224   -2.9674   -2.5695 C   0  0  0  0  0  0  0  0  0  0  0  0
  1  2  1  0
  2  3  2  0
  3  4  1  0
  4  5  2  0
  5  6  1  0
  6  7  2  0
  7  2  1  0
  6  8  1  0
  8  9  2  0
  9 10  1  0
 10 11  1  0
 11 12  1  0
 12 13  1  0
 13  9  1  0
 13 14  2  0
 12 15  1  0
 15 16  1  0
 16 17  2  0
 17 18  1  0
 18 19  1  0
 19 20  1  0
 19 21  2  0
 18 22  2  0
 22 23  1  0
 23 24  2  0
 24 16  1  0
 22 25  1  0
 11 26  2  0
 26 27  1  0
 27 28  2  0
 27 29  1  0
 29 30  1  0
 30 31  1  0
 31 29  1  0
  4 32  1  0
 32 33  2  0
 33 34  1  0
 34 35  2  0
 35  3  1  0
M  CHG  2  19   1  20  -1
M  END
$$$$
m_273170____10756572____10762478____10766516
     RDKit          3D

 42 46  0  0  0  0  0  0  0  0999 V2000
    5.1287   -4.0999    5.4569 S   0  0  0  0  0  0  0  0  0  0  0  0
    6.4634   -3.8414    4.9821 O   0  0  0  0  0  0  0  0  0  0  0  0
    5.1307   -4.1403    6.8963 O   0  0  0  0  0  0  0  0  0  0  0  0
    4.6125   -5.5319    4.8739 N   0  0  0  0  0  0  0  0  0  0  0  0
    4.6105   -5.4908    3.4045 C   0  0  0  0  0  0  0  0  0  0  0  0
    4.0645   -2.8348    4.9134 C   0  0  0  0  0  0  0  0  0  0  0  0
    3.8683   -2.6366    3.5504 C   0  0  0  0  0  0  0  0  0  0  0  0
    3.0151   -1.6217    3.1304 C   0  0  0  0  0  0  0  0  0  0  0  0
    2.3610   -0.8102    4.0514 C   0  0  0  0  0  0  0  0  0  0  0  0
    2.5711   -1.0252    5.4096 C   0  0  0  0  0  0  0  0  0  0  0  0
    3.4206   -2.0343    5.8512 C   0  0  0  0  0  0  0  0  0  0  0  0
    2.8010   -1.4065    1.6408 C   0  0  0  0  0  0  0  0  0  0  0  0
    3.2232   -0.0457    1.2764 N   0  0  0  0  0  0  0  0  0  0  0  0
    2.4017    1.0000    1.0000 C   0  0  0  0  0  0  0  0  0  0  0  0
    3.1912    2.0097    0.7291 N   0  0  0  0  0  0  0  0  0  0  0  0
    4.4560    1.6632    0.8179 N   0  0  0  0  0  0  0  0  0  0  0  0
    4.5040    0.3943    1.1559 C   0  0  0  0  0  0  0  0  0  0  0  0
    5.7081   -0.3897    1.3617 C   0  0  0  0  0  0  0  0  0  0  0  0
    6.2169   -1.2561    0.3948 C   0  0  0  0  0  0  0  0  0  0  0  0
    7.3788   -1.9709    0.6744 C   0  0  0  0  0  0  0  0  0  0  0  0
    7.9900   -1.8202    1.8588 N   0  0  0  0  0  0  0  0  0  0  0  0
    7.5150   -0.9903    2.8007 C   0  0  0  0  0  0  0  0  0  0  0  0
    6.3597   -0.2492    2.5812 C   0  0  0  0  0  0  0  0  0  0  0  0
    8.2119   -0.8241    4.1405 C   0  0  0  0  0  0  0  0  0  0  0  0
    7.8935   -2.8367   -0.2857 C   0  0  0  0  0  0  0  0  0  0  0  0
    7.2681   -3.0011   -1.5169 C   0  0  0  0  0  0  0  0  0  0  0  0
    6.1071   -2.2938   -1.8070 C   0  0  0  0  0  0  0  0  0  0  0  0
    5.5993   -1.4302   -0.8429 C   0  0  0  0  0  0  0  0  0  0  0  0
    1.0000    1.0000    1.0000 N   0  0  0  0  0  0  0  0  0  0  0  0
    0.2650   -0.2731    1.0004 C   0  0  0  0  0  0  0  0  0  0  0  0
   -1.2203   -0.0012    0.8131 C   0  0  0  0  0  0  0  0  0  0  0  0
   -2.1667    0.2231    1.8387 C   0  0  0  0  0  0  0  0  0  0  0  0
   -3.3093    0.4137    1.2382 N   0  0  0  0  0  0  0  0  0  0  0  0
   -3.1832    0.3288   -0.0650 N   0  0  0  0  0  0  0  0  0  0  0  0
   -1.8849    0.0682   -0.3691 C   0  0  0  0  0  0  0  0  0  0  0  0
   -1.2944   -0.1094   -1.7600 C   0  0  0  0  0  0  0  0  0  0  0  0
   -4.2640    0.4889   -1.0472 C   0  0  0  0  0  0  0  0  0  0  0  0
   -4.3696    1.9505   -1.4507 C   0  0  0  0  0  0  0  0  0  0  0  0
   -5.4142    2.1052   -2.4001 O   0  0  0  0  0  0  0  0  0  0  0  0
   -4.8905    1.9455   -3.7103 C   0  0  0  0  0  0  0  0  0  0  0  0
   -1.9097    0.2429    3.3362 C   0  0  0  0  0  0  0  0  0  0  0  0
    0.2650    2.2731    0.9996 C   0  0  0  0  0  0  0  0  0  0  0  0
  1  2  2  0
  1  3  2  0
  1  4  1  0
  4  5  1  0
  1  6  1  0
  6  7  2  0
  7  8  1  0
  8  9  2  0
  9 10  1  0
 10 11  2  0
 11  6  1  0
  8 12  1  0
 12 13  1  0
 13 14  1  0
 14 15  2  0
 15 16  1  0
 16 17  2  0
 17 13  1  0
 17 18  1  0
 18 19  2  0
 19 20  1  0
 20 21  2  0
 21 22  1  0
 22 23  2  0
 23 18  1  0
 22 24  1  0
 20 25  1  0
 25 26  2  0
 26 27  1  0
 27 28  2  0
 28 19  1  0
 14 29  1  0
 29 30  1  0
 30 31  1  0
 31 32  1  0
 32 33  2  0
 33 34  1  0
 34 35  1  0
 31 35  2  0
 35 36  1  0
 34 37  1  0
 37 38  1  0
 38 39  1  0
 39 40  1  0
 32 41  1  0
 29 42  1  0
M  END
$$$$
m_273170____10756572____10765424____10755784
     RDKit          3D

 41 47  0  0  0  0  0  0  0  0999 V2000
    0.4648    3.7275    2.5286 S   0  0  0  0  0  0  0  0  0  0  0  0
   -0.5215    2.9336    3.2145 O   0  0  0  0  0  0  0  0  0  0  0  0
    0.6266    4.9857    3.2099 O   0  0  0  0  0  0  0  0  0  0  0  0
   -0.0243    3.9976    0.9974 N   0  0  0  0  0  0  0  0  0  0  0  0
   -0.1894    2.7131    0.3019 C   0  0  0  0  0  0  0  0  0  0  0  0
    1.9834    2.8778    2.5111 C   0  0  0  0  0  0  0  0  0  0  0  0
    3.1753    3.5954    2.5018 C   0  0  0  0  0  0  0  0  0  0  0  0
    4.3816    2.9033    2.4878 C   0  0  0  0  0  0  0  0  0  0  0  0
    4.4082    1.5127    2.4838 C   0  0  0  0  0  0  0  0  0  0  0  0
    3.2052    0.8142    2.4933 C   0  0  0  0  0  0  0  0  0  0  0  0
    1.9876    1.4868    2.5069 C   0  0  0  0  0  0  0  0  0  0  0  0
    5.6831    3.6886    2.4782 C   0  0  0  0  0  0  0  0  0  0  0  0
    5.6323    4.7088    1.4202 N   0  0  0  0  0  0  0  0  0  0  0  0
    5.6610    4.4763    0.0823 C   0  0  0  0  0  0  0  0  0  0  0  0
    5.5943    5.6557   -0.4844 N   0  0  0  0  0  0  0  0  0  0  0  0
    5.5258    6.6130    0.4137 N   0  0  0  0  0  0  0  0  0  0  0  0
    5.5475    6.0535    1.6024 C   0  0  0  0  0  0  0  0  0  0  0  0
    5.4910    6.7490    2.8744 C   0  0  0  0  0  0  0  0  0  0  0  0
    4.3299    6.9725    3.5121 N   0  0  0  0  0  0  0  0  0  0  0  0
    4.2674    7.6153    4.6901 C   0  0  0  0  0  0  0  0  0  0  0  0
    5.4344    8.0768    5.2932 C   0  0  0  0  0  0  0  0  0  0  0  0
    6.6507    7.8588    4.6543 C   0  0  0  0  0  0  0  0  0  0  0  0
    6.6858    7.1902    3.4344 C   0  0  0  0  0  0  0  0  0  0  0  0
    5.4033    8.7455    6.5125 C   0  0  0  0  0  0  0  0  0  0  0  0
    4.1772    8.9539    7.1352 C   0  0  0  0  0  0  0  0  0  0  0  0
    2.9969    8.5028    6.5540 C   0  0  0  0  0  0  0  0  0  0  0  0
    3.0540    7.8365    5.3341 C   0  0  0  0  0  0  0  0  0  0  0  0
    5.7477    3.2374   -0.5588 N   0  0  0  0  0  0  0  0  0  0  0  0
    4.6932    2.5379   -1.1441 C   0  0  0  0  0  0  0  0  0  0  0  0
    5.2220    1.6697   -2.0710 C   0  0  0  0  0  0  0  0  0  0  0  0
    4.4055    0.8163   -2.8081 C   0  0  0  0  0  0  0  0  0  0  0  0
    3.0283    0.8415   -2.6147 C   0  0  0  0  0  0  0  0  0  0  0  0
    2.4773    1.7157   -1.6831 C   0  0  0  0  0  0  0  0  0  0  0  0
    3.3140    2.5549   -0.9557 C   0  0  0  0  0  0  0  0  0  0  0  0
    6.7301    1.7843   -2.0961 C   0  0  0  0  0  0  0  0  0  0  0  0
    6.9689    2.4627   -0.7658 C   0  0  0  0  0  0  0  0  0  0  0  0
    7.1532    2.3327   -3.4515 C   0  0  0  0  0  0  0  0  0  0  0  0
    8.6653    2.4528   -3.5592 C   0  0  0  0  0  0  0  0  0  0  0  0
    9.2921    1.1989   -3.3195 O   0  0  0  0  0  0  0  0  0  0  0  0
    8.9502    0.6154   -2.0698 C   0  0  0  0  0  0  0  0  0  0  0  0
    7.4418    0.4434   -1.9982 C   0  0  0  0  0  0  0  0  0  0  0  0
  1  2  2  0
  1  3  2  0
  1  4  1  0
  4  5  1  0
  1  6  1  0
  6  7  2  0
  7  8  1  0
  8  9  2  0
  9 10  1  0
 10 11  2  0
 11  6  1  0
  8 12  1  0
 12 13  1  0
 13 14  1  0
 14 15  2  0
 15 16  1  0
 16 17  2  0
 17 13  1  0
 17 18  1  0
 18 19  2  0
 19 20  1  0
 20 21  2  0
 21 22  1  0
 22 23  2  0
 23 18  1  0
 21 24  1  0
 24 25  2  0
 25 26  1  0
 26 27  2  0
 27 20  1  0
 14 28  1  0
 28 29  1  0
 29 30  1  0
 30 31  2  0
 31 32  1  0
 32 33  2  0
 33 34  1  0
 34 29  2  0
 30 35  1  0
 35 36  1  0
 36 28  1  0
 35 37  1  0
 37 38  1  0
 38 39  1  0
 39 40  1  0
 40 41  1  0
 41 35  1  0
M  END
$$$$
m_273170____10759452____10766420____10755784
     RDKit          3D

 43 48  0  0  0  0  0  0  0  0999 V2000
    2.0839    2.8361    5.2845 S   0  0  0  0  0  0  0  0  0  0  0  0
    0.9939    2.6459    3.9903 C   0  0  0  0  0  0  0  0  0  0  0  0
   -0.1510    2.1197    4.5017 C   0  0  0  0  0  0  0  0  0  0  0  0
   -0.1041    1.8858    5.8992 C   0  0  0  0  0  0  0  0  0  0  0  0
    1.0651    2.2288    6.5069 C   0  0  0  0  0  0  0  0  0  0  0  0
    1.4023    2.0936    7.9834 C   0  0  0  0  0  0  0  0  0  0  0  0
    1.2690    3.0081    2.5421 C   0  0  0  0  0  0  0  0  0  0  0  0
    1.8487    1.8487    1.8487 N   0  0  0  0  0  0  0  0  0  0  0  0
    3.2107    1.5525    1.9968 C   0  0  0  0  0  0  0  0  0  0  0  0
    4.1572    2.3669    2.3932 N   0  0  0  0  0  0  0  0  0  0  0  0
    5.3255    1.7649    2.4160 N   0  0  0  0  0  0  0  0  0  0  0  0
    5.1472    0.5230    2.0256 C   0  0  0  0  0  0  0  0  0  0  0  0
    3.8240    0.3648    1.7560 N   0  0  0  0  0  0  0  0  0  0  0  0
    3.1722   -0.8680    1.2889 C   0  0  0  0  0  0  0  0  0  0  0  0
    2.3991   -1.4986    2.4364 C   0  0  0  0  0  0  0  0  0  0  0  0
    1.0247   -1.7008    2.3646 C   0  0  0  0  0  0  0  0  0  0  0  0
    0.3559   -2.2583    3.3851 N   0  0  0  0  0  0  0  0  0  0  0  0
    0.9820   -2.6406    4.5081 C   0  0  0  0  0  0  0  0  0  0  0  0
    0.2853   -3.2229    5.5741 N   0  0  0  0  0  0  0  0  0  0  0  0
   -0.1093   -4.6396    5.5869 C   0  0  0  0  0  0  0  0  0  0  0  0
   -0.1865   -5.1301    7.0241 C   0  0  0  0  0  0  0  0  0  0  0  0
   -1.1626   -4.4240    7.7865 O   0  0  0  0  0  0  0  0  0  0  0  0
   -1.3683   -3.0821    7.3587 C   0  0  0  0  0  0  0  0  0  0  0  0
   -0.1089   -2.4649    6.7697 C   0  0  0  0  0  0  0  0  0  0  0  0
    2.3550   -2.4622    4.6337 C   0  0  0  0  0  0  0  0  0  0  0  0
    3.0006   -2.8320    5.7357 F   0  0  0  0  0  0  0  0  0  0  0  0
    3.0718   -1.8866    3.5902 C   0  0  0  0  0  0  0  0  0  0  0  0
    6.1784   -0.4906    1.9061 C   0  0  0  0  0  0  0  0  0  0  0  0
    6.2888   -1.5003    2.7852 N   0  0  0  0  0  0  0  0  0  0  0  0
    7.2400   -2.4436    2.6828 C   0  0  0  0  0  0  0  0  0  0  0  0
    8.1571   -2.3955    1.6363 C   0  0  0  0  0  0  0  0  0  0  0  0
    8.0655   -1.3603    0.7116 C   0  0  0  0  0  0  0  0  0  0  0  0
    7.0703   -0.3966    0.8423 C   0  0  0  0  0  0  0  0  0  0  0  0
    9.1533   -3.3569    1.5023 C   0  0  0  0  0  0  0  0  0  0  0  0
    9.2283   -4.3838    2.4374 C   0  0  0  0  0  0  0  0  0  0  0  0
    8.3244   -4.4548    3.4920 C   0  0  0  0  0  0  0  0  0  0  0  0
    7.3368   -3.4815    3.6045 C   0  0  0  0  0  0  0  0  0  0  0  0
    1.0000    1.0000    1.0000 C   0  0  0  0  0  0  0  0  0  0  0  0
    0.7075    1.7208   -0.3059 C   0  0  0  0  0  0  0  0  0  0  0  0
   -0.1412    0.8721   -1.1546 N   0  0  0  0  0  0  0  0  0  0  0  0
   -0.5367    1.3156   -2.3890 C   0  0  0  0  0  0  0  0  0  0  0  0
   -0.1903    2.3968   -2.7774 O   0  0  0  0  0  0  0  0  0  0  0  0
   -1.4143    0.4380   -3.2666 C   0  0  0  0  0  0  0  0  0  0  0  0
  1  2  1  0
  2  3  2  0
  3  4  1  0
  4  5  2  0
  5  1  1  0
  5  6  1  0
  2  7  1  0
  7  8  1  0
  8  9  1  0
  9 10  2  0
 10 11  1  0
 11 12  2  0
 12 13  1  0
 13  9  1  0
 13 14  1  0
 14 15  1  0
 15 16  2  0
 16 17  1  0
 17 18  2  0
 18 19  1  0
 19 20  1  0
 20 21  1  0
 21 22  1  0
 22 23  1  0
 23 24  1  0
 24 19  1  0
 18 25  1  0
 25 26  1  0
 25 27  2  0
 27 15  1  0
 12 28  1  0
 28 29  2  0
 29 30  1  0
 30 31  2  0
 31 32  1  0
 32 33  2  0
 33 28  1  0
 31 34  1  0
 34 35  2  0
 35 36  1  0
 36 37  2  0
 37 30  1  0
  8 38  1  0
 38 39  1  0
 39 40  1  0
 40 41  1  0
 41 42  2  0
 41 43  1  0
M  END
$$$$
m_273170____10757336____10763944____10766638
     RDKit          3D

 40 45  0  0  0  0  0  0  0  0999 V2000
    6.5283    2.9656    7.1408 S   0  0  0  0  0  0  0  0  0  0  0  0
    6.9318    3.4115    5.5486 C   0  0  0  0  0  0  0  0  0  0  0  0
    6.7239    2.3530    4.8063 N   0  0  0  0  0  0  0  0  0  0  0  0
    6.2610    1.2463    5.4671 C   0  0  0  0  0  0  0  0  0  0  0  0
    5.9674   -0.0199    4.8436 C   0  0  0  0  0  0  0  0  0  0  0  0
    5.8822   -1.1807    5.4535 N   0  0  0  0  0  0  0  0  0  0  0  0
    5.6002   -2.0920    4.5493 N   0  0  0  0  0  0  0  0  0  0  0  0
    5.4966   -1.5614    3.3559 C   0  0  0  0  0  0  0  0  0  0  0  0
    5.7285   -0.2335    3.5223 N   0  0  0  0  0  0  0  0  0  0  0  0
    5.7226    0.7865    2.4629 C   0  0  0  0  0  0  0  0  0  0  0  0
    4.3954    1.5271    2.4800 C   0  0  0  0  0  0  0  0  0  0  0  0
    4.3927    2.9183    2.4838 C   0  0  0  0  0  0  0  0  0  0  0  0
    3.1767    3.5941    2.4993 C   0  0  0  0  0  0  0  0  0  0  0  0
    1.9840    2.8787    2.5100 C   0  0  0  0  0  0  0  0  0  0  0  0
    0.7615    3.5615    2.5249 N   0  0  0  0  0  0  0  0  0  0  0  0
   -0.5009    2.8084    2.5362 C   0  0  0  0  0  0  0  0  0  0  0  0
   -0.9208    2.5449    3.9731 C   0  0  0  0  0  0  0  0  0  0  0  0
   -2.1403    1.8174    3.9840 O   0  0  0  0  0  0  0  0  0  0  0  0
   -2.5325    1.5712    5.3263 C   0  0  0  0  0  0  0  0  0  0  0  0
    1.9898    1.4877    2.5058 C   0  0  0  0  0  0  0  0  0  0  0  0
    3.2040    0.8092    2.4905 C   0  0  0  0  0  0  0  0  0  0  0  0
    5.2032   -2.2273    2.1580 N   0  0  0  0  0  0  0  0  0  0  0  0
    5.5450   -1.6072    0.8697 C   0  0  0  0  0  0  0  0  0  0  0  0
    6.8959   -2.1222    0.4022 C   0  0  0  0  0  0  0  0  0  0  0  0
    7.0869   -3.0628   -0.4888 O   0  0  0  0  0  0  0  0  0  0  0  0
    8.3751   -3.2805   -0.6672 C   0  0  0  0  0  0  0  0  0  0  0  0
    9.0892   -2.4364    0.1423 C   0  0  0  0  0  0  0  0  0  0  0  0
   10.4833   -2.4664    0.1151 C   0  0  0  0  0  0  0  0  0  0  0  0
   11.1689   -3.3472   -0.7165 C   0  0  0  0  0  0  0  0  0  0  0  0
   10.4411   -4.2065   -1.5325 C   0  0  0  0  0  0  0  0  0  0  0  0
    9.0514   -4.1652   -1.5014 C   0  0  0  0  0  0  0  0  0  0  0  0
    8.1131   -1.6846    0.8365 C   0  0  0  0  0  0  0  0  0  0  0  0
    4.5538   -3.5456    2.1899 C   0  0  0  0  0  0  0  0  0  0  0  0
    6.0723    1.3589    6.8075 C   0  0  0  0  0  0  0  0  0  0  0  0
    7.4003    4.6613    5.1319 N   0  0  0  0  0  0  0  0  0  0  0  0
    7.0486    5.1491    3.7891 C   0  0  0  0  0  0  0  0  0  0  0  0
    6.9054    6.6632    3.7794 C   0  0  0  0  0  0  0  0  0  0  0  0
    7.9831    7.2921    4.4613 O   0  0  0  0  0  0  0  0  0  0  0  0
    7.9707    6.9538    5.8420 C   0  0  0  0  0  0  0  0  0  0  0  0
    8.2131    5.4674    6.0555 C   0  0  0  0  0  0  0  0  0  0  0  0
  1  2  1  0
  2  3  2  0
  3  4  1  0
  4  5  1  0
  5  6  2  0
  6  7  1  0
  7  8  2  0
  8  9  1  0
  9  5  1  0
  9 10  1  0
 10 11  1  0
 11 12  2  0
 12 13  1  0
 13 14  2  0
 14 15  1  0
 15 16  1  0
 16 17  1  0
 17 18  1  0
 18 19  1  0
 14 20  1  0
 20 21  2  0
 21 11  1  0
  8 22  1  0
 22 23  1  0
 23 24  1  0
 24 25  1  0
 25 26  1  0
 26 27  2  0
 27 28  1  0
 28 29  2  0
 29 30  1  0
 30 31  2  0
 31 26  1  0
 27 32  1  0
 24 32  2  0
 22 33  1  0
  4 34  2  0
 34  1  1  0
  2 35  1  0
 35 36  1  0
 36 37  1  0
 37 38  1  0
 38 39  1  0
 39 40  1  0
 40 35  1  0
M  END
$$$$
m_273170____10756154____10760394____10766692
     RDKit          3D

 43 48  0  0  0  0  0  0  0  0999 V2000
    3.9585    0.2458    1.1826 S   0  0  0  0  0  0  0  0  0  0  0  0
    5.2980    0.0463    1.6720 O   0  0  0  0  0  0  0  0  0  0  0  0
    3.1778   -0.9400    1.4236 O   0  0  0  0  0  0  0  0  0  0  0  0
    4.0045    0.5500   -0.4181 N   0  0  0  0  0  0  0  0  0  0  0  0
    4.8015    1.7604   -0.6641 C   0  0  0  0  0  0  0  0  0  0  0  0
    4.6165   -0.5899   -1.1161 C   0  0  0  0  0  0  0  0  0  0  0  0
    3.2341    1.5952    2.0089 C   0  0  0  0  0  0  0  0  0  0  0  0
    1.8777    1.8777    1.8777 C   0  0  0  0  0  0  0  0  0  0  0  0
    1.3249    2.9632    2.5494 C   0  0  0  0  0  0  0  0  0  0  0  0
    2.1281    3.7663    3.3526 C   0  0  0  0  0  0  0  0  0  0  0  0
    3.4825    3.4748    3.4770 C   0  0  0  0  0  0  0  0  0  0  0  0
    4.0457    2.3919    2.8095 C   0  0  0  0  0  0  0  0  0  0  0  0
    1.0000    1.0000    1.0000 C   0  0  0  0  0  0  0  0  0  0  0  0
   -0.3812    1.5041    1.0281 N   0  0  0  0  0  0  0  0  0  0  0  0
   -1.4425    0.8978    1.6207 C   0  0  0  0  0  0  0  0  0  0  0  0
   -2.4671    1.6852    1.4050 N   0  0  0  0  0  0  0  0  0  0  0  0
   -2.1154    2.7469    0.7144 N   0  0  0  0  0  0  0  0  0  0  0  0
   -0.8277    2.6596    0.4678 C   0  0  0  0  0  0  0  0  0  0  0  0
   -0.0324    3.6239   -0.2687 C   0  0  0  0  0  0  0  0  0  0  0  0
    0.4759    5.1495    0.2796 S   0  0  0  0  0  0  0  0  0  0  0  0
    1.3164    5.6164   -1.1230 C   0  0  0  0  0  0  0  0  0  0  0  0
    2.0115    6.8776   -1.2937 C   0  0  0  0  0  0  0  0  0  0  0  0
    2.6628    7.1382   -2.4948 C   0  0  0  0  0  0  0  0  0  0  0  0
    3.3339    8.3434   -2.6750 C   0  0  0  0  0  0  0  0  0  0  0  0
    3.3442    9.2749   -1.6425 C   0  0  0  0  0  0  0  0  0  0  0  0
    3.9820   10.4307   -1.8019 F   0  0  0  0  0  0  0  0  0  0  0  0
    2.6935    9.0143   -0.4415 C   0  0  0  0  0  0  0  0  0  0  0  0
    2.0224    7.8098   -0.2609 C   0  0  0  0  0  0  0  0  0  0  0  0
    1.2006    4.5982   -2.0242 C   0  0  0  0  0  0  0  0  0  0  0  0
    0.4507    3.4933   -1.5358 C   0  0  0  0  0  0  0  0  0  0  0  0
   -1.4441   -0.3195    2.3155 N   0  0  0  0  0  0  0  0  0  0  0  0
   -1.6923   -1.5767    1.5952 C   0  0  0  0  0  0  0  0  0  0  0  0
   -0.9547   -2.7130    2.2890 C   0  0  0  0  0  0  0  0  0  0  0  0
   -1.5868   -3.6858    3.5331 S   0  0  0  0  0  0  0  0  0  0  0  0
   -0.2173   -4.6687    3.7727 C   0  0  0  0  0  0  0  0  0  0  0  0
    0.7054   -4.2275    2.8723 C   0  0  0  0  0  0  0  0  0  0  0  0
    0.3107   -3.1444    2.0389 C   0  0  0  0  0  0  0  0  0  0  0  0
   -1.1977   -0.3390    3.7646 C   0  0  0  0  0  0  0  0  0  0  0  0
   -2.5217   -0.4560    4.5021 C   0  0  0  0  0  0  0  0  0  0  0  0
   -3.3632    0.6430    4.1937 O   0  0  0  0  0  0  0  0  0  0  0  0
   -4.3253    0.6718    5.2273 C   0  0  0  0  0  0  0  0  0  0  0  0
   -3.5246    0.4202    6.4890 C   0  0  0  0  0  0  0  0  0  0  0  0
   -2.2983   -0.3204    5.9950 C   0  0  0  0  0  0  0  0  0  0  0  0
  1  2  2  0
  1  3  2  0
  1  4  1  0
  4  5  1  0
  4  6  1  0
  1  7  1  0
  7  8  2  0
  8  9  1  0
  9 10  2  0
 10 11  1  0
 11 12  2  0
 12  7  1  0
  8 13  1  0
 13 14  1  0
 14 15  1  0
 15 16  2  0
 16 17  1  0
 17 18  2  0
 18 14  1  0
 18 19  1  0
 19 20  1  0
 20 21  1  0
 21 22  1  0
 22 23  2  0
 23 24  1  0
 24 25  2  0
 25 26  1  0
 25 27  1  0
 27 28  2  0
 28 22  1  0
 21 29  2  0
 29 30  1  0
 19 30  2  0
 15 31  1  0
 31 32  1  0
 32 33  1  0
 33 34  1  0
 34 35  1  0
 35 36  2  0
 36 37  1  0
 33 37  2  0
 31 38  1  0
 38 39  1  0
 39 40  1  0
 40 41  1  0
 41 42  1  0
 42 43  1  0
 43 39  1  0
M  END
$$$$
s_2____2677704____8992042____6673176
     RDKit          3D

 44 49  0  0  0  0  0  0  0  0999 V2000
    1.1987    3.7706    7.5169 S   0  0  0  0  0  0  0  0  0  0  0  0
    2.2350    2.4264    7.6596 C   0  0  0  0  0  0  0  0  0  0  0  0
    2.5590    1.8240    8.7329 N   0  0  0  0  0  0  0  0  0  0  0  0
    1.7643    1.9575    9.8780 C   0  0  0  0  0  0  0  0  0  0  0  0
    2.0643    2.8935   10.8629 C   0  0  0  0  0  0  0  0  0  0  0  0
    3.2203    3.7567   10.7154 C   0  0  0  0  0  0  0  0  0  0  0  0
    3.0784    5.0010   10.1099 C   0  0  0  0  0  0  0  0  0  0  0  0
    4.1901    5.8254    9.9696 C   0  0  0  0  0  0  0  0  0  0  0  0
    5.4315    5.4041   10.4343 C   0  0  0  0  0  0  0  0  0  0  0  0
    5.5613    4.1594   11.0378 C   0  0  0  0  0  0  0  0  0  0  0  0
    4.4575    3.3255   11.1835 C   0  0  0  0  0  0  0  0  0  0  0  0
    1.2546    3.0017   11.9891 C   0  0  0  0  0  0  0  0  0  0  0  0
    0.1464    2.1732   12.1311 C   0  0  0  0  0  0  0  0  0  0  0  0
   -0.1532    1.2374   11.1464 C   0  0  0  0  0  0  0  0  0  0  0  0
    0.6560    1.1298   10.0198 C   0  0  0  0  0  0  0  0  0  0  0  0
    2.6422    2.1276    6.3971 N   0  0  0  0  0  0  0  0  0  0  0  0
    2.1271    2.9443    5.4304 C   0  0  0  0  0  0  0  0  0  0  0  0
    2.4157    2.8122    4.0173 C   0  0  0  0  0  0  0  0  0  0  0  0
    1.5988    2.0031    3.2346 C   0  0  0  0  0  0  0  0  0  0  0  0
    1.8778    1.8778    1.8778 C   0  0  0  0  0  0  0  0  0  0  0  0
    2.9566    2.5528    1.3156 C   0  0  0  0  0  0  0  0  0  0  0  0
    3.2171    2.4281    0.0176 F   0  0  0  0  0  0  0  0  0  0  0  0
    3.7687    3.3605    2.1048 C   0  0  0  0  0  0  0  0  0  0  0  0
    3.4961    3.4900    3.4628 C   0  0  0  0  0  0  0  0  0  0  0  0
    1.0000    1.0000    1.0000 C   0  0  0  0  0  0  0  0  0  0  0  0
   -0.4295    1.5152    1.0367 C   0  0  0  0  0  0  0  0  0  0  0  0
   -1.2782    0.6665    0.1880 N   0  0  0  0  0  0  0  0  0  0  0  0
   -2.6151    0.9398    0.0651 C   0  0  0  0  0  0  0  0  0  0  0  0
   -3.0932    1.8720    0.6503 O   0  0  0  0  0  0  0  0  0  0  0  0
   -3.4926    0.0622   -0.8125 C   0  0  0  0  0  0  0  0  0  0  0  0
    1.2901    3.9442    5.8224 C   0  0  0  0  0  0  0  0  0  0  0  0
    3.5551    1.0040    6.1428 C   0  0  0  0  0  0  0  0  0  0  0  0
    2.7994   -0.3081    6.2956 C   0  0  0  0  0  0  0  0  0  0  0  0
    2.1686   -0.9033    5.2675 N   0  0  0  0  0  0  0  0  0  0  0  0
    1.4966   -2.0621    5.3915 C   0  0  0  0  0  0  0  0  0  0  0  0
    0.8447   -2.6710    4.3126 N   0  0  0  0  0  0  0  0  0  0  0  0
    0.1302   -3.9390    4.5279 C   0  0  0  0  0  0  0  0  0  0  0  0
   -1.0879   -4.0387    3.6226 C   0  0  0  0  0  0  0  0  0  0  0  0
   -0.7760   -3.6621    2.2875 O   0  0  0  0  0  0  0  0  0  0  0  0
   -0.4112   -2.2895    2.2241 C   0  0  0  0  0  0  0  0  0  0  0  0
    0.8704   -2.0155    2.9962 C   0  0  0  0  0  0  0  0  0  0  0  0
    1.4386   -2.6916    6.6307 C   0  0  0  0  0  0  0  0  0  0  0  0
    2.0802   -2.1032    7.7162 C   0  0  0  0  0  0  0  0  0  0  0  0
    2.7659   -0.9039    7.5524 C   0  0  0  0  0  0  0  0  0  0  0  0
  1  2  1  0
  2  3  2  0
  3  4  1  0
  4  5  1  0
  5  6  1  0
  6  7  2  0
  7  8  1  0
  8  9  2  0
  9 10  1  0
 10 11  2  0
 11  6  1  0
  5 12  2  0
 12 13  1  0
 13 14  2  0
 14 15  1  0
 15  4  2  0
  2 16  1  0
 16 17  1  0
 17 18  1  0
 18 19  2  0
 19 20  1  0
 20 21  2  0
 21 22  1  0
 21 23  1  0
 23 24  2  0
 24 18  1  0
 20 25  1  0
 25 26  1  0
 26 27  1  0
 27 28  1  0
 28 29  2  0
 28 30  1  0
 17 31  2  0
 31  1  1  0
 16 32  1  0
 32 33  1  0
 33 34  2  0
 34 35  1  0
 35 36  1  0
 36 37  1  0
 37 38  1  0
 38 39  1  0
 39 40  1  0
 40 41  1  0
 41 36  1  0
 35 42  2  0
 42 43  1  0
 43 44  2  0
 44 33  1  0
M  END
$$$$
m_273170____10756114____10761964____10755784
     RDKit          3D

 41 46  0  0  0  0  0  0  0  0999 V2000
   -2.2553    4.5022    7.1169 O   0  0  0  0  0  0  0  0  0  0  0  0
   -2.6200    5.3653    6.3672 C   0  0  0  0  0  0  0  0  0  0  0  0
   -3.1499    6.5264    6.8653 N   0  0  0  0  0  0  0  0  0  0  0  0
   -2.4998    5.1794    4.9341 C   0  0  0  0  0  0  0  0  0  0  0  0
   -1.5691    4.2732    4.4371 C   0  0  0  0  0  0  0  0  0  0  0  0
   -1.4634    4.1041    3.0606 C   0  0  0  0  0  0  0  0  0  0  0  0
   -2.2710    4.8236    2.1859 C   0  0  0  0  0  0  0  0  0  0  0  0
   -3.1945    5.7238    2.7065 C   0  0  0  0  0  0  0  0  0  0  0  0
   -3.3180    5.9105    4.0793 C   0  0  0  0  0  0  0  0  0  0  0  0
   -0.4485    3.1157    2.5084 C   0  0  0  0  0  0  0  0  0  0  0  0
    0.8853    3.7336    2.5048 N   0  0  0  0  0  0  0  0  0  0  0  0
    2.0315    2.9267    2.5008 C   0  0  0  0  0  0  0  0  0  0  0  0
    3.2789    3.3271    2.4974 N   0  0  0  0  0  0  0  0  0  0  0  0
    4.1071    2.3065    2.4903 N   0  0  0  0  0  0  0  0  0  0  0  0
    3.3905    1.2051    2.4893 C   0  0  0  0  0  0  0  0  0  0  0  0
    2.0806    1.5694    2.4959 N   0  0  0  0  0  0  0  0  0  0  0  0
    0.9245    0.6605    2.4981 C   0  0  0  0  0  0  0  0  0  0  0  0
    0.3658    0.5479    1.0889 C   0  0  0  0  0  0  0  0  0  0  0  0
   -0.7899   -0.3607    1.0911 N   0  0  0  0  0  0  0  0  0  0  0  0
   -1.3848   -0.5186   -0.2449 C   0  0  0  0  0  0  0  0  0  0  0  0
   -2.5796   -1.4588   -0.2014 C   0  0  0  0  0  0  0  0  0  0  0  0
   -3.5608   -0.9927    0.7148 O   0  0  0  0  0  0  0  0  0  0  0  0
   -3.0208   -0.8476    2.0214 C   0  0  0  0  0  0  0  0  0  0  0  0
   -1.8361    0.1060    2.0142 C   0  0  0  0  0  0  0  0  0  0  0  0
    1.4383    0.0012    0.1609 C   0  0  0  0  0  0  0  0  0  0  0  0
    2.1772    0.7163   -0.6508 O   0  0  0  0  0  0  0  0  0  0  0  0
    3.0065   -0.0568   -1.3122 C   0  0  0  0  0  0  0  0  0  0  0  0
    2.8098   -1.3466   -0.9247 C   0  0  0  0  0  0  0  0  0  0  0  0
    1.7811   -1.3110    0.0411 C   0  0  0  0  0  0  0  0  0  0  0  0
    4.0219    0.4125   -2.3416 C   0  0  0  0  0  0  0  0  0  0  0  0
    3.9082   -0.1501    2.4826 C   0  0  0  0  0  0  0  0  0  0  0  0
    3.2434   -1.1702    3.0513 N   0  0  0  0  0  0  0  0  0  0  0  0
    3.7134   -2.4296    3.0510 C   0  0  0  0  0  0  0  0  0  0  0  0
    4.9335   -2.7167    2.4461 C   0  0  0  0  0  0  0  0  0  0  0  0
    5.6438   -1.6800    1.8501 C   0  0  0  0  0  0  0  0  0  0  0  0
    5.1319   -0.3868    1.8659 C   0  0  0  0  0  0  0  0  0  0  0  0
    5.4559   -4.0055    2.4213 C   0  0  0  0  0  0  0  0  0  0  0  0
    4.7389   -5.0372    3.0187 C   0  0  0  0  0  0  0  0  0  0  0  0
    3.5175   -4.7720    3.6294 C   0  0  0  0  0  0  0  0  0  0  0  0
    3.0130   -3.4756    3.6422 C   0  0  0  0  0  0  0  0  0  0  0  0
    1.0172    5.1977    2.5052 C   0  0  0  0  0  0  0  0  0  0  0  0
  1  2  2  0
  2  3  1  0
  2  4  1  0
  4  5  2  0
  5  6  1  0
  6  7  2  0
  7  8  1  0
  8  9  2  0
  9  4  1  0
  6 10  1  0
 10 11  1  0
 11 12  1  0
 12 13  2  0
 13 14  1  0
 14 15  2  0
 15 16  1  0
 16 12  1  0
 16 17  1  0
 17 18  1  0
 18 19  1  0
 19 20  1  0
 20 21  1  0
 21 22  1  0
 22 23  1  0
 23 24  1  0
 24 19  1  0
 18 25  1  0
 25 26  1  0
 26 27  1  0
 27 28  2  0
 28 29  1  0
 25 29  2  0
 27 30  1  0
 15 31  1  0
 31 32  2  0
 32 33  1  0
 33 34  2  0
 34 35  1  0
 35 36  2  0
 36 31  1  0
 34 37  1  0
 37 38  2  0
 38 39  1  0
 39 40  2  0
 40 33  1  0
 11 41  1  0
M  CHG  1  19   1
M  END
$$$$
m_273170____10756902____10761984____10766652
     RDKit          3D

 42 47  0  0  0  0  0  0  0  0999 V2000
    4.3047    6.0613    3.7283 S   0  0  0  0  0  0  0  0  0  0  0  0
    4.7913    6.0959    2.3734 O   0  0  0  0  0  0  0  0  0  0  0  0
    2.9497    6.5475    3.7642 O   0  0  0  0  0  0  0  0  0  0  0  0
    4.3516    4.3596    4.3430 C   0  0  0  0  0  0  0  0  0  0  0  0
    3.4755    3.4800    3.4657 C   0  0  0  0  0  0  0  0  0  0  0  0
    3.6239    3.5196    2.0831 C   0  0  0  0  0  0  0  0  0  0  0  0
    2.8192    2.7135    1.2852 C   0  0  0  0  0  0  0  0  0  0  0  0
    1.8778    1.8778    1.8778 C   0  0  0  0  0  0  0  0  0  0  0  0
    1.7317    1.8370    3.2610 C   0  0  0  0  0  0  0  0  0  0  0  0
    2.5355    2.6443    4.0591 C   0  0  0  0  0  0  0  0  0  0  0  0
    1.0000    1.0000    1.0000 C   0  0  0  0  0  0  0  0  0  0  0  0
    1.0378   -0.3836    1.4968 N   0  0  0  0  0  0  0  0  0  0  0  0
    0.0176   -1.0445    2.1028 C   0  0  0  0  0  0  0  0  0  0  0  0
    0.4816   -2.2386    2.3773 N   0  0  0  0  0  0  0  0  0  0  0  0
    1.7283   -2.3682    1.9819 N   0  0  0  0  0  0  0  0  0  0  0  0
    2.0976   -1.2330    1.4326 C   0  0  0  0  0  0  0  0  0  0  0  0
    3.4006   -0.9442    0.8628 C   0  0  0  0  0  0  0  0  0  0  0  0
    3.7075   -0.0624   -0.5604 S   0  0  0  0  0  0  0  0  0  0  0  0
    5.4014   -0.2128   -0.4807 C   0  0  0  0  0  0  0  0  0  0  0  0
    5.6944   -0.9107    0.5908 N   0  0  0  0  0  0  0  0  0  0  0  0
    4.6186   -1.3200    1.3347 C   0  0  0  0  0  0  0  0  0  0  0  0
    4.7370   -2.1376    2.6098 C   0  0  0  0  0  0  0  0  0  0  0  0
    6.3304    0.3369   -1.4501 C   0  0  0  0  0  0  0  0  0  0  0  0
    7.3318   -0.4706   -1.9796 C   0  0  0  0  0  0  0  0  0  0  0  0
    8.2210    0.0607   -2.9081 C   0  0  0  0  0  0  0  0  0  0  0  0
    8.1042    1.3897   -3.3016 C   0  0  0  0  0  0  0  0  0  0  0  0
    7.0998    2.1867   -2.7664 C   0  0  0  0  0  0  0  0  0  0  0  0
    6.2048    1.6675   -1.8366 C   0  0  0  0  0  0  0  0  0  0  0  0
   -1.2647   -0.5519    2.3814 N   0  0  0  0  0  0  0  0  0  0  0  0
   -2.3436   -0.7116    1.3958 C   0  0  0  0  0  0  0  0  0  0  0  0
   -2.5694   -2.1939    1.1259 C   0  0  0  0  0  0  0  0  0  0  0  0
   -2.7348   -3.1301    2.0326 O   0  0  0  0  0  0  0  0  0  0  0  0
   -2.9046   -4.3031    1.4622 C   0  0  0  0  0  0  0  0  0  0  0  0
   -2.8424   -4.1279    0.1125 C   0  0  0  0  0  0  0  0  0  0  0  0
   -2.6215   -2.7498   -0.1149 C   0  0  0  0  0  0  0  0  0  0  0  0
   -1.5307    0.1245    3.6592 C   0  0  0  0  0  0  0  0  0  0  0  0
   -1.9990    1.5502    3.3915 C   0  0  0  0  0  0  0  0  0  0  0  0
   -3.4067    1.6605    3.2548 O   0  0  0  0  0  0  0  0  0  0  0  0
   -3.7263    3.0241    3.4583 C   0  0  0  0  0  0  0  0  0  0  0  0
   -2.6579    3.5976    4.3675 C   0  0  0  0  0  0  0  0  0  0  0  0
   -1.7904    2.3868    4.6409 C   0  0  0  0  0  0  0  0  0  0  0  0
    5.3493    7.1086    4.7713 C   0  0  0  0  0  0  0  0  0  0  0  0
  1  2  2  0
  1  3  2  0
  1  4  1  0
  4  5  1  0
  5  6  2  0
  6  7  1  0
  7  8  2  0
  8  9  1  0
  9 10  2  0
 10  5  1  0
  8 11  1  0
 11 12  1  0
 12 13  1  0
 13 14  2  0
 14 15  1  0
 15 16  2  0
 16 12  1  0
 16 17  1  0
 17 18  1  0
 18 19  1  0
 19 20  2  0
 20 21  1  0
 17 21  2  0
 21 22  1  0
 19 23  1  0
 23 24  2  0
 24 25  1  0
 25 26  2  0
 26 27  1  0
 27 28  2  0
 28 23  1  0
 13 29  1  0
 29 30  1  0
 30 31  1  0
 31 32  1  0
 32 33  1  0
 33 34  2  0
 34 35  1  0
 31 35  2  0
 29 36  1  0
 36 37  1  0
 37 38  1  0
 38 39  1  0
 39 40  1  0
 40 41  1  0
 41 37  1  0
  1 42  1  0
M  END
$$$$
m_273170____10756954____10760336____10755784
     RDKit          3D

 41 46  0  0  0  0  0  0  0  0999 V2000
   -0.1645    3.8546   -4.1762 S   0  0  0  0  0  0  0  0  0  0  0  0
   -1.4776    4.4422   -4.1127 O   0  0  0  0  0  0  0  0  0  0  0  0
    0.8148    4.8892   -4.3867 O   0  0  0  0  0  0  0  0  0  0  0  0
   -0.1045    2.7906   -5.4096 N   0  0  0  0  0  0  0  0  0  0  0  0
    0.1735    3.0308   -2.6816 C   0  0  0  0  0  0  0  0  0  0  0  0
    1.4843    2.7016   -2.3540 C   0  0  0  0  0  0  0  0  0  0  0  0
    1.7570    2.0429   -1.1595 C   0  0  0  0  0  0  0  0  0  0  0  0
    0.7075    1.7207   -0.3057 C   0  0  0  0  0  0  0  0  0  0  0  0
   -0.6035    2.0498   -0.6342 C   0  0  0  0  0  0  0  0  0  0  0  0
   -0.8767    2.7089   -1.8278 C   0  0  0  0  0  0  0  0  0  0  0  0
    1.0000    1.0000    1.0000 C   0  0  0  0  0  0  0  0  0  0  0  0
    1.8487    1.8487    1.8487 N   0  0  0  0  0  0  0  0  0  0  0  0
    3.1847    1.4941    2.0812 C   0  0  0  0  0  0  0  0  0  0  0  0
    4.2105    2.3030    2.1806 N   0  0  0  0  0  0  0  0  0  0  0  0
    5.3231    1.6376    2.3974 N   0  0  0  0  0  0  0  0  0  0  0  0
    5.0260    0.3584    2.4425 C   0  0  0  0  0  0  0  0  0  0  0  0
    3.6856    0.2424    2.2462 N   0  0  0  0  0  0  0  0  0  0  0  0
    2.9152   -1.0099    2.2180 C   0  0  0  0  0  0  0  0  0  0  0  0
    3.0701   -1.6698    0.8565 C   0  0  0  0  0  0  0  0  0  0  0  0
    2.4476   -2.8766    0.5414 C   0  0  0  0  0  0  0  0  0  0  0  0
    1.6813   -3.4815    1.4808 O   0  0  0  0  0  0  0  0  0  0  0  0
    1.5969   -4.8942    1.6118 C   0  0  0  0  0  0  0  0  0  0  0  0
    0.5928   -5.4717    0.6245 C   0  0  0  0  0  0  0  0  0  0  0  0
    0.7110   -4.8283   -0.7495 C   0  0  0  0  0  0  0  0  0  0  0  0
    2.0582   -4.5776   -1.1318 O   0  0  0  0  0  0  0  0  0  0  0  0
    2.6328   -3.4244   -0.7289 C   0  0  0  0  0  0  0  0  0  0  0  0
    3.4346   -2.7789   -1.6617 C   0  0  0  0  0  0  0  0  0  0  0  0
    4.0555   -1.5751   -1.3482 C   0  0  0  0  0  0  0  0  0  0  0  0
    3.8662   -1.0259   -0.0843 C   0  0  0  0  0  0  0  0  0  0  0  0
    5.9621   -0.7281    2.6623 C   0  0  0  0  0  0  0  0  0  0  0  0
    7.0139   -0.9357    1.8529 N   0  0  0  0  0  0  0  0  0  0  0  0
    7.8861   -1.9387    2.0483 C   0  0  0  0  0  0  0  0  0  0  0  0
    7.7159   -2.8089    3.1220 C   0  0  0  0  0  0  0  0  0  0  0  0
    6.6348   -2.6166    3.9759 C   0  0  0  0  0  0  0  0  0  0  0  0
    5.7468   -1.5695    3.7493 C   0  0  0  0  0  0  0  0  0  0  0  0
    8.6014   -3.8566    3.3516 C   0  0  0  0  0  0  0  0  0  0  0  0
    9.6760   -4.0323    2.4862 C   0  0  0  0  0  0  0  0  0  0  0  0
    9.8686   -3.1770    1.4065 C   0  0  0  0  0  0  0  0  0  0  0  0
    8.9694   -2.1362    1.1978 C   0  0  0  0  0  0  0  0  0  0  0  0
    1.2963    3.0693    2.4536 C   0  0  0  0  0  0  0  0  0  0  0  0
   -0.3059    0.7075    1.7208 C   0  0  0  0  0  0  0  0  0  0  0  0
  1  2  2  0
  1  3  2  0
  1  4  1  0
  1  5  1  0
  5  6  2  0
  6  7  1  0
  7  8  2  0
  8  9  1  0
  9 10  2  0
 10  5  1  0
  8 11  1  0
 11 12  1  0
 12 13  1  0
 13 14  2  0
 14 15  1  0
 15 16  2  0
 16 17  1  0
 17 13  1  0
 17 18  1  0
 18 19  1  0
 19 20  2  0
 20 21  1  0
 21 22  1  0
 22 23  1  0
 23 24  1  0
 24 25  1  0
 25 26  1  0
 26 20  1  0
 26 27  2  0
 27 28  1  0
 28 29  2  0
 29 19  1  0
 16 30  1  0
 30 31  2  0
 31 32  1  0
 32 33  2  0
 33 34  1  0
 34 35  2  0
 35 30  1  0
 33 36  1  0
 36 37  2  0
 37 38  1  0
 38 39  2  0
 39 32  1  0
 12 40  1  0
 11 41  1  0
M  END
$$$$
m_273170____10756154____10764834____10766516
     RDKit          3D

 43 47  0  0  0  0  0  0  0  0999 V2000
   -1.4376   -1.2427    2.8900 S   0  0  0  0  0  0  0  0  0  0  0  0
   -2.5870   -1.9105    3.4436 O   0  0  0  0  0  0  0  0  0  0  0  0
   -1.8717   -0.1562    2.0506 O   0  0  0  0  0  0  0  0  0  0  0  0
   -0.5692   -2.3002    2.0042 N   0  0  0  0  0  0  0  0  0  0  0  0
   -0.1260   -3.4094    2.8611 C   0  0  0  0  0  0  0  0  0  0  0  0
   -1.4027   -2.8264    0.9136 C   0  0  0  0  0  0  0  0  0  0  0  0
   -0.4509   -0.6198    4.1811 C   0  0  0  0  0  0  0  0  0  0  0  0
    0.6099    0.2441    3.9259 C   0  0  0  0  0  0  0  0  0  0  0  0
    1.3826    0.7266    4.9772 C   0  0  0  0  0  0  0  0  0  0  0  0
    1.0947    0.3456    6.2838 C   0  0  0  0  0  0  0  0  0  0  0  0
    0.0320   -0.5181    6.5277 C   0  0  0  0  0  0  0  0  0  0  0  0
   -0.7471   -1.0068    5.4837 C   0  0  0  0  0  0  0  0  0  0  0  0
    0.9245    0.6605    2.4981 C   0  0  0  0  0  0  0  0  0  0  0  0
    2.0806    1.5694    2.4959 N   0  0  0  0  0  0  0  0  0  0  0  0
    2.0315    2.9267    2.5008 C   0  0  0  0  0  0  0  0  0  0  0  0
    3.2789    3.3271    2.4974 N   0  0  0  0  0  0  0  0  0  0  0  0
    4.1071    2.3065    2.4903 N   0  0  0  0  0  0  0  0  0  0  0  0
    3.3905    1.2051    2.4893 C   0  0  0  0  0  0  0  0  0  0  0  0
    3.9085   -0.1508    2.4826 C   0  0  0  0  0  0  0  0  0  0  0  0
    3.9836   -0.9224    1.3235 C   0  0  0  0  0  0  0  0  0  0  0  0
    4.4948   -2.2150    1.4059 C   0  0  0  0  0  0  0  0  0  0  0  0
    4.9053   -2.6995    2.5875 N   0  0  0  0  0  0  0  0  0  0  0  0
    4.8411   -1.9709    3.7129 C   0  0  0  0  0  0  0  0  0  0  0  0
    4.3411   -0.6741    3.6952 C   0  0  0  0  0  0  0  0  0  0  0  0
    5.3074   -2.5255    5.0483 C   0  0  0  0  0  0  0  0  0  0  0  0
    4.5741   -2.9910    0.2536 C   0  0  0  0  0  0  0  0  0  0  0  0
    4.1513   -2.4991   -0.9765 C   0  0  0  0  0  0  0  0  0  0  0  0
    3.6382   -1.2107   -1.0712 C   0  0  0  0  0  0  0  0  0  0  0  0
    3.5628   -0.4413    0.0845 C   0  0  0  0  0  0  0  0  0  0  0  0
    0.8853    3.7336    2.5048 N   0  0  0  0  0  0  0  0  0  0  0  0
    0.9743    5.1346    2.9407 C   0  0  0  0  0  0  0  0  0  0  0  0
    0.9747    5.1936    4.4601 C   0  0  0  0  0  0  0  0  0  0  0  0
    2.0329    5.1555    5.2319 N   0  0  0  0  0  0  0  0  0  0  0  0
    1.6478    5.2252    6.4852 N   0  0  0  0  0  0  0  0  0  0  0  0
    0.2906    5.3100    6.5626 C   0  0  0  0  0  0  0  0  0  0  0  0
   -0.1705    5.2926    5.2811 C   0  0  0  0  0  0  0  0  0  0  0  0
    2.5528    5.2115    7.6437 C   0  0  0  0  0  0  0  0  0  0  0  0
    2.9532    6.6362    7.9907 C   0  0  0  0  0  0  0  0  0  0  0  0
    3.2667    7.7516    8.2623 C   0  0  0  0  0  0  0  0  0  0  0  0
   -0.4056    3.1787    2.0729 C   0  0  0  0  0  0  0  0  0  0  0  0
   -0.7441    3.7028    0.6868 C   0  0  0  0  0  0  0  0  0  0  0  0
   -1.9911    3.1668    0.2696 O   0  0  0  0  0  0  0  0  0  0  0  0
   -2.3073    3.6564   -1.0253 C   0  0  0  0  0  0  0  0  0  0  0  0
  1  2  2  0
  1  3  2  0
  1  4  1  0
  4  5  1  0
  4  6  1  0
  1  7  1  0
  7  8  2  0
  8  9  1  0
  9 10  2  0
 10 11  1  0
 11 12  2  0
 12  7  1  0
  8 13  1  0
 13 14  1  0
 14 15  1  0
 15 16  2  0
 16 17  1  0
 17 18  2  0
 18 14  1  0
 18 19  1  0
 19 20  2  0
 20 21  1  0
 21 22  2  0
 22 23  1  0
 23 24  2  0
 24 19  1  0
 23 25  1  0
 21 26  1  0
 26 27  2  0
 27 28  1  0
 28 29  2  0
 29 20  1  0
 15 30  1  0
 30 31  1  0
 31 32  1  0
 32 33  2  0
 33 34  1  0
 34 35  1  0
 35 36  2  0
 36 32  1  0
 34 37  1  0
 37 38  1  0
 38 39  3  0
 30 40  1  0
 40 41  1  0
 41 42  1  0
 42 43  1  0
M  END
$$$$
m_273170____10756788____10760756____10766638
     RDKit          3D

 42 47  0  0  0  0  0  0  0  0999 V2000
   -2.4260   -1.0362    6.3365 S   0  0  0  0  0  0  0  0  0  0  0  0
   -3.3864   -2.1049    6.2408 O   0  0  0  0  0  0  0  0  0  0  0  0
   -1.4382   -1.3662    7.3310 O   0  0  0  0  0  0  0  0  0  0  0  0
   -1.6475   -0.8164    4.7963 C   0  0  0  0  0  0  0  0  0  0  0  0
   -0.2604   -0.7451    4.7261 C   0  0  0  0  0  0  0  0  0  0  0  0
    0.3645   -0.5693    3.4957 C   0  0  0  0  0  0  0  0  0  0  0  0
   -0.4127   -0.4663    2.3470 C   0  0  0  0  0  0  0  0  0  0  0  0
   -1.8001   -0.5372    2.4180 C   0  0  0  0  0  0  0  0  0  0  0  0
   -2.4253   -0.7135    3.6475 C   0  0  0  0  0  0  0  0  0  0  0  0
    0.2650   -0.2731    1.0004 C   0  0  0  0  0  0  0  0  0  0  0  0
    1.0000    1.0000    1.0000 N   0  0  0  0  0  0  0  0  0  0  0  0
    2.4017    1.0000    1.0000 C   0  0  0  0  0  0  0  0  0  0  0  0
    3.1912   -0.0415    0.9092 N   0  0  0  0  0  0  0  0  0  0  0  0
    4.4560    0.3145    0.9442 N   0  0  0  0  0  0  0  0  0  0  0  0
    4.5040    1.6225    1.0607 C   0  0  0  0  0  0  0  0  0  0  0  0
    3.2232    2.0772    1.0979 N   0  0  0  0  0  0  0  0  0  0  0  0
    2.8010    3.4805    1.2209 C   0  0  0  0  0  0  0  0  0  0  0  0
    2.7709    3.8737    2.6885 C   0  0  0  0  0  0  0  0  0  0  0  0
    2.1846    3.2119    3.6571 N   0  0  0  0  0  0  0  0  0  0  0  0
    2.3647    3.8476    4.8006 N   0  0  0  0  0  0  0  0  0  0  0  0
    3.0727    4.9322    4.5885 C   0  0  0  0  0  0  0  0  0  0  0  0
    3.3414    4.9682    3.2534 N   0  0  0  0  0  0  0  0  0  0  0  0
    4.0747    5.9586    2.5887 C   0  0  0  0  0  0  0  0  0  0  0  0
    5.4262    6.1233    2.8744 C   0  0  0  0  0  0  0  0  0  0  0  0
    6.1515    7.1081    2.2118 C   0  0  0  0  0  0  0  0  0  0  0  0
    5.5248    7.9192    1.2718 C   0  0  0  0  0  0  0  0  0  0  0  0
    4.1732    7.7453    0.9937 C   0  0  0  0  0  0  0  0  0  0  0  0
    3.4378    6.7639    1.6501 C   0  0  0  0  0  0  0  0  0  0  0  0
    5.6999    2.4241    1.1349 C   0  0  0  0  0  0  0  0  0  0  0  0
    6.2409    3.1178    0.0852 N   0  0  0  0  0  0  0  0  0  0  0  0
    7.3333    3.7890    0.3515 C   0  0  0  0  0  0  0  0  0  0  0  0
    7.6762    3.5114    1.9953 S   0  0  0  0  0  0  0  0  0  0  0  0
    6.3468    2.4998    2.3268 C   0  0  0  0  0  0  0  0  0  0  0  0
    8.0835    4.5732   -0.5303 N   0  0  0  0  0  0  0  0  0  0  0  0
    7.9524    4.4697   -1.9920 C   0  0  0  0  0  0  0  0  0  0  0  0
    9.2685    4.8719   -2.6365 C   0  0  0  0  0  0  0  0  0  0  0  0
    9.6241    6.2265   -2.3727 O   0  0  0  0  0  0  0  0  0  0  0  0
    9.1818    6.6869   -1.0999 C   0  0  0  0  0  0  0  0  0  0  0  0
    9.0658    5.5671   -0.0762 C   0  0  0  0  0  0  0  0  0  0  0  0
    0.2650    2.2731    0.9996 C   0  0  0  0  0  0  0  0  0  0  0  0
   -0.7861   -0.2516   -0.0974 C   0  0  0  0  0  0  0  0  0  0  0  0
   -3.2706    0.4933    6.8094 C   0  0  0  0  0  0  0  0  0  0  0  0
  1  2  2  0
  1  3  2  0
  1  4  1  0
  4  5  2  0
  5  6  1  0
  6  7  2  0
  7  8  1  0
  8  9  2  0
  9  4  1  0
  7 10  1  0
 10 11  1  0
 11 12  1  0
 12 13  2  0
 13 14  1  0
 14 15  2  0
 15 16  1  0
 16 12  1  0
 16 17  1  0
 17 18  1  0
 18 19  2  0
 19 20  1  0
 20 21  2  0
 21 22  1  0
 22 18  1  0
 22 23  1  0
 23 24  2  0
 24 25  1  0
 25 26  2  0
 26 27  1  0
 27 28  2  0
 28 23  1  0
 15 29  1  0
 29 30  1  0
 30 31  2  0
 31 32  1  0
 32 33  1  0
 29 33  2  0
 31 34  1  0
 34 35  1  0
 35 36  1  0
 36 37  1  0
 37 38  1  0
 38 39  1  0
 39 34  1  0
 11 40  1  0
 10 41  1  0
  1 42  1  0
M  END
$$$$
m_273170____14050206____10761984____10766484
     RDKit          3D

 40 45  0  0  0  0  0  0  0  0999 V2000
    6.0742    2.5052    1.0304 Cl  0  0  0  0  0  0  0  0  0  0  0  0
    5.3096    0.8997    0.9552 C   0  0  0  0  0  0  0  0  0  0  0  0
    5.9341   -0.2613    0.4095 C   0  0  0  0  0  0  0  0  0  0  0  0
    5.1137   -1.3617    0.4876 C   0  0  0  0  0  0  0  0  0  0  0  0
    3.6429   -0.9248    1.2123 S   0  0  0  0  0  0  0  0  0  0  0  0
    4.0465    0.7141    1.4356 C   0  0  0  0  0  0  0  0  0  0  0  0
    3.1893    1.7162    2.0355 C   0  0  0  0  0  0  0  0  0  0  0  0
    3.5695    2.6646    2.8617 N   0  0  0  0  0  0  0  0  0  0  0  0
    2.5076    3.3689    3.1840 N   0  0  0  0  0  0  0  0  0  0  0  0
    1.4341    2.9089    2.5903 C   0  0  0  0  0  0  0  0  0  0  0  0
    1.8491    1.8491    1.8491 N   0  0  0  0  0  0  0  0  0  0  0  0
    1.0000    1.0000    1.0000 C   0  0  0  0  0  0  0  0  0  0  0  0
    1.3249    1.2596   -0.4620 C   0  0  0  0  0  0  0  0  0  0  0  0
    0.4474    0.3821   -1.3395 C   0  0  0  0  0  0  0  0  0  0  0  0
   -0.7874    0.8587   -1.7664 C   0  0  0  0  0  0  0  0  0  0  0  0
   -1.5867    0.0523   -2.5703 C   0  0  0  0  0  0  0  0  0  0  0  0
   -1.1472   -1.2151   -2.9371 C   0  0  0  0  0  0  0  0  0  0  0  0
   -2.1894   -2.2618   -3.9832 S   0  0  0  0  0  0  0  0  0  0  0  0
   -1.9420   -3.6465   -3.6747 O   0  0  0  0  0  0  0  0  0  0  0  0
   -3.5752   -1.9559   -3.7392 O   0  0  0  0  0  0  0  0  0  0  0  0
   -1.8007   -1.9527   -5.7237 C   0  0  0  0  0  0  0  0  0  0  0  0
    0.0878   -1.6923   -2.5101 C   0  0  0  0  0  0  0  0  0  0  0  0
    0.8865   -0.8855   -1.7071 C   0  0  0  0  0  0  0  0  0  0  0  0
    0.1296    3.4105    2.6963 N   0  0  0  0  0  0  0  0  0  0  0  0
   -0.7709    2.9019    3.7410 C   0  0  0  0  0  0  0  0  0  0  0  0
   -0.1612    3.1694    5.1113 C   0  0  0  0  0  0  0  0  0  0  0  0
    0.3125    4.3183    5.5375 O   0  0  0  0  0  0  0  0  0  0  0  0
    0.7667    4.2052    6.7668 C   0  0  0  0  0  0  0  0  0  0  0  0
    0.5862    2.9148    7.1652 C   0  0  0  0  0  0  0  0  0  0  0  0
   -0.0193    2.2306    6.0858 C   0  0  0  0  0  0  0  0  0  0  0  0
   -0.3381    4.4452    1.7627 C   0  0  0  0  0  0  0  0  0  0  0  0
   -1.5432    3.9238    0.9884 C   0  0  0  0  0  0  0  0  0  0  0  0
   -2.7803    4.2030    1.6239 O   0  0  0  0  0  0  0  0  0  0  0  0
   -3.7811    4.0795    0.6308 C   0  0  0  0  0  0  0  0  0  0  0  0
   -3.1266    4.3992   -0.6983 C   0  0  0  0  0  0  0  0  0  0  0  0
   -1.7108    4.7383   -0.2816 C   0  0  0  0  0  0  0  0  0  0  0  0
    5.3574   -2.6572    0.0692 C   0  0  0  0  0  0  0  0  0  0  0  0
    6.6005   -2.8675   -0.5048 C   0  0  0  0  0  0  0  0  0  0  0  0
    7.4979   -1.8105   -0.6212 C   0  0  0  0  0  0  0  0  0  0  0  0
    7.1686   -0.5350   -0.1726 C   0  0  0  0  0  0  0  0  0  0  0  0
  1  2  1  0
  2  3  1  0
  3  4  2  0
  4  5  1  0
  5  6  1  0
  2  6  2  0
  6  7  1  0
  7  8  2  0
  8  9  1  0
  9 10  2  0
 10 11  1  0
 11  7  1  0
 11 12  1  0
 12 13  1  0
 13 14  1  0
 14 15  2  0
 15 16  1  0
 16 17  2  0
 17 18  1  0
 18 19  2  0
 18 20  2  0
 18 21  1  0
 17 22  1  0
 22 23  2  0
 23 14  1  0
 10 24  1  0
 24 25  1  0
 25 26  1  0
 26 27  1  0
 27 28  1  0
 28 29  2  0
 29 30  1  0
 26 30  2  0
 24 31  1  0
 31 32  1  0
 32 33  1  0
 33 34  1  0
 34 35  1  0
 35 36  1  0
 36 32  1  0
  4 37  1  0
 37 38  2  0
 38 39  1  0
 39 40  2  0
 40  3  1  0
M  END
$$$$
m_273170____10756572____10765544____10766598
     RDKit          3D

 39 43  0  0  0  0  0  0  0  0999 V2000
    0.5723   -3.3799   -0.7862 S   0  0  0  0  0  0  0  0  0  0  0  0
    0.5607   -3.5940   -2.2102 O   0  0  0  0  0  0  0  0  0  0  0  0
    1.7814   -3.9281   -0.2283 O   0  0  0  0  0  0  0  0  0  0  0  0
   -0.7181   -4.1160   -0.1155 N   0  0  0  0  0  0  0  0  0  0  0  0
   -0.6595   -5.5580   -0.3947 C   0  0  0  0  0  0  0  0  0  0  0  0
    0.5030   -1.6727   -0.4558 C   0  0  0  0  0  0  0  0  0  0  0  0
    0.7321   -1.2104    0.8363 C   0  0  0  0  0  0  0  0  0  0  0  0
    0.6734    0.1566    1.0860 C   0  0  0  0  0  0  0  0  0  0  0  0
    0.3910    1.0585    0.0655 C   0  0  0  0  0  0  0  0  0  0  0  0
    0.1651    0.5755   -1.2193 C   0  0  0  0  0  0  0  0  0  0  0  0
    0.2186   -0.7879   -1.4906 C   0  0  0  0  0  0  0  0  0  0  0  0
    0.9245    0.6605    2.4981 C   0  0  0  0  0  0  0  0  0  0  0  0
    2.0806    1.5694    2.4959 N   0  0  0  0  0  0  0  0  0  0  0  0
    2.0315    2.9267    2.5008 C   0  0  0  0  0  0  0  0  0  0  0  0
    3.2789    3.3271    2.4974 N   0  0  0  0  0  0  0  0  0  0  0  0
    4.1071    2.3065    2.4903 N   0  0  0  0  0  0  0  0  0  0  0  0
    3.3905    1.2051    2.4893 C   0  0  0  0  0  0  0  0  0  0  0  0
    3.9082   -0.1502    2.4826 C   0  0  0  0  0  0  0  0  0  0  0  0
    3.1021   -1.1169    2.8825 N   0  0  0  0  0  0  0  0  0  0  0  0
    3.4762   -2.3841    2.9138 N   0  0  0  0  0  0  0  0  0  0  0  0
    4.7319   -2.7749    2.5315 C   0  0  0  0  0  0  0  0  0  0  0  0
    5.0130   -3.9619    2.5852 O   0  0  0  0  0  0  0  0  0  0  0  0
    5.6512   -1.7834    2.0913 C   0  0  0  0  0  0  0  0  0  0  0  0
    5.2361   -0.4563    2.0665 C   0  0  0  0  0  0  0  0  0  0  0  0
    6.1393    0.5157    1.6375 C   0  0  0  0  0  0  0  0  0  0  0  0
    7.4323    0.2025    1.2334 C   0  0  0  0  0  0  0  0  0  0  0  0
    7.8403   -1.1265    1.2601 C   0  0  0  0  0  0  0  0  0  0  0  0
    6.9457   -2.1015    1.6888 C   0  0  0  0  0  0  0  0  0  0  0  0
    0.8853    3.7336    2.5048 N   0  0  0  0  0  0  0  0  0  0  0  0
    0.9717    5.1351    2.0699 C   0  0  0  0  0  0  0  0  0  0  0  0
    0.7157    5.2181    0.5767 C   0  0  0  0  0  0  0  0  0  0  0  0
   -0.8079    5.4304   -0.1483 S   0  0  0  0  0  0  0  0  0  0  0  0
   -0.2418    5.4078   -1.7555 C   0  0  0  0  0  0  0  0  0  0  0  0
    1.0679    5.2448   -1.6893 N   0  0  0  0  0  0  0  0  0  0  0  0
    1.6245    5.1362   -0.4343 C   0  0  0  0  0  0  0  0  0  0  0  0
   -0.4030    3.1782    2.9437 C   0  0  0  0  0  0  0  0  0  0  0  0
   -0.7332    3.7006    4.3324 C   0  0  0  0  0  0  0  0  0  0  0  0
   -1.9179    3.0757    4.8039 O   0  0  0  0  0  0  0  0  0  0  0  0
   -2.2264    3.5637    6.1012 C   0  0  0  0  0  0  0  0  0  0  0  0
  1  2  2  0
  1  3  2  0
  1  4  1  0
  4  5  1  0
  1  6  1  0
  6  7  2  0
  7  8  1  0
  8  9  2  0
  9 10  1  0
 10 11  2  0
 11  6  1  0
  8 12  1  0
 12 13  1  0
 13 14  1  0
 14 15  2  0
 15 16  1  0
 16 17  2  0
 17 13  1  0
 17 18  1  0
 18 19  2  0
 19 20  1  0
 20 21  1  0
 21 22  2  0
 21 23  1  0
 23 24  2  0
 24 18  1  0
 24 25  1  0
 25 26  2  0
 26 27  1  0
 27 28  2  0
 28 23  1  0
 14 29  1  0
 29 30  1  0
 30 31  1  0
 31 32  1  0
 32 33  1  0
 33 34  2  0
 34 35  1  0
 31 35  2  0
 29 36  1  0
 36 37  1  0
 37 38  1  0
 38 39  1  0
M  END
$$$$
m_273170____10756136____10763054____10755784
     RDKit          3D

 41 47  0  0  0  0  0  0  0  0999 V2000
   -1.3582   10.4466    1.5899 O   0  0  0  0  0  0  0  0  0  0  0  0
   -0.5149    9.6080    1.3175 N   0  0  0  0  0  0  0  0  0  0  0  0
    0.2593    9.8018    0.4080 O   0  0  0  0  0  0  0  0  0  0  0  0
   -0.4429    8.4200    2.0583 C   0  0  0  0  0  0  0  0  0  0  0  0
    0.0279    7.2520    1.4655 C   0  0  0  0  0  0  0  0  0  0  0  0
    0.1094    6.0617    2.1807 C   0  0  0  0  0  0  0  0  0  0  0  0
   -0.2996    6.0787    3.5179 C   0  0  0  0  0  0  0  0  0  0  0  0
   -0.7721    7.2395    4.1224 C   0  0  0  0  0  0  0  0  0  0  0  0
   -0.8457    8.4183    3.3888 C   0  0  0  0  0  0  0  0  0  0  0  0
   -0.2343    4.8368    4.3911 C   0  0  0  0  0  0  0  0  0  0  0  0
   -0.2104    3.6229    3.4769 C   0  0  0  0  0  0  0  0  0  0  0  0
    0.8827    3.7354    2.5048 N   0  0  0  0  0  0  0  0  0  0  0  0
    2.0315    2.9267    2.5008 C   0  0  0  0  0  0  0  0  0  0  0  0
    3.2789    3.3271    2.4974 N   0  0  0  0  0  0  0  0  0  0  0  0
    4.1071    2.3065    2.4903 N   0  0  0  0  0  0  0  0  0  0  0  0
    3.3905    1.2051    2.4893 C   0  0  0  0  0  0  0  0  0  0  0  0
    2.0806    1.5694    2.4959 N   0  0  0  0  0  0  0  0  0  0  0  0
    0.9245    0.6605    2.4981 C   0  0  0  0  0  0  0  0  0  0  0  0
    0.8227   -0.0338    1.1484 C   0  0  0  0  0  0  0  0  0  0  0  0
    0.6563    0.6757   -0.0371 C   0  0  0  0  0  0  0  0  0  0  0  0
    0.5687    0.0398   -1.2143 N   0  0  0  0  0  0  0  0  0  0  0  0
    0.6373   -1.2973   -1.2993 C   0  0  0  0  0  0  0  0  0  0  0  0
    0.5467   -1.9606   -2.5284 N   0  0  0  0  0  0  0  0  0  0  0  0
    1.3088   -3.2025   -2.7324 C   0  0  0  0  0  0  0  0  0  0  0  0
    0.5618   -4.1553   -3.6529 C   0  0  0  0  0  0  0  0  0  0  0  0
    0.0558   -3.4822   -4.7986 O   0  0  0  0  0  0  0  0  0  0  0  0
   -0.9252   -2.5231   -4.4262 C   0  0  0  0  0  0  0  0  0  0  0  0
   -0.3268   -1.4121   -3.5770 C   0  0  0  0  0  0  0  0  0  0  0  0
    0.8034   -2.0647   -0.1504 C   0  0  0  0  0  0  0  0  0  0  0  0
    0.8958   -1.4208    1.0792 C   0  0  0  0  0  0  0  0  0  0  0  0
    3.9082   -0.1501    2.4826 C   0  0  0  0  0  0  0  0  0  0  0  0
    4.1576   -0.8108    1.3399 N   0  0  0  0  0  0  0  0  0  0  0  0
    4.6371   -2.0657    1.3234 C   0  0  0  0  0  0  0  0  0  0  0  0
    4.8935   -2.7279    2.5212 C   0  0  0  0  0  0  0  0  0  0  0  0
    4.6441   -2.0668    3.7194 C   0  0  0  0  0  0  0  0  0  0  0  0
    4.1470   -0.7671    3.7066 C   0  0  0  0  0  0  0  0  0  0  0  0
    5.3903   -4.0269    2.5379 C   0  0  0  0  0  0  0  0  0  0  0  0
    5.6328   -4.6709    1.3292 C   0  0  0  0  0  0  0  0  0  0  0  0
    5.3854   -4.0317    0.1190 C   0  0  0  0  0  0  0  0  0  0  0  0
    4.8886   -2.7323    0.1283 C   0  0  0  0  0  0  0  0  0  0  0  0
    0.6215    4.7939    1.5155 C   0  0  0  0  0  0  0  0  0  0  0  0
  1  2  1  0
  2  3  2  0
  2  4  1  0
  4  5  2  0
  5  6  1  0
  6  7  2  0
  7  8  1  0
  8  9  2  0
  9  4  1  0
  7 10  1  0
 10 11  1  0
 11 12  1  0
 12 13  1  0
 13 14  2  0
 14 15  1  0
 15 16  2  0
 16 17  1  0
 17 13  1  0
 17 18  1  0
 18 19  1  0
 19 20  2  0
 20 21  1  0
 21 22  2  0
 22 23  1  0
 23 24  1  0
 24 25  1  0
 25 26  1  0
 26 27  1  0
 27 28  1  0
 28 23  1  0
 22 29  1  0
 29 30  2  0
 30 19  1  0
 16 31  1  0
 31 32  2  0
 32 33  1  0
 33 34  2  0
 34 35  1  0
 35 36  2  0
 36 31  1  0
 34 37  1  0
 37 38  2  0
 38 39  1  0
 39 40  2  0
 40 33  1  0
 12 41  1  0
 41  6  1  0
M  CHG  2   1  -1   2   1
M  END
$$$$
m_273170____10759452____10762390____10766740
     RDKit          3D

 42 47  0  0  0  0  0  0  0  0999 V2000
    2.6150   -3.3935    4.7490 Br  0  0  0  0  0  0  0  0  0  0  0  0
    1.1922   -2.1937    4.1356 C   0  0  0  0  0  0  0  0  0  0  0  0
    1.2400   -1.6870    2.8412 C   0  0  0  0  0  0  0  0  0  0  0  0
    0.2272   -0.8357    2.4118 C   0  0  0  0  0  0  0  0  0  0  0  0
   -0.8170   -0.5001    3.2663 C   0  0  0  0  0  0  0  0  0  0  0  0
   -1.7814    0.3130    2.8443 F   0  0  0  0  0  0  0  0  0  0  0  0
   -0.8547   -1.0125    4.5591 C   0  0  0  0  0  0  0  0  0  0  0  0
    0.1531   -1.8640    4.9999 C   0  0  0  0  0  0  0  0  0  0  0  0
    0.2650   -0.2731    1.0004 C   0  0  0  0  0  0  0  0  0  0  0  0
    1.0000    1.0000    1.0000 N   0  0  0  0  0  0  0  0  0  0  0  0
    2.4017    1.0000    1.0000 C   0  0  0  0  0  0  0  0  0  0  0  0
    3.1912    1.0004    2.0455 N   0  0  0  0  0  0  0  0  0  0  0  0
    4.4560    1.0042    1.6877 N   0  0  0  0  0  0  0  0  0  0  0  0
    4.5040    1.0062    0.3746 C   0  0  0  0  0  0  0  0  0  0  0  0
    3.2232    1.0036   -0.0816 N   0  0  0  0  0  0  0  0  0  0  0  0
    2.8010    1.0039   -1.4903 C   0  0  0  0  0  0  0  0  0  0  0  0
    3.1211    2.3526   -2.1152 C   0  0  0  0  0  0  0  0  0  0  0  0
    2.5742    3.5325   -1.6214 C   0  0  0  0  0  0  0  0  0  0  0  0
    2.8657    4.7152   -2.1831 N   0  0  0  0  0  0  0  0  0  0  0  0
    3.6912    4.8066   -3.2366 C   0  0  0  0  0  0  0  0  0  0  0  0
    3.9966    6.0405   -3.8238 N   0  0  0  0  0  0  0  0  0  0  0  0
    5.0916    6.8988   -3.3470 C   0  0  0  0  0  0  0  0  0  0  0  0
    5.6185    7.7351   -4.5026 C   0  0  0  0  0  0  0  0  0  0  0  0
    4.6232    8.6003   -5.0440 O   0  0  0  0  0  0  0  0  0  0  0  0
    3.2962    8.0995   -4.9236 C   0  0  0  0  0  0  0  0  0  0  0  0
    3.2471    6.5797   -4.9671 C   0  0  0  0  0  0  0  0  0  0  0  0
    4.2662    3.6591   -3.7707 C   0  0  0  0  0  0  0  0  0  0  0  0
    5.0876    3.7210   -4.8144 F   0  0  0  0  0  0  0  0  0  0  0  0
    3.9803    2.4204   -3.2068 C   0  0  0  0  0  0  0  0  0  0  0  0
    5.7068    1.0103   -0.4351 C   0  0  0  0  0  0  0  0  0  0  0  0
    6.6048    2.0643   -0.3077 C   0  0  0  0  0  0  0  0  0  0  0  0
    7.7573    2.0630   -1.0854 C   0  0  0  0  0  0  0  0  0  0  0  0
    8.0145    1.0282   -1.9799 C   0  0  0  0  0  0  0  0  0  0  0  0
    7.1079   -0.0209   -2.0975 C   0  0  0  0  0  0  0  0  0  0  0  0
    5.9511   -0.0310   -1.3242 C   0  0  0  0  0  0  0  0  0  0  0  0
    9.1716    1.0321   -2.7502 C   0  0  0  0  0  0  0  0  0  0  0  0
   10.0741    2.0833   -2.6232 C   0  0  0  0  0  0  0  0  0  0  0  0
    9.8153    3.1177   -1.7307 C   0  0  0  0  0  0  0  0  0  0  0  0
    8.6590    3.1147   -0.9573 C   0  0  0  0  0  0  0  0  0  0  0  0
    0.2650    2.2731    0.9996 C   0  0  0  0  0  0  0  0  0  0  0  0
   -0.7439    2.2752   -0.1374 C   0  0  0  0  0  0  0  0  0  0  0  0
   -1.4539    3.5050   -0.1378 O   0  0  0  0  0  0  0  0  0  0  0  0
  1  2  1  0
  2  3  2  0
  3  4  1  0
  4  5  2  0
  5  6  1  0
  5  7  1  0
  7  8  2  0
  8  2  1  0
  4  9  1  0
  9 10  1  0
 10 11  1  0
 11 12  2  0
 12 13  1  0
 13 14  2  0
 14 15  1  0
 15 11  1  0
 15 16  1  0
 16 17  1  0
 17 18  2  0
 18 19  1  0
 19 20  2  0
 20 21  1  0
 21 22  1  0
 22 23  1  0
 23 24  1  0
 24 25  1  0
 25 26  1  0
 26 21  1  0
 20 27  1  0
 27 28  1  0
 27 29  2  0
 29 17  1  0
 14 30  1  0
 30 31  2  0
 31 32  1  0
 32 33  2  0
 33 34  1  0
 34 35  2  0
 35 30  1  0
 33 36  1  0
 36 37  2  0
 37 38  1  0
 38 39  2  0
 39 32  1  0
 10 40  1  0
 40 41  1  0
 41 42  1  0
M  END
$$$$
s_2____11687950____14411970____6887158
     RDKit          3D

 37 41  0  0  0  0  0  0  0  0999 V2000
    8.8284    6.6374    4.0736 S   0  0  0  0  0  0  0  0  0  0  0  0
    8.0259    7.5628    4.8306 O   0  0  0  0  0  0  0  0  0  0  0  0
    9.9250    6.1772    4.8855 O   0  0  0  0  0  0  0  0  0  0  0  0
    9.4106    7.3828    2.7461 N   0  0  0  0  0  0  0  0  0  0  0  0
    7.8517    5.2797    3.5949 C   0  0  0  0  0  0  0  0  0  0  0  0
    8.0675    4.6778    2.3597 C   0  0  0  0  0  0  0  0  0  0  0  0
    7.2831    3.5932    1.9823 C   0  0  0  0  0  0  0  0  0  0  0  0
    6.2951    3.1226    2.8406 C   0  0  0  0  0  0  0  0  0  0  0  0
    5.5094    2.0301    2.4537 N   0  0  0  0  0  0  0  0  0  0  0  0
    4.2406    2.1295    2.4468 C   0  0  0  0  0  0  0  0  0  0  0  0
    3.3299    3.5681    2.4036 S   0  0  0  0  0  0  0  0  0  0  0  0
    1.7813    2.8529    2.4247 C   0  0  0  0  0  0  0  0  0  0  0  0
    2.0334    1.5154    2.4653 C   0  0  0  0  0  0  0  0  0  0  0  0
    3.3388    1.1121    2.4746 N   0  0  0  0  0  0  0  0  0  0  0  0
    3.7804   -0.2891    2.5193 C   0  0  0  0  0  0  0  0  0  0  0  0
    4.0464   -0.6908    3.9609 C   0  0  0  0  0  0  0  0  0  0  0  0
    4.4880   -2.0924    4.0056 N   0  0  0  0  0  0  0  0  0  0  0  0
    5.7367   -2.4966    3.9291 N   0  0  0  0  0  0  0  0  0  0  0  0
    5.7975   -3.8051    3.9996 C   0  0  0  0  0  0  0  0  0  0  0  0
    4.4673   -4.2591    4.1333 C   0  0  0  0  0  0  0  0  0  0  0  0
    3.6598   -3.1643    4.1375 C   0  0  0  0  0  0  0  0  0  0  0  0
    4.0217   -5.7097    4.2538 C   0  0  0  0  0  0  0  0  0  0  0  0
    3.2792   -5.9974    5.5465 C   0  0  0  0  0  0  0  0  0  0  0  0
    2.5448   -7.1760    5.2648 O   0  0  0  0  0  0  0  0  0  0  0  0
    2.3264   -7.2662    3.8650 C   0  0  0  0  0  0  0  0  0  0  0  0
    2.9371   -6.0277    3.2459 C   0  0  0  0  0  0  0  0  0  0  0  0
    0.9034    0.6099    2.4960 C   0  0  0  0  0  0  0  0  0  0  0  0
    0.3584    0.2077    3.7107 C   0  0  0  0  0  0  0  0  0  0  0  0
    0.8666    0.6479    4.8589 F   0  0  0  0  0  0  0  0  0  0  0  0
   -0.7271   -0.6620    3.7385 C   0  0  0  0  0  0  0  0  0  0  0  0
   -1.2612   -1.1242    2.5397 C   0  0  0  0  0  0  0  0  0  0  0  0
   -0.7149   -0.7206    1.3254 C   0  0  0  0  0  0  0  0  0  0  0  0
   -1.2356   -1.1705    0.1869 F   0  0  0  0  0  0  0  0  0  0  0  0
    0.3707    0.1491    1.2961 C   0  0  0  0  0  0  0  0  0  0  0  0
   -2.4476   -2.0756    2.5620 C   0  0  0  0  0  0  0  0  0  0  0  0
    6.0843    3.7290    4.0739 C   0  0  0  0  0  0  0  0  0  0  0  0
    6.8650    4.8142    4.4574 C   0  0  0  0  0  0  0  0  0  0  0  0
  1  2  2  0
  1  3  2  0
  1  4  1  0
  1  5  1  0
  5  6  2  0
  6  7  1  0
  7  8  2  0
  8  9  1  0
  9 10  2  0
 10 11  1  0
 11 12  1  0
 12 13  2  0
 13 14  1  0
 14 10  1  0
 14 15  1  0
 15 16  1  0
 16 17  1  0
 17 18  1  0
 18 19  2  0
 19 20  1  0
 20 21  2  0
 21 17  1  0
 20 22  1  0
 22 23  1  0
 23 24  1  0
 24 25  1  0
 25 26  1  0
 26 22  1  0
 13 27  1  0
 27 28  2  0
 28 29  1  0
 28 30  1  0
 30 31  2  0
 31 32  1  0
 32 33  1  0
 32 34  2  0
 34 27  1  0
 31 35  1  0
  8 36  1  0
 36 37  2  0
 37  5  1  0
M  END
$$$$
m_273170____10756572____10764088____10755784
     RDKit          3D

 40 44  0  0  0  0  0  0  0  0999 V2000
    4.4639   -3.7888   -4.1528 S   0  0  0  0  0  0  0  0  0  0  0  0
    4.2423   -3.7194   -5.5739 O   0  0  0  0  0  0  0  0  0  0  0  0
    5.8752   -3.6970   -3.8819 O   0  0  0  0  0  0  0  0  0  0  0  0
    3.8921   -5.2047   -3.5823 N   0  0  0  0  0  0  0  0  0  0  0  0
    4.5911   -6.3169   -4.2421 C   0  0  0  0  0  0  0  0  0  0  0  0
    3.6364   -2.4722   -3.3717 C   0  0  0  0  0  0  0  0  0  0  0  0
    3.5542   -2.4359   -1.9833 C   0  0  0  0  0  0  0  0  0  0  0  0
    2.8897   -1.3776   -1.3725 C   0  0  0  0  0  0  0  0  0  0  0  0
    2.3122   -0.3635   -2.1291 C   0  0  0  0  0  0  0  0  0  0  0  0
    2.4059   -0.4188   -3.5159 C   0  0  0  0  0  0  0  0  0  0  0  0
    3.0655   -1.4684   -4.1471 C   0  0  0  0  0  0  0  0  0  0  0  0
    2.8010   -1.3388    0.1446 C   0  0  0  0  0  0  0  0  0  0  0  0
    3.2232   -0.0152    0.6266 N   0  0  0  0  0  0  0  0  0  0  0  0
    2.4017    1.0000    1.0000 C   0  0  0  0  0  0  0  0  0  0  0  0
    3.1912    1.9825    1.3572 N   0  0  0  0  0  0  0  0  0  0  0  0
    4.4560    1.6477    1.2313 N   0  0  0  0  0  0  0  0  0  0  0  0
    4.5040    0.4144    0.7803 C   0  0  0  0  0  0  0  0  0  0  0  0
    5.7072   -0.3453    0.4994 C   0  0  0  0  0  0  0  0  0  0  0  0
    5.6850   -1.6778    0.3262 N   0  0  0  0  0  0  0  0  0  0  0  0
    6.7936   -2.3919    0.0655 C   0  0  0  0  0  0  0  0  0  0  0  0
    8.0258   -1.7524   -0.0337 C   0  0  0  0  0  0  0  0  0  0  0  0
    8.0788   -0.3737    0.1417 C   0  0  0  0  0  0  0  0  0  0  0  0
    6.9147    0.3387    0.4100 C   0  0  0  0  0  0  0  0  0  0  0  0
    9.1971   -2.4523   -0.3037 C   0  0  0  0  0  0  0  0  0  0  0  0
    9.1356   -3.8310   -0.4789 C   0  0  0  0  0  0  0  0  0  0  0  0
    7.9143   -4.4901   -0.3833 C   0  0  0  0  0  0  0  0  0  0  0  0
    6.7547   -3.7706   -0.1131 C   0  0  0  0  0  0  0  0  0  0  0  0
    1.0000    1.0000    1.0000 N   0  0  0  0  0  0  0  0  0  0  0  0
    0.2650   -0.2731    1.0004 C   0  0  0  0  0  0  0  0  0  0  0  0
    0.0116   -0.7115    2.4343 C   0  0  0  0  0  0  0  0  0  0  0  0
   -1.1102   -0.5591    3.0938 O   0  0  0  0  0  0  0  0  0  0  0  0
   -0.9872   -1.0295    4.2615 N   0  0  0  0  0  0  0  0  0  0  0  0
    0.2263   -1.5050    4.3874 C   0  0  0  0  0  0  0  0  0  0  0  0
    0.8835   -1.3039    3.2122 N   0  0  0  0  0  0  0  0  0  0  0  0
    0.7998   -2.1624    5.6325 C   0  0  0  0  0  0  0  0  0  0  0  0
    0.3911   -3.5214    5.6812 O   0  0  0  0  0  0  0  0  0  0  0  0
    0.9268   -4.1353    6.8442 C   0  0  0  0  0  0  0  0  0  0  0  0
    0.4893   -5.5901    6.8964 C   0  0  0  0  0  0  0  0  0  0  0  0
    2.3175   -2.0909    5.5898 C   0  0  0  0  0  0  0  0  0  0  0  0
    0.2650    2.2731    0.9996 C   0  0  0  0  0  0  0  0  0  0  0  0
  1  2  2  0
  1  3  2  0
  1  4  1  0
  4  5  1  0
  1  6  1  0
  6  7  2  0
  7  8  1  0
  8  9  2  0
  9 10  1  0
 10 11  2  0
 11  6  1  0
  8 12  1  0
 12 13  1  0
 13 14  1  0
 14 15  2  0
 15 16  1  0
 16 17  2  0
 17 13  1  0
 17 18  1  0
 18 19  2  0
 19 20  1  0
 20 21  2  0
 21 22  1  0
 22 23  2  0
 23 18  1  0
 21 24  1  0
 24 25  2  0
 25 26  1  0
 26 27  2  0
 27 20  1  0
 14 28  1  0
 28 29  1  0
 29 30  1  0
 30 31  1  0
 31 32  1  0
 32 33  2  0
 33 34  1  0
 30 34  2  0
 33 35  1  0
 35 36  1  0
 36 37  1  0
 37 38  1  0
 35 39  1  0
 28 40  1  0
M  END
$$$$
s_270196____10336828____11682542
     RDKit          3D

 37 42  0  0  0  0  0  0  0  0999 V2000
   -3.1132    4.5479    9.4605 F   0  0  0  0  0  0  0  0  0  0  0  0
   -4.3840    4.2338    9.2245 C   0  0  0  0  0  0  0  0  0  0  0  0
   -4.8137    4.0030    7.9209 C   0  0  0  0  0  0  0  0  0  0  0  0
   -3.8760    4.1056    6.8197 C   0  0  0  0  0  0  0  0  0  0  0  0
   -3.9119    3.1615    5.7987 C   0  0  0  0  0  0  0  0  0  0  0  0
   -3.0144    3.2571    4.7402 C   0  0  0  0  0  0  0  0  0  0  0  0
   -2.0916    4.2981    4.7172 C   0  0  0  0  0  0  0  0  0  0  0  0
   -1.1550    4.4005    3.6144 C   0  0  0  0  0  0  0  0  0  0  0  0
   -1.4109    5.2703    2.6256 N   0  0  0  0  0  0  0  0  0  0  0  0
   -0.5817    5.4087    1.5803 C   0  0  0  0  0  0  0  0  0  0  0  0
    0.5766    4.6392    1.5037 C   0  0  0  0  0  0  0  0  0  0  0  0
    0.8627    3.7287    2.5208 C   0  0  0  0  0  0  0  0  0  0  0  0
   -0.0143    3.6045    3.5943 C   0  0  0  0  0  0  0  0  0  0  0  0
    0.2623    2.6232    4.7229 C   0  0  0  0  0  0  0  0  0  0  0  0
    2.0505    2.8931    2.5095 C   0  0  0  0  0  0  0  0  0  0  0  0
    3.2897    3.3251    2.4953 O   0  0  0  0  0  0  0  0  0  0  0  0
    4.0828    2.3380    2.4895 N   0  0  0  0  0  0  0  0  0  0  0  0
    3.3784    1.2345    2.4974 C   0  0  0  0  0  0  0  0  0  0  0  0
    2.0616    1.5822    2.5110 N   0  0  0  0  0  0  0  0  0  0  0  0
    3.9317   -0.1800    2.4921 C   0  0  0  0  0  0  0  0  0  0  0  0
    3.4931   -0.8642    3.6565 O   0  0  0  0  0  0  0  0  0  0  0  0
    3.9563   -0.1791    4.8108 C   0  0  0  0  0  0  0  0  0  0  0  0
    3.4356   -0.9137    1.2560 C   0  0  0  0  0  0  0  0  0  0  0  0
    3.9633   -2.3181    1.2166 C   0  0  0  0  0  0  0  0  0  0  0  0
    4.5500   -1.2703    0.3148 C   0  0  0  0  0  0  0  0  0  0  0  0
    5.4508   -0.1298    2.4759 C   0  0  0  0  0  0  0  0  0  0  0  0
    1.4142    4.8102    0.4036 C   0  0  0  0  0  0  0  0  0  0  0  0
    1.1250    5.7186   -0.6070 C   0  0  0  0  0  0  0  0  0  0  0  0
    1.9704    5.8288   -1.6275 F   0  0  0  0  0  0  0  0  0  0  0  0
   -0.0348    6.4818   -0.5202 C   0  0  0  0  0  0  0  0  0  0  0  0
   -0.8800    6.3209    0.5730 C   0  0  0  0  0  0  0  0  0  0  0  0
   -2.0552    5.2426    5.7381 C   0  0  0  0  0  0  0  0  0  0  0  0
   -2.9532    5.1462    6.7966 C   0  0  0  0  0  0  0  0  0  0  0  0
   -6.1421    3.6749    7.6744 C   0  0  0  0  0  0  0  0  0  0  0  0
   -7.0416    3.5758    8.7308 C   0  0  0  0  0  0  0  0  0  0  0  0
   -6.6122    3.8063   10.0340 C   0  0  0  0  0  0  0  0  0  0  0  0
   -5.2835    4.1348   10.2806 C   0  0  0  0  0  0  0  0  0  0  0  0
  1  2  1  0
  2  3  2  0
  3  4  1  0
  4  5  2  0
  5  6  1  0
  6  7  2  0
  7  8  1  0
  8  9  2  0
  9 10  1  0
 10 11  2  0
 11 12  1  0
 12 13  2  0
 13  8  1  0
 13 14  1  0
 12 15  1  0
 15 16  1  0
 16 17  1  0
 17 18  2  0
 18 19  1  0
 15 19  2  0
 18 20  1  0
 20 21  1  0
 21 22  1  0
 20 23  1  0
 23 24  1  0
 24 25  1  0
 25 23  1  0
 20 26  1  0
 11 27  1  0
 27 28  2  0
 28 29  1  0
 28 30  1  0
 30 31  2  0
 31 10  1  0
  7 32  1  0
 32 33  2  0
 33  4  1  0
  3 34  1  0
 34 35  2  0
 35 36  1  0
 36 37  2  0
 37  2  1  0
M  END
$$$$
m_273170____10756572____10765316____10766638
     RDKit          3D

 40 45  0  0  0  0  0  0  0  0999 V2000
    0.4648    3.7275    2.5286 S   0  0  0  0  0  0  0  0  0  0  0  0
   -0.5215    2.9336    3.2145 O   0  0  0  0  0  0  0  0  0  0  0  0
    0.6266    4.9857    3.2099 O   0  0  0  0  0  0  0  0  0  0  0  0
   -0.0243    3.9976    0.9974 N   0  0  0  0  0  0  0  0  0  0  0  0
    0.9826    4.8080    0.2972 C   0  0  0  0  0  0  0  0  0  0  0  0
    1.9834    2.8778    2.5111 C   0  0  0  0  0  0  0  0  0  0  0  0
    3.1753    3.5954    2.5018 C   0  0  0  0  0  0  0  0  0  0  0  0
    4.3816    2.9033    2.4878 C   0  0  0  0  0  0  0  0  0  0  0  0
    4.4082    1.5127    2.4838 C   0  0  0  0  0  0  0  0  0  0  0  0
    3.2052    0.8142    2.4933 C   0  0  0  0  0  0  0  0  0  0  0  0
    1.9876    1.4868    2.5069 C   0  0  0  0  0  0  0  0  0  0  0  0
    5.6831    3.6886    2.4782 C   0  0  0  0  0  0  0  0  0  0  0  0
    6.5734    3.1749    3.5300 N   0  0  0  0  0  0  0  0  0  0  0  0
    6.3955    3.3173    4.8690 C   0  0  0  0  0  0  0  0  0  0  0  0
    7.4138    2.7121    5.4287 N   0  0  0  0  0  0  0  0  0  0  0  0
    8.2191    2.1993    4.5252 N   0  0  0  0  0  0  0  0  0  0  0  0
    7.7214    2.4717    3.3400 C   0  0  0  0  0  0  0  0  0  0  0  0
    8.2966    2.0890    2.0642 C   0  0  0  0  0  0  0  0  0  0  0  0
    8.0866    0.8870    1.4424 N   0  0  0  0  0  0  0  0  0  0  0  0
    8.6947    0.7284    0.2937 C   0  0  0  0  0  0  0  0  0  0  0  0
    9.5665    2.1628    0.0123 S   0  0  0  0  0  0  0  0  0  0  0  0
    9.1072    2.9789    1.4348 C   0  0  0  0  0  0  0  0  0  0  0  0
    8.6529   -0.3940   -0.5418 N   0  0  0  0  0  0  0  0  0  0  0  0
    9.4196   -0.3838   -1.7975 C   0  0  0  0  0  0  0  0  0  0  0  0
    9.9205   -1.7780   -2.1417 C   0  0  0  0  0  0  0  0  0  0  0  0
    8.8955   -2.7515   -1.9888 O   0  0  0  0  0  0  0  0  0  0  0  0
    8.4983   -2.8544   -0.6276 C   0  0  0  0  0  0  0  0  0  0  0  0
    7.8624   -1.5646   -0.1318 C   0  0  0  0  0  0  0  0  0  0  0  0
    5.3452    3.9769    5.5183 N   0  0  0  0  0  0  0  0  0  0  0  0
    4.0953    3.3147    5.9264 C   0  0  0  0  0  0  0  0  0  0  0  0
    3.8918    3.6569    7.3887 C   0  0  0  0  0  0  0  0  0  0  0  0
    3.0514    3.0227    8.0034 O   0  0  0  0  0  0  0  0  0  0  0  0
    4.6278    4.6530    8.0429 N   0  0  0  0  0  0  0  0  0  0  0  0
    4.3519    4.9350    9.3867 C   0  0  0  0  0  0  0  0  0  0  0  0
    2.8917    5.5625    9.9898 S   0  0  0  0  0  0  0  0  0  0  0  0
    3.3321    5.6235   11.6374 C   0  0  0  0  0  0  0  0  0  0  0  0
    4.6107    5.1538   11.6848 C   0  0  0  0  0  0  0  0  0  0  0  0
    5.1930    4.7622   10.4469 C   0  0  0  0  0  0  0  0  0  0  0  0
    5.6849    5.4116    7.3640 C   0  0  0  0  0  0  0  0  0  0  0  0
    5.3519    5.3967    5.8822 C   0  0  0  0  0  0  0  0  0  0  0  0
  1  2  2  0
  1  3  2  0
  1  4  1  0
  4  5  1  0
  1  6  1  0
  6  7  2  0
  7  8  1  0
  8  9  2  0
  9 10  1  0
 10 11  2  0
 11  6  1  0
  8 12  1  0
 12 13  1  0
 13 14  1  0
 14 15  2  0
 15 16  1  0
 16 17  2  0
 17 13  1  0
 17 18  1  0
 18 19  1  0
 19 20  2  0
 20 21  1  0
 21 22  1  0
 18 22  2  0
 20 23  1  0
 23 24  1  0
 24 25  1  0
 25 26  1  0
 26 27  1  0
 27 28  1  0
 28 23  1  0
 14 29  1  0
 29 30  1  0
 30 31  1  0
 31 32  2  0
 31 33  1  0
 33 34  1  0
 34 35  1  0
 35 36  1  0
 36 37  2  0
 37 38  1  0
 34 38  2  0
 33 39  1  0
 39 40  1  0
 40 29  1  0
M  END
$$$$
m_270942____15422214____10151322____14068396
     RDKit          3D

 40 44  0  0  0  0  0  0  0  0999 V2000
    0.2239    8.7666   -1.8073 S   0  0  0  0  0  0  0  0  0  0  0  0
    0.2786   10.1390   -1.3748 O   0  0  0  0  0  0  0  0  0  0  0  0
    1.2685    8.5242   -2.7684 O   0  0  0  0  0  0  0  0  0  0  0  0
   -1.2248    8.4702   -2.4930 N   0  0  0  0  0  0  0  0  0  0  0  0
    0.4423    7.7176   -0.4366 C   0  0  0  0  0  0  0  0  0  0  0  0
    1.5242    6.8447   -0.3988 C   0  0  0  0  0  0  0  0  0  0  0  0
    1.7009    6.0048    0.6960 C   0  0  0  0  0  0  0  0  0  0  0  0
    0.7864    6.0508    1.7428 C   0  0  0  0  0  0  0  0  0  0  0  0
   -0.2958    6.9239    1.7041 C   0  0  0  0  0  0  0  0  0  0  0  0
   -0.4727    7.7641    0.6103 C   0  0  0  0  0  0  0  0  0  0  0  0
    0.9743    5.1346    2.9407 C   0  0  0  0  0  0  0  0  0  0  0  0
    0.8853    3.7336    2.5048 N   0  0  0  0  0  0  0  0  0  0  0  0
    2.0315    2.9267    2.5008 C   0  0  0  0  0  0  0  0  0  0  0  0
    3.2789    3.3271    2.4974 N   0  0  0  0  0  0  0  0  0  0  0  0
    4.1071    2.3065    2.4903 N   0  0  0  0  0  0  0  0  0  0  0  0
    3.3905    1.2051    2.4893 C   0  0  0  0  0  0  0  0  0  0  0  0
    2.0806    1.5694    2.4959 N   0  0  0  0  0  0  0  0  0  0  0  0
    0.9245    0.6605    2.4981 C   0  0  0  0  0  0  0  0  0  0  0  0
    0.6118    0.2466    3.9175 C   0  0  0  0  0  0  0  0  0  0  0  0
    0.0939    1.0981    4.8503 N   0  0  0  0  0  0  0  0  0  0  0  0
   -0.1113    0.5680    6.0358 C   0  0  0  0  0  0  0  0  0  0  0  0
    0.3758   -1.0573    5.9438 S   0  0  0  0  0  0  0  0  0  0  0  0
    0.8529   -1.0337    4.3068 C   0  0  0  0  0  0  0  0  0  0  0  0
   -0.6224    1.1728    7.1827 N   0  0  0  0  0  0  0  0  0  0  0  0
   -1.9020    0.9000    7.5887 C   0  0  0  0  0  0  0  0  0  0  0  0
   -2.5829    0.1403    6.9569 O   0  0  0  0  0  0  0  0  0  0  0  0
   -2.4594    1.5596    8.8396 C   0  0  0  0  0  0  0  0  0  0  0  0
    0.2117    2.1034    7.9567 C   0  0  0  0  0  0  0  0  0  0  0  0
    3.9087   -0.1513    2.4826 C   0  0  0  0  0  0  0  0  0  0  0  0
    3.9856   -0.9295    1.3267 C   0  0  0  0  0  0  0  0  0  0  0  0
    4.4967   -2.2229    1.3997 C   0  0  0  0  0  0  0  0  0  0  0  0
    4.9171   -2.6974    2.6385 C   0  0  0  0  0  0  0  0  0  0  0  0
    4.8329   -1.9319    3.7369 N   0  0  0  0  0  0  0  0  0  0  0  0
    4.3440   -0.6836    3.6913 C   0  0  0  0  0  0  0  0  0  0  0  0
    4.5899   -3.0265    0.2683 C   0  0  0  0  0  0  0  0  0  0  0  0
    4.1646   -2.5276   -0.9582 C   0  0  0  0  0  0  0  0  0  0  0  0
    3.6499   -1.2408   -1.0655 C   0  0  0  0  0  0  0  0  0  0  0  0
    3.5680   -0.4602    0.0823 C   0  0  0  0  0  0  0  0  0  0  0  0
   -0.4056    3.1787    2.0729 C   0  0  0  0  0  0  0  0  0  0  0  0
   -0.1101    5.4153    3.9683 C   0  0  0  0  0  0  0  0  0  0  0  0
  1  2  2  0
  1  3  2  0
  1  4  1  0
  1  5  1  0
  5  6  2  0
  6  7  1  0
  7  8  2  0
  8  9  1  0
  9 10  2  0
 10  5  1  0
  8 11  1  0
 11 12  1  0
 12 13  1  0
 13 14  2  0
 14 15  1  0
 15 16  2  0
 16 17  1  0
 17 13  1  0
 17 18  1  0
 18 19  1  0
 19 20  1  0
 20 21  2  0
 21 22  1  0
 22 23  1  0
 19 23  2  0
 21 24  1  0
 24 25  1  0
 25 26  2  0
 25 27  1  0
 24 28  1  0
 16 29  1  0
 29 30  2  0
 30 31  1  0
 31 32  2  0
 32 33  1  0
 33 34  2  0
 34 29  1  0
 31 35  1  0
 35 36  2  0
 36 37  1  0
 37 38  2  0
 38 30  1  0
 12 39  1  0
 11 40  1  0
M  END
$$$$
m_273170____10759510____10760760____10766638
     RDKit          3D

 41 47  0  0  0  0  0  0  0  0999 V2000
    5.3989   -2.0192    2.2162 S   0  0  0  0  0  0  0  0  0  0  0  0
    3.8395   -2.3879    2.7898 C   0  0  0  0  0  0  0  0  0  0  0  0
    3.1971   -1.2494    2.8665 N   0  0  0  0  0  0  0  0  0  0  0  0
    3.9050   -0.1416    2.4827 C   0  0  0  0  0  0  0  0  0  0  0  0
    3.3905    1.2051    2.4893 C   0  0  0  0  0  0  0  0  0  0  0  0
    4.1071    2.3065    2.4903 N   0  0  0  0  0  0  0  0  0  0  0  0
    3.2789    3.3271    2.4974 N   0  0  0  0  0  0  0  0  0  0  0  0
    2.0315    2.9267    2.5008 C   0  0  0  0  0  0  0  0  0  0  0  0
    2.0806    1.5694    2.4959 N   0  0  0  0  0  0  0  0  0  0  0  0
    0.9245    0.6605    2.4981 C   0  0  0  0  0  0  0  0  0  0  0  0
    0.6735    0.1569    1.0870 C   0  0  0  0  0  0  0  0  0  0  0  0
    0.5218   -1.2067    0.8605 C   0  0  0  0  0  0  0  0  0  0  0  0
    0.2898   -1.6778   -0.4279 C   0  0  0  0  0  0  0  0  0  0  0  0
    0.2178   -0.7762   -1.4845 C   0  0  0  0  0  0  0  0  0  0  0  0
    0.3683    0.5868   -1.2574 C   0  0  0  0  0  0  0  0  0  0  0  0
    0.5962    1.0598    0.0317 C   0  0  0  0  0  0  0  0  0  0  0  0
   -0.0222   -1.2652   -2.9052 C   0  0  0  0  0  0  0  0  0  0  0  0
    0.6026   -2.6341   -3.1199 C   0  0  0  0  0  0  0  0  0  0  0  0
    0.2771   -3.5634   -2.0259 N   0  0  0  0  0  0  0  0  0  0  0  0
    0.1105   -3.0852   -0.7201 C   0  0  0  0  0  0  0  0  0  0  0  0
   -0.2210   -3.8858    0.1413 O   0  0  0  0  0  0  0  0  0  0  0  0
    0.8853    3.7336    2.5048 N   0  0  0  0  0  0  0  0  0  0  0  0
   -0.4030    3.1782    2.9437 C   0  0  0  0  0  0  0  0  0  0  0  0
   -0.5608    3.3867    4.4405 C   0  0  0  0  0  0  0  0  0  0  0  0
   -0.8446    4.5230    5.0266 O   0  0  0  0  0  0  0  0  0  0  0  0
   -0.9064    4.3695    6.3348 C   0  0  0  0  0  0  0  0  0  0  0  0
   -0.6574    3.0582    6.6450 C   0  0  0  0  0  0  0  0  0  0  0  0
   -0.6876    2.6443    7.9764 C   0  0  0  0  0  0  0  0  0  0  0  0
   -0.9590    3.5429    9.0043 C   0  0  0  0  0  0  0  0  0  0  0  0
   -1.2056    4.8741    8.6864 C   0  0  0  0  0  0  0  0  0  0  0  0
   -1.1780    5.2754    7.3552 C   0  0  0  0  0  0  0  0  0  0  0  0
   -0.4328    2.4254    5.4003 C   0  0  0  0  0  0  0  0  0  0  0  0
   -1.5340    3.8825    2.2120 C   0  0  0  0  0  0  0  0  0  0  0  0
    0.9717    5.1351    2.0699 C   0  0  0  0  0  0  0  0  0  0  0  0
    5.1849   -0.3358    2.0717 C   0  0  0  0  0  0  0  0  0  0  0  0
    3.3567   -3.6583    3.1188 N   0  0  0  0  0  0  0  0  0  0  0  0
    1.9086   -3.8545    3.2892 C   0  0  0  0  0  0  0  0  0  0  0  0
    1.4923   -5.2500    2.8504 C   0  0  0  0  0  0  0  0  0  0  0  0
    2.3698   -6.2417    3.3685 O   0  0  0  0  0  0  0  0  0  0  0  0
    3.6769   -6.0872    2.8312 C   0  0  0  0  0  0  0  0  0  0  0  0
    4.3069   -4.7717    3.2630 C   0  0  0  0  0  0  0  0  0  0  0  0
  1  2  1  0
  2  3  2  0
  3  4  1  0
  4  5  1  0
  5  6  2  0
  6  7  1  0
  7  8  2  0
  8  9  1  0
  9  5  1  0
  9 10  1  0
 10 11  1  0
 11 12  2  0
 12 13  1  0
 13 14  2  0
 14 15  1  0
 15 16  2  0
 16 11  1  0
 14 17  1  0
 17 18  1  0
 18 19  1  0
 19 20  1  0
 20 13  1  0
 20 21  2  0
  8 22  1  0
 22 23  1  0
 23 24  1  0
 24 25  1  0
 25 26  1  0
 26 27  2  0
 27 28  1  0
 28 29  2  0
 29 30  1  0
 30 31  2  0
 31 26  1  0
 27 32  1  0
 24 32  2  0
 23 33  1  0
 22 34  1  0
  4 35  2  0
 35  1  1  0
  2 36  1  0
 36 37  1  0
 37 38  1  0
 38 39  1  0
 39 40  1  0
 40 41  1  0
 41 36  1  0
M  END
$$$$
m_273170____10756572____10764092____10766526
     RDKit          3D

 44 48  0  0  0  0  0  0  0  0999 V2000
    4.7317   -4.7052   -3.0407 S   0  0  0  0  0  0  0  0  0  0  0  0
    4.7110   -4.8573   -4.4725 O   0  0  0  0  0  0  0  0  0  0  0  0
    6.0956   -4.6194   -2.5868 O   0  0  0  0  0  0  0  0  0  0  0  0
    4.0081   -5.9907   -2.3474 N   0  0  0  0  0  0  0  0  0  0  0  0
    4.7268   -7.2177   -2.7203 C   0  0  0  0  0  0  0  0  0  0  0  0
    3.8809   -3.2527   -2.5993 C   0  0  0  0  0  0  0  0  0  0  0  0
    3.6881   -2.9476   -1.2557 C   0  0  0  0  0  0  0  0  0  0  0  0
    3.0063   -1.7835   -0.9174 C   0  0  0  0  0  0  0  0  0  0  0  0
    2.5200   -0.9282   -1.9005 C   0  0  0  0  0  0  0  0  0  0  0  0
    2.7235   -1.2518   -3.2380 C   0  0  0  0  0  0  0  0  0  0  0  0
    3.4024   -2.4113   -3.5982 C   0  0  0  0  0  0  0  0  0  0  0  0
    2.7968   -1.4510    0.5511 C   0  0  0  0  0  0  0  0  0  0  0  0
    3.2149   -0.0658    0.8039 N   0  0  0  0  0  0  0  0  0  0  0  0
    2.3988    1.0000    1.0000 C   0  0  0  0  0  0  0  0  0  0  0  0
    3.1798    2.0363    1.1836 N   0  0  0  0  0  0  0  0  0  0  0  0
    4.4443    1.6851    1.1237 N   0  0  0  0  0  0  0  0  0  0  0  0
    4.4927    0.3928    0.8918 C   0  0  0  0  0  0  0  0  0  0  0  0
    5.7577   -0.4384    0.7465 C   0  0  0  0  0  0  0  0  0  0  0  0
    6.6259   -0.1740    1.8387 O   0  0  0  0  0  0  0  0  0  0  0  0
    6.5057   -0.8806    2.9830 C   0  0  0  0  0  0  0  0  0  0  0  0
    7.4122   -0.7251    4.0272 C   0  0  0  0  0  0  0  0  0  0  0  0
    8.5133    0.2099    3.8982 C   0  0  0  0  0  0  0  0  0  0  0  0
    8.2621    1.5779    3.9217 C   0  0  0  0  0  0  0  0  0  0  0  0
    9.3211    2.4712    3.7967 C   0  0  0  0  0  0  0  0  0  0  0  0
   10.6197    1.9946    3.6510 C   0  0  0  0  0  0  0  0  0  0  0  0
   10.8587    0.6260    3.6294 C   0  0  0  0  0  0  0  0  0  0  0  0
    9.8083   -0.2775    3.7528 C   0  0  0  0  0  0  0  0  0  0  0  0
    7.2627   -1.4677    5.1946 C   0  0  0  0  0  0  0  0  0  0  0  0
    6.2073   -2.3652    5.3177 C   0  0  0  0  0  0  0  0  0  0  0  0
    5.3007   -2.5200    4.2741 C   0  0  0  0  0  0  0  0  0  0  0  0
    5.4498   -1.7778    3.1069 C   0  0  0  0  0  0  0  0  0  0  0  0
    1.0000    1.0000    1.0000 N   0  0  0  0  0  0  0  0  0  0  0  0
    0.2650   -0.2731    0.9989 C   0  0  0  0  0  0  0  0  0  0  0  0
   -0.2010   -0.5867    2.4014 C   0  0  0  0  0  0  0  0  0  0  0  0
   -1.5127   -0.5450    2.7876 N   0  0  0  0  0  0  0  0  0  0  0  0
   -1.7381   -0.8355    4.0429 C   0  0  0  0  0  0  0  0  0  0  0  0
   -0.2229   -1.1899    4.7354 S   0  0  0  0  0  0  0  0  0  0  0  0
    0.7195   -0.9345    3.3374 C   0  0  0  0  0  0  0  0  0  0  0  0
   -3.0520   -0.8789    4.8070 C   0  0  0  0  0  0  0  0  0  0  0  0
   -3.1114    0.2163    5.7090 O   0  0  0  0  0  0  0  0  0  0  0  0
   -4.3384    0.1757    6.4225 C   0  0  0  0  0  0  0  0  0  0  0  0
   -4.4021    1.3480    7.3880 C   0  0  0  0  0  0  0  0  0  0  0  0
   -4.2109   -0.7919    3.8274 C   0  0  0  0  0  0  0  0  0  0  0  0
    0.2650    2.2731    1.0011 C   0  0  0  0  0  0  0  0  0  0  0  0
  1  2  2  0
  1  3  2  0
  1  4  1  0
  4  5  1  0
  1  6  1  0
  6  7  2  0
  7  8  1  0
  8  9  2  0
  9 10  1  0
 10 11  2  0
 11  6  1  0
  8 12  1  0
 12 13  1  0
 13 14  1  0
 14 15  2  0
 15 16  1  0
 16 17  2  0
 17 13  1  0
 17 18  1  0
 18 19  1  0
 19 20  1  0
 20 21  1  0
 21 22  1  0
 22 23  2  0
 23 24  1  0
 24 25  2  0
 25 26  1  0
 26 27  2  0
 27 22  1  0
 21 28  2  0
 28 29  1  0
 29 30  2  0
 30 31  1  0
 31 20  2  0
 14 32  1  0
 32 33  1  0
 33 34  1  0
 34 35  1  0
 35 36  2  0
 36 37  1  0
 37 38  1  0
 34 38  2  0
 36 39  1  0
 39 40  1  0
 40 41  1  0
 41 42  1  0
 39 43  1  0
 32 44  1  0
M  END
$$$$
m_276910____14484388____14485638
     RDKit          3D

 26 30  0  0  0  0  0  0  0  0999 V2000
   -0.5903    5.6352    2.5049 S   0  0  0  0  0  0  0  0  0  0  0  0
   -1.3607    4.1176    2.5146 C   0  0  0  0  0  0  0  0  0  0  0  0
   -0.4066    3.2208    2.5134 N   0  0  0  0  0  0  0  0  0  0  0  0
    0.8712    3.7137    2.5120 C   0  0  0  0  0  0  0  0  0  0  0  0
    2.0641    2.9042    2.5102 C   0  0  0  0  0  0  0  0  0  0  0  0
    3.2933    3.3605    2.5088 N   0  0  0  0  0  0  0  0  0  0  0  0
    4.1226    2.3431    2.5084 N   0  0  0  0  0  0  0  0  0  0  0  0
    3.3651    1.2114    2.5113 C   0  0  0  0  0  0  0  0  0  0  0  0
    2.0976    1.5437    2.5111 N   0  0  0  0  0  0  0  0  0  0  0  0
    3.8780   -0.1453    2.5109 C   0  0  0  0  0  0  0  0  0  0  0  0
    5.2452   -0.4015    2.5112 C   0  0  0  0  0  0  0  0  0  0  0  0
    5.6938   -1.6664    2.5111 N   0  0  0  0  0  0  0  0  0  0  0  0
    4.8560   -2.7154    2.5113 C   0  0  0  0  0  0  0  0  0  0  0  0
    3.4783   -2.5106    2.5103 C   0  0  0  0  0  0  0  0  0  0  0  0
    2.9842   -1.2107    2.5101 C   0  0  0  0  0  0  0  0  0  0  0  0
    2.5835   -3.5754    2.5111 C   0  0  0  0  0  0  0  0  0  0  0  0
    3.0768   -4.8763    2.5118 C   0  0  0  0  0  0  0  0  0  0  0  0
    4.4499   -5.0994    2.5148 C   0  0  0  0  0  0  0  0  0  0  0  0
    5.3303   -4.0221    2.5127 C   0  0  0  0  0  0  0  0  0  0  0  0
    1.0142    5.0644    2.5075 C   0  0  0  0  0  0  0  0  0  0  0  0
   -2.7417    3.8886    2.5143 N   0  0  0  0  0  0  0  0  0  0  0  0
   -3.2403    2.5044    2.5234 C   0  0  0  0  0  0  0  0  0  0  0  0
   -4.5497    2.4017    3.2905 C   0  0  0  0  0  0  0  0  0  0  0  0
   -5.4511    3.4377    2.9219 O   0  0  0  0  0  0  0  0  0  0  0  0
   -4.9343    4.7094    3.2913 C   0  0  0  0  0  0  0  0  0  0  0  0
   -3.6596    5.0377    2.5289 C   0  0  0  0  0  0  0  0  0  0  0  0
  1  2  1  0
  2  3  2  0
  3  4  1  0
  4  5  1  0
  5  6  2  0
  6  7  1  0
  7  8  1  0
  8  9  2  0
  9  5  1  0
  8 10  1  0
 10 11  2  0
 11 12  1  0
 12 13  2  0
 13 14  1  0
 14 15  2  0
 15 10  1  0
 14 16  1  0
 16 17  2  0
 17 18  1  0
 18 19  2  0
 19 13  1  0
  4 20  2  0
 20  1  1  0
  2 21  1  0
 21 22  1  0
 22 23  1  0
 23 24  1  0
 24 25  1  0
 25 26  1  0
 26 21  1  0
M  END
$$$$
s_46____548782____7594472____15501176
     RDKit          3D

 35 39  0  0  0  0  0  0  0  0999 V2000
   -0.7749    3.5252   -1.1557 S   0  0  0  0  0  0  0  0  0  0  0  0
   -0.4038    2.8629    0.4017 C   0  0  0  0  0  0  0  0  0  0  0  0
    0.2158    3.8641    1.1462 N   0  0  0  0  0  0  0  0  0  0  0  0
    0.3810    5.0888    0.4990 C   0  0  0  0  0  0  0  0  0  0  0  0
    0.8993    6.0613    1.0242 O   0  0  0  0  0  0  0  0  0  0  0  0
   -0.1180    5.1035   -0.8579 C   0  0  0  0  0  0  0  0  0  0  0  0
   -0.0859    6.1149   -1.7093 C   0  0  0  0  0  0  0  0  0  0  0  0
    1.1344    6.4120   -2.4381 C   0  0  0  0  0  0  0  0  0  0  0  0
    1.2377    7.4630   -3.3504 C   0  0  0  0  0  0  0  0  0  0  0  0
    2.4436    7.6866   -4.0102 C   0  0  0  0  0  0  0  0  0  0  0  0
    3.5145    6.8427   -3.7317 C   0  0  0  0  0  0  0  0  0  0  0  0
    3.3922    5.8379   -2.8514 N   0  0  0  0  0  0  0  0  0  0  0  0
    2.2409    5.6030   -2.2042 C   0  0  0  0  0  0  0  0  0  0  0  0
    2.5837    8.7251   -4.9247 C   0  0  0  0  0  0  0  0  0  0  0  0
    1.4986    9.5554   -5.1837 C   0  0  0  0  0  0  0  0  0  0  0  0
    0.2811    9.3597   -4.5419 C   0  0  0  0  0  0  0  0  0  0  0  0
    0.1698    8.3132   -3.6331 C   0  0  0  0  0  0  0  0  0  0  0  0
    0.6568    3.6201    2.5262 C   0  0  0  0  0  0  0  0  0  0  0  0
    1.9845    2.8800    2.5105 C   0  0  0  0  0  0  0  0  0  0  0  0
    3.1749    3.5997    2.5020 C   0  0  0  0  0  0  0  0  0  0  0  0
    4.3868    2.9177    2.4867 C   0  0  0  0  0  0  0  0  0  0  0  0
    4.3946    1.5264    2.4811 C   0  0  0  0  0  0  0  0  0  0  0  0
    3.2033    0.8072    2.4921 C   0  0  0  0  0  0  0  0  0  0  0  0
    1.9911    1.4894    2.5059 C   0  0  0  0  0  0  0  0  0  0  0  0
    5.7226    0.7865    2.4629 C   0  0  0  0  0  0  0  0  0  0  0  0
    6.1666    0.5426    3.8428 N   0  0  0  0  0  0  0  0  0  0  0  0
    5.7961   -0.6075    4.4884 C   0  0  0  0  0  0  0  0  0  0  0  0
    5.1091   -1.4159    3.9274 O   0  0  0  0  0  0  0  0  0  0  0  0
    6.2552   -0.8598    5.9153 C   0  0  0  0  0  0  0  0  0  0  0  0
   -0.6669    1.6351    0.8066 C   0  0  0  0  0  0  0  0  0  0  0  0
   -1.8783    1.3678    1.6850 C   0  0  0  0  0  0  0  0  0  0  0  0
   -2.5952    2.2734    2.0101 O   0  0  0  0  0  0  0  0  0  0  0  0
   -2.1815   -0.0474    2.1517 C   0  0  0  0  0  0  0  0  0  0  0  0
   -2.4026   -0.9628    0.9831 C   0  0  0  0  0  0  0  0  0  0  0  0
   -3.5729   -0.4837    1.7932 C   0  0  0  0  0  0  0  0  0  0  0  0
  1  2  1  0
  2  3  1  0
  3  4  1  0
  4  5  2  0
  4  6  1  0
  6  1  1  0
  6  7  2  0
  7  8  1  0
  8  9  2  0
  9 10  1  0
 10 11  2  0
 11 12  1  0
 12 13  2  0
 13  8  1  0
 10 14  1  0
 14 15  2  0
 15 16  1  0
 16 17  2  0
 17  9  1  0
  3 18  1  0
 18 19  1  0
 19 20  2  0
 20 21  1  0
 21 22  2  0
 22 23  1  0
 23 24  2  0
 24 19  1  0
 22 25  1  0
 25 26  1  0
 26 27  1  0
 27 28  2  0
 27 29  1  0
  2 30  2  0
 30 31  1  0
 31 32  2  0
 31 33  1  0
 33 34  1  0
 34 35  1  0
 35 33  1  0
M  END
$$$$
s_42a____8624698____125168
     RDKit          3D

 40 45  0  0  0  0  0  0  0  0999 V2000
   -0.7080    7.3320   -0.1409 Cl  0  0  0  0  0  0  0  0  0  0  0  0
   -0.2461    6.1872   -1.4233 C   0  0  0  0  0  0  0  0  0  0  0  0
    0.5255    5.0682   -1.1281 C   0  0  0  0  0  0  0  0  0  0  0  0
    0.8792    4.1814   -2.1396 C   0  0  0  0  0  0  0  0  0  0  0  0
    0.4593    4.4176   -3.4443 C   0  0  0  0  0  0  0  0  0  0  0  0
   -0.3115    5.5382   -3.7339 C   0  0  0  0  0  0  0  0  0  0  0  0
   -0.6683    6.4288   -2.7266 C   0  0  0  0  0  0  0  0  0  0  0  0
    0.9815    4.8140    0.2998 C   0  0  0  0  0  0  0  0  0  0  0  0
   -0.0241    4.0000    0.9977 N   0  0  0  0  0  0  0  0  0  0  0  0
    0.4648    3.7275    2.5286 S   0  0  0  0  0  0  0  0  0  0  0  0
   -0.5203    2.9301    3.2123 O   0  0  0  0  0  0  0  0  0  0  0  0
    0.6237    4.9846    3.2127 O   0  0  0  0  0  0  0  0  0  0  0  0
    1.9848    2.8811    2.5100 C   0  0  0  0  0  0  0  0  0  0  0  0
    3.1740    3.6024    2.5029 C   0  0  0  0  0  0  0  0  0  0  0  0
    4.3836    2.9156    2.4883 C   0  0  0  0  0  0  0  0  0  0  0  0
    4.3937    1.5243    2.4800 C   0  0  0  0  0  0  0  0  0  0  0  0
    5.6574    0.8229    2.4637 C   0  0  0  0  0  0  0  0  0  0  0  0
    5.6553   -0.5110    2.4559 N   0  0  0  0  0  0  0  0  0  0  0  0
    6.8564   -1.0851    2.4434 C   0  0  0  0  0  0  0  0  0  0  0  0
    6.9720   -2.7811    2.4199 S   0  0  0  0  0  0  0  0  0  0  0  0
    8.6720   -2.7874    2.3755 C   0  0  0  0  0  0  0  0  0  0  0  0
    9.1353   -1.5323    2.3989 C   0  0  0  0  0  0  0  0  0  0  0  0
    8.1141   -0.5129    2.4380 C   0  0  0  0  0  0  0  0  0  0  0  0
    8.0554    0.8788    2.4408 C   0  0  0  0  0  0  0  0  0  0  0  0
    9.2767    1.6605    2.4267 C   0  0  0  0  0  0  0  0  0  0  0  0
    9.4272    2.6877    1.5007 C   0  0  0  0  0  0  0  0  0  0  0  0
   10.6008    3.4338    1.4910 C   0  0  0  0  0  0  0  0  0  0  0  0
   11.6083    3.1454    2.4062 C   0  0  0  0  0  0  0  0  0  0  0  0
   11.4559    2.1193    3.3337 C   0  0  0  0  0  0  0  0  0  0  0  0
   10.2826    1.3722    3.3425 C   0  0  0  0  0  0  0  0  0  0  0  0
   12.8896    3.9636    2.3896 C   0  0  0  0  0  0  0  0  0  0  0  0
   12.7573    5.0120    3.1972 F   0  0  0  0  0  0  0  0  0  0  0  0
   13.9037    3.2096    2.8043 F   0  0  0  0  0  0  0  0  0  0  0  0
   13.1282    4.3853    1.1510 F   0  0  0  0  0  0  0  0  0  0  0  0
    6.8394    1.5570    2.4549 C   0  0  0  0  0  0  0  0  0  0  0  0
   10.6302   -1.7798    2.3660 C   0  0  0  0  0  0  0  0  0  0  0  0
   10.8155   -3.1450    2.9901 C   0  0  0  0  0  0  0  0  0  0  0  0
    9.6994   -3.8926    2.3029 C   0  0  0  0  0  0  0  0  0  0  0  0
    3.2017    0.8072    2.4872 C   0  0  0  0  0  0  0  0  0  0  0  0
    1.9898    1.4900    2.5021 C   0  0  0  0  0  0  0  0  0  0  0  0
  1  2  1  0
  2  3  2  0
  3  4  1  0
  4  5  2  0
  5  6  1  0
  6  7  2  0
  7  2  1  0
  3  8  1  0
  8  9  1  0
  9 10  1  0
 10 11  2  0
 10 12  2  0
 10 13  1  0
 13 14  2  0
 14 15  1  0
 15 16  2  0
 16 17  1  0
 17 18  2  0
 18 19  1  0
 19 20  1  0
 20 21  1  0
 21 22  2  0
 22 23  1  0
 23 19  2  0
 23 24  1  0
 24 25  1  0
 25 26  2  0
 26 27  1  0
 27 28  2  0
 28 29  1  0
 29 30  2  0
 30 25  1  0
 28 31  1  0
 31 32  1  0
 31 33  1  0
 31 34  1  0
 24 35  2  0
 35 17  1  0
 22 36  1  0
 36 37  1  0
 37 38  1  0
 38 21  1  0
 16 39  1  0
 39 40  2  0
 40 13  1  0
M  END
$$$$
s_42a____8631722____87884
     RDKit          3D

 39 44  0  0  0  0  0  0  0  0999 V2000
   -0.2810    3.3352    3.7573 S   0  0  0  0  0  0  0  0  0  0  0  0
   -1.5443    3.9470    3.4359 O   0  0  0  0  0  0  0  0  0  0  0  0
   -0.4718    1.9241    3.9717 O   0  0  0  0  0  0  0  0  0  0  0  0
    0.7615    3.5615    2.5249 N   0  0  0  0  0  0  0  0  0  0  0  0
    1.9850    2.8822    2.5096 C   0  0  0  0  0  0  0  0  0  0  0  0
    3.1774    3.5986    2.4996 C   0  0  0  0  0  0  0  0  0  0  0  0
    4.3889    2.9151    2.4847 C   0  0  0  0  0  0  0  0  0  0  0  0
    4.3934    1.5238    2.4792 C   0  0  0  0  0  0  0  0  0  0  0  0
    5.6600    0.8215    2.4637 C   0  0  0  0  0  0  0  0  0  0  0  0
    6.8139    1.4828    2.6044 N   0  0  0  0  0  0  0  0  0  0  0  0
    7.9223    0.7537    2.5810 C   0  0  0  0  0  0  0  0  0  0  0  0
    9.4222    1.5563    2.7165 S   0  0  0  0  0  0  0  0  0  0  0  0
   10.3278    0.1303    2.5950 C   0  0  0  0  0  0  0  0  0  0  0  0
    9.5061   -0.9561    2.4818 C   0  0  0  0  0  0  0  0  0  0  0  0
    8.1209   -0.6077    2.4476 C   0  0  0  0  0  0  0  0  0  0  0  0
    6.8906   -1.2450    2.2909 C   0  0  0  0  0  0  0  0  0  0  0  0
    6.8579   -2.6838    2.1132 C   0  0  0  0  0  0  0  0  0  0  0  0
    6.3558   -3.4814    3.1357 C   0  0  0  0  0  0  0  0  0  0  0  0
    6.3213   -4.8629    2.9752 C   0  0  0  0  0  0  0  0  0  0  0  0
    6.7888   -5.4292    1.7939 C   0  0  0  0  0  0  0  0  0  0  0  0
    6.7580   -6.7686    1.6284 O   0  0  0  0  0  0  0  0  0  0  0  0
    5.9482   -7.5702    2.4758 C   0  0  0  0  0  0  0  0  0  0  0  0
    7.2912   -4.6308    0.7715 C   0  0  0  0  0  0  0  0  0  0  0  0
    7.3262   -3.2496    0.9318 C   0  0  0  0  0  0  0  0  0  0  0  0
    5.6795   -0.5584    2.2978 C   0  0  0  0  0  0  0  0  0  0  0  0
   10.2733   -2.2670    2.4232 C   0  0  0  0  0  0  0  0  0  0  0  0
   11.7433   -2.1185    2.0583 C   0  0  0  0  0  0  0  0  0  0  0  0
   12.3892   -1.0649    2.9446 C   0  0  0  0  0  0  0  0  0  0  0  0
   11.8311    0.3053    2.6065 C   0  0  0  0  0  0  0  0  0  0  0  0
   13.8885   -1.0319    2.6927 C   0  0  0  0  0  0  0  0  0  0  0  0
    3.2017    0.8073    2.4891 C   0  0  0  0  0  0  0  0  0  0  0  0
    1.9902    1.4907    2.5042 C   0  0  0  0  0  0  0  0  0  0  0  0
    0.3631    4.0594    5.2021 C   0  0  0  0  0  0  0  0  0  0  0  0
    0.0691    5.3851    5.5018 C   0  0  0  0  0  0  0  0  0  0  0  0
    0.5829    5.9665    6.6565 C   0  0  0  0  0  0  0  0  0  0  0  0
    1.3889    5.2080    7.4989 C   0  0  0  0  0  0  0  0  0  0  0  0
    1.6829    3.8821    7.1982 C   0  0  0  0  0  0  0  0  0  0  0  0
    1.1691    3.3003    6.0445 C   0  0  0  0  0  0  0  0  0  0  0  0
    1.9537    5.8387    8.7610 C   0  0  0  0  0  0  0  0  0  0  0  0
  1  2  2  0
  1  3  2  0
  1  4  1  0
  4  5  1  0
  5  6  2  0
  6  7  1  0
  7  8  2  0
  8  9  1  0
  9 10  2  0
 10 11  1  0
 11 12  1  0
 12 13  1  0
 13 14  2  0
 14 15  1  0
 15 11  2  0
 15 16  1  0
 16 17  1  0
 17 18  2  0
 18 19  1  0
 19 20  2  0
 20 21  1  0
 21 22  1  0
 20 23  1  0
 23 24  2  0
 24 17  1  0
 16 25  2  0
 25  9  1  0
 14 26  1  0
 26 27  1  0
 27 28  1  0
 28 29  1  0
 29 13  1  0
 28 30  1  0
  8 31  1  0
 31 32  2  0
 32  5  1  0
  1 33  1  0
 33 34  2  0
 34 35  1  0
 35 36  2  0
 36 37  1  0
 37 38  2  0
 38 33  1  0
 36 39  1  0
M  END
$$$$
s_42a____8631722____125005
     RDKit          3D

 42 47  0  0  0  0  0  0  0  0999 V2000
    1.0000    1.0000    1.0000 S   0  0  0  0  0  0  0  0  0  0  0  0
   -0.2684    1.6482    0.7889 O   0  0  0  0  0  0  0  0  0  0  0  0
    0.7889   -0.2684    1.6482 O   0  0  0  0  0  0  0  0  0  0  0  0
    1.7337    0.7610   -0.4358 N   0  0  0  0  0  0  0  0  0  0  0  0
    1.9492    2.0559   -1.0975 C   0  0  0  0  0  0  0  0  0  0  0  0
    2.6335    1.8330   -2.4366 C   0  0  0  0  0  0  0  0  0  0  0  0
    1.8593    1.6384   -3.5762 C   0  0  0  0  0  0  0  0  0  0  0  0
    2.4799    1.4354   -4.8041 C   0  0  0  0  0  0  0  0  0  0  0  0
    3.8692    1.4307   -4.8765 C   0  0  0  0  0  0  0  0  0  0  0  0
    4.6438    1.6242   -3.7379 C   0  0  0  0  0  0  0  0  0  0  0  0
    4.0231    1.8258   -2.5096 C   0  0  0  0  0  0  0  0  0  0  0  0
    4.5217    1.2205   -6.1543 C   0  0  0  0  0  0  0  0  0  0  0  0
    5.7297    1.2145   -6.2231 O   0  0  0  0  0  0  0  0  0  0  0  0
    3.8361    1.0455   -7.1848 O   0  0  0  0  0  0  0  0  0  0  0  0
    2.0045    2.0045    2.0045 C   0  0  0  0  0  0  0  0  0  0  0  0
    1.8584    3.3870    1.9602 C   0  0  0  0  0  0  0  0  0  0  0  0
    2.6665    4.1805    2.7676 C   0  0  0  0  0  0  0  0  0  0  0  0
    3.6073    3.5898    3.6054 C   0  0  0  0  0  0  0  0  0  0  0  0
    4.4432    4.4276    4.4402 C   0  0  0  0  0  0  0  0  0  0  0  0
    5.5198    5.0416    3.9378 N   0  0  0  0  0  0  0  0  0  0  0  0
    6.2218    5.7910    4.7782 C   0  0  0  0  0  0  0  0  0  0  0  0
    7.6273    6.5628    4.1942 S   0  0  0  0  0  0  0  0  0  0  0  0
    8.0014    7.2676    5.6881 C   0  0  0  0  0  0  0  0  0  0  0  0
    7.0563    6.9496    6.6229 C   0  0  0  0  0  0  0  0  0  0  0  0
    6.0410    6.0805    6.1177 C   0  0  0  0  0  0  0  0  0  0  0  0
    4.9166    5.4063    6.5926 C   0  0  0  0  0  0  0  0  0  0  0  0
    4.5444    5.5482    7.9869 C   0  0  0  0  0  0  0  0  0  0  0  0
    3.3955    6.2609    8.3122 C   0  0  0  0  0  0  0  0  0  0  0  0
    3.0306    6.4036    9.6472 C   0  0  0  0  0  0  0  0  0  0  0  0
    3.8191    5.8311   10.6398 C   0  0  0  0  0  0  0  0  0  0  0  0
    3.4723    5.9629   11.9377 O   0  0  0  0  0  0  0  0  0  0  0  0
    2.9125    7.1823   12.4028 C   0  0  0  0  0  0  0  0  0  0  0  0
    4.9685    5.1185   10.3138 C   0  0  0  0  0  0  0  0  0  0  0  0
    5.3337    4.9760    8.9792 C   0  0  0  0  0  0  0  0  0  0  0  0
    4.1257    4.5956    5.7830 C   0  0  0  0  0  0  0  0  0  0  0  0
    7.3208    7.6040    7.9691 C   0  0  0  0  0  0  0  0  0  0  0  0
    8.7489    8.0942    8.1593 C   0  0  0  0  0  0  0  0  0  0  0  0
    9.1637    8.9440    6.9683 C   0  0  0  0  0  0  0  0  0  0  0  0
    9.2817    8.0736    5.7306 C   0  0  0  0  0  0  0  0  0  0  0  0
   10.5263    9.5657    7.2316 C   0  0  0  0  0  0  0  0  0  0  0  0
    3.7498    2.2066    3.6463 C   0  0  0  0  0  0  0  0  0  0  0  0
    2.9434    1.4091    2.8407 C   0  0  0  0  0  0  0  0  0  0  0  0
  1  2  2  0
  1  3  2  0
  1  4  1  0
  4  5  1  0
  5  6  1  0
  6  7  2  0
  7  8  1  0
  8  9  2  0
  9 10  1  0
 10 11  2  0
 11  6  1  0
  9 12  1  0
 12 13  1  0
 12 14  2  0
  1 15  1  0
 15 16  2  0
 16 17  1  0
 17 18  2  0
 18 19  1  0
 19 20  2  0
 20 21  1  0
 21 22  1  0
 22 23  1  0
 23 24  2  0
 24 25  1  0
 25 21  2  0
 25 26  1  0
 26 27  1  0
 27 28  2  0
 28 29  1  0
 29 30  2  0
 30 31  1  0
 31 32  1  0
 30 33  1  0
 33 34  2  0
 34 27  1  0
 26 35  2  0
 35 19  1  0
 24 36  1  0
 36 37  1  0
 37 38  1  0
 38 39  1  0
 39 23  1  0
 38 40  1  0
 18 41  1  0
 41 42  2  0
 42 15  1  0
M  CHG  1  13  -1
M  END
$$$$
s_42a____8624686____125209
     RDKit          3D

 38 43  0  0  0  0  0  0  0  0999 V2000
    1.0000    1.0000    1.0000 S   0  0  0  0  0  0  0  0  0  0  0  0
   -0.2684    1.6482    0.7889 O   0  0  0  0  0  0  0  0  0  0  0  0
    0.7889   -0.2684    1.6482 O   0  0  0  0  0  0  0  0  0  0  0  0
    1.7337    0.7610   -0.4358 N   0  0  0  0  0  0  0  0  0  0  0  0
    2.8173   -0.1201   -0.5300 C   0  0  0  0  0  0  0  0  0  0  0  0
    2.6059   -1.4062   -1.0167 C   0  0  0  0  0  0  0  0  0  0  0  0
    3.6830   -2.2817   -1.1106 C   0  0  0  0  0  0  0  0  0  0  0  0
    4.9521   -1.8672   -0.7203 C   0  0  0  0  0  0  0  0  0  0  0  0
    5.9969   -2.7169   -0.8116 O   0  0  0  0  0  0  0  0  0  0  0  0
    5.9017   -3.8742   -1.6289 C   0  0  0  0  0  0  0  0  0  0  0  0
    5.1637   -0.5811   -0.2336 C   0  0  0  0  0  0  0  0  0  0  0  0
    4.0865    0.2942   -0.1395 C   0  0  0  0  0  0  0  0  0  0  0  0
    2.0045    2.0045    2.0045 C   0  0  0  0  0  0  0  0  0  0  0  0
    1.9705    3.3862    1.8488 C   0  0  0  0  0  0  0  0  0  0  0  0
    2.7776    4.1798    2.6572 C   0  0  0  0  0  0  0  0  0  0  0  0
    3.6061    3.5897    3.6066 C   0  0  0  0  0  0  0  0  0  0  0  0
    4.4431    4.4285    4.4423 C   0  0  0  0  0  0  0  0  0  0  0  0
    5.3417    3.8514    5.2416 N   0  0  0  0  0  0  0  0  0  0  0  0
    6.0705    4.6858    5.9799 C   0  0  0  0  0  0  0  0  0  0  0  0
    7.2554    4.0593    7.0258 S   0  0  0  0  0  0  0  0  0  0  0  0
    7.7651    5.5899    7.5642 C   0  0  0  0  0  0  0  0  0  0  0  0
    7.0374    6.5474    6.9775 C   0  0  0  0  0  0  0  0  0  0  0  0
    6.0422    6.0655    6.0496 C   0  0  0  0  0  0  0  0  0  0  0  0
    5.0914    6.6131    5.1915 C   0  0  0  0  0  0  0  0  0  0  0  0
    4.9185    8.0503    5.1162 C   0  0  0  0  0  0  0  0  0  0  0  0
    3.6414    8.5904    5.2257 C   0  0  0  0  0  0  0  0  0  0  0  0
    3.4858    9.9706    5.1524 C   0  0  0  0  0  0  0  0  0  0  0  0
    2.2730   10.5039    5.2551 F   0  0  0  0  0  0  0  0  0  0  0  0
    4.5916   10.7933    4.9725 C   0  0  0  0  0  0  0  0  0  0  0  0
    5.8672   10.2503    4.8639 C   0  0  0  0  0  0  0  0  0  0  0  0
    6.0273    8.8702    4.9364 C   0  0  0  0  0  0  0  0  0  0  0  0
    4.4102   12.3002    4.8947 C   0  0  0  0  0  0  0  0  0  0  0  0
    4.2875    5.8100    4.3866 C   0  0  0  0  0  0  0  0  0  0  0  0
    7.6435    7.7884    7.6015 C   0  0  0  0  0  0  0  0  0  0  0  0
    8.1808    7.3320    8.9396 C   0  0  0  0  0  0  0  0  0  0  0  0
    8.8425    6.0420    8.5216 C   0  0  0  0  0  0  0  0  0  0  0  0
    3.6366    2.2073    3.7588 C   0  0  0  0  0  0  0  0  0  0  0  0
    2.8309    1.4098    2.9525 C   0  0  0  0  0  0  0  0  0  0  0  0
  1  2  2  0
  1  3  2  0
  1  4  1  0
  4  5  1  0
  5  6  2  0
  6  7  1  0
  7  8  2  0
  8  9  1  0
  9 10  1  0
  8 11  1  0
 11 12  2  0
 12  5  1  0
  1 13  1  0
 13 14  2  0
 14 15  1  0
 15 16  2  0
 16 17  1  0
 17 18  2  0
 18 19  1  0
 19 20  1  0
 20 21  1  0
 21 22  2  0
 22 23  1  0
 23 19  2  0
 23 24  1  0
 24 25  1  0
 25 26  2  0
 26 27  1  0
 27 28  1  0
 27 29  2  0
 29 30  1  0
 30 31  2  0
 31 25  1  0
 29 32  1  0
 24 33  2  0
 33 17  1  0
 22 34  1  0
 34 35  1  0
 35 36  1  0
 36 21  1  0
 16 37  1  0
 37 38  2  0
 38 13  1  0
M  END
$$$$
s_42a____8631722____125135
     RDKit          3D

 42 47  0  0  0  0  0  0  0  0999 V2000
    9.4941    3.4862    1.2955 S   0  0  0  0  0  0  0  0  0  0  0  0
    8.5731    2.0574    1.1456 C   0  0  0  0  0  0  0  0  0  0  0  0
    7.2499    2.1576    1.1547 N   0  0  0  0  0  0  0  0  0  0  0  0
    6.5630    1.0202    1.0029 C   0  0  0  0  0  0  0  0  0  0  0  0
    5.1146    1.0204    1.0025 C   0  0  0  0  0  0  0  0  0  0  0  0
    4.4370   -0.1940    1.0004 C   0  0  0  0  0  0  0  0  0  0  0  0
    3.0459   -0.2044    0.9987 C   0  0  0  0  0  0  0  0  0  0  0  0
    2.3499    1.0000    1.0000 C   0  0  0  0  0  0  0  0  0  0  0  0
    1.0000    1.0000    1.0000 O   0  0  0  0  0  0  0  0  0  0  0  0
    0.2900   -0.2298    0.9987 C   0  0  0  0  0  0  0  0  0  0  0  0
   -1.2044    0.0480    0.9990 C   0  0  0  0  0  0  0  0  0  0  0  0
   -1.6044    1.1794    1.0002 O   0  0  0  0  0  0  0  0  0  0  0  0
   -2.0947   -0.9933    0.9979 N   0  0  0  0  0  0  0  0  0  0  0  0
   -3.3478   -0.8424    0.3918 C   0  0  0  0  0  0  0  0  0  0  0  0
   -4.4924   -0.7887    1.1807 C   0  0  0  0  0  0  0  0  0  0  0  0
   -5.7356   -0.6385    0.5750 C   0  0  0  0  0  0  0  0  0  0  0  0
   -5.8275   -0.5434   -0.8095 C   0  0  0  0  0  0  0  0  0  0  0  0
   -4.6764   -0.5977   -1.5883 C   0  0  0  0  0  0  0  0  0  0  0  0
   -3.4279   -0.7478   -0.9937 C   0  0  0  0  0  0  0  0  0  0  0  0
   -1.7343   -2.2691    1.6331 C   0  0  0  0  0  0  0  0  0  0  0  0
   -2.3169   -2.3189    3.0361 C   0  0  0  0  0  0  0  0  0  0  0  0
   -2.2926   -3.4196    0.8115 C   0  0  0  0  0  0  0  0  0  0  0  0
    3.0283    2.2145    1.0019 C   0  0  0  0  0  0  0  0  0  0  0  0
    4.4192    2.2251    1.0031 C   0  0  0  0  0  0  0  0  0  0  0  0
    7.2509   -0.1767    0.8411 C   0  0  0  0  0  0  0  0  0  0  0  0
    8.6430   -0.1900    0.8495 C   0  0  0  0  0  0  0  0  0  0  0  0
    9.4083    0.9634    1.0181 C   0  0  0  0  0  0  0  0  0  0  0  0
   10.7882    1.3302    1.0686 C   0  0  0  0  0  0  0  0  0  0  0  0
   10.9788    2.6784    1.1880 C   0  0  0  0  0  0  0  0  0  0  0  0
   12.2086    3.5603    1.2156 C   0  0  0  0  0  0  0  0  0  0  0  0
   13.3573    2.6314    1.5637 C   0  0  0  0  0  0  0  0  0  0  0  0
   13.3130    1.3995    0.6732 C   0  0  0  0  0  0  0  0  0  0  0  0
   12.0954    0.5558    1.0221 C   0  0  0  0  0  0  0  0  0  0  0  0
   14.6552    3.3879    1.3284 C   0  0  0  0  0  0  0  0  0  0  0  0
    9.3140   -1.4637    0.6755 C   0  0  0  0  0  0  0  0  0  0  0  0
    9.2502   -2.4078    1.6944 C   0  0  0  0  0  0  0  0  0  0  0  0
    9.8916   -3.6323    1.5374 C   0  0  0  0  0  0  0  0  0  0  0  0
   10.5881   -3.8974    0.3629 C   0  0  0  0  0  0  0  0  0  0  0  0
   11.2123   -5.0833    0.2008 O   0  0  0  0  0  0  0  0  0  0  0  0
   12.1978   -5.2345   -0.8103 C   0  0  0  0  0  0  0  0  0  0  0  0
   10.6517   -2.9525   -0.6560 C   0  0  0  0  0  0  0  0  0  0  0  0
   10.0108   -1.7280   -0.4991 C   0  0  0  0  0  0  0  0  0  0  0  0
  1  2  1  0
  2  3  2  0
  3  4  1  0
  4  5  1  0
  5  6  2  0
  6  7  1  0
  7  8  2  0
  8  9  1  0
  9 10  1  0
 10 11  1  0
 11 12  2  0
 11 13  1  0
 13 14  1  0
 14 15  2  0
 15 16  1  0
 16 17  2  0
 17 18  1  0
 18 19  2  0
 19 14  1  0
 13 20  1  0
 20 21  1  0
 20 22  1  0
  8 23  1  0
 23 24  2  0
 24  5  1  0
  4 25  2  0
 25 26  1  0
 26 27  2  0
 27  2  1  0
 27 28  1  0
 28 29  2  0
 29  1  1  0
 29 30  1  0
 30 31  1  0
 31 32  1  0
 32 33  1  0
 33 28  1  0
 31 34  1  0
 26 35  1  0
 35 36  2  0
 36 37  1  0
 37 38  2  0
 38 39  1  0
 39 40  1  0
 38 41  1  0
 41 42  2  0
 42 35  1  0
M  END
$$$$
s_17____15097546____62255
     RDKit          3D

 45 50  0  0  0  0  0  0  0  0999 V2000
   -1.7398    5.5548    4.8295 S   0  0  0  0  0  0  0  0  0  0  0  0
   -3.1693    5.3815    4.8174 O   0  0  0  0  0  0  0  0  0  0  0  0
   -1.1929    4.9486    6.0157 O   0  0  0  0  0  0  0  0  0  0  0  0
   -1.3852    7.1457    4.8194 N   0  0  0  0  0  0  0  0  0  0  0  0
   -2.1321    8.0244    4.0255 C   0  0  0  0  0  0  0  0  0  0  0  0
   -3.2357    8.6725    4.5694 C   0  0  0  0  0  0  0  0  0  0  0  0
   -3.5757    8.4567    5.8367 F   0  0  0  0  0  0  0  0  0  0  0  0
   -3.9892    9.5491    3.7956 C   0  0  0  0  0  0  0  0  0  0  0  0
   -3.6221    9.7662    2.4719 C   0  0  0  0  0  0  0  0  0  0  0  0
   -2.5197    9.1195    1.9236 C   0  0  0  0  0  0  0  0  0  0  0  0
   -1.7690    8.2447    2.7009 C   0  0  0  0  0  0  0  0  0  0  0  0
   -1.0518    4.7982    3.4214 C   0  0  0  0  0  0  0  0  0  0  0  0
    0.1689    4.1389    3.5195 C   0  0  0  0  0  0  0  0  0  0  0  0
    0.7023    3.5410    2.3828 C   0  0  0  0  0  0  0  0  0  0  0  0
    1.9309    2.8769    2.4773 N   0  0  0  0  0  0  0  0  0  0  0  0
    3.1164    3.6256    2.4609 C   0  0  0  0  0  0  0  0  0  0  0  0
    3.0534    4.8398    2.3993 O   0  0  0  0  0  0  0  0  0  0  0  0
    4.3855    2.9320    2.4986 C   0  0  0  0  0  0  0  0  0  0  0  0
    4.4510    1.5464    2.6070 C   0  0  0  0  0  0  0  0  0  0  0  0
    5.6715    0.8750    2.5931 C   0  0  0  0  0  0  0  0  0  0  0  0
    6.8565    1.5883    2.4894 C   0  0  0  0  0  0  0  0  0  0  0  0
    6.8193    2.9747    2.4197 C   0  0  0  0  0  0  0  0  0  0  0  0
    5.5910    3.6248    2.4127 C   0  0  0  0  0  0  0  0  0  0  0  0
    3.2136    0.8092    2.7554 C   0  0  0  0  0  0  0  0  0  0  0  0
    1.9363    1.4806    2.5853 C   0  0  0  0  0  0  0  0  0  0  0  0
    0.8901    0.8552    2.5327 O   0  0  0  0  0  0  0  0  0  0  0  0
    3.1926   -0.4694    3.1142 C   0  0  0  0  0  0  0  0  0  0  0  0
    3.0297   -1.4445    2.1658 N   0  0  0  0  0  0  0  0  0  0  0  0
    3.0077   -2.7894    2.5432 C   0  0  0  0  0  0  0  0  0  0  0  0
    2.8422   -3.7719    1.5766 C   0  0  0  0  0  0  0  0  0  0  0  0
    2.8155   -5.1164    1.9276 C   0  0  0  0  0  0  0  0  0  0  0  0
    2.9606   -5.4544    3.2745 C   0  0  0  0  0  0  0  0  0  0  0  0
    3.1242   -4.4635    4.2327 C   0  0  0  0  0  0  0  0  0  0  0  0
    3.1496   -3.1186    3.8852 C   0  0  0  0  0  0  0  0  0  0  0  0
    2.9595   -6.9023    3.7505 C   0  0  0  0  0  0  0  0  0  0  0  0
    2.3722   -7.8461    2.7093 C   0  0  0  0  0  0  0  0  0  0  0  0
    2.9507   -7.5693    1.3287 C   0  0  0  0  0  0  0  0  0  0  0  0
    2.6165   -6.1677    0.8363 C   0  0  0  0  0  0  0  0  0  0  0  0
    3.3525   -5.8255   -0.4513 C   0  0  0  0  0  0  0  0  0  0  0  0
    1.1392   -6.1953    0.4852 C   0  0  0  0  0  0  0  0  0  0  0  0
    2.2615   -7.0962    5.0886 C   0  0  0  0  0  0  0  0  0  0  0  0
    4.4100   -7.3400    3.9297 C   0  0  0  0  0  0  0  0  0  0  0  0
    0.0316    3.5980    1.1653 C   0  0  0  0  0  0  0  0  0  0  0  0
   -1.1885    4.2607    1.0806 C   0  0  0  0  0  0  0  0  0  0  0  0
   -1.7330    4.8630    2.2102 C   0  0  0  0  0  0  0  0  0  0  0  0
  1  2  2  0
  1  3  2  0
  1  4  1  0
  4  5  1  0
  5  6  2  0
  6  7  1  0
  6  8  1  0
  8  9  2  0
  9 10  1  0
 10 11  2  0
 11  5  1  0
  1 12  1  0
 12 13  2  0
 13 14  1  0
 14 15  1  0
 15 16  1  0
 16 17  2  0
 16 18  1  0
 18 19  2  0
 19 20  1  0
 20 21  2  0
 21 22  1  0
 22 23  2  0
 23 18  1  0
 19 24  1  0
 24 25  1  0
 25 15  1  0
 25 26  2  0
 24 27  2  0
 27 28  1  0
 28 29  1  0
 29 30  2  0
 30 31  1  0
 31 32  2  0
 32 33  1  0
 33 34  2  0
 34 29  1  0
 32 35  1  0
 35 36  1  0
 36 37  1  0
 37 38  1  0
 38 31  1  0
 38 39  1  0
 38 40  1  0
 35 41  1  0
 35 42  1  0
 14 43  2  0
 43 44  1  0
 44 45  2  0
 45 12  1  0
M  END
$$$$
s_42a____8631722____9284816
     RDKit          3D

 40 46  0  0  0  0  0  0  0  0999 V2000
    6.4486   -1.8786    2.4752 Br  0  0  0  0  0  0  0  0  0  0  0  0
    5.4996   -0.1640    2.4661 C   0  0  0  0  0  0  0  0  0  0  0  0
    6.1937    1.0395    2.4522 C   0  0  0  0  0  0  0  0  0  0  0  0
    5.5425    2.2101    2.4411 N   0  0  0  0  0  0  0  0  0  0  0  0
    4.2140    2.1482    2.4405 C   0  0  0  0  0  0  0  0  0  0  0  0
    3.3728    3.6294    2.4000 S   0  0  0  0  0  0  0  0  0  0  0  0
    1.8501    2.8635    2.4241 C   0  0  0  0  0  0  0  0  0  0  0  0
    2.0207    1.5028    2.4906 C   0  0  0  0  0  0  0  0  0  0  0  0
    3.3807    1.0410    2.4658 C   0  0  0  0  0  0  0  0  0  0  0  0
    4.1089   -0.1447    2.4732 C   0  0  0  0  0  0  0  0  0  0  0  0
    3.4115   -1.4160    2.4909 C   0  0  0  0  0  0  0  0  0  0  0  0
    3.0921   -1.9966    3.7135 C   0  0  0  0  0  0  0  0  0  0  0  0
    2.4241   -3.2166    3.7409 C   0  0  0  0  0  0  0  0  0  0  0  0
    2.0833   -3.8402    2.5452 C   0  0  0  0  0  0  0  0  0  0  0  0
    1.4337   -5.0235    2.5617 O   0  0  0  0  0  0  0  0  0  0  0  0
    1.0982   -5.6317    3.8003 C   0  0  0  0  0  0  0  0  0  0  0  0
    2.4032   -3.2591    1.3225 C   0  0  0  0  0  0  0  0  0  0  0  0
    3.0714   -2.0395    1.2948 C   0  0  0  0  0  0  0  0  0  0  0  0
    0.7106    0.7366    2.5998 C   0  0  0  0  0  0  0  0  0  0  0  0
   -0.5022    1.5391    2.1560 C   0  0  0  0  0  0  0  0  0  0  0  0
   -0.4941    2.8329    2.9504 C   0  0  0  0  0  0  0  0  0  0  0  0
    0.5946    3.7126    2.3671 C   0  0  0  0  0  0  0  0  0  0  0  0
   -1.7926    3.5998    2.7587 C   0  0  0  0  0  0  0  0  0  0  0  0
    7.6437    1.0151    2.4489 C   0  0  0  0  0  0  0  0  0  0  0  0
    8.3367    0.9903    1.2425 C   0  0  0  0  0  0  0  0  0  0  0  0
    7.6633    0.9887    0.0150 N   0  0  0  0  0  0  0  0  0  0  0  0
    7.2533   -0.1422   -0.6851 C   0  0  0  0  0  0  0  0  0  0  0  0
    7.4253   -1.2951   -0.3259 O   0  0  0  0  0  0  0  0  0  0  0  0
    6.5983    0.2830   -1.8988 C   0  0  0  0  0  0  0  0  0  0  0  0
    6.6370    1.6526   -1.9064 C   0  0  0  0  0  0  0  0  0  0  0  0
    6.0655    2.2809   -3.0084 C   0  0  0  0  0  0  0  0  0  0  0  0
    5.4890    1.5475   -4.0391 C   0  0  0  0  0  0  0  0  0  0  0  0
    5.4697    0.1572   -3.9958 C   0  0  0  0  0  0  0  0  0  0  0  0
    6.0388   -0.4938   -2.9060 C   0  0  0  0  0  0  0  0  0  0  0  0
    7.2896    2.1187   -0.7059 C   0  0  0  0  0  0  0  0  0  0  0  0
    7.4743    3.2846   -0.3957 O   0  0  0  0  0  0  0  0  0  0  0  0
    9.7270    0.9672    1.2395 C   0  0  0  0  0  0  0  0  0  0  0  0
   10.4255    0.9688    2.4427 C   0  0  0  0  0  0  0  0  0  0  0  0
    9.7330    0.9934    3.6489 C   0  0  0  0  0  0  0  0  0  0  0  0
    8.3422    1.0158    3.6520 C   0  0  0  0  0  0  0  0  0  0  0  0
  1  2  1  0
  2  3  2  0
  3  4  1  0
  4  5  2  0
  5  6  1  0
  6  7  1  0
  7  8  2  0
  8  9  1  0
  9  5  1  0
  9 10  2  0
 10  2  1  0
 10 11  1  0
 11 12  2  0
 12 13  1  0
 13 14  2  0
 14 15  1  0
 15 16  1  0
 14 17  1  0
 17 18  2  0
 18 11  1  0
  8 19  1  0
 19 20  1  0
 20 21  1  0
 21 22  1  0
 22  7  1  0
 21 23  1  0
  3 24  1  0
 24 25  1  0
 25 26  1  0
 26 27  1  0
 27 28  2  0
 27 29  1  0
 29 30  2  0
 30 31  1  0
 31 32  2  0
 32 33  1  0
 33 34  2  0
 34 29  1  0
 30 35  1  0
 35 26  1  0
 35 36  2  0
 25 37  2  0
 37 38  1  0
 38 39  2  0
 39 40  1  0
 40 24  2  0
M  END
$$$$
s_42a____8631722____125111
     RDKit          3D

 37 42  0  0  0  0  0  0  0  0999 V2000
    6.4531   -1.8732    2.4611 Br  0  0  0  0  0  0  0  0  0  0  0  0
    5.4880   -0.1669    2.4584 C   0  0  0  0  0  0  0  0  0  0  0  0
    6.1969    1.0326    2.4518 C   0  0  0  0  0  0  0  0  0  0  0  0
    5.5304    2.1930    2.4486 N   0  0  0  0  0  0  0  0  0  0  0  0
    4.2062    2.1382    2.4537 C   0  0  0  0  0  0  0  0  0  0  0  0
    3.3731    3.6165    2.4443 S   0  0  0  0  0  0  0  0  0  0  0  0
    1.8338    2.9022    2.4038 C   0  0  0  0  0  0  0  0  0  0  0  0
    2.0163    1.5593    2.4095 C   0  0  0  0  0  0  0  0  0  0  0  0
    3.3619    1.0548    2.4518 C   0  0  0  0  0  0  0  0  0  0  0  0
    4.0935   -0.1358    2.4597 C   0  0  0  0  0  0  0  0  0  0  0  0
    3.3848   -1.4009    2.4646 C   0  0  0  0  0  0  0  0  0  0  0  0
    3.0549   -1.9880    3.6813 C   0  0  0  0  0  0  0  0  0  0  0  0
    2.3760   -3.2022    3.6964 C   0  0  0  0  0  0  0  0  0  0  0  0
    2.0349   -3.8136    2.4945 C   0  0  0  0  0  0  0  0  0  0  0  0
    1.3748   -4.9911    2.4991 O   0  0  0  0  0  0  0  0  0  0  0  0
    1.0283   -5.6060    3.7314 C   0  0  0  0  0  0  0  0  0  0  0  0
    2.3653   -3.2260    1.2777 C   0  0  0  0  0  0  0  0  0  0  0  0
    3.0445   -2.0123    1.2622 C   0  0  0  0  0  0  0  0  0  0  0  0
    0.6795    0.8272    2.3619 C   0  0  0  0  0  0  0  0  0  0  0  0
   -0.1905    1.4429    1.2651 C   0  0  0  0  0  0  0  0  0  0  0  0
   -0.1648    2.9652    1.1690 C   0  0  0  0  0  0  0  0  0  0  0  0
    0.5157    3.6440    2.3373 C   0  0  0  0  0  0  0  0  0  0  0  0
   -1.5920    3.4787    1.1123 C   0  0  0  0  0  0  0  0  0  0  0  0
    7.6469    1.0147    2.4477 C   0  0  0  0  0  0  0  0  0  0  0  0
    8.3138    0.3945    1.3967 C   0  0  0  0  0  0  0  0  0  0  0  0
    9.7048    0.3710    1.3844 C   0  0  0  0  0  0  0  0  0  0  0  0
   10.4112    0.9687    2.4229 C   0  0  0  0  0  0  0  0  0  0  0  0
   11.7610    0.9523    2.4187 O   0  0  0  0  0  0  0  0  0  0  0  0
   12.4850    1.8886    3.2033 C   0  0  0  0  0  0  0  0  0  0  0  0
   13.9764    1.6568    3.0209 C   0  0  0  0  0  0  0  0  0  0  0  0
   14.6590    2.3248    2.0095 C   0  0  0  0  0  0  0  0  0  0  0  0
   16.0234    2.1092    1.8455 C   0  0  0  0  0  0  0  0  0  0  0  0
   16.6954    1.2320    2.6904 C   0  0  0  0  0  0  0  0  0  0  0  0
   16.0035    0.5707    3.6975 C   0  0  0  0  0  0  0  0  0  0  0  0
   14.6389    0.7773    3.8713 C   0  0  0  0  0  0  0  0  0  0  0  0
    9.7436    1.5888    3.4740 C   0  0  0  0  0  0  0  0  0  0  0  0
    8.3529    1.6121    3.4868 C   0  0  0  0  0  0  0  0  0  0  0  0
  1  2  1  0
  2  3  2  0
  3  4  1  0
  4  5  2  0
  5  6  1  0
  6  7  1  0
  7  8  2  0
  8  9  1  0
  9  5  1  0
  9 10  2  0
 10  2  1  0
 10 11  1  0
 11 12  2  0
 12 13  1  0
 13 14  2  0
 14 15  1  0
 15 16  1  0
 14 17  1  0
 17 18  2  0
 18 11  1  0
  8 19  1  0
 19 20  1  0
 20 21  1  0
 21 22  1  0
 22  7  1  0
 21 23  1  0
  3 24  1  0
 24 25  2  0
 25 26  1  0
 26 27  2  0
 27 28  1  0
 28 29  1  0
 29 30  1  0
 30 31  2  0
 31 32  1  0
 32 33  2  0
 33 34  1  0
 34 35  2  0
 35 30  1  0
 27 36  1  0
 36 37  2  0
 37 24  1  0
M  END
$$$$
s_42a____8624698____3048566
     RDKit          3D

 37 42  0  0  0  0  0  0  0  0999 V2000
    6.9735   -2.7806    2.4256 S   0  0  0  0  0  0  0  0  0  0  0  0
    6.8572   -1.0846    2.4463 C   0  0  0  0  0  0  0  0  0  0  0  0
    5.6558   -0.5109    2.4581 N   0  0  0  0  0  0  0  0  0  0  0  0
    5.6574    0.8229    2.4637 C   0  0  0  0  0  0  0  0  0  0  0  0
    4.3934    1.5238    2.4792 C   0  0  0  0  0  0  0  0  0  0  0  0
    4.3898    2.9144    2.4850 C   0  0  0  0  0  0  0  0  0  0  0  0
    3.1783    3.5981    2.5011 C   0  0  0  0  0  0  0  0  0  0  0  0
    1.9856    2.8824    2.5103 C   0  0  0  0  0  0  0  0  0  0  0  0
    0.8052    3.5371    2.5243 O   0  0  0  0  0  0  0  0  0  0  0  0
    0.7807    4.9569    2.5297 C   0  0  0  0  0  0  0  0  0  0  0  0
   -0.6606    5.4387    2.5457 C   0  0  0  0  0  0  0  0  0  0  0  0
   -1.2963    5.6508    3.7645 C   0  0  0  0  0  0  0  0  0  0  0  0
   -2.6155    6.0919    3.7855 C   0  0  0  0  0  0  0  0  0  0  0  0
   -3.2823    6.3156    2.5852 C   0  0  0  0  0  0  0  0  0  0  0  0
   -4.5435    6.7383    2.5977 F   0  0  0  0  0  0  0  0  0  0  0  0
   -2.6514    6.1041    1.3636 C   0  0  0  0  0  0  0  0  0  0  0  0
   -1.3323    5.6634    1.3488 C   0  0  0  0  0  0  0  0  0  0  0  0
    1.9898    1.4913    2.5046 C   0  0  0  0  0  0  0  0  0  0  0  0
    3.2009    0.8075    2.4890 C   0  0  0  0  0  0  0  0  0  0  0  0
    6.8390    1.5576    2.4533 C   0  0  0  0  0  0  0  0  0  0  0  0
    8.0554    0.8798    2.4399 C   0  0  0  0  0  0  0  0  0  0  0  0
    9.2762    1.6621    2.4241 C   0  0  0  0  0  0  0  0  0  0  0  0
    9.4260    2.6878    1.4964 C   0  0  0  0  0  0  0  0  0  0  0  0
   10.5993    3.4343    1.4850 C   0  0  0  0  0  0  0  0  0  0  0  0
   11.6072    3.1479    2.4005 C   0  0  0  0  0  0  0  0  0  0  0  0
   11.4555    2.1233    3.3297 C   0  0  0  0  0  0  0  0  0  0  0  0
   10.2826    1.3757    3.3402 C   0  0  0  0  0  0  0  0  0  0  0  0
   12.8881    3.9666    2.3821 C   0  0  0  0  0  0  0  0  0  0  0  0
   12.7557    5.0163    3.1880 F   0  0  0  0  0  0  0  0  0  0  0  0
   13.9028    3.2138    2.7977 F   0  0  0  0  0  0  0  0  0  0  0  0
   13.1262    4.3864    1.1427 F   0  0  0  0  0  0  0  0  0  0  0  0
    8.1146   -0.5119    2.4395 C   0  0  0  0  0  0  0  0  0  0  0  0
    9.1363   -1.5309    2.4018 C   0  0  0  0  0  0  0  0  0  0  0  0
    8.6735   -2.7862    2.3806 C   0  0  0  0  0  0  0  0  0  0  0  0
    9.7013   -3.8910    2.3096 C   0  0  0  0  0  0  0  0  0  0  0  0
   10.8173   -3.1418    2.9951 C   0  0  0  0  0  0  0  0  0  0  0  0
   10.6312   -1.7778    2.3688 C   0  0  0  0  0  0  0  0  0  0  0  0
  1  2  1  0
  2  3  2  0
  3  4  1  0
  4  5  1  0
  5  6  2  0
  6  7  1  0
  7  8  2  0
  8  9  1  0
  9 10  1  0
 10 11  1  0
 11 12  2  0
 12 13  1  0
 13 14  2  0
 14 15  1  0
 14 16  1  0
 16 17  2  0
 17 11  1  0
  8 18  1  0
 18 19  2  0
 19  5  1  0
  4 20  2  0
 20 21  1  0
 21 22  1  0
 22 23  2  0
 23 24  1  0
 24 25  2  0
 25 26  1  0
 26 27  2  0
 27 22  1  0
 25 28  1  0
 28 29  1  0
 28 30  1  0
 28 31  1  0
 21 32  2  0
 32  2  1  0
 32 33  1  0
 33 34  2  0
 34  1  1  0
 34 35  1  0
 35 36  1  0
 36 37  1  0
 37 33  1  0
M  END
$$$$
m_271722____10195674____11365928
     RDKit          3D

 35 39  0  0  0  0  0  0  0  0999 V2000
    4.6172    4.6351    4.6437 Cl  0  0  0  0  0  0  0  0  0  0  0  0
    3.6085    3.6045    3.6003 C   0  0  0  0  0  0  0  0  0  0  0  0
    4.1074    3.0971    2.4051 C   0  0  0  0  0  0  0  0  0  0  0  0
    3.3045    2.2937    1.6017 C   0  0  0  0  0  0  0  0  0  0  0  0
    2.0048    2.0048    2.0048 C   0  0  0  0  0  0  0  0  0  0  0  0
    1.0000    1.0000    1.0000 S   0  0  0  0  0  0  0  0  0  0  0  0
    1.4883    1.0346   -0.3542 O   0  0  0  0  0  0  0  0  0  0  0  0
   -0.3542    1.4883    1.0346 O   0  0  0  0  0  0  0  0  0  0  0  0
    1.0392   -0.5329    1.5527 N   0  0  0  0  0  0  0  0  0  0  0  0
   -0.0105   -1.0199    2.3412 C   0  0  0  0  0  0  0  0  0  0  0  0
    0.0578   -0.8823    3.7236 C   0  0  0  0  0  0  0  0  0  0  0  0
   -0.9762   -1.3603    4.5206 C   0  0  0  0  0  0  0  0  0  0  0  0
   -2.0701   -1.9744    3.9191 C   0  0  0  0  0  0  0  0  0  0  0  0
   -3.0656   -2.4350    4.6713 F   0  0  0  0  0  0  0  0  0  0  0  0
   -2.1397   -2.1133    2.5370 C   0  0  0  0  0  0  0  0  0  0  0  0
   -1.1047   -1.6342    1.7409 C   0  0  0  0  0  0  0  0  0  0  0  0
    2.1764   -1.4042    1.2233 C   0  0  0  0  0  0  0  0  0  0  0  0
    1.5000    2.5089    3.1992 C   0  0  0  0  0  0  0  0  0  0  0  0
    2.3079    3.3117    3.9981 C   0  0  0  0  0  0  0  0  0  0  0  0
    5.4612    3.3920    1.9748 C   0  0  0  0  0  0  0  0  0  0  0  0
    5.8292    3.6558    0.7429 O   0  0  0  0  0  0  0  0  0  0  0  0
    7.1235    3.8678    0.7678 C   0  0  0  0  0  0  0  0  0  0  0  0
    7.5501    3.7349    2.0027 N   0  0  0  0  0  0  0  0  0  0  0  0
    6.5145    3.4392    2.7556 N   0  0  0  0  0  0  0  0  0  0  0  0
    7.9493    4.1933   -0.3785 C   0  0  0  0  0  0  0  0  0  0  0  0
    9.3208    5.1838   -0.2443 S   0  0  0  0  0  0  0  0  0  0  0  0
    9.7485    5.1137   -1.8896 C   0  0  0  0  0  0  0  0  0  0  0  0
    8.8223    4.3344   -2.5150 C   0  0  0  0  0  0  0  0  0  0  0  0
    7.8061    3.7946   -1.6810 C   0  0  0  0  0  0  0  0  0  0  0  0
    8.9981    4.1731   -4.0186 C   0  0  0  0  0  0  0  0  0  0  0  0
    8.0985    5.1929   -4.7087 C   0  0  0  0  0  0  0  0  0  0  0  0
    8.2911    6.6560   -4.2995 C   0  0  0  0  0  0  0  0  0  0  0  0
    9.7200    7.1961   -4.3829 C   0  0  0  0  0  0  0  0  0  0  0  0
   10.5449    7.1810   -3.0886 C   0  0  0  0  0  0  0  0  0  0  0  0
   10.9506    5.8164   -2.5193 C   0  0  0  0  0  0  0  0  0  0  0  0
  1  2  1  0
  2  3  2  0
  3  4  1  0
  4  5  2  0
  5  6  1  0
  6  7  2  0
  6  8  2  0
  6  9  1  0
  9 10  1  0
 10 11  2  0
 11 12  1  0
 12 13  2  0
 13 14  1  0
 13 15  1  0
 15 16  2  0
 16 10  1  0
  9 17  1  0
  5 18  1  0
 18 19  2  0
 19  2  1  0
  3 20  1  0
 20 21  1  0
 21 22  1  0
 22 23  2  0
 23 24  1  0
 20 24  2  0
 22 25  1  0
 25 26  1  0
 26 27  1  0
 27 28  2  0
 28 29  1  0
 25 29  2  0
 28 30  1  0
 30 31  1  0
 31 32  1  0
 32 33  1  0
 33 34  1  0
 34 35  1  0
 35 27  1  0
M  END
$$$$
s_42a____8631722____125253
     RDKit          3D

 33 38  0  0  0  0  0  0  0  0999 V2000
    7.7654   -1.3915    4.7254 S   0  0  0  0  0  0  0  0  0  0  0  0
    7.2834   -0.4846    3.3626 C   0  0  0  0  0  0  0  0  0  0  0  0
    8.0755   -0.4787    2.2980 N   0  0  0  0  0  0  0  0  0  0  0  0
    7.6487    0.2172    1.2387 C   0  0  0  0  0  0  0  0  0  0  0  0
    6.4266    0.8763    1.3020 C   0  0  0  0  0  0  0  0  0  0  0  0
    5.6613    0.8208    2.4636 C   0  0  0  0  0  0  0  0  0  0  0  0
    4.3934    1.5238    2.4792 C   0  0  0  0  0  0  0  0  0  0  0  0
    4.3898    2.9144    2.4850 C   0  0  0  0  0  0  0  0  0  0  0  0
    3.1783    3.5981    2.5011 C   0  0  0  0  0  0  0  0  0  0  0  0
    1.9856    2.8824    2.5103 C   0  0  0  0  0  0  0  0  0  0  0  0
    0.8052    3.5371    2.5243 O   0  0  0  0  0  0  0  0  0  0  0  0
    0.7807    4.9569    2.5297 C   0  0  0  0  0  0  0  0  0  0  0  0
    1.9898    1.4913    2.5046 C   0  0  0  0  0  0  0  0  0  0  0  0
    3.2009    0.8075    2.4890 C   0  0  0  0  0  0  0  0  0  0  0  0
    6.0646    0.1224    3.6011 C   0  0  0  0  0  0  0  0  0  0  0  0
    5.5695   -0.1597    4.9113 C   0  0  0  0  0  0  0  0  0  0  0  0
    6.3834   -0.9972    5.6214 C   0  0  0  0  0  0  0  0  0  0  0  0
    6.2837   -1.6381    6.9889 C   0  0  0  0  0  0  0  0  0  0  0  0
    5.2587   -0.8109    7.7428 C   0  0  0  0  0  0  0  0  0  0  0  0
    4.0154   -0.6246    6.8872 C   0  0  0  0  0  0  0  0  0  0  0  0
    4.3391    0.2656    5.6961 C   0  0  0  0  0  0  0  0  0  0  0  0
    4.8982   -1.5627    9.0145 C   0  0  0  0  0  0  0  0  0  0  0  0
    8.4408    0.2903    0.0284 C   0  0  0  0  0  0  0  0  0  0  0  0
    7.8856    0.0154   -1.2513 C   0  0  0  0  0  0  0  0  0  0  0  0
    6.7059   -0.2906   -1.3244 O   0  0  0  0  0  0  0  0  0  0  0  0
    8.6341    0.0901   -2.3387 O   0  0  0  0  0  0  0  0  0  0  0  0
    9.9140    0.4191   -2.2894 C   0  0  0  0  0  0  0  0  0  0  0  0
   10.5316    0.7035   -1.0751 C   0  0  0  0  0  0  0  0  0  0  0  0
   11.8762    1.0516   -0.9969 C   0  0  0  0  0  0  0  0  0  0  0  0
   12.6253    1.1174   -2.1667 C   0  0  0  0  0  0  0  0  0  0  0  0
   12.0282    0.8373   -3.3921 C   0  0  0  0  0  0  0  0  0  0  0  0
   10.6820    0.4912   -3.4468 C   0  0  0  0  0  0  0  0  0  0  0  0
    9.7643    0.6345    0.1173 C   0  0  0  0  0  0  0  0  0  0  0  0
  1  2  1  0
  2  3  2  0
  3  4  1  0
  4  5  2  0
  5  6  1  0
  6  7  1  0
  7  8  2  0
  8  9  1  0
  9 10  2  0
 10 11  1  0
 11 12  1  0
 10 13  1  0
 13 14  2  0
 14  7  1  0
  6 15  2  0
 15  2  1  0
 15 16  1  0
 16 17  2  0
 17  1  1  0
 17 18  1  0
 18 19  1  0
 19 20  1  0
 20 21  1  0
 21 16  1  0
 19 22  1  0
  4 23  1  0
 23 24  1  0
 24 25  2  0
 24 26  1  0
 26 27  1  0
 27 28  2  0
 28 29  1  0
 29 30  2  0
 30 31  1  0
 31 32  2  0
 32 27  1  0
 28 33  1  0
 23 33  2  0
M  END
$$$$
m_276010b____17282026____17249466____17280360
     RDKit          3D

 41 46  0  0  0  0  0  0  0  0999 V2000
    5.5675   10.4480   -5.0604 Cl  0  0  0  0  0  0  0  0  0  0  0  0
    5.6413    9.9104   -3.3653 C   0  0  0  0  0  0  0  0  0  0  0  0
    6.7415    9.1888   -2.9158 C   0  0  0  0  0  0  0  0  0  0  0  0
    6.8029    8.7660   -1.5918 C   0  0  0  0  0  0  0  0  0  0  0  0
    5.7546    9.0747   -0.7315 C   0  0  0  0  0  0  0  0  0  0  0  0
    4.6540    9.7961   -1.1806 C   0  0  0  0  0  0  0  0  0  0  0  0
    4.5926   10.2189   -2.5049 C   0  0  0  0  0  0  0  0  0  0  0  0
    5.8131    8.6163    0.7159 C   0  0  0  0  0  0  0  0  0  0  0  0
    5.3141    9.6445    1.5586 O   0  0  0  0  0  0  0  0  0  0  0  0
    4.9660    7.3664    0.8860 C   0  0  0  0  0  0  0  0  0  0  0  0
    4.7709    6.3972   -0.0516 N   0  0  0  0  0  0  0  0  0  0  0  0
    4.0090    5.5244    0.4521 N   0  0  0  0  0  0  0  0  0  0  0  0
    3.6742    5.8422    1.6784 N   0  0  0  0  0  0  0  0  0  0  0  0
    4.2680    7.0216    2.0001 C   0  0  0  0  0  0  0  0  0  0  0  0
    2.7996    5.0549    2.5596 C   0  0  0  0  0  0  0  0  0  0  0  0
    3.1336    3.5796    2.5325 C   0  0  0  0  0  0  0  0  0  0  0  0
    1.9471    2.8896    2.5745 C   0  0  0  0  0  0  0  0  0  0  0  0
    0.9034    3.8204    2.6258 N   0  0  0  0  0  0  0  0  0  0  0  0
   -0.3863    3.5510    3.1044 C   0  0  0  0  0  0  0  0  0  0  0  0
   -1.3283    4.1452    2.6577 O   0  0  0  0  0  0  0  0  0  0  0  0
   -0.5818    2.5560    4.1372 C   0  0  0  0  0  0  0  0  0  0  0  0
   -0.2370    2.8482    5.4483 C   0  0  0  0  0  0  0  0  0  0  0  0
   -0.4152    1.9082    6.4564 C   0  0  0  0  0  0  0  0  0  0  0  0
   -0.9503    0.6589    6.1133 C   0  0  0  0  0  0  0  0  0  0  0  0
   -1.2926    0.3760    4.7959 C   0  0  0  0  0  0  0  0  0  0  0  0
   -1.1132    1.3208    3.7946 C   0  0  0  0  0  0  0  0  0  0  0  0
   -1.1927   -0.4270    7.1572 C   0  0  0  0  0  0  0  0  0  0  0  0
   -0.4174   -0.1648    8.4387 C   0  0  0  0  0  0  0  0  0  0  0  0
   -0.5842    1.2787    8.8980 C   0  0  0  0  0  0  0  0  0  0  0  0
   -0.0203    2.2680    7.8878 C   0  0  0  0  0  0  0  0  0  0  0  0
   -0.3615    3.7045    8.2584 C   0  0  0  0  0  0  0  0  0  0  0  0
    1.4897    2.1135    7.9799 C   0  0  0  0  0  0  0  0  0  0  0  0
   -0.9188   -1.8309    6.6414 C   0  0  0  0  0  0  0  0  0  0  0  0
   -2.6616   -0.3680    7.5438 C   0  0  0  0  0  0  0  0  0  0  0  0
    1.3497    5.1271    2.1354 C   0  0  0  0  0  0  0  0  0  0  0  0
    0.6358    6.2924    2.7999 C   0  0  0  0  0  0  0  0  0  0  0  0
    1.1799    5.2208    0.6271 C   0  0  0  0  0  0  0  0  0  0  0  0
    1.9847    1.4975    2.5537 C   0  0  0  0  0  0  0  0  0  0  0  0
    3.1952    0.8149    2.4997 C   0  0  0  0  0  0  0  0  0  0  0  0
    4.3914    1.5230    2.4626 C   0  0  0  0  0  0  0  0  0  0  0  0
    4.3543    2.9130    2.4792 C   0  0  0  0  0  0  0  0  0  0  0  0
  1  2  1  0
  2  3  2  0
  3  4  1  0
  4  5  2  0
  5  6  1  0
  6  7  2  0
  7  2  1  0
  5  8  1  0
  8  9  1  0
  8 10  1  0
 10 11  1  0
 11 12  2  0
 12 13  1  0
 13 14  1  0
 10 14  2  0
 13 15  1  0
 15 16  1  0
 16 17  2  0
 17 18  1  0
 18 19  1  0
 19 20  2  0
 19 21  1  0
 21 22  2  0
 22 23  1  0
 23 24  2  0
 24 25  1  0
 25 26  2  0
 26 21  1  0
 24 27  1  0
 27 28  1  0
 28 29  1  0
 29 30  1  0
 30 23  1  0
 30 31  1  0
 30 32  1  0
 27 33  1  0
 27 34  1  0
 18 35  1  0
 35 15  1  0
 35 36  1  0
 35 37  1  0
 17 38  1  0
 38 39  2  0
 39 40  1  0
 40 41  2  0
 41 16  1  0
M  END
$$$$
s_7a____8400____645196
     RDKit          3D

 40 45  0  0  0  0  0  0  0  0999 V2000
    4.4740    4.4816    4.4796 S   0  0  0  0  0  0  0  0  0  0  0  0
    3.9843    4.4463    5.8334 O   0  0  0  0  0  0  0  0  0  0  0  0
    5.8290    3.9954    4.4466 O   0  0  0  0  0  0  0  0  0  0  0  0
    3.4722    3.4754    3.4742 C   0  0  0  0  0  0  0  0  0  0  0  0
    4.0202    2.8440    2.3629 C   0  0  0  0  0  0  0  0  0  0  0  0
    3.2212    2.0390    1.5574 C   0  0  0  0  0  0  0  0  0  0  0  0
    1.8774    1.8774    1.8774 C   0  0  0  0  0  0  0  0  0  0  0  0
    1.3299    2.5098    2.9889 C   0  0  0  0  0  0  0  0  0  0  0  0
    2.1282    3.3140    3.7948 C   0  0  0  0  0  0  0  0  0  0  0  0
    1.0000    1.0000    1.0000 C   0  0  0  0  0  0  0  0  0  0  0  0
    1.0436   -0.7022    1.6137 S   0  0  0  0  0  0  0  0  0  0  0  0
    0.1488   -0.4820    3.0917 C   0  0  0  0  0  0  0  0  0  0  0  0
    0.8331   -0.1751    4.1739 N   0  0  0  0  0  0  0  0  0  0  0  0
    0.1172   -0.0051    5.3234 C   0  0  0  0  0  0  0  0  0  0  0  0
    0.8790    0.3981    6.7912 S   0  0  0  0  0  0  0  0  0  0  0  0
   -0.5221    0.4439    7.7496 C   0  0  0  0  0  0  0  0  0  0  0  0
   -1.5883    0.1714    6.9156 C   0  0  0  0  0  0  0  0  0  0  0  0
   -1.2190   -0.1045    5.5510 C   0  0  0  0  0  0  0  0  0  0  0  0
   -1.8939   -0.4401    4.3443 C   0  0  0  0  0  0  0  0  0  0  0  0
   -3.1094   -0.5694    4.3590 O   0  0  0  0  0  0  0  0  0  0  0  0
   -1.2152   -0.6175    3.1637 N   0  0  0  0  0  0  0  0  0  0  0  0
   -1.9154   -0.9423    1.9957 C   0  0  0  0  0  0  0  0  0  0  0  0
   -2.1308   -2.2777    1.6727 C   0  0  0  0  0  0  0  0  0  0  0  0
   -1.6734   -3.2372    2.4717 F   0  0  0  0  0  0  0  0  0  0  0  0
   -2.8246   -2.6191    0.5163 C   0  0  0  0  0  0  0  0  0  0  0  0
   -3.2982   -1.6056   -0.3100 C   0  0  0  0  0  0  0  0  0  0  0  0
   -3.0842   -0.2689    0.0087 C   0  0  0  0  0  0  0  0  0  0  0  0
   -2.3909    0.0678    1.1659 C   0  0  0  0  0  0  0  0  0  0  0  0
   -2.9366    0.2246    7.6288 C   0  0  0  0  0  0  0  0  0  0  0  0
   -2.8425    0.1100    9.1462 C   0  0  0  0  0  0  0  0  0  0  0  0
   -1.8293    1.1153    9.6708 C   0  0  0  0  0  0  0  0  0  0  0  0
   -0.4232    0.7348    9.2348 C   0  0  0  0  0  0  0  0  0  0  0  0
   -1.8334    1.1138   11.1904 C   0  0  0  0  0  0  0  0  0  0  0  0
    4.4303    6.1176    3.8895 C   0  0  0  0  0  0  0  0  0  0  0  0
    3.4665    6.9995    4.3662 C   0  0  0  0  0  0  0  0  0  0  0  0
    3.4295    8.3083    3.8959 C   0  0  0  0  0  0  0  0  0  0  0  0
    4.3627    8.7172    2.9492 C   0  0  0  0  0  0  0  0  0  0  0  0
    5.3261    7.8343    2.4725 C   0  0  0  0  0  0  0  0  0  0  0  0
    5.3640    6.5262    2.9427 C   0  0  0  0  0  0  0  0  0  0  0  0
    4.3259   10.1455    2.4312 C   0  0  0  0  0  0  0  0  0  0  0  0
  1  2  2  0
  1  3  2  0
  1  4  1  0
  4  5  2  0
  5  6  1  0
  6  7  2  0
  7  8  1  0
  8  9  2  0
  9  4  1  0
  7 10  1  0
 10 11  1  0
 11 12  1  0
 12 13  2  0
 13 14  1  0
 14 15  1  0
 15 16  1  0
 16 17  2  0
 17 18  1  0
 14 18  2  0
 18 19  1  0
 19 20  2  0
 19 21  1  0
 21 12  1  0
 21 22  1  0
 22 23  2  0
 23 24  1  0
 23 25  1  0
 25 26  2  0
 26 27  1  0
 27 28  2  0
 28 22  1  0
 17 29  1  0
 29 30  1  0
 30 31  1  0
 31 32  1  0
 32 16  1  0
 31 33  1  0
  1 34  1  0
 34 35  2  0
 35 36  1  0
 36 37  2  0
 37 38  1  0
 38 39  2  0
 39 34  1  0
 37 40  1  0
M  END
$$$$
s_42a____8624686____125362
     RDKit          3D

 36 41  0  0  0  0  0  0  0  0999 V2000
    4.8183   -0.2563    0.0796 Cl  0  0  0  0  0  0  0  0  0  0  0  0
    5.9766   -0.0345    1.4137 C   0  0  0  0  0  0  0  0  0  0  0  0
    5.6615    0.8207    2.4636 C   0  0  0  0  0  0  0  0  0  0  0  0
    6.5094    1.0234    3.4728 N   0  0  0  0  0  0  0  0  0  0  0  0
    7.6402    0.3362    3.3719 C   0  0  0  0  0  0  0  0  0  0  0  0
    8.7903    0.5654    4.5920 S   0  0  0  0  0  0  0  0  0  0  0  0
    9.9281   -0.5119    3.9372 C   0  0  0  0  0  0  0  0  0  0  0  0
    9.4179   -1.0247    2.8045 C   0  0  0  0  0  0  0  0  0  0  0  0
    8.1237   -0.5597    2.4544 C   0  0  0  0  0  0  0  0  0  0  0  0
    7.1926   -0.7054    1.4240 C   0  0  0  0  0  0  0  0  0  0  0  0
    7.5064   -1.5862    0.3137 C   0  0  0  0  0  0  0  0  0  0  0  0
    7.9786   -1.0422   -0.8762 C   0  0  0  0  0  0  0  0  0  0  0  0
    8.2766   -1.8944   -1.9343 C   0  0  0  0  0  0  0  0  0  0  0  0
    8.7288   -1.3920   -3.0783 F   0  0  0  0  0  0  0  0  0  0  0  0
    8.1037   -3.2670   -1.8004 C   0  0  0  0  0  0  0  0  0  0  0  0
    7.6319   -3.8078   -0.6093 C   0  0  0  0  0  0  0  0  0  0  0  0
    7.3324   -2.9590    0.4515 C   0  0  0  0  0  0  0  0  0  0  0  0
    8.4333   -4.1890   -2.9627 C   0  0  0  0  0  0  0  0  0  0  0  0
   10.5807   -1.8777    2.3356 C   0  0  0  0  0  0  0  0  0  0  0  0
   11.3959   -2.2033    3.5687 C   0  0  0  0  0  0  0  0  0  0  0  0
   11.3193   -0.9125    4.3577 C   0  0  0  0  0  0  0  0  0  0  0  0
    4.3934    1.5238    2.4792 C   0  0  0  0  0  0  0  0  0  0  0  0
    4.3889    2.9151    2.4847 C   0  0  0  0  0  0  0  0  0  0  0  0
    3.1774    3.5986    2.4996 C   0  0  0  0  0  0  0  0  0  0  0  0
    1.9850    2.8822    2.5096 C   0  0  0  0  0  0  0  0  0  0  0  0
    0.7615    3.5615    2.5249 N   0  0  0  0  0  0  0  0  0  0  0  0
    0.4614    4.4091    3.5586 C   0  0  0  0  0  0  0  0  0  0  0  0
    0.9090    4.2030    4.6527 O   0  0  0  0  0  0  0  0  0  0  0  0
   -0.3972    5.5554    3.3304 C   0  0  0  0  0  0  0  0  0  0  0  0
   -1.0353    6.1634    4.4066 C   0  0  0  0  0  0  0  0  0  0  0  0
   -1.8588    7.2621    4.1832 C   0  0  0  0  0  0  0  0  0  0  0  0
   -2.0380    7.7457    2.8914 C   0  0  0  0  0  0  0  0  0  0  0  0
   -1.3952    7.1307    1.8242 C   0  0  0  0  0  0  0  0  0  0  0  0
   -0.5698    6.0309    2.0344 C   0  0  0  0  0  0  0  0  0  0  0  0
    1.9902    1.4907    2.5042 C   0  0  0  0  0  0  0  0  0  0  0  0
    3.2017    0.8073    2.4891 C   0  0  0  0  0  0  0  0  0  0  0  0
  1  2  1  0
  2  3  2  0
  3  4  1  0
  4  5  2  0
  5  6  1  0
  6  7  1  0
  7  8  2  0
  8  9  1  0
  9  5  1  0
  9 10  2  0
 10  2  1  0
 10 11  1  0
 11 12  2  0
 12 13  1  0
 13 14  1  0
 13 15  2  0
 15 16  1  0
 16 17  2  0
 17 11  1  0
 15 18  1  0
  8 19  1  0
 19 20  1  0
 20 21  1  0
 21  7  1  0
  3 22  1  0
 22 23  2  0
 23 24  1  0
 24 25  2  0
 25 26  1  0
 26 27  1  0
 27 28  2  0
 27 29  1  0
 29 30  2  0
 30 31  1  0
 31 32  2  0
 32 33  1  0
 33 34  2  0
 34 29  1  0
 25 35  1  0
 35 36  2  0
 36 22  1  0
M  END
$$$$
s_42a____8624686____17055468
     RDKit          3D

 38 43  0  0  0  0  0  0  0  0999 V2000
    5.1701    0.5264   -0.3789 Br  0  0  0  0  0  0  0  0  0  0  0  0
    6.1829    0.2966    1.2845 C   0  0  0  0  0  0  0  0  0  0  0  0
    5.6610    0.8209    2.4636 C   0  0  0  0  0  0  0  0  0  0  0  0
    6.3258    0.6866    3.6173 N   0  0  0  0  0  0  0  0  0  0  0  0
    7.4983    0.0405    3.5653 C   0  0  0  0  0  0  0  0  0  0  0  0
    8.4432   -0.1919    4.9636 S   0  0  0  0  0  0  0  0  0  0  0  0
    9.6992   -0.9987    4.1614 C   0  0  0  0  0  0  0  0  0  0  0  0
    9.3959   -1.1218    2.8582 C   0  0  0  0  0  0  0  0  0  0  0  0
    8.1385   -0.5267    2.4825 C   0  0  0  0  0  0  0  0  0  0  0  0
    7.4035   -0.3701    1.3119 C   0  0  0  0  0  0  0  0  0  0  0  0
    7.9146   -0.9030    0.0620 C   0  0  0  0  0  0  0  0  0  0  0  0
    7.9473   -2.2803   -0.1296 C   0  0  0  0  0  0  0  0  0  0  0  0
    8.4385   -2.7812   -1.3306 C   0  0  0  0  0  0  0  0  0  0  0  0
    8.4771   -4.0943   -1.5308 F   0  0  0  0  0  0  0  0  0  0  0  0
    8.8886   -1.9157   -2.3206 C   0  0  0  0  0  0  0  0  0  0  0  0
    8.8541   -0.5391   -2.1261 C   0  0  0  0  0  0  0  0  0  0  0  0
    8.3637   -0.0340   -0.9263 C   0  0  0  0  0  0  0  0  0  0  0  0
    9.4226   -2.4738   -3.6294 C   0  0  0  0  0  0  0  0  0  0  0  0
   10.6093   -1.8795    2.3525 C   0  0  0  0  0  0  0  0  0  0  0  0
   11.1654   -2.6100    3.5544 C   0  0  0  0  0  0  0  0  0  0  0  0
   11.0278   -1.5502    4.6156 C   0  0  0  0  0  0  0  0  0  0  0  0
    4.3931    1.5238    2.4796 C   0  0  0  0  0  0  0  0  0  0  0  0
    4.3920    2.9152    2.4870 C   0  0  0  0  0  0  0  0  0  0  0  0
    3.1737    3.5860    2.5020 C   0  0  0  0  0  0  0  0  0  0  0  0
    3.1519    4.9853    2.5098 N   0  0  0  0  0  0  0  0  0  0  0  0
    3.8290    5.6015    3.3162 O   0  0  0  0  0  0  0  0  0  0  0  0
    2.4615    5.5841    1.7167 O   0  0  0  0  0  0  0  0  0  0  0  0
    1.9805    2.8727    2.5095 C   0  0  0  0  0  0  0  0  0  0  0  0
    0.8052    3.5371    2.5243 O   0  0  0  0  0  0  0  0  0  0  0  0
   -0.4147    2.8194    2.6392 C   0  0  0  0  0  0  0  0  0  0  0  0
   -1.5799    3.7960    2.6315 C   0  0  0  0  0  0  0  0  0  0  0  0
   -2.1713    4.1535    1.4242 C   0  0  0  0  0  0  0  0  0  0  0  0
   -3.2366    5.0480    1.4216 C   0  0  0  0  0  0  0  0  0  0  0  0
   -3.7038    5.5768    2.6202 C   0  0  0  0  0  0  0  0  0  0  0  0
   -3.1056    5.2121    3.8201 C   0  0  0  0  0  0  0  0  0  0  0  0
   -2.0392    4.3191    3.8360 C   0  0  0  0  0  0  0  0  0  0  0  0
    1.9840    1.4816    2.5025 C   0  0  0  0  0  0  0  0  0  0  0  0
    3.2003    0.8073    2.4875 C   0  0  0  0  0  0  0  0  0  0  0  0
  1  2  1  0
  2  3  2  0
  3  4  1  0
  4  5  2  0
  5  6  1  0
  6  7  1  0
  7  8  2  0
  8  9  1  0
  9  5  1  0
  9 10  2  0
 10  2  1  0
 10 11  1  0
 11 12  2  0
 12 13  1  0
 13 14  1  0
 13 15  2  0
 15 16  1  0
 16 17  2  0
 17 11  1  0
 15 18  1  0
  8 19  1  0
 19 20  1  0
 20 21  1  0
 21  7  1  0
  3 22  1  0
 22 23  2  0
 23 24  1  0
 24 25  1  0
 25 26  1  0
 25 27  2  0
 24 28  2  0
 28 29  1  0
 29 30  1  0
 30 31  1  0
 31 32  2  0
 32 33  1  0
 33 34  2  0
 34 35  1  0
 35 36  2  0
 36 31  1  0
 28 37  1  0
 37 38  2  0
 38 22  1  0
M  CHG  2  25   1  26  -1
M  END
$$$$
s_42a____8631722____125334
     RDKit          3D

 36 40  0  0  0  0  0  0  0  0999 V2000
    4.8834   -0.2982    4.8400 Cl  0  0  0  0  0  0  0  0  0  0  0  0
    6.0186   -0.0481    3.4914 C   0  0  0  0  0  0  0  0  0  0  0  0
    5.6614    0.8207    2.4636 C   0  0  0  0  0  0  0  0  0  0  0  0
    6.4904    1.0316    1.4379 N   0  0  0  0  0  0  0  0  0  0  0  0
    7.6512    0.3775    1.4649 C   0  0  0  0  0  0  0  0  0  0  0  0
    8.7907    0.6022    0.2204 S   0  0  0  0  0  0  0  0  0  0  0  0
    9.9747   -0.4265    0.8680 C   0  0  0  0  0  0  0  0  0  0  0  0
    9.4808   -0.9525    2.0263 C   0  0  0  0  0  0  0  0  0  0  0  0
    8.1581   -0.5124    2.3974 C   0  0  0  0  0  0  0  0  0  0  0  0
    7.2519   -0.7004    3.4436 C   0  0  0  0  0  0  0  0  0  0  0  0
    7.5832   -1.5938    4.5374 C   0  0  0  0  0  0  0  0  0  0  0  0
    8.0594   -1.0581    5.7291 C   0  0  0  0  0  0  0  0  0  0  0  0
    8.3810   -1.9067    6.7836 C   0  0  0  0  0  0  0  0  0  0  0  0
    8.2215   -3.2803    6.6331 C   0  0  0  0  0  0  0  0  0  0  0  0
    8.5295   -4.1115    7.6513 O   0  0  0  0  0  0  0  0  0  0  0  0
    8.3666   -5.5137    7.4972 C   0  0  0  0  0  0  0  0  0  0  0  0
    7.7454   -3.8156    5.4407 C   0  0  0  0  0  0  0  0  0  0  0  0
    7.4242   -2.9674    4.3861 C   0  0  0  0  0  0  0  0  0  0  0  0
   10.5155   -1.8707    2.6713 C   0  0  0  0  0  0  0  0  0  0  0  0
   11.9429   -1.3327    2.5867 C   0  0  0  0  0  0  0  0  0  0  0  0
   12.2616   -0.4517    1.3849 C   0  0  0  0  0  0  0  0  0  0  0  0
   11.3251   -0.6370    0.2116 C   0  0  0  0  0  0  0  0  0  0  0  0
   13.6517   -0.8338    0.9100 C   0  0  0  0  0  0  0  0  0  0  0  0
    4.3934    1.5238    2.4792 C   0  0  0  0  0  0  0  0  0  0  0  0
    4.3889    2.9151    2.4847 C   0  0  0  0  0  0  0  0  0  0  0  0
    3.1774    3.5986    2.4996 C   0  0  0  0  0  0  0  0  0  0  0  0
    1.9850    2.8822    2.5096 C   0  0  0  0  0  0  0  0  0  0  0  0
    0.7615    3.5615    2.5249 N   0  0  0  0  0  0  0  0  0  0  0  0
    0.0635    3.9516    3.9453 S   0  0  0  0  0  0  0  0  0  0  0  0
    1.0837    4.1634    4.9393 O   0  0  0  0  0  0  0  0  0  0  0  0
   -0.7087    5.1564    3.7858 O   0  0  0  0  0  0  0  0  0  0  0  0
   -1.0231    2.6040    4.4738 C   0  0  0  0  0  0  0  0  0  0  0  0
    0.1058    3.9232    1.2599 C   0  0  0  0  0  0  0  0  0  0  0  0
    0.5754    5.3008    0.8216 C   0  0  0  0  0  0  0  0  0  0  0  0
    1.9902    1.4907    2.5042 C   0  0  0  0  0  0  0  0  0  0  0  0
    3.2017    0.8073    2.4891 C   0  0  0  0  0  0  0  0  0  0  0  0
  1  2  1  0
  2  3  2  0
  3  4  1  0
  4  5  2  0
  5  6  1  0
  6  7  1  0
  7  8  2  0
  8  9  1  0
  9  5  1  0
  9 10  2  0
 10  2  1  0
 10 11  1  0
 11 12  2  0
 12 13  1  0
 13 14  2  0
 14 15  1  0
 15 16  1  0
 14 17  1  0
 17 18  2  0
 18 11  1  0
  8 19  1  0
 19 20  1  0
 20 21  1  0
 21 22  1  0
 22  7  1  0
 21 23  1  0
  3 24  1  0
 24 25  2  0
 25 26  1  0
 26 27  2  0
 27 28  1  0
 28 29  1  0
 29 30  2  0
 29 31  2  0
 29 32  1  0
 28 33  1  0
 33 34  1  0
 27 35  1  0
 35 36  2  0
 36 24  1  0
M  END
$$$$
m_271722____10195400____10193694
     RDKit          3D

 36 40  0  0  0  0  0  0  0  0999 V2000
   -3.1077    3.9215    0.8760 Cl  0  0  0  0  0  0  0  0  0  0  0  0
   -2.0700    2.6055    0.2769 C   0  0  0  0  0  0  0  0  0  0  0  0
   -0.6885    2.6929    0.4078 C   0  0  0  0  0  0  0  0  0  0  0  0
   -0.1219    3.8220    1.0108 N   0  0  0  0  0  0  0  0  0  0  0  0
    0.4648    3.7275    2.5286 S   0  0  0  0  0  0  0  0  0  0  0  0
   -0.4719    3.0192    3.3620 O   0  0  0  0  0  0  0  0  0  0  0  0
    0.6631    5.0550    3.0502 O   0  0  0  0  0  0  0  0  0  0  0  0
    1.9833    2.8783    2.5116 C   0  0  0  0  0  0  0  0  0  0  0  0
    3.1735    3.5977    2.5023 C   0  0  0  0  0  0  0  0  0  0  0  0
    4.3802    2.9056    2.4882 C   0  0  0  0  0  0  0  0  0  0  0  0
    4.4059    1.5148    2.4827 C   0  0  0  0  0  0  0  0  0  0  0  0
    3.2042    0.8141    2.4925 C   0  0  0  0  0  0  0  0  0  0  0  0
    1.9869    1.4870    2.5070 C   0  0  0  0  0  0  0  0  0  0  0  0
    5.6230    3.6528    2.4786 C   0  0  0  0  0  0  0  0  0  0  0  0
    5.7297    4.9602    2.4820 O   0  0  0  0  0  0  0  0  0  0  0  0
    7.0122    5.2392    2.4710 C   0  0  0  0  0  0  0  0  0  0  0  0
    7.6939    4.1182    2.4614 N   0  0  0  0  0  0  0  0  0  0  0  0
    6.8277    3.1302    2.4669 N   0  0  0  0  0  0  0  0  0  0  0  0
    7.5834    6.5691    2.4684 C   0  0  0  0  0  0  0  0  0  0  0  0
    8.9612    6.7263    2.4564 C   0  0  0  0  0  0  0  0  0  0  0  0
    9.5320    7.9934    2.4544 C   0  0  0  0  0  0  0  0  0  0  0  0
    8.6799    9.1063    2.4661 C   0  0  0  0  0  0  0  0  0  0  0  0
    7.2999    8.9378    2.4781 C   0  0  0  0  0  0  0  0  0  0  0  0
    6.7371    7.6686    2.4785 C   0  0  0  0  0  0  0  0  0  0  0  0
    9.2193   10.5333    2.4508 C   0  0  0  0  0  0  0  0  0  0  0  0
   10.6855   10.5895    2.8501 C   0  0  0  0  0  0  0  0  0  0  0  0
   11.5002    9.5394    2.1045 C   0  0  0  0  0  0  0  0  0  0  0  0
   11.0542    8.1241    2.4437 C   0  0  0  0  0  0  0  0  0  0  0  0
   11.7360    7.0928    1.5555 C   0  0  0  0  0  0  0  0  0  0  0  0
   11.5262    7.8893    3.8701 C   0  0  0  0  0  0  0  0  0  0  0  0
    8.3966   11.4977    3.2905 C   0  0  0  0  0  0  0  0  0  0  0  0
    9.1633   11.0265    1.0141 C   0  0  0  0  0  0  0  0  0  0  0  0
    0.1299    1.6690   -0.0580 C   0  0  0  0  0  0  0  0  0  0  0  0
   -0.4459    0.5535   -0.6563 C   0  0  0  0  0  0  0  0  0  0  0  0
   -1.8283    0.4703   -0.7870 C   0  0  0  0  0  0  0  0  0  0  0  0
   -2.6503    1.4923   -0.3233 C   0  0  0  0  0  0  0  0  0  0  0  0
  1  2  1  0
  2  3  2  0
  3  4  1  0
  4  5  1  0
  5  6  2  0
  5  7  2  0
  5  8  1  0
  8  9  2  0
  9 10  1  0
 10 11  2  0
 11 12  1  0
 12 13  2  0
 13  8  1  0
 10 14  1  0
 14 15  1  0
 15 16  1  0
 16 17  2  0
 17 18  1  0
 14 18  2  0
 16 19  1  0
 19 20  2  0
 20 21  1  0
 21 22  2  0
 22 23  1  0
 23 24  2  0
 24 19  1  0
 22 25  1  0
 25 26  1  0
 26 27  1  0
 27 28  1  0
 28 21  1  0
 28 29  1  0
 28 30  1  0
 25 31  1  0
 25 32  1  0
  3 33  1  0
 33 34  2  0
 34 35  1  0
 35 36  2  0
 36  2  1  0
M  END
$$$$
m_273170____10757270____10763676____10755794
     RDKit          3D

 39 43  0  0  0  0  0  0  0  0999 V2000
   -1.5886   -1.5199    6.5957 S   0  0  0  0  0  0  0  0  0  0  0  0
   -0.4437   -1.7011    7.4501 O   0  0  0  0  0  0  0  0  0  0  0  0
   -2.3895   -0.4305    7.0910 O   0  0  0  0  0  0  0  0  0  0  0  0
   -1.0549   -1.1593    4.9796 C   0  0  0  0  0  0  0  0  0  0  0  0
   -1.9884   -1.0121    3.9594 C   0  0  0  0  0  0  0  0  0  0  0  0
   -1.5642   -0.7238    2.6662 C   0  0  0  0  0  0  0  0  0  0  0  0
   -0.2038   -0.5869    2.4116 C   0  0  0  0  0  0  0  0  0  0  0  0
    0.7294   -0.7347    3.4326 C   0  0  0  0  0  0  0  0  0  0  0  0
    0.3059   -1.0223    4.7254 C   0  0  0  0  0  0  0  0  0  0  0  0
    0.2650   -0.2731    1.0004 C   0  0  0  0  0  0  0  0  0  0  0  0
    1.0000    1.0000    1.0000 N   0  0  0  0  0  0  0  0  0  0  0  0
    2.4017    1.0000    1.0000 C   0  0  0  0  0  0  0  0  0  0  0  0
    3.1912    2.0296    1.1812 N   0  0  0  0  0  0  0  0  0  0  0  0
    4.4560    1.6780    1.1153 N   0  0  0  0  0  0  0  0  0  0  0  0
    4.5040    0.3852    0.8853 C   0  0  0  0  0  0  0  0  0  0  0  0
    3.2232   -0.0646    0.8086 N   0  0  0  0  0  0  0  0  0  0  0  0
    2.8010   -1.4518    0.5637 C   0  0  0  0  0  0  0  0  0  0  0  0
    3.0067   -1.7926   -0.9030 C   0  0  0  0  0  0  0  0  0  0  0  0
    3.6827   -2.9554   -1.2545 C   0  0  0  0  0  0  0  0  0  0  0  0
    3.9147   -3.2723   -2.5910 C   0  0  0  0  0  0  0  0  0  0  0  0
    3.4413   -2.4492   -3.6034 C   0  0  0  0  0  0  0  0  0  0  0  0
    3.6745   -2.8172   -4.9379 N   0  0  0  0  0  0  0  0  0  0  0  0
    4.9640   -3.4386   -5.2869 C   0  0  0  0  0  0  0  0  0  0  0  0
    5.6513   -4.1126   -4.1056 C   0  0  0  0  0  0  0  0  0  0  0  0
    4.6925   -4.5175   -2.9934 C   0  0  0  0  0  0  0  0  0  0  0  0
    2.6896   -2.5878   -6.0067 C   0  0  0  0  0  0  0  0  0  0  0  0
    2.7578   -1.2912   -3.2385 C   0  0  0  0  0  0  0  0  0  0  0  0
    2.5367   -0.9521   -1.9073 C   0  0  0  0  0  0  0  0  0  0  0  0
    5.7068   -0.4115    0.7407 C   0  0  0  0  0  0  0  0  0  0  0  0
    5.6846   -1.7499    1.1193 C   0  0  0  0  0  0  0  0  0  0  0  0
    6.8413   -2.5098    0.9802 C   0  0  0  0  0  0  0  0  0  0  0  0
    6.8311   -3.8581    1.3586 N   0  0  0  0  0  0  0  0  0  0  0  0
    7.8831   -4.4563    1.5127 O   0  0  0  0  0  0  0  0  0  0  0  0
    5.7790   -4.4297    1.5326 O   0  0  0  0  0  0  0  0  0  0  0  0
    8.0091   -1.9518    0.4711 C   0  0  0  0  0  0  0  0  0  0  0  0
    8.0083   -0.6118    0.0984 C   0  0  0  0  0  0  0  0  0  0  0  0
    6.8632    0.1669    0.2287 C   0  0  0  0  0  0  0  0  0  0  0  0
    0.2650    2.2731    0.9996 C   0  0  0  0  0  0  0  0  0  0  0  0
   -2.5762   -3.0367    6.5807 C   0  0  0  0  0  0  0  0  0  0  0  0
  1  2  2  0
  1  3  2  0
  1  4  1  0
  4  5  2  0
  5  6  1  0
  6  7  2  0
  7  8  1  0
  8  9  2  0
  9  4  1  0
  7 10  1  0
 10 11  1  0
 11 12  1  0
 12 13  2  0
 13 14  1  0
 14 15  2  0
 15 16  1  0
 16 12  1  0
 16 17  1  0
 17 18  1  0
 18 19  2  0
 19 20  1  0
 20 21  2  0
 21 22  1  0
 22 23  1  0
 23 24  1  0
 24 25  1  0
 25 20  1  0
 22 26  1  0
 21 27  1  0
 27 28  2  0
 28 18  1  0
 15 29  1  0
 29 30  2  0
 30 31  1  0
 31 32  1  0
 32 33  1  0
 32 34  2  0
 31 35  2  0
 35 36  1  0
 36 37  2  0
 37 29  1  0
 11 38  1  0
  1 39  1  0
M  CHG  2  32   1  33  -1
M  END
$$$$
s_1____86402____14589724____4065724
     RDKit          3D

 40 45  0  0  0  0  0  0  0  0999 V2000
    3.3172    3.5669    2.4298 S   0  0  0  0  0  0  0  0  0  0  0  0
    4.2425    2.1363    2.4399 C   0  0  0  0  0  0  0  0  0  0  0  0
    5.5084    2.0468    2.4336 N   0  0  0  0  0  0  0  0  0  0  0  0
    6.2845    3.1294    2.0026 C   0  0  0  0  0  0  0  0  0  0  0  0
    7.1126    2.9833    0.8949 C   0  0  0  0  0  0  0  0  0  0  0  0
    7.1633    1.8207    0.2514 F   0  0  0  0  0  0  0  0  0  0  0  0
    7.8905    4.0482    0.4523 C   0  0  0  0  0  0  0  0  0  0  0  0
    7.8272    5.2587    1.1341 C   0  0  0  0  0  0  0  0  0  0  0  0
    7.0012    5.4090    2.2428 C   0  0  0  0  0  0  0  0  0  0  0  0
    6.2248    4.3422    2.6813 C   0  0  0  0  0  0  0  0  0  0  0  0
    3.3431    1.1160    2.4596 N   0  0  0  0  0  0  0  0  0  0  0  0
    3.7491   -0.1708    2.4697 N   0  0  0  0  0  0  0  0  0  0  0  0
    3.9475   -0.7551    3.5568 C   0  0  0  0  0  0  0  0  0  0  0  0
    4.3832   -2.1361    3.5676 C   0  0  0  0  0  0  0  0  0  0  0  0
    4.5749   -2.7936    2.3583 C   0  0  0  0  0  0  0  0  0  0  0  0
    4.9960   -4.1127    2.4119 C   0  0  0  0  0  0  0  0  0  0  0  0
    5.2166   -4.7643    3.6070 C   0  0  0  0  0  0  0  0  0  0  0  0
    5.0196   -4.0951    4.8113 C   0  0  0  0  0  0  0  0  0  0  0  0
    4.5994   -2.7707    4.7845 C   0  0  0  0  0  0  0  0  0  0  0  0
    5.6670   -6.1849    3.3229 C   0  0  0  0  0  0  0  0  0  0  0  0
    6.3111   -5.9735    1.9674 C   0  0  0  0  0  0  0  0  0  0  0  0
    5.3102   -5.0665    1.2839 C   0  0  0  0  0  0  0  0  0  0  0  0
    6.6744   -6.6922    4.3408 C   0  0  0  0  0  0  0  0  0  0  0  0
    4.5026   -7.1633    3.2901 C   0  0  0  0  0  0  0  0  0  0  0  0
    2.0312    1.5170    2.4703 C   0  0  0  0  0  0  0  0  0  0  0  0
    0.9035    0.6188    2.4910 C   0  0  0  0  0  0  0  0  0  0  0  0
   -0.1026    0.8162    3.4305 C   0  0  0  0  0  0  0  0  0  0  0  0
   -1.1942   -0.0458    3.4593 C   0  0  0  0  0  0  0  0  0  0  0  0
   -1.2662   -1.0939    2.5476 C   0  0  0  0  0  0  0  0  0  0  0  0
   -2.3222   -1.9346    2.5669 O   0  0  0  0  0  0  0  0  0  0  0  0
   -2.3949   -3.0043    1.6359 C   0  0  0  0  0  0  0  0  0  0  0  0
   -3.6731   -3.7935    1.8695 C   0  0  0  0  0  0  0  0  0  0  0  0
   -4.8371   -3.4346    1.1977 C   0  0  0  0  0  0  0  0  0  0  0  0
   -6.0047   -4.1589    1.4151 C   0  0  0  0  0  0  0  0  0  0  0  0
   -6.0022   -5.2339    2.2977 C   0  0  0  0  0  0  0  0  0  0  0  0
   -4.8335   -5.5837    2.9628 C   0  0  0  0  0  0  0  0  0  0  0  0
   -3.6597   -4.8669    2.7546 C   0  0  0  0  0  0  0  0  0  0  0  0
   -0.2593   -1.2910    1.6082 C   0  0  0  0  0  0  0  0  0  0  0  0
    0.8324   -0.4296    1.5795 C   0  0  0  0  0  0  0  0  0  0  0  0
    1.7728    2.8524    2.4604 C   0  0  0  0  0  0  0  0  0  0  0  0
  1  2  1  0
  2  3  2  0
  3  4  1  0
  4  5  2  0
  5  6  1  0
  5  7  1  0
  7  8  2  0
  8  9  1  0
  9 10  2  0
 10  4  1  0
  2 11  1  0
 11 12  1  0
 12 13  2  0
 13 14  1  0
 14 15  2  0
 15 16  1  0
 16 17  2  0
 17 18  1  0
 18 19  2  0
 19 14  1  0
 17 20  1  0
 20 21  1  0
 21 22  1  0
 22 16  1  0
 20 23  1  0
 20 24  1  0
 11 25  1  0
 25 26  1  0
 26 27  2  0
 27 28  1  0
 28 29  2  0
 29 30  1  0
 30 31  1  0
 31 32  1  0
 32 33  2  0
 33 34  1  0
 34 35  2  0
 35 36  1  0
 36 37  2  0
 37 32  1  0
 29 38  1  0
 38 39  2  0
 39 26  1  0
 25 40  2  0
 40  1  1  0
M  END
$$$$
s_42a____8624704____125253
     RDKit          3D

 31 36  0  0  0  0  0  0  0  0999 V2000
    3.4021    3.5921    2.4874 S   0  0  0  0  0  0  0  0  0  0  0  0
    4.2322    2.1139    2.4839 C   0  0  0  0  0  0  0  0  0  0  0  0
    5.5627    2.1935    2.4661 N   0  0  0  0  0  0  0  0  0  0  0  0
    6.2010    1.0219    2.4596 C   0  0  0  0  0  0  0  0  0  0  0  0
    5.4817   -0.1706    2.4691 C   0  0  0  0  0  0  0  0  0  0  0  0
    4.0879   -0.1443    2.4870 C   0  0  0  0  0  0  0  0  0  0  0  0
    3.3838   -1.4122    2.4907 C   0  0  0  0  0  0  0  0  0  0  0  0
    2.9304   -1.9930    1.3093 C   0  0  0  0  0  0  0  0  0  0  0  0
    2.2583   -3.2105    1.3461 C   0  0  0  0  0  0  0  0  0  0  0  0
    2.0434   -3.8397    2.5682 C   0  0  0  0  0  0  0  0  0  0  0  0
    2.4938   -3.2628    3.7514 C   0  0  0  0  0  0  0  0  0  0  0  0
    3.1656   -2.0452    3.7100 C   0  0  0  0  0  0  0  0  0  0  0  0
    1.3092   -5.1703    2.6096 C   0  0  0  0  0  0  0  0  0  0  0  0
    3.1519   -1.3267   -0.0391 C   0  0  0  0  0  0  0  0  0  0  0  0
    3.3623    1.0487    2.4963 C   0  0  0  0  0  0  0  0  0  0  0  0
    2.0148    1.5017    2.5467 C   0  0  0  0  0  0  0  0  0  0  0  0
    1.8835    2.8345    2.5194 C   0  0  0  0  0  0  0  0  0  0  0  0
    0.4720    3.3942    2.5657 C   0  0  0  0  0  0  0  0  0  0  0  0
   -0.3455    2.1334    2.3395 C   0  0  0  0  0  0  0  0  0  0  0  0
    0.5887    0.9795    2.6492 C   0  0  0  0  0  0  0  0  0  0  0  0
    7.6479    0.9958    2.4498 C   0  0  0  0  0  0  0  0  0  0  0  0
    8.3963    0.4010    3.5022 C   0  0  0  0  0  0  0  0  0  0  0  0
    7.7939   -0.1004    4.4384 O   0  0  0  0  0  0  0  0  0  0  0  0
    9.7180    0.3927    3.4655 O   0  0  0  0  0  0  0  0  0  0  0  0
   10.3964    0.9279    2.4644 C   0  0  0  0  0  0  0  0  0  0  0  0
    9.7372    1.5288    1.3961 C   0  0  0  0  0  0  0  0  0  0  0  0
   10.4281    2.0989    0.3317 C   0  0  0  0  0  0  0  0  0  0  0  0
   11.8184    2.0674    0.3353 C   0  0  0  0  0  0  0  0  0  0  0  0
   12.4982    1.4715    1.3932 C   0  0  0  0  0  0  0  0  0  0  0  0
   11.7871    0.9075    2.4474 C   0  0  0  0  0  0  0  0  0  0  0  0
    8.3180    1.5602    1.3960 C   0  0  0  0  0  0  0  0  0  0  0  0
  1  2  1  0
  2  3  2  0
  3  4  1  0
  4  5  2  0
  5  6  1  0
  6  7  1  0
  7  8  2  0
  8  9  1  0
  9 10  2  0
 10 11  1  0
 11 12  2  0
 12  7  1  0
 10 13  1  0
  8 14  1  0
  6 15  2  0
 15  2  1  0
 15 16  1  0
 16 17  2  0
 17  1  1  0
 17 18  1  0
 18 19  1  0
 19 20  1  0
 20 16  1  0
  4 21  1  0
 21 22  1  0
 22 23  2  0
 22 24  1  0
 24 25  1  0
 25 26  2  0
 26 27  1  0
 27 28  2  0
 28 29  1  0
 29 30  2  0
 30 25  1  0
 26 31  1  0
 21 31  2  0
M  END
$$$$
s_1____86402____10429790____9284806
     RDKit          3D

 42 48  0  0  0  0  0  0  0  0999 V2000
    3.3172    3.5669    2.4298 S   0  0  0  0  0  0  0  0  0  0  0  0
    4.2425    2.1363    2.4399 C   0  0  0  0  0  0  0  0  0  0  0  0
    5.5084    2.0468    2.4336 N   0  0  0  0  0  0  0  0  0  0  0  0
    6.2845    3.1294    2.0026 C   0  0  0  0  0  0  0  0  0  0  0  0
    7.1126    2.9833    0.8949 C   0  0  0  0  0  0  0  0  0  0  0  0
    7.1633    1.8207    0.2514 F   0  0  0  0  0  0  0  0  0  0  0  0
    7.8905    4.0482    0.4523 C   0  0  0  0  0  0  0  0  0  0  0  0
    7.8272    5.2587    1.1341 C   0  0  0  0  0  0  0  0  0  0  0  0
    7.0012    5.4090    2.2428 C   0  0  0  0  0  0  0  0  0  0  0  0
    6.2248    4.3422    2.6813 C   0  0  0  0  0  0  0  0  0  0  0  0
    3.3431    1.1160    2.4596 N   0  0  0  0  0  0  0  0  0  0  0  0
    3.7491   -0.1708    2.4697 N   0  0  0  0  0  0  0  0  0  0  0  0
    3.9268   -0.7786    1.3919 C   0  0  0  0  0  0  0  0  0  0  0  0
    4.3621   -2.1581    1.4028 C   0  0  0  0  0  0  0  0  0  0  0  0
    4.5466   -2.7934    0.1823 C   0  0  0  0  0  0  0  0  0  0  0  0
    4.9815   -4.1139    0.1795 C   0  0  0  0  0  0  0  0  0  0  0  0
    5.2021   -4.7792    1.3812 C   0  0  0  0  0  0  0  0  0  0  0  0
    5.0120   -4.1379    2.5990 C   0  0  0  0  0  0  0  0  0  0  0  0
    4.5898   -2.8143    2.6061 C   0  0  0  0  0  0  0  0  0  0  0  0
    5.6398   -6.2313    1.4114 C   0  0  0  0  0  0  0  0  0  0  0  0
    6.2437   -6.6531    0.0825 C   0  0  0  0  0  0  0  0  0  0  0  0
    5.2474   -6.3053   -1.0136 C   0  0  0  0  0  0  0  0  0  0  0  0
    5.2206   -4.7906   -1.1603 C   0  0  0  0  0  0  0  0  0  0  0  0
    2.0312    1.5170    2.4703 C   0  0  0  0  0  0  0  0  0  0  0  0
    0.8969    0.6136    2.4912 C   0  0  0  0  0  0  0  0  0  0  0  0
   -0.0341    0.6413    1.4575 C   0  0  0  0  0  0  0  0  0  0  0  0
    0.0960    1.5293    0.3829 N   0  0  0  0  0  0  0  0  0  0  0  0
    0.9308    1.3563   -0.7174 C   0  0  0  0  0  0  0  0  0  0  0  0
    1.6698    0.4032   -0.8992 O   0  0  0  0  0  0  0  0  0  0  0  0
    0.7727    2.4911   -1.5949 C   0  0  0  0  0  0  0  0  0  0  0  0
   -0.1416    3.3216   -1.0017 C   0  0  0  0  0  0  0  0  0  0  0  0
   -0.4377    4.4997   -1.6800 C   0  0  0  0  0  0  0  0  0  0  0  0
    0.1676    4.8059   -2.8935 C   0  0  0  0  0  0  0  0  0  0  0  0
    1.0923    3.9372   -3.4640 C   0  0  0  0  0  0  0  0  0  0  0  0
    1.4078    2.7549   -2.8024 C   0  0  0  0  0  0  0  0  0  0  0  0
   -0.5913    2.7303    0.2362 C   0  0  0  0  0  0  0  0  0  0  0  0
   -1.4158    3.2051    1.0007 O   0  0  0  0  0  0  0  0  0  0  0  0
   -1.1214   -0.2252    1.4775 C   0  0  0  0  0  0  0  0  0  0  0  0
   -1.2787   -1.1199    2.5312 C   0  0  0  0  0  0  0  0  0  0  0  0
   -0.3482   -1.1478    3.5649 C   0  0  0  0  0  0  0  0  0  0  0  0
    0.7392   -0.2805    3.5453 C   0  0  0  0  0  0  0  0  0  0  0  0
    1.7728    2.8524    2.4604 C   0  0  0  0  0  0  0  0  0  0  0  0
  1  2  1  0
  2  3  2  0
  3  4  1  0
  4  5  2  0
  5  6  1  0
  5  7  1  0
  7  8  2  0
  8  9  1  0
  9 10  2  0
 10  4  1  0
  2 11  1  0
 11 12  1  0
 12 13  2  0
 13 14  1  0
 14 15  2  0
 15 16  1  0
 16 17  2  0
 17 18  1  0
 18 19  2  0
 19 14  1  0
 17 20  1  0
 20 21  1  0
 21 22  1  0
 22 23  1  0
 23 16  1  0
 11 24  1  0
 24 25  1  0
 25 26  1  0
 26 27  1  0
 27 28  1  0
 28 29  2  0
 28 30  1  0
 30 31  2  0
 31 32  1  0
 32 33  2  0
 33 34  1  0
 34 35  2  0
 35 30  1  0
 31 36  1  0
 36 27  1  0
 36 37  2  0
 26 38  2  0
 38 39  1  0
 39 40  2  0
 40 41  1  0
 41 25  2  0
 24 42  2  0
 42  1  1  0
M  END
$$$$
s_270196____17626302____8772290
     RDKit          3D

 36 39  0  0  0  0  0  0  0  0999 V2000
   -2.8683    6.3429    2.5805 Cl  0  0  0  0  0  0  0  0  0  0  0  0
   -1.4095    5.3240    2.5624 C   0  0  0  0  0  0  0  0  0  0  0  0
   -1.5312    3.9377    2.5672 C   0  0  0  0  0  0  0  0  0  0  0  0
   -3.1027    3.1909    2.5912 S   0  0  0  0  0  0  0  0  0  0  0  0
   -3.8108    3.6006    3.7762 O   0  0  0  0  0  0  0  0  0  0  0  0
   -3.8442    3.5954    1.4250 O   0  0  0  0  0  0  0  0  0  0  0  0
   -2.9338    1.5697    2.5924 N   0  0  0  0  0  0  0  0  0  0  0  0
   -3.0537    0.8542    3.7901 C   0  0  0  0  0  0  0  0  0  0  0  0
   -4.3010    0.3798    4.1818 C   0  0  0  0  0  0  0  0  0  0  0  0
   -4.4281   -0.3316    5.3700 C   0  0  0  0  0  0  0  0  0  0  0  0
   -3.3014   -0.5602    6.1529 C   0  0  0  0  0  0  0  0  0  0  0  0
   -3.4557   -1.4704    7.6744 Cl  0  0  0  0  0  0  0  0  0  0  0  0
   -2.0513   -0.0889    5.7664 C   0  0  0  0  0  0  0  0  0  0  0  0
   -1.9313    0.6220    4.5771 C   0  0  0  0  0  0  0  0  0  0  0  0
   -2.6556    0.8587    1.3362 C   0  0  0  0  0  0  0  0  0  0  0  0
   -0.3949    3.1345    2.5522 C   0  0  0  0  0  0  0  0  0  0  0  0
    0.8611    3.7331    2.5327 C   0  0  0  0  0  0  0  0  0  0  0  0
    0.9922    5.1183    2.5277 C   0  0  0  0  0  0  0  0  0  0  0  0
   -0.1495    5.9140    2.5424 C   0  0  0  0  0  0  0  0  0  0  0  0
    2.0463    2.8968    2.5180 C   0  0  0  0  0  0  0  0  0  0  0  0
    3.2848    3.3259    2.4991 O   0  0  0  0  0  0  0  0  0  0  0  0
    4.0764    2.3360    2.4914 N   0  0  0  0  0  0  0  0  0  0  0  0
    3.3683    1.2311    2.5037 C   0  0  0  0  0  0  0  0  0  0  0  0
    2.0573    1.5880    2.5200 N   0  0  0  0  0  0  0  0  0  0  0  0
    3.8900   -0.1218    2.4978 C   0  0  0  0  0  0  0  0  0  0  0  0
    3.0075   -1.1968    2.5127 C   0  0  0  0  0  0  0  0  0  0  0  0
    3.5042   -2.4962    2.5063 C   0  0  0  0  0  0  0  0  0  0  0  0
    4.8800   -2.7028    2.4848 C   0  0  0  0  0  0  0  0  0  0  0  0
    5.7633   -1.6279    2.4699 C   0  0  0  0  0  0  0  0  0  0  0  0
    5.2654   -0.3285    2.4764 C   0  0  0  0  0  0  0  0  0  0  0  0
    5.4008   -4.0564    2.4775 C   0  0  0  0  0  0  0  0  0  0  0  0
    6.0870   -4.4304    1.5669 O   0  0  0  0  0  0  0  0  0  0  0  0
    5.1093   -4.9081    3.5103 N   0  0  0  0  0  0  0  0  0  0  0  0
    4.2916   -4.4624    4.5955 O   0  0  0  0  0  0  0  0  0  0  0  0
    4.1340   -5.5168    5.5335 C   0  0  0  0  0  0  0  0  0  0  0  0
    5.6371   -6.2801    3.5029 C   0  0  0  0  0  0  0  0  0  0  0  0
  1  2  1  0
  2  3  2  0
  3  4  1  0
  4  5  2  0
  4  6  2  0
  4  7  1  0
  7  8  1  0
  8  9  2  0
  9 10  1  0
 10 11  2  0
 11 12  1  0
 11 13  1  0
 13 14  2  0
 14  8  1  0
  7 15  1  0
  3 16  1  0
 16 17  2  0
 17 18  1  0
 18 19  2  0
 19  2  1  0
 17 20  1  0
 20 21  1  0
 21 22  1  0
 22 23  2  0
 23 24  1  0
 20 24  2  0
 23 25  1  0
 25 26  2  0
 26 27  1  0
 27 28  2  0
 28 29  1  0
 29 30  2  0
 30 25  1  0
 28 31  1  0
 31 32  2  0
 31 33  1  0
 33 34  1  0
 34 35  1  0
 33 36  1  0
M  END
$$$$
s_60____90615____14589738
     RDKit          3D

 41 46  0  0  0  0  0  0  0  0999 V2000
    3.8631    0.3116   -4.7809 O   0  0  0  0  0  0  0  0  0  0  0  0
    3.3717    0.3318   -3.6639 C   0  0  0  0  0  0  0  0  0  0  0  0
    3.5727   -0.6866   -2.7670 N   0  0  0  0  0  0  0  0  0  0  0  0
    3.0108   -0.6420   -1.5167 C   0  0  0  0  0  0  0  0  0  0  0  0
    3.0808   -1.5259   -0.4777 N   0  0  0  0  0  0  0  0  0  0  0  0
    2.3802   -1.0461    0.5236 C   0  0  0  0  0  0  0  0  0  0  0  0
    1.8494    0.1506    0.1506 N   0  0  0  0  0  0  0  0  0  0  0  0
    2.2427    0.4016   -1.1294 C   0  0  0  0  0  0  0  0  0  0  0  0
    2.0346    1.4582   -2.0590 C   0  0  0  0  0  0  0  0  0  0  0  0
    1.3593    2.4376   -1.7906 O   0  0  0  0  0  0  0  0  0  0  0  0
    2.5994    1.4051   -3.3041 N   0  0  0  0  0  0  0  0  0  0  0  0
    1.0000    1.0000    1.0000 C   0  0  0  0  0  0  0  0  0  0  0  0
    1.8776    1.8776    1.8776 C   0  0  0  0  0  0  0  0  0  0  0  0
    1.0003    2.7548    2.7548 C   0  0  0  0  0  0  0  0  0  0  0  0
    0.6077    2.2900    4.0050 C   0  0  0  0  0  0  0  0  0  0  0  0
   -0.1947    3.1009    4.8005 C   0  0  0  0  0  0  0  0  0  0  0  0
   -0.5845    2.6651    6.0173 O   0  0  0  0  0  0  0  0  0  0  0  0
   -0.1759    1.3854    6.4776 C   0  0  0  0  0  0  0  0  0  0  0  0
   -0.5947    4.3544    4.3488 C   0  0  0  0  0  0  0  0  0  0  0  0
   -1.3733    5.1281    5.1357 O   0  0  0  0  0  0  0  0  0  0  0  0
   -1.7875    6.4093    4.6848 C   0  0  0  0  0  0  0  0  0  0  0  0
   -0.1994    4.8162    3.0967 C   0  0  0  0  0  0  0  0  0  0  0  0
    0.6037    4.0067    2.2984 C   0  0  0  0  0  0  0  0  0  0  0  0
    2.2047   -1.6828    1.8086 C   0  0  0  0  0  0  0  0  0  0  0  0
    3.2365   -2.4907    2.2655 C   0  0  0  0  0  0  0  0  0  0  0  0
    3.0310   -3.1068    3.4841 C   0  0  0  0  0  0  0  0  0  0  0  0
    1.8827   -2.9350    4.2216 C   0  0  0  0  0  0  0  0  0  0  0  0
    0.8612   -2.1154    3.7566 C   0  0  0  0  0  0  0  0  0  0  0  0
    1.0359   -1.4832    2.5325 C   0  0  0  0  0  0  0  0  0  0  0  0
    2.0067   -3.7625    5.4841 C   0  0  0  0  0  0  0  0  0  0  0  0
    2.9422   -4.8478    5.0050 C   0  0  0  0  0  0  0  0  0  0  0  0
    3.9556   -4.0497    4.2179 C   0  0  0  0  0  0  0  0  0  0  0  0
    0.6756   -4.3393    5.9381 C   0  0  0  0  0  0  0  0  0  0  0  0
    2.5812   -2.9648    6.6453 C   0  0  0  0  0  0  0  0  0  0  0  0
    4.4064   -1.8282   -3.1719 C   0  0  0  0  0  0  0  0  0  0  0  0
    5.8361   -1.6018   -2.7069 C   0  0  0  0  0  0  0  0  0  0  0  0
    6.7358   -0.9450   -3.5400 C   0  0  0  0  0  0  0  0  0  0  0  0
    8.0432   -0.7407   -3.1109 C   0  0  0  0  0  0  0  0  0  0  0  0
    8.4420   -1.1907   -1.8567 C   0  0  0  0  0  0  0  0  0  0  0  0
    7.5345   -1.8451   -1.0328 C   0  0  0  0  0  0  0  0  0  0  0  0
    6.2245   -2.0561   -1.4505 C   0  0  0  0  0  0  0  0  0  0  0  0
  1  2  2  0
  2  3  1  0
  3  4  1  0
  4  5  1  0
  5  6  2  0
  6  7  1  0
  7  8  1  0
  4  8  2  0
  8  9  1  0
  9 10  2  0
  9 11  1  0
 11  2  1  0
  7 12  1  0
 12 13  1  0
 13 14  1  0
 14 15  2  0
 15 16  1  0
 16 17  1  0
 17 18  1  0
 16 19  2  0
 19 20  1  0
 20 21  1  0
 19 22  1  0
 22 23  2  0
 23 14  1  0
  6 24  1  0
 24 25  2  0
 25 26  1  0
 26 27  2  0
 27 28  1  0
 28 29  2  0
 29 24  1  0
 27 30  1  0
 30 31  1  0
 31 32  1  0
 32 26  1  0
 30 33  1  0
 30 34  1  0
  3 35  1  0
 35 36  1  0
 36 37  2  0
 37 38  1  0
 38 39  2  0
 39 40  1  0
 40 41  2  0
 41 36  1  0
M  END
$$$$
m_270942____9828420____9830432____9836002
     RDKit          3D

 43 48  0  0  0  0  0  0  0  0999 V2000
    4.9266   -4.5907   -0.8958 S   0  0  0  0  0  0  0  0  0  0  0  0
    5.8871   -4.8070   -1.9465 O   0  0  0  0  0  0  0  0  0  0  0  0
    5.5764   -4.7200    0.3827 O   0  0  0  0  0  0  0  0  0  0  0  0
    4.2959   -3.0941   -1.0358 N   0  0  0  0  0  0  0  0  0  0  0  0
    3.8650   -2.4068    0.1047 C   0  0  0  0  0  0  0  0  0  0  0  0
    3.4020   -1.1007   -0.0156 C   0  0  0  0  0  0  0  0  0  0  0  0
    2.9767   -0.4278    1.1249 C   0  0  0  0  0  0  0  0  0  0  0  0
    3.0101   -1.0425    2.3720 C   0  0  0  0  0  0  0  0  0  0  0  0
    3.4770   -2.3497    2.4678 C   0  0  0  0  0  0  0  0  0  0  0  0
    3.9072   -3.0419    1.3411 C   0  0  0  0  0  0  0  0  0  0  0  0
    2.4700    1.0000    1.0000 C   0  0  0  0  0  0  0  0  0  0  0  0
    1.0000    1.0000    1.0000 N   0  0  0  0  0  0  0  0  0  0  0  0
    0.2992    1.0000    2.2139 C   0  0  0  0  0  0  0  0  0  0  0  0
    0.6692    1.5596    3.3392 N   0  0  0  0  0  0  0  0  0  0  0  0
   -0.2231    1.3648    4.2845 N   0  0  0  0  0  0  0  0  0  0  0  0
   -1.2065    0.6599    3.7721 C   0  0  0  0  0  0  0  0  0  0  0  0
   -0.9010    0.4177    2.4696 N   0  0  0  0  0  0  0  0  0  0  0  0
   -1.7201   -0.3369    1.5092 C   0  0  0  0  0  0  0  0  0  0  0  0
   -1.4228   -1.8213    1.6461 C   0  0  0  0  0  0  0  0  0  0  0  0
   -2.1753   -2.5900    0.5718 C   0  0  0  0  0  0  0  0  0  0  0  0
   -1.5737   -2.8184   -0.6614 C   0  0  0  0  0  0  0  0  0  0  0  0
   -2.2661   -3.5215   -1.6418 C   0  0  0  0  0  0  0  0  0  0  0  0
   -3.5498   -3.9915   -1.3850 C   0  0  0  0  0  0  0  0  0  0  0  0
   -4.1406   -3.7579   -0.1493 C   0  0  0  0  0  0  0  0  0  0  0  0
   -3.4589   -3.0556    0.8391 C   0  0  0  0  0  0  0  0  0  0  0  0
   -2.3968    0.2233    4.4721 C   0  0  0  0  0  0  0  0  0  0  0  0
   -3.8529   -0.2514    3.7275 S   0  0  0  0  0  0  0  0  0  0  0  0
   -4.7151   -0.6118    5.1490 C   0  0  0  0  0  0  0  0  0  0  0  0
   -3.8625   -0.3585    6.1997 C   0  0  0  0  0  0  0  0  0  0  0  0
   -2.5685    0.1104    5.8212 C   0  0  0  0  0  0  0  0  0  0  0  0
   -4.3223   -0.5785    7.6394 C   0  0  0  0  0  0  0  0  0  0  0  0
   -5.0870    0.5917    8.2513 C   0  0  0  0  0  0  0  0  0  0  0  0
   -6.6088    0.5257    8.1303 C   0  0  0  0  0  0  0  0  0  0  0  0
   -7.1870    0.3611    6.7228 C   0  0  0  0  0  0  0  0  0  0  0  0
   -7.0502   -1.0341    6.1232 C   0  0  0  0  0  0  0  0  0  0  0  0
   -6.1320   -1.1212    4.9029 C   0  0  0  0  0  0  0  0  0  0  0  0
    0.2650    1.0000   -0.2731 C   0  0  0  0  0  0  0  0  0  0  0  0
    3.6540   -5.7703   -1.0215 C   0  0  0  0  0  0  0  0  0  0  0  0
    3.3071   -6.2843   -2.2667 C   0  0  0  0  0  0  0  0  0  0  0  0
    2.2878   -7.2273   -2.3529 C   0  0  0  0  0  0  0  0  0  0  0  0
    1.6218   -7.6509   -1.2076 C   0  0  0  0  0  0  0  0  0  0  0  0
    1.9759   -7.1300    0.0325 C   0  0  0  0  0  0  0  0  0  0  0  0
    2.9937   -6.1870    0.1303 C   0  0  0  0  0  0  0  0  0  0  0  0
  1  2  2  0
  1  3  2  0
  1  4  1  0
  4  5  1  0
  5  6  2  0
  6  7  1  0
  7  8  2  0
  8  9  1  0
  9 10  2  0
 10  5  1  0
  7 11  1  0
 11 12  1  0
 12 13  1  0
 13 14  2  0
 14 15  1  0
 15 16  2  0
 16 17  1  0
 17 13  1  0
 17 18  1  0
 18 19  1  0
 19 20  1  0
 20 21  2  0
 21 22  1  0
 22 23  2  0
 23 24  1  0
 24 25  2  0
 25 20  1  0
 16 26  1  0
 26 27  1  0
 27 28  1  0
 28 29  2  0
 29 30  1  0
 26 30  2  0
 29 31  1  0
 31 32  1  0
 32 33  1  0
 33 34  1  0
 34 35  1  0
 35 36  1  0
 36 28  1  0
 12 37  1  0
  1 38  1  0
 38 39  2  0
 39 40  1  0
 40 41  2  0
 41 42  1  0
 42 43  2  0
 43 38  1  0
M  END
$$$$
m_273170____10757270____10763556____10755794
     RDKit          3D

 41 46  0  0  0  0  0  0  0  0999 V2000
   -4.6825    8.1181    7.1515 Cl  0  0  0  0  0  0  0  0  0  0  0  0
   -3.4438    7.9930    5.8795 C   0  0  0  0  0  0  0  0  0  0  0  0
   -2.1004    8.1432    6.2052 C   0  0  0  0  0  0  0  0  0  0  0  0
   -1.1291    8.0469    5.2139 C   0  0  0  0  0  0  0  0  0  0  0  0
   -1.5200    7.7994    3.9023 C   0  0  0  0  0  0  0  0  0  0  0  0
   -2.8633    7.6494    3.5761 C   0  0  0  0  0  0  0  0  0  0  0  0
   -3.8349    7.7458    4.5676 C   0  0  0  0  0  0  0  0  0  0  0  0
   -0.4657    7.6934    2.8133 C   0  0  0  0  0  0  0  0  0  0  0  0
   -0.0274    6.2958    2.6901 N   0  0  0  0  0  0  0  0  0  0  0  0
   -0.2147    5.6149    1.4775 C   0  0  0  0  0  0  0  0  0  0  0  0
   -0.7545    6.1840    0.5427 O   0  0  0  0  0  0  0  0  0  0  0  0
    0.2472    4.1809    1.2566 C   0  0  0  0  0  0  0  0  0  0  0  0
    0.8879    3.7318    2.5048 N   0  0  0  0  0  0  0  0  0  0  0  0
    2.0315    2.9267    2.5008 C   0  0  0  0  0  0  0  0  0  0  0  0
    3.2789    3.3271    2.4974 N   0  0  0  0  0  0  0  0  0  0  0  0
    4.1071    2.3065    2.4903 N   0  0  0  0  0  0  0  0  0  0  0  0
    3.3905    1.2051    2.4893 C   0  0  0  0  0  0  0  0  0  0  0  0
    2.0806    1.5694    2.4959 N   0  0  0  0  0  0  0  0  0  0  0  0
    0.9245    0.6605    2.4981 C   0  0  0  0  0  0  0  0  0  0  0  0
    0.8353   -0.0426    3.8425 C   0  0  0  0  0  0  0  0  0  0  0  0
    0.6995   -1.4253    3.8920 C   0  0  0  0  0  0  0  0  0  0  0  0
    0.5805   -2.0897    5.1106 C   0  0  0  0  0  0  0  0  0  0  0  0
    0.6327   -1.3857    6.3057 C   0  0  0  0  0  0  0  0  0  0  0  0
    0.5341   -2.0955    7.5128 N   0  0  0  0  0  0  0  0  0  0  0  0
   -0.3854   -3.2443    7.5865 C   0  0  0  0  0  0  0  0  0  0  0  0
   -0.6890   -3.8657    6.2286 C   0  0  0  0  0  0  0  0  0  0  0  0
    0.3854   -3.5977    5.1826 C   0  0  0  0  0  0  0  0  0  0  0  0
    1.2979   -1.7247    8.7146 C   0  0  0  0  0  0  0  0  0  0  0  0
    0.7778   -0.0013    6.2431 C   0  0  0  0  0  0  0  0  0  0  0  0
    0.8774    0.6772    5.0325 C   0  0  0  0  0  0  0  0  0  0  0  0
    3.9079   -0.1494    2.4826 C   0  0  0  0  0  0  0  0  0  0  0  0
    4.7215   -0.5709    3.5293 C   0  0  0  0  0  0  0  0  0  0  0  0
    5.2167   -1.8706    3.5178 C   0  0  0  0  0  0  0  0  0  0  0  0
    6.0372   -2.3060    4.5658 N   0  0  0  0  0  0  0  0  0  0  0  0
    6.0355   -3.4809    4.8941 O   0  0  0  0  0  0  0  0  0  0  0  0
    6.7480   -1.5168    5.1456 O   0  0  0  0  0  0  0  0  0  0  0  0
    4.9102   -2.7457    2.4812 C   0  0  0  0  0  0  0  0  0  0  0  0
    4.0946   -2.3031    1.4452 C   0  0  0  0  0  0  0  0  0  0  0  0
    3.5881   -1.0077    1.4363 C   0  0  0  0  0  0  0  0  0  0  0  0
    0.2531    4.1901    3.7459 C   0  0  0  0  0  0  0  0  0  0  0  0
    0.5996    5.6633    3.8556 C   0  0  0  0  0  0  0  0  0  0  0  0
  1  2  1  0
  2  3  2  0
  3  4  1  0
  4  5  2  0
  5  6  1  0
  6  7  2  0
  7  2  1  0
  5  8  1  0
  8  9  1  0
  9 10  1  0
 10 11  2  0
 10 12  1  0
 12 13  1  0
 13 14  1  0
 14 15  2  0
 15 16  1  0
 16 17  2  0
 17 18  1  0
 18 14  1  0
 18 19  1  0
 19 20  1  0
 20 21  2  0
 21 22  1  0
 22 23  2  0
 23 24  1  0
 24 25  1  0
 25 26  1  0
 26 27  1  0
 27 22  1  0
 24 28  1  0
 23 29  1  0
 29 30  2  0
 30 20  1  0
 17 31  1  0
 31 32  2  0
 32 33  1  0
 33 34  1  0
 34 35  1  0
 34 36  2  0
 33 37  2  0
 37 38  1  0
 38 39  2  0
 39 31  1  0
 13 40  1  0
 40 41  1  0
 41  9  1  0
M  CHG  2  34   1  35  -1
M  END
$$$$
s_270196____13909258____8772290
     RDKit          3D

 39 43  0  0  0  0  0  0  0  0999 V2000
    0.4214    3.7482    2.5312 Cl  0  0  0  0  0  0  0  0  0  0  0  0
    1.9732    2.8775    2.5107 C   0  0  0  0  0  0  0  0  0  0  0  0
    3.1686    3.5899    2.5009 C   0  0  0  0  0  0  0  0  0  0  0  0
    3.1578    5.3300    2.5082 S   0  0  0  0  0  0  0  0  0  0  0  0
    2.4635    5.8106    1.3418 O   0  0  0  0  0  0  0  0  0  0  0  0
    2.4886    5.8008    3.6932 O   0  0  0  0  0  0  0  0  0  0  0  0
    4.6911    5.8829    2.4942 N   0  0  0  0  0  0  0  0  0  0  0  0
    5.2655    6.3234    1.2956 C   0  0  0  0  0  0  0  0  0  0  0  0
    5.1449    7.6597    0.9295 C   0  0  0  0  0  0  0  0  0  0  0  0
    5.7126    8.1047   -0.2595 C   0  0  0  0  0  0  0  0  0  0  0  0
    6.3966    7.2037   -1.0688 C   0  0  0  0  0  0  0  0  0  0  0  0
    7.1266    7.7656   -2.5915 Cl  0  0  0  0  0  0  0  0  0  0  0  0
    6.5211    5.8663   -0.7080 C   0  0  0  0  0  0  0  0  0  0  0  0
    5.9508    5.4279    0.4822 C   0  0  0  0  0  0  0  0  0  0  0  0
    5.4709    5.9191    3.7398 C   0  0  0  0  0  0  0  0  0  0  0  0
    4.3860    2.9159    2.4858 C   0  0  0  0  0  0  0  0  0  0  0  0
    4.3932    1.5244    2.4803 C   0  0  0  0  0  0  0  0  0  0  0  0
    3.2028    0.8039    2.4901 C   0  0  0  0  0  0  0  0  0  0  0  0
    1.9898    1.4862    2.5055 C   0  0  0  0  0  0  0  0  0  0  0  0
    5.6613    0.8208    2.4636 C   0  0  0  0  0  0  0  0  0  0  0  0
    6.8465    1.3808    2.4528 O   0  0  0  0  0  0  0  0  0  0  0  0
    7.7400    0.4818    2.4405 N   0  0  0  0  0  0  0  0  0  0  0  0
    7.1549   -0.6929    2.4416 C   0  0  0  0  0  0  0  0  0  0  0  0
    5.8132   -0.4793    2.4556 N   0  0  0  0  0  0  0  0  0  0  0  0
    7.8192   -1.9815    2.4273 C   0  0  0  0  0  0  0  0  0  0  0  0
    8.0651   -2.6691    3.6425 C   0  0  0  0  0  0  0  0  0  0  0  0
    7.7103   -2.1595    4.6895 O   0  0  0  0  0  0  0  0  0  0  0  0
    8.6954   -3.8821    3.6087 N   0  0  0  0  0  0  0  0  0  0  0  0
    9.1093   -4.4493    2.4373 C   0  0  0  0  0  0  0  0  0  0  0  0
    8.8568   -3.7735    1.2707 C   0  0  0  0  0  0  0  0  0  0  0  0
    8.1995   -2.5126    1.2246 C   0  0  0  0  0  0  0  0  0  0  0  0
    9.2789   -4.4345   -0.0307 C   0  0  0  0  0  0  0  0  0  0  0  0
   10.7549   -4.7075    0.2165 C   0  0  0  0  0  0  0  0  0  0  0  0
   11.0392   -5.4402    1.5178 C   0  0  0  0  0  0  0  0  0  0  0  0
    9.8403   -5.7649    2.4028 C   0  0  0  0  0  0  0  0  0  0  0  0
   11.7824   -6.7338    1.2465 C   0  0  0  0  0  0  0  0  0  0  0  0
   12.0120   -4.5758    2.3099 C   0  0  0  0  0  0  0  0  0  0  0  0
    9.2588   -3.4869   -1.2241 C   0  0  0  0  0  0  0  0  0  0  0  0
    8.4343   -5.6491   -0.4010 C   0  0  0  0  0  0  0  0  0  0  0  0
  1  2  1  0
  2  3  2  0
  3  4  1  0
  4  5  2  0
  4  6  2  0
  4  7  1  0
  7  8  1  0
  8  9  2  0
  9 10  1  0
 10 11  2  0
 11 12  1  0
 11 13  1  0
 13 14  2  0
 14  8  1  0
  7 15  1  0
  3 16  1  0
 16 17  2  0
 17 18  1  0
 18 19  2  0
 19  2  1  0
 17 20  1  0
 20 21  1  0
 21 22  1  0
 22 23  2  0
 23 24  1  0
 20 24  2  0
 23 25  1  0
 25 26  1  0
 26 27  2  0
 26 28  1  0
 28 29  1  0
 29 30  2  0
 30 31  1  0
 25 31  2  0
 30 32  1  0
 32 33  1  0
 33 34  1  0
 34 35  1  0
 35 29  1  0
 34 36  1  0
 34 37  1  0
 32 38  1  0
 32 39  1  0
M  END
$$$$
s_2____11687950____14411300____9284808
     RDKit          3D

 45 51  0  0  0  0  0  0  0  0999 V2000
    8.8448    6.5340    0.5944 S   0  0  0  0  0  0  0  0  0  0  0  0
    8.2788    7.7738    1.0595 O   0  0  0  0  0  0  0  0  0  0  0  0
   10.1800    6.3910    1.1143 O   0  0  0  0  0  0  0  0  0  0  0  0
    8.8934    6.5363   -1.0349 N   0  0  0  0  0  0  0  0  0  0  0  0
    7.8635    5.2066    1.1434 C   0  0  0  0  0  0  0  0  0  0  0  0
    8.4222    4.2290    1.9599 C   0  0  0  0  0  0  0  0  0  0  0  0
    7.6328    3.1699    2.3950 C   0  0  0  0  0  0  0  0  0  0  0  0
    6.2978    3.0995    2.0115 C   0  0  0  0  0  0  0  0  0  0  0  0
    5.5094    2.0301    2.4537 N   0  0  0  0  0  0  0  0  0  0  0  0
    4.2406    2.1295    2.4468 C   0  0  0  0  0  0  0  0  0  0  0  0
    3.3299    3.5681    2.4036 S   0  0  0  0  0  0  0  0  0  0  0  0
    1.7813    2.8529    2.4247 C   0  0  0  0  0  0  0  0  0  0  0  0
    2.0334    1.5154    2.4653 C   0  0  0  0  0  0  0  0  0  0  0  0
    3.3388    1.1121    2.4746 N   0  0  0  0  0  0  0  0  0  0  0  0
    3.7804   -0.2891    2.5193 C   0  0  0  0  0  0  0  0  0  0  0  0
    4.0570   -0.7781    1.1078 C   0  0  0  0  0  0  0  0  0  0  0  0
    5.3312   -0.6313    0.5748 C   0  0  0  0  0  0  0  0  0  0  0  0
    5.5664   -1.1115   -0.7096 C   0  0  0  0  0  0  0  0  0  0  0  0
    4.6208   -1.7434   -1.4830 C   0  0  0  0  0  0  0  0  0  0  0  0
    5.1912   -2.1698   -2.6373 O   0  0  0  0  0  0  0  0  0  0  0  0
    6.4533   -1.5686   -2.8703 C   0  0  0  0  0  0  0  0  0  0  0  0
    6.8429   -1.0448   -1.5090 C   0  0  0  0  0  0  0  0  0  0  0  0
    7.4611    0.3469   -1.5603 C   0  0  0  0  0  0  0  0  0  0  0  0
    7.4183   -2.6462   -3.3448 C   0  0  0  0  0  0  0  0  0  0  0  0
    3.3674   -1.8389   -0.9207 C   0  0  0  0  0  0  0  0  0  0  0  0
    3.0551   -1.3815    0.3528 C   0  0  0  0  0  0  0  0  0  0  0  0
    0.9019    0.6087    2.4961 C   0  0  0  0  0  0  0  0  0  0  0  0
   -0.2204    0.8695    1.7160 C   0  0  0  0  0  0  0  0  0  0  0  0
   -0.2882    1.9984    0.8907 N   0  0  0  0  0  0  0  0  0  0  0  0
    0.2973    2.1223   -0.3659 C   0  0  0  0  0  0  0  0  0  0  0  0
    0.9553    1.2611   -0.9256 O   0  0  0  0  0  0  0  0  0  0  0  0
   -0.0047    3.4349   -0.8844 C   0  0  0  0  0  0  0  0  0  0  0  0
   -0.7532    4.0714    0.0706 C   0  0  0  0  0  0  0  0  0  0  0  0
   -1.1481    5.3734   -0.2200 C   0  0  0  0  0  0  0  0  0  0  0  0
   -0.7964    5.9841   -1.4183 C   0  0  0  0  0  0  0  0  0  0  0  0
   -0.0342    5.3052   -2.3635 C   0  0  0  0  0  0  0  0  0  0  0  0
    0.3761    4.0037   -2.0937 C   0  0  0  0  0  0  0  0  0  0  0  0
   -0.9558    3.1821    1.1897 C   0  0  0  0  0  0  0  0  0  0  0  0
   -1.5916    3.4339    2.2008 O   0  0  0  0  0  0  0  0  0  0  0  0
   -1.3051    0.0000    1.7455 C   0  0  0  0  0  0  0  0  0  0  0  0
   -1.2684   -1.1310    2.5550 C   0  0  0  0  0  0  0  0  0  0  0  0
   -0.1465   -1.3919    3.3350 C   0  0  0  0  0  0  0  0  0  0  0  0
    0.9383   -0.5217    3.3062 C   0  0  0  0  0  0  0  0  0  0  0  0
    5.7455    4.0799    1.1948 C   0  0  0  0  0  0  0  0  0  0  0  0
    6.5293    5.1415    0.7559 C   0  0  0  0  0  0  0  0  0  0  0  0
  1  2  2  0
  1  3  2  0
  1  4  1  0
  1  5  1  0
  5  6  2  0
  6  7  1  0
  7  8  2  0
  8  9  1  0
  9 10  2  0
 10 11  1  0
 11 12  1  0
 12 13  2  0
 13 14  1  0
 14 10  1  0
 14 15  1  0
 15 16  1  0
 16 17  2  0
 17 18  1  0
 18 19  2  0
 19 20  1  0
 20 21  1  0
 21 22  1  0
 22 18  1  0
 22 23  1  0
 21 24  1  0
 19 25  1  0
 25 26  2  0
 26 16  1  0
 13 27  1  0
 27 28  1  0
 28 29  1  0
 29 30  1  0
 30 31  2  0
 30 32  1  0
 32 33  2  0
 33 34  1  0
 34 35  2  0
 35 36  1  0
 36 37  2  0
 37 32  1  0
 33 38  1  0
 38 29  1  0
 38 39  2  0
 28 40  2  0
 40 41  1  0
 41 42  2  0
 42 43  1  0
 43 27  2  0
  8 44  1  0
 44 45  2  0
 45  5  1  0
M  END
$$$$
s_42a____8631722____1111390
     RDKit          3D

 34 39  0  0  0  0  0  0  0  0999 V2000
    7.9494   -0.5126    5.1486 S   0  0  0  0  0  0  0  0  0  0  0  0
    7.3553   -0.1584    3.6011 C   0  0  0  0  0  0  0  0  0  0  0  0
    8.0637   -0.5497    2.5422 N   0  0  0  0  0  0  0  0  0  0  0  0
    7.5387   -0.2511    1.3503 C   0  0  0  0  0  0  0  0  0  0  0  0
    6.3339    0.4474    1.2820 C   0  0  0  0  0  0  0  0  0  0  0  0
    5.6679    0.8171    2.4636 C   0  0  0  0  0  0  0  0  0  0  0  0
    6.1753    0.5375    3.7355 C   0  0  0  0  0  0  0  0  0  0  0  0
    5.8446    0.7584    5.1102 C   0  0  0  0  0  0  0  0  0  0  0  0
    6.7004    0.2197    6.0407 C   0  0  0  0  0  0  0  0  0  0  0  0
    6.6690    0.1893    7.5573 C   0  0  0  0  0  0  0  0  0  0  0  0
    5.6812    1.2630    7.9750 C   0  0  0  0  0  0  0  0  0  0  0  0
    4.3921    1.1450    7.1772 C   0  0  0  0  0  0  0  0  0  0  0  0
    4.6727    1.4993    5.7236 C   0  0  0  0  0  0  0  0  0  0  0  0
    5.4140    1.0282    9.4503 C   0  0  0  0  0  0  0  0  0  0  0  0
    4.3934    1.5238    2.4792 C   0  0  0  0  0  0  0  0  0  0  0  0
    4.3898    2.9144    2.4850 C   0  0  0  0  0  0  0  0  0  0  0  0
    3.1783    3.5981    2.5011 C   0  0  0  0  0  0  0  0  0  0  0  0
    1.9856    2.8824    2.5103 C   0  0  0  0  0  0  0  0  0  0  0  0
    0.8052    3.5371    2.5243 O   0  0  0  0  0  0  0  0  0  0  0  0
    0.7807    4.9569    2.5297 C   0  0  0  0  0  0  0  0  0  0  0  0
    1.9898    1.4913    2.5046 C   0  0  0  0  0  0  0  0  0  0  0  0
    3.2009    0.8075    2.4890 C   0  0  0  0  0  0  0  0  0  0  0  0
    5.8672    0.7419   -0.0695 C   0  0  0  0  0  0  0  0  0  0  0  0
    5.0681    1.6325   -0.3174 O   0  0  0  0  0  0  0  0  0  0  0  0
    6.3184    0.0255   -1.1828 N   0  0  0  0  0  0  0  0  0  0  0  0
    5.8058    0.3258   -2.5239 C   0  0  0  0  0  0  0  0  0  0  0  0
    6.8098    1.1917   -3.2680 C   0  0  0  0  0  0  0  0  0  0  0  0
    7.8039    0.5911   -4.0335 C   0  0  0  0  0  0  0  0  0  0  0  0
    8.7210    1.3871   -4.7120 C   0  0  0  0  0  0  0  0  0  0  0  0
    8.6391    2.7728   -4.6232 C   0  0  0  0  0  0  0  0  0  0  0  0
    7.6416    3.3617   -3.8559 C   0  0  0  0  0  0  0  0  0  0  0  0
    6.7189    2.5767   -3.1721 C   0  0  0  0  0  0  0  0  0  0  0  0
    7.3346   -1.0264   -1.0200 C   0  0  0  0  0  0  0  0  0  0  0  0
    8.2971   -0.7040    0.1134 C   0  0  0  0  0  0  0  0  0  0  0  0
  1  2  1  0
  2  3  2  0
  3  4  1  0
  4  5  2  0
  5  6  1  0
  6  7  2  0
  7  2  1  0
  7  8  1  0
  8  9  2  0
  9  1  1  0
  9 10  1  0
 10 11  1  0
 11 12  1  0
 12 13  1  0
 13  8  1  0
 11 14  1  0
  6 15  1  0
 15 16  2  0
 16 17  1  0
 17 18  2  0
 18 19  1  0
 19 20  1  0
 18 21  1  0
 21 22  2  0
 22 15  1  0
  5 23  1  0
 23 24  2  0
 23 25  1  0
 25 26  1  0
 26 27  1  0
 27 28  2  0
 28 29  1  0
 29 30  2  0
 30 31  1  0
 31 32  2  0
 32 27  1  0
 25 33  1  0
 33 34  1  0
 34  4  1  0
M  END
$$$$
s_42a____8624686____1111534
     RDKit          3D

 34 38  0  0  0  0  0  0  0  0999 V2000
    0.9903    5.9204    3.6369 S   0  0  0  0  0  0  0  0  0  0  0  0
    1.4207    5.1800    2.1642 C   0  0  0  0  0  0  0  0  0  0  0  0
    2.0674    4.0219    2.1826 N   0  0  0  0  0  0  0  0  0  0  0  0
    2.3762    3.4617    1.0049 C   0  0  0  0  0  0  0  0  0  0  0  0
    3.0732    2.1889    1.0028 C   0  0  0  0  0  0  0  0  0  0  0  0
    2.3502    1.0000    1.0000 C   0  0  0  0  0  0  0  0  0  0  0  0
    1.0000    1.0000    1.0000 O   0  0  0  0  0  0  0  0  0  0  0  0
    0.2900   -0.2298    0.9971 C   0  0  0  0  0  0  0  0  0  0  0  0
   -1.2044    0.0480    0.9978 C   0  0  0  0  0  0  0  0  0  0  0  0
   -1.6044    1.1794    1.0004 O   0  0  0  0  0  0  0  0  0  0  0  0
   -2.0947   -0.9933    0.9953 N   0  0  0  0  0  0  0  0  0  0  0  0
   -3.5399   -0.7247    0.9959 C   0  0  0  0  0  0  0  0  0  0  0  0
   -1.6047   -2.3792    0.9920 C   0  0  0  0  0  0  0  0  0  0  0  0
    3.0187   -0.2201    0.9976 C   0  0  0  0  0  0  0  0  0  0  0  0
    4.4095   -0.2514    0.9972 C   0  0  0  0  0  0  0  0  0  0  0  0
    5.1323    0.9371    0.9992 C   0  0  0  0  0  0  0  0  0  0  0  0
    4.4645    2.1572    1.0024 C   0  0  0  0  0  0  0  0  0  0  0  0
    2.0305    4.1013   -0.1822 C   0  0  0  0  0  0  0  0  0  0  0  0
    1.3542    5.3159   -0.1165 C   0  0  0  0  0  0  0  0  0  0  0  0
    1.0058    5.9632   -1.3658 C   0  0  0  0  0  0  0  0  0  0  0  0
    1.8983    6.8621   -1.9404 C   0  0  0  0  0  0  0  0  0  0  0  0
    1.5550    7.4779   -3.1393 C   0  0  0  0  0  0  0  0  0  0  0  0
    2.3955    8.3394   -3.7025 F   0  0  0  0  0  0  0  0  0  0  0  0
    0.3385    7.1967   -3.7500 C   0  0  0  0  0  0  0  0  0  0  0  0
   -0.5515    6.2971   -3.1733 C   0  0  0  0  0  0  0  0  0  0  0  0
   -0.2121    5.6791   -1.9740 C   0  0  0  0  0  0  0  0  0  0  0  0
   -0.0261    7.8747   -5.0604 C   0  0  0  0  0  0  0  0  0  0  0  0
    0.9911    5.9345    1.0815 C   0  0  0  0  0  0  0  0  0  0  0  0
    0.3065    7.1056    1.5433 C   0  0  0  0  0  0  0  0  0  0  0  0
    0.2205    7.2400    2.8793 C   0  0  0  0  0  0  0  0  0  0  0  0
   -0.5363    8.4643    3.3546 C   0  0  0  0  0  0  0  0  0  0  0  0
   -0.5323    9.3151    2.1086 C   0  0  0  0  0  0  0  0  0  0  0  0
   -0.4475    8.2977    0.9914 C   0  0  0  0  0  0  0  0  0  0  0  0
    2.3934    3.4640   -1.5137 C   0  0  0  0  0  0  0  0  0  0  0  0
  1  2  1  0
  2  3  2  0
  3  4  1  0
  4  5  1  0
  5  6  2  0
  6  7  1  0
  7  8  1  0
  8  9  1  0
  9 10  2  0
  9 11  1  0
 11 12  1  0
 11 13  1  0
  6 14  1  0
 14 15  2  0
 15 16  1  0
 16 17  2  0
 17  5  1  0
  4 18  2  0
 18 19  1  0
 19 20  1  0
 20 21  2  0
 21 22  1  0
 22 23  1  0
 22 24  2  0
 24 25  1  0
 25 26  2  0
 26 20  1  0
 24 27  1  0
 19 28  2  0
 28  2  1  0
 28 29  1  0
 29 30  2  0
 30  1  1  0
 30 31  1  0
 31 32  1  0
 32 33  1  0
 33 29  1  0
 18 34  1  0
M  END
$$$$
s_42a____8624698____125250
     RDKit          3D

 37 41  0  0  0  0  0  0  0  0999 V2000
    4.7159   -0.2985   -0.0385 Br  0  0  0  0  0  0  0  0  0  0  0  0
    5.9960   -0.0434    1.4249 C   0  0  0  0  0  0  0  0  0  0  0  0
    5.6613    0.8208    2.4636 C   0  0  0  0  0  0  0  0  0  0  0  0
    6.5113    1.0225    3.4774 N   0  0  0  0  0  0  0  0  0  0  0  0
    7.6771    0.3644    3.4262 C   0  0  0  0  0  0  0  0  0  0  0  0
    8.8464    0.5395    4.6527 S   0  0  0  0  0  0  0  0  0  0  0  0
    9.9752   -0.4979    3.9304 C   0  0  0  0  0  0  0  0  0  0  0  0
    9.4644   -0.9979    2.7926 C   0  0  0  0  0  0  0  0  0  0  0  0
    8.1456   -0.5145    2.4712 C   0  0  0  0  0  0  0  0  0  0  0  0
    7.2230   -0.6984    1.4465 C   0  0  0  0  0  0  0  0  0  0  0  0
    7.5355   -1.5916    0.3457 C   0  0  0  0  0  0  0  0  0  0  0  0
    7.9924   -1.0675   -0.8592 C   0  0  0  0  0  0  0  0  0  0  0  0
    8.2895   -1.9277   -1.9108 C   0  0  0  0  0  0  0  0  0  0  0  0
    8.1276   -3.2997   -1.7456 C   0  0  0  0  0  0  0  0  0  0  0  0
    7.6728   -3.8233   -0.5392 C   0  0  0  0  0  0  0  0  0  0  0  0
    7.3743   -2.9629    0.5121 C   0  0  0  0  0  0  0  0  0  0  0  0
    8.4526   -4.2348   -2.8995 C   0  0  0  0  0  0  0  0  0  0  0  0
    9.7301   -4.5981   -2.8293 F   0  0  0  0  0  0  0  0  0  0  0  0
    7.6799   -5.3148   -2.8260 F   0  0  0  0  0  0  0  0  0  0  0  0
    8.2322   -3.6096   -4.0524 F   0  0  0  0  0  0  0  0  0  0  0  0
   10.5988   -1.8989    2.3415 C   0  0  0  0  0  0  0  0  0  0  0  0
   11.3667   -2.2492    3.5965 C   0  0  0  0  0  0  0  0  0  0  0  0
   11.3760   -0.9179    4.3008 C   0  0  0  0  0  0  0  0  0  0  0  0
    4.3937    1.5243    2.4800 C   0  0  0  0  0  0  0  0  0  0  0  0
    4.3836    2.9156    2.4883 C   0  0  0  0  0  0  0  0  0  0  0  0
    3.1740    3.6024    2.5029 C   0  0  0  0  0  0  0  0  0  0  0  0
    1.9848    2.8811    2.5100 C   0  0  0  0  0  0  0  0  0  0  0  0
    0.4648    3.7275    2.5286 S   0  0  0  0  0  0  0  0  0  0  0  0
    0.6112    4.9918    1.8552 O   0  0  0  0  0  0  0  0  0  0  0  0
   -0.5328    2.9373    1.8547 O   0  0  0  0  0  0  0  0  0  0  0  0
    0.0043    3.9835    4.0711 N   0  0  0  0  0  0  0  0  0  0  0  0
    1.0227    4.7901    4.7590 C   0  0  0  0  0  0  0  0  0  0  0  0
    1.0366    4.4354    6.2370 C   0  0  0  0  0  0  0  0  0  0  0  0
   -1.2799    4.6986    4.0868 C   0  0  0  0  0  0  0  0  0  0  0  0
   -2.4197    3.6930    4.0919 C   0  0  0  0  0  0  0  0  0  0  0  0
    1.9898    1.4900    2.5021 C   0  0  0  0  0  0  0  0  0  0  0  0
    3.2017    0.8072    2.4872 C   0  0  0  0  0  0  0  0  0  0  0  0
  1  2  1  0
  2  3  2  0
  3  4  1  0
  4  5  2  0
  5  6  1  0
  6  7  1  0
  7  8  2  0
  8  9  1  0
  9  5  1  0
  9 10  2  0
 10  2  1  0
 10 11  1  0
 11 12  2  0
 12 13  1  0
 13 14  2  0
 14 15  1  0
 15 16  2  0
 16 11  1  0
 14 17  1  0
 17 18  1  0
 17 19  1  0
 17 20  1  0
  8 21  1  0
 21 22  1  0
 22 23  1  0
 23  7  1  0
  3 24  1  0
 24 25  2  0
 25 26  1  0
 26 27  2  0
 27 28  1  0
 28 29  2  0
 28 30  2  0
 28 31  1  0
 31 32  1  0
 32 33  1  0
 31 34  1  0
 34 35  1  0
 27 36  1  0
 36 37  2  0
 37 24  1  0
M  END
$$$$
m_276010b____17282026____17248832____17280900
     RDKit          3D

 43 48  0  0  0  0  0  0  0  0999 V2000
   -1.9704    6.0052   -0.2586 S   0  0  0  0  0  0  0  0  0  0  0  0
   -2.2110    6.7369    0.9581 O   0  0  0  0  0  0  0  0  0  0  0  0
   -1.1917    6.8147   -1.1596 O   0  0  0  0  0  0  0  0  0  0  0  0
   -1.1007    4.5431    0.1062 C   0  0  0  0  0  0  0  0  0  0  0  0
   -0.2328    4.0048   -0.8379 C   0  0  0  0  0  0  0  0  0  0  0  0
    0.4575    2.8357   -0.5357 C   0  0  0  0  0  0  0  0  0  0  0  0
    0.2750    2.2189    0.6980 C   0  0  0  0  0  0  0  0  0  0  0  0
   -0.5941    2.7611    1.6392 C   0  0  0  0  0  0  0  0  0  0  0  0
   -1.2864    3.9303    1.3413 C   0  0  0  0  0  0  0  0  0  0  0  0
    1.0000    1.0000    1.0000 C   0  0  0  0  0  0  0  0  0  0  0  0
    0.4000   -0.0087    1.2499 O   0  0  0  0  0  0  0  0  0  0  0  0
    2.4018    1.0000    1.0000 N   0  0  0  0  0  0  0  0  0  0  0  0
    3.2007    2.1152    0.7237 C   0  0  0  0  0  0  0  0  0  0  0  0
    4.4393    1.6680    0.3345 C   0  0  0  0  0  0  0  0  0  0  0  0
    5.4525    2.5582   -0.0094 C   0  0  0  0  0  0  0  0  0  0  0  0
    5.2251    3.9291    0.0410 C   0  0  0  0  0  0  0  0  0  0  0  0
    3.9758    4.3924    0.4387 C   0  0  0  0  0  0  0  0  0  0  0  0
    2.9748    3.4885    0.7780 C   0  0  0  0  0  0  0  0  0  0  0  0
    4.4063    0.1560    0.3727 C   0  0  0  0  0  0  0  0  0  0  0  0
    5.6631   -0.4180    0.8749 N   0  0  0  0  0  0  0  0  0  0  0  0
    6.1854   -0.1977    2.0562 N   0  0  0  0  0  0  0  0  0  0  0  0
    7.2689   -0.8312    2.1993 N   0  0  0  0  0  0  0  0  0  0  0  0
    7.4979   -1.5241    1.0487 C   0  0  0  0  0  0  0  0  0  0  0  0
    6.4750   -1.2670    0.1914 C   0  0  0  0  0  0  0  0  0  0  0  0
    8.6874   -2.4294    0.7720 C   0  0  0  0  0  0  0  0  0  0  0  0
    9.3713   -1.9556   -0.3791 O   0  0  0  0  0  0  0  0  0  0  0  0
    9.5842   -2.4334    1.9989 C   0  0  0  0  0  0  0  0  0  0  0  0
   10.4125   -3.7097    2.0042 C   0  0  0  0  0  0  0  0  0  0  0  0
    9.5072   -4.8635    2.4052 C   0  0  0  0  0  0  0  0  0  0  0  0
    8.1180   -4.6072    1.8451 C   0  0  0  0  0  0  0  0  0  0  0  0
    8.2636   -3.8698    0.5217 C   0  0  0  0  0  0  0  0  0  0  0  0
   10.1082   -6.1512    1.8626 C   0  0  0  0  0  0  0  0  0  0  0  0
    9.3934   -4.9986    3.9151 C   0  0  0  0  0  0  0  0  0  0  0  0
    3.2309   -0.1791    1.2636 C   0  0  0  0  0  0  0  0  0  0  0  0
    2.5713   -1.4819    0.8434 C   0  0  0  0  0  0  0  0  0  0  0  0
    3.6077   -0.2520    2.7351 C   0  0  0  0  0  0  0  0  0  0  0  0
   -3.5515    5.5889   -1.0350 C   0  0  0  0  0  0  0  0  0  0  0  0
   -4.3115    6.8665   -1.3538 C   0  0  0  0  0  0  0  0  0  0  0  0
   -4.1321    7.4855   -2.5865 C   0  0  0  0  0  0  0  0  0  0  0  0
   -4.8287    8.6548   -2.8738 C   0  0  0  0  0  0  0  0  0  0  0  0
   -5.6980    9.1958   -1.9323 C   0  0  0  0  0  0  0  0  0  0  0  0
   -5.8696    8.5685   -0.7044 C   0  0  0  0  0  0  0  0  0  0  0  0
   -5.1783    7.3992   -0.4049 C   0  0  0  0  0  0  0  0  0  0  0  0
  1  2  2  0
  1  3  2  0
  1  4  1  0
  4  5  2  0
  5  6  1  0
  6  7  2  0
  7  8  1  0
  8  9  2  0
  9  4  1  0
  7 10  1  0
 10 11  2  0
 10 12  1  0
 12 13  1  0
 13 14  1  0
 14 15  2  0
 15 16  1  0
 16 17  2  0
 17 18  1  0
 18 13  2  0
 14 19  1  0
 19 20  1  0
 20 21  1  0
 21 22  2  0
 22 23  1  0
 23 24  2  0
 24 20  1  0
 23 25  1  0
 25 26  1  0
 25 27  1  0
 27 28  1  0
 28 29  1  0
 29 30  1  0
 30 31  1  0
 31 25  1  0
 29 32  1  0
 29 33  1  0
 19 34  1  0
 34 12  1  0
 34 35  1  0
 34 36  1  0
  1 37  1  0
 37 38  1  0
 38 39  2  0
 39 40  1  0
 40 41  2  0
 41 42  1  0
 42 43  2  0
 43 38  1  0
M  END
$$$$
s_270196____17314194____8779494
     RDKit          3D

 40 44  0  0  0  0  0  0  0  0999 V2000
    4.0713    0.3232    1.3155 Cl  0  0  0  0  0  0  0  0  0  0  0  0
    3.3588    1.7213    2.1547 C   0  0  0  0  0  0  0  0  0  0  0  0
    2.0047    2.0047    2.0047 C   0  0  0  0  0  0  0  0  0  0  0  0
    1.0000    1.0000    1.0000 S   0  0  0  0  0  0  0  0  0  0  0  0
    1.0136   -0.3489    1.5039 O   0  0  0  0  0  0  0  0  0  0  0  0
    1.5039    1.0136   -0.3489 O   0  0  0  0  0  0  0  0  0  0  0  0
   -0.5269    1.5704    1.0154 N   0  0  0  0  0  0  0  0  0  0  0  0
   -0.9927    2.3520   -0.0482 C   0  0  0  0  0  0  0  0  0  0  0  0
   -0.8423    3.7340   -0.0012 C   0  0  0  0  0  0  0  0  0  0  0  0
   -1.3093    4.5002   -1.0639 C   0  0  0  0  0  0  0  0  0  0  0  0
   -1.9195    3.9032   -2.1619 C   0  0  0  0  0  0  0  0  0  0  0  0
   -2.0586    2.5190   -2.1868 C   0  0  0  0  0  0  0  0  0  0  0  0
   -1.5992    1.7330   -1.1357 C   0  0  0  0  0  0  0  0  0  0  0  0
   -1.1482    6.0111   -1.0182 C   0  0  0  0  0  0  0  0  0  0  0  0
    0.0142    6.3498   -1.5686 F   0  0  0  0  0  0  0  0  0  0  0  0
   -2.1415    6.5834   -1.6925 F   0  0  0  0  0  0  0  0  0  0  0  0
   -1.1764    6.4219    0.2465 F   0  0  0  0  0  0  0  0  0  0  0  0
   -1.4146    1.2640    2.1462 C   0  0  0  0  0  0  0  0  0  0  0  0
   -2.1693   -0.0247    1.8631 C   0  0  0  0  0  0  0  0  0  0  0  0
   -2.0392   -1.0429    2.6609 C   0  0  0  0  0  0  0  0  0  0  0  0
    1.4403    3.0958    2.6585 C   0  0  0  0  0  0  0  0  0  0  0  0
    2.2448    3.8981    3.4618 C   0  0  0  0  0  0  0  0  0  0  0  0
    3.5997    3.6223    3.6176 C   0  0  0  0  0  0  0  0  0  0  0  0
    4.1557    2.5288    2.9603 C   0  0  0  0  0  0  0  0  0  0  0  0
    1.6579    5.0362    4.1431 C   0  0  0  0  0  0  0  0  0  0  0  0
    2.2964    5.8711    4.9264 O   0  0  0  0  0  0  0  0  0  0  0  0
    1.4901    6.7492    5.3570 N   0  0  0  0  0  0  0  0  0  0  0  0
    0.2991    6.5052    4.8627 C   0  0  0  0  0  0  0  0  0  0  0  0
    0.4023    5.4000    4.0792 N   0  0  0  0  0  0  0  0  0  0  0  0
   -0.9066    7.2736    5.1105 C   0  0  0  0  0  0  0  0  0  0  0  0
   -2.0947    6.9626    4.5676 N   0  0  0  0  0  0  0  0  0  0  0  0
   -3.1931    7.6949    4.8168 C   0  0  0  0  0  0  0  0  0  0  0  0
   -3.1479    8.8248    5.6245 C   0  0  0  0  0  0  0  0  0  0  0  0
   -1.9276    9.1490    6.2033 C   0  0  0  0  0  0  0  0  0  0  0  0
   -0.7986    8.3767    5.9509 C   0  0  0  0  0  0  0  0  0  0  0  0
   -4.3758    9.6859    5.8595 C   0  0  0  0  0  0  0  0  0  0  0  0
   -5.6539    8.9227    5.5582 C   0  0  0  0  0  0  0  0  0  0  0  0
   -5.5307    8.3731    4.1455 C   0  0  0  0  0  0  0  0  0  0  0  0
   -4.5053    7.2531    4.1919 C   0  0  0  0  0  0  0  0  0  0  0  0
   -6.8234    9.8876    5.6671 C   0  0  0  0  0  0  0  0  0  0  0  0
  1  2  1  0
  2  3  2  0
  3  4  1  0
  4  5  2  0
  4  6  2  0
  4  7  1  0
  7  8  1  0
  8  9  2  0
  9 10  1  0
 10 11  2  0
 11 12  1  0
 12 13  2  0
 13  8  1  0
 10 14  1  0
 14 15  1  0
 14 16  1  0
 14 17  1  0
  7 18  1  0
 18 19  1  0
 19 20  2  0
  3 21  1  0
 21 22  2  0
 22 23  1  0
 23 24  2  0
 24  2  1  0
 22 25  1  0
 25 26  1  0
 26 27  1  0
 27 28  2  0
 28 29  1  0
 25 29  2  0
 28 30  1  0
 30 31  2  0
 31 32  1  0
 32 33  2  0
 33 34  1  0
 34 35  2  0
 35 30  1  0
 33 36  1  0
 36 37  1  0
 37 38  1  0
 38 39  1  0
 39 32  1  0
 37 40  1  0
M  END
$$$$
s_42a____8709406____12433056
     RDKit          3D

 35 40  0  0  0  0  0  0  0  0999 V2000
    5.6469    1.3987   -0.3874 Br  0  0  0  0  0  0  0  0  0  0  0  0
    6.3701    0.6672    1.2803 C   0  0  0  0  0  0  0  0  0  0  0  0
    5.6612    0.8208    2.4636 C   0  0  0  0  0  0  0  0  0  0  0  0
    6.1239    0.3320    3.6166 N   0  0  0  0  0  0  0  0  0  0  0  0
    7.2929   -0.3090    3.5561 C   0  0  0  0  0  0  0  0  0  0  0  0
    7.9668   -0.9890    4.9580 S   0  0  0  0  0  0  0  0  0  0  0  0
    9.3178   -1.6108    4.1523 C   0  0  0  0  0  0  0  0  0  0  0  0
    9.2791   -1.2917    2.8489 C   0  0  0  0  0  0  0  0  0  0  0  0
    8.1066   -0.5405    2.4696 C   0  0  0  0  0  0  0  0  0  0  0  0
    7.5856   -0.0094    1.2983 C   0  0  0  0  0  0  0  0  0  0  0  0
    8.3033   -0.1550    0.0456 C   0  0  0  0  0  0  0  0  0  0  0  0
    9.4850    0.5531   -0.1469 C   0  0  0  0  0  0  0  0  0  0  0  0
   10.1661    0.4078   -1.3510 C   0  0  0  0  0  0  0  0  0  0  0  0
   11.2977    1.0783   -1.5503 F   0  0  0  0  0  0  0  0  0  0  0  0
    9.6702   -0.4318   -2.3426 C   0  0  0  0  0  0  0  0  0  0  0  0
   10.5584   -0.6028   -3.8757 Cl  0  0  0  0  0  0  0  0  0  0  0  0
    8.4883   -1.1388   -2.1460 C   0  0  0  0  0  0  0  0  0  0  0  0
    7.8045   -0.9976   -0.9435 C   0  0  0  0  0  0  0  0  0  0  0  0
   10.5697   -1.9165    2.3600 C   0  0  0  0  0  0  0  0  0  0  0  0
   11.4638   -1.9206    3.5828 C   0  0  0  0  0  0  0  0  0  0  0  0
   10.4909   -2.4386    4.6175 C   0  0  0  0  0  0  0  0  0  0  0  0
    4.3934    1.5238    2.4792 C   0  0  0  0  0  0  0  0  0  0  0  0
    4.3898    2.9144    2.4850 C   0  0  0  0  0  0  0  0  0  0  0  0
    3.1783    3.5981    2.5011 C   0  0  0  0  0  0  0  0  0  0  0  0
    1.9856    2.8824    2.5103 C   0  0  0  0  0  0  0  0  0  0  0  0
    0.8052    3.5371    2.5243 O   0  0  0  0  0  0  0  0  0  0  0  0
    0.2263    3.8603    3.7006 C   0  0  0  0  0  0  0  0  0  0  0  0
   -0.6542    2.9651    4.2987 C   0  0  0  0  0  0  0  0  0  0  0  0
   -1.2544    3.2908    5.5102 C   0  0  0  0  0  0  0  0  0  0  0  0
   -0.9640    4.5119    6.1096 C   0  0  0  0  0  0  0  0  0  0  0  0
   -1.7274    4.9356    7.6604 Cl  0  0  0  0  0  0  0  0  0  0  0  0
   -0.0839    5.4110    5.5169 C   0  0  0  0  0  0  0  0  0  0  0  0
    0.5126    5.0791    4.3052 C   0  0  0  0  0  0  0  0  0  0  0  0
    1.9898    1.4913    2.5046 C   0  0  0  0  0  0  0  0  0  0  0  0
    3.2009    0.8075    2.4890 C   0  0  0  0  0  0  0  0  0  0  0  0
  1  2  1  0
  2  3  2  0
  3  4  1  0
  4  5  2  0
  5  6  1  0
  6  7  1  0
  7  8  2  0
  8  9  1  0
  9  5  1  0
  9 10  2  0
 10  2  1  0
 10 11  1  0
 11 12  2  0
 12 13  1  0
 13 14  1  0
 13 15  2  0
 15 16  1  0
 15 17  1  0
 17 18  2  0
 18 11  1  0
  8 19  1  0
 19 20  1  0
 20 21  1  0
 21  7  1  0
  3 22  1  0
 22 23  2  0
 23 24  1  0
 24 25  2  0
 25 26  1  0
 26 27  1  0
 27 28  2  0
 28 29  1  0
 29 30  2  0
 30 31  1  0
 30 32  1  0
 32 33  2  0
 33 27  1  0
 25 34  1  0
 34 35  2  0
 35 22  1  0
M  END
$$$$
s_42a____9450124____125184
     RDKit          3D

 38 43  0  0  0  0  0  0  0  0999 V2000
    9.4589   -1.5333    0.9823 S   0  0  0  0  0  0  0  0  0  0  0  0
    8.5345   -0.1065    0.9972 C   0  0  0  0  0  0  0  0  0  0  0  0
    7.2056   -0.1875    0.9951 N   0  0  0  0  0  0  0  0  0  0  0  0
    6.5600    0.9798    0.9971 C   0  0  0  0  0  0  0  0  0  0  0  0
    5.1146    0.9796    0.9975 C   0  0  0  0  0  0  0  0  0  0  0  0
    4.4370    2.1940    0.9996 C   0  0  0  0  0  0  0  0  0  0  0  0
    3.0459    2.2044    1.0013 C   0  0  0  0  0  0  0  0  0  0  0  0
    2.3499    1.0000    1.0000 C   0  0  0  0  0  0  0  0  0  0  0  0
    1.0000    1.0000    1.0000 O   0  0  0  0  0  0  0  0  0  0  0  0
    0.2900   -0.2298    0.9987 C   0  0  0  0  0  0  0  0  0  0  0  0
   -1.2044    0.0480    0.9990 C   0  0  0  0  0  0  0  0  0  0  0  0
   -1.6044    1.1794    1.0002 O   0  0  0  0  0  0  0  0  0  0  0  0
   -2.0947   -0.9933    0.9979 N   0  0  0  0  0  0  0  0  0  0  0  0
   -3.4714   -0.7374    0.9982 C   0  0  0  0  0  0  0  0  0  0  0  0
   -4.2839   -1.1919   -0.0352 C   0  0  0  0  0  0  0  0  0  0  0  0
   -5.6490   -0.9278   -0.0139 C   0  0  0  0  0  0  0  0  0  0  0  0
   -6.2017   -0.2080    1.0400 C   0  0  0  0  0  0  0  0  0  0  0  0
   -5.3894    0.2465    2.0731 C   0  0  0  0  0  0  0  0  0  0  0  0
   -4.0242   -0.0184    2.0523 C   0  0  0  0  0  0  0  0  0  0  0  0
   -3.6798   -1.9779   -1.1876 C   0  0  0  0  0  0  0  0  0  0  0  0
    3.0283   -0.2145    0.9981 C   0  0  0  0  0  0  0  0  0  0  0  0
    4.4192   -0.2251    0.9969 C   0  0  0  0  0  0  0  0  0  0  0  0
    7.2372    2.1953    0.9969 C   0  0  0  0  0  0  0  0  0  0  0  0
    8.6297    2.1925    0.9981 C   0  0  0  0  0  0  0  0  0  0  0  0
    9.3182    3.4690    0.9929 C   0  0  0  0  0  0  0  0  0  0  0  0
    8.9576    4.4377    0.0619 C   0  0  0  0  0  0  0  0  0  0  0  0
    9.6173    5.6627    0.0560 C   0  0  0  0  0  0  0  0  0  0  0  0
   10.6286    5.9027    0.9808 C   0  0  0  0  0  0  0  0  0  0  0  0
   11.3497    7.2411    0.9752 C   0  0  0  0  0  0  0  0  0  0  0  0
   11.8905    8.2446    0.9715 N   0  0  0  0  0  0  0  0  0  0  0  0
   10.9883    4.9339    1.9118 C   0  0  0  0  0  0  0  0  0  0  0  0
   10.3290    3.7087    1.9181 C   0  0  0  0  0  0  0  0  0  0  0  0
    9.3564    1.0042    1.0020 C   0  0  0  0  0  0  0  0  0  0  0  0
   10.7444    0.6086    0.9777 C   0  0  0  0  0  0  0  0  0  0  0  0
   10.9488   -0.7136    0.9551 C   0  0  0  0  0  0  0  0  0  0  0  0
   12.3841   -1.1812    0.8976 C   0  0  0  0  0  0  0  0  0  0  0  0
   12.9895    0.0134    1.5928 C   0  0  0  0  0  0  0  0  0  0  0  0
   12.1718    1.1178    0.9609 C   0  0  0  0  0  0  0  0  0  0  0  0
  1  2  1  0
  2  3  2  0
  3  4  1  0
  4  5  1  0
  5  6  2  0
  6  7  1  0
  7  8  2  0
  8  9  1  0
  9 10  1  0
 10 11  1  0
 11 12  2  0
 11 13  1  0
 13 14  1  0
 14 15  2  0
 15 16  1  0
 16 17  2  0
 17 18  1  0
 18 19  2  0
 19 14  1  0
 15 20  1  0
  8 21  1  0
 21 22  2  0
 22  5  1  0
  4 23  2  0
 23 24  1  0
 24 25  1  0
 25 26  2  0
 26 27  1  0
 27 28  2  0
 28 29  1  0
 29 30  3  0
 28 31  1  0
 31 32  2  0
 32 25  1  0
 24 33  2  0
 33  2  1  0
 33 34  1  0
 34 35  2  0
 35  1  1  0
 35 36  1  0
 36 37  1  0
 37 38  1  0
 38 34  1  0
M  END
$$$$
s_2____11687950____2785940____7793932
     RDKit          3D

 44 49  0  0  0  0  0  0  0  0999 V2000
    7.1901   -5.0555   -0.5212 S   0  0  0  0  0  0  0  0  0  0  0  0
    6.6238   -6.3706   -0.3676 O   0  0  0  0  0  0  0  0  0  0  0  0
    7.7263   -4.9161   -1.8504 O   0  0  0  0  0  0  0  0  0  0  0  0
    8.3824   -4.8465    0.5704 N   0  0  0  0  0  0  0  0  0  0  0  0
    5.9539   -3.8584   -0.2661 C   0  0  0  0  0  0  0  0  0  0  0  0
    4.8727   -3.7885   -1.1382 C   0  0  0  0  0  0  0  0  0  0  0  0
    3.8880   -2.8290   -0.9295 C   0  0  0  0  0  0  0  0  0  0  0  0
    3.9934   -1.9527    0.1454 C   0  0  0  0  0  0  0  0  0  0  0  0
    2.9979   -0.9893    0.3491 N   0  0  0  0  0  0  0  0  0  0  0  0
    2.0224   -1.2372    1.1281 C   0  0  0  0  0  0  0  0  0  0  0  0
    1.6926   -2.7123    1.9131 S   0  0  0  0  0  0  0  0  0  0  0  0
    0.2720   -2.2228    2.7207 C   0  0  0  0  0  0  0  0  0  0  0  0
    0.1074   -0.9240    2.3464 C   0  0  0  0  0  0  0  0  0  0  0  0
    1.0330   -0.3817    1.5001 N   0  0  0  0  0  0  0  0  0  0  0  0
    1.0000    1.0000    1.0000 C   0  0  0  0  0  0  0  0  0  0  0  0
    1.8776    1.8776    1.8776 C   0  0  0  0  0  0  0  0  0  0  0  0
    3.1598    2.2074    1.4510 C   0  0  0  0  0  0  0  0  0  0  0  0
    3.9661    3.0108    2.2503 C   0  0  0  0  0  0  0  0  0  0  0  0
    3.4787    3.4751    3.4679 C   0  0  0  0  0  0  0  0  0  0  0  0
    4.2580    4.2548    4.2469 O   0  0  0  0  0  0  0  0  0  0  0  0
    3.7036    4.9051    5.3810 C   0  0  0  0  0  0  0  0  0  0  0  0
    4.7838    5.7136    6.0796 C   0  0  0  0  0  0  0  0  0  0  0  0
    4.9867    7.0369    5.7016 C   0  0  0  0  0  0  0  0  0  0  0  0
    5.9752    7.7754    6.3428 C   0  0  0  0  0  0  0  0  0  0  0  0
    6.1864    9.0415    5.9961 F   0  0  0  0  0  0  0  0  0  0  0  0
    6.7490    7.2001    7.3455 C   0  0  0  0  0  0  0  0  0  0  0  0
    6.5372    5.8751    7.7140 C   0  0  0  0  0  0  0  0  0  0  0  0
    5.5507    5.1262    7.0808 C   0  0  0  0  0  0  0  0  0  0  0  0
    2.1972    3.1480    3.8994 C   0  0  0  0  0  0  0  0  0  0  0  0
    1.3951    2.3447    3.0959 C   0  0  0  0  0  0  0  0  0  0  0  0
   -1.0392   -0.2019    2.8703 C   0  0  0  0  0  0  0  0  0  0  0  0
   -1.5733   -0.3708    4.4804 S   0  0  0  0  0  0  0  0  0  0  0  0
   -2.8638    0.7312    4.3450 C   0  0  0  0  0  0  0  0  0  0  0  0
   -2.8730    1.1787    3.0596 C   0  0  0  0  0  0  0  0  0  0  0  0
   -1.8478    0.6866    2.2100 C   0  0  0  0  0  0  0  0  0  0  0  0
   -3.9707    2.1484    2.6640 C   0  0  0  0  0  0  0  0  0  0  0  0
   -4.5992    2.6111    3.9048 N   0  0  0  0  0  0  0  0  0  0  0  0
   -4.7719    3.9630    4.2171 C   0  0  0  0  0  0  0  0  0  0  0  0
   -5.6274    4.2957    4.9900 O   0  0  0  0  0  0  0  0  0  0  0  0
   -3.8760    5.0113    3.5776 C   0  0  0  0  0  0  0  0  0  0  0  0
   -5.0339    1.5070    4.7676 C   0  0  0  0  0  0  0  0  0  0  0  0
   -3.7684    1.1057    5.4961 C   0  0  0  0  0  0  0  0  0  0  0  0
    5.0769   -2.0277    1.0134 C   0  0  0  0  0  0  0  0  0  0  0  0
    6.0653   -2.9847    0.8103 C   0  0  0  0  0  0  0  0  0  0  0  0
  1  2  2  0
  1  3  2  0
  1  4  1  0
  1  5  1  0
  5  6  2  0
  6  7  1  0
  7  8  2  0
  8  9  1  0
  9 10  2  0
 10 11  1  0
 11 12  1  0
 12 13  2  0
 13 14  1  0
 14 10  1  0
 14 15  1  0
 15 16  1  0
 16 17  2  0
 17 18  1  0
 18 19  2  0
 19 20  1  0
 20 21  1  0
 21 22  1  0
 22 23  2  0
 23 24  1  0
 24 25  1  0
 24 26  2  0
 26 27  1  0
 27 28  2  0
 28 22  1  0
 19 29  1  0
 29 30  2  0
 30 16  1  0
 13 31  1  0
 31 32  1  0
 32 33  1  0
 33 34  2  0
 34 35  1  0
 31 35  2  0
 34 36  1  0
 36 37  1  0
 37 38  1  0
 38 39  2  0
 38 40  1  0
 37 41  1  0
 41 42  1  0
 42 33  1  0
  8 43  1  0
 43 44  2  0
 44  5  1  0
M  END
$$$$
s_22____15097550____59237
     RDKit          3D

 41 46  0  0  0  0  0  0  0  0999 V2000
   -1.4746    4.8035    3.2676 O   0  0  0  0  0  0  0  0  0  0  0  0
   -1.3069    5.3772    2.2030 C   0  0  0  0  0  0  0  0  0  0  0  0
   -0.9316    6.6447    2.1689 O   0  0  0  0  0  0  0  0  0  0  0  0
   -0.7424    7.2910    1.0309 C   0  0  0  0  0  0  0  0  0  0  0  0
   -0.9332    6.6543   -0.1918 C   0  0  0  0  0  0  0  0  0  0  0  0
   -0.7410    7.3124   -1.4023 C   0  0  0  0  0  0  0  0  0  0  0  0
   -0.3464    8.6459   -1.3902 C   0  0  0  0  0  0  0  0  0  0  0  0
   -0.1495    9.3023   -0.1790 C   0  0  0  0  0  0  0  0  0  0  0  0
   -0.3477    8.6247    1.0196 C   0  0  0  0  0  0  0  0  0  0  0  0
   -1.3369    5.2934   -0.2007 C   0  0  0  0  0  0  0  0  0  0  0  0
   -1.5236    4.6551    0.9976 C   0  0  0  0  0  0  0  0  0  0  0  0
   -1.9357    3.2646    1.0000 C   0  0  0  0  0  0  0  0  0  0  0  0
   -3.1675    2.8055    1.0035 N   0  0  0  0  0  0  0  0  0  0  0  0
   -3.1893    1.4941    0.9985 N   0  0  0  0  0  0  0  0  0  0  0  0
   -4.3398    0.6962    0.9986 C   0  0  0  0  0  0  0  0  0  0  0  0
   -5.5946    1.2970    1.0043 C   0  0  0  0  0  0  0  0  0  0  0  0
   -6.7353    0.5010    1.0041 C   0  0  0  0  0  0  0  0  0  0  0  0
   -6.6163   -0.8846    0.9985 C   0  0  0  0  0  0  0  0  0  0  0  0
   -5.3566   -1.4745    0.9922 C   0  0  0  0  0  0  0  0  0  0  0  0
   -4.2090   -0.6886    0.9925 C   0  0  0  0  0  0  0  0  0  0  0  0
   -1.9089    1.0304    1.0018 C   0  0  0  0  0  0  0  0  0  0  0  0
   -1.1013    2.1258    1.0000 C   0  0  0  0  0  0  0  0  0  0  0  0
    0.3500    2.1258    1.0000 C   0  0  0  0  0  0  0  0  0  0  0  0
    1.0000    1.0000    1.0000 C   0  0  0  0  0  0  0  0  0  0  0  0
    2.5200    1.0000    1.0000 C   0  0  0  0  0  0  0  0  0  0  0  0
    3.1200    1.6680    1.7961 O   0  0  0  0  0  0  0  0  0  0  0  0
    3.2050    0.2374    0.0911 N   0  0  0  0  0  0  0  0  0  0  0  0
    4.5388   -0.1031    0.3292 C   0  0  0  0  0  0  0  0  0  0  0  0
    5.4964    0.8971    0.4279 C   0  0  0  0  0  0  0  0  0  0  0  0
    6.8298    0.5834    0.6628 C   0  0  0  0  0  0  0  0  0  0  0  0
    7.1821   -0.7608    0.7985 C   0  0  0  0  0  0  0  0  0  0  0  0
    6.2164   -1.7527    0.6966 C   0  0  0  0  0  0  0  0  0  0  0  0
    4.8830   -1.4424    0.4602 C   0  0  0  0  0  0  0  0  0  0  0  0
    8.6161   -1.1983    1.0728 C   0  0  0  0  0  0  0  0  0  0  0  0
    9.6202   -0.0978    0.7559 C   0  0  0  0  0  0  0  0  0  0  0  0
    9.1766    1.2356    1.3413 C   0  0  0  0  0  0  0  0  0  0  0  0
    7.8568    1.7119    0.7502 C   0  0  0  0  0  0  0  0  0  0  0  0
    7.3203    2.9408    1.4704 C   0  0  0  0  0  0  0  0  0  0  0  0
    8.1760    2.1569   -0.6664 C   0  0  0  0  0  0  0  0  0  0  0  0
    9.0016   -2.4838    0.3559 C   0  0  0  0  0  0  0  0  0  0  0  0
    8.7506   -1.4580    2.5702 C   0  0  0  0  0  0  0  0  0  0  0  0
  1  2  2  0
  2  3  1  0
  3  4  1  0
  4  5  2  0
  5  6  1  0
  6  7  2  0
  7  8  1  0
  8  9  2  0
  9  4  1  0
  5 10  1  0
 10 11  2  0
 11  2  1  0
 11 12  1  0
 12 13  2  0
 13 14  1  0
 14 15  1  0
 15 16  2  0
 16 17  1  0
 17 18  2  0
 18 19  1  0
 19 20  2  0
 20 15  1  0
 14 21  1  0
 21 22  2  0
 22 12  1  0
 22 23  1  0
 23 24  2  0
 24 25  1  0
 25 26  2  0
 25 27  1  0
 27 28  1  0
 28 29  2  0
 29 30  1  0
 30 31  2  0
 31 32  1  0
 32 33  2  0
 33 28  1  0
 31 34  1  0
 34 35  1  0
 35 36  1  0
 36 37  1  0
 37 30  1  0
 37 38  1  0
 37 39  1  0
 34 40  1  0
 34 41  1  0
M  END
$$$$
m_276010b____17282026____17249466____17280474
     RDKit          3D

 46 51  0  0  0  0  0  0  0  0999 V2000
    0.7249   -0.2785    4.1324 O   0  0  0  0  0  0  0  0  0  0  0  0
    0.1492    0.1602    3.1753 C   0  0  0  0  0  0  0  0  0  0  0  0
   -0.8564    0.9841    3.3366 O   0  0  0  0  0  0  0  0  0  0  0  0
   -1.2652    1.3581    4.6441 C   0  0  0  0  0  0  0  0  0  0  0  0
   -2.4434    2.3146    4.5525 C   0  0  0  0  0  0  0  0  0  0  0  0
   -3.7401    1.8114    4.5404 C   0  0  0  0  0  0  0  0  0  0  0  0
   -4.8153    2.6900    4.4557 C   0  0  0  0  0  0  0  0  0  0  0  0
   -4.5895    4.0607    4.3852 C   0  0  0  0  0  0  0  0  0  0  0  0
   -3.2899    4.5520    4.3985 C   0  0  0  0  0  0  0  0  0  0  0  0
   -2.2063    3.6837    4.4823 C   0  0  0  0  0  0  0  0  0  0  0  0
    0.5868   -0.2401    1.7758 C   0  0  0  0  0  0  0  0  0  0  0  0
    1.0000    1.0000    1.0000 C   0  0  0  0  0  0  0  0  0  0  0  0
    1.8772    1.8772    1.8772 C   0  0  0  0  0  0  0  0  0  0  0  0
    1.4645    2.9583    2.5965 N   0  0  0  0  0  0  0  0  0  0  0  0
    2.4732    3.4294    3.1936 N   0  0  0  0  0  0  0  0  0  0  0  0
    3.5490    2.7319    2.9235 N   0  0  0  0  0  0  0  0  0  0  0  0
    3.2123    1.7217    2.0791 C   0  0  0  0  0  0  0  0  0  0  0  0
    4.8971    2.9989    3.4454 C   0  0  0  0  0  0  0  0  0  0  0  0
    4.8913    3.2954    4.9289 C   0  0  0  0  0  0  0  0  0  0  0  0
    5.8076    4.2937    5.1513 C   0  0  0  0  0  0  0  0  0  0  0  0
    6.3817    4.6397    3.9228 N   0  0  0  0  0  0  0  0  0  0  0  0
    7.6221    5.2745    3.7696 C   0  0  0  0  0  0  0  0  0  0  0  0
    7.8145    5.9970    2.8310 O   0  0  0  0  0  0  0  0  0  0  0  0
    8.6708    5.0585    4.7436 C   0  0  0  0  0  0  0  0  0  0  0  0
    9.3687    3.8600    4.7490 C   0  0  0  0  0  0  0  0  0  0  0  0
   10.3790    3.6302    5.6752 C   0  0  0  0  0  0  0  0  0  0  0  0
   10.6726    4.6392    6.6028 C   0  0  0  0  0  0  0  0  0  0  0  0
    9.9670    5.8370    6.5889 C   0  0  0  0  0  0  0  0  0  0  0  0
    8.9600    6.0599    5.6594 C   0  0  0  0  0  0  0  0  0  0  0  0
   11.7745    4.4781    7.6456 C   0  0  0  0  0  0  0  0  0  0  0  0
   12.1735    3.0223    7.8286 C   0  0  0  0  0  0  0  0  0  0  0  0
   12.3946    2.3385    6.4847 C   0  0  0  0  0  0  0  0  0  0  0  0
   11.1224    2.2956    5.6499 C   0  0  0  0  0  0  0  0  0  0  0  0
   11.3932    1.7894    4.2401 C   0  0  0  0  0  0  0  0  0  0  0  0
   10.2268    1.2796    6.3413 C   0  0  0  0  0  0  0  0  0  0  0  0
   11.4352    5.1144    8.9843 C   0  0  0  0  0  0  0  0  0  0  0  0
   13.0123    5.1818    7.1134 C   0  0  0  0  0  0  0  0  0  0  0  0
    5.5209    4.2228    2.8126 C   0  0  0  0  0  0  0  0  0  0  0  0
    6.2956    3.8626    1.5560 C   0  0  0  0  0  0  0  0  0  0  0  0
    4.5018    5.3041    2.4887 C   0  0  0  0  0  0  0  0  0  0  0  0
    5.9872    4.7556    6.4528 C   0  0  0  0  0  0  0  0  0  0  0  0
    5.2629    4.2158    7.5102 C   0  0  0  0  0  0  0  0  0  0  0  0
    4.3410    3.2017    7.2751 C   0  0  0  0  0  0  0  0  0  0  0  0
    4.1582    2.7429    5.9752 C   0  0  0  0  0  0  0  0  0  0  0  0
   -0.5668   -0.9242    1.0605 C   0  0  0  0  0  0  0  0  0  0  0  0
    1.7647   -1.1964    1.8673 C   0  0  0  0  0  0  0  0  0  0  0  0
  1  2  2  0
  2  3  1  0
  3  4  1  0
  4  5  1  0
  5  6  2  0
  6  7  1  0
  7  8  2  0
  8  9  1  0
  9 10  2  0
 10  5  1  0
  2 11  1  0
 11 12  1  0
 12 13  1  0
 13 14  1  0
 14 15  2  0
 15 16  1  0
 16 17  1  0
 13 17  2  0
 16 18  1  0
 18 19  1  0
 19 20  2  0
 20 21  1  0
 21 22  1  0
 22 23  2  0
 22 24  1  0
 24 25  2  0
 25 26  1  0
 26 27  2  0
 27 28  1  0
 28 29  2  0
 29 24  1  0
 27 30  1  0
 30 31  1  0
 31 32  1  0
 32 33  1  0
 33 26  1  0
 33 34  1  0
 33 35  1  0
 30 36  1  0
 30 37  1  0
 21 38  1  0
 38 18  1  0
 38 39  1  0
 38 40  1  0
 20 41  1  0
 41 42  2  0
 42 43  1  0
 43 44  2  0
 44 19  1  0
 11 45  1  0
 11 46  1  0
M  END
$$$$
m_273170____10759172____14470030____10755794
     RDKit          3D

 40 45  0  0  0  0  0  0  0  0999 V2000
    4.2511   -0.8506    2.9105 S   0  0  0  0  0  0  0  0  0  0  0  0
    4.8569   -0.1801    1.7893 O   0  0  0  0  0  0  0  0  0  0  0  0
    5.0758   -0.6747    4.0778 O   0  0  0  0  0  0  0  0  0  0  0  0
    2.6114   -0.1491    3.2191 C   0  0  0  0  0  0  0  0  0  0  0  0
    2.6325    1.3405    2.9166 C   0  0  0  0  0  0  0  0  0  0  0  0
    1.8777    1.8777    1.8777 C   0  0  0  0  0  0  0  0  0  0  0  0
    1.9164    3.2449    1.6235 C   0  0  0  0  0  0  0  0  0  0  0  0
    2.7143    4.0634    2.4169 C   0  0  0  0  0  0  0  0  0  0  0  0
    2.7560    5.3720    2.1801 F   0  0  0  0  0  0  0  0  0  0  0  0
    3.4711    3.5338    3.4572 C   0  0  0  0  0  0  0  0  0  0  0  0
    3.4277    2.1659    3.7055 C   0  0  0  0  0  0  0  0  0  0  0  0
    1.0000    1.0000    1.0000 C   0  0  0  0  0  0  0  0  0  0  0  0
   -0.3450    0.9084    1.5875 N   0  0  0  0  0  0  0  0  0  0  0  0
   -0.8593   -0.1622    2.2465 C   0  0  0  0  0  0  0  0  0  0  0  0
   -2.0727    0.1860    2.5969 N   0  0  0  0  0  0  0  0  0  0  0  0
   -2.3519    1.4073    2.1991 N   0  0  0  0  0  0  0  0  0  0  0  0
   -1.2981    1.8780    1.5710 C   0  0  0  0  0  0  0  0  0  0  0  0
   -1.1790    3.1928    0.9714 C   0  0  0  0  0  0  0  0  0  0  0  0
   -1.8889    4.2561    1.5195 C   0  0  0  0  0  0  0  0  0  0  0  0
   -1.7727    5.5152    0.9400 C   0  0  0  0  0  0  0  0  0  0  0  0
   -2.4831    6.5931    1.4828 N   0  0  0  0  0  0  0  0  0  0  0  0
   -2.3181    7.7176    1.0393 O   0  0  0  0  0  0  0  0  0  0  0  0
   -3.2604    6.4092    2.3916 O   0  0  0  0  0  0  0  0  0  0  0  0
   -0.9618    5.7213   -0.1710 C   0  0  0  0  0  0  0  0  0  0  0  0
   -0.2608    4.6439   -0.7021 C   0  0  0  0  0  0  0  0  0  0  0  0
   -0.3619    3.3762   -0.1389 C   0  0  0  0  0  0  0  0  0  0  0  0
   -0.2264   -1.3876    2.4972 N   0  0  0  0  0  0  0  0  0  0  0  0
    0.1935   -2.3207    1.4364 C   0  0  0  0  0  0  0  0  0  0  0  0
   -0.1958   -3.7585    1.7597 C   0  0  0  0  0  0  0  0  0  0  0  0
   -0.5933   -4.1493    3.0306 C   0  0  0  0  0  0  0  0  0  0  0  0
   -0.9925   -5.4468    3.3276 C   0  0  0  0  0  0  0  0  0  0  0  0
   -0.9384   -6.3826    2.2949 C   0  0  0  0  0  0  0  0  0  0  0  0
   -0.5191   -6.0411    1.0121 C   0  0  0  0  0  0  0  0  0  0  0  0
   -0.1551   -4.7223    0.7557 C   0  0  0  0  0  0  0  0  0  0  0  0
   -1.4427   -5.6393    4.7694 C   0  0  0  0  0  0  0  0  0  0  0  0
   -2.4956   -4.5834    5.0825 C   0  0  0  0  0  0  0  0  0  0  0  0
   -2.0592   -3.1836    4.6742 C   0  0  0  0  0  0  0  0  0  0  0  0
   -0.6222   -3.1487    4.1749 C   0  0  0  0  0  0  0  0  0  0  0  0
    0.1011   -1.8599    3.8517 C   0  0  0  0  0  0  0  0  0  0  0  0
    4.0928   -2.6161    2.5441 C   0  0  0  0  0  0  0  0  0  0  0  0
  1  2  2  0
  1  3  2  0
  1  4  1  0
  4  5  1  0
  5  6  2  0
  6  7  1  0
  7  8  2  0
  8  9  1  0
  8 10  1  0
 10 11  2  0
 11  5  1  0
  6 12  1  0
 12 13  1  0
 13 14  1  0
 14 15  2  0
 15 16  1  0
 16 17  2  0
 17 13  1  0
 17 18  1  0
 18 19  2  0
 19 20  1  0
 20 21  1  0
 21 22  1  0
 21 23  2  0
 20 24  2  0
 24 25  1  0
 25 26  2  0
 26 18  1  0
 14 27  1  0
 27 28  1  0
 28 29  1  0
 29 30  2  0
 30 31  1  0
 31 32  2  0
 32 33  1  0
 33 34  2  0
 34 29  1  0
 31 35  1  0
 35 36  1  0
 36 37  1  0
 37 38  1  0
 38 30  1  0
 38 39  1  0
 39 27  1  0
  1 40  1  0
M  CHG  2  21   1  22  -1
M  END
$$$$
s_42a____8709406____2228250
     RDKit          3D

 34 38  0  0  0  0  0  0  0  0999 V2000
    5.8867    5.9415   -1.3213 Cl  0  0  0  0  0  0  0  0  0  0  0  0
    5.8484    4.2065   -0.9254 C   0  0  0  0  0  0  0  0  0  0  0  0
    4.6384    3.5215   -0.9548 C   0  0  0  0  0  0  0  0  0  0  0  0
    3.5180    4.1619   -1.2776 F   0  0  0  0  0  0  0  0  0  0  0  0
    4.5902    2.1656   -0.6480 C   0  0  0  0  0  0  0  0  0  0  0  0
    5.7707    1.5108   -0.3124 C   0  0  0  0  0  0  0  0  0  0  0  0
    5.7303    0.0981    0.0081 C   0  0  0  0  0  0  0  0  0  0  0  0
    5.7345   -0.8606   -1.0088 C   0  0  0  0  0  0  0  0  0  0  0  0
    5.6869   -2.1425   -0.4958 C   0  0  0  0  0  0  0  0  0  0  0  0
    5.6810   -3.2542   -1.7796 S   0  0  0  0  0  0  0  0  0  0  0  0
    5.7786   -2.0705   -3.0002 C   0  0  0  0  0  0  0  0  0  0  0  0
    5.8196   -0.8436   -2.4338 C   0  0  0  0  0  0  0  0  0  0  0  0
    5.9269    0.1072   -3.6070 C   0  0  0  0  0  0  0  0  0  0  0  0
    5.4240   -0.6555   -4.8134 C   0  0  0  0  0  0  0  0  0  0  0  0
    5.8535   -2.0717   -4.5079 C   0  0  0  0  0  0  0  0  0  0  0  0
    5.6547   -2.5504    0.7678 N   0  0  0  0  0  0  0  0  0  0  0  0
    5.6735   -1.6036    1.7151 C   0  0  0  0  0  0  0  0  0  0  0  0
    5.7063   -0.2582    1.3574 C   0  0  0  0  0  0  0  0  0  0  0  0
    5.7226    0.7865    2.4629 C   0  0  0  0  0  0  0  0  0  0  0  0
    4.3950    1.5267    2.4801 C   0  0  0  0  0  0  0  0  0  0  0  0
    4.3871    2.9176    2.4894 C   0  0  0  0  0  0  0  0  0  0  0  0
    3.1748    3.5992    2.5044 C   0  0  0  0  0  0  0  0  0  0  0  0
    1.9840    2.8796    2.5094 C   0  0  0  0  0  0  0  0  0  0  0  0
    0.8052    3.5371    2.5243 O   0  0  0  0  0  0  0  0  0  0  0  0
   -0.4139    2.8089    2.5295 C   0  0  0  0  0  0  0  0  0  0  0  0
   -1.2056    3.1552    3.7800 C   0  0  0  0  0  0  0  0  0  0  0  0
   -2.3967    2.9458    3.8192 O   0  0  0  0  0  0  0  0  0  0  0  0
   -0.6262    3.6562    4.7678 O   0  0  0  0  0  0  0  0  0  0  0  0
   -1.2269    3.1732    1.2980 C   0  0  0  0  0  0  0  0  0  0  0  0
    1.9864    1.4885    2.5005 C   0  0  0  0  0  0  0  0  0  0  0  0
    3.2015    0.8121    2.4851 C   0  0  0  0  0  0  0  0  0  0  0  0
    5.6608   -2.0526    3.1675 C   0  0  0  0  0  0  0  0  0  0  0  0
    6.9834    2.1930   -0.2804 C   0  0  0  0  0  0  0  0  0  0  0  0
    7.0268    3.5482   -0.5888 C   0  0  0  0  0  0  0  0  0  0  0  0
  1  2  1  0
  2  3  2  0
  3  4  1  0
  3  5  1  0
  5  6  2  0
  6  7  1  0
  7  8  1  0
  8  9  2  0
  9 10  1  0
 10 11  1  0
 11 12  2  0
 12  8  1  0
 12 13  1  0
 13 14  1  0
 14 15  1  0
 15 11  1  0
  9 16  1  0
 16 17  2  0
 17 18  1  0
 18  7  2  0
 18 19  1  0
 19 20  1  0
 20 21  2  0
 21 22  1  0
 22 23  2  0
 23 24  1  0
 24 25  1  0
 25 26  1  0
 26 27  1  0
 26 28  2  0
 25 29  1  0
 23 30  1  0
 30 31  2  0
 31 20  1  0
 17 32  1  0
  6 33  1  0
 33 34  2  0
 34  2  1  0
M  CHG  1  27  -1
M  END
$$$$
m_273170____10757270____10761548____10766594
     RDKit          3D

 42 47  0  0  0  0  0  0  0  0999 V2000
   -2.7869    0.8690   -1.0570 O   0  0  0  0  0  0  0  0  0  0  0  0
   -2.2201   -0.0012   -0.4169 N   0  0  0  0  0  0  0  0  0  0  0  0
   -1.6426   -0.8959   -0.9914 O   0  0  0  0  0  0  0  0  0  0  0  0
   -2.2379    0.0354    0.9829 C   0  0  0  0  0  0  0  0  0  0  0  0
   -1.0632   -0.0910    1.7170 C   0  0  0  0  0  0  0  0  0  0  0  0
   -1.1038   -0.0502    3.1063 C   0  0  0  0  0  0  0  0  0  0  0  0
   -2.3191    0.1155    3.7619 C   0  0  0  0  0  0  0  0  0  0  0  0
   -3.4935    0.2417    3.0281 C   0  0  0  0  0  0  0  0  0  0  0  0
   -3.4529    0.2019    1.6384 C   0  0  0  0  0  0  0  0  0  0  0  0
    0.2650   -0.2731    1.0004 C   0  0  0  0  0  0  0  0  0  0  0  0
    1.0000    1.0000    1.0000 N   0  0  0  0  0  0  0  0  0  0  0  0
    2.4017    1.0000    1.0000 C   0  0  0  0  0  0  0  0  0  0  0  0
    3.1912    2.0415    1.0908 N   0  0  0  0  0  0  0  0  0  0  0  0
    4.4560    1.6855    1.0558 N   0  0  0  0  0  0  0  0  0  0  0  0
    4.5040    0.3775    0.9393 C   0  0  0  0  0  0  0  0  0  0  0  0
    3.2232   -0.0772    0.9021 N   0  0  0  0  0  0  0  0  0  0  0  0
    2.8010   -1.4805    0.7791 C   0  0  0  0  0  0  0  0  0  0  0  0
    2.7795   -2.1260    2.1561 C   0  0  0  0  0  0  0  0  0  0  0  0
    3.4271   -3.3445    2.3320 C   0  0  0  0  0  0  0  0  0  0  0  0
    3.4723   -3.9500    3.5836 C   0  0  0  0  0  0  0  0  0  0  0  0
    2.8411   -3.3622    4.6683 C   0  0  0  0  0  0  0  0  0  0  0  0
    2.9090   -4.0249    5.9037 N   0  0  0  0  0  0  0  0  0  0  0  0
    4.1585   -4.7036    6.2887 C   0  0  0  0  0  0  0  0  0  0  0  0
    5.0073   -5.1216    5.0939 C   0  0  0  0  0  0  0  0  0  0  0  0
    4.2156   -5.2564    3.7983 C   0  0  0  0  0  0  0  0  0  0  0  0
    1.7725   -4.0557    6.8375 C   0  0  0  0  0  0  0  0  0  0  0  0
    2.1801   -2.1482    4.4732 C   0  0  0  0  0  0  0  0  0  0  0  0
    2.1402   -1.5163    3.2314 C   0  0  0  0  0  0  0  0  0  0  0  0
    5.7075   -0.4292    0.8647 C   0  0  0  0  0  0  0  0  0  0  0  0
    6.4799   -0.4626    1.9370 N   0  0  0  0  0  0  0  0  0  0  0  0
    7.5978   -1.1673    1.9713 N   0  0  0  0  0  0  0  0  0  0  0  0
    8.0240   -1.9053    0.8978 C   0  0  0  0  0  0  0  0  0  0  0  0
    9.0678   -2.5349    0.9901 O   0  0  0  0  0  0  0  0  0  0  0  0
    7.2359   -1.9104   -0.2868 C   0  0  0  0  0  0  0  0  0  0  0  0
    6.0630   -1.1622   -0.3040 C   0  0  0  0  0  0  0  0  0  0  0  0
    5.2895   -1.1643   -1.4649 C   0  0  0  0  0  0  0  0  0  0  0  0
    5.6484   -1.8848   -2.5991 C   0  0  0  0  0  0  0  0  0  0  0  0
    6.8216   -2.6313   -2.5769 C   0  0  0  0  0  0  0  0  0  0  0  0
    7.5971   -2.6330   -1.4225 C   0  0  0  0  0  0  0  0  0  0  0  0
    8.4077   -1.1569    3.1983 C   0  0  0  0  0  0  0  0  0  0  0  0
    9.4146   -0.0202    3.1311 C   0  0  0  0  0  0  0  0  0  0  0  0
    0.2650    2.2731    0.9996 C   0  0  0  0  0  0  0  0  0  0  0  0
  1  2  1  0
  2  3  2  0
  2  4  1  0
  4  5  2  0
  5  6  1  0
  6  7  2  0
  7  8  1  0
  8  9  2  0
  9  4  1  0
  5 10  1  0
 10 11  1  0
 11 12  1  0
 12 13  2  0
 13 14  1  0
 14 15  2  0
 15 16  1  0
 16 12  1  0
 16 17  1  0
 17 18  1  0
 18 19  2  0
 19 20  1  0
 20 21  2  0
 21 22  1  0
 22 23  1  0
 23 24  1  0
 24 25  1  0
 25 20  1  0
 22 26  1  0
 21 27  1  0
 27 28  2  0
 28 18  1  0
 15 29  1  0
 29 30  2  0
 30 31  1  0
 31 32  1  0
 32 33  2  0
 32 34  1  0
 34 35  2  0
 35 29  1  0
 35 36  1  0
 36 37  2  0
 37 38  1  0
 38 39  2  0
 39 34  1  0
 31 40  1  0
 40 41  1  0
 11 42  1  0
M  CHG  2   1  -1   2   1
M  END
$$$$
s_42a____8624698____1111390
     RDKit          3D

 33 38  0  0  0  0  0  0  0  0999 V2000
    3.1964    5.1854    2.5641 S   0  0  0  0  0  0  0  0  0  0  0  0
    3.1152    3.4860    2.5135 C   0  0  0  0  0  0  0  0  0  0  0  0
    1.9682    2.7974    2.4791 N   0  0  0  0  0  0  0  0  0  0  0  0
    2.0533    1.4655    2.4513 C   0  0  0  0  0  0  0  0  0  0  0  0
    3.2540    0.7929    2.4764 C   0  0  0  0  0  0  0  0  0  0  0  0
    4.4179    1.5810    2.4959 C   0  0  0  0  0  0  0  0  0  0  0  0
    4.4016    2.9845    2.5132 C   0  0  0  0  0  0  0  0  0  0  0  0
    5.3723    4.0429    2.5536 C   0  0  0  0  0  0  0  0  0  0  0  0
    4.8882    5.2820    2.5934 C   0  0  0  0  0  0  0  0  0  0  0  0
    5.9062    6.3854    2.6770 C   0  0  0  0  0  0  0  0  0  0  0  0
    7.0245    5.6542    1.9724 C   0  0  0  0  0  0  0  0  0  0  0  0
    6.8683    4.2752    2.5761 C   0  0  0  0  0  0  0  0  0  0  0  0
    5.7268    0.9570    2.4971 C   0  0  0  0  0  0  0  0  0  0  0  0
    6.3575    0.6752    1.2896 C   0  0  0  0  0  0  0  0  0  0  0  0
    7.6124    0.0758    1.2966 C   0  0  0  0  0  0  0  0  0  0  0  0
    8.2217   -0.2335    2.5086 C   0  0  0  0  0  0  0  0  0  0  0  0
    7.5912    0.0509    3.7160 C   0  0  0  0  0  0  0  0  0  0  0  0
    6.3354    0.6491    3.7091 C   0  0  0  0  0  0  0  0  0  0  0  0
    9.5930   -0.8900    2.5096 C   0  0  0  0  0  0  0  0  0  0  0  0
   10.5343    0.0494    2.5263 F   0  0  0  0  0  0  0  0  0  0  0  0
    9.7153   -1.6595    3.5875 F   0  0  0  0  0  0  0  0  0  0  0  0
    9.7289   -1.6344    1.4158 F   0  0  0  0  0  0  0  0  0  0  0  0
    3.0158   -0.6297    2.4816 C   0  0  0  0  0  0  0  0  0  0  0  0
    3.8712   -1.4965    2.5275 O   0  0  0  0  0  0  0  0  0  0  0  0
    1.6450   -0.8654    2.4463 N   0  0  0  0  0  0  0  0  0  0  0  0
    0.9534    0.4184    2.3745 C   0  0  0  0  0  0  0  0  0  0  0  0
    1.0029   -2.1908    2.4496 C   0  0  0  0  0  0  0  0  0  0  0  0
    0.5178   -2.5154    3.8535 C   0  0  0  0  0  0  0  0  0  0  0  0
   -0.7664   -2.1474    4.2410 C   0  0  0  0  0  0  0  0  0  0  0  0
   -1.2060   -2.4456    5.5267 C   0  0  0  0  0  0  0  0  0  0  0  0
   -0.3638   -3.1080    6.4135 C   0  0  0  0  0  0  0  0  0  0  0  0
    0.9168   -3.4712    6.0153 C   0  0  0  0  0  0  0  0  0  0  0  0
    1.3684   -3.1781    4.7326 C   0  0  0  0  0  0  0  0  0  0  0  0
  1  2  1  0
  2  3  2  0
  3  4  1  0
  4  5  2  0
  5  6  1  0
  6  7  2  0
  7  2  1  0
  7  8  1  0
  8  9  2  0
  9  1  1  0
  9 10  1  0
 10 11  1  0
 11 12  1  0
 12  8  1  0
  6 13  1  0
 13 14  2  0
 14 15  1  0
 15 16  2  0
 16 17  1  0
 17 18  2  0
 18 13  1  0
 16 19  1  0
 19 20  1  0
 19 21  1  0
 19 22  1  0
  5 23  1  0
 23 24  2  0
 23 25  1  0
 25 26  1  0
 26  4  1  0
 25 27  1  0
 27 28  1  0
 28 29  2  0
 29 30  1  0
 30 31  2  0
 31 32  1  0
 32 33  2  0
 33 28  1  0
M  END
$$$$
s_2740a____1322246____8583856
     RDKit          3D

 42 47  0  0  0  0  0  0  0  0999 V2000
    0.1850    2.4116    1.0000 S   0  0  0  0  0  0  0  0  0  0  0  0
   -1.1598    2.1894    1.4643 O   0  0  0  0  0  0  0  0  0  0  0  0
    0.8457    3.3473    1.8727 O   0  0  0  0  0  0  0  0  0  0  0  0
    1.0000    1.0000    1.0000 N   0  0  0  0  0  0  0  0  0  0  0  0
    0.3001   -0.2123    1.0000 C   0  0  0  0  0  0  0  0  0  0  0  0
   -0.0394   -0.7999    2.2145 C   0  0  0  0  0  0  0  0  0  0  0  0
   -0.7353   -2.0046    2.2144 C   0  0  0  0  0  0  0  0  0  0  0  0
   -1.0831   -2.6066    1.0097 C   0  0  0  0  0  0  0  0  0  0  0  0
   -1.7583   -3.7754    1.0099 O   0  0  0  0  0  0  0  0  0  0  0  0
   -0.7438   -2.0191   -0.2050 C   0  0  0  0  0  0  0  0  0  0  0  0
   -0.0476   -0.8146   -0.2047 C   0  0  0  0  0  0  0  0  0  0  0  0
    2.3700    1.0000    1.0000 C   0  0  0  0  0  0  0  0  0  0  0  0
    2.9700    2.0392    1.0000 O   0  0  0  0  0  0  0  0  0  0  0  0
    3.0956   -0.2568    1.0000 C   0  0  0  0  0  0  0  0  0  0  0  0
    3.4719   -0.9086   -0.1737 C   0  0  0  0  0  0  0  0  0  0  0  0
    4.1672   -2.1119   -0.0861 C   0  0  0  0  0  0  0  0  0  0  0  0
    4.4656   -2.6279    1.1160 N   0  0  0  0  0  0  0  0  0  0  0  0
    4.1105   -2.0123    2.2543 C   0  0  0  0  0  0  0  0  0  0  0  0
    4.4373   -2.5764    3.5496 C   0  0  0  0  0  0  0  0  0  0  0  0
    5.1324   -3.7792    3.6224 C   0  0  0  0  0  0  0  0  0  0  0  0
    5.4424   -4.3162    4.8673 C   0  0  0  0  0  0  0  0  0  0  0  0
    5.0554   -3.6451    6.0230 C   0  0  0  0  0  0  0  0  0  0  0  0
    4.3622   -2.4407    5.9492 C   0  0  0  0  0  0  0  0  0  0  0  0
    4.0509   -1.9044    4.7042 C   0  0  0  0  0  0  0  0  0  0  0  0
    5.3958   -4.2377    7.3804 C   0  0  0  0  0  0  0  0  0  0  0  0
    6.2660   -3.2699    8.1659 C   0  0  0  0  0  0  0  0  0  0  0  0
    6.6078   -3.8607    9.5242 C   0  0  0  0  0  0  0  0  0  0  0  0
    5.3342   -4.1610   10.2980 C   0  0  0  0  0  0  0  0  0  0  0  0
    4.4644   -5.1300    9.5135 C   0  0  0  0  0  0  0  0  0  0  0  0
    4.1231   -4.5392    8.1550 C   0  0  0  0  0  0  0  0  0  0  0  0
    3.4155   -0.8091    2.2346 C   0  0  0  0  0  0  0  0  0  0  0  0
    4.5466   -2.7704   -1.2516 C   0  0  0  0  0  0  0  0  0  0  0  0
    4.2436   -2.2471   -2.5038 C   0  0  0  0  0  0  0  0  0  0  0  0
    3.5502   -1.0466   -2.6064 C   0  0  0  0  0  0  0  0  0  0  0  0
    3.1753   -0.3967   -1.4356 C   0  0  0  0  0  0  0  0  0  0  0  0
    0.1417    3.0563   -0.6153 C   0  0  0  0  0  0  0  0  0  0  0  0
   -0.9044    2.7186   -1.4672 C   0  0  0  0  0  0  0  0  0  0  0  0
   -0.9412    3.2328   -2.7594 C   0  0  0  0  0  0  0  0  0  0  0  0
    0.0759    4.0818   -3.1825 C   0  0  0  0  0  0  0  0  0  0  0  0
    1.1221    4.4187   -2.3300 C   0  0  0  0  0  0  0  0  0  0  0  0
    1.1592    3.9056   -1.0382 C   0  0  0  0  0  0  0  0  0  0  0  0
    0.0409    4.6452   -4.5936 C   0  0  0  0  0  0  0  0  0  0  0  0
  1  2  2  0
  1  3  2  0
  1  4  1  0
  4  5  1  0
  5  6  2  0
  6  7  1  0
  7  8  2  0
  8  9  1  0
  8 10  1  0
 10 11  2  0
 11  5  1  0
  4 12  1  0
 12 13  2  0
 12 14  1  0
 14 15  2  0
 15 16  1  0
 16 17  2  0
 17 18  1  0
 18 19  1  0
 19 20  2  0
 20 21  1  0
 21 22  2  0
 22 23  1  0
 23 24  2  0
 24 19  1  0
 22 25  1  0
 25 26  1  0
 26 27  1  0
 27 28  1  0
 28 29  1  0
 29 30  1  0
 30 25  1  0
 18 31  2  0
 31 14  1  0
 16 32  1  0
 32 33  2  0
 33 34  1  0
 34 35  2  0
 35 15  1  0
  1 36  1  0
 36 37  2  0
 37 38  1  0
 38 39  2  0
 39 40  1  0
 40 41  2  0
 41 36  1  0
 39 42  1  0
M  END
$$$$
s_42a____8631722____7025788
     RDKit          3D

 38 43  0  0  0  0  0  0  0  0999 V2000
    6.3461   -1.7241    2.4726 Cl  0  0  0  0  0  0  0  0  0  0  0  0
    5.4805   -0.1686    2.4698 C   0  0  0  0  0  0  0  0  0  0  0  0
    6.1973    1.0231    2.4554 C   0  0  0  0  0  0  0  0  0  0  0  0
    5.5286    2.1834    2.4483 N   0  0  0  0  0  0  0  0  0  0  0  0
    4.2024    2.1150    2.4561 C   0  0  0  0  0  0  0  0  0  0  0  0
    3.3772    3.5979    2.4370 S   0  0  0  0  0  0  0  0  0  0  0  0
    1.8532    2.8504    2.4652 C   0  0  0  0  0  0  0  0  0  0  0  0
    2.0166    1.4939    2.5143 C   0  0  0  0  0  0  0  0  0  0  0  0
    3.3594    1.0317    2.4924 C   0  0  0  0  0  0  0  0  0  0  0  0
    4.0901   -0.1562    2.4875 C   0  0  0  0  0  0  0  0  0  0  0  0
    3.3912   -1.4265    2.5074 C   0  0  0  0  0  0  0  0  0  0  0  0
    3.0801   -2.0096    3.7309 C   0  0  0  0  0  0  0  0  0  0  0  0
    2.4107   -3.2288    3.7605 C   0  0  0  0  0  0  0  0  0  0  0  0
    2.0602   -3.8491    2.5658 C   0  0  0  0  0  0  0  0  0  0  0  0
    1.4091   -5.0316    2.5845 O   0  0  0  0  0  0  0  0  0  0  0  0
    1.0516   -5.6642    1.3645 C   0  0  0  0  0  0  0  0  0  0  0  0
    2.3718   -3.2655    1.3421 C   0  0  0  0  0  0  0  0  0  0  0  0
    3.0414   -2.0468    1.3123 C   0  0  0  0  0  0  0  0  0  0  0  0
    0.7009    0.7294    2.5845 C   0  0  0  0  0  0  0  0  0  0  0  0
   -0.4922    1.5479    2.1271 C   0  0  0  0  0  0  0  0  0  0  0  0
   -0.5052    2.8285    2.9457 C   0  0  0  0  0  0  0  0  0  0  0  0
    0.6104    3.7182    2.4284 C   0  0  0  0  0  0  0  0  0  0  0  0
   -1.7931    3.6070    2.7396 C   0  0  0  0  0  0  0  0  0  0  0  0
    7.6479    1.0153    2.4467 C   0  0  0  0  0  0  0  0  0  0  0  0
    8.4512    0.1712    3.1524 N   0  0  0  0  0  0  0  0  0  0  0  0
    9.6503    0.4668    2.8902 N   0  0  0  0  0  0  0  0  0  0  0  0
    9.7125    1.4623    2.0399 N   0  0  0  0  0  0  0  0  0  0  0  0
   10.8879    2.0340    1.5393 C   0  0  0  0  0  0  0  0  0  0  0  0
   10.8071    3.0906    0.6383 C   0  0  0  0  0  0  0  0  0  0  0  0
   11.9819    3.6503    0.1475 C   0  0  0  0  0  0  0  0  0  0  0  0
   13.2243    3.1677    0.5450 C   0  0  0  0  0  0  0  0  0  0  0  0
   13.2803    2.1102    1.4474 C   0  0  0  0  0  0  0  0  0  0  0  0
   12.1188    1.5351    1.9513 C   0  0  0  0  0  0  0  0  0  0  0  0
   11.9002    4.8051   -0.8377 C   0  0  0  0  0  0  0  0  0  0  0  0
   11.8868    5.9561   -0.1715 F   0  0  0  0  0  0  0  0  0  0  0  0
   12.9554    4.7733   -1.6466 F   0  0  0  0  0  0  0  0  0  0  0  0
   10.7868    4.6962   -1.5570 F   0  0  0  0  0  0  0  0  0  0  0  0
    8.4461    1.8461    1.7272 C   0  0  0  0  0  0  0  0  0  0  0  0
  1  2  1  0
  2  3  2  0
  3  4  1  0
  4  5  2  0
  5  6  1  0
  6  7  1  0
  7  8  2  0
  8  9  1  0
  9  5  1  0
  9 10  2  0
 10  2  1  0
 10 11  1  0
 11 12  2  0
 12 13  1  0
 13 14  2  0
 14 15  1  0
 15 16  1  0
 14 17  1  0
 17 18  2  0
 18 11  1  0
  8 19  1  0
 19 20  1  0
 20 21  1  0
 21 22  1  0
 22  7  1  0
 21 23  1  0
  3 24  1  0
 24 25  1  0
 25 26  2  0
 26 27  1  0
 27 28  1  0
 28 29  2  0
 29 30  1  0
 30 31  2  0
 31 32  1  0
 32 33  2  0
 33 28  1  0
 30 34  1  0
 34 35  1  0
 34 36  1  0
 34 37  1  0
 27 38  1  0
 24 38  2  0
M  END
$$$$
m_274860a____15212662____17209716____15233702
     RDKit          3D

 33 36  0  0  0  0  0  0  0  0999 V2000
   -6.2905    2.6280    5.8230 O   0  0  0  0  0  0  0  0  0  0  0  0
   -5.2440    2.4472    5.2431 C   0  0  0  0  0  0  0  0  0  0  0  0
   -4.8591    1.2839    4.9962 O   0  0  0  0  0  0  0  0  0  0  0  0
   -4.4364    3.5800    4.8348 C   0  0  0  0  0  0  0  0  0  0  0  0
   -3.2359    3.3600    4.1674 C   0  0  0  0  0  0  0  0  0  0  0  0
   -2.4712    4.4550    3.7793 C   0  0  0  0  0  0  0  0  0  0  0  0
   -2.8899    5.7537    4.0497 C   0  0  0  0  0  0  0  0  0  0  0  0
   -4.0939    5.9488    4.7181 C   0  0  0  0  0  0  0  0  0  0  0  0
   -4.8758    4.8694    5.1155 C   0  0  0  0  0  0  0  0  0  0  0  0
   -1.2178    4.2341    3.0831 C   0  0  0  0  0  0  0  0  0  0  0  0
   -0.8403    4.8076    1.9064 N   0  0  0  0  0  0  0  0  0  0  0  0
    0.3093    4.3746    1.6148 N   0  0  0  0  0  0  0  0  0  0  0  0
    0.7421    3.5413    2.5292 N   0  0  0  0  0  0  0  0  0  0  0  0
    1.9788    2.8838    2.5133 C   0  0  0  0  0  0  0  0  0  0  0  0
    3.1746    3.5961    2.5048 C   0  0  0  0  0  0  0  0  0  0  0  0
    4.3891    2.9166    2.4886 C   0  0  0  0  0  0  0  0  0  0  0  0
    4.4078    1.5254    2.4811 C   0  0  0  0  0  0  0  0  0  0  0  0
    3.2081    0.8214    2.4901 C   0  0  0  0  0  0  0  0  0  0  0  0
    1.9895    1.4925    2.5064 C   0  0  0  0  0  0  0  0  0  0  0  0
    3.2290   -0.6987    2.4825 C   0  0  0  0  0  0  0  0  0  0  0  0
    3.1550    5.0462    2.5117 C   0  0  0  0  0  0  0  0  0  0  0  0
    2.8012    5.6368    3.4946 O   0  0  0  0  0  0  0  0  0  0  0  0
    3.5405    5.7418    1.3962 N   0  0  0  0  0  0  0  0  0  0  0  0
    3.9621    5.0381    0.2249 O   0  0  0  0  0  0  0  0  0  0  0  0
    2.9861    5.1897   -0.7954 C   0  0  0  0  0  0  0  0  0  0  0  0
    3.5206    7.2117    1.4032 C   0  0  0  0  0  0  0  0  0  0  0  0
    4.9277    7.7364    1.6406 C   0  0  0  0  0  0  0  0  0  0  0  0
    5.7634    7.9825    0.5562 C   0  0  0  0  0  0  0  0  0  0  0  0
    7.0503    8.4618    0.7779 C   0  0  0  0  0  0  0  0  0  0  0  0
    7.4925    8.6926    2.0763 C   0  0  0  0  0  0  0  0  0  0  0  0
    6.6488    8.4435    3.1519 C   0  0  0  0  0  0  0  0  0  0  0  0
    5.3599    7.9636    2.9434 C   0  0  0  0  0  0  0  0  0  0  0  0
   -0.2092    3.4221    3.4934 C   0  0  0  0  0  0  0  0  0  0  0  0
  1  2  1  0
  2  3  2  0
  2  4  1  0
  4  5  2  0
  5  6  1  0
  6  7  2  0
  7  8  1  0
  8  9  2  0
  9  4  1  0
  6 10  1  0
 10 11  1  0
 11 12  2  0
 12 13  1  0
 13 14  1  0
 14 15  1  0
 15 16  2  0
 16 17  1  0
 17 18  2  0
 18 19  1  0
 19 14  2  0
 18 20  1  0
 15 21  1  0
 21 22  2  0
 21 23  1  0
 23 24  1  0
 24 25  1  0
 23 26  1  0
 26 27  1  0
 27 28  2  0
 28 29  1  0
 29 30  2  0
 30 31  1  0
 31 32  2  0
 32 27  1  0
 13 33  1  0
 10 33  2  0
M  CHG  1   1  -1
M  END
$$$$
s_42a____9450124____1111314
     RDKit          3D

 36 41  0  0  0  0  0  0  0  0999 V2000
    0.4648    3.7275    2.5286 S   0  0  0  0  0  0  0  0  0  0  0  0
   -0.5203    2.9301    3.2123 O   0  0  0  0  0  0  0  0  0  0  0  0
    0.6237    4.9846    3.2127 O   0  0  0  0  0  0  0  0  0  0  0  0
   -0.0241    4.0000    0.9977 N   0  0  0  0  0  0  0  0  0  0  0  0
    0.9815    4.8140    0.2998 C   0  0  0  0  0  0  0  0  0  0  0  0
    0.5246    5.0687   -1.1311 C   0  0  0  0  0  0  0  0  0  0  0  0
   -0.2037    6.0815   -1.5430 O   0  0  0  0  0  0  0  0  0  0  0  0
   -0.4207    6.0002   -2.8379 C   0  0  0  0  0  0  0  0  0  0  0  0
    0.1925    4.8738   -3.2976 C   0  0  0  0  0  0  0  0  0  0  0  0
    0.8120    4.2580   -2.1853 C   0  0  0  0  0  0  0  0  0  0  0  0
    1.9848    2.8811    2.5100 C   0  0  0  0  0  0  0  0  0  0  0  0
    3.1740    3.6024    2.5029 C   0  0  0  0  0  0  0  0  0  0  0  0
    4.3836    2.9156    2.4883 C   0  0  0  0  0  0  0  0  0  0  0  0
    4.3937    1.5243    2.4800 C   0  0  0  0  0  0  0  0  0  0  0  0
    5.6574    0.8229    2.4637 C   0  0  0  0  0  0  0  0  0  0  0  0
    5.6553   -0.5110    2.4559 N   0  0  0  0  0  0  0  0  0  0  0  0
    6.8564   -1.0851    2.4434 C   0  0  0  0  0  0  0  0  0  0  0  0
    6.9720   -2.7811    2.4199 S   0  0  0  0  0  0  0  0  0  0  0  0
    8.6720   -2.7874    2.3755 C   0  0  0  0  0  0  0  0  0  0  0  0
    9.1353   -1.5323    2.3989 C   0  0  0  0  0  0  0  0  0  0  0  0
    8.1141   -0.5129    2.4380 C   0  0  0  0  0  0  0  0  0  0  0  0
    8.0554    0.8788    2.4408 C   0  0  0  0  0  0  0  0  0  0  0  0
    9.2769    1.6607    2.4267 C   0  0  0  0  0  0  0  0  0  0  0  0
    9.4456    2.6840    3.3537 C   0  0  0  0  0  0  0  0  0  0  0  0
   10.6169    3.4348    3.3412 C   0  0  0  0  0  0  0  0  0  0  0  0
   11.6038    3.1523    2.4022 C   0  0  0  0  0  0  0  0  0  0  0  0
   12.8842    3.9720    2.3881 C   0  0  0  0  0  0  0  0  0  0  0  0
   13.8440    4.5869    2.3774 N   0  0  0  0  0  0  0  0  0  0  0  0
   11.4348    2.1285    1.4759 C   0  0  0  0  0  0  0  0  0  0  0  0
   10.2636    1.3776    1.4878 C   0  0  0  0  0  0  0  0  0  0  0  0
    6.8394    1.5570    2.4549 C   0  0  0  0  0  0  0  0  0  0  0  0
   10.6302   -1.7798    2.3660 C   0  0  0  0  0  0  0  0  0  0  0  0
   10.8155   -3.1450    2.9901 C   0  0  0  0  0  0  0  0  0  0  0  0
    9.6994   -3.8926    2.3029 C   0  0  0  0  0  0  0  0  0  0  0  0
    3.2017    0.8072    2.4872 C   0  0  0  0  0  0  0  0  0  0  0  0
    1.9898    1.4900    2.5021 C   0  0  0  0  0  0  0  0  0  0  0  0
  1  2  2  0
  1  3  2  0
  1  4  1  0
  4  5  1  0
  5  6  1  0
  6  7  1  0
  7  8  1  0
  8  9  2  0
  9 10  1  0
  6 10  2  0
  1 11  1  0
 11 12  2  0
 12 13  1  0
 13 14  2  0
 14 15  1  0
 15 16  2  0
 16 17  1  0
 17 18  1  0
 18 19  1  0
 19 20  2  0
 20 21  1  0
 21 17  2  0
 21 22  1  0
 22 23  1  0
 23 24  2  0
 24 25  1  0
 25 26  2  0
 26 27  1  0
 27 28  3  0
 26 29  1  0
 29 30  2  0
 30 23  1  0
 22 31  2  0
 31 15  1  0
 20 32  1  0
 32 33  1  0
 33 34  1  0
 34 19  1  0
 14 35  1  0
 35 36  2  0
 36 11  1  0
M  END
$$$$
m_276010b____17282026____17249466____17280892
     RDKit          3D

 45 50  0  0  0  0  0  0  0  0999 V2000
    3.9108   -2.3125    3.8475 S   0  0  0  0  0  0  0  0  0  0  0  0
    4.8833   -2.9288    2.9826 O   0  0  0  0  0  0  0  0  0  0  0  0
    4.0937   -2.7910    5.1933 O   0  0  0  0  0  0  0  0  0  0  0  0
    4.1033   -0.6942    3.8153 N   0  0  0  0  0  0  0  0  0  0  0  0
    3.9166   -0.2057    2.4415 C   0  0  0  0  0  0  0  0  0  0  0  0
    3.3635    1.2089    2.4777 C   0  0  0  0  0  0  0  0  0  0  0  0
    4.0983    2.3562    2.5000 N   0  0  0  0  0  0  0  0  0  0  0  0
    3.2914    3.3277    2.5307 N   0  0  0  0  0  0  0  0  0  0  0  0
    2.0497    2.9093    2.5300 N   0  0  0  0  0  0  0  0  0  0  0  0
    2.0481    1.5507    2.4963 C   0  0  0  0  0  0  0  0  0  0  0  0
    0.8562    3.7669    2.5625 C   0  0  0  0  0  0  0  0  0  0  0  0
    1.0908    5.1046    1.8959 C   0  0  0  0  0  0  0  0  0  0  0  0
    0.4384    6.0549    2.6423 C   0  0  0  0  0  0  0  0  0  0  0  0
   -0.1828    5.4122    3.7191 N   0  0  0  0  0  0  0  0  0  0  0  0
   -1.2690    5.9274    4.4400 C   0  0  0  0  0  0  0  0  0  0  0  0
   -1.4497    5.5883    5.5768 O   0  0  0  0  0  0  0  0  0  0  0  0
   -2.1727    6.8684    3.8131 C   0  0  0  0  0  0  0  0  0  0  0  0
   -3.0985    6.4185    2.8837 C   0  0  0  0  0  0  0  0  0  0  0  0
   -3.9757    7.3039    2.2685 C   0  0  0  0  0  0  0  0  0  0  0  0
   -3.8991    8.6609    2.6107 C   0  0  0  0  0  0  0  0  0  0  0  0
   -2.9672    9.1016    3.5436 C   0  0  0  0  0  0  0  0  0  0  0  0
   -2.0953    8.2109    4.1551 C   0  0  0  0  0  0  0  0  0  0  0  0
   -4.8316    9.7000    1.9955 C   0  0  0  0  0  0  0  0  0  0  0  0
   -5.4956    9.1860    0.7278 C   0  0  0  0  0  0  0  0  0  0  0  0
   -6.0655    7.7875    0.9324 C   0  0  0  0  0  0  0  0  0  0  0  0
   -4.9791    6.7690    1.2480 C   0  0  0  0  0  0  0  0  0  0  0  0
   -5.5697    5.4220    1.6404 C   0  0  0  0  0  0  0  0  0  0  0  0
   -4.2212    6.5785   -0.0565 C   0  0  0  0  0  0  0  0  0  0  0  0
   -4.1586   11.0401    1.7440 C   0  0  0  0  0  0  0  0  0  0  0  0
   -5.9605    9.9416    2.9843 C   0  0  0  0  0  0  0  0  0  0  0  0
    0.4401    4.1108    3.9753 C   0  0  0  0  0  0  0  0  0  0  0  0
   -0.5290    3.0819    4.5331 C   0  0  0  0  0  0  0  0  0  0  0  0
    1.6230    4.2587    4.9195 C   0  0  0  0  0  0  0  0  0  0  0  0
    0.5077    7.3850    2.2354 C   0  0  0  0  0  0  0  0  0  0  0  0
    1.2144    7.7484    1.0940 C   0  0  0  0  0  0  0  0  0  0  0  0
    1.8674    6.7778    0.3424 C   0  0  0  0  0  0  0  0  0  0  0  0
    1.8020    5.4501    0.7504 C   0  0  0  0  0  0  0  0  0  0  0  0
    5.4563   -0.3524    4.2773 C   0  0  0  0  0  0  0  0  0  0  0  0
    2.3095   -2.7170    3.3007 C   0  0  0  0  0  0  0  0  0  0  0  0
    2.0778   -2.9486    1.9492 C   0  0  0  0  0  0  0  0  0  0  0  0
    0.7982   -3.2722    1.5095 C   0  0  0  0  0  0  0  0  0  0  0  0
   -0.2368   -3.3591    2.4344 C   0  0  0  0  0  0  0  0  0  0  0  0
   -0.0043   -3.1268    3.7860 C   0  0  0  0  0  0  0  0  0  0  0  0
    1.2746   -2.8040    4.2262 C   0  0  0  0  0  0  0  0  0  0  0  0
   -1.6367   -3.7111    1.9591 C   0  0  0  0  0  0  0  0  0  0  0  0
  1  2  2  0
  1  3  2  0
  1  4  1  0
  4  5  1  0
  5  6  1  0
  6  7  1  0
  7  8  2  0
  8  9  1  0
  9 10  1  0
  6 10  2  0
  9 11  1  0
 11 12  1  0
 12 13  2  0
 13 14  1  0
 14 15  1  0
 15 16  2  0
 15 17  1  0
 17 18  2  0
 18 19  1  0
 19 20  2  0
 20 21  1  0
 21 22  2  0
 22 17  1  0
 20 23  1  0
 23 24  1  0
 24 25  1  0
 25 26  1  0
 26 19  1  0
 26 27  1  0
 26 28  1  0
 23 29  1  0
 23 30  1  0
 14 31  1  0
 31 11  1  0
 31 32  1  0
 31 33  1  0
 13 34  1  0
 34 35  2  0
 35 36  1  0
 36 37  2  0
 37 12  1  0
  4 38  1  0
  1 39  1  0
 39 40  2  0
 40 41  1  0
 41 42  2  0
 42 43  1  0
 43 44  2  0
 44 39  1  0
 42 45  1  0
M  END
$$$$
s_7a____8400____6198
     RDKit          3D

 41 47  0  0  0  0  0  0  0  0999 V2000
   -0.7038    2.9076    5.6343 S   0  0  0  0  0  0  0  0  0  0  0  0
    0.2463    2.9986    4.2340 C   0  0  0  0  0  0  0  0  0  0  0  0
    0.2377    2.0169    3.2815 N   0  0  0  0  0  0  0  0  0  0  0  0
    1.0000    2.2306    2.2306 C   0  0  0  0  0  0  0  0  0  0  0  0
    1.0000    1.0000    1.0000 S   0  0  0  0  0  0  0  0  0  0  0  0
   -0.2739   -0.0871    1.6866 C   0  0  0  0  0  0  0  0  0  0  0  0
   -1.6369    0.3311    1.1563 C   0  0  0  0  0  0  0  0  0  0  0  0
   -2.1414   -0.1698   -0.0415 C   0  0  0  0  0  0  0  0  0  0  0  0
   -1.4968   -1.0880   -0.8008 O   0  0  0  0  0  0  0  0  0  0  0  0
   -2.2832   -2.1092   -1.4214 C   0  0  0  0  0  0  0  0  0  0  0  0
   -3.6245   -1.7246   -1.7256 O   0  0  0  0  0  0  0  0  0  0  0  0
   -3.8441   -0.3233   -1.8093 C   0  0  0  0  0  0  0  0  0  0  0  0
   -3.3736    0.2629   -0.4929 C   0  0  0  0  0  0  0  0  0  0  0  0
   -4.1195    1.1734    0.2514 C   0  0  0  0  0  0  0  0  0  0  0  0
   -3.6424    1.6450    1.4709 C   0  0  0  0  0  0  0  0  0  0  0  0
   -4.3608    2.4673    2.2302 F   0  0  0  0  0  0  0  0  0  0  0  0
   -2.3926    1.2233    1.9101 C   0  0  0  0  0  0  0  0  0  0  0  0
   -1.5600   -2.7888   -2.5712 C   0  0  0  0  0  0  0  0  0  0  0  0
   -0.1694   -2.8143   -2.5917 C   0  0  0  0  0  0  0  0  0  0  0  0
    0.4890   -3.4371   -3.6471 C   0  0  0  0  0  0  0  0  0  0  0  0
   -0.2429   -4.0294   -4.6709 C   0  0  0  0  0  0  0  0  0  0  0  0
   -1.6316   -3.9982   -4.6397 C   0  0  0  0  0  0  0  0  0  0  0  0
   -2.3017   -3.3780   -3.5903 C   0  0  0  0  0  0  0  0  0  0  0  0
    1.7596    3.3659    2.1048 N   0  0  0  0  0  0  0  0  0  0  0  0
    2.5469    3.5190    0.9570 C   0  0  0  0  0  0  0  0  0  0  0  0
    2.0321    4.1946   -0.1442 C   0  0  0  0  0  0  0  0  0  0  0  0
    0.7993    4.6913   -0.1028 F   0  0  0  0  0  0  0  0  0  0  0  0
    2.8000    4.3564   -1.2928 C   0  0  0  0  0  0  0  0  0  0  0  0
    4.0880    3.8326   -1.3222 C   0  0  0  0  0  0  0  0  0  0  0  0
    4.6064    3.1555   -0.2236 C   0  0  0  0  0  0  0  0  0  0  0  0
    3.8357    2.9967    0.9226 C   0  0  0  0  0  0  0  0  0  0  0  0
    1.7469    4.3271    3.0832 C   0  0  0  0  0  0  0  0  0  0  0  0
    2.4351    5.3251    2.9364 O   0  0  0  0  0  0  0  0  0  0  0  0
    0.9473    4.1689    4.2490 C   0  0  0  0  0  0  0  0  0  0  0  0
    0.6949    4.9391    5.4314 C   0  0  0  0  0  0  0  0  0  0  0  0
   -0.2090    4.3896    6.3173 C   0  0  0  0  0  0  0  0  0  0  0  0
   -0.8000    4.8688    7.6317 C   0  0  0  0  0  0  0  0  0  0  0  0
    0.1401    5.9487    8.1323 C   0  0  0  0  0  0  0  0  0  0  0  0
    0.4358    6.9403    7.0135 C   0  0  0  0  0  0  0  0  0  0  0  0
    1.2624    6.2617    5.9287 C   0  0  0  0  0  0  0  0  0  0  0  0
   -0.5863    6.6387    9.2744 C   0  0  0  0  0  0  0  0  0  0  0  0
  1  2  1  0
  2  3  1  0
  3  4  2  0
  4  5  1  0
  5  6  1  0
  6  7  1  0
  7  8  1  0
  8  9  1  0
  9 10  1  0
 10 11  1  0
 11 12  1  0
 12 13  1  0
 13  8  2  0
 13 14  1  0
 14 15  2  0
 15 16  1  0
 15 17  1  0
 17  7  2  0
 10 18  1  0
 18 19  2  0
 19 20  1  0
 20 21  2  0
 21 22  1  0
 22 23  2  0
 23 18  1  0
  4 24  1  0
 24 25  1  0
 25 26  2  0
 26 27  1  0
 26 28  1  0
 28 29  2  0
 29 30  1  0
 30 31  2  0
 31 25  1  0
 24 32  1  0
 32 33  2  0
 32 34  1  0
  2 34  2  0
 34 35  1  0
 35 36  2  0
 36  1  1  0
 36 37  1  0
 37 38  1  0
 38 39  1  0
 39 40  1  0
 40 35  1  0
 38 41  1  0
M  END
$$$$
s_27a____9048100____61062
     RDKit          3D

 39 44  0  0  0  0  0  0  0  0999 V2000
    7.6680    9.7367    2.6786 Br  0  0  0  0  0  0  0  0  0  0  0  0
    6.6708    8.0834    2.3417 C   0  0  0  0  0  0  0  0  0  0  0  0
    5.2838    8.1234    2.2393 C   0  0  0  0  0  0  0  0  0  0  0  0
    4.5795    6.9479    2.0012 C   0  0  0  0  0  0  0  0  0  0  0  0
    5.2695    5.7472    1.8682 C   0  0  0  0  0  0  0  0  0  0  0  0
    6.6557    5.7122    1.9712 C   0  0  0  0  0  0  0  0  0  0  0  0
    7.3655    6.8849    2.2098 C   0  0  0  0  0  0  0  0  0  0  0  0
    4.5317    4.5240    1.6206 C   0  0  0  0  0  0  0  0  0  0  0  0
    5.1662    3.3964    1.4946 C   0  0  0  0  0  0  0  0  0  0  0  0
    4.4284    2.1732    1.2470 C   0  0  0  0  0  0  0  0  0  0  0  0
    5.1260    1.0551    1.0283 N   0  0  0  0  0  0  0  0  0  0  0  0
    4.4124   -0.0492    0.8070 C   0  0  0  0  0  0  0  0  0  0  0  0
    5.2733   -1.4872    0.5475 S   0  0  0  0  0  0  0  0  0  0  0  0
    3.8599   -2.4128    0.3964 C   0  0  0  0  0  0  0  0  0  0  0  0
    2.7646   -1.5997    0.5165 C   0  0  0  0  0  0  0  0  0  0  0  0
    3.0452   -0.2115    0.7621 C   0  0  0  0  0  0  0  0  0  0  0  0
    2.4003    1.0000    1.0000 C   0  0  0  0  0  0  0  0  0  0  0  0
    3.0870    2.1332    1.2320 N   0  0  0  0  0  0  0  0  0  0  0  0
    1.0000    1.0000    1.0000 N   0  0  0  0  0  0  0  0  0  0  0  0
    0.2999    2.2123    1.0235 C   0  0  0  0  0  0  0  0  0  0  0  0
   -0.8456    2.3269    1.8039 C   0  0  0  0  0  0  0  0  0  0  0  0
   -1.5329    3.5359    1.8189 C   0  0  0  0  0  0  0  0  0  0  0  0
   -2.6458    3.6575    2.5735 O   0  0  0  0  0  0  0  0  0  0  0  0
   -3.3553    2.4981    2.9842 C   0  0  0  0  0  0  0  0  0  0  0  0
   -4.5592    2.9090    3.8164 C   0  0  0  0  0  0  0  0  0  0  0  0
   -5.7727    3.1495    3.1803 C   0  0  0  0  0  0  0  0  0  0  0  0
   -6.8722    3.5255    3.9446 C   0  0  0  0  0  0  0  0  0  0  0  0
   -8.4330    3.8368    3.1478 Cl  0  0  0  0  0  0  0  0  0  0  0  0
   -6.7719    3.6623    5.3255 C   0  0  0  0  0  0  0  0  0  0  0  0
   -5.5494    3.4167    5.9422 C   0  0  0  0  0  0  0  0  0  0  0  0
   -4.4378    3.0394    5.1960 C   0  0  0  0  0  0  0  0  0  0  0  0
   -1.0804    4.6140    1.0651 C   0  0  0  0  0  0  0  0  0  0  0  0
    0.0666    4.4841    0.2899 C   0  0  0  0  0  0  0  0  0  0  0  0
    0.7650    3.2812    0.2635 C   0  0  0  0  0  0  0  0  0  0  0  0
   -1.8362    5.9322    1.0885 C   0  0  0  0  0  0  0  0  0  0  0  0
    1.5074   -2.4482    0.4001 C   0  0  0  0  0  0  0  0  0  0  0  0
    1.6275   -3.6007    1.3857 C   0  0  0  0  0  0  0  0  0  0  0  0
    2.8997   -4.4264    1.2239 C   0  0  0  0  0  0  0  0  0  0  0  0
    3.8817   -3.9164    0.1745 C   0  0  0  0  0  0  0  0  0  0  0  0
  1  2  1  0
  2  3  2  0
  3  4  1  0
  4  5  2  0
  5  6  1  0
  6  7  2  0
  7  2  1  0
  5  8  1  0
  8  9  2  0
  9 10  1  0
 10 11  2  0
 11 12  1  0
 12 13  1  0
 13 14  1  0
 14 15  2  0
 15 16  1  0
 16 12  2  0
 16 17  1  0
 17 18  2  0
 18 10  1  0
 17 19  1  0
 19 20  1  0
 20 21  2  0
 21 22  1  0
 22 23  1  0
 23 24  1  0
 24 25  1  0
 25 26  2  0
 26 27  1  0
 27 28  1  0
 27 29  2  0
 29 30  1  0
 30 31  2  0
 31 25  1  0
 22 32  2  0
 32 33  1  0
 33 34  2  0
 34 20  1  0
 32 35  1  0
 15 36  1  0
 36 37  1  0
 37 38  1  0
 38 39  1  0
 39 14  1  0
M  END
$$$$
m_570____197328____196352____197262
     RDKit          3D

 39 44  0  0  0  0  0  0  0  0999 V2000
    2.1307    2.6077    0.8969 O   0  0  0  0  0  0  0  0  0  0  0  0
    2.4036    2.7010    2.0833 C   0  0  0  0  0  0  0  0  0  0  0  0
    1.8401    1.8386    3.0901 C   0  0  0  0  0  0  0  0  0  0  0  0
    2.8325    0.9211    3.5754 C   0  0  0  0  0  0  0  0  0  0  0  0
    2.6013   -0.2265    3.9237 O   0  0  0  0  0  0  0  0  0  0  0  0
    4.2207    1.5359    3.6042 C   0  0  0  0  0  0  0  0  0  0  0  0
    4.0281    3.0279    3.8318 C   0  0  0  0  0  0  0  0  0  0  0  0
    5.3596    3.7051    4.1068 C   0  0  0  0  0  0  0  0  0  0  0  0
    5.4907    5.0656    3.8482 C   0  0  0  0  0  0  0  0  0  0  0  0
    6.7101    5.6838    4.1014 C   0  0  0  0  0  0  0  0  0  0  0  0
    6.8594    7.0026    3.8567 O   0  0  0  0  0  0  0  0  0  0  0  0
    5.7721    7.7566    3.3414 C   0  0  0  0  0  0  0  0  0  0  0  0
    7.7819    4.9535    4.6047 C   0  0  0  0  0  0  0  0  0  0  0  0
    7.6388    3.5928    4.8582 C   0  0  0  0  0  0  0  0  0  0  0  0
    6.4235    2.9631    4.6100 C   0  0  0  0  0  0  0  0  0  0  0  0
    3.3934    3.7063    2.6318 C   0  0  0  0  0  0  0  0  0  0  0  0
    0.5955    1.8987    3.5255 C   0  0  0  0  0  0  0  0  0  0  0  0
    0.1016    3.0737    4.0280 N   0  0  0  0  0  0  0  0  0  0  0  0
   -1.2178    3.1374    4.4896 C   0  0  0  0  0  0  0  0  0  0  0  0
   -1.8347    4.2329    5.0107 N   0  0  0  0  0  0  0  0  0  0  0  0
   -3.0669    3.9222    5.3354 N   0  0  0  0  0  0  0  0  0  0  0  0
   -3.2869    2.6627    5.0484 C   0  0  0  0  0  0  0  0  0  0  0  0
   -4.5280    1.9542    5.2615 C   0  0  0  0  0  0  0  0  0  0  0  0
   -5.5898    2.6566    5.8186 C   0  0  0  0  0  0  0  0  0  0  0  0
   -6.7869    1.9833    6.0308 C   0  0  0  0  0  0  0  0  0  0  0  0
   -6.8914    0.6386    5.6983 C   0  0  0  0  0  0  0  0  0  0  0  0
   -5.8328   -0.0630    5.1336 C   0  0  0  0  0  0  0  0  0  0  0  0
   -4.6354    0.6114    4.9158 C   0  0  0  0  0  0  0  0  0  0  0  0
   -8.1755   -0.1345    5.9521 C   0  0  0  0  0  0  0  0  0  0  0  0
   -9.3637    0.7988    6.1177 C   0  0  0  0  0  0  0  0  0  0  0  0
   -9.0018    1.8112    7.1917 C   0  0  0  0  0  0  0  0  0  0  0  0
   -7.9600    2.7540    6.6116 C   0  0  0  0  0  0  0  0  0  0  0  0
   -2.1109    2.1135    4.4950 C   0  0  0  0  0  0  0  0  0  0  0  0
   -1.2486    5.4936    5.1766 C   0  0  0  0  0  0  0  0  0  0  0  0
   -0.5809    6.0884    4.1108 C   0  0  0  0  0  0  0  0  0  0  0  0
   -0.0001    7.3410    4.2794 C   0  0  0  0  0  0  0  0  0  0  0  0
   -0.0891    7.9892    5.5066 C   0  0  0  0  0  0  0  0  0  0  0  0
   -0.7596    7.3854    6.5651 C   0  0  0  0  0  0  0  0  0  0  0  0
   -1.3442    6.1330    6.4083 C   0  0  0  0  0  0  0  0  0  0  0  0
  1  2  2  0
  2  3  1  0
  3  4  1  0
  4  5  2  0
  4  6  1  0
  6  7  1  0
  7  8  1  0
  8  9  2  0
  9 10  1  0
 10 11  1  0
 11 12  1  0
 10 13  2  0
 13 14  1  0
 14 15  2  0
 15  8  1  0
  7 16  1  0
 16  2  1  0
  3 17  2  3
 17 18  1  0
 18 19  1  0
 19 20  1  0
 20 21  1  0
 21 22  2  0
 22 23  1  0
 23 24  2  0
 24 25  1  0
 25 26  2  0
 26 27  1  0
 27 28  2  0
 28 23  1  0
 26 29  1  0
 29 30  1  0
 30 31  1  0
 31 32  1  0
 32 25  1  0
 22 33  1  0
 19 33  2  0
 20 34  1  0
 34 35  2  0
 35 36  1  0
 36 37  2  0
 37 38  1  0
 38 39  2  0
 39 34  1  0
M  END
$$$$
m_270942____9828420____10153090____9836002
     RDKit          3D

 44 49  0  0  0  0  0  0  0  0999 V2000
   -2.7688    1.0304   -4.4746 S   0  0  0  0  0  0  0  0  0  0  0  0
   -2.4674    2.2572   -3.3399 C   0  0  0  0  0  0  0  0  0  0  0  0
   -1.2434    2.3569   -2.5673 C   0  0  0  0  0  0  0  0  0  0  0  0
   -0.4780    3.4200   -2.4654 N   0  0  0  0  0  0  0  0  0  0  0  0
    0.5322    3.1164   -1.6811 N   0  0  0  0  0  0  0  0  0  0  0  0
    0.4528    1.8778   -1.2619 C   0  0  0  0  0  0  0  0  0  0  0  0
   -0.6785    1.3726   -1.8185 N   0  0  0  0  0  0  0  0  0  0  0  0
   -1.1960    0.0074   -1.6421 C   0  0  0  0  0  0  0  0  0  0  0  0
   -0.2864   -0.9759   -2.3605 C   0  0  0  0  0  0  0  0  0  0  0  0
   -0.8866   -2.3706   -2.2836 C   0  0  0  0  0  0  0  0  0  0  0  0
   -1.7562   -2.8024   -3.2797 C   0  0  0  0  0  0  0  0  0  0  0  0
   -2.3038   -4.0790   -3.2050 C   0  0  0  0  0  0  0  0  0  0  0  0
   -1.9796   -4.9137   -2.1406 C   0  0  0  0  0  0  0  0  0  0  0  0
   -1.1094   -4.4719   -1.1517 C   0  0  0  0  0  0  0  0  0  0  0  0
   -0.5557   -3.1974   -1.2146 C   0  0  0  0  0  0  0  0  0  0  0  0
    1.3485    1.2146   -0.4119 N   0  0  0  0  0  0  0  0  0  0  0  0
    1.0000    1.0000    1.0000 C   0  0  0  0  0  0  0  0  0  0  0  0
    1.8777    1.8777    1.8777 C   0  0  0  0  0  0  0  0  0  0  0  0
    1.3636    3.0479    2.4259 C   0  0  0  0  0  0  0  0  0  0  0  0
    0.0867    3.4149    2.1862 O   0  0  0  0  0  0  0  0  0  0  0  0
   -0.9320    3.0935    3.1217 C   0  0  0  0  0  0  0  0  0  0  0  0
   -2.2676    3.6161    2.6164 C   0  0  0  0  0  0  0  0  0  0  0  0
   -3.4170    3.4155    3.3745 C   0  0  0  0  0  0  0  0  0  0  0  0
   -3.3439    2.7709    4.5360 F   0  0  0  0  0  0  0  0  0  0  0  0
   -4.6456    3.8873    2.9260 C   0  0  0  0  0  0  0  0  0  0  0  0
   -4.7076    4.5609    1.7107 C   0  0  0  0  0  0  0  0  0  0  0  0
   -3.5608    4.7635    0.9493 C   0  0  0  0  0  0  0  0  0  0  0  0
   -2.3334    4.2896    1.4010 C   0  0  0  0  0  0  0  0  0  0  0  0
    2.1771    3.8429    3.2271 C   0  0  0  0  0  0  0  0  0  0  0  0
    1.6773    4.9791    3.7581 O   0  0  0  0  0  0  0  0  0  0  0  0
    2.4499    5.7305    4.6827 C   0  0  0  0  0  0  0  0  0  0  0  0
    3.4943    3.4761    3.4820 C   0  0  0  0  0  0  0  0  0  0  0  0
    4.0030    2.3041    2.9313 C   0  0  0  0  0  0  0  0  0  0  0  0
    3.1944    1.5051    2.1291 C   0  0  0  0  0  0  0  0  0  0  0  0
    2.6365    0.7337   -0.9323 C   0  0  0  0  0  0  0  0  0  0  0  0
   -3.5674    3.0745   -3.3281 C   0  0  0  0  0  0  0  0  0  0  0  0
   -4.5761    2.6558   -4.2495 C   0  0  0  0  0  0  0  0  0  0  0  0
   -4.3161    1.5215   -4.9710 C   0  0  0  0  0  0  0  0  0  0  0  0
   -5.1192    0.7362   -5.9959 C   0  0  0  0  0  0  0  0  0  0  0  0
   -6.1088   -0.2320   -5.3425 C   0  0  0  0  0  0  0  0  0  0  0  0
   -7.3572    0.3783   -4.7044 C   0  0  0  0  0  0  0  0  0  0  0  0
   -7.1823    1.2586   -3.4672 C   0  0  0  0  0  0  0  0  0  0  0  0
   -7.0224    2.7721   -3.6266 C   0  0  0  0  0  0  0  0  0  0  0  0
   -5.9282    3.2820   -4.5637 C   0  0  0  0  0  0  0  0  0  0  0  0
  1  2  1  0
  2  3  1  0
  3  4  2  0
  4  5  1  0
  5  6  2  0
  6  7  1  0
  7  3  1  0
  7  8  1  0
  8  9  1  0
  9 10  1  0
 10 11  2  0
 11 12  1  0
 12 13  2  0
 13 14  1  0
 14 15  2  0
 15 10  1  0
  6 16  1  0
 16 17  1  0
 17 18  1  0
 18 19  1  0
 19 20  1  0
 20 21  1  0
 21 22  1  0
 22 23  2  0
 23 24  1  0
 23 25  1  0
 25 26  2  0
 26 27  1  0
 27 28  2  0
 28 22  1  0
 19 29  2  0
 29 30  1  0
 30 31  1  0
 29 32  1  0
 32 33  2  0
 33 34  1  0
 34 18  2  0
 16 35  1  0
  2 36  2  0
 36 37  1  0
 37 38  2  0
 38  1  1  0
 38 39  1  0
 39 40  1  0
 40 41  1  0
 41 42  1  0
 42 43  1  0
 43 44  1  0
 44 37  1  0
M  END
$$$$
m_274310____15938268____15942894____15870814
     RDKit          3D

 39 44  0  0  0  0  0  0  0  0999 V2000
    2.2706   -3.2384    0.9079 O   0  0  0  0  0  0  0  0  0  0  0  0
    1.4339   -2.6454    1.5696 C   0  0  0  0  0  0  0  0  0  0  0  0
    0.3304   -3.2828    2.0779 N   0  0  0  0  0  0  0  0  0  0  0  0
   -0.5970   -2.5957    2.8192 C   0  0  0  0  0  0  0  0  0  0  0  0
   -1.5843   -3.1456    3.2801 O   0  0  0  0  0  0  0  0  0  0  0  0
   -0.4120   -1.2084    3.0625 C   0  0  0  0  0  0  0  0  0  0  0  0
    0.6972   -0.5913    2.5449 C   0  0  0  0  0  0  0  0  0  0  0  0
    1.6059   -1.3067    1.8085 N   0  0  0  0  0  0  0  0  0  0  0  0
    0.8820    0.7759    2.7831 N   0  0  0  0  0  0  0  0  0  0  0  0
    2.0339    1.4760    2.1941 C   0  0  0  0  0  0  0  0  0  0  0  0
    1.9182    2.9834    2.3682 C   0  0  0  0  0  0  0  0  0  0  0  0
    3.0461    3.7538    2.6503 C   0  0  0  0  0  0  0  0  0  0  0  0
    2.9038    5.1252    2.7842 C   0  0  0  0  0  0  0  0  0  0  0  0
    1.6562    5.7288    2.6624 C   0  0  0  0  0  0  0  0  0  0  0  0
    0.5414    4.9408    2.3980 C   0  0  0  0  0  0  0  0  0  0  0  0
    0.6610    3.5645    2.2472 C   0  0  0  0  0  0  0  0  0  0  0  0
    4.4365    3.1772    2.8477 C   0  0  0  0  0  0  0  0  0  0  0  0
    4.4107    1.8191    2.2888 N   0  0  0  0  0  0  0  0  0  0  0  0
    5.2797    1.3342    1.2960 C   0  0  0  0  0  0  0  0  0  0  0  0
    4.9065    0.4853    0.5344 O   0  0  0  0  0  0  0  0  0  0  0  0
    6.6264    1.8595    1.1923 C   0  0  0  0  0  0  0  0  0  0  0  0
    6.9294    2.7424    0.1627 C   0  0  0  0  0  0  0  0  0  0  0  0
    8.2101    3.2719    0.0854 C   0  0  0  0  0  0  0  0  0  0  0  0
    9.1662    2.9198    1.0126 C   0  0  0  0  0  0  0  0  0  0  0  0
    8.8692    2.0142    2.0291 C   0  0  0  0  0  0  0  0  0  0  0  0
    7.5865    1.4839    2.1264 C   0  0  0  0  0  0  0  0  0  0  0  0
   10.4302    3.6780    0.6641 C   0  0  0  0  0  0  0  0  0  0  0  0
   10.3174    3.9289   -0.8260 C   0  0  0  0  0  0  0  0  0  0  0  0
    8.8413    4.2665   -0.8648 C   0  0  0  0  0  0  0  0  0  0  0  0
   11.1814    5.0992   -1.2689 C   0  0  0  0  0  0  0  0  0  0  0  0
   10.6664    2.6967   -1.6574 C   0  0  0  0  0  0  0  0  0  0  0  0
    3.3159    1.0505    2.8873 C   0  0  0  0  0  0  0  0  0  0  0  0
    0.1320   -4.7194    1.8312 C   0  0  0  0  0  0  0  0  0  0  0  0
   -0.6092   -4.9104    0.5176 C   0  0  0  0  0  0  0  0  0  0  0  0
    0.1092   -5.0415   -0.6662 C   0  0  0  0  0  0  0  0  0  0  0  0
   -0.5730   -5.2153   -1.8660 C   0  0  0  0  0  0  0  0  0  0  0  0
   -1.9633   -5.2582   -1.8757 C   0  0  0  0  0  0  0  0  0  0  0  0
   -2.6704   -5.1267   -0.6870 C   0  0  0  0  0  0  0  0  0  0  0  0
   -1.9999   -4.9518    0.5192 C   0  0  0  0  0  0  0  0  0  0  0  0
  1  2  2  0
  2  3  1  0
  3  4  1  0
  4  5  2  0
  4  6  1  0
  6  7  2  0
  7  8  1  0
  8  2  1  0
  7  9  1  0
  9 10  1  0
 10 11  1  0
 11 12  1  0
 12 13  2  0
 13 14  1  0
 14 15  2  0
 15 16  1  0
 16 11  2  0
 12 17  1  0
 17 18  1  0
 18 19  1  0
 19 20  2  0
 19 21  1  0
 21 22  2  0
 22 23  1  0
 23 24  2  0
 24 25  1  0
 25 26  2  0
 26 21  1  0
 24 27  1  0
 27 28  1  0
 28 29  1  0
 29 23  1  0
 28 30  1  0
 28 31  1  0
 18 32  1  0
 32 10  1  0
  3 33  1  0
 33 34  1  0
 34 35  2  0
 35 36  1  0
 36 37  2  0
 37 38  1  0
 38 39  2  0
 39 34  1  0
M  END
$$$$
s_1____86402____13977510____7793930
     RDKit          3D

 45 50  0  0  0  0  0  0  0  0999 V2000
    0.4035    3.0187    3.7645 S   0  0  0  0  0  0  0  0  0  0  0  0
   -1.2341    2.9461    3.3144 C   0  0  0  0  0  0  0  0  0  0  0  0
   -1.7515    2.4779    2.0527 C   0  0  0  0  0  0  0  0  0  0  0  0
   -0.9744    2.0825    0.9935 N   0  0  0  0  0  0  0  0  0  0  0  0
    0.3750    2.0825    0.9935 N   0  0  0  0  0  0  0  0  0  0  0  0
    1.0000    1.0000    1.0000 C   0  0  0  0  0  0  0  0  0  0  0  0
    2.4502    1.0000    1.0000 C   0  0  0  0  0  0  0  0  0  0  0  0
    3.1611   -0.1960    1.0072 C   0  0  0  0  0  0  0  0  0  0  0  0
    2.5106   -1.3566    1.0138 F   0  0  0  0  0  0  0  0  0  0  0  0
    4.5527   -0.1784    1.0068 C   0  0  0  0  0  0  0  0  0  0  0  0
    5.2330    1.0350    0.9990 C   0  0  0  0  0  0  0  0  0  0  0  0
    4.5126    2.2251    0.9919 C   0  0  0  0  0  0  0  0  0  0  0  0
    3.1216    2.2181    0.9922 C   0  0  0  0  0  0  0  0  0  0  0  0
    5.2548    3.5516    0.9833 C   0  0  0  0  0  0  0  0  0  0  0  0
    6.0703    3.6452    2.1420 O   0  0  0  0  0  0  0  0  0  0  0  0
    6.7638    4.8843    2.1340 C   0  0  0  0  0  0  0  0  0  0  0  0
    7.6369    4.9845    3.3746 C   0  0  0  0  0  0  0  0  0  0  0  0
    8.9457    4.5150    3.3358 C   0  0  0  0  0  0  0  0  0  0  0  0
    9.7409    4.6079    4.4734 C   0  0  0  0  0  0  0  0  0  0  0  0
    9.2263    5.1681    5.6379 C   0  0  0  0  0  0  0  0  0  0  0  0
    7.9177    5.6342    5.6648 C   0  0  0  0  0  0  0  0  0  0  0  0
    7.1122    5.5465    4.5341 C   0  0  0  0  0  0  0  0  0  0  0  0
    6.1273    3.6359   -0.2585 C   0  0  0  0  0  0  0  0  0  0  0  0
    4.2517    4.6935    0.9762 C   0  0  0  0  0  0  0  0  0  0  0  0
   -1.6769    1.6776   -0.0987 C   0  0  0  0  0  0  0  0  0  0  0  0
   -3.3197    1.8315    0.3263 S   0  0  0  0  0  0  0  0  0  0  0  0
   -3.1027    2.4259    1.9062 C   0  0  0  0  0  0  0  0  0  0  0  0
   -1.2108    1.2716   -1.2070 N   0  0  0  0  0  0  0  0  0  0  0  0
   -0.9550    2.1861   -2.2358 C   0  0  0  0  0  0  0  0  0  0  0  0
   -1.8997    2.3733   -3.2391 C   0  0  0  0  0  0  0  0  0  0  0  0
   -3.0381    1.6864   -3.2171 F   0  0  0  0  0  0  0  0  0  0  0  0
   -1.6627    3.2778   -4.2691 C   0  0  0  0  0  0  0  0  0  0  0  0
   -0.4683    3.9902   -4.2795 C   0  0  0  0  0  0  0  0  0  0  0  0
    0.4795    3.8054   -3.2786 C   0  0  0  0  0  0  0  0  0  0  0  0
    0.2382    2.9008   -2.2507 C   0  0  0  0  0  0  0  0  0  0  0  0
   -1.9441    3.4188    4.3734 C   0  0  0  0  0  0  0  0  0  0  0  0
   -1.1579    3.8462    5.4765 C   0  0  0  0  0  0  0  0  0  0  0  0
    0.1825    3.6668    5.3257 C   0  0  0  0  0  0  0  0  0  0  0  0
    1.2670    3.9816    6.3445 C   0  0  0  0  0  0  0  0  0  0  0  0
    0.8508    5.1304    7.2517 C   0  0  0  0  0  0  0  0  0  0  0  0
   -0.5962    5.4143    7.2332 N   0  0  0  0  0  0  0  0  0  0  0  0
   -1.0196    6.6748    7.6692 C   0  0  0  0  0  0  0  0  0  0  0  0
   -2.1878    6.9492    7.6672 O   0  0  0  0  0  0  0  0  0  0  0  0
    0.0003    7.6963    8.1453 C   0  0  0  0  0  0  0  0  0  0  0  0
   -1.6264    4.4679    6.7845 C   0  0  0  0  0  0  0  0  0  0  0  0
  1  2  1  0
  2  3  1  0
  3  4  1  0
  4  5  1  0
  5  6  2  0
  6  7  1  0
  7  8  2  0
  8  9  1  0
  8 10  1  0
 10 11  2  0
 11 12  1  0
 12 13  2  0
 13  7  1  0
 12 14  1  0
 14 15  1  0
 15 16  1  0
 16 17  1  0
 17 18  2  0
 18 19  1  0
 19 20  2  0
 20 21  1  0
 21 22  2  0
 22 17  1  0
 14 23  1  0
 14 24  1  0
  4 25  1  0
 25 26  1  0
 26 27  1  0
  3 27  2  0
 25 28  2  0
 28 29  1  0
 29 30  2  0
 30 31  1  0
 30 32  1  0
 32 33  2  0
 33 34  1  0
 34 35  2  0
 35 29  1  0
  2 36  2  0
 36 37  1  0
 37 38  2  0
 38  1  1  0
 38 39  1  0
 39 40  1  0
 40 41  1  0
 41 42  1  0
 42 43  2  0
 42 44  1  0
 41 45  1  0
 45 37  1  0
M  END
$$$$
s_270196____8770548____8772290
     RDKit          3D

 35 38  0  0  0  0  0  0  0  0999 V2000
   -2.8683    6.3429    2.5805 Cl  0  0  0  0  0  0  0  0  0  0  0  0
   -1.4095    5.3240    2.5624 C   0  0  0  0  0  0  0  0  0  0  0  0
   -1.5312    3.9377    2.5672 C   0  0  0  0  0  0  0  0  0  0  0  0
   -3.1027    3.1909    2.5912 S   0  0  0  0  0  0  0  0  0  0  0  0
   -3.8108    3.6006    3.7762 O   0  0  0  0  0  0  0  0  0  0  0  0
   -3.8442    3.5954    1.4250 O   0  0  0  0  0  0  0  0  0  0  0  0
   -2.9338    1.5697    2.5924 N   0  0  0  0  0  0  0  0  0  0  0  0
   -3.0537    0.8542    3.7901 C   0  0  0  0  0  0  0  0  0  0  0  0
   -4.3010    0.3798    4.1818 C   0  0  0  0  0  0  0  0  0  0  0  0
   -4.4281   -0.3316    5.3700 C   0  0  0  0  0  0  0  0  0  0  0  0
   -3.3014   -0.5602    6.1529 C   0  0  0  0  0  0  0  0  0  0  0  0
   -3.4557   -1.4704    7.6744 Cl  0  0  0  0  0  0  0  0  0  0  0  0
   -2.0513   -0.0889    5.7664 C   0  0  0  0  0  0  0  0  0  0  0  0
   -1.9313    0.6220    4.5771 C   0  0  0  0  0  0  0  0  0  0  0  0
   -2.6556    0.8587    1.3362 C   0  0  0  0  0  0  0  0  0  0  0  0
   -0.3949    3.1345    2.5522 C   0  0  0  0  0  0  0  0  0  0  0  0
    0.8611    3.7331    2.5327 C   0  0  0  0  0  0  0  0  0  0  0  0
    0.9922    5.1183    2.5277 C   0  0  0  0  0  0  0  0  0  0  0  0
   -0.1495    5.9140    2.5424 C   0  0  0  0  0  0  0  0  0  0  0  0
    2.0463    2.8968    2.5180 C   0  0  0  0  0  0  0  0  0  0  0  0
    3.2848    3.3259    2.4991 O   0  0  0  0  0  0  0  0  0  0  0  0
    4.0764    2.3360    2.4914 N   0  0  0  0  0  0  0  0  0  0  0  0
    3.3683    1.2311    2.5037 C   0  0  0  0  0  0  0  0  0  0  0  0
    2.0573    1.5880    2.5200 N   0  0  0  0  0  0  0  0  0  0  0  0
    3.8899   -0.1215    2.4978 C   0  0  0  0  0  0  0  0  0  0  0  0
    2.9989   -1.1895    2.5128 C   0  0  0  0  0  0  0  0  0  0  0  0
    3.5039   -2.4849    2.5073 C   0  0  0  0  0  0  0  0  0  0  0  0
    2.6548   -3.5353    2.5203 O   0  0  0  0  0  0  0  0  0  0  0  0
    1.2522   -3.3142    2.5394 C   0  0  0  0  0  0  0  0  0  0  0  0
    0.5288   -4.6509    2.5509 C   0  0  0  0  0  0  0  0  0  0  0  0
    1.1570   -5.6733    2.5434 O   0  0  0  0  0  0  0  0  0  0  0  0
   -0.8406   -4.6886    2.5699 N   0  0  0  0  0  0  0  0  0  0  0  0
    4.8755   -2.7153    2.4886 C   0  0  0  0  0  0  0  0  0  0  0  0
    5.7565   -1.6387    2.4741 C   0  0  0  0  0  0  0  0  0  0  0  0
    5.2642   -0.3383    2.4787 C   0  0  0  0  0  0  0  0  0  0  0  0
  1  2  1  0
  2  3  2  0
  3  4  1  0
  4  5  2  0
  4  6  2  0
  4  7  1  0
  7  8  1  0
  8  9  2  0
  9 10  1  0
 10 11  2  0
 11 12  1  0
 11 13  1  0
 13 14  2  0
 14  8  1  0
  7 15  1  0
  3 16  1  0
 16 17  2  0
 17 18  1  0
 18 19  2  0
 19  2  1  0
 17 20  1  0
 20 21  1  0
 21 22  1  0
 22 23  2  0
 23 24  1  0
 20 24  2  0
 23 25  1  0
 25 26  2  0
 26 27  1  0
 27 28  1  0
 28 29  1  0
 29 30  1  0
 30 31  2  0
 30 32  1  0
 27 33  2  0
 33 34  1  0
 34 35  2  0
 35 25  1  0
M  END
$$$$
s_42a____8631722____125041
     RDKit          3D

 36 42  0  0  0  0  0  0  0  0999 V2000
    5.1882    0.6507    5.3504 Br  0  0  0  0  0  0  0  0  0  0  0  0
    6.1680    0.3576    3.6779 C   0  0  0  0  0  0  0  0  0  0  0  0
    7.3836   -0.3234    3.6947 C   0  0  0  0  0  0  0  0  0  0  0  0
    8.0453   -0.5204    2.5485 N   0  0  0  0  0  0  0  0  0  0  0  0
    7.4996   -0.0468    1.4375 C   0  0  0  0  0  0  0  0  0  0  0  0
    8.3463   -0.3079   -0.0098 S   0  0  0  0  0  0  0  0  0  0  0  0
    7.1752    0.4381   -0.9862 C   0  0  0  0  0  0  0  0  0  0  0  0
    6.1858    0.8677   -0.1658 C   0  0  0  0  0  0  0  0  0  0  0  0
    6.3202    0.6307    1.2459 C   0  0  0  0  0  0  0  0  0  0  0  0
    5.6615    0.8206    2.4636 C   0  0  0  0  0  0  0  0  0  0  0  0
    4.3934    1.5238    2.4792 C   0  0  0  0  0  0  0  0  0  0  0  0
    4.3898    2.9144    2.4850 C   0  0  0  0  0  0  0  0  0  0  0  0
    3.1783    3.5981    2.5011 C   0  0  0  0  0  0  0  0  0  0  0  0
    1.9856    2.8824    2.5103 C   0  0  0  0  0  0  0  0  0  0  0  0
    0.8052    3.5371    2.5243 O   0  0  0  0  0  0  0  0  0  0  0  0
    0.7807    4.9569    2.5297 C   0  0  0  0  0  0  0  0  0  0  0  0
    1.9898    1.4913    2.5046 C   0  0  0  0  0  0  0  0  0  0  0  0
    3.2009    0.8075    2.4890 C   0  0  0  0  0  0  0  0  0  0  0  0
    5.0745    1.5452   -0.9602 C   0  0  0  0  0  0  0  0  0  0  0  0
    4.7042    0.6653   -2.1550 C   0  0  0  0  0  0  0  0  0  0  0  0
    5.8715    0.0215   -2.8967 C   0  0  0  0  0  0  0  0  0  0  0  0
    7.2273    0.5589   -2.4944 C   0  0  0  0  0  0  0  0  0  0  0  0
    5.7062    0.2706   -4.3848 C   0  0  0  0  0  0  0  0  0  0  0  0
    7.9203   -0.8125    4.9502 C   0  0  0  0  0  0  0  0  0  0  0  0
    8.2045    0.0785    5.9795 C   0  0  0  0  0  0  0  0  0  0  0  0
    8.7188   -0.4165    7.1731 C   0  0  0  0  0  0  0  0  0  0  0  0
    8.9531   -1.7616    7.3650 C   0  0  0  0  0  0  0  0  0  0  0  0
    9.4801   -2.0083    8.6876 C   0  0  0  0  0  0  0  0  0  0  0  0
    9.6018   -0.8311    9.3943 C   0  0  0  0  0  0  0  0  0  0  0  0
   10.0998   -0.8546   10.6926 C   0  0  0  0  0  0  0  0  0  0  0  0
   10.4725   -2.0624   11.2724 C   0  0  0  0  0  0  0  0  0  0  0  0
   10.3477   -3.2468   10.5542 C   0  0  0  0  0  0  0  0  0  0  0  0
    9.8507   -3.2233    9.2557 C   0  0  0  0  0  0  0  0  0  0  0  0
    9.1223    0.2710    8.4656 C   0  0  0  0  0  0  0  0  0  0  0  0
    8.6609   -2.6355    6.3214 C   0  0  0  0  0  0  0  0  0  0  0  0
    8.1464   -2.1751    5.1132 C   0  0  0  0  0  0  0  0  0  0  0  0
  1  2  1  0
  2  3  2  0
  3  4  1  0
  4  5  2  0
  5  6  1  0
  6  7  1  0
  7  8  2  0
  8  9  1  0
  9  5  1  0
  9 10  2  0
 10  2  1  0
 10 11  1  0
 11 12  2  0
 12 13  1  0
 13 14  2  0
 14 15  1  0
 15 16  1  0
 14 17  1  0
 17 18  2  0
 18 11  1  0
  8 19  1  0
 19 20  1  0
 20 21  1  0
 21 22  1  0
 22  7  1  0
 21 23  1  0
  3 24  1  0
 24 25  2  0
 25 26  1  0
 26 27  2  0
 27 28  1  0
 28 29  2  0
 29 30  1  0
 30 31  2  0
 31 32  1  0
 32 33  2  0
 33 28  1  0
 29 34  1  0
 34 26  1  0
 27 35  1  0
 35 36  2  0
 36 24  1  0
M  END
$$$$
s_27a____2767532____61062
     RDKit          3D

 40 45  0  0  0  0  0  0  0  0999 V2000
    7.5607    9.9227    1.1575 Br  0  0  0  0  0  0  0  0  0  0  0  0
    6.5863    8.2224    1.1269 C   0  0  0  0  0  0  0  0  0  0  0  0
    5.1950    8.2249    1.1300 C   0  0  0  0  0  0  0  0  0  0  0  0
    4.5069    7.0162    1.1095 C   0  0  0  0  0  0  0  0  0  0  0  0
    5.2174    5.8203    1.0858 C   0  0  0  0  0  0  0  0  0  0  0  0
    6.6078    5.8229    1.0826 C   0  0  0  0  0  0  0  0  0  0  0  0
    7.3014    7.0289    1.1037 C   0  0  0  0  0  0  0  0  0  0  0  0
    4.4965    4.5626    1.0647 C   0  0  0  0  0  0  0  0  0  0  0  0
    5.1501    3.4391    1.0425 C   0  0  0  0  0  0  0  0  0  0  0  0
    4.4282    2.1795    1.0215 C   0  0  0  0  0  0  0  0  0  0  0  0
    5.1084    1.0229    0.9985 N   0  0  0  0  0  0  0  0  0  0  0  0
    4.3937   -0.0990    0.9780 C   0  0  0  0  0  0  0  0  0  0  0  0
    5.2309   -1.5801    0.9589 S   0  0  0  0  0  0  0  0  0  0  0  0
    3.7913   -2.4911    0.9495 C   0  0  0  0  0  0  0  0  0  0  0  0
    2.7213   -1.6423    0.9721 C   0  0  0  0  0  0  0  0  0  0  0  0
    3.0272   -0.2407    0.9759 C   0  0  0  0  0  0  0  0  0  0  0  0
    2.3975    1.0000    1.0000 C   0  0  0  0  0  0  0  0  0  0  0  0
    3.0859    2.1548    1.0215 N   0  0  0  0  0  0  0  0  0  0  0  0
    1.0000    1.0000    1.0000 N   0  0  0  0  0  0  0  0  0  0  0  0
    0.2650    2.2728    1.0247 C   0  0  0  0  0  0  0  0  0  0  0  0
    0.0117    2.7394   -0.3996 C   0  0  0  0  0  0  0  0  0  0  0  0
   -1.2456    2.5761   -0.9717 C   0  0  0  0  0  0  0  0  0  0  0  0
   -2.2921    1.9837   -0.2543 N   0  0  0  0  0  0  0  0  0  0  0  0
   -3.6380    2.8401    0.0805 S   0  0  0  0  0  0  0  0  0  0  0  0
   -4.3963    2.1633    1.1005 O   0  0  0  0  0  0  0  0  0  0  0  0
   -3.2687    4.1513    0.5476 O   0  0  0  0  0  0  0  0  0  0  0  0
   -4.6043    2.9880   -1.3586 C   0  0  0  0  0  0  0  0  0  0  0  0
   -5.3355    1.8968   -1.8165 C   0  0  0  0  0  0  0  0  0  0  0  0
   -6.1043    2.0288   -2.9686 C   0  0  0  0  0  0  0  0  0  0  0  0
   -6.1410    3.2375   -3.6559 C   0  0  0  0  0  0  0  0  0  0  0  0
   -5.4054    4.3222   -3.1900 C   0  0  0  0  0  0  0  0  0  0  0  0
   -4.6336    4.2014   -2.0391 C   0  0  0  0  0  0  0  0  0  0  0  0
   -1.4773    3.0029   -2.2748 C   0  0  0  0  0  0  0  0  0  0  0  0
   -0.4519    3.5933   -3.0058 C   0  0  0  0  0  0  0  0  0  0  0  0
    0.8051    3.7564   -2.4339 C   0  0  0  0  0  0  0  0  0  0  0  0
    1.0370    3.3288   -1.1310 C   0  0  0  0  0  0  0  0  0  0  0  0
    1.3954   -2.3884    1.0323 C   0  0  0  0  0  0  0  0  0  0  0  0
    1.4508   -3.8431    0.5883 C   0  0  0  0  0  0  0  0  0  0  0  0
    2.5647   -4.5535    1.3438 C   0  0  0  0  0  0  0  0  0  0  0  0
    3.9091   -4.0063    0.8948 C   0  0  0  0  0  0  0  0  0  0  0  0
  1  2  1  0
  2  3  2  0
  3  4  1  0
  4  5  2  0
  5  6  1  0
  6  7  2  0
  7  2  1  0
  5  8  1  0
  8  9  2  0
  9 10  1  0
 10 11  2  0
 11 12  1  0
 12 13  1  0
 13 14  1  0
 14 15  2  0
 15 16  1  0
 16 12  2  0
 16 17  1  0
 17 18  2  0
 18 10  1  0
 17 19  1  0
 19 20  1  0
 20 21  1  0
 21 22  1  0
 22 23  1  0
 23 24  1  0
 24 25  2  0
 24 26  2  0
 24 27  1  0
 27 28  2  0
 28 29  1  0
 29 30  2  0
 30 31  1  0
 31 32  2  0
 32 27  1  0
 22 33  2  0
 33 34  1  0
 34 35  2  0
 35 36  1  0
 36 21  2  0
 15 37  1  0
 37 38  1  0
 38 39  1  0
 39 40  1  0
 40 14  1  0
M  END
$$$$
s_270196____8771108____8772290
     RDKit          3D

 38 42  0  0  0  0  0  0  0  0999 V2000
    0.4214    3.7482    2.5312 Cl  0  0  0  0  0  0  0  0  0  0  0  0
    1.9732    2.8775    2.5107 C   0  0  0  0  0  0  0  0  0  0  0  0
    3.1686    3.5899    2.5009 C   0  0  0  0  0  0  0  0  0  0  0  0
    3.1578    5.3300    2.5082 S   0  0  0  0  0  0  0  0  0  0  0  0
    2.4635    5.8106    1.3418 O   0  0  0  0  0  0  0  0  0  0  0  0
    2.4886    5.8008    3.6932 O   0  0  0  0  0  0  0  0  0  0  0  0
    4.6911    5.8829    2.4942 N   0  0  0  0  0  0  0  0  0  0  0  0
    5.2655    6.3234    1.2956 C   0  0  0  0  0  0  0  0  0  0  0  0
    5.1449    7.6597    0.9295 C   0  0  0  0  0  0  0  0  0  0  0  0
    5.7126    8.1047   -0.2595 C   0  0  0  0  0  0  0  0  0  0  0  0
    6.3966    7.2037   -1.0688 C   0  0  0  0  0  0  0  0  0  0  0  0
    7.1266    7.7656   -2.5915 Cl  0  0  0  0  0  0  0  0  0  0  0  0
    6.5211    5.8663   -0.7080 C   0  0  0  0  0  0  0  0  0  0  0  0
    5.9508    5.4279    0.4822 C   0  0  0  0  0  0  0  0  0  0  0  0
    5.4709    5.9191    3.7398 C   0  0  0  0  0  0  0  0  0  0  0  0
    4.3860    2.9159    2.4858 C   0  0  0  0  0  0  0  0  0  0  0  0
    4.3932    1.5244    2.4803 C   0  0  0  0  0  0  0  0  0  0  0  0
    3.2028    0.8039    2.4901 C   0  0  0  0  0  0  0  0  0  0  0  0
    1.9898    1.4862    2.5055 C   0  0  0  0  0  0  0  0  0  0  0  0
    5.6613    0.8208    2.4636 C   0  0  0  0  0  0  0  0  0  0  0  0
    5.8135   -0.4813    2.4569 O   0  0  0  0  0  0  0  0  0  0  0  0
    7.0490   -0.7636    2.4413 N   0  0  0  0  0  0  0  0  0  0  0  0
    7.7361    0.3546    2.4388 C   0  0  0  0  0  0  0  0  0  0  0  0
    6.8447    1.3800    2.4541 N   0  0  0  0  0  0  0  0  0  0  0  0
    9.1816    0.4730    2.4254 C   0  0  0  0  0  0  0  0  0  0  0  0
    9.9628   -0.6781    2.4127 C   0  0  0  0  0  0  0  0  0  0  0  0
   11.3488   -0.5574    2.4006 C   0  0  0  0  0  0  0  0  0  0  0  0
   11.9461    0.6992    2.4009 C   0  0  0  0  0  0  0  0  0  0  0  0
   13.3478    0.8116    2.3871 N   0  0  0  0  0  0  0  0  0  0  0  0
   14.1026    0.8796    1.1275 C   0  0  0  0  0  0  0  0  0  0  0  0
   15.4743    0.2634    1.3566 C   0  0  0  0  0  0  0  0  0  0  0  0
   16.2767    1.1144    2.3285 C   0  0  0  0  0  0  0  0  0  0  0  0
   15.3777    1.7202    3.3988 C   0  0  0  0  0  0  0  0  0  0  0  0
   14.1376    0.8693    3.6272 C   0  0  0  0  0  0  0  0  0  0  0  0
   16.2557    0.1618    0.0575 C   0  0  0  0  0  0  0  0  0  0  0  0
   11.1563    1.8448    2.4128 C   0  0  0  0  0  0  0  0  0  0  0  0
    9.7696    1.7339    2.4254 C   0  0  0  0  0  0  0  0  0  0  0  0
   12.1896   -1.8239    2.3863 C   0  0  0  0  0  0  0  0  0  0  0  0
  1  2  1  0
  2  3  2  0
  3  4  1  0
  4  5  2  0
  4  6  2  0
  4  7  1  0
  7  8  1  0
  8  9  2  0
  9 10  1  0
 10 11  2  0
 11 12  1  0
 11 13  1  0
 13 14  2  0
 14  8  1  0
  7 15  1  0
  3 16  1  0
 16 17  2  0
 17 18  1  0
 18 19  2  0
 19  2  1  0
 17 20  1  0
 20 21  1  0
 21 22  1  0
 22 23  2  0
 23 24  1  0
 20 24  2  0
 23 25  1  0
 25 26  2  0
 26 27  1  0
 27 28  2  0
 28 29  1  0
 29 30  1  0
 30 31  1  0
 31 32  1  0
 32 33  1  0
 33 34  1  0
 34 29  1  0
 31 35  1  0
 28 36  1  0
 36 37  2  0
 37 25  1  0
 27 38  1  0
M  END
$$$$
s_42a____8631722____125326
     RDKit          3D

 33 37  0  0  0  0  0  0  0  0999 V2000
    3.3001    1.8776    5.4620 S   0  0  0  0  0  0  0  0  0  0  0  0
    2.9223    2.2681    3.8574 C   0  0  0  0  0  0  0  0  0  0  0  0
    2.1686    1.4601    3.1133 N   0  0  0  0  0  0  0  0  0  0  0  0
    1.8757    1.8757    1.8757 C   0  0  0  0  0  0  0  0  0  0  0  0
    2.3661    3.0935    1.4126 C   0  0  0  0  0  0  0  0  0  0  0  0
    3.1610    3.8700    2.2499 C   0  0  0  0  0  0  0  0  0  0  0  0
    3.5025    3.4954    3.5437 C   0  0  0  0  0  0  0  0  0  0  0  0
    4.2744    4.0264    4.6092 C   0  0  0  0  0  0  0  0  0  0  0  0
    4.2313    3.2700    5.7454 C   0  0  0  0  0  0  0  0  0  0  0  0
    4.7933    3.4279    7.1365 C   0  0  0  0  0  0  0  0  0  0  0  0
    5.9072    4.4458    7.0108 C   0  0  0  0  0  0  0  0  0  0  0  0
    5.4054    5.6595    6.2403 C   0  0  0  0  0  0  0  0  0  0  0  0
    5.1593    5.2510    4.7963 C   0  0  0  0  0  0  0  0  0  0  0  0
    6.3203    4.8651    8.4132 C   0  0  0  0  0  0  0  0  0  0  0  0
    3.6524    5.1303    1.7277 C   0  0  0  0  0  0  0  0  0  0  0  0
    4.6170    5.1187    0.7261 C   0  0  0  0  0  0  0  0  0  0  0  0
    5.0957    6.3227    0.2194 C   0  0  0  0  0  0  0  0  0  0  0  0
    4.6030    7.5232    0.7204 C   0  0  0  0  0  0  0  0  0  0  0  0
    5.0603    8.6965    0.2339 O   0  0  0  0  0  0  0  0  0  0  0  0
    4.5619    9.9217    0.7503 C   0  0  0  0  0  0  0  0  0  0  0  0
    3.6382    7.5342    1.7224 C   0  0  0  0  0  0  0  0  0  0  0  0
    3.1598    6.3306    2.2295 C   0  0  0  0  0  0  0  0  0  0  0  0
    1.0000    1.0000    1.0000 C   0  0  0  0  0  0  0  0  0  0  0  0
    1.6418   -0.6924    1.0056 S   0  0  0  0  0  0  0  0  0  0  0  0
    0.1322   -1.5557    1.0712 C   0  0  0  0  0  0  0  0  0  0  0  0
    0.0723   -2.8782    1.5012 C   0  0  0  0  0  0  0  0  0  0  0  0
   -1.1498   -3.5414    1.5425 C   0  0  0  0  0  0  0  0  0  0  0  0
   -2.3124   -2.8832    1.1533 C   0  0  0  0  0  0  0  0  0  0  0  0
   -2.2529   -1.5615    0.7238 C   0  0  0  0  0  0  0  0  0  0  0  0
   -1.0305   -0.8975    0.6823 C   0  0  0  0  0  0  0  0  0  0  0  0
    1.2640   -3.5943    1.9134 C   0  0  0  0  0  0  0  0  0  0  0  0
    1.9223   -3.1883    2.8439 O   0  0  0  0  0  0  0  0  0  0  0  0
    1.6113   -4.6310    1.3073 O   0  0  0  0  0  0  0  0  0  0  0  0
  1  2  1  0
  2  3  2  0
  3  4  1  0
  4  5  2  0
  5  6  1  0
  6  7  2  0
  7  2  1  0
  7  8  1  0
  8  9  2  0
  9  1  1  0
  9 10  1  0
 10 11  1  0
 11 12  1  0
 12 13  1  0
 13  8  1  0
 11 14  1  0
  6 15  1  0
 15 16  2  0
 16 17  1  0
 17 18  2  0
 18 19  1  0
 19 20  1  0
 18 21  1  0
 21 22  2  0
 22 15  1  0
  4 23  1  0
 23 24  1  0
 24 25  1  0
 25 26  2  0
 26 27  1  0
 27 28  2  0
 28 29  1  0
 29 30  2  0
 30 25  1  0
 26 31  1  0
 31 32  1  0
 31 33  2  0
M  CHG  1  32  -1
M  END
$$$$
s_272212____15097580____9425368
     RDKit          3D

 32 35  0  0  0  0  0  0  0  0999 V2000
    4.3232    5.6049    3.8903 F   0  0  0  0  0  0  0  0  0  0  0  0
    4.3577    4.3544    4.3420 C   0  0  0  0  0  0  0  0  0  0  0  0
    3.9083    4.3225    5.5933 F   0  0  0  0  0  0  0  0  0  0  0  0
    5.6092    3.9054    4.3088 F   0  0  0  0  0  0  0  0  0  0  0  0
    3.4804    3.4749    3.4660 C   0  0  0  0  0  0  0  0  0  0  0  0
    4.0287    2.8439    2.3540 C   0  0  0  0  0  0  0  0  0  0  0  0
    3.2214    2.0410    1.5554 C   0  0  0  0  0  0  0  0  0  0  0  0
    1.8778    1.8778    1.8778 C   0  0  0  0  0  0  0  0  0  0  0  0
    1.3307    2.5074    2.9916 C   0  0  0  0  0  0  0  0  0  0  0  0
    2.1378    3.3115    3.7896 C   0  0  0  0  0  0  0  0  0  0  0  0
    1.0000    1.0000    1.0000 C   0  0  0  0  0  0  0  0  0  0  0  0
    1.0378   -0.3820    1.4962 N   0  0  0  0  0  0  0  0  0  0  0  0
    0.0622   -0.9860    2.2866 C   0  0  0  0  0  0  0  0  0  0  0  0
   -0.9655   -0.4467    2.6721 O   0  0  0  0  0  0  0  0  0  0  0  0
    0.4382   -2.2967    2.5739 N   0  0  0  0  0  0  0  0  0  0  0  0
   -0.3080   -3.1896    3.3469 C   0  0  0  0  0  0  0  0  0  0  0  0
   -0.1041   -3.2478    4.7188 C   0  0  0  0  0  0  0  0  0  0  0  0
   -0.8331   -4.1288    5.5086 C   0  0  0  0  0  0  0  0  0  0  0  0
   -1.7756   -4.9521    4.8895 C   0  0  0  0  0  0  0  0  0  0  0  0
   -1.9702   -4.8863    3.5166 C   0  0  0  0  0  0  0  0  0  0  0  0
   -1.2419   -4.0079    2.7242 C   0  0  0  0  0  0  0  0  0  0  0  0
   -2.6316   -5.9373    5.6766 C   0  0  0  0  0  0  0  0  0  0  0  0
   -2.0580   -6.2150    7.0600 C   0  0  0  0  0  0  0  0  0  0  0  0
   -1.6644   -4.9222    7.7610 C   0  0  0  0  0  0  0  0  0  0  0  0
   -0.5693   -4.1738    7.0134 C   0  0  0  0  0  0  0  0  0  0  0  0
   -0.3134   -2.7959    7.6071 C   0  0  0  0  0  0  0  0  0  0  0  0
    0.7025   -4.9736    7.2358 C   0  0  0  0  0  0  0  0  0  0  0  0
   -2.8790   -7.2445    4.9383 C   0  0  0  0  0  0  0  0  0  0  0  0
   -3.9920   -5.2903    5.9185 C   0  0  0  0  0  0  0  0  0  0  0  0
    1.6681   -2.5925    1.9859 C   0  0  0  0  0  0  0  0  0  0  0  0
    2.2776   -3.6470    2.0608 O   0  0  0  0  0  0  0  0  0  0  0  0
    2.0970   -1.3545    1.2191 C   0  0  0  0  0  0  0  0  0  0  0  0
  1  2  1  0
  2  3  1  0
  2  4  1  0
  2  5  1  0
  5  6  2  0
  6  7  1  0
  7  8  2  0
  8  9  1  0
  9 10  2  0
 10  5  1  0
  8 11  1  0
 11 12  1  0
 12 13  1  0
 13 14  2  0
 13 15  1  0
 15 16  1  0
 16 17  2  0
 17 18  1  0
 18 19  2  0
 19 20  1  0
 20 21  2  0
 21 16  1  0
 19 22  1  0
 22 23  1  0
 23 24  1  0
 24 25  1  0
 25 18  1  0
 25 26  1  0
 25 27  1  0
 22 28  1  0
 22 29  1  0
 15 30  1  0
 30 31  2  0
 30 32  1  0
 32 12  1  0
M  END
$$$$
s_2____11687950____2536572____9284808
     RDKit          3D

 47 53  0  0  0  0  0  0  0  0999 V2000
    8.8448    6.5340    0.5944 S   0  0  0  0  0  0  0  0  0  0  0  0
    8.2788    7.7738    1.0595 O   0  0  0  0  0  0  0  0  0  0  0  0
   10.1800    6.3910    1.1143 O   0  0  0  0  0  0  0  0  0  0  0  0
    8.8934    6.5363   -1.0349 N   0  0  0  0  0  0  0  0  0  0  0  0
    7.8635    5.2066    1.1434 C   0  0  0  0  0  0  0  0  0  0  0  0
    8.4222    4.2290    1.9599 C   0  0  0  0  0  0  0  0  0  0  0  0
    7.6328    3.1699    2.3950 C   0  0  0  0  0  0  0  0  0  0  0  0
    6.2978    3.0995    2.0115 C   0  0  0  0  0  0  0  0  0  0  0  0
    5.5094    2.0301    2.4537 N   0  0  0  0  0  0  0  0  0  0  0  0
    4.2406    2.1295    2.4468 C   0  0  0  0  0  0  0  0  0  0  0  0
    3.3299    3.5681    2.4036 S   0  0  0  0  0  0  0  0  0  0  0  0
    1.7813    2.8529    2.4247 C   0  0  0  0  0  0  0  0  0  0  0  0
    2.0334    1.5154    2.4653 C   0  0  0  0  0  0  0  0  0  0  0  0
    3.3388    1.1121    2.4746 N   0  0  0  0  0  0  0  0  0  0  0  0
    3.7804   -0.2891    2.5193 C   0  0  0  0  0  0  0  0  0  0  0  0
    4.0572   -0.7784    1.1070 C   0  0  0  0  0  0  0  0  0  0  0  0
    5.3320   -0.6331    0.5699 C   0  0  0  0  0  0  0  0  0  0  0  0
    5.5901   -1.0800   -0.7217 C   0  0  0  0  0  0  0  0  0  0  0  0
    4.5682   -1.6680   -1.4605 C   0  0  0  0  0  0  0  0  0  0  0  0
    4.8143   -2.1028   -2.7145 O   0  0  0  0  0  0  0  0  0  0  0  0
    6.1112   -1.9593   -3.2740 C   0  0  0  0  0  0  0  0  0  0  0  0
    6.6748   -3.3239   -3.6356 C   0  0  0  0  0  0  0  0  0  0  0  0
    8.0640   -3.1725   -4.2341 C   0  0  0  0  0  0  0  0  0  0  0  0
    8.0062   -2.2892   -5.4700 C   0  0  0  0  0  0  0  0  0  0  0  0
    7.4440   -0.9238   -5.1085 C   0  0  0  0  0  0  0  0  0  0  0  0
    6.0550   -1.0756   -4.5095 C   0  0  0  0  0  0  0  0  0  0  0  0
    3.2915   -1.8154   -0.9282 C   0  0  0  0  0  0  0  0  0  0  0  0
    3.0391   -1.3671    0.3639 C   0  0  0  0  0  0  0  0  0  0  0  0
    0.9019    0.6087    2.4961 C   0  0  0  0  0  0  0  0  0  0  0  0
   -0.2204    0.8695    1.7160 C   0  0  0  0  0  0  0  0  0  0  0  0
   -0.2882    1.9984    0.8907 N   0  0  0  0  0  0  0  0  0  0  0  0
    0.2973    2.1223   -0.3659 C   0  0  0  0  0  0  0  0  0  0  0  0
    0.9553    1.2611   -0.9256 O   0  0  0  0  0  0  0  0  0  0  0  0
   -0.0047    3.4349   -0.8844 C   0  0  0  0  0  0  0  0  0  0  0  0
   -0.7532    4.0714    0.0706 C   0  0  0  0  0  0  0  0  0  0  0  0
   -1.1481    5.3734   -0.2200 C   0  0  0  0  0  0  0  0  0  0  0  0
   -0.7964    5.9841   -1.4183 C   0  0  0  0  0  0  0  0  0  0  0  0
   -0.0342    5.3052   -2.3635 C   0  0  0  0  0  0  0  0  0  0  0  0
    0.3761    4.0037   -2.0937 C   0  0  0  0  0  0  0  0  0  0  0  0
   -0.9558    3.1821    1.1897 C   0  0  0  0  0  0  0  0  0  0  0  0
   -1.5916    3.4339    2.2008 O   0  0  0  0  0  0  0  0  0  0  0  0
   -1.3051    0.0000    1.7455 C   0  0  0  0  0  0  0  0  0  0  0  0
   -1.2684   -1.1310    2.5550 C   0  0  0  0  0  0  0  0  0  0  0  0
   -0.1465   -1.3919    3.3350 C   0  0  0  0  0  0  0  0  0  0  0  0
    0.9383   -0.5217    3.3062 C   0  0  0  0  0  0  0  0  0  0  0  0
    5.7455    4.0799    1.1948 C   0  0  0  0  0  0  0  0  0  0  0  0
    6.5293    5.1415    0.7559 C   0  0  0  0  0  0  0  0  0  0  0  0
  1  2  2  0
  1  3  2  0
  1  4  1  0
  1  5  1  0
  5  6  2  0
  6  7  1  0
  7  8  2  0
  8  9  1  0
  9 10  2  0
 10 11  1  0
 11 12  1  0
 12 13  2  0
 13 14  1  0
 14 10  1  0
 14 15  1  0
 15 16  1  0
 16 17  2  0
 17 18  1  0
 18 19  2  0
 19 20  1  0
 20 21  1  0
 21 22  1  0
 22 23  1  0
 23 24  1  0
 24 25  1  0
 25 26  1  0
 26 21  1  0
 19 27  1  0
 27 28  2  0
 28 16  1  0
 13 29  1  0
 29 30  1  0
 30 31  1  0
 31 32  1  0
 32 33  2  0
 32 34  1  0
 34 35  2  0
 35 36  1  0
 36 37  2  0
 37 38  1  0
 38 39  2  0
 39 34  1  0
 35 40  1  0
 40 31  1  0
 40 41  2  0
 30 42  2  0
 42 43  1  0
 43 44  2  0
 44 45  1  0
 45 29  2  0
  8 46  1  0
 46 47  2  0
 47  5  1  0
M  END
$$$$
m_273170____10756418____14470030____10755794
     RDKit          3D

 42 48  0  0  0  0  0  0  0  0999 V2000
    7.9359   -0.2930    1.6241 O   0  0  0  0  0  0  0  0  0  0  0  0
    6.9041   -0.8476    1.9652 N   0  0  0  0  0  0  0  0  0  0  0  0
    6.8648   -1.4660    3.0045 O   0  0  0  0  0  0  0  0  0  0  0  0
    5.7653   -0.7684    1.1540 C   0  0  0  0  0  0  0  0  0  0  0  0
    4.5148   -1.0390    1.6995 C   0  0  0  0  0  0  0  0  0  0  0  0
    3.3907   -0.9566    0.8842 C   0  0  0  0  0  0  0  0  0  0  0  0
    3.5055   -0.6106   -0.4578 C   0  0  0  0  0  0  0  0  0  0  0  0
    4.7660   -0.3441   -0.9821 C   0  0  0  0  0  0  0  0  0  0  0  0
    5.9035   -0.4199   -0.1853 C   0  0  0  0  0  0  0  0  0  0  0  0
    2.0847   -1.2361    1.4486 C   0  0  0  0  0  0  0  0  0  0  0  0
    1.7073   -2.3668    2.0015 N   0  0  0  0  0  0  0  0  0  0  0  0
    0.4593   -2.2294    2.3904 N   0  0  0  0  0  0  0  0  0  0  0  0
    0.0025   -1.0344    2.1079 C   0  0  0  0  0  0  0  0  0  0  0  0
    1.0288   -0.3814    1.5036 N   0  0  0  0  0  0  0  0  0  0  0  0
    1.0000    1.0000    1.0000 C   0  0  0  0  0  0  0  0  0  0  0  0
    1.8777    1.8777    1.8777 C   0  0  0  0  0  0  0  0  0  0  0  0
    1.7290    1.8483    3.2600 C   0  0  0  0  0  0  0  0  0  0  0  0
    2.5437    2.6610    4.0418 C   0  0  0  0  0  0  0  0  0  0  0  0
    2.3918    2.6254    5.3828 O   0  0  0  0  0  0  0  0  0  0  0  0
    3.4401    3.0757    6.2283 C   0  0  0  0  0  0  0  0  0  0  0  0
    3.0171    2.9303    7.6813 C   0  0  0  0  0  0  0  0  0  0  0  0
    3.2867    1.7479    8.3625 C   0  0  0  0  0  0  0  0  0  0  0  0
    2.8971    1.6188    9.6917 C   0  0  0  0  0  0  0  0  0  0  0  0
    2.2444    2.6680   10.3303 C   0  0  0  0  0  0  0  0  0  0  0  0
    1.9808    3.8447    9.6400 C   0  0  0  0  0  0  0  0  0  0  0  0
    2.3646    3.9859    8.3105 C   0  0  0  0  0  0  0  0  0  0  0  0
    3.4578    3.4597    3.4711 N   0  0  0  0  0  0  0  0  0  0  0  0
    3.6158    3.5017    2.1401 C   0  0  0  0  0  0  0  0  0  0  0  0
    2.8313    2.7131    1.3055 C   0  0  0  0  0  0  0  0  0  0  0  0
   -1.2777   -0.5347    2.3777 N   0  0  0  0  0  0  0  0  0  0  0  0
   -2.3337   -0.6498    1.3579 C   0  0  0  0  0  0  0  0  0  0  0  0
   -3.2589    0.5583    1.3338 C   0  0  0  0  0  0  0  0  0  0  0  0
   -3.3121    1.4426    2.4122 C   0  0  0  0  0  0  0  0  0  0  0  0
   -4.1754    2.5312    2.4086 C   0  0  0  0  0  0  0  0  0  0  0  0
   -4.9720    2.7405    1.2897 C   0  0  0  0  0  0  0  0  0  0  0  0
   -4.9209    1.8682    0.2083 C   0  0  0  0  0  0  0  0  0  0  0  0
   -4.0682    0.7693    0.2182 C   0  0  0  0  0  0  0  0  0  0  0  0
   -4.2509    3.4753    3.6024 C   0  0  0  0  0  0  0  0  0  0  0  0
   -4.2459    2.6647    4.8925 C   0  0  0  0  0  0  0  0  0  0  0  0
   -3.4893    1.3439    4.7982 C   0  0  0  0  0  0  0  0  0  0  0  0
   -2.4711    1.3019    3.6715 C   0  0  0  0  0  0  0  0  0  0  0  0
   -1.5181    0.1063    3.6866 C   0  0  0  0  0  0  0  0  0  0  0  0
  1  2  1  0
  2  3  2  0
  2  4  1  0
  4  5  2  0
  5  6  1  0
  6  7  2  0
  7  8  1  0
  8  9  2  0
  9  4  1  0
  6 10  1  0
 10 11  2  0
 11 12  1  0
 12 13  2  0
 13 14  1  0
 14 10  1  0
 14 15  1  0
 15 16  1  0
 16 17  2  0
 17 18  1  0
 18 19  1  0
 19 20  1  0
 20 21  1  0
 21 22  2  0
 22 23  1  0
 23 24  2  0
 24 25  1  0
 25 26  2  0
 26 21  1  0
 18 27  2  0
 27 28  1  0
 28 29  2  0
 29 16  1  0
 13 30  1  0
 30 31  1  0
 31 32  1  0
 32 33  2  0
 33 34  1  0
 34 35  2  0
 35 36  1  0
 36 37  2  0
 37 32  1  0
 34 38  1  0
 38 39  1  0
 39 40  1  0
 40 41  1  0
 41 33  1  0
 41 42  1  0
 42 30  1  0
M  CHG  2   1  -1   2   1
M  END
$$$$
m_270942____9828420____16769910____14069974
     RDKit          3D

 43 49  0  0  0  0  0  0  0  0999 V2000
   11.6531    9.7597    3.8055 Br  0  0  0  0  0  0  0  0  0  0  0  0
   11.6740    8.0252    2.8936 C   0  0  0  0  0  0  0  0  0  0  0  0
   10.5407    7.6191    2.2156 C   0  0  0  0  0  0  0  0  0  0  0  0
   10.5355    6.3866    1.5858 C   0  0  0  0  0  0  0  0  0  0  0  0
   11.6581    5.5574    1.6198 C   0  0  0  0  0  0  0  0  0  0  0  0
   12.7915    5.9888    2.3052 C   0  0  0  0  0  0  0  0  0  0  0  0
   12.8090    7.2257    2.9493 C   0  0  0  0  0  0  0  0  0  0  0  0
   11.5520    4.2115    0.9061 C   0  0  0  0  0  0  0  0  0  0  0  0
   10.7980    3.0319    1.4614 C   0  0  0  0  0  0  0  0  0  0  0  0
    9.5975    3.6048    0.7358 C   0  0  0  0  0  0  0  0  0  0  0  0
    8.7669    4.7145    1.2154 N   0  0  0  0  0  0  0  0  0  0  0  0
    7.5815    4.4527    1.8966 C   0  0  0  0  0  0  0  0  0  0  0  0
    7.1941    4.9719    3.0354 N   0  0  0  0  0  0  0  0  0  0  0  0
    6.0214    4.5026    3.3989 N   0  0  0  0  0  0  0  0  0  0  0  0
    5.6237    3.6532    2.4786 C   0  0  0  0  0  0  0  0  0  0  0  0
    6.5890    3.6045    1.5223 N   0  0  0  0  0  0  0  0  0  0  0  0
    6.5648    2.7837    0.3023 C   0  0  0  0  0  0  0  0  0  0  0  0
    6.3868    3.6831   -0.9101 C   0  0  0  0  0  0  0  0  0  0  0  0
    6.3619    2.8346   -2.1713 C   0  0  0  0  0  0  0  0  0  0  0  0
    5.1509    2.3423   -2.6467 C   0  0  0  0  0  0  0  0  0  0  0  0
    5.1326    1.5656   -3.8007 C   0  0  0  0  0  0  0  0  0  0  0  0
    6.3193    1.2876   -4.4708 C   0  0  0  0  0  0  0  0  0  0  0  0
    7.5231    1.7851   -3.9870 C   0  0  0  0  0  0  0  0  0  0  0  0
    7.5547    2.5624   -2.8338 C   0  0  0  0  0  0  0  0  0  0  0  0
    4.3800    2.9062    2.4867 C   0  0  0  0  0  0  0  0  0  0  0  0
    3.1728    3.5972    2.5008 C   0  0  0  0  0  0  0  0  0  0  0  0
    1.9830    2.8768    2.5101 C   0  0  0  0  0  0  0  0  0  0  0  0
    0.7615    3.5615    2.5249 N   0  0  0  0  0  0  0  0  0  0  0  0
   -0.3068    3.3487    1.3124 S   0  0  0  0  0  0  0  0  0  0  0  0
   -0.5079    1.9400    1.0915 O   0  0  0  0  0  0  0  0  0  0  0  0
   -1.5608    3.9631    1.6641 O   0  0  0  0  0  0  0  0  0  0  0  0
    0.3107    4.0810   -0.1399 C   0  0  0  0  0  0  0  0  0  0  0  0
    1.0964    3.3344   -1.0112 C   0  0  0  0  0  0  0  0  0  0  0  0
    1.5914    3.9178   -2.1730 C   0  0  0  0  0  0  0  0  0  0  0  0
    1.2914    5.2479   -2.4470 C   0  0  0  0  0  0  0  0  0  0  0  0
    0.5058    5.9943   -1.5748 C   0  0  0  0  0  0  0  0  0  0  0  0
    0.0102    5.4115   -0.4136 C   0  0  0  0  0  0  0  0  0  0  0  0
    1.8306    5.8903   -3.7144 C   0  0  0  0  0  0  0  0  0  0  0  0
    1.9867    1.4860    2.5051 C   0  0  0  0  0  0  0  0  0  0  0  0
    3.2053    0.8159    2.4905 C   0  0  0  0  0  0  0  0  0  0  0  0
    4.4072    1.5158    2.4809 C   0  0  0  0  0  0  0  0  0  0  0  0
    9.1752    6.1102    0.9857 C   0  0  0  0  0  0  0  0  0  0  0  0
   10.5777    4.1964   -0.2501 C   0  0  0  0  0  0  0  0  0  0  0  0
  1  2  1  0
  2  3  2  0
  3  4  1  0
  4  5  2  0
  5  6  1  0
  6  7  2  0
  7  2  1  0
  5  8  1  0
  8  9  1  0
  9 10  1  0
 10 11  1  0
 11 12  1  0
 12 13  2  0
 13 14  1  0
 14 15  2  0
 15 16  1  0
 16 12  1  0
 16 17  1  0
 17 18  1  0
 18 19  1  0
 19 20  2  0
 20 21  1  0
 21 22  2  0
 22 23  1  0
 23 24  2  0
 24 19  1  0
 15 25  1  0
 25 26  2  0
 26 27  1  0
 27 28  1  0
 28 29  1  0
 29 30  2  0
 29 31  2  0
 29 32  1  0
 32 33  2  0
 33 34  1  0
 34 35  2  0
 35 36  1  0
 36 37  2  0
 37 32  1  0
 35 38  1  0
 27 39  2  0
 39 40  1  0
 40 41  2  0
 41 25  1  0
 11 42  1  0
 42  4  1  0
 10 43  1  0
 43  8  1  0
M  END
$$$$
s_265764____9224912____4558828
     RDKit          3D

 35 38  0  0  0  0  0  0  0  0999 V2000
    0.1318    3.9536   -5.1817 Cl  0  0  0  0  0  0  0  0  0  0  0  0
    0.6132    2.9979   -3.7597 C   0  0  0  0  0  0  0  0  0  0  0  0
    1.6252    3.4642   -2.9273 C   0  0  0  0  0  0  0  0  0  0  0  0
    1.9974    2.7126   -1.8179 C   0  0  0  0  0  0  0  0  0  0  0  0
    1.3560    1.5074   -1.5526 C   0  0  0  0  0  0  0  0  0  0  0  0
    1.7363    0.7563   -0.4337 N   0  0  0  0  0  0  0  0  0  0  0  0
    1.0000    1.0000    1.0000 S   0  0  0  0  0  0  0  0  0  0  0  0
   -0.2666    1.6504    0.7848 O   0  0  0  0  0  0  0  0  0  0  0  0
    0.7848   -0.2666    1.6504 O   0  0  0  0  0  0  0  0  0  0  0  0
    2.0045    2.0045    2.0045 C   0  0  0  0  0  0  0  0  0  0  0  0
    1.8611    3.3871    1.9566 C   0  0  0  0  0  0  0  0  0  0  0  0
    2.6713    4.1779    2.7649 C   0  0  0  0  0  0  0  0  0  0  0  0
    3.6142    3.6035    3.6112 C   0  0  0  0  0  0  0  0  0  0  0  0
    3.7415    2.2187    3.6444 C   0  0  0  0  0  0  0  0  0  0  0  0
    2.9408    1.4099    2.8445 C   0  0  0  0  0  0  0  0  0  0  0  0
    2.5242    5.6201    2.7173 C   0  0  0  0  0  0  0  0  0  0  0  0
    1.6764    6.2779    1.9644 O   0  0  0  0  0  0  0  0  0  0  0  0
    1.8072    7.5223    2.1662 N   0  0  0  0  0  0  0  0  0  0  0  0
    2.7504    7.7067    3.0601 C   0  0  0  0  0  0  0  0  0  0  0  0
    3.2167    6.4817    3.4181 N   0  0  0  0  0  0  0  0  0  0  0  0
    3.2115    8.9837    3.5691 C   0  0  0  0  0  0  0  0  0  0  0  0
    4.2262    9.0148    4.5206 C   0  0  0  0  0  0  0  0  0  0  0  0
    4.6781   10.2335    5.0161 C   0  0  0  0  0  0  0  0  0  0  0  0
    4.1029   11.4106    4.5491 C   0  0  0  0  0  0  0  0  0  0  0  0
    4.6584   12.9418    5.1606 S   0  0  0  0  0  0  0  0  0  0  0  0
    3.5752   13.8903    5.1352 O   0  0  0  0  0  0  0  0  0  0  0  0
    5.1218   12.7785    6.5142 O   0  0  0  0  0  0  0  0  0  0  0  0
    5.8804   13.4874    4.2300 N   0  0  0  0  0  0  0  0  0  0  0  0
    3.0879   11.3847    3.5981 C   0  0  0  0  0  0  0  0  0  0  0  0
    2.6391   10.1637    3.1051 C   0  0  0  0  0  0  0  0  0  0  0  0
    2.7994   -0.2519   -0.5520 C   0  0  0  0  0  0  0  0  0  0  0  0
    2.1875   -1.5919   -0.9265 C   0  0  0  0  0  0  0  0  0  0  0  0
    2.5392   -2.1812   -2.0306 C   0  0  0  0  0  0  0  0  0  0  0  0
    0.3452    1.0468   -2.3888 C   0  0  0  0  0  0  0  0  0  0  0  0
   -0.0317    1.7933   -3.5000 C   0  0  0  0  0  0  0  0  0  0  0  0
  1  2  1  0
  2  3  2  0
  3  4  1  0
  4  5  2  0
  5  6  1  0
  6  7  1  0
  7  8  2  0
  7  9  2  0
  7 10  1  0
 10 11  2  0
 11 12  1  0
 12 13  2  0
 13 14  1  0
 14 15  2  0
 15 10  1  0
 12 16  1  0
 16 17  1  0
 17 18  1  0
 18 19  2  0
 19 20  1  0
 16 20  2  0
 19 21  1  0
 21 22  2  0
 22 23  1  0
 23 24  2  0
 24 25  1  0
 25 26  2  0
 25 27  2  0
 25 28  1  0
 24 29  1  0
 29 30  2  0
 30 21  1  0
  6 31  1  0
 31 32  1  0
 32 33  2  0
  5 34  1  0
 34 35  2  0
 35  2  1  0
M  END
$$$$
s_42a____8631722____125318
     RDKit          3D

 39 44  0  0  0  0  0  0  0  0999 V2000
    6.3461   -1.7241    2.4726 Cl  0  0  0  0  0  0  0  0  0  0  0  0
    5.4805   -0.1686    2.4698 C   0  0  0  0  0  0  0  0  0  0  0  0
    6.1973    1.0231    2.4554 C   0  0  0  0  0  0  0  0  0  0  0  0
    5.5286    2.1834    2.4483 N   0  0  0  0  0  0  0  0  0  0  0  0
    4.2024    2.1150    2.4561 C   0  0  0  0  0  0  0  0  0  0  0  0
    3.3772    3.5979    2.4370 S   0  0  0  0  0  0  0  0  0  0  0  0
    1.8532    2.8504    2.4652 C   0  0  0  0  0  0  0  0  0  0  0  0
    2.0166    1.4939    2.5143 C   0  0  0  0  0  0  0  0  0  0  0  0
    3.3594    1.0317    2.4924 C   0  0  0  0  0  0  0  0  0  0  0  0
    4.0901   -0.1562    2.4875 C   0  0  0  0  0  0  0  0  0  0  0  0
    3.3912   -1.4265    2.5074 C   0  0  0  0  0  0  0  0  0  0  0  0
    3.0801   -2.0096    3.7309 C   0  0  0  0  0  0  0  0  0  0  0  0
    2.4107   -3.2288    3.7605 C   0  0  0  0  0  0  0  0  0  0  0  0
    2.0602   -3.8491    2.5658 C   0  0  0  0  0  0  0  0  0  0  0  0
    1.4091   -5.0316    2.5845 O   0  0  0  0  0  0  0  0  0  0  0  0
    1.0516   -5.6642    1.3645 C   0  0  0  0  0  0  0  0  0  0  0  0
    2.3718   -3.2655    1.3421 C   0  0  0  0  0  0  0  0  0  0  0  0
    3.0414   -2.0468    1.3123 C   0  0  0  0  0  0  0  0  0  0  0  0
    0.7009    0.7294    2.5845 C   0  0  0  0  0  0  0  0  0  0  0  0
   -0.4922    1.5479    2.1271 C   0  0  0  0  0  0  0  0  0  0  0  0
   -0.5052    2.8285    2.9457 C   0  0  0  0  0  0  0  0  0  0  0  0
    0.6104    3.7182    2.4284 C   0  0  0  0  0  0  0  0  0  0  0  0
   -1.7931    3.6070    2.7396 C   0  0  0  0  0  0  0  0  0  0  0  0
    7.6474    1.0153    2.4467 C   0  0  0  0  0  0  0  0  0  0  0  0
    8.4416    1.0003    1.3414 C   0  0  0  0  0  0  0  0  0  0  0  0
    9.7373    0.9954    1.7578 N   0  0  0  0  0  0  0  0  0  0  0  0
   10.8221    0.9798    0.9532 N   0  0  0  0  0  0  0  0  0  0  0  0
   11.3639   -0.2146    0.5570 C   0  0  0  0  0  0  0  0  0  0  0  0
   10.8747   -1.2468    0.9248 O   0  0  0  0  0  0  0  0  0  0  0  0
   12.5286   -0.2314   -0.3070 C   0  0  0  0  0  0  0  0  0  0  0  0
   12.8279   -1.3763   -1.0380 C   0  0  0  0  0  0  0  0  0  0  0  0
   13.9465   -1.3884   -1.8649 C   0  0  0  0  0  0  0  0  0  0  0  0
   14.7555   -0.2607   -1.9571 C   0  0  0  0  0  0  0  0  0  0  0  0
   14.4466    0.8775   -1.2225 C   0  0  0  0  0  0  0  0  0  0  0  0
   13.3312    0.9020   -0.3917 C   0  0  0  0  0  0  0  0  0  0  0  0
    9.7594    1.0088    3.1198 C   0  0  0  0  0  0  0  0  0  0  0  0
    8.4810    1.0215    3.5867 C   0  0  0  0  0  0  0  0  0  0  0  0
   11.0108    1.0099    3.9830 C   0  0  0  0  0  0  0  0  0  0  0  0
    7.9676    0.9881   -0.1030 C   0  0  0  0  0  0  0  0  0  0  0  0
  1  2  1  0
  2  3  2  0
  3  4  1  0
  4  5  2  0
  5  6  1  0
  6  7  1  0
  7  8  2  0
  8  9  1  0
  9  5  1  0
  9 10  2  0
 10  2  1  0
 10 11  1  0
 11 12  2  0
 12 13  1  0
 13 14  2  0
 14 15  1  0
 15 16  1  0
 14 17  1  0
 17 18  2  0
 18 11  1  0
  8 19  1  0
 19 20  1  0
 20 21  1  0
 21 22  1  0
 22  7  1  0
 21 23  1  0
  3 24  1  0
 24 25  2  0
 25 26  1  0
 26 27  1  0
 27 28  1  0
 28 29  2  0
 28 30  1  0
 30 31  2  0
 31 32  1  0
 32 33  2  0
 33 34  1  0
 34 35  2  0
 35 30  1  0
 26 36  1  0
 36 37  2  0
 37 24  1  0
 36 38  1  0
 25 39  1  0
M  END
$$$$
s_2____11687950____15100776____9284808
     RDKit          3D

 41 46  0  0  0  0  0  0  0  0999 V2000
   -1.9513    6.0842    0.4460 S   0  0  0  0  0  0  0  0  0  0  0  0
   -1.1728    7.0069   -0.3390 O   0  0  0  0  0  0  0  0  0  0  0  0
   -3.2098    5.8392   -0.2095 O   0  0  0  0  0  0  0  0  0  0  0  0
   -2.2222    6.7207    1.9220 N   0  0  0  0  0  0  0  0  0  0  0  0
   -1.0821    4.5864    0.6111 C   0  0  0  0  0  0  0  0  0  0  0  0
   -0.7377    4.1262    1.8777 C   0  0  0  0  0  0  0  0  0  0  0  0
   -0.0423    2.9284    2.0032 C   0  0  0  0  0  0  0  0  0  0  0  0
    0.2999    2.2052    0.8655 C   0  0  0  0  0  0  0  0  0  0  0  0
    1.0000    1.0000    1.0000 N   0  0  0  0  0  0  0  0  0  0  0  0
    2.2727    1.0000    1.0000 C   0  0  0  0  0  0  0  0  0  0  0  0
    3.2932    2.2218    0.3944 S   0  0  0  0  0  0  0  0  0  0  0  0
    4.7811    1.4716    0.7594 C   0  0  0  0  0  0  0  0  0  0  0  0
    4.4252    0.2929    1.3410 C   0  0  0  0  0  0  0  0  0  0  0  0
    3.0922    0.0268    1.4798 N   0  0  0  0  0  0  0  0  0  0  0  0
    2.5422   -1.1968    2.0817 C   0  0  0  0  0  0  0  0  0  0  0  0
    2.0205   -2.0789    0.9582 C   0  0  0  0  0  0  0  0  0  0  0  0
    0.8786   -2.7471    1.0457 C   0  0  0  0  0  0  0  0  0  0  0  0
   -0.0462   -2.6521    2.2543 C   0  0  0  0  0  0  0  0  0  0  0  0
    0.6952   -2.0762    3.4528 C   0  0  0  0  0  0  0  0  0  0  0  0
    1.4768   -0.8205    3.0997 C   0  0  0  0  0  0  0  0  0  0  0  0
   -0.6123   -4.0311    2.5558 C   0  0  0  0  0  0  0  0  0  0  0  0
   -1.2065   -1.7372    1.9039 C   0  0  0  0  0  0  0  0  0  0  0  0
    5.4808   -0.5996    1.7731 C   0  0  0  0  0  0  0  0  0  0  0  0
    5.9948   -0.4970    3.0621 C   0  0  0  0  0  0  0  0  0  0  0  0
    5.5127    0.4580    3.9652 N   0  0  0  0  0  0  0  0  0  0  0  0
    4.5973    0.2210    4.9865 C   0  0  0  0  0  0  0  0  0  0  0  0
    4.0840   -0.8566    5.2377 O   0  0  0  0  0  0  0  0  0  0  0  0
    4.3621    1.4605    5.6874 C   0  0  0  0  0  0  0  0  0  0  0  0
    5.1297    2.4125    5.0694 C   0  0  0  0  0  0  0  0  0  0  0  0
    5.0448    3.7032    5.5820 C   0  0  0  0  0  0  0  0  0  0  0  0
    4.2223    3.9979    6.6634 C   0  0  0  0  0  0  0  0  0  0  0  0
    3.4567    3.0038    7.2640 C   0  0  0  0  0  0  0  0  0  0  0  0
    3.5217    1.7063    6.7664 C   0  0  0  0  0  0  0  0  0  0  0  0
    5.8725    1.8020    3.9925 C   0  0  0  0  0  0  0  0  0  0  0  0
    6.6608    2.3685    3.2527 O   0  0  0  0  0  0  0  0  0  0  0  0
    7.0081   -1.3541    3.4769 C   0  0  0  0  0  0  0  0  0  0  0  0
    7.5084   -2.3143    2.6032 C   0  0  0  0  0  0  0  0  0  0  0  0
    6.9948   -2.4170    1.3145 C   0  0  0  0  0  0  0  0  0  0  0  0
    5.9816   -1.5592    0.8991 C   0  0  0  0  0  0  0  0  0  0  0  0
   -0.0472    2.6709   -0.3977 C   0  0  0  0  0  0  0  0  0  0  0  0
   -0.7424    3.8680   -0.5304 C   0  0  0  0  0  0  0  0  0  0  0  0
  1  2  2  0
  1  3  2  0
  1  4  1  0
  1  5  1  0
  5  6  2  0
  6  7  1  0
  7  8  2  0
  8  9  1  0
  9 10  2  0
 10 11  1  0
 11 12  1  0
 12 13  2  0
 13 14  1  0
 14 10  1  0
 14 15  1  0
 15 16  1  0
 16 17  2  0
 17 18  1  0
 18 19  1  0
 19 20  1  0
 20 15  1  0
 18 21  1  0
 18 22  1  0
 13 23  1  0
 23 24  1  0
 24 25  1  0
 25 26  1  0
 26 27  2  0
 26 28  1  0
 28 29  2  0
 29 30  1  0
 30 31  2  0
 31 32  1  0
 32 33  2  0
 33 28  1  0
 29 34  1  0
 34 25  1  0
 34 35  2  0
 24 36  2  0
 36 37  1  0
 37 38  2  0
 38 39  1  0
 39 23  2  0
  8 40  1  0
 40 41  2  0
 41  5  1  0
M  END
$$$$
s_2____2757072____17632298____9284808
     RDKit          3D

 54 61  0  0  0  0  0  0  0  0999 V2000
    9.7835    0.7643    7.4035 S   0  0  0  0  0  0  0  0  0  0  0  0
   10.8002    1.7678    7.2227 O   0  0  0  0  0  0  0  0  0  0  0  0
    9.0175    1.0644    8.5854 O   0  0  0  0  0  0  0  0  0  0  0  0
   10.4859   -0.6974    7.5680 N   0  0  0  0  0  0  0  0  0  0  0  0
    8.7308    0.7492    6.0185 C   0  0  0  0  0  0  0  0  0  0  0  0
    7.3976    0.3824    6.1667 C   0  0  0  0  0  0  0  0  0  0  0  0
    6.5538    0.3696    5.0607 C   0  0  0  0  0  0  0  0  0  0  0  0
    7.0600    0.7255    3.8152 C   0  0  0  0  0  0  0  0  0  0  0  0
    8.3938    1.0919    3.6676 C   0  0  0  0  0  0  0  0  0  0  0  0
    9.2375    1.1055    4.7728 C   0  0  0  0  0  0  0  0  0  0  0  0
    6.1427    0.7120    2.6036 C   0  0  0  0  0  0  0  0  0  0  0  0
    5.5094    2.0301    2.4537 N   0  0  0  0  0  0  0  0  0  0  0  0
    4.2406    2.1295    2.4468 C   0  0  0  0  0  0  0  0  0  0  0  0
    3.3299    3.5681    2.4036 S   0  0  0  0  0  0  0  0  0  0  0  0
    1.7813    2.8529    2.4247 C   0  0  0  0  0  0  0  0  0  0  0  0
    2.0334    1.5154    2.4653 C   0  0  0  0  0  0  0  0  0  0  0  0
    3.3388    1.1121    2.4746 N   0  0  0  0  0  0  0  0  0  0  0  0
    3.7804   -0.2891    2.5193 C   0  0  0  0  0  0  0  0  0  0  0  0
    3.7006   -0.8902    1.1254 C   0  0  0  0  0  0  0  0  0  0  0  0
    4.1431   -2.2941    1.1702 N   0  0  0  0  0  0  0  0  0  0  0  0
    4.0878   -2.9317   -0.1538 C   0  0  0  0  0  0  0  0  0  0  0  0
    4.5697   -4.3717   -0.0755 C   0  0  0  0  0  0  0  0  0  0  0  0
    3.7627   -5.1370    0.8867 N   0  0  0  0  0  0  0  0  0  0  0  0
    3.8178   -4.4994    2.2107 C   0  0  0  0  0  0  0  0  0  0  0  0
    3.3374   -3.0586    2.1341 C   0  0  0  0  0  0  0  0  0  0  0  0
    4.2053   -6.5415    0.9554 C   0  0  0  0  0  0  0  0  0  0  0  0
    4.5989   -0.1057    0.1833 C   0  0  0  0  0  0  0  0  0  0  0  0
    4.0884    0.9860   -0.5096 C   0  0  0  0  0  0  0  0  0  0  0  0
    4.8814    1.6998   -1.4053 C   0  0  0  0  0  0  0  0  0  0  0  0
    6.2127    1.3569   -1.5968 C   0  0  0  0  0  0  0  0  0  0  0  0
    6.9846    2.1170   -2.4895 N   0  0  0  0  0  0  0  0  0  0  0  0
    6.3562    2.6102   -3.7275 C   0  0  0  0  0  0  0  0  0  0  0  0
    4.8394    2.7238   -3.6337 C   0  0  0  0  0  0  0  0  0  0  0  0
    4.3270    2.8694   -2.2067 C   0  0  0  0  0  0  0  0  0  0  0  0
    8.4032    2.4237   -2.2477 C   0  0  0  0  0  0  0  0  0  0  0  0
    6.7149    0.2661   -0.8901 C   0  0  0  0  0  0  0  0  0  0  0  0
    5.9285   -0.4681   -0.0077 C   0  0  0  0  0  0  0  0  0  0  0  0
    0.9019    0.6087    2.4961 C   0  0  0  0  0  0  0  0  0  0  0  0
   -0.2204    0.8695    1.7160 C   0  0  0  0  0  0  0  0  0  0  0  0
   -0.2882    1.9984    0.8907 N   0  0  0  0  0  0  0  0  0  0  0  0
    0.2973    2.1223   -0.3659 C   0  0  0  0  0  0  0  0  0  0  0  0
    0.9553    1.2611   -0.9256 O   0  0  0  0  0  0  0  0  0  0  0  0
   -0.0047    3.4349   -0.8844 C   0  0  0  0  0  0  0  0  0  0  0  0
   -0.7532    4.0714    0.0706 C   0  0  0  0  0  0  0  0  0  0  0  0
   -1.1481    5.3734   -0.2200 C   0  0  0  0  0  0  0  0  0  0  0  0
   -0.7964    5.9841   -1.4183 C   0  0  0  0  0  0  0  0  0  0  0  0
   -0.0342    5.3052   -2.3635 C   0  0  0  0  0  0  0  0  0  0  0  0
    0.3761    4.0037   -2.0937 C   0  0  0  0  0  0  0  0  0  0  0  0
   -0.9558    3.1821    1.1897 C   0  0  0  0  0  0  0  0  0  0  0  0
   -1.5916    3.4339    2.2008 O   0  0  0  0  0  0  0  0  0  0  0  0
   -1.3051    0.0000    1.7455 C   0  0  0  0  0  0  0  0  0  0  0  0
   -1.2684   -1.1310    2.5550 C   0  0  0  0  0  0  0  0  0  0  0  0
   -0.1465   -1.3919    3.3350 C   0  0  0  0  0  0  0  0  0  0  0  0
    0.9383   -0.5217    3.3062 C   0  0  0  0  0  0  0  0  0  0  0  0
  1  2  2  0
  1  3  2  0
  1  4  1  0
  1  5  1  0
  5  6  2  0
  6  7  1  0
  7  8  2  0
  8  9  1  0
  9 10  2  0
 10  5  1  0
  8 11  1  0
 11 12  1  0
 12 13  2  0
 13 14  1  0
 14 15  1  0
 15 16  2  0
 16 17  1  0
 17 13  1  0
 17 18  1  0
 18 19  1  0
 19 20  1  0
 20 21  1  0
 21 22  1  0
 22 23  1  0
 23 24  1  0
 24 25  1  0
 25 20  1  0
 23 26  1  0
 19 27  1  0
 27 28  2  0
 28 29  1  0
 29 30  2  0
 30 31  1  0
 31 32  1  0
 32 33  1  0
 33 34  1  0
 34 29  1  0
 31 35  1  0
 30 36  1  0
 36 37  2  0
 37 27  1  0
 16 38  1  0
 38 39  1  0
 39 40  1  0
 40 41  1  0
 41 42  2  0
 41 43  1  0
 43 44  2  0
 44 45  1  0
 45 46  2  0
 46 47  1  0
 47 48  2  0
 48 43  1  0
 44 49  1  0
 49 40  1  0
 49 50  2  0
 39 51  2  0
 51 52  1  0
 52 53  2  0
 53 54  1  0
 54 38  2  0
M  CHG  2  20   1  23   1
M  END
$$$$
m_273170____10758450____10760336____10766750
     RDKit          3D

 40 44  0  0  0  0  0  0  0  0999 V2000
   -0.7355   -2.0145    6.6806 S   0  0  0  0  0  0  0  0  0  0  0  0
    0.5235   -2.1865    7.3580 O   0  0  0  0  0  0  0  0  0  0  0  0
   -1.5138   -1.0122    7.3613 O   0  0  0  0  0  0  0  0  0  0  0  0
   -1.5495   -3.4267    6.6798 N   0  0  0  0  0  0  0  0  0  0  0  0
   -0.4479   -1.5105    5.0404 C   0  0  0  0  0  0  0  0  0  0  0  0
   -1.4616   -0.8879    4.3201 C   0  0  0  0  0  0  0  0  0  0  0  0
   -1.2341   -0.4841    3.0085 C   0  0  0  0  0  0  0  0  0  0  0  0
    0.0117   -0.7113    2.4335 C   0  0  0  0  0  0  0  0  0  0  0  0
    1.0250   -1.3345    3.1544 C   0  0  0  0  0  0  0  0  0  0  0  0
    0.7984   -1.7378    4.4657 C   0  0  0  0  0  0  0  0  0  0  0  0
    0.2650   -0.2731    1.0004 C   0  0  0  0  0  0  0  0  0  0  0  0
    1.0000    1.0000    1.0000 N   0  0  0  0  0  0  0  0  0  0  0  0
    2.4017    1.0000    1.0000 C   0  0  0  0  0  0  0  0  0  0  0  0
    3.1912    2.0415    1.0908 N   0  0  0  0  0  0  0  0  0  0  0  0
    4.4560    1.6855    1.0558 N   0  0  0  0  0  0  0  0  0  0  0  0
    4.5040    0.3775    0.9393 C   0  0  0  0  0  0  0  0  0  0  0  0
    3.2232   -0.0772    0.9021 N   0  0  0  0  0  0  0  0  0  0  0  0
    2.8010   -1.4805    0.7791 C   0  0  0  0  0  0  0  0  0  0  0  0
    2.7709   -1.8742   -0.6904 C   0  0  0  0  0  0  0  0  0  0  0  0
    3.8055   -1.6408   -1.5143 N   0  0  0  0  0  0  0  0  0  0  0  0
    3.8164   -1.9753   -2.8179 C   0  0  0  0  0  0  0  0  0  0  0  0
    2.6962   -2.6115   -3.3463 C   0  0  0  0  0  0  0  0  0  0  0  0
    1.5947   -2.8690   -2.5373 C   0  0  0  0  0  0  0  0  0  0  0  0
    1.6354   -2.4978   -1.1972 C   0  0  0  0  0  0  0  0  0  0  0  0
    2.6219   -3.0623   -4.7969 C   0  0  0  0  0  0  0  0  0  0  0  0
    3.6346   -2.3722   -5.6987 C   0  0  0  0  0  0  0  0  0  0  0  0
    4.9983   -2.4575   -5.0319 C   0  0  0  0  0  0  0  0  0  0  0  0
    4.9988   -1.6649   -3.7343 C   0  0  0  0  0  0  0  0  0  0  0  0
    5.7069   -0.4288    0.8647 C   0  0  0  0  0  0  0  0  0  0  0  0
    5.6145   -1.8033    1.0584 C   0  0  0  0  0  0  0  0  0  0  0  0
    6.7700   -2.5739    0.9863 C   0  0  0  0  0  0  0  0  0  0  0  0
    6.6730   -4.2946    1.2254 S   0  0  0  0  0  0  0  0  0  0  0  0
    7.8311   -4.7441    1.9536 O   0  0  0  0  0  0  0  0  0  0  0  0
    5.4836   -4.6089    1.9738 O   0  0  0  0  0  0  0  0  0  0  0  0
    6.6113   -5.1245   -0.3820 C   0  0  0  0  0  0  0  0  0  0  0  0
    8.0056   -1.9901    0.7250 C   0  0  0  0  0  0  0  0  0  0  0  0
    8.0763   -0.6141    0.5339 C   0  0  0  0  0  0  0  0  0  0  0  0
    6.9324    0.1746    0.6016 C   0  0  0  0  0  0  0  0  0  0  0  0
    0.2650    2.2731    0.9996 C   0  0  0  0  0  0  0  0  0  0  0  0
   -1.0631   -0.0916    0.2838 C   0  0  0  0  0  0  0  0  0  0  0  0
  1  2  2  0
  1  3  2  0
  1  4  1  0
  1  5  1  0
  5  6  2  0
  6  7  1  0
  7  8  2  0
  8  9  1  0
  9 10  2  0
 10  5  1  0
  8 11  1  0
 11 12  1  0
 12 13  1  0
 13 14  2  0
 14 15  1  0
 15 16  2  0
 16 17  1  0
 17 13  1  0
 17 18  1  0
 18 19  1  0
 19 20  2  0
 20 21  1  0
 21 22  2  0
 22 23  1  0
 23 24  2  0
 24 19  1  0
 22 25  1  0
 25 26  1  0
 26 27  1  0
 27 28  1  0
 28 21  1  0
 16 29  1  0
 29 30  2  0
 30 31  1  0
 31 32  1  0
 32 33  2  0
 32 34  2  0
 32 35  1  0
 31 36  2  0
 36 37  1  0
 37 38  2  0
 38 29  1  0
 12 39  1  0
 11 40  1  0
M  END
$$$$
m_276010a____17281948____17271986____17280982
     RDKit          3D

 37 40  0  0  0  0  0  0  0  0999 V2000
   -1.7579    5.7632    1.0047 F   0  0  0  0  0  0  0  0  0  0  0  0
   -1.0921    4.6119    1.0042 C   0  0  0  0  0  0  0  0  0  0  0  0
   -0.0736    4.3981    0.0815 C   0  0  0  0  0  0  0  0  0  0  0  0
    0.6287    3.1970    0.0740 C   0  0  0  0  0  0  0  0  0  0  0  0
    0.2999    2.2125    1.0000 C   0  0  0  0  0  0  0  0  0  0  0  0
    1.0000    1.0000    1.0000 N   0  0  0  0  0  0  0  0  0  0  0  0
    2.3700    1.0000    1.0000 C   0  0  0  0  0  0  0  0  0  0  0  0
    2.9700    1.9766    1.3554 O   0  0  0  0  0  0  0  0  0  0  0  0
    3.1300   -0.2370    0.5498 C   0  0  0  0  0  0  0  0  0  0  0  0
    2.5300   -1.2135    0.1943 O   0  0  0  0  0  0  0  0  0  0  0  0
    4.6500   -0.2370    0.5498 C   0  0  0  0  0  0  0  0  0  0  0  0
    5.1568   -0.9537    1.7911 C   0  0  0  0  0  0  0  0  0  0  0  0
    5.3847   -2.3254    1.7437 C   0  0  0  0  0  0  0  0  0  0  0  0
    5.8496   -2.9860    2.8758 C   0  0  0  0  0  0  0  0  0  0  0  0
    6.0818   -2.2645    4.0423 C   0  0  0  0  0  0  0  0  0  0  0  0
    5.8533   -0.8935    4.0910 C   0  0  0  0  0  0  0  0  0  0  0  0
    5.3870   -0.2332    2.9591 C   0  0  0  0  0  0  0  0  0  0  0  0
    6.5908   -2.9809    5.2826 C   0  0  0  0  0  0  0  0  0  0  0  0
    7.9208   -2.9810    5.2800 F   0  0  0  0  0  0  0  0  0  0  0  0
    6.1496   -2.3538    6.3693 F   0  0  0  0  0  0  0  0  0  0  0  0
    6.1474   -4.2348    5.2836 F   0  0  0  0  0  0  0  0  0  0  0  0
   -0.7171    2.4178    1.9268 C   0  0  0  0  0  0  0  0  0  0  0  0
   -1.4137    3.6220    1.9273 C   0  0  0  0  0  0  0  0  0  0  0  0
    0.2757    5.4190   -0.8878 C   0  0  0  0  0  0  0  0  0  0  0  0
    1.2625    6.3488   -0.7553 N   0  0  0  0  0  0  0  0  0  0  0  0
    1.2659    7.0623   -1.7969 N   0  0  0  0  0  0  0  0  0  0  0  0
    0.3403    6.6690   -2.6374 N   0  0  0  0  0  0  0  0  0  0  0  0
    0.0774    7.2426   -3.8870 C   0  0  0  0  0  0  0  0  0  0  0  0
    0.8416    8.3251   -4.3112 C   0  0  0  0  0  0  0  0  0  0  0  0
    0.5805    8.8948   -5.5532 C   0  0  0  0  0  0  0  0  0  0  0  0
   -0.4341    8.3815   -6.3542 C   0  0  0  0  0  0  0  0  0  0  0  0
   -0.6965    8.9550   -7.6039 N   0  0  0  0  0  0  0  0  0  0  0  0
   -1.5864    8.5050   -8.3068 O   0  0  0  0  0  0  0  0  0  0  0  0
   -0.0408    9.8970   -7.9870 O   0  0  0  0  0  0  0  0  0  0  0  0
   -1.1984    7.2989   -5.9303 C   0  0  0  0  0  0  0  0  0  0  0  0
   -0.9374    6.7294   -4.6881 C   0  0  0  0  0  0  0  0  0  0  0  0
   -0.3208    5.6131   -2.0926 C   0  0  0  0  0  0  0  0  0  0  0  0
  1  2  1  0
  2  3  2  0
  3  4  1  0
  4  5  2  0
  5  6  1  0
  6  7  1  0
  7  8  2  0
  7  9  1  0
  9 10  2  0
  9 11  1  0
 11 12  1  0
 12 13  2  0
 13 14  1  0
 14 15  2  0
 15 16  1  0
 16 17  2  0
 17 12  1  0
 15 18  1  0
 18 19  1  0
 18 20  1  0
 18 21  1  0
  5 22  1  0
 22 23  2  0
 23  2  1  0
  3 24  1  0
 24 25  1  0
 25 26  2  0
 26 27  1  0
 27 28  1  0
 28 29  2  0
 29 30  1  0
 30 31  2  0
 31 32  1  0
 32 33  1  0
 32 34  2  0
 31 35  1  0
 35 36  2  0
 36 28  1  0
 27 37  1  0
 24 37  2  0
M  CHG  2  32   1  33  -1
M  END
$$$$
s_2____11687950____9397400____7025780
     RDKit          3D

 42 47  0  0  0  0  0  0  0  0999 V2000
    8.6746    4.8465    6.5666 S   0  0  0  0  0  0  0  0  0  0  0  0
    7.7920    5.6072    7.4126 O   0  0  0  0  0  0  0  0  0  0  0  0
    9.3913    3.8840    7.3627 O   0  0  0  0  0  0  0  0  0  0  0  0
    9.7352    5.8517    5.8444 N   0  0  0  0  0  0  0  0  0  0  0  0
    7.7433    4.0173    5.3535 C   0  0  0  0  0  0  0  0  0  0  0  0
    8.0233    4.2276    4.0074 C   0  0  0  0  0  0  0  0  0  0  0  0
    7.2750    3.5624    3.0423 C   0  0  0  0  0  0  0  0  0  0  0  0
    6.2585    2.6964    3.4312 C   0  0  0  0  0  0  0  0  0  0  0  0
    5.5094    2.0301    2.4537 N   0  0  0  0  0  0  0  0  0  0  0  0
    4.2406    2.1295    2.4468 C   0  0  0  0  0  0  0  0  0  0  0  0
    3.3299    3.5681    2.4036 S   0  0  0  0  0  0  0  0  0  0  0  0
    1.7813    2.8529    2.4247 C   0  0  0  0  0  0  0  0  0  0  0  0
    2.0334    1.5154    2.4653 C   0  0  0  0  0  0  0  0  0  0  0  0
    3.3388    1.1121    2.4746 N   0  0  0  0  0  0  0  0  0  0  0  0
    3.7804   -0.2891    2.5193 C   0  0  0  0  0  0  0  0  0  0  0  0
    3.8190   -0.8540    1.1069 C   0  0  0  0  0  0  0  0  0  0  0  0
    2.7564   -1.4566    0.5488 N   0  0  0  0  0  0  0  0  0  0  0  0
    2.7518   -1.9668   -0.6966 C   0  0  0  0  0  0  0  0  0  0  0  0
    3.9108   -1.8558   -1.4603 C   0  0  0  0  0  0  0  0  0  0  0  0
    5.0417   -1.2478   -0.9263 C   0  0  0  0  0  0  0  0  0  0  0  0
    4.9925   -0.7413    0.3685 C   0  0  0  0  0  0  0  0  0  0  0  0
    3.9982   -2.3670   -2.8900 C   0  0  0  0  0  0  0  0  0  0  0  0
    2.9199   -3.3826   -3.2376 C   0  0  0  0  0  0  0  0  0  0  0  0
    1.5778   -2.8168   -2.8014 C   0  0  0  0  0  0  0  0  0  0  0  0
    1.5344   -2.6754   -1.2882 C   0  0  0  0  0  0  0  0  0  0  0  0
    0.9034    0.6099    2.4960 C   0  0  0  0  0  0  0  0  0  0  0  0
    0.8739   -0.6185    3.0843 N   0  0  0  0  0  0  0  0  0  0  0  0
   -0.2761   -1.1075    2.9041 N   0  0  0  0  0  0  0  0  0  0  0  0
   -1.0371   -0.2799    2.2304 N   0  0  0  0  0  0  0  0  0  0  0  0
   -2.3688   -0.5119    1.8634 C   0  0  0  0  0  0  0  0  0  0  0  0
   -3.2171    0.5678    1.6415 C   0  0  0  0  0  0  0  0  0  0  0  0
   -4.5374    0.3249    1.2778 C   0  0  0  0  0  0  0  0  0  0  0  0
   -5.0125   -0.9745    1.1358 C   0  0  0  0  0  0  0  0  0  0  0  0
   -4.1453   -2.0386    1.3627 C   0  0  0  0  0  0  0  0  0  0  0  0
   -2.8213   -1.8197    1.7271 C   0  0  0  0  0  0  0  0  0  0  0  0
   -5.4697    1.5007    1.0342 C   0  0  0  0  0  0  0  0  0  0  0  0
   -5.4106    1.8555   -0.2462 F   0  0  0  0  0  0  0  0  0  0  0  0
   -6.7155    1.1495    1.3399 F   0  0  0  0  0  0  0  0  0  0  0  0
   -5.0985    2.5259    1.7959 F   0  0  0  0  0  0  0  0  0  0  0  0
   -0.3180    0.8389    1.9475 C   0  0  0  0  0  0  0  0  0  0  0  0
    5.9835    2.4907    4.7785 C   0  0  0  0  0  0  0  0  0  0  0  0
    6.7279    3.1530    5.7488 C   0  0  0  0  0  0  0  0  0  0  0  0
  1  2  2  0
  1  3  2  0
  1  4  1  0
  1  5  1  0
  5  6  2  0
  6  7  1  0
  7  8  2  0
  8  9  1  0
  9 10  2  0
 10 11  1  0
 11 12  1  0
 12 13  2  0
 13 14  1  0
 14 10  1  0
 14 15  1  0
 15 16  1  0
 16 17  2  0
 17 18  1  0
 18 19  2  0
 19 20  1  0
 20 21  2  0
 21 16  1  0
 19 22  1  0
 22 23  1  0
 23 24  1  0
 24 25  1  0
 25 18  1  0
 13 26  1  0
 26 27  1  0
 27 28  2  0
 28 29  1  0
 29 30  1  0
 30 31  2  0
 31 32  1  0
 32 33  2  0
 33 34  1  0
 34 35  2  0
 35 30  1  0
 32 36  1  0
 36 37  1  0
 36 38  1  0
 36 39  1  0
 29 40  1  0
 26 40  2  0
  8 41  1  0
 41 42  2  0
 42  5  1  0
M  END
$$$$
s_49a____88916____88937
     RDKit          3D

 35 39  0  0  0  0  0  0  0  0999 V2000
    0.4648    3.7275    2.5286 S   0  0  0  0  0  0  0  0  0  0  0  0
   -0.5206    2.9314    3.2133 O   0  0  0  0  0  0  0  0  0  0  0  0
    0.6251    4.9849    3.2117 O   0  0  0  0  0  0  0  0  0  0  0  0
    1.9839    2.8799    2.5100 C   0  0  0  0  0  0  0  0  0  0  0  0
    3.1739    3.5998    2.5018 C   0  0  0  0  0  0  0  0  0  0  0  0
    4.3852    2.9166    2.4862 C   0  0  0  0  0  0  0  0  0  0  0  0
    4.3944    1.5259    2.4798 C   0  0  0  0  0  0  0  0  0  0  0  0
    5.6193    0.8443    2.4642 N   0  0  0  0  0  0  0  0  0  0  0  0
    5.9905    0.1847    3.5482 N   0  0  0  0  0  0  0  0  0  0  0  0
    7.1300   -0.4822    3.6139 C   0  0  0  0  0  0  0  0  0  0  0  0
    8.0070   -0.5074    2.4916 C   0  0  0  0  0  0  0  0  0  0  0  0
    7.6376    0.1782    1.3384 C   0  0  0  0  0  0  0  0  0  0  0  0
    8.4876    0.1596    0.2336 C   0  0  0  0  0  0  0  0  0  0  0  0
    9.6984   -0.5246    0.2456 C   0  0  0  0  0  0  0  0  0  0  0  0
   10.0710   -1.2120    1.3962 C   0  0  0  0  0  0  0  0  0  0  0  0
    9.2221   -1.1926    2.4980 C   0  0  0  0  0  0  0  0  0  0  0  0
    6.3976    0.8764    1.3355 C   0  0  0  0  0  0  0  0  0  0  0  0
    6.0040    1.5026    0.3620 O   0  0  0  0  0  0  0  0  0  0  0  0
    7.4355   -1.1691    4.8555 C   0  0  0  0  0  0  0  0  0  0  0  0
    7.5389   -0.4334    6.0319 C   0  0  0  0  0  0  0  0  0  0  0  0
    7.8326   -1.0878    7.2242 C   0  0  0  0  0  0  0  0  0  0  0  0
    8.0194   -2.4676    7.2357 C   0  0  0  0  0  0  0  0  0  0  0  0
    7.9126   -3.1972    6.0554 C   0  0  0  0  0  0  0  0  0  0  0  0
    7.6201   -2.5479    4.8604 C   0  0  0  0  0  0  0  0  0  0  0  0
    8.3405   -3.2089    8.5233 C   0  0  0  0  0  0  0  0  0  0  0  0
    7.9489   -0.2941    8.5157 C   0  0  0  0  0  0  0  0  0  0  0  0
    3.2012    0.8122    2.4878 C   0  0  0  0  0  0  0  0  0  0  0  0
    1.9865    1.4891    2.5031 C   0  0  0  0  0  0  0  0  0  0  0  0
   -0.0575    4.0176    0.8946 C   0  0  0  0  0  0  0  0  0  0  0  0
   -0.8530    3.0795    0.2457 C   0  0  0  0  0  0  0  0  0  0  0  0
   -1.2719    3.3092   -1.0609 C   0  0  0  0  0  0  0  0  0  0  0  0
   -0.8855    4.4810   -1.7027 C   0  0  0  0  0  0  0  0  0  0  0  0
   -0.0894    5.4187   -1.0530 C   0  0  0  0  0  0  0  0  0  0  0  0
    0.3290    5.1899    0.2531 C   0  0  0  0  0  0  0  0  0  0  0  0
   -1.3395    4.7362   -3.1304 C   0  0  0  0  0  0  0  0  0  0  0  0
  1  2  2  0
  1  3  2  0
  1  4  1  0
  4  5  2  0
  5  6  1  0
  6  7  2  0
  7  8  1  0
  8  9  1  0
  9 10  2  0
 10 11  1  0
 11 12  2  0
 12 13  1  0
 13 14  2  0
 14 15  1  0
 15 16  2  0
 16 11  1  0
 12 17  1  0
 17  8  1  0
 17 18  2  0
 10 19  1  0
 19 20  2  0
 20 21  1  0
 21 22  2  0
 22 23  1  0
 23 24  2  0
 24 19  1  0
 22 25  1  0
 21 26  1  0
  7 27  1  0
 27 28  2  0
 28  4  1  0
  1 29  1  0
 29 30  2  0
 30 31  1  0
 31 32  2  0
 32 33  1  0
 33 34  2  0
 34 29  1  0
 32 35  1  0
M  END
$$$$
s_17____13608250____62255
     RDKit          3D

 42 47  0  0  0  0  0  0  0  0999 V2000
   -1.7398    5.5548    4.8295 S   0  0  0  0  0  0  0  0  0  0  0  0
   -3.1693    5.3815    4.8174 O   0  0  0  0  0  0  0  0  0  0  0  0
   -1.1929    4.9486    6.0157 O   0  0  0  0  0  0  0  0  0  0  0  0
   -1.3852    7.1457    4.8194 N   0  0  0  0  0  0  0  0  0  0  0  0
   -2.1321    8.0244    4.0255 C   0  0  0  0  0  0  0  0  0  0  0  0
   -3.2357    8.6725    4.5694 C   0  0  0  0  0  0  0  0  0  0  0  0
   -3.5757    8.4567    5.8367 F   0  0  0  0  0  0  0  0  0  0  0  0
   -3.9892    9.5491    3.7956 C   0  0  0  0  0  0  0  0  0  0  0  0
   -3.6221    9.7662    2.4719 C   0  0  0  0  0  0  0  0  0  0  0  0
   -2.5197    9.1195    1.9236 C   0  0  0  0  0  0  0  0  0  0  0  0
   -1.7690    8.2447    2.7009 C   0  0  0  0  0  0  0  0  0  0  0  0
   -1.0518    4.7982    3.4214 C   0  0  0  0  0  0  0  0  0  0  0  0
    0.1689    4.1389    3.5195 C   0  0  0  0  0  0  0  0  0  0  0  0
    0.7023    3.5410    2.3828 C   0  0  0  0  0  0  0  0  0  0  0  0
    1.9309    2.8769    2.4773 N   0  0  0  0  0  0  0  0  0  0  0  0
    3.1164    3.6256    2.4609 C   0  0  0  0  0  0  0  0  0  0  0  0
    3.0534    4.8398    2.3993 O   0  0  0  0  0  0  0  0  0  0  0  0
    4.3855    2.9320    2.4986 C   0  0  0  0  0  0  0  0  0  0  0  0
    4.4510    1.5464    2.6070 C   0  0  0  0  0  0  0  0  0  0  0  0
    5.6715    0.8750    2.5931 C   0  0  0  0  0  0  0  0  0  0  0  0
    6.8565    1.5883    2.4894 C   0  0  0  0  0  0  0  0  0  0  0  0
    6.8193    2.9747    2.4197 C   0  0  0  0  0  0  0  0  0  0  0  0
    5.5910    3.6248    2.4127 C   0  0  0  0  0  0  0  0  0  0  0  0
    3.2136    0.8092    2.7554 C   0  0  0  0  0  0  0  0  0  0  0  0
    1.9363    1.4806    2.5853 C   0  0  0  0  0  0  0  0  0  0  0  0
    0.8901    0.8552    2.5327 O   0  0  0  0  0  0  0  0  0  0  0  0
    3.1926   -0.4694    3.1142 C   0  0  0  0  0  0  0  0  0  0  0  0
    3.0297   -1.4445    2.1658 N   0  0  0  0  0  0  0  0  0  0  0  0
    3.0076   -2.7924    2.5441 C   0  0  0  0  0  0  0  0  0  0  0  0
    2.8123   -4.0956    1.4629 S   0  0  0  0  0  0  0  0  0  0  0  0
    2.8934   -5.3024    2.6622 C   0  0  0  0  0  0  0  0  0  0  0  0
    3.0752   -4.6497    3.8469 C   0  0  0  0  0  0  0  0  0  0  0  0
    3.1310   -3.2788    3.7618 N   0  0  0  0  0  0  0  0  0  0  0  0
    3.1843   -5.5186    5.0947 C   0  0  0  0  0  0  0  0  0  0  0  0
    2.7218   -6.9513    4.8834 C   0  0  0  0  0  0  0  0  0  0  0  0
    3.3803   -7.5079    3.6325 C   0  0  0  0  0  0  0  0  0  0  0  0
    2.7707   -6.7978    2.4350 C   0  0  0  0  0  0  0  0  0  0  0  0
    2.3696   -4.8681    6.2019 C   0  0  0  0  0  0  0  0  0  0  0  0
    2.4599   -5.7143    7.4614 C   0  0  0  0  0  0  0  0  0  0  0  0
    0.0316    3.5980    1.1653 C   0  0  0  0  0  0  0  0  0  0  0  0
   -1.1885    4.2607    1.0806 C   0  0  0  0  0  0  0  0  0  0  0  0
   -1.7330    4.8630    2.2102 C   0  0  0  0  0  0  0  0  0  0  0  0
  1  2  2  0
  1  3  2  0
  1  4  1  0
  4  5  1  0
  5  6  2  0
  6  7  1  0
  6  8  1  0
  8  9  2  0
  9 10  1  0
 10 11  2  0
 11  5  1  0
  1 12  1  0
 12 13  2  0
 13 14  1  0
 14 15  1  0
 15 16  1  0
 16 17  2  0
 16 18  1  0
 18 19  2  0
 19 20  1  0
 20 21  2  0
 21 22  1  0
 22 23  2  0
 23 18  1  0
 19 24  1  0
 24 25  1  0
 25 15  1  0
 25 26  2  0
 24 27  2  0
 27 28  1  0
 28 29  1  0
 29 30  1  0
 30 31  1  0
 31 32  2  0
 32 33  1  0
 29 33  2  0
 32 34  1  0
 34 35  1  0
 35 36  1  0
 36 37  1  0
 37 31  1  0
 34 38  1  0
 38 39  1  0
 14 40  2  0
 40 41  1  0
 41 42  2  0
 42 12  1  0
M  END
$$$$
s_270196____17314194____8779416
     RDKit          3D

 34 38  0  0  0  0  0  0  0  0999 V2000
    1.0000    1.0000    1.0000 S   0  0  0  0  0  0  0  0  0  0  0  0
   -0.2666    1.6504    0.7848 O   0  0  0  0  0  0  0  0  0  0  0  0
    0.7848   -0.2666    1.6504 O   0  0  0  0  0  0  0  0  0  0  0  0
    1.7363    0.7563   -0.4337 N   0  0  0  0  0  0  0  0  0  0  0  0
    1.3560    1.5074   -1.5525 C   0  0  0  0  0  0  0  0  0  0  0  0
    1.9946    2.7138   -1.8216 C   0  0  0  0  0  0  0  0  0  0  0  0
    1.6142    3.4570   -2.9341 C   0  0  0  0  0  0  0  0  0  0  0  0
    0.6024    2.9928   -3.7677 C   0  0  0  0  0  0  0  0  0  0  0  0
   -0.0287    1.7850   -3.4893 C   0  0  0  0  0  0  0  0  0  0  0  0
    0.3431    1.0333   -2.3796 C   0  0  0  0  0  0  0  0  0  0  0  0
    2.7994   -0.2519   -0.5520 C   0  0  0  0  0  0  0  0  0  0  0  0
    2.1875   -1.5919   -0.9265 C   0  0  0  0  0  0  0  0  0  0  0  0
    2.0045    2.0045    2.0045 C   0  0  0  0  0  0  0  0  0  0  0  0
    1.8611    3.3871    1.9566 C   0  0  0  0  0  0  0  0  0  0  0  0
    2.6713    4.1779    2.7649 C   0  0  0  0  0  0  0  0  0  0  0  0
    3.6142    3.6035    3.6112 C   0  0  0  0  0  0  0  0  0  0  0  0
    3.7415    2.2187    3.6444 C   0  0  0  0  0  0  0  0  0  0  0  0
    2.9408    1.4099    2.8445 C   0  0  0  0  0  0  0  0  0  0  0  0
    2.5242    5.6201    2.7173 C   0  0  0  0  0  0  0  0  0  0  0  0
    1.6764    6.2779    1.9644 O   0  0  0  0  0  0  0  0  0  0  0  0
    1.8072    7.5223    2.1662 N   0  0  0  0  0  0  0  0  0  0  0  0
    2.7504    7.7067    3.0601 C   0  0  0  0  0  0  0  0  0  0  0  0
    3.2167    6.4817    3.4181 N   0  0  0  0  0  0  0  0  0  0  0  0
    3.2118    8.9846    3.5695 C   0  0  0  0  0  0  0  0  0  0  0  0
    4.1855    9.0957    4.4874 N   0  0  0  0  0  0  0  0  0  0  0  0
    4.5901   10.2945    4.9392 C   0  0  0  0  0  0  0  0  0  0  0  0
    4.0023   11.4749    4.5006 C   0  0  0  0  0  0  0  0  0  0  0  0
    3.0035   11.3740    3.5407 C   0  0  0  0  0  0  0  0  0  0  0  0
    2.6009   10.1293    3.0683 C   0  0  0  0  0  0  0  0  0  0  0  0
    4.4189   12.8259    5.0537 C   0  0  0  0  0  0  0  0  0  0  0  0
    5.7956   12.7629    5.6922 C   0  0  0  0  0  0  0  0  0  0  0  0
    5.7670   11.6427    6.7204 C   0  0  0  0  0  0  0  0  0  0  0  0
    5.7228   10.3336    5.9507 C   0  0  0  0  0  0  0  0  0  0  0  0
    6.0772   14.1022    6.3536 C   0  0  0  0  0  0  0  0  0  0  0  0
  1  2  2  0
  1  3  2  0
  1  4  1  0
  4  5  1  0
  5  6  2  0
  6  7  1  0
  7  8  2  0
  8  9  1  0
  9 10  2  0
 10  5  1  0
  4 11  1  0
 11 12  1  0
  1 13  1  0
 13 14  2  0
 14 15  1  0
 15 16  2  0
 16 17  1  0
 17 18  2  0
 18 13  1  0
 15 19  1  0
 19 20  1  0
 20 21  1  0
 21 22  2  0
 22 23  1  0
 19 23  2  0
 22 24  1  0
 24 25  2  0
 25 26  1  0
 26 27  2  0
 27 28  1  0
 28 29  2  0
 29 24  1  0
 27 30  1  0
 30 31  1  0
 31 32  1  0
 32 33  1  0
 33 26  1  0
 31 34  1  0
M  END
$$$$
s_270036a____7565024____9892446
     RDKit          3D

 35 40  0  0  0  0  0  0  0  0999 V2000
    6.6938    0.9932    3.1760 O   0  0  0  0  0  0  0  0  0  0  0  0
    7.5789    0.1168    2.9481 N   0  0  0  0  0  0  0  0  0  0  0  0
    7.0925   -0.7614    2.1078 C   0  0  0  0  0  0  0  0  0  0  0  0
    5.8175   -0.3877    1.8079 N   0  0  0  0  0  0  0  0  0  0  0  0
    5.6088    0.7096    2.4942 C   0  0  0  0  0  0  0  0  0  0  0  0
    4.3812    1.4826    2.4982 C   0  0  0  0  0  0  0  0  0  0  0  0
    4.3698    2.8769    2.4981 C   0  0  0  0  0  0  0  0  0  0  0  0
    3.1472    3.5433    2.5017 C   0  0  0  0  0  0  0  0  0  0  0  0
    2.0021    2.8437    2.5053 N   0  0  0  0  0  0  0  0  0  0  0  0
    1.9969    1.5018    2.5051 C   0  0  0  0  0  0  0  0  0  0  0  0
    0.7564    0.7539    2.5084 C   0  0  0  0  0  0  0  0  0  0  0  0
   -0.4580    1.4326    2.5118 C   0  0  0  0  0  0  0  0  0  0  0  0
   -1.6460    0.7096    2.5159 C   0  0  0  0  0  0  0  0  0  0  0  0
   -1.6063   -0.6812    2.5155 C   0  0  0  0  0  0  0  0  0  0  0  0
   -0.3912   -1.3593    2.5096 C   0  0  0  0  0  0  0  0  0  0  0  0
    0.7971   -0.6362    2.5070 C   0  0  0  0  0  0  0  0  0  0  0  0
   -2.9079   -1.4656    2.5214 C   0  0  0  0  0  0  0  0  0  0  0  0
   -2.9896   -2.3452    1.2843 C   0  0  0  0  0  0  0  0  0  0  0  0
   -4.2910   -3.1309    1.2881 C   0  0  0  0  0  0  0  0  0  0  0  0
   -4.3804   -3.9863    2.5416 C   0  0  0  0  0  0  0  0  0  0  0  0
   -4.3002   -3.1070    3.7791 C   0  0  0  0  0  0  0  0  0  0  0  0
   -2.9990   -2.3209    3.7748 C   0  0  0  0  0  0  0  0  0  0  0  0
    3.1833    0.7780    2.5015 C   0  0  0  0  0  0  0  0  0  0  0  0
    3.1251    4.9345    2.5024 C   0  0  0  0  0  0  0  0  0  0  0  0
    4.3041    5.6719    2.4991 C   0  0  0  0  0  0  0  0  0  0  0  0
    5.5319    5.0200    2.4952 C   0  0  0  0  0  0  0  0  0  0  0  0
    5.5429    3.6294    2.4950 C   0  0  0  0  0  0  0  0  0  0  0  0
    7.8207   -1.9788    1.5649 C   0  0  0  0  0  0  0  0  0  0  0  0
    9.1180   -2.1162    2.2423 N   0  0  0  0  0  0  0  0  0  0  0  0
    8.0445   -1.8108    0.0706 C   0  0  0  0  0  0  0  0  0  0  0  0
    8.9537   -0.8630   -0.3877 C   0  0  0  0  0  0  0  0  0  0  0  0
    9.1549   -0.7119   -1.7559 C   0  0  0  0  0  0  0  0  0  0  0  0
    8.4504   -1.5063   -2.6544 C   0  0  0  0  0  0  0  0  0  0  0  0
    7.5451   -2.4502   -2.1851 C   0  0  0  0  0  0  0  0  0  0  0  0
    7.3345   -2.6104   -0.8195 C   0  0  0  0  0  0  0  0  0  0  0  0
  1  2  1  0
  2  3  2  0
  3  4  1  0
  4  5  2  0
  5  1  1  0
  5  6  1  0
  6  7  2  0
  7  8  1  0
  8  9  2  0
  9 10  1  0
 10 11  1  0
 11 12  2  0
 12 13  1  0
 13 14  2  0
 14 15  1  0
 15 16  2  0
 16 11  1  0
 14 17  1  0
 17 18  1  0
 18 19  1  0
 19 20  1  0
 20 21  1  0
 21 22  1  0
 22 17  1  0
 10 23  2  0
 23  6  1  0
  8 24  1  0
 24 25  2  0
 25 26  1  0
 26 27  2  0
 27  7  1  0
  3 28  1  0
 28 29  1  0
 28 30  1  0
 30 31  2  0
 31 32  1  0
 32 33  2  0
 33 34  1  0
 34 35  2  0
 35 30  1  0
M  CHG  1  29   1
M  END
$$$$
s_22____15097550____59834
     RDKit          3D

 40 43  0  0  0  0  0  0  0  0999 V2000
    2.3192   -1.3174    0.6789 S   0  0  0  0  0  0  0  0  0  0  0  0
    3.4748   -1.7472   -0.0651 O   0  0  0  0  0  0  0  0  0  0  0  0
    2.6503   -1.2413    2.0783 O   0  0  0  0  0  0  0  0  0  0  0  0
    1.8487    0.1513    0.1513 N   0  0  0  0  0  0  0  0  0  0  0  0
    2.2529    0.6046   -1.1104 C   0  0  0  0  0  0  0  0  0  0  0  0
    3.4376    1.3213   -1.2420 C   0  0  0  0  0  0  0  0  0  0  0  0
    3.8413    1.7735   -2.4942 C   0  0  0  0  0  0  0  0  0  0  0  0
    3.0473    1.4982   -3.6030 C   0  0  0  0  0  0  0  0  0  0  0  0
    1.8621    0.7818   -3.4742 C   0  0  0  0  0  0  0  0  0  0  0  0
    1.4610    0.3312   -2.2208 C   0  0  0  0  0  0  0  0  0  0  0  0
    3.4861    1.9913   -4.9721 C   0  0  0  0  0  0  0  0  0  0  0  0
    1.0000    1.0000    1.0000 C   0  0  0  0  0  0  0  0  0  0  0  0
    1.8776    1.8776    1.8776 C   0  0  0  0  0  0  0  0  0  0  0  0
    1.0000    2.7551    2.7551 C   0  0  0  0  0  0  0  0  0  0  0  0
   -0.1557    2.4760    2.9179 O   0  0  0  0  0  0  0  0  0  0  0  0
    1.5284    3.8649    3.3603 N   0  0  0  0  0  0  0  0  0  0  0  0
    0.6816    4.8360    3.9003 C   0  0  0  0  0  0  0  0  0  0  0  0
    0.0699    5.7577    3.0617 C   0  0  0  0  0  0  0  0  0  0  0  0
   -0.7754    6.7340    3.5753 C   0  0  0  0  0  0  0  0  0  0  0  0
   -0.9953    6.7641    4.9538 C   0  0  0  0  0  0  0  0  0  0  0  0
   -0.3773    5.8382    5.7831 C   0  0  0  0  0  0  0  0  0  0  0  0
    0.4695    4.8622    5.2728 C   0  0  0  0  0  0  0  0  0  0  0  0
   -1.9179    7.7882    5.6043 C   0  0  0  0  0  0  0  0  0  0  0  0
   -2.1970    8.9709    4.6862 C   0  0  0  0  0  0  0  0  0  0  0  0
   -2.5575    8.5037    3.2829 C   0  0  0  0  0  0  0  0  0  0  0  0
   -1.4184    7.7401    2.6214 C   0  0  0  0  0  0  0  0  0  0  0  0
   -1.8444    7.1108    1.3026 C   0  0  0  0  0  0  0  0  0  0  0  0
   -0.3700    8.7827    2.2740 C   0  0  0  0  0  0  0  0  0  0  0  0
   -1.4171    8.2782    6.9550 C   0  0  0  0  0  0  0  0  0  0  0  0
   -3.2702    7.1217    5.8382 C   0  0  0  0  0  0  0  0  0  0  0  0
    1.0250   -2.4580    0.4502 C   0  0  0  0  0  0  0  0  0  0  0  0
    0.9356   -3.1700   -0.7417 C   0  0  0  0  0  0  0  0  0  0  0  0
   -0.1041   -4.0782   -0.9108 C   0  0  0  0  0  0  0  0  0  0  0  0
   -1.0470   -4.2807    0.0914 C   0  0  0  0  0  0  0  0  0  0  0  0
   -0.9394   -3.5587    1.2756 C   0  0  0  0  0  0  0  0  0  0  0  0
    0.0923   -2.6450    1.4651 C   0  0  0  0  0  0  0  0  0  0  0  0
   -0.2003   -4.8560   -2.2134 C   0  0  0  0  0  0  0  0  0  0  0  0
    0.4850   -5.9905   -2.1040 F   0  0  0  0  0  0  0  0  0  0  0  0
   -1.4755   -5.1314   -2.4722 F   0  0  0  0  0  0  0  0  0  0  0  0
    0.3054   -4.1263   -3.2038 F   0  0  0  0  0  0  0  0  0  0  0  0
  1  2  2  0
  1  3  2  0
  1  4  1  0
  4  5  1  0
  5  6  2  0
  6  7  1  0
  7  8  2  0
  8  9  1  0
  9 10  2  0
 10  5  1  0
  8 11  1  0
  4 12  1  0
 12 13  1  0
 13 14  1  0
 14 15  2  0
 14 16  1  0
 16 17  1  0
 17 18  2  0
 18 19  1  0
 19 20  2  0
 20 21  1  0
 21 22  2  0
 22 17  1  0
 20 23  1  0
 23 24  1  0
 24 25  1  0
 25 26  1  0
 26 19  1  0
 26 27  1  0
 26 28  1  0
 23 29  1  0
 23 30  1  0
  1 31  1  0
 31 32  2  0
 32 33  1  0
 33 34  2  0
 34 35  1  0
 35 36  2  0
 36 31  1  0
 33 37  1  0
 37 38  1  0
 37 39  1  0
 37 40  1  0
M  END
$$$$
s_42a____8631722____125131
     RDKit          3D

 39 44  0  0  0  0  0  0  0  0999 V2000
    3.8284   -0.0313   -0.2683 Cl  0  0  0  0  0  0  0  0  0  0  0  0
    4.1349   -0.8530    1.2807 C   0  0  0  0  0  0  0  0  0  0  0  0
    3.8863   -0.1900    2.4777 C   0  0  0  0  0  0  0  0  0  0  0  0
    4.1179   -0.8263    3.6331 N   0  0  0  0  0  0  0  0  0  0  0  0
    4.5782   -2.0695    3.5550 C   0  0  0  0  0  0  0  0  0  0  0  0
    4.8548   -2.8585    5.0319 S   0  0  0  0  0  0  0  0  0  0  0  0
    5.3961   -4.2774    4.2732 C   0  0  0  0  0  0  0  0  0  0  0  0
    5.3750   -4.1006    2.9176 C   0  0  0  0  0  0  0  0  0  0  0  0
    4.8914   -2.8442    2.4653 C   0  0  0  0  0  0  0  0  0  0  0  0
    4.6269   -2.1535    1.2829 C   0  0  0  0  0  0  0  0  0  0  0  0
    4.8739   -2.7976    0.0074 C   0  0  0  0  0  0  0  0  0  0  0  0
    6.1251   -2.6687   -0.5856 C   0  0  0  0  0  0  0  0  0  0  0  0
    6.3715   -3.2819   -1.8099 C   0  0  0  0  0  0  0  0  0  0  0  0
    5.3636   -4.0169   -2.4252 C   0  0  0  0  0  0  0  0  0  0  0  0
    5.5937   -4.6167   -3.6124 O   0  0  0  0  0  0  0  0  0  0  0  0
    6.8652   -4.4975   -4.2335 C   0  0  0  0  0  0  0  0  0  0  0  0
    4.1121   -4.1453   -1.8317 C   0  0  0  0  0  0  0  0  0  0  0  0
    3.8653   -3.5320   -0.6079 C   0  0  0  0  0  0  0  0  0  0  0  0
    5.8844   -5.3094    2.1430 C   0  0  0  0  0  0  0  0  0  0  0  0
    5.8694   -6.5908    2.9557 C   0  0  0  0  0  0  0  0  0  0  0  0
    6.6538   -6.3292    4.2309 C   0  0  0  0  0  0  0  0  0  0  0  0
    5.7938   -5.4619    5.1320 C   0  0  0  0  0  0  0  0  0  0  0  0
    6.9071   -7.6135    5.0013 C   0  0  0  0  0  0  0  0  0  0  0  0
    3.3826    1.1685    2.4805 C   0  0  0  0  0  0  0  0  0  0  0  0
    4.1359    2.3007    2.4859 C   0  0  0  0  0  0  0  0  0  0  0  0
    3.2897    3.3668    2.4895 N   0  0  0  0  0  0  0  0  0  0  0  0
    2.0091    2.9073    2.4875 C   0  0  0  0  0  0  0  0  0  0  0  0
    2.0206    1.5457    2.4823 C   0  0  0  0  0  0  0  0  0  0  0  0
    0.7608    3.7746    2.4905 C   0  0  0  0  0  0  0  0  0  0  0  0
    3.6931    4.7811    2.4934 C   0  0  0  0  0  0  0  0  0  0  0  0
    3.8313    5.2725    1.0617 C   0  0  0  0  0  0  0  0  0  0  0  0
    4.2479    6.7336    1.0657 C   0  0  0  0  0  0  0  0  0  0  0  0
    5.5995    7.0616    1.0659 C   0  0  0  0  0  0  0  0  0  0  0  0
    5.9730    8.4017    1.0690 C   0  0  0  0  0  0  0  0  0  0  0  0
    5.0000    9.3950    1.0712 C   0  0  0  0  0  0  0  0  0  0  0  0
    5.4833   11.1079    1.0742 Cl  0  0  0  0  0  0  0  0  0  0  0  0
    3.6481    9.0669    1.0707 C   0  0  0  0  0  0  0  0  0  0  0  0
    3.2746    7.7265    1.0676 C   0  0  0  0  0  0  0  0  0  0  0  0
    5.6550    2.3681    2.4871 C   0  0  0  0  0  0  0  0  0  0  0  0
  1  2  1  0
  2  3  2  0
  3  4  1  0
  4  5  2  0
  5  6  1  0
  6  7  1  0
  7  8  2  0
  8  9  1  0
  9  5  1  0
  9 10  2  0
 10  2  1  0
 10 11  1  0
 11 12  2  0
 12 13  1  0
 13 14  2  0
 14 15  1  0
 15 16  1  0
 14 17  1  0
 17 18  2  0
 18 11  1  0
  8 19  1  0
 19 20  1  0
 20 21  1  0
 21 22  1  0
 22  7  1  0
 21 23  1  0
  3 24  1  0
 24 25  2  0
 25 26  1  0
 26 27  1  0
 27 28  2  0
 28 24  1  0
 27 29  1  0
 26 30  1  0
 30 31  1  0
 31 32  1  0
 32 33  2  0
 33 34  1  0
 34 35  2  0
 35 36  1  0
 35 37  1  0
 37 38  2  0
 38 32  1  0
 25 39  1  0
M  END
$$$$
s_2____11687950____9397400____12433048
     RDKit          3D

 41 46  0  0  0  0  0  0  0  0999 V2000
   -7.0580   -0.6449    5.8047 Cl  0  0  0  0  0  0  0  0  0  0  0  0
   -5.6257   -1.0398    4.8250 C   0  0  0  0  0  0  0  0  0  0  0  0
   -5.5582   -0.6156    3.5021 C   0  0  0  0  0  0  0  0  0  0  0  0
   -4.4367   -0.9277    2.7414 C   0  0  0  0  0  0  0  0  0  0  0  0
   -3.3976   -1.6575    3.3090 C   0  0  0  0  0  0  0  0  0  0  0  0
   -2.3119   -1.9568    2.5642 O   0  0  0  0  0  0  0  0  0  0  0  0
   -1.2589   -1.1125    2.5358 C   0  0  0  0  0  0  0  0  0  0  0  0
   -0.9762   -0.3912    1.3805 C   0  0  0  0  0  0  0  0  0  0  0  0
    0.1122    0.4751    1.3605 C   0  0  0  0  0  0  0  0  0  0  0  0
    0.9034    0.6099    2.4960 C   0  0  0  0  0  0  0  0  0  0  0  0
    0.6208   -0.1107    3.6519 C   0  0  0  0  0  0  0  0  0  0  0  0
   -0.4671   -0.9771    3.6715 C   0  0  0  0  0  0  0  0  0  0  0  0
    2.0334    1.5154    2.4653 C   0  0  0  0  0  0  0  0  0  0  0  0
    3.3388    1.1121    2.4746 N   0  0  0  0  0  0  0  0  0  0  0  0
    4.2406    2.1295    2.4468 C   0  0  0  0  0  0  0  0  0  0  0  0
    3.3299    3.5681    2.4036 S   0  0  0  0  0  0  0  0  0  0  0  0
    1.7813    2.8529    2.4247 C   0  0  0  0  0  0  0  0  0  0  0  0
    5.5094    2.0301    2.4537 N   0  0  0  0  0  0  0  0  0  0  0  0
    6.2585    2.6964    3.4312 C   0  0  0  0  0  0  0  0  0  0  0  0
    7.2750    3.5624    3.0423 C   0  0  0  0  0  0  0  0  0  0  0  0
    8.0233    4.2276    4.0074 C   0  0  0  0  0  0  0  0  0  0  0  0
    7.7433    4.0173    5.3535 C   0  0  0  0  0  0  0  0  0  0  0  0
    8.6746    4.8465    6.5666 S   0  0  0  0  0  0  0  0  0  0  0  0
    7.7920    5.6072    7.4126 O   0  0  0  0  0  0  0  0  0  0  0  0
    9.3913    3.8840    7.3627 O   0  0  0  0  0  0  0  0  0  0  0  0
    9.7352    5.8517    5.8444 N   0  0  0  0  0  0  0  0  0  0  0  0
    6.7279    3.1530    5.7488 C   0  0  0  0  0  0  0  0  0  0  0  0
    5.9835    2.4907    4.7785 C   0  0  0  0  0  0  0  0  0  0  0  0
    3.7804   -0.2891    2.5193 C   0  0  0  0  0  0  0  0  0  0  0  0
    3.8189   -0.8539    1.1074 C   0  0  0  0  0  0  0  0  0  0  0  0
    2.7496   -1.4538    0.5615 N   0  0  0  0  0  0  0  0  0  0  0  0
    2.7467   -1.9516   -0.6810 C   0  0  0  0  0  0  0  0  0  0  0  0
    3.9135   -1.8743   -1.4346 C   0  0  0  0  0  0  0  0  0  0  0  0
    5.0489   -1.2596   -0.9182 C   0  0  0  0  0  0  0  0  0  0  0  0
    4.9956   -0.7418    0.3725 C   0  0  0  0  0  0  0  0  0  0  0  0
    3.9984   -2.4578   -2.8366 C   0  0  0  0  0  0  0  0  0  0  0  0
    2.6212   -2.6540   -3.4465 C   0  0  0  0  0  0  0  0  0  0  0  0
    1.8047   -3.4714   -2.4603 C   0  0  0  0  0  0  0  0  0  0  0  0
    1.4935   -2.5764   -1.2723 C   0  0  0  0  0  0  0  0  0  0  0  0
   -3.4715   -2.0788    4.6319 C   0  0  0  0  0  0  0  0  0  0  0  0
   -4.5903   -1.7703    5.3982 C   0  0  0  0  0  0  0  0  0  0  0  0
  1  2  1  0
  2  3  2  0
  3  4  1  0
  4  5  2  0
  5  6  1  0
  6  7  1  0
  7  8  2  0
  8  9  1  0
  9 10  2  0
 10 11  1  0
 11 12  2  0
 12  7  1  0
 10 13  1  0
 13 14  1  0
 14 15  1  0
 15 16  1  0
 16 17  1  0
 13 17  2  0
 15 18  2  0
 18 19  1  0
 19 20  2  0
 20 21  1  0
 21 22  2  0
 22 23  1  0
 23 24  2  0
 23 25  2  0
 23 26  1  0
 22 27  1  0
 27 28  2  0
 28 19  1  0
 14 29  1  0
 29 30  1  0
 30 31  2  0
 31 32  1  0
 32 33  2  0
 33 34  1  0
 34 35  2  0
 35 30  1  0
 33 36  1  0
 36 37  1  0
 37 38  1  0
 38 39  1  0
 39 32  1  0
  5 40  1  0
 40 41  2  0
 41  2  1  0
M  END
$$$$
s_42a____8631722____788740
     RDKit          3D

 35 39  0  0  0  0  0  0  0  0999 V2000
    9.4286    3.5906    1.4552 S   0  0  0  0  0  0  0  0  0  0  0  0
    8.5012    2.1870    1.2082 C   0  0  0  0  0  0  0  0  0  0  0  0
    7.1659    2.1916    1.1591 N   0  0  0  0  0  0  0  0  0  0  0  0
    6.5646    1.0107    1.0013 C   0  0  0  0  0  0  0  0  0  0  0  0
    5.1153    0.9996    1.0015 C   0  0  0  0  0  0  0  0  0  0  0  0
    4.4356    2.2130    1.0048 C   0  0  0  0  0  0  0  0  0  0  0  0
    3.0442    2.2043    1.0037 C   0  0  0  0  0  0  0  0  0  0  0  0
    2.3616    3.3689    1.0072 O   0  0  0  0  0  0  0  0  0  0  0  0
    3.0636    4.6033    1.0110 C   0  0  0  0  0  0  0  0  0  0  0  0
    2.3494    1.0000    1.0000 C   0  0  0  0  0  0  0  0  0  0  0  0
    1.0000    1.0000    1.0000 O   0  0  0  0  0  0  0  0  0  0  0  0
    0.2900   -0.2298    0.9962 C   0  0  0  0  0  0  0  0  0  0  0  0
   -1.2044    0.0480    0.9971 C   0  0  0  0  0  0  0  0  0  0  0  0
   -1.9144   -1.1818    0.9933 O   0  0  0  0  0  0  0  0  0  0  0  0
   -3.3105   -0.9223    0.9941 C   0  0  0  0  0  0  0  0  0  0  0  0
    3.0410   -0.2073    0.9974 C   0  0  0  0  0  0  0  0  0  0  0  0
    4.4325   -0.2122    0.9979 C   0  0  0  0  0  0  0  0  0  0  0  0
    7.3281   -0.1443    0.8612 C   0  0  0  0  0  0  0  0  0  0  0  0
    8.7173   -0.0686    0.8962 C   0  0  0  0  0  0  0  0  0  0  0  0
    9.3919    1.1408    1.0866 C   0  0  0  0  0  0  0  0  0  0  0  0
   10.7725    1.5162    1.1790 C   0  0  0  0  0  0  0  0  0  0  0  0
   10.9588    2.8482    1.4004 C   0  0  0  0  0  0  0  0  0  0  0  0
   12.2513    3.6077    1.5831 C   0  0  0  0  0  0  0  0  0  0  0  0
   13.0775    2.7145    2.4954 C   0  0  0  0  0  0  0  0  0  0  0  0
   13.2494    1.2979    1.9461 C   0  0  0  0  0  0  0  0  0  0  0  0
   12.1021    0.7677    1.0868 C   0  0  0  0  0  0  0  0  0  0  0  0
   14.4430    3.3650    2.6499 C   0  0  0  0  0  0  0  0  0  0  0  0
    9.4472   -1.3115    0.7370 C   0  0  0  0  0  0  0  0  0  0  0  0
    9.3170   -2.3023    1.7040 C   0  0  0  0  0  0  0  0  0  0  0  0
   10.0141   -3.4977    1.5609 C   0  0  0  0  0  0  0  0  0  0  0  0
   10.8320   -3.6874    0.4520 C   0  0  0  0  0  0  0  0  0  0  0  0
   11.5112   -4.8446    0.3037 O   0  0  0  0  0  0  0  0  0  0  0  0
   12.5224   -4.9524   -0.6874 C   0  0  0  0  0  0  0  0  0  0  0  0
   10.9621   -2.6959   -0.5150 C   0  0  0  0  0  0  0  0  0  0  0  0
   10.2656   -1.5004   -0.3719 C   0  0  0  0  0  0  0  0  0  0  0  0
  1  2  1  0
  2  3  2  0
  3  4  1  0
  4  5  1  0
  5  6  2  0
  6  7  1  0
  7  8  1  0
  8  9  1  0
  7 10  2  0
 10 11  1  0
 11 12  1  0
 12 13  1  0
 13 14  1  0
 14 15  1  0
 10 16  1  0
 16 17  2  0
 17  5  1  0
  4 18  2  0
 18 19  1  0
 19 20  2  0
 20  2  1  0
 20 21  1  0
 21 22  2  0
 22  1  1  0
 22 23  1  0
 23 24  1  0
 24 25  1  0
 25 26  1  0
 26 21  1  0
 24 27  1  0
 19 28  1  0
 28 29  2  0
 29 30  1  0
 30 31  2  0
 31 32  1  0
 32 33  1  0
 31 34  1  0
 34 35  2  0
 35 28  1  0
M  END
$$$$
s_1458____471490____10894128
     RDKit          3D

 38 41  0  0  0  0  0  0  0  0999 V2000
    0.4214    3.7482    2.5312 Cl  0  0  0  0  0  0  0  0  0  0  0  0
    1.9732    2.8775    2.5107 C   0  0  0  0  0  0  0  0  0  0  0  0
    3.1686    3.5899    2.5009 C   0  0  0  0  0  0  0  0  0  0  0  0
    3.1578    5.3300    2.5082 S   0  0  0  0  0  0  0  0  0  0  0  0
    2.4635    5.8106    1.3418 O   0  0  0  0  0  0  0  0  0  0  0  0
    2.4886    5.8008    3.6932 O   0  0  0  0  0  0  0  0  0  0  0  0
    4.6911    5.8829    2.4942 N   0  0  0  0  0  0  0  0  0  0  0  0
    5.2653    6.3232    1.2961 C   0  0  0  0  0  0  0  0  0  0  0  0
    5.9488    5.4190    0.4900 C   0  0  0  0  0  0  0  0  0  0  0  0
    6.5153    5.8683   -0.6981 C   0  0  0  0  0  0  0  0  0  0  0  0
    6.4061    7.2002   -1.0835 C   0  0  0  0  0  0  0  0  0  0  0  0
    5.7174    8.0863   -0.2611 C   0  0  0  0  0  0  0  0  0  0  0  0
    5.1429    7.6595    0.9311 C   0  0  0  0  0  0  0  0  0  0  0  0
    7.2640    4.8850   -1.5832 C   0  0  0  0  0  0  0  0  0  0  0  0
    6.4175    4.3344   -2.4489 F   0  0  0  0  0  0  0  0  0  0  0  0
    8.2220    5.5261   -2.2466 F   0  0  0  0  0  0  0  0  0  0  0  0
    7.8074    3.9341   -0.8286 F   0  0  0  0  0  0  0  0  0  0  0  0
    5.4709    5.9191    3.7398 C   0  0  0  0  0  0  0  0  0  0  0  0
    5.2636    7.2581    4.4286 C   0  0  0  0  0  0  0  0  0  0  0  0
    4.7584    7.3021    5.6256 C   0  0  0  0  0  0  0  0  0  0  0  0
    4.3860    2.9159    2.4858 C   0  0  0  0  0  0  0  0  0  0  0  0
    4.3932    1.5244    2.4803 C   0  0  0  0  0  0  0  0  0  0  0  0
    3.2028    0.8039    2.4901 C   0  0  0  0  0  0  0  0  0  0  0  0
    1.9898    1.4862    2.5055 C   0  0  0  0  0  0  0  0  0  0  0  0
    5.6615    0.8207    2.4636 C   0  0  0  0  0  0  0  0  0  0  0  0
    6.6903    1.4383    2.4547 O   0  0  0  0  0  0  0  0  0  0  0  0
    5.6838   -0.4891    2.4583 O   0  0  0  0  0  0  0  0  0  0  0  0
    6.9254   -1.1780    2.4420 C   0  0  0  0  0  0  0  0  0  0  0  0
    7.0344   -2.0544    3.6775 C   0  0  0  0  0  0  0  0  0  0  0  0
    5.9743   -2.8998    3.9849 C   0  0  0  0  0  0  0  0  0  0  0  0
    6.0792   -3.6859    5.1241 C   0  0  0  0  0  0  0  0  0  0  0  0
    7.1959   -3.6383    5.9323 C   0  0  0  0  0  0  0  0  0  0  0  0
    8.2496   -2.7972    5.6052 C   0  0  0  0  0  0  0  0  0  0  0  0
    8.1734   -1.9946    4.4722 C   0  0  0  0  0  0  0  0  0  0  0  0
    7.0008   -4.5825    7.0972 C   0  0  0  0  0  0  0  0  0  0  0  0
    5.9784   -5.5541    6.5616 C   0  0  0  0  0  0  0  0  0  0  0  0
    5.0885   -4.6701    5.7161 C   0  0  0  0  0  0  0  0  0  0  0  0
    7.0072   -2.0456    1.1966 C   0  0  0  0  0  0  0  0  0  0  0  0
  1  2  1  0
  2  3  2  0
  3  4  1  0
  4  5  2  0
  4  6  2  0
  4  7  1  0
  7  8  1  0
  8  9  2  0
  9 10  1  0
 10 11  2  0
 11 12  1  0
 12 13  2  0
 13  8  1  0
 10 14  1  0
 14 15  1  0
 14 16  1  0
 14 17  1  0
  7 18  1  0
 18 19  1  0
 19 20  2  0
  3 21  1  0
 21 22  2  0
 22 23  1  0
 23 24  2  0
 24  2  1  0
 22 25  1  0
 25 26  2  0
 25 27  1  0
 27 28  1  0
 28 29  1  0
 29 30  2  0
 30 31  1  0
 31 32  2  0
 32 33  1  0
 33 34  2  0
 34 29  1  0
 32 35  1  0
 35 36  1  0
 36 37  1  0
 37 31  1  0
 28 38  1  0
M  END
$$$$
s_1____86402____14589724____7025778
     RDKit          3D

 41 46  0  0  0  0  0  0  0  0999 V2000
    3.3172    3.5669    2.4298 S   0  0  0  0  0  0  0  0  0  0  0  0
    4.2425    2.1363    2.4399 C   0  0  0  0  0  0  0  0  0  0  0  0
    5.5084    2.0468    2.4336 N   0  0  0  0  0  0  0  0  0  0  0  0
    6.2845    3.1294    2.0026 C   0  0  0  0  0  0  0  0  0  0  0  0
    7.1126    2.9833    0.8949 C   0  0  0  0  0  0  0  0  0  0  0  0
    7.1633    1.8207    0.2514 F   0  0  0  0  0  0  0  0  0  0  0  0
    7.8905    4.0482    0.4523 C   0  0  0  0  0  0  0  0  0  0  0  0
    7.8272    5.2587    1.1341 C   0  0  0  0  0  0  0  0  0  0  0  0
    7.0012    5.4090    2.2428 C   0  0  0  0  0  0  0  0  0  0  0  0
    6.2248    4.3422    2.6813 C   0  0  0  0  0  0  0  0  0  0  0  0
    3.3431    1.1160    2.4596 N   0  0  0  0  0  0  0  0  0  0  0  0
    3.7491   -0.1708    2.4697 N   0  0  0  0  0  0  0  0  0  0  0  0
    3.9268   -0.7786    1.3919 C   0  0  0  0  0  0  0  0  0  0  0  0
    4.3625   -2.1596    1.4028 C   0  0  0  0  0  0  0  0  0  0  0  0
    4.5774   -2.7908    2.6222 C   0  0  0  0  0  0  0  0  0  0  0  0
    4.9897   -4.1133    2.5893 C   0  0  0  0  0  0  0  0  0  0  0  0
    5.1884   -4.7905    1.4047 C   0  0  0  0  0  0  0  0  0  0  0  0
    4.9711   -4.1466    0.1900 C   0  0  0  0  0  0  0  0  0  0  0  0
    4.5551   -2.8206    0.1960 C   0  0  0  0  0  0  0  0  0  0  0  0
    5.6335   -6.2081    1.7110 C   0  0  0  0  0  0  0  0  0  0  0  0
    4.9786   -6.3853    3.0663 C   0  0  0  0  0  0  0  0  0  0  0  0
    5.2748   -5.0585    3.7322 C   0  0  0  0  0  0  0  0  0  0  0  0
    5.1042   -7.2161    0.7050 C   0  0  0  0  0  0  0  0  0  0  0  0
    7.1483   -6.3406    1.7525 C   0  0  0  0  0  0  0  0  0  0  0  0
    2.0312    1.5170    2.4703 C   0  0  0  0  0  0  0  0  0  0  0  0
    0.9035    0.6188    2.4910 C   0  0  0  0  0  0  0  0  0  0  0  0
    0.9604   -0.7423    2.5033 N   0  0  0  0  0  0  0  0  0  0  0  0
   -0.2237   -1.1801    2.5199 N   0  0  0  0  0  0  0  0  0  0  0  0
   -1.0878   -0.1946    2.5254 N   0  0  0  0  0  0  0  0  0  0  0  0
   -2.4805   -0.3323    2.5452 C   0  0  0  0  0  0  0  0  0  0  0  0
   -3.0439   -1.6039    2.5610 C   0  0  0  0  0  0  0  0  0  0  0  0
   -4.4291   -1.7281    2.5805 C   0  0  0  0  0  0  0  0  0  0  0  0
   -5.2477   -0.6037    2.5839 C   0  0  0  0  0  0  0  0  0  0  0  0
   -4.6614    0.6579    2.5682 C   0  0  0  0  0  0  0  0  0  0  0  0
   -3.2789    0.8062    2.5487 C   0  0  0  0  0  0  0  0  0  0  0  0
   -5.0509   -3.1152    2.5973 C   0  0  0  0  0  0  0  0  0  0  0  0
   -5.2153   -3.5120    3.8561 F   0  0  0  0  0  0  0  0  0  0  0  0
   -6.2315   -3.0792    1.9860 F   0  0  0  0  0  0  0  0  0  0  0  0
   -4.2498   -3.9678    1.9647 F   0  0  0  0  0  0  0  0  0  0  0  0
   -0.4055    0.9814    2.5079 C   0  0  0  0  0  0  0  0  0  0  0  0
    1.7728    2.8524    2.4604 C   0  0  0  0  0  0  0  0  0  0  0  0
  1  2  1  0
  2  3  2  0
  3  4  1  0
  4  5  2  0
  5  6  1  0
  5  7  1  0
  7  8  2  0
  8  9  1  0
  9 10  2  0
 10  4  1  0
  2 11  1  0
 11 12  1  0
 12 13  2  0
 13 14  1  0
 14 15  2  0
 15 16  1  0
 16 17  2  0
 17 18  1  0
 18 19  2  0
 19 14  1  0
 17 20  1  0
 20 21  1  0
 21 22  1  0
 22 16  1  0
 20 23  1  0
 20 24  1  0
 11 25  1  0
 25 26  1  0
 26 27  1  0
 27 28  2  0
 28 29  1  0
 29 30  1  0
 30 31  2  0
 31 32  1  0
 32 33  2  0
 33 34  1  0
 34 35  2  0
 35 30  1  0
 32 36  1  0
 36 37  1  0
 36 38  1  0
 36 39  1  0
 29 40  1  0
 26 40  2  0
 25 41  2  0
 41  1  1  0
M  END
$$$$
s_42a____8631722____125211
     RDKit          3D

 41 47  0  0  0  0  0  0  0  0999 V2000
    6.3461   -1.7241    2.4726 Cl  0  0  0  0  0  0  0  0  0  0  0  0
    5.4805   -0.1686    2.4698 C   0  0  0  0  0  0  0  0  0  0  0  0
    6.1973    1.0231    2.4554 C   0  0  0  0  0  0  0  0  0  0  0  0
    5.5286    2.1834    2.4483 N   0  0  0  0  0  0  0  0  0  0  0  0
    4.2024    2.1150    2.4561 C   0  0  0  0  0  0  0  0  0  0  0  0
    3.3772    3.5979    2.4370 S   0  0  0  0  0  0  0  0  0  0  0  0
    1.8532    2.8504    2.4652 C   0  0  0  0  0  0  0  0  0  0  0  0
    2.0166    1.4939    2.5143 C   0  0  0  0  0  0  0  0  0  0  0  0
    3.3594    1.0317    2.4924 C   0  0  0  0  0  0  0  0  0  0  0  0
    4.0901   -0.1562    2.4875 C   0  0  0  0  0  0  0  0  0  0  0  0
    3.3912   -1.4265    2.5074 C   0  0  0  0  0  0  0  0  0  0  0  0
    3.0801   -2.0096    3.7309 C   0  0  0  0  0  0  0  0  0  0  0  0
    2.4107   -3.2288    3.7605 C   0  0  0  0  0  0  0  0  0  0  0  0
    2.0602   -3.8491    2.5658 C   0  0  0  0  0  0  0  0  0  0  0  0
    1.4091   -5.0316    2.5845 O   0  0  0  0  0  0  0  0  0  0  0  0
    1.0516   -5.6642    1.3645 C   0  0  0  0  0  0  0  0  0  0  0  0
    2.3718   -3.2655    1.3421 C   0  0  0  0  0  0  0  0  0  0  0  0
    3.0414   -2.0468    1.3123 C   0  0  0  0  0  0  0  0  0  0  0  0
    0.7009    0.7294    2.5845 C   0  0  0  0  0  0  0  0  0  0  0  0
   -0.4922    1.5479    2.1271 C   0  0  0  0  0  0  0  0  0  0  0  0
   -0.5052    2.8285    2.9457 C   0  0  0  0  0  0  0  0  0  0  0  0
    0.6104    3.7182    2.4284 C   0  0  0  0  0  0  0  0  0  0  0  0
   -1.7931    3.6070    2.7396 C   0  0  0  0  0  0  0  0  0  0  0  0
    7.6479    1.0153    2.4467 C   0  0  0  0  0  0  0  0  0  0  0  0
    8.4543    1.0217    3.5417 C   0  0  0  0  0  0  0  0  0  0  0  0
    9.7454    1.0131    3.1110 N   0  0  0  0  0  0  0  0  0  0  0  0
    9.7515    1.0025    1.7506 C   0  0  0  0  0  0  0  0  0  0  0  0
    8.4681    1.0039    1.2958 C   0  0  0  0  0  0  0  0  0  0  0  0
   10.9933    0.9910    0.8741 C   0  0  0  0  0  0  0  0  0  0  0  0
   10.9366    1.0137    3.9737 C   0  0  0  0  0  0  0  0  0  0  0  0
   11.3411   -0.4207    4.2809 C   0  0  0  0  0  0  0  0  0  0  0  0
   10.3021   -1.1271    4.9507 O   0  0  0  0  0  0  0  0  0  0  0  0
   10.5309   -2.2956    5.5836 C   0  0  0  0  0  0  0  0  0  0  0  0
   11.8496   -2.6342    5.8733 C   0  0  0  0  0  0  0  0  0  0  0  0
   12.8254   -1.7932    5.4732 O   0  0  0  0  0  0  0  0  0  0  0  0
   12.5699   -0.4347    5.1703 C   0  0  0  0  0  0  0  0  0  0  0  0
   12.1400   -3.8211    6.5396 C   0  0  0  0  0  0  0  0  0  0  0  0
   11.1144   -4.6887    6.9047 C   0  0  0  0  0  0  0  0  0  0  0  0
    9.7929   -4.3683    6.6081 C   0  0  0  0  0  0  0  0  0  0  0  0
    9.5154   -3.1729    5.9521 C   0  0  0  0  0  0  0  0  0  0  0  0
    7.9983    1.0353    4.9922 C   0  0  0  0  0  0  0  0  0  0  0  0
  1  2  1  0
  2  3  2  0
  3  4  1  0
  4  5  2  0
  5  6  1  0
  6  7  1  0
  7  8  2  0
  8  9  1  0
  9  5  1  0
  9 10  2  0
 10  2  1  0
 10 11  1  0
 11 12  2  0
 12 13  1  0
 13 14  2  0
 14 15  1  0
 15 16  1  0
 14 17  1  0
 17 18  2  0
 18 11  1  0
  8 19  1  0
 19 20  1  0
 20 21  1  0
 21 22  1  0
 22  7  1  0
 21 23  1  0
  3 24  1  0
 24 25  2  0
 25 26  1  0
 26 27  1  0
 27 28  2  0
 28 24  1  0
 27 29  1  0
 26 30  1  0
 30 31  1  0
 31 32  1  0
 32 33  1  0
 33 34  2  0
 34 35  1  0
 35 36  1  0
 36 31  1  0
 34 37  1  0
 37 38  2  0
 38 39  1  0
 39 40  2  0
 40 33  1  0
 25 41  1  0
M  END
$$$$
m_273170____10757270____10760756____10766684
     RDKit          3D

 44 49  0  0  0  0  0  0  0  0999 V2000
   -0.7355   -2.0145    6.6806 S   0  0  0  0  0  0  0  0  0  0  0  0
    0.5235   -2.1865    7.3580 O   0  0  0  0  0  0  0  0  0  0  0  0
   -1.5138   -1.0122    7.3613 O   0  0  0  0  0  0  0  0  0  0  0  0
   -0.4479   -1.5105    5.0404 C   0  0  0  0  0  0  0  0  0  0  0  0
   -1.4616   -0.8879    4.3201 C   0  0  0  0  0  0  0  0  0  0  0  0
   -1.2341   -0.4841    3.0085 C   0  0  0  0  0  0  0  0  0  0  0  0
    0.0117   -0.7113    2.4335 C   0  0  0  0  0  0  0  0  0  0  0  0
    1.0250   -1.3345    3.1544 C   0  0  0  0  0  0  0  0  0  0  0  0
    0.7984   -1.7378    4.4657 C   0  0  0  0  0  0  0  0  0  0  0  0
    0.2650   -0.2731    1.0004 C   0  0  0  0  0  0  0  0  0  0  0  0
    1.0000    1.0000    1.0000 N   0  0  0  0  0  0  0  0  0  0  0  0
    2.4017    1.0000    1.0000 C   0  0  0  0  0  0  0  0  0  0  0  0
    3.1912    1.9825    1.3572 N   0  0  0  0  0  0  0  0  0  0  0  0
    4.4560    1.6477    1.2313 N   0  0  0  0  0  0  0  0  0  0  0  0
    4.5040    0.4144    0.7803 C   0  0  0  0  0  0  0  0  0  0  0  0
    3.2232   -0.0152    0.6266 N   0  0  0  0  0  0  0  0  0  0  0  0
    2.8010   -1.3388    0.1446 C   0  0  0  0  0  0  0  0  0  0  0  0
    2.8897   -1.3776   -1.3732 C   0  0  0  0  0  0  0  0  0  0  0  0
    3.5561   -2.4397   -1.9757 C   0  0  0  0  0  0  0  0  0  0  0  0
    3.6236   -2.5408   -3.3615 C   0  0  0  0  0  0  0  0  0  0  0  0
    3.0554   -1.5632   -4.1627 C   0  0  0  0  0  0  0  0  0  0  0  0
    3.1656   -1.7110   -5.5541 N   0  0  0  0  0  0  0  0  0  0  0  0
    3.0457   -3.0543   -6.1470 C   0  0  0  0  0  0  0  0  0  0  0  0
    3.4125   -4.1726   -5.1788 C   0  0  0  0  0  0  0  0  0  0  0  0
    4.3076   -3.7193   -4.0312 C   0  0  0  0  0  0  0  0  0  0  0  0
    3.3869   -0.5627   -6.4469 C   0  0  0  0  0  0  0  0  0  0  0  0
    2.4050   -0.4939   -3.5442 C   0  0  0  0  0  0  0  0  0  0  0  0
    2.3101   -0.3851   -2.1577 C   0  0  0  0  0  0  0  0  0  0  0  0
    5.7075   -0.3455    0.4994 C   0  0  0  0  0  0  0  0  0  0  0  0
    5.7639   -1.6488    0.3496 O   0  0  0  0  0  0  0  0  0  0  0  0
    7.0004   -2.0145    0.1063 C   0  0  0  0  0  0  0  0  0  0  0  0
    7.7996   -0.9107    0.0909 C   0  0  0  0  0  0  0  0  0  0  0  0
    6.9505    0.1862    0.3490 C   0  0  0  0  0  0  0  0  0  0  0  0
    7.4676   -3.4425   -0.1235 C   0  0  0  0  0  0  0  0  0  0  0  0
    7.3962   -3.7467   -1.5087 O   0  0  0  0  0  0  0  0  0  0  0  0
    8.4586   -3.5101   -2.3075 C   0  0  0  0  0  0  0  0  0  0  0  0
    8.3821   -3.8104   -3.6634 C   0  0  0  0  0  0  0  0  0  0  0  0
    9.4807   -3.5652   -4.4820 C   0  0  0  0  0  0  0  0  0  0  0  0
   10.6433   -3.0232   -3.9432 C   0  0  0  0  0  0  0  0  0  0  0  0
   10.7131   -2.7263   -2.5861 C   0  0  0  0  0  0  0  0  0  0  0  0
    9.6185   -2.9690   -1.7622 C   0  0  0  0  0  0  0  0  0  0  0  0
    0.2650    2.2731    0.9996 C   0  0  0  0  0  0  0  0  0  0  0  0
   -1.0631   -0.0916    0.2838 C   0  0  0  0  0  0  0  0  0  0  0  0
   -1.6394   -3.5826    6.6797 C   0  0  0  0  0  0  0  0  0  0  0  0
  1  2  2  0
  1  3  2  0
  1  4  1  0
  4  5  2  0
  5  6  1  0
  6  7  2  0
  7  8  1  0
  8  9  2  0
  9  4  1  0
  7 10  1  0
 10 11  1  0
 11 12  1  0
 12 13  2  0
 13 14  1  0
 14 15  2  0
 15 16  1  0
 16 12  1  0
 16 17  1  0
 17 18  1  0
 18 19  2  0
 19 20  1  0
 20 21  2  0
 21 22  1  0
 22 23  1  0
 23 24  1  0
 24 25  1  0
 25 20  1  0
 22 26  1  0
 21 27  1  0
 27 28  2  0
 28 18  1  0
 15 29  1  0
 29 30  1  0
 30 31  1  0
 31 32  2  0
 32 33  1  0
 29 33  2  0
 31 34  1  0
 34 35  1  0
 35 36  1  0
 36 37  2  0
 37 38  1  0
 38 39  2  0
 39 40  1  0
 40 41  2  0
 41 36  1  0
 11 42  1  0
 10 43  1  0
  1 44  1  0
M  END
$$$$
s_22____146966____59412
     RDKit          3D

 43 47  0  0  0  0  0  0  0  0999 V2000
    7.0028    1.0024    1.0175 Cl  0  0  0  0  0  0  0  0  0  0  0  0
    5.2233    1.0006    1.0093 C   0  0  0  0  0  0  0  0  0  0  0  0
    4.5235    1.2583    2.1842 C   0  0  0  0  0  0  0  0  0  0  0  0
    5.3772    1.5829    3.6654 S   0  0  0  0  0  0  0  0  0  0  0  0
    6.0673    0.3933    4.0923 O   0  0  0  0  0  0  0  0  0  0  0  0
    6.3313    2.6393    3.4479 O   0  0  0  0  0  0  0  0  0  0  0  0
    4.3158    2.0377    4.8158 N   0  0  0  0  0  0  0  0  0  0  0  0
    3.8839    1.1132    5.7747 C   0  0  0  0  0  0  0  0  0  0  0  0
    4.5909    0.9812    6.9651 C   0  0  0  0  0  0  0  0  0  0  0  0
    4.1681    0.0652    7.9223 C   0  0  0  0  0  0  0  0  0  0  0  0
    3.0392   -0.7088    7.6751 C   0  0  0  0  0  0  0  0  0  0  0  0
    2.4914   -1.8826    8.8954 Cl  0  0  0  0  0  0  0  0  0  0  0  0
    2.3276   -0.5811    6.4869 C   0  0  0  0  0  0  0  0  0  0  0  0
    2.7560    0.3367    5.5339 C   0  0  0  0  0  0  0  0  0  0  0  0
    3.8120    3.4183    4.8466 C   0  0  0  0  0  0  0  0  0  0  0  0
    3.1319    1.2594    2.1852 C   0  0  0  0  0  0  0  0  0  0  0  0
    2.4506    1.0000    1.0000 C   0  0  0  0  0  0  0  0  0  0  0  0
    3.1420    0.7413   -0.1795 C   0  0  0  0  0  0  0  0  0  0  0  0
    4.5337    0.7426   -0.1715 C   0  0  0  0  0  0  0  0  0  0  0  0
    1.0000    1.0000    1.0000 C   0  0  0  0  0  0  0  0  0  0  0  0
    0.4000   -0.0381    0.9518 O   0  0  0  0  0  0  0  0  0  0  0  0
    0.3150    2.1852    1.0550 N   0  0  0  0  0  0  0  0  0  0  0  0
   -1.0517    2.2198    1.5952 C   0  0  0  0  0  0  0  0  0  0  0  0
   -2.0447    2.3632    0.4528 C   0  0  0  0  0  0  0  0  0  0  0  0
   -2.8935    3.4591    0.2187 C   0  0  0  0  0  0  0  0  0  0  0  0
   -3.5764    3.1676   -0.8656 N   0  0  0  0  0  0  0  0  0  0  0  0
   -3.2392    1.9892   -1.3353 N   0  0  0  0  0  0  0  0  0  0  0  0
   -3.7736    1.3784   -2.4763 C   0  0  0  0  0  0  0  0  0  0  0  0
   -3.8533   -0.0090   -2.5413 C   0  0  0  0  0  0  0  0  0  0  0  0
   -4.3850   -0.6122   -3.6764 C   0  0  0  0  0  0  0  0  0  0  0  0
   -4.8317    0.1708   -4.7354 C   0  0  0  0  0  0  0  0  0  0  0  0
   -4.7475    1.5570   -4.6592 C   0  0  0  0  0  0  0  0  0  0  0  0
   -4.2177    2.1713   -3.5294 C   0  0  0  0  0  0  0  0  0  0  0  0
   -2.2738    1.4548   -0.5364 C   0  0  0  0  0  0  0  0  0  0  0  0
   -3.0015    4.6654    1.0167 C   0  0  0  0  0  0  0  0  0  0  0  0
   -3.3643    4.5817    2.3576 C   0  0  0  0  0  0  0  0  0  0  0  0
   -3.4635    5.7468    3.1112 C   0  0  0  0  0  0  0  0  0  0  0  0
   -3.2010    6.9811    2.5237 C   0  0  0  0  0  0  0  0  0  0  0  0
   -2.8390    7.0503    1.1823 C   0  0  0  0  0  0  0  0  0  0  0  0
   -2.7361    5.8926    0.4182 C   0  0  0  0  0  0  0  0  0  0  0  0
   -3.3002    8.2734    3.3181 C   0  0  0  0  0  0  0  0  0  0  0  0
   -3.8622    5.6353    4.5739 C   0  0  0  0  0  0  0  0  0  0  0  0
    0.9467    3.4222    0.5738 C   0  0  0  0  0  0  0  0  0  0  0  0
  1  2  1  0
  2  3  2  0
  3  4  1  0
  4  5  2  0
  4  6  2  0
  4  7  1  0
  7  8  1  0
  8  9  2  0
  9 10  1  0
 10 11  2  0
 11 12  1  0
 11 13  1  0
 13 14  2  0
 14  8  1  0
  7 15  1  0
  3 16  1  0
 16 17  2  0
 17 18  1  0
 18 19  2  0
 19  2  1  0
 17 20  1  0
 20 21  2  0
 20 22  1  0
 22 23  1  0
 23 24  1  0
 24 25  1  0
 25 26  2  0
 26 27  1  0
 27 28  1  0
 28 29  2  0
 29 30  1  0
 30 31  2  0
 31 32  1  0
 32 33  2  0
 33 28  1  0
 27 34  1  0
 24 34  2  0
 25 35  1  0
 35 36  2  0
 36 37  1  0
 37 38  2  0
 38 39  1  0
 39 40  2  0
 40 35  1  0
 38 41  1  0
 37 42  1  0
 22 43  1  0
M  END
$$$$
m_276010b____17282026____17252158____17280940
     RDKit          3D

 40 45  0  0  0  0  0  0  0  0999 V2000
    0.3960    2.4371    5.5392 S   0  0  0  0  0  0  0  0  0  0  0  0
   -0.5825    2.5524    4.1409 C   0  0  0  0  0  0  0  0  0  0  0  0
   -0.3863    3.5510    3.1044 C   0  0  0  0  0  0  0  0  0  0  0  0
   -1.3283    4.1452    2.6577 O   0  0  0  0  0  0  0  0  0  0  0  0
    0.9034    3.8204    2.6258 N   0  0  0  0  0  0  0  0  0  0  0  0
    1.9471    2.8896    2.5745 C   0  0  0  0  0  0  0  0  0  0  0  0
    3.1336    3.5796    2.5325 C   0  0  0  0  0  0  0  0  0  0  0  0
    4.3543    2.9130    2.4792 C   0  0  0  0  0  0  0  0  0  0  0  0
    4.3914    1.5230    2.4626 C   0  0  0  0  0  0  0  0  0  0  0  0
    3.1952    0.8149    2.4997 C   0  0  0  0  0  0  0  0  0  0  0  0
    1.9847    1.4975    2.5537 C   0  0  0  0  0  0  0  0  0  0  0  0
    2.7996    5.0549    2.5596 C   0  0  0  0  0  0  0  0  0  0  0  0
    3.6741    5.8420    1.6785 N   0  0  0  0  0  0  0  0  0  0  0  0
    4.0096    5.5254    0.4522 N   0  0  0  0  0  0  0  0  0  0  0  0
    4.7714    6.3941   -0.0578 N   0  0  0  0  0  0  0  0  0  0  0  0
    4.9690    7.3620    0.8787 C   0  0  0  0  0  0  0  0  0  0  0  0
    5.7802    8.5522    0.7149 C   0  0  0  0  0  0  0  0  0  0  0  0
    6.2178    8.9077   -0.5566 C   0  0  0  0  0  0  0  0  0  0  0  0
    6.9960   10.0512   -0.7049 C   0  0  0  0  0  0  0  0  0  0  0  0
    7.3301   10.8248    0.4009 C   0  0  0  0  0  0  0  0  0  0  0  0
    8.0730   11.9154    0.2452 F   0  0  0  0  0  0  0  0  0  0  0  0
    6.8864   10.4582    1.6677 C   0  0  0  0  0  0  0  0  0  0  0  0
    6.1075    9.3170    1.8300 C   0  0  0  0  0  0  0  0  0  0  0  0
    7.4816   10.4532   -2.0876 C   0  0  0  0  0  0  0  0  0  0  0  0
    7.0141   11.6617   -2.3876 F   0  0  0  0  0  0  0  0  0  0  0  0
    8.8113   10.4763   -2.1012 F   0  0  0  0  0  0  0  0  0  0  0  0
    7.0442    9.5736   -2.9842 F   0  0  0  0  0  0  0  0  0  0  0  0
    4.2695    7.0207    1.9954 C   0  0  0  0  0  0  0  0  0  0  0  0
    1.3497    5.1271    2.1354 C   0  0  0  0  0  0  0  0  0  0  0  0
    0.6358    6.2924    2.7999 C   0  0  0  0  0  0  0  0  0  0  0  0
    1.1799    5.2208    0.6271 C   0  0  0  0  0  0  0  0  0  0  0  0
   -1.5200    1.5606    4.2180 C   0  0  0  0  0  0  0  0  0  0  0  0
   -1.3979    0.7510    5.3829 C   0  0  0  0  0  0  0  0  0  0  0  0
   -0.4041    1.1136    6.2372 C   0  0  0  0  0  0  0  0  0  0  0  0
   -0.0178    0.4463    7.5366 C   0  0  0  0  0  0  0  0  0  0  0  0
    0.1361   -0.9462    6.9489 C   0  0  0  0  0  0  0  0  0  0  0  0
   -1.1099   -1.4741    6.2481 C   0  0  0  0  0  0  0  0  0  0  0  0
   -2.1720   -0.4725    5.8359 C   0  0  0  0  0  0  0  0  0  0  0  0
   -1.7981   -2.5283    7.1018 C   0  0  0  0  0  0  0  0  0  0  0  0
   -0.6286   -2.1739    4.9838 C   0  0  0  0  0  0  0  0  0  0  0  0
  1  2  1  0
  2  3  1  0
  3  4  2  0
  3  5  1  0
  5  6  1  0
  6  7  1  0
  7  8  2  0
  8  9  1  0
  9 10  2  0
 10 11  1  0
 11  6  2  0
  7 12  1  0
 12 13  1  0
 13 14  1  0
 14 15  2  0
 15 16  1  0
 16 17  1  0
 17 18  2  0
 18 19  1  0
 19 20  2  0
 20 21  1  0
 20 22  1  0
 22 23  2  0
 23 17  1  0
 19 24  1  0
 24 25  1  0
 24 26  1  0
 24 27  1  0
 16 28  2  0
 28 13  1  0
 12 29  1  0
 29  5  1  0
 29 30  1  0
 29 31  1  0
  2 32  2  0
 32 33  1  0
 33 34  2  0
 34  1  1  0
 34 35  1  0
 35 36  1  0
 36 37  1  0
 37 38  1  0
 38 33  1  0
 37 39  1  0
 37 40  1  0
M  END
$$$$
s_2____2757072____16508570____7793932
     RDKit          3D

 46 52  0  0  0  0  0  0  0  0999 V2000
   -4.9978    1.2378   -1.8880 S   0  0  0  0  0  0  0  0  0  0  0  0
   -4.7562    0.6747   -3.1911 O   0  0  0  0  0  0  0  0  0  0  0  0
   -5.7781    0.3159   -1.1039 O   0  0  0  0  0  0  0  0  0  0  0  0
   -5.8113    2.6415   -2.0450 N   0  0  0  0  0  0  0  0  0  0  0  0
   -3.4787    1.5337   -1.0934 C   0  0  0  0  0  0  0  0  0  0  0  0
   -3.3988    1.4673    0.2934 C   0  0  0  0  0  0  0  0  0  0  0  0
   -2.1851    1.7035    0.9311 C   0  0  0  0  0  0  0  0  0  0  0  0
   -1.0629    2.0052    0.1670 C   0  0  0  0  0  0  0  0  0  0  0  0
   -1.1438    2.0719   -1.2201 C   0  0  0  0  0  0  0  0  0  0  0  0
   -2.3564    1.8352   -1.8581 C   0  0  0  0  0  0  0  0  0  0  0  0
    0.2650    2.2652    0.8588 C   0  0  0  0  0  0  0  0  0  0  0  0
    1.0000    1.0000    1.0000 N   0  0  0  0  0  0  0  0  0  0  0  0
    2.2727    1.0000    1.0000 C   0  0  0  0  0  0  0  0  0  0  0  0
    3.2932    2.3482    1.2047 S   0  0  0  0  0  0  0  0  0  0  0  0
    4.7811    1.5243    1.0734 C   0  0  0  0  0  0  0  0  0  0  0  0
    4.4252    0.2252    0.8737 C   0  0  0  0  0  0  0  0  0  0  0  0
    3.0922   -0.0724    0.8348 N   0  0  0  0  0  0  0  0  0  0  0  0
    2.5424   -1.4195    0.6261 C   0  0  0  0  0  0  0  0  0  0  0  0
    2.2352   -2.0573    1.9751 C   0  0  0  0  0  0  0  0  0  0  0  0
    3.2090   -2.6488    2.7799 C   0  0  0  0  0  0  0  0  0  0  0  0
    2.9124   -3.2278    4.0127 C   0  0  0  0  0  0  0  0  0  0  0  0
    3.6190   -3.8639    4.9905 N   0  0  0  0  0  0  0  0  0  0  0  0
    2.7712   -4.1991    5.9357 C   0  0  0  0  0  0  0  0  0  0  0  0
    1.5618   -3.8074    5.6083 O   0  0  0  0  0  0  0  0  0  0  0  0
    1.6072   -3.2113    4.4391 C   0  0  0  0  0  0  0  0  0  0  0  0
    0.6154   -2.6275    3.6580 C   0  0  0  0  0  0  0  0  0  0  0  0
    0.9211   -2.0507    2.4298 C   0  0  0  0  0  0  0  0  0  0  0  0
    3.1173   -4.8965    7.1588 C   0  0  0  0  0  0  0  0  0  0  0  0
    4.3572   -5.5188    7.2595 C   0  0  0  0  0  0  0  0  0  0  0  0
    4.7051   -6.1918    8.4263 C   0  0  0  0  0  0  0  0  0  0  0  0
    3.7997   -6.2331    9.4810 C   0  0  0  0  0  0  0  0  0  0  0  0
    4.1199   -6.8731   10.6018 F   0  0  0  0  0  0  0  0  0  0  0  0
    2.5599   -5.6114    9.3804 C   0  0  0  0  0  0  0  0  0  0  0  0
    2.2117   -4.9384    8.2143 C   0  0  0  0  0  0  0  0  0  0  0  0
    5.4841   -0.7568    0.7153 C   0  0  0  0  0  0  0  0  0  0  0  0
    6.9118   -0.7259    1.6465 S   0  0  0  0  0  0  0  0  0  0  0  0
    7.6035   -2.1107    0.9380 C   0  0  0  0  0  0  0  0  0  0  0  0
    6.7367   -2.5455   -0.0171 C   0  0  0  0  0  0  0  0  0  0  0  0
    5.5267   -1.8158   -0.1541 C   0  0  0  0  0  0  0  0  0  0  0  0
    7.1471   -3.7545   -0.8366 C   0  0  0  0  0  0  0  0  0  0  0  0
    8.2981   -4.3586   -0.1593 N   0  0  0  0  0  0  0  0  0  0  0  0
    8.3585   -5.7119    0.1871 C   0  0  0  0  0  0  0  0  0  0  0  0
    9.4176   -6.2745    0.2263 O   0  0  0  0  0  0  0  0  0  0  0  0
    7.0824   -6.4703    0.5141 C   0  0  0  0  0  0  0  0  0  0  0  0
    9.3745   -3.3958    0.1001 C   0  0  0  0  0  0  0  0  0  0  0  0
    8.9284   -2.6970    1.3674 C   0  0  0  0  0  0  0  0  0  0  0  0
  1  2  2  0
  1  3  2  0
  1  4  1  0
  1  5  1  0
  5  6  2  0
  6  7  1  0
  7  8  2  0
  8  9  1  0
  9 10  2  0
 10  5  1  0
  8 11  1  0
 11 12  1  0
 12 13  2  0
 13 14  1  0
 14 15  1  0
 15 16  2  0
 16 17  1  0
 17 13  1  0
 17 18  1  0
 18 19  1  0
 19 20  2  0
 20 21  1  0
 21 22  1  0
 22 23  2  0
 23 24  1  0
 24 25  1  0
 25 21  2  0
 25 26  1  0
 26 27  2  0
 27 19  1  0
 23 28  1  0
 28 29  2  0
 29 30  1  0
 30 31  2  0
 31 32  1  0
 31 33  1  0
 33 34  2  0
 34 28  1  0
 16 35  1  0
 35 36  1  0
 36 37  1  0
 37 38  2  0
 38 39  1  0
 35 39  2  0
 38 40  1  0
 40 41  1  0
 41 42  1  0
 42 43  2  0
 42 44  1  0
 41 45  1  0
 45 46  1  0
 46 37  1  0
M  END
$$$$
s_42a____8631722____768888
     RDKit          3D

 37 42  0  0  0  0  0  0  0  0999 V2000
    3.3174    3.5631    2.1202 S   0  0  0  0  0  0  0  0  0  0  0  0
    4.2542    2.1524    2.2745 C   0  0  0  0  0  0  0  0  0  0  0  0
    5.5876    2.1653    2.3603 N   0  0  0  0  0  0  0  0  0  0  0  0
    6.1980    0.9809    2.4354 C   0  0  0  0  0  0  0  0  0  0  0  0
    5.4445   -0.1888    2.4578 C   0  0  0  0  0  0  0  0  0  0  0  0
    4.0559   -0.1233    2.3913 C   0  0  0  0  0  0  0  0  0  0  0  0
    3.3364   -1.3819    2.4263 C   0  0  0  0  0  0  0  0  0  0  0  0
    3.3866   -2.1591    3.5783 C   0  0  0  0  0  0  0  0  0  0  0  0
    2.7006   -3.3687    3.6213 C   0  0  0  0  0  0  0  0  0  0  0  0
    1.9725   -3.7853    2.5117 C   0  0  0  0  0  0  0  0  0  0  0  0
    1.3024   -4.9567    2.5445 O   0  0  0  0  0  0  0  0  0  0  0  0
    1.5844   -5.9080    3.5604 C   0  0  0  0  0  0  0  0  0  0  0  0
    1.9229   -3.0075    1.3595 C   0  0  0  0  0  0  0  0  0  0  0  0
    2.6090   -1.7983    1.3161 C   0  0  0  0  0  0  0  0  0  0  0  0
    3.3727    1.0915    2.2841 C   0  0  0  0  0  0  0  0  0  0  0  0
    1.9908    1.4604    2.1857 C   0  0  0  0  0  0  0  0  0  0  0  0
    1.7950    2.8045    2.0712 C   0  0  0  0  0  0  0  0  0  0  0  0
    0.4991    3.5646    1.9172 C   0  0  0  0  0  0  0  0  0  0  0  0
   -0.2923    2.7432    0.9114 C   0  0  0  0  0  0  0  0  0  0  0  0
   -0.4623    1.2840    1.3357 C   0  0  0  0  0  0  0  0  0  0  0  0
    0.6679    0.6945    2.1788 C   0  0  0  0  0  0  0  0  0  0  0  0
   -1.6607    3.3917    0.7745 C   0  0  0  0  0  0  0  0  0  0  0  0
    7.6468    0.9834    2.4738 C   0  0  0  0  0  0  0  0  0  0  0  0
    8.6216   -0.4078    2.5501 S   0  0  0  0  0  0  0  0  0  0  0  0
   10.1263    0.3810    2.5647 C   0  0  0  0  0  0  0  0  0  0  0  0
   11.4323   -0.2467    2.6221 C   0  0  0  0  0  0  0  0  0  0  0  0
   11.5291   -1.6336    2.6720 C   0  0  0  0  0  0  0  0  0  0  0  0
   12.7840   -2.2304    2.7278 C   0  0  0  0  0  0  0  0  0  0  0  0
   13.9257   -1.4351    2.7321 C   0  0  0  0  0  0  0  0  0  0  0  0
   13.8280   -0.0480    2.6796 C   0  0  0  0  0  0  0  0  0  0  0  0
   12.5728    0.5490    2.6252 C   0  0  0  0  0  0  0  0  0  0  0  0
   15.2947   -2.0934    2.7948 C   0  0  0  0  0  0  0  0  0  0  0  0
   15.7298   -2.3301    1.5604 F   0  0  0  0  0  0  0  0  0  0  0  0
   16.1473   -1.2848    3.4179 F   0  0  0  0  0  0  0  0  0  0  0  0
   15.2047   -3.2410    3.4608 F   0  0  0  0  0  0  0  0  0  0  0  0
    9.8583    1.7154    2.5055 C   0  0  0  0  0  0  0  0  0  0  0  0
    8.4808    2.0634    2.4509 C   0  0  0  0  0  0  0  0  0  0  0  0
  1  2  1  0
  2  3  2  0
  3  4  1  0
  4  5  2  0
  5  6  1  0
  6  7  1  0
  7  8  2  0
  8  9  1  0
  9 10  2  0
 10 11  1  0
 11 12  1  0
 10 13  1  0
 13 14  2  0
 14  7  1  0
  6 15  2  0
 15  2  1  0
 15 16  1  0
 16 17  2  0
 17  1  1  0
 17 18  1  0
 18 19  1  0
 19 20  1  0
 20 21  1  0
 21 16  1  0
 19 22  1  0
  4 23  1  0
 23 24  1  0
 24 25  1  0
 25 26  1  0
 26 27  2  0
 27 28  1  0
 28 29  2  0
 29 30  1  0
 30 31  2  0
 31 26  1  0
 29 32  1  0
 32 33  1  0
 32 34  1  0
 32 35  1  0
 25 36  2  0
 36 37  1  0
 23 37  2  0
M  END
$$$$
m_276096____13706966____13710720
     RDKit          3D

 34 37  0  0  0  0  0  0  0  0999 V2000
    2.8873    5.8155    2.0614 S   0  0  0  0  0  0  0  0  0  0  0  0
    4.1834    6.2948    2.4667 O   0  0  0  0  0  0  0  0  0  0  0  0
    2.7103    6.0447    0.6509 O   0  0  0  0  0  0  0  0  0  0  0  0
    1.7305    6.6102    2.8904 N   0  0  0  0  0  0  0  0  0  0  0  0
    1.8296    8.0502    2.6117 C   0  0  0  0  0  0  0  0  0  0  0  0
    0.7512    8.7909    3.3845 C   0  0  0  0  0  0  0  0  0  0  0  0
    1.0345    9.2492    4.6669 C   0  0  0  0  0  0  0  0  0  0  0  0
    0.0466    9.9277    5.3721 C   0  0  0  0  0  0  0  0  0  0  0  0
    0.2960   10.3733    6.6001 F   0  0  0  0  0  0  0  0  0  0  0  0
   -1.2049   10.1441    4.8045 C   0  0  0  0  0  0  0  0  0  0  0  0
   -1.4766    9.6798    3.5212 C   0  0  0  0  0  0  0  0  0  0  0  0
   -0.4962    9.0006    2.8052 C   0  0  0  0  0  0  0  0  0  0  0  0
    2.7654    4.0425    2.4046 C   0  0  0  0  0  0  0  0  0  0  0  0
    1.9621    3.2384    1.6023 C   0  0  0  0  0  0  0  0  0  0  0  0
    1.8777    1.8777    1.8777 C   0  0  0  0  0  0  0  0  0  0  0  0
    2.5829    1.3173    2.9375 C   0  0  0  0  0  0  0  0  0  0  0  0
    3.3805    2.1390    3.7273 C   0  0  0  0  0  0  0  0  0  0  0  0
    3.4786    3.5025    3.4697 C   0  0  0  0  0  0  0  0  0  0  0  0
    1.0000    1.0000    1.0000 C   0  0  0  0  0  0  0  0  0  0  0  0
    1.7938    0.4804   -0.1228 N   0  0  0  0  0  0  0  0  0  0  0  0
    2.4756   -0.7336    0.0057 C   0  0  0  0  0  0  0  0  0  0  0  0
    3.4362   -1.4814   -1.1838 S   0  0  0  0  0  0  0  0  0  0  0  0
    3.8772   -2.8533   -0.2761 C   0  0  0  0  0  0  0  0  0  0  0  0
    3.2490   -2.6631    0.9131 C   0  0  0  0  0  0  0  0  0  0  0  0
    2.5000   -1.5247    1.0489 N   0  0  0  0  0  0  0  0  0  0  0  0
    3.4120   -3.6727    1.9411 C   0  0  0  0  0  0  0  0  0  0  0  0
    4.2020   -4.7874    1.6785 C   0  0  0  0  0  0  0  0  0  0  0  0
    4.3645   -5.7613    2.6583 C   0  0  0  0  0  0  0  0  0  0  0  0
    3.7340   -5.6089    3.8890 C   0  0  0  0  0  0  0  0  0  0  0  0
    3.8995   -6.6329    4.9306 N   0  0  0  0  0  0  0  0  0  0  0  0
    3.3468   -6.4999    6.0101 O   0  0  0  0  0  0  0  0  0  0  0  0
    4.5839   -7.6077    4.7174 O   0  0  0  0  0  0  0  0  0  0  0  0
    2.9439   -4.4938    4.1510 C   0  0  0  0  0  0  0  0  0  0  0  0
    2.7817   -3.5199    3.1712 C   0  0  0  0  0  0  0  0  0  0  0  0
  1  2  2  0
  1  3  2  0
  1  4  1  0
  4  5  1  0
  5  6  1  0
  6  7  2  0
  7  8  1  0
  8  9  1  0
  8 10  2  0
 10 11  1  0
 11 12  2  0
 12  6  1  0
  1 13  1  0
 13 14  2  0
 14 15  1  0
 15 16  2  0
 16 17  1  0
 17 18  2  0
 18 13  1  0
 15 19  1  0
 19 20  1  0
 20 21  1  0
 21 22  1  0
 22 23  1  0
 23 24  2  0
 24 25  1  0
 21 25  2  0
 24 26  1  0
 26 27  2  0
 27 28  1  0
 28 29  2  0
 29 30  1  0
 30 31  1  0
 30 32  2  0
 29 33  1  0
 33 34  2  0
 34 26  1  0
M  CHG  2  30   1  31  -1
M  END
$$$$
s_7a____8400____13973748
     RDKit          3D

 41 46  0  0  0  0  0  0  0  0999 V2000
    1.2161    4.7144   -2.3993 S   0  0  0  0  0  0  0  0  0  0  0  0
   -0.3039    4.0320   -2.0515 C   0  0  0  0  0  0  0  0  0  0  0  0
   -0.6523    3.6832   -0.7788 N   0  0  0  0  0  0  0  0  0  0  0  0
   -1.8494    3.1595   -0.6165 C   0  0  0  0  0  0  0  0  0  0  0  0
   -2.3133    2.7065    1.0000 S   0  0  0  0  0  0  0  0  0  0  0  0
   -1.7100    1.0000    1.0000 C   0  0  0  0  0  0  0  0  0  0  0  0
   -0.1900    1.0000    1.0000 C   0  0  0  0  0  0  0  0  0  0  0  0
    1.0000    1.0000    1.0000 C   0  0  0  0  0  0  0  0  0  0  0  0
    2.5200    1.0000    1.0000 C   0  0  0  0  0  0  0  0  0  0  0  0
    3.2044    2.1926    0.7897 C   0  0  0  0  0  0  0  0  0  0  0  0
    4.5953    2.1975    0.7896 C   0  0  0  0  0  0  0  0  0  0  0  0
    5.2849    1.0078    1.0007 C   0  0  0  0  0  0  0  0  0  0  0  0
    6.6348    1.0080    1.0010 O   0  0  0  0  0  0  0  0  0  0  0  0
    7.3452   -0.2215    1.0023 C   0  0  0  0  0  0  0  0  0  0  0  0
    7.7072   -0.5990   -0.4249 C   0  0  0  0  0  0  0  0  0  0  0  0
    8.4678   -1.9154   -0.4235 C   0  0  0  0  0  0  0  0  0  0  0  0
    7.7702   -3.1143   -0.5280 C   0  0  0  0  0  0  0  0  0  0  0  0
    8.4700   -4.3166   -0.5255 C   0  0  0  0  0  0  0  0  0  0  0  0
    9.8570   -4.3139   -0.4205 C   0  0  0  0  0  0  0  0  0  0  0  0
   10.5432   -3.1102   -0.3172 C   0  0  0  0  0  0  0  0  0  0  0  0
    9.8550   -1.9013   -0.3178 C   0  0  0  0  0  0  0  0  0  0  0  0
    4.6053   -0.1877    1.2111 C   0  0  0  0  0  0  0  0  0  0  0  0
    3.2145   -0.1868    1.2106 C   0  0  0  0  0  0  0  0  0  0  0  0
   -2.6736    2.9944   -1.7017 N   0  0  0  0  0  0  0  0  0  0  0  0
   -3.9397    2.4328   -1.4977 C   0  0  0  0  0  0  0  0  0  0  0  0
   -5.0216    3.2607   -1.2182 C   0  0  0  0  0  0  0  0  0  0  0  0
   -4.8502    4.5774   -1.1466 F   0  0  0  0  0  0  0  0  0  0  0  0
   -6.2869    2.7204   -1.0130 C   0  0  0  0  0  0  0  0  0  0  0  0
   -6.4522    1.3417   -1.0915 C   0  0  0  0  0  0  0  0  0  0  0  0
   -5.3729    0.5100   -1.3699 C   0  0  0  0  0  0  0  0  0  0  0  0
   -4.1102    1.0544   -1.5750 C   0  0  0  0  0  0  0  0  0  0  0  0
   -2.2814    3.3633   -2.9650 C   0  0  0  0  0  0  0  0  0  0  0  0
   -3.0494    3.1950   -3.9011 O   0  0  0  0  0  0  0  0  0  0  0  0
   -1.0013    3.9322   -3.2137 C   0  0  0  0  0  0  0  0  0  0  0  0
   -0.2674    4.3978   -4.3623 C   0  0  0  0  0  0  0  0  0  0  0  0
    0.9870    4.8967   -4.0721 C   0  0  0  0  0  0  0  0  0  0  0  0
    2.0696    5.5258   -4.9279 C   0  0  0  0  0  0  0  0  0  0  0  0
    1.7291    5.1469   -6.3605 C   0  0  0  0  0  0  0  0  0  0  0  0
    0.2609    5.4160   -6.6506 C   0  0  0  0  0  0  0  0  0  0  0  0
   -0.6034    4.4481   -5.8502 C   0  0  0  0  0  0  0  0  0  0  0  0
    2.6033    6.0038   -7.2609 C   0  0  0  0  0  0  0  0  0  0  0  0
  1  2  1  0
  2  3  1  0
  3  4  2  0
  4  5  1  0
  5  6  1  0
  6  7  1  0
  7  8  3  0
  8  9  1  0
  9 10  2  0
 10 11  1  0
 11 12  2  0
 12 13  1  0
 13 14  1  0
 14 15  1  0
 15 16  1  0
 16 17  2  0
 17 18  1  0
 18 19  2  0
 19 20  1  0
 20 21  2  0
 21 16  1  0
 12 22  1  0
 22 23  2  0
 23  9  1  0
  4 24  1  0
 24 25  1  0
 25 26  2  0
 26 27  1  0
 26 28  1  0
 28 29  2  0
 29 30  1  0
 30 31  2  0
 31 25  1  0
 24 32  1  0
 32 33  2  0
 32 34  1  0
  2 34  2  0
 34 35  1  0
 35 36  2  0
 36  1  1  0
 36 37  1  0
 37 38  1  0
 38 39  1  0
 39 40  1  0
 40 35  1  0
 38 41  1  0
M  END
$$$$
m_276010a____17281432____17249466____17280774
     RDKit          3D

 38 43  0  0  0  0  0  0  0  0999 V2000
    4.8067    7.5667   -3.8448 Cl  0  0  0  0  0  0  0  0  0  0  0  0
    4.8459    8.2722   -2.2112 C   0  0  0  0  0  0  0  0  0  0  0  0
    3.8106    8.0051   -1.3217 C   0  0  0  0  0  0  0  0  0  0  0  0
    3.8542    8.5636   -0.0483 C   0  0  0  0  0  0  0  0  0  0  0  0
    4.9130    9.3788    0.3382 C   0  0  0  0  0  0  0  0  0  0  0  0
    5.9386    9.6333   -0.5664 C   0  0  0  0  0  0  0  0  0  0  0  0
    5.9144    9.0843   -1.8443 C   0  0  0  0  0  0  0  0  0  0  0  0
    2.7245    8.2738    0.9267 C   0  0  0  0  0  0  0  0  0  0  0  0
    3.0460    7.0690    1.7049 N   0  0  0  0  0  0  0  0  0  0  0  0
    3.6585    7.0470    2.8629 N   0  0  0  0  0  0  0  0  0  0  0  0
    3.7945    5.8669    3.2919 N   0  0  0  0  0  0  0  0  0  0  0  0
    3.2424    5.0325    2.3689 C   0  0  0  0  0  0  0  0  0  0  0  0
    3.1777    3.5871    2.4587 C   0  0  0  0  0  0  0  0  0  0  0  0
    1.9715    2.9006    2.5596 C   0  0  0  0  0  0  0  0  0  0  0  0
    0.6272    3.2845    2.5910 N   0  0  0  0  0  0  0  0  0  0  0  0
    0.1173    4.5411    2.9461 C   0  0  0  0  0  0  0  0  0  0  0  0
    0.7034    5.2240    3.7399 O   0  0  0  0  0  0  0  0  0  0  0  0
   -1.1162    5.0148    2.3553 C   0  0  0  0  0  0  0  0  0  0  0  0
   -1.1223    5.4657    1.0438 C   0  0  0  0  0  0  0  0  0  0  0  0
   -2.2946    5.9258    0.4559 C   0  0  0  0  0  0  0  0  0  0  0  0
   -3.4680    5.9233    1.2226 C   0  0  0  0  0  0  0  0  0  0  0  0
   -3.4511    5.4693    2.5365 C   0  0  0  0  0  0  0  0  0  0  0  0
   -2.2763    5.0096    3.1163 C   0  0  0  0  0  0  0  0  0  0  0  0
   -4.8020    6.3974    0.6539 C   0  0  0  0  0  0  0  0  0  0  0  0
   -4.6176    7.2328   -0.6032 C   0  0  0  0  0  0  0  0  0  0  0  0
   -3.6568    6.5598   -1.5760 C   0  0  0  0  0  0  0  0  0  0  0  0
   -2.2590    6.4166   -0.9905 C   0  0  0  0  0  0  0  0  0  0  0  0
   -1.3595    5.5750   -1.8849 C   0  0  0  0  0  0  0  0  0  0  0  0
   -1.6927    7.8276   -0.9628 C   0  0  0  0  0  0  0  0  0  0  0  0
   -5.6614    7.1355    1.6681 C   0  0  0  0  0  0  0  0  0  0  0  0
   -5.5769    5.1638    0.2200 C   0  0  0  0  0  0  0  0  0  0  0  0
   -0.2127    2.1443    2.2323 C   0  0  0  0  0  0  0  0  0  0  0  0
    0.6103    1.0204    2.8245 C   0  0  0  0  0  0  0  0  0  0  0  0
    2.0278    1.5265    2.6544 C   0  0  0  0  0  0  0  0  0  0  0  0
    3.2116    0.8148    2.6018 C   0  0  0  0  0  0  0  0  0  0  0  0
    4.4011    1.5252    2.4996 C   0  0  0  0  0  0  0  0  0  0  0  0
    4.3946    2.9141    2.4355 C   0  0  0  0  0  0  0  0  0  0  0  0
    2.7575    5.7909    1.3479 C   0  0  0  0  0  0  0  0  0  0  0  0
  1  2  1  0
  2  3  2  0
  3  4  1  0
  4  5  2  0
  5  6  1  0
  6  7  2  0
  7  2  1  0
  4  8  1  0
  8  9  1  0
  9 10  1  0
 10 11  2  0
 11 12  1  0
 12 13  1  0
 13 14  2  0
 14 15  1  0
 15 16  1  0
 16 17  2  0
 16 18  1  0
 18 19  2  0
 19 20  1  0
 20 21  2  0
 21 22  1  0
 22 23  2  0
 23 18  1  0
 21 24  1  0
 24 25  1  0
 25 26  1  0
 26 27  1  0
 27 20  1  0
 27 28  1  0
 27 29  1  0
 24 30  1  0
 24 31  1  0
 15 32  1  0
 32 33  1  0
 33 34  1  0
 34 14  1  0
 34 35  2  0
 35 36  1  0
 36 37  2  0
 37 13  1  0
 12 38  2  0
 38  9  1  0
M  END
$$$$
s_2____510282____7594322____9284808
     RDKit          3D

 46 52  0  0  0  0  0  0  0  0999 V2000
    3.2932    2.2218    0.3944 S   0  0  0  0  0  0  0  0  0  0  0  0
    2.2727    1.0000    1.0000 C   0  0  0  0  0  0  0  0  0  0  0  0
    1.0000    1.0000    1.0000 N   0  0  0  0  0  0  0  0  0  0  0  0
    0.2999    2.2052    0.8655 C   0  0  0  0  0  0  0  0  0  0  0  0
   -0.0458    2.6665   -0.4003 C   0  0  0  0  0  0  0  0  0  0  0  0
   -0.7410    3.8661   -0.5133 C   0  0  0  0  0  0  0  0  0  0  0  0
   -1.0893    4.3308   -1.7866 N   0  0  0  0  0  0  0  0  0  0  0  0
   -2.4076    4.5086   -2.1140 C   0  0  0  0  0  0  0  0  0  0  0  0
   -3.2497    3.8192   -1.6084 O   0  0  0  0  0  0  0  0  0  0  0  0
   -2.8037    5.5792   -3.1177 C   0  0  0  0  0  0  0  0  0  0  0  0
   -1.0921    4.6015    0.6139 C   0  0  0  0  0  0  0  0  0  0  0  0
   -0.7359    4.1210    1.8695 C   0  0  0  0  0  0  0  0  0  0  0  0
   -0.0406    2.9246    2.0065 C   0  0  0  0  0  0  0  0  0  0  0  0
    3.0922    0.0268    1.4798 N   0  0  0  0  0  0  0  0  0  0  0  0
    4.4252    0.2929    1.3410 C   0  0  0  0  0  0  0  0  0  0  0  0
    5.4808   -0.5996    1.7731 C   0  0  0  0  0  0  0  0  0  0  0  0
    6.4063   -0.1751    2.7214 C   0  0  0  0  0  0  0  0  0  0  0  0
    6.3441    1.1084    3.2773 N   0  0  0  0  0  0  0  0  0  0  0  0
    5.4931    1.5089    4.3032 C   0  0  0  0  0  0  0  0  0  0  0  0
    4.6781    0.7947    4.8631 O   0  0  0  0  0  0  0  0  0  0  0  0
    5.7390    2.9030    4.5842 C   0  0  0  0  0  0  0  0  0  0  0  0
    6.7205    3.3104    3.7192 C   0  0  0  0  0  0  0  0  0  0  0  0
    7.1085    4.6435    3.8084 C   0  0  0  0  0  0  0  0  0  0  0  0
    6.5246    5.5053    4.7298 C   0  0  0  0  0  0  0  0  0  0  0  0
    5.5297    5.0545    5.5913 C   0  0  0  0  0  0  0  0  0  0  0  0
    5.1221    3.7264    5.5181 C   0  0  0  0  0  0  0  0  0  0  0  0
    7.1261    2.1949    2.8974 C   0  0  0  0  0  0  0  0  0  0  0  0
    7.9900    2.2149    2.0354 O   0  0  0  0  0  0  0  0  0  0  0  0
    7.4196   -1.0322    3.1364 C   0  0  0  0  0  0  0  0  0  0  0  0
    7.5083   -2.3142    2.6034 C   0  0  0  0  0  0  0  0  0  0  0  0
    6.5833   -2.7388    1.6552 C   0  0  0  0  0  0  0  0  0  0  0  0
    5.5700   -1.8813    1.2394 C   0  0  0  0  0  0  0  0  0  0  0  0
    4.7811    1.4716    0.7594 C   0  0  0  0  0  0  0  0  0  0  0  0
    2.5424   -1.1964    2.0815 C   0  0  0  0  0  0  0  0  0  0  0  0
    2.4676   -1.0294    3.5903 C   0  0  0  0  0  0  0  0  0  0  0  0
    3.1713   -1.8999    4.4214 C   0  0  0  0  0  0  0  0  0  0  0  0
    3.9191   -2.8886    3.8853 O   0  0  0  0  0  0  0  0  0  0  0  0
    4.6359   -3.7754    4.7316 C   0  0  0  0  0  0  0  0  0  0  0  0
    3.0840   -1.7384    5.8015 C   0  0  0  0  0  0  0  0  0  0  0  0
    2.3043   -0.7051    6.3094 C   0  0  0  0  0  0  0  0  0  0  0  0
    1.5986    0.1930    5.5374 C   0  0  0  0  0  0  0  0  0  0  0  0
    0.9392    1.0620    6.3394 O   0  0  0  0  0  0  0  0  0  0  0  0
    1.4650    1.0680    7.6565 C   0  0  0  0  0  0  0  0  0  0  0  0
    2.0168   -0.3367    7.7527 C   0  0  0  0  0  0  0  0  0  0  0  0
    0.4009    1.2981    8.7172 C   0  0  0  0  0  0  0  0  0  0  0  0
    1.7060   -0.0125    4.1610 C   0  0  0  0  0  0  0  0  0  0  0  0
  1  2  1  0
  2  3  2  0
  3  4  1  0
  4  5  2  0
  5  6  1  0
  6  7  1  0
  7  8  1  0
  8  9  2  0
  8 10  1  0
  6 11  2  0
 11 12  1  0
 12 13  2  0
 13  4  1  0
  2 14  1  0
 14 15  1  0
 15 16  1  0
 16 17  1  0
 17 18  1  0
 18 19  1  0
 19 20  2  0
 19 21  1  0
 21 22  2  0
 22 23  1  0
 23 24  2  0
 24 25  1  0
 25 26  2  0
 26 21  1  0
 22 27  1  0
 27 18  1  0
 27 28  2  0
 17 29  2  0
 29 30  1  0
 30 31  2  0
 31 32  1  0
 32 16  2  0
 15 33  2  0
 33  1  1  0
 14 34  1  0
 34 35  1  0
 35 36  2  0
 36 37  1  0
 37 38  1  0
 36 39  1  0
 39 40  2  0
 40 41  1  0
 41 42  1  0
 42 43  1  0
 43 44  1  0
 44 40  1  0
 43 45  1  0
 41 46  2  0
 46 35  1  0
M  END
$$$$
s_43____746388____9284818
     RDKit          3D

 31 35  0  0  0  0  0  0  0  0999 V2000
    3.3303    3.5831    2.4714 S   0  0  0  0  0  0  0  0  0  0  0  0
    4.2182    2.1329    2.4615 C   0  0  0  0  0  0  0  0  0  0  0  0
    3.3498    1.1464    2.4729 N   0  0  0  0  0  0  0  0  0  0  0  0
    2.0375    1.5302    2.4908 C   0  0  0  0  0  0  0  0  0  0  0  0
    0.9114    0.6167    2.5151 C   0  0  0  0  0  0  0  0  0  0  0  0
   -0.3489    1.0549    2.1203 C   0  0  0  0  0  0  0  0  0  0  0  0
   -0.5625    2.3712    1.6941 N   0  0  0  0  0  0  0  0  0  0  0  0
   -1.0991    3.3980    2.4655 C   0  0  0  0  0  0  0  0  0  0  0  0
   -1.4611    3.2934    3.6256 O   0  0  0  0  0  0  0  0  0  0  0  0
   -1.1543    4.5946    1.6606 C   0  0  0  0  0  0  0  0  0  0  0  0
   -0.6612    4.2606    0.4267 C   0  0  0  0  0  0  0  0  0  0  0  0
   -0.6352    5.2762   -0.5240 C   0  0  0  0  0  0  0  0  0  0  0  0
   -1.0874    6.5564   -0.2255 C   0  0  0  0  0  0  0  0  0  0  0  0
   -1.5823    6.8569    1.0395 C   0  0  0  0  0  0  0  0  0  0  0  0
   -1.6221    5.8568    2.0056 C   0  0  0  0  0  0  0  0  0  0  0  0
   -0.2697    2.8711    0.4288 C   0  0  0  0  0  0  0  0  0  0  0  0
    0.2210    2.2620   -0.5082 O   0  0  0  0  0  0  0  0  0  0  0  0
   -1.4285    0.1788    2.1434 C   0  0  0  0  0  0  0  0  0  0  0  0
   -1.2488   -1.1360    2.5614 C   0  0  0  0  0  0  0  0  0  0  0  0
    0.0110   -1.5743    2.9562 C   0  0  0  0  0  0  0  0  0  0  0  0
    1.0909   -0.6978    2.9338 C   0  0  0  0  0  0  0  0  0  0  0  0
    1.7841    2.8690    2.4950 C   0  0  0  0  0  0  0  0  0  0  0  0
    5.6658    2.0266    2.4390 C   0  0  0  0  0  0  0  0  0  0  0  0
    6.2600    0.7688    2.4332 C   0  0  0  0  0  0  0  0  0  0  0  0
    7.6479    0.6802    2.4098 C   0  0  0  0  0  0  0  0  0  0  0  0
    8.4389    1.8244    2.3931 C   0  0  0  0  0  0  0  0  0  0  0  0
    7.8221    3.0709    2.3993 C   0  0  0  0  0  0  0  0  0  0  0  0
    6.4362    3.1844    2.4221 C   0  0  0  0  0  0  0  0  0  0  0  0
    8.2752   -0.6274    2.4038 C   0  0  0  0  0  0  0  0  0  0  0  0
    9.4816   -0.7196    2.3844 O   0  0  0  0  0  0  0  0  0  0  0  0
    7.5697   -1.6592    2.4187 O   0  0  0  0  0  0  0  0  0  0  0  0
  1  2  1  0
  2  3  2  0
  3  4  1  0
  4  5  1  0
  5  6  1  0
  6  7  1  0
  7  8  1  0
  8  9  2  0
  8 10  1  0
 10 11  2  0
 11 12  1  0
 12 13  2  0
 13 14  1  0
 14 15  2  0
 15 10  1  0
 11 16  1  0
 16  7  1  0
 16 17  2  0
  6 18  2  0
 18 19  1  0
 19 20  2  0
 20 21  1  0
 21  5  2  0
  4 22  2  0
 22  1  1  0
  2 23  1  0
 23 24  2  0
 24 25  1  0
 25 26  2  0
 26 27  1  0
 27 28  2  0
 28 23  1  0
 25 29  1  0
 29 30  1  0
 29 31  2  0
M  CHG  1  30  -1
M  END
$$$$
s_42a____87937____125250
     RDKit          3D

 38 42  0  0  0  0  0  0  0  0999 V2000
    5.1504    0.5471   -0.3826 Br  0  0  0  0  0  0  0  0  0  0  0  0
    6.1680    0.3101    1.2759 C   0  0  0  0  0  0  0  0  0  0  0  0
    5.6609    0.8210    2.4637 C   0  0  0  0  0  0  0  0  0  0  0  0
    6.3463    0.6711    3.6022 N   0  0  0  0  0  0  0  0  0  0  0  0
    7.5235    0.0252    3.5260 C   0  0  0  0  0  0  0  0  0  0  0  0
    8.5044   -0.1724    4.8910 S   0  0  0  0  0  0  0  0  0  0  0  0
    9.7867   -0.9667    4.1204 C   0  0  0  0  0  0  0  0  0  0  0  0
    9.4133   -1.0737    2.8091 C   0  0  0  0  0  0  0  0  0  0  0  0
    8.1464   -0.5225    2.4462 C   0  0  0  0  0  0  0  0  0  0  0  0
    7.3846   -0.3556    1.2711 C   0  0  0  0  0  0  0  0  0  0  0  0
    7.8853   -0.8714    0.0088 C   0  0  0  0  0  0  0  0  0  0  0  0
    7.9052   -2.2452   -0.2070 C   0  0  0  0  0  0  0  0  0  0  0  0
    8.3870   -2.7272   -1.4192 C   0  0  0  0  0  0  0  0  0  0  0  0
    8.4117   -4.0586   -1.6416 O   0  0  0  0  0  0  0  0  0  0  0  0
    7.9486   -4.9542   -0.6416 C   0  0  0  0  0  0  0  0  0  0  0  0
    8.8429   -1.8591   -2.4052 C   0  0  0  0  0  0  0  0  0  0  0  0
    8.8123   -0.4899   -2.1642 C   0  0  0  0  0  0  0  0  0  0  0  0
    9.2539    0.3589   -3.1161 O   0  0  0  0  0  0  0  0  0  0  0  0
    9.7432   -0.1490   -4.3486 C   0  0  0  0  0  0  0  0  0  0  0  0
    8.3357    0.0183   -0.9604 C   0  0  0  0  0  0  0  0  0  0  0  0
   10.5381   -1.8068    2.1137 C   0  0  0  0  0  0  0  0  0  0  0  0
   11.8276   -1.1121    2.4838 C   0  0  0  0  0  0  0  0  0  0  0  0
   11.9964   -0.7183    3.9508 C   0  0  0  0  0  0  0  0  0  0  0  0
   11.0070   -1.2837    4.9482 C   0  0  0  0  0  0  0  0  0  0  0  0
    4.3937    1.5243    2.4800 C   0  0  0  0  0  0  0  0  0  0  0  0
    4.3836    2.9156    2.4883 C   0  0  0  0  0  0  0  0  0  0  0  0
    3.1740    3.6024    2.5029 C   0  0  0  0  0  0  0  0  0  0  0  0
    1.9848    2.8811    2.5100 C   0  0  0  0  0  0  0  0  0  0  0  0
    0.4648    3.7275    2.5286 S   0  0  0  0  0  0  0  0  0  0  0  0
    0.6112    4.9918    1.8552 O   0  0  0  0  0  0  0  0  0  0  0  0
   -0.5328    2.9373    1.8547 O   0  0  0  0  0  0  0  0  0  0  0  0
    0.0043    3.9835    4.0711 N   0  0  0  0  0  0  0  0  0  0  0  0
    1.0227    4.7901    4.7590 C   0  0  0  0  0  0  0  0  0  0  0  0
    1.0366    4.4354    6.2370 C   0  0  0  0  0  0  0  0  0  0  0  0
   -1.2799    4.6986    4.0868 C   0  0  0  0  0  0  0  0  0  0  0  0
   -2.4197    3.6930    4.0919 C   0  0  0  0  0  0  0  0  0  0  0  0
    1.9898    1.4900    2.5021 C   0  0  0  0  0  0  0  0  0  0  0  0
    3.2017    0.8072    2.4872 C   0  0  0  0  0  0  0  0  0  0  0  0
  1  2  1  0
  2  3  2  0
  3  4  1  0
  4  5  2  0
  5  6  1  0
  6  7  1  0
  7  8  2  0
  8  9  1  0
  9  5  1  0
  9 10  2  0
 10  2  1  0
 10 11  1  0
 11 12  2  0
 12 13  1  0
 13 14  1  0
 14 15  1  0
 13 16  2  0
 16 17  1  0
 17 18  1  0
 18 19  1  0
 17 20  2  0
 20 11  1  0
  8 21  1  0
 21 22  1  0
 22 23  1  0
 23 24  1  0
 24  7  1  0
  3 25  1  0
 25 26  2  0
 26 27  1  0
 27 28  2  0
 28 29  1  0
 29 30  2  0
 29 31  2  0
 29 32  1  0
 32 33  1  0
 33 34  1  0
 32 35  1  0
 35 36  1  0
 28 37  1  0
 37 38  2  0
 38 25  1  0
M  END
$$$$
s_42a____8624698____6815534
     RDKit          3D

 35 40  0  0  0  0  0  0  0  0999 V2000
    6.3475   -1.7317    2.4452 Cl  0  0  0  0  0  0  0  0  0  0  0  0
    5.4895   -0.1716    2.4623 C   0  0  0  0  0  0  0  0  0  0  0  0
    6.2041    1.0209    2.4727 C   0  0  0  0  0  0  0  0  0  0  0  0
    5.5681    2.1934    2.4862 N   0  0  0  0  0  0  0  0  0  0  0  0
    4.2375    2.1262    2.4803 C   0  0  0  0  0  0  0  0  0  0  0  0
    3.3979    3.5944    2.4874 S   0  0  0  0  0  0  0  0  0  0  0  0
    1.8644    2.8671    2.4627 C   0  0  0  0  0  0  0  0  0  0  0  0
    2.0219    1.5128    2.4766 C   0  0  0  0  0  0  0  0  0  0  0  0
    3.3740    1.0517    2.4704 C   0  0  0  0  0  0  0  0  0  0  0  0
    4.0998   -0.1305    2.4630 C   0  0  0  0  0  0  0  0  0  0  0  0
    3.3762   -1.3871    2.4514 C   0  0  0  0  0  0  0  0  0  0  0  0
    3.0324   -1.9959    3.6541 C   0  0  0  0  0  0  0  0  0  0  0  0
    2.3393   -3.2015    3.6372 C   0  0  0  0  0  0  0  0  0  0  0  0
    1.9976   -3.7830    2.4202 C   0  0  0  0  0  0  0  0  0  0  0  0
    2.3397   -3.1720    1.2177 C   0  0  0  0  0  0  0  0  0  0  0  0
    3.0342   -1.9669    1.2345 C   0  0  0  0  0  0  0  0  0  0  0  0
    1.2412   -5.1017    2.4083 C   0  0  0  0  0  0  0  0  0  0  0  0
   -0.0671   -4.8624    2.4122 F   0  0  0  0  0  0  0  0  0  0  0  0
    1.5631   -5.7876    1.3152 F   0  0  0  0  0  0  0  0  0  0  0  0
    1.5658   -5.8087    3.4870 F   0  0  0  0  0  0  0  0  0  0  0  0
    0.5857    1.0192    2.4857 C   0  0  0  0  0  0  0  0  0  0  0  0
   -0.2067    2.1682    3.0661 C   0  0  0  0  0  0  0  0  0  0  0  0
    0.4353    3.3517    2.3912 C   0  0  0  0  0  0  0  0  0  0  0  0
    7.6546    1.0007    2.4628 C   0  0  0  0  0  0  0  0  0  0  0  0
    8.4510    0.1374    3.1531 N   0  0  0  0  0  0  0  0  0  0  0  0
    9.6525    0.4272    2.8953 N   0  0  0  0  0  0  0  0  0  0  0  0
    9.7229    1.4368    2.0625 N   0  0  0  0  0  0  0  0  0  0  0  0
   10.9029    2.0069    1.5710 C   0  0  0  0  0  0  0  0  0  0  0  0
   10.8308    3.0798    0.6888 C   0  0  0  0  0  0  0  0  0  0  0  0
   12.0102    3.6378    0.2070 C   0  0  0  0  0  0  0  0  0  0  0  0
   13.2485    3.1376    0.5951 C   0  0  0  0  0  0  0  0  0  0  0  0
   13.2958    2.0639    1.4788 C   0  0  0  0  0  0  0  0  0  0  0  0
   12.1297    1.4902    1.9734 C   0  0  0  0  0  0  0  0  0  0  0  0
   11.9379    4.8103   -0.7577 C   0  0  0  0  0  0  0  0  0  0  0  0
    8.4597    1.8370    1.7574 C   0  0  0  0  0  0  0  0  0  0  0  0
  1  2  1  0
  2  3  2  0
  3  4  1  0
  4  5  2  0
  5  6  1  0
  6  7  1  0
  7  8  2  0
  8  9  1  0
  9  5  1  0
  9 10  2  0
 10  2  1  0
 10 11  1  0
 11 12  2  0
 12 13  1  0
 13 14  2  0
 14 15  1  0
 15 16  2  0
 16 11  1  0
 14 17  1  0
 17 18  1  0
 17 19  1  0
 17 20  1  0
  8 21  1  0
 21 22  1  0
 22 23  1  0
 23  7  1  0
  3 24  1  0
 24 25  1  0
 25 26  2  0
 26 27  1  0
 27 28  1  0
 28 29  2  0
 29 30  1  0
 30 31  2  0
 31 32  1  0
 32 33  2  0
 33 28  1  0
 30 34  1  0
 27 35  1  0
 24 35  2  0
M  END
$$$$
m_270942____15422214____9830432____9836002
     RDKit          3D

 46 51  0  0  0  0  0  0  0  0999 V2000
   -1.5710    8.6784    6.5124 S   0  0  0  0  0  0  0  0  0  0  0  0
   -2.2305    9.9274    6.7929 O   0  0  0  0  0  0  0  0  0  0  0  0
   -2.5466    7.6204    6.4655 O   0  0  0  0  0  0  0  0  0  0  0  0
   -0.8076    8.7777    5.0756 N   0  0  0  0  0  0  0  0  0  0  0  0
    0.1534    7.8220    4.7262 C   0  0  0  0  0  0  0  0  0  0  0  0
   -0.2459    6.5208    4.4396 C   0  0  0  0  0  0  0  0  0  0  0  0
    0.7182    5.5798    4.0938 C   0  0  0  0  0  0  0  0  0  0  0  0
    2.0642    5.9244    4.0330 C   0  0  0  0  0  0  0  0  0  0  0  0
    2.4398    7.2322    4.3236 C   0  0  0  0  0  0  0  0  0  0  0  0
    1.4933    8.1897    4.6715 C   0  0  0  0  0  0  0  0  0  0  0  0
    0.2881    4.1559    3.7799 C   0  0  0  0  0  0  0  0  0  0  0  0
    0.8853    3.7336    2.5048 N   0  0  0  0  0  0  0  0  0  0  0  0
    2.0315    2.9267    2.5008 C   0  0  0  0  0  0  0  0  0  0  0  0
    3.2789    3.3271    2.4974 N   0  0  0  0  0  0  0  0  0  0  0  0
    4.1071    2.3065    2.4903 N   0  0  0  0  0  0  0  0  0  0  0  0
    3.3905    1.2051    2.4893 C   0  0  0  0  0  0  0  0  0  0  0  0
    2.0806    1.5694    2.4959 N   0  0  0  0  0  0  0  0  0  0  0  0
    0.9245    0.6605    2.4981 C   0  0  0  0  0  0  0  0  0  0  0  0
    0.8234   -0.0293    1.1572 C   0  0  0  0  0  0  0  0  0  0  0  0
    1.6973    0.1920    0.1322 N   0  0  0  0  0  0  0  0  0  0  0  0
    1.4549   -0.4919   -0.9642 C   0  0  0  0  0  0  0  0  0  0  0  0
    0.0729   -1.4345   -0.6659 S   0  0  0  0  0  0  0  0  0  0  0  0
   -0.1827   -0.9174    0.9388 C   0  0  0  0  0  0  0  0  0  0  0  0
    2.1572   -0.4836   -2.1680 N   0  0  0  0  0  0  0  0  0  0  0  0
    3.3705   -1.1134   -2.2576 C   0  0  0  0  0  0  0  0  0  0  0  0
    3.8286   -1.6723   -1.2995 O   0  0  0  0  0  0  0  0  0  0  0  0
    4.1364   -1.1044   -3.5705 C   0  0  0  0  0  0  0  0  0  0  0  0
    1.5960    0.2010   -3.3416 C   0  0  0  0  0  0  0  0  0  0  0  0
    3.9073   -0.1477    2.4826 C   0  0  0  0  0  0  0  0  0  0  0  0
    3.2638   -1.4469    3.3760 S   0  0  0  0  0  0  0  0  0  0  0  0
    4.3611   -2.6356    2.8496 C   0  0  0  0  0  0  0  0  0  0  0  0
    5.2266   -2.0124    1.9791 C   0  0  0  0  0  0  0  0  0  0  0  0
    4.9743   -0.6222    1.7765 C   0  0  0  0  0  0  0  0  0  0  0  0
    6.3535   -2.7991    1.3130 C   0  0  0  0  0  0  0  0  0  0  0  0
    7.6223   -2.9304    2.1505 C   0  0  0  0  0  0  0  0  0  0  0  0
    7.7255   -4.1929    3.0052 C   0  0  0  0  0  0  0  0  0  0  0  0
    6.5745   -4.4709    3.9749 C   0  0  0  0  0  0  0  0  0  0  0  0
    5.2894   -4.9781    3.3297 C   0  0  0  0  0  0  0  0  0  0  0  0
    4.0997   -4.0220    3.4304 C   0  0  0  0  0  0  0  0  0  0  0  0
    0.2805    4.1574    1.2338 C   0  0  0  0  0  0  0  0  0  0  0  0
   -0.4101    8.3418    7.7638 C   0  0  0  0  0  0  0  0  0  0  0  0
    0.2140    9.3917    8.4296 C   0  0  0  0  0  0  0  0  0  0  0  0
    1.1402    9.1083    9.4285 C   0  0  0  0  0  0  0  0  0  0  0  0
    1.4400    7.7905    9.7573 C   0  0  0  0  0  0  0  0  0  0  0  0
    0.8109    6.7481    9.0848 C   0  0  0  0  0  0  0  0  0  0  0  0
   -0.1168    7.0200    8.0847 C   0  0  0  0  0  0  0  0  0  0  0  0
  1  2  2  0
  1  3  2  0
  1  4  1  0
  4  5  1  0
  5  6  2  0
  6  7  1  0
  7  8  2  0
  8  9  1  0
  9 10  2  0
 10  5  1  0
  7 11  1  0
 11 12  1  0
 12 13  1  0
 13 14  2  0
 14 15  1  0
 15 16  2  0
 16 17  1  0
 17 13  1  0
 17 18  1  0
 18 19  1  0
 19 20  1  0
 20 21  2  0
 21 22  1  0
 22 23  1  0
 19 23  2  0
 21 24  1  0
 24 25  1  0
 25 26  2  0
 25 27  1  0
 24 28  1  0
 16 29  1  0
 29 30  1  0
 30 31  1  0
 31 32  2  0
 32 33  1  0
 29 33  2  0
 32 34  1  0
 34 35  1  0
 35 36  1  0
 36 37  1  0
 37 38  1  0
 38 39  1  0
 39 31  1  0
 12 40  1  0
  1 41  1  0
 41 42  2  0
 42 43  1  0
 43 44  2  0
 44 45  1  0
 45 46  2  0
 46 41  1  0
M  END
$$$$
s_22____2072168____59237
     RDKit          3D

 37 42  0  0  0  0  0  0  0  0999 V2000
    4.7992   -2.7373   -0.0998 S   0  0  0  0  0  0  0  0  0  0  0  0
    5.1331   -1.5223    1.0504 C   0  0  0  0  0  0  0  0  0  0  0  0
    6.1458   -1.9130    1.7921 N   0  0  0  0  0  0  0  0  0  0  0  0
    6.6854   -3.1321    1.4622 C   0  0  0  0  0  0  0  0  0  0  0  0
    6.0430   -3.7712    0.4268 C   0  0  0  0  0  0  0  0  0  0  0  0
    6.2246   -5.1077   -0.2745 C   0  0  0  0  0  0  0  0  0  0  0  0
    6.8507   -6.1007    0.6935 C   0  0  0  0  0  0  0  0  0  0  0  0
    8.3589   -5.9235    0.8124 C   0  0  0  0  0  0  0  0  0  0  0  0
    8.8034   -4.5088    1.1730 C   0  0  0  0  0  0  0  0  0  0  0  0
    7.8895   -3.7651    2.1454 C   0  0  0  0  0  0  0  0  0  0  0  0
    4.4212   -0.3214    1.1549 N   0  0  0  0  0  0  0  0  0  0  0  0
    3.0600   -0.3164    1.0000 C   0  0  0  0  0  0  0  0  0  0  0  0
    2.4677   -1.3511    0.8644 O   0  0  0  0  0  0  0  0  0  0  0  0
    2.3000    1.0000    1.0000 C   0  0  0  0  0  0  0  0  0  0  0  0
    1.0000    1.0000    1.0000 C   0  0  0  0  0  0  0  0  0  0  0  0
    0.2743    2.2569    1.0000 C   0  0  0  0  0  0  0  0  0  0  0  0
   -1.1290    2.4102    1.0000 C   0  0  0  0  0  0  0  0  0  0  0  0
   -1.3474    3.7064    0.9965 N   0  0  0  0  0  0  0  0  0  0  0  0
   -0.2226    4.3809    1.0015 N   0  0  0  0  0  0  0  0  0  0  0  0
   -0.1068    5.7763    1.0014 C   0  0  0  0  0  0  0  0  0  0  0  0
    1.1548    6.3627    1.0070 C   0  0  0  0  0  0  0  0  0  0  0  0
    1.2658    7.7492    1.0067 C   0  0  0  0  0  0  0  0  0  0  0  0
    0.1207    8.5385    1.0010 C   0  0  0  0  0  0  0  0  0  0  0  0
   -1.1355    7.9414    0.9948 C   0  0  0  0  0  0  0  0  0  0  0  0
   -1.2588    6.5559    0.9952 C   0  0  0  0  0  0  0  0  0  0  0  0
    0.8192    3.5039    0.9982 C   0  0  0  0  0  0  0  0  0  0  0  0
   -2.1272    1.3579    1.0024 C   0  0  0  0  0  0  0  0  0  0  0  0
   -2.6442    0.8092   -0.2030 C   0  0  0  0  0  0  0  0  0  0  0  0
   -2.2312    1.2413   -1.2676 O   0  0  0  0  0  0  0  0  0  0  0  0
   -3.5542   -0.1495   -0.1689 O   0  0  0  0  0  0  0  0  0  0  0  0
   -4.0194   -0.6366    0.9691 C   0  0  0  0  0  0  0  0  0  0  0  0
   -3.5634   -0.1529    2.1918 C   0  0  0  0  0  0  0  0  0  0  0  0
   -4.0372   -0.6484    3.4023 C   0  0  0  0  0  0  0  0  0  0  0  0
   -4.9947   -1.6569    3.3902 C   0  0  0  0  0  0  0  0  0  0  0  0
   -5.4647   -2.1556    2.1790 C   0  0  0  0  0  0  0  0  0  0  0  0
   -4.9770   -1.6452    0.9804 C   0  0  0  0  0  0  0  0  0  0  0  0
   -2.5866    0.8771    2.2007 C   0  0  0  0  0  0  0  0  0  0  0  0
  1  2  1  0
  2  3  2  0
  3  4  1  0
  4  5  2  0
  5  1  1  0
  5  6  1  0
  6  7  1  0
  7  8  1  0
  8  9  1  0
  9 10  1  0
 10  4  1  0
  2 11  1  0
 11 12  1  0
 12 13  2  0
 12 14  1  0
 14 15  2  0
 15 16  1  0
 16 17  1  0
 17 18  2  0
 18 19  1  0
 19 20  1  0
 20 21  2  0
 21 22  1  0
 22 23  2  0
 23 24  1  0
 24 25  2  0
 25 20  1  0
 19 26  1  0
 16 26  2  0
 17 27  1  0
 27 28  1  0
 28 29  2  0
 28 30  1  0
 30 31  1  0
 31 32  2  0
 32 33  1  0
 33 34  2  0
 34 35  1  0
 35 36  2  0
 36 31  1  0
 32 37  1  0
 27 37  2  0
M  END
$$$$
s_1____86402____86332____7793930
     RDKit          3D

 47 52  0  0  0  0  0  0  0  0999 V2000
    7.3562    0.7401    2.3397 S   0  0  0  0  0  0  0  0  0  0  0  0
    6.5740    1.1785    3.4665 O   0  0  0  0  0  0  0  0  0  0  0  0
    7.6069   -0.6736    2.4504 O   0  0  0  0  0  0  0  0  0  0  0  0
    6.5647    1.0316    1.0037 O   0  0  0  0  0  0  0  0  0  0  0  0
    5.2153    1.0213    1.0030 C   0  0  0  0  0  0  0  0  0  0  0  0
    4.5113    2.2191    1.0552 C   0  0  0  0  0  0  0  0  0  0  0  0
    5.1850    3.3878    1.1065 O   0  0  0  0  0  0  0  0  0  0  0  0
    4.4737    4.6156    1.1601 C   0  0  0  0  0  0  0  0  0  0  0  0
    3.1200    2.2173    1.0538 C   0  0  0  0  0  0  0  0  0  0  0  0
    2.4495    1.0000    1.0000 C   0  0  0  0  0  0  0  0  0  0  0  0
    3.1415   -0.2054    0.9474 C   0  0  0  0  0  0  0  0  0  0  0  0
    4.5329   -0.1900    0.9487 C   0  0  0  0  0  0  0  0  0  0  0  0
    1.0000    1.0000    1.0000 C   0  0  0  0  0  0  0  0  0  0  0  0
    0.3750    2.0815    1.0478 N   0  0  0  0  0  0  0  0  0  0  0  0
   -0.9744    2.0815    1.0478 N   0  0  0  0  0  0  0  0  0  0  0  0
   -1.6769    1.7318   -0.0633 C   0  0  0  0  0  0  0  0  0  0  0  0
   -3.3197    1.8642    0.3689 S   0  0  0  0  0  0  0  0  0  0  0  0
   -3.1027    2.3787    1.9766 C   0  0  0  0  0  0  0  0  0  0  0  0
   -1.7515    2.4232    2.1255 C   0  0  0  0  0  0  0  0  0  0  0  0
   -1.2341    2.8275    3.4092 C   0  0  0  0  0  0  0  0  0  0  0  0
    0.4035    2.8774    3.8623 S   0  0  0  0  0  0  0  0  0  0  0  0
    0.1825    3.4463    5.4541 C   0  0  0  0  0  0  0  0  0  0  0  0
   -1.1579    3.6180    5.6137 C   0  0  0  0  0  0  0  0  0  0  0  0
   -1.9441    3.2466    4.4905 C   0  0  0  0  0  0  0  0  0  0  0  0
   -1.6264    4.1734    6.9511 C   0  0  0  0  0  0  0  0  0  0  0  0
   -0.5961    5.0960    7.4469 N   0  0  0  0  0  0  0  0  0  0  0  0
   -1.0194    6.3330    7.9455 C   0  0  0  0  0  0  0  0  0  0  0  0
   -2.1876    6.6073    7.9572 O   0  0  0  0  0  0  0  0  0  0  0  0
    0.0005    7.3294    8.4723 C   0  0  0  0  0  0  0  0  0  0  0  0
    0.8508    4.8115    7.4511 C   0  0  0  0  0  0  0  0  0  0  0  0
    1.2670    3.7096    6.4874 C   0  0  0  0  0  0  0  0  0  0  0  0
   -1.2108    1.3821   -1.1906 N   0  0  0  0  0  0  0  0  0  0  0  0
   -0.9550    2.3470   -2.1722 C   0  0  0  0  0  0  0  0  0  0  0  0
   -1.8837    2.5591   -3.1855 C   0  0  0  0  0  0  0  0  0  0  0  0
   -3.0069    1.8480   -3.2175 F   0  0  0  0  0  0  0  0  0  0  0  0
   -1.6465    3.5137   -4.1691 C   0  0  0  0  0  0  0  0  0  0  0  0
   -0.4680    4.2509   -4.1231 C   0  0  0  0  0  0  0  0  0  0  0  0
    0.4637    4.0414   -3.1122 C   0  0  0  0  0  0  0  0  0  0  0  0
    0.2222    3.0867   -2.1307 C   0  0  0  0  0  0  0  0  0  0  0  0
    8.8703    1.5975    2.3158 C   0  0  0  0  0  0  0  0  0  0  0  0
    8.9748    2.8905    2.8202 C   0  0  0  0  0  0  0  0  0  0  0  0
   10.1974    3.5525    2.7881 C   0  0  0  0  0  0  0  0  0  0  0  0
   11.3152    2.9223    2.2520 C   0  0  0  0  0  0  0  0  0  0  0  0
   11.2057    1.6301    1.7495 C   0  0  0  0  0  0  0  0  0  0  0  0
    9.9853    0.9630    1.7788 C   0  0  0  0  0  0  0  0  0  0  0  0
   12.4247    0.9361    1.1624 C   0  0  0  0  0  0  0  0  0  0  0  0
    7.7733    3.6086    3.4133 C   0  0  0  0  0  0  0  0  0  0  0  0
  1  2  2  0
  1  3  2  0
  1  4  1  0
  4  5  1  0
  5  6  2  0
  6  7  1  0
  7  8  1  0
  6  9  1  0
  9 10  2  0
 10 11  1  0
 11 12  2  0
 12  5  1  0
 10 13  1  0
 13 14  2  0
 14 15  1  0
 15 16  1  0
 16 17  1  0
 17 18  1  0
 18 19  2  0
 19 15  1  0
 19 20  1  0
 20 21  1  0
 21 22  1  0
 22 23  2  0
 23 24  1  0
 20 24  2  0
 23 25  1  0
 25 26  1  0
 26 27  1  0
 27 28  2  0
 27 29  1  0
 26 30  1  0
 30 31  1  0
 31 22  1  0
 16 32  2  0
 32 33  1  0
 33 34  2  0
 34 35  1  0
 34 36  1  0
 36 37  2  0
 37 38  1  0
 38 39  2  0
 39 33  1  0
  1 40  1  0
 40 41  2  0
 41 42  1  0
 42 43  2  0
 43 44  1  0
 44 45  2  0
 45 40  1  0
 44 46  1  0
 41 47  1  0
M  END
$$$$
s_2____11687950____15108542____9284808
     RDKit          3D

 45 51  0  0  0  0  0  0  0  0999 V2000
    8.6746    4.8465    6.5666 S   0  0  0  0  0  0  0  0  0  0  0  0
    7.7920    5.6072    7.4126 O   0  0  0  0  0  0  0  0  0  0  0  0
    9.3913    3.8840    7.3627 O   0  0  0  0  0  0  0  0  0  0  0  0
    9.7352    5.8517    5.8444 N   0  0  0  0  0  0  0  0  0  0  0  0
    7.7433    4.0173    5.3535 C   0  0  0  0  0  0  0  0  0  0  0  0
    8.0233    4.2276    4.0074 C   0  0  0  0  0  0  0  0  0  0  0  0
    7.2750    3.5624    3.0423 C   0  0  0  0  0  0  0  0  0  0  0  0
    6.2585    2.6964    3.4312 C   0  0  0  0  0  0  0  0  0  0  0  0
    5.5094    2.0301    2.4537 N   0  0  0  0  0  0  0  0  0  0  0  0
    4.2406    2.1295    2.4468 C   0  0  0  0  0  0  0  0  0  0  0  0
    3.3299    3.5681    2.4036 S   0  0  0  0  0  0  0  0  0  0  0  0
    1.7813    2.8529    2.4247 C   0  0  0  0  0  0  0  0  0  0  0  0
    2.0334    1.5154    2.4653 C   0  0  0  0  0  0  0  0  0  0  0  0
    3.3388    1.1121    2.4746 N   0  0  0  0  0  0  0  0  0  0  0  0
    3.7804   -0.2891    2.5193 C   0  0  0  0  0  0  0  0  0  0  0  0
    4.0572   -0.7784    1.1070 C   0  0  0  0  0  0  0  0  0  0  0  0
    4.5138   -2.2274    1.1532 C   0  0  0  0  0  0  0  0  0  0  0  0
    4.7815   -2.7007   -0.2127 N   0  0  0  0  0  0  0  0  0  0  0  0
    5.9941   -2.6129   -0.8491 C   0  0  0  0  0  0  0  0  0  0  0  0
    5.7785   -3.1506   -2.0962 C   0  0  0  0  0  0  0  0  0  0  0  0
    4.4851   -3.5813   -2.1593 N   0  0  0  0  0  0  0  0  0  0  0  0
    3.8704   -3.3039   -1.0301 C   0  0  0  0  0  0  0  0  0  0  0  0
    6.8483   -3.2373   -3.1769 C   0  0  0  0  0  0  0  0  0  0  0  0
    8.2505   -3.1210   -2.6067 C   0  0  0  0  0  0  0  0  0  0  0  0
    8.2768   -1.8576   -1.7625 C   0  0  0  0  0  0  0  0  0  0  0  0
    7.4037   -2.1136   -0.5418 C   0  0  0  0  0  0  0  0  0  0  0  0
    0.9034    0.6099    2.4960 C   0  0  0  0  0  0  0  0  0  0  0  0
   -0.0191    0.6125    1.4544 C   0  0  0  0  0  0  0  0  0  0  0  0
    0.1171    1.4778    0.3622 N   0  0  0  0  0  0  0  0  0  0  0  0
    0.9615    1.2844   -0.7272 C   0  0  0  0  0  0  0  0  0  0  0  0
    1.7051    0.3301   -0.8826 O   0  0  0  0  0  0  0  0  0  0  0  0
    0.8070    2.3997   -1.6300 C   0  0  0  0  0  0  0  0  0  0  0  0
   -0.1148    3.2394   -1.0622 C   0  0  0  0  0  0  0  0  0  0  0  0
   -0.4091    4.4019   -1.7678 C   0  0  0  0  0  0  0  0  0  0  0  0
    0.2052    4.6842   -2.9825 C   0  0  0  0  0  0  0  0  0  0  0  0
    1.1374    3.8068   -3.5268 C   0  0  0  0  0  0  0  0  0  0  0  0
    1.4512    2.6398   -2.8376 C   0  0  0  0  0  0  0  0  0  0  0  0
   -0.5728    2.6731    0.1843 C   0  0  0  0  0  0  0  0  0  0  0  0
   -1.4052    3.1613    0.9318 O   0  0  0  0  0  0  0  0  0  0  0  0
   -1.1037   -0.2571    1.4839 C   0  0  0  0  0  0  0  0  0  0  0  0
   -1.2669   -1.1298    2.5551 C   0  0  0  0  0  0  0  0  0  0  0  0
   -0.3448   -1.1324    3.5967 C   0  0  0  0  0  0  0  0  0  0  0  0
    0.7399   -0.2621    3.5676 C   0  0  0  0  0  0  0  0  0  0  0  0
    5.9835    2.4907    4.7785 C   0  0  0  0  0  0  0  0  0  0  0  0
    6.7279    3.1530    5.7488 C   0  0  0  0  0  0  0  0  0  0  0  0
  1  2  2  0
  1  3  2  0
  1  4  1  0
  1  5  1  0
  5  6  2  0
  6  7  1  0
  7  8  2  0
  8  9  1  0
  9 10  2  0
 10 11  1  0
 11 12  1  0
 12 13  2  0
 13 14  1  0
 14 10  1  0
 14 15  1  0
 15 16  1  0
 16 17  1  0
 17 18  1  0
 18 19  1  0
 19 20  2  0
 20 21  1  0
 21 22  2  0
 22 18  1  0
 20 23  1  0
 23 24  1  0
 24 25  1  0
 25 26  1  0
 26 19  1  0
 13 27  1  0
 27 28  1  0
 28 29  1  0
 29 30  1  0
 30 31  2  0
 30 32  1  0
 32 33  2  0
 33 34  1  0
 34 35  2  0
 35 36  1  0
 36 37  2  0
 37 32  1  0
 33 38  1  0
 38 29  1  0
 38 39  2  0
 28 40  2  0
 40 41  1  0
 41 42  2  0
 42 43  1  0
 43 27  2  0
  8 44  1  0
 44 45  2  0
 45  5  1  0
M  END
$$$$
s_1____3000760____14589724____9967402
     RDKit          3D

 41 45  0  0  0  0  0  0  0  0999 V2000
    8.4241   -0.3255   -2.5718 S   0  0  0  0  0  0  0  0  0  0  0  0
    8.8866   -1.4473   -3.3472 O   0  0  0  0  0  0  0  0  0  0  0  0
    7.7151    0.5900   -3.4278 O   0  0  0  0  0  0  0  0  0  0  0  0
    7.3595   -0.8880   -1.3159 C   0  0  0  0  0  0  0  0  0  0  0  0
    6.3364   -0.0630   -0.8609 C   0  0  0  0  0  0  0  0  0  0  0  0
    5.4930   -0.5256    0.1441 C   0  0  0  0  0  0  0  0  0  0  0  0
    5.6632   -1.7928    0.6923 C   0  0  0  0  0  0  0  0  0  0  0  0
    6.6923   -2.6024    0.2229 C   0  0  0  0  0  0  0  0  0  0  0  0
    7.5464   -2.1590   -0.7816 C   0  0  0  0  0  0  0  0  0  0  0  0
    4.4314    0.3272    0.6179 C   0  0  0  0  0  0  0  0  0  0  0  0
    3.0944    0.0541    0.4763 N   0  0  0  0  0  0  0  0  0  0  0  0
    2.5988   -1.0465   -0.1270 N   0  0  0  0  0  0  0  0  0  0  0  0
    2.4951   -1.0837   -1.3721 C   0  0  0  0  0  0  0  0  0  0  0  0
    1.9640   -2.2631   -2.0185 C   0  0  0  0  0  0  0  0  0  0  0  0
    1.5775   -3.3388   -1.2282 C   0  0  0  0  0  0  0  0  0  0  0  0
    1.0619   -4.4649   -1.8563 C   0  0  0  0  0  0  0  0  0  0  0  0
    0.9574   -4.4885   -3.2285 C   0  0  0  0  0  0  0  0  0  0  0  0
    1.3470   -3.4132   -4.0209 C   0  0  0  0  0  0  0  0  0  0  0  0
    1.8581   -2.2778   -3.4042 C   0  0  0  0  0  0  0  0  0  0  0  0
    0.3767   -5.8334   -3.6179 C   0  0  0  0  0  0  0  0  0  0  0  0
   -0.3917   -6.1920   -2.3668 C   0  0  0  0  0  0  0  0  0  0  0  0
    0.5624   -5.7685   -1.2758 C   0  0  0  0  0  0  0  0  0  0  0  0
   -0.5314   -5.7545   -4.8338 C   0  0  0  0  0  0  0  0  0  0  0  0
    1.4669   -6.8506   -3.9195 C   0  0  0  0  0  0  0  0  0  0  0  0
    2.2690    1.0000    1.0000 C   0  0  0  0  0  0  0  0  0  0  0  0
    3.2928    2.1936    1.6560 S   0  0  0  0  0  0  0  0  0  0  0  0
    4.7831    1.4801    1.2480 C   0  0  0  0  0  0  0  0  0  0  0  0
    1.0000    1.0000    1.0000 N   0  0  0  0  0  0  0  0  0  0  0  0
    0.2997    2.1987    1.1855 C   0  0  0  0  0  0  0  0  0  0  0  0
   -1.0290    2.1718    1.5984 C   0  0  0  0  0  0  0  0  0  0  0  0
   -1.6338    0.9853    1.8173 O   0  0  0  0  0  0  0  0  0  0  0  0
   -3.0373    0.9316    2.0257 C   0  0  0  0  0  0  0  0  0  0  0  0
   -3.4618   -0.5111    2.2471 C   0  0  0  0  0  0  0  0  0  0  0  0
   -1.7341    3.3564    1.7859 C   0  0  0  0  0  0  0  0  0  0  0  0
   -1.0944    4.5700    1.5551 C   0  0  0  0  0  0  0  0  0  0  0  0
    0.2341    4.5891    1.1423 C   0  0  0  0  0  0  0  0  0  0  0  0
    0.8447    5.7728    0.9223 O   0  0  0  0  0  0  0  0  0  0  0  0
    0.0831    6.9711    0.8996 C   0  0  0  0  0  0  0  0  0  0  0  0
    1.0036    8.1515    0.6351 C   0  0  0  0  0  0  0  0  0  0  0  0
    0.9445    3.4086    0.9539 C   0  0  0  0  0  0  0  0  0  0  0  0
    9.8417    0.5190   -1.8278 C   0  0  0  0  0  0  0  0  0  0  0  0
  1  2  2  0
  1  3  2  0
  1  4  1  0
  4  5  2  0
  5  6  1  0
  6  7  2  0
  7  8  1  0
  8  9  2  0
  9  4  1  0
  6 10  1  0
 10 11  1  0
 11 12  1  0
 12 13  2  0
 13 14  1  0
 14 15  2  0
 15 16  1  0
 16 17  2  0
 17 18  1  0
 18 19  2  0
 19 14  1  0
 17 20  1  0
 20 21  1  0
 21 22  1  0
 22 16  1  0
 20 23  1  0
 20 24  1  0
 11 25  1  0
 25 26  1  0
 26 27  1  0
 10 27  2  0
 25 28  2  0
 28 29  1  0
 29 30  2  0
 30 31  1  0
 31 32  1  0
 32 33  1  0
 30 34  1  0
 34 35  2  0
 35 36  1  0
 36 37  1  0
 37 38  1  0
 38 39  1  0
 36 40  2  0
 40 29  1  0
  1 41  1  0
M  END
$$$$
s_270196____8770000____8781396
     RDKit          3D

 35 39  0  0  0  0  0  0  0  0999 V2000
   -2.9216    1.5635    2.5540 F   0  0  0  0  0  0  0  0  0  0  0  0
   -2.9381    2.8934    2.5596 C   0  0  0  0  0  0  0  0  0  0  0  0
   -1.7418    3.6046    2.5502 C   0  0  0  0  0  0  0  0  0  0  0  0
   -1.7593    4.9949    2.5564 C   0  0  0  0  0  0  0  0  0  0  0  0
   -2.9725    5.6751    2.5703 C   0  0  0  0  0  0  0  0  0  0  0  0
   -4.1685    4.9643    2.5796 C   0  0  0  0  0  0  0  0  0  0  0  0
   -4.1511    3.5737    2.5737 C   0  0  0  0  0  0  0  0  0  0  0  0
   -0.4768    2.8955    2.5349 C   0  0  0  0  0  0  0  0  0  0  0  0
   -0.4616    1.6956    2.5303 O   0  0  0  0  0  0  0  0  0  0  0  0
    0.7008    3.5955    2.5256 N   0  0  0  0  0  0  0  0  0  0  0  0
    1.9830    2.8768    2.5101 C   0  0  0  0  0  0  0  0  0  0  0  0
    3.1728    3.5972    2.5008 C   0  0  0  0  0  0  0  0  0  0  0  0
    4.3800    2.9062    2.4867 C   0  0  0  0  0  0  0  0  0  0  0  0
    4.4072    1.5158    2.4809 C   0  0  0  0  0  0  0  0  0  0  0  0
    3.2053    0.8159    2.4905 C   0  0  0  0  0  0  0  0  0  0  0  0
    1.9867    1.4860    2.5051 C   0  0  0  0  0  0  0  0  0  0  0  0
    5.6233    3.6529    2.4786 C   0  0  0  0  0  0  0  0  0  0  0  0
    6.8334    3.1452    2.4653 N   0  0  0  0  0  0  0  0  0  0  0  0
    7.6726    4.0952    2.4590 O   0  0  0  0  0  0  0  0  0  0  0  0
    7.0370    5.2416    2.4694 C   0  0  0  0  0  0  0  0  0  0  0  0
    5.7496    5.0058    2.4805 N   0  0  0  0  0  0  0  0  0  0  0  0
    7.6564    6.5516    2.4676 C   0  0  0  0  0  0  0  0  0  0  0  0
    6.8800    7.7033    2.4795 C   0  0  0  0  0  0  0  0  0  0  0  0
    7.4462    8.9784    2.4989 C   0  0  0  0  0  0  0  0  0  0  0  0
    8.8380    9.0761    2.5198 C   0  0  0  0  0  0  0  0  0  0  0  0
    9.6070    7.9133    2.5002 C   0  0  0  0  0  0  0  0  0  0  0  0
    9.0438    6.6421    2.4633 C   0  0  0  0  0  0  0  0  0  0  0  0
    9.5598   10.4224    2.5759 C   0  0  0  0  0  0  0  0  0  0  0  0
    8.6529   11.5773    2.1770 C   0  0  0  0  0  0  0  0  0  0  0  0
    7.2982   11.4809    2.8652 C   0  0  0  0  0  0  0  0  0  0  0  0
    6.5520   10.2128    2.4759 C   0  0  0  0  0  0  0  0  0  0  0  0
    5.2920   10.0404    3.3082 C   0  0  0  0  0  0  0  0  0  0  0  0
    6.1198   10.4324    1.0353 C   0  0  0  0  0  0  0  0  0  0  0  0
   10.8463   10.4432    1.7667 C   0  0  0  0  0  0  0  0  0  0  0  0
    9.9465   10.6690    4.0251 C   0  0  0  0  0  0  0  0  0  0  0  0
  1  2  1  0
  2  3  2  0
  3  4  1  0
  4  5  2  0
  5  6  1  0
  6  7  2  0
  7  2  1  0
  3  8  1  0
  8  9  2  0
  8 10  1  0
 10 11  1  0
 11 12  2  0
 12 13  1  0
 13 14  2  0
 14 15  1  0
 15 16  2  0
 16 11  1  0
 13 17  1  0
 17 18  2  0
 18 19  1  0
 19 20  1  0
 20 21  2  0
 21 17  1  0
 20 22  1  0
 22 23  2  0
 23 24  1  0
 24 25  2  0
 25 26  1  0
 26 27  2  0
 27 22  1  0
 25 28  1  0
 28 29  1  0
 29 30  1  0
 30 31  1  0
 31 24  1  0
 31 32  1  0
 31 33  1  0
 28 34  1  0
 28 35  1  0
M  END
$$$$
s_60____90615____11946250
     RDKit          3D

 40 44  0  0  0  0  0  0  0  0999 V2000
    5.9860   -0.2205   -1.3277 F   0  0  0  0  0  0  0  0  0  0  0  0
    5.3678   -0.3576   -0.1572 C   0  0  0  0  0  0  0  0  0  0  0  0
    5.4830   -1.5472    0.5553 C   0  0  0  0  0  0  0  0  0  0  0  0
    4.8365   -1.6912    1.7785 C   0  0  0  0  0  0  0  0  0  0  0  0
    4.0740   -0.6461    2.2897 C   0  0  0  0  0  0  0  0  0  0  0  0
    3.9640    0.5401    1.5714 C   0  0  0  0  0  0  0  0  0  0  0  0
    4.6071    0.6923    0.3477 C   0  0  0  0  0  0  0  0  0  0  0  0
    3.1708    1.6354    2.0965 C   0  0  0  0  0  0  0  0  0  0  0  0
    3.6091    2.5840    2.8914 N   0  0  0  0  0  0  0  0  0  0  0  0
    2.5721    3.4285    3.1689 C   0  0  0  0  0  0  0  0  0  0  0  0
    2.5220    4.5556    3.9486 N   0  0  0  0  0  0  0  0  0  0  0  0
    1.3524    5.2577    4.0936 C   0  0  0  0  0  0  0  0  0  0  0  0
    1.2866    6.2627    4.7831 O   0  0  0  0  0  0  0  0  0  0  0  0
    0.2221    4.8259    3.4503 N   0  0  0  0  0  0  0  0  0  0  0  0
    0.2625    3.7026    2.6703 C   0  0  0  0  0  0  0  0  0  0  0  0
   -0.7729    3.3618    2.1234 O   0  0  0  0  0  0  0  0  0  0  0  0
    1.4758    2.9752    2.5196 C   0  0  0  0  0  0  0  0  0  0  0  0
    1.8494    1.8494    1.8494 N   0  0  0  0  0  0  0  0  0  0  0  0
    1.0000    1.0000    1.0000 C   0  0  0  0  0  0  0  0  0  0  0  0
    0.6465    1.7499   -0.2740 C   0  0  0  0  0  0  0  0  0  0  0  0
   -0.2307    0.8727   -1.1512 C   0  0  0  0  0  0  0  0  0  0  0  0
   -1.6122    0.9298   -1.0048 C   0  0  0  0  0  0  0  0  0  0  0  0
   -2.4062    0.1233   -1.8131 C   0  0  0  0  0  0  0  0  0  0  0  0
   -3.7494    0.1668   -1.6843 O   0  0  0  0  0  0  0  0  0  0  0  0
   -4.3432    1.0318   -0.7275 C   0  0  0  0  0  0  0  0  0  0  0  0
   -1.8238   -0.7239   -2.7502 C   0  0  0  0  0  0  0  0  0  0  0  0
   -2.6112   -1.4992   -3.5267 O   0  0  0  0  0  0  0  0  0  0  0  0
   -2.0273   -2.3677   -4.4866 C   0  0  0  0  0  0  0  0  0  0  0  0
   -0.4404   -0.7782   -2.8938 C   0  0  0  0  0  0  0  0  0  0  0  0
    0.3569    0.0280   -2.0862 C   0  0  0  0  0  0  0  0  0  0  0  0
    3.7230    5.0345    4.6490 C   0  0  0  0  0  0  0  0  0  0  0  0
    4.0545    4.0879    5.7916 C   0  0  0  0  0  0  0  0  0  0  0  0
    3.5110    4.3124    7.0522 C   0  0  0  0  0  0  0  0  0  0  0  0
    3.8176    3.4444    8.0951 C   0  0  0  0  0  0  0  0  0  0  0  0
    4.6608    2.3607    7.8729 C   0  0  0  0  0  0  0  0  0  0  0  0
    5.1975    2.1460    6.6094 C   0  0  0  0  0  0  0  0  0  0  0  0
    4.8992    3.0072    5.5586 C   0  0  0  0  0  0  0  0  0  0  0  0
    6.2743   -2.6472    0.0415 C   0  0  0  0  0  0  0  0  0  0  0  0
    7.4680   -2.6768    0.2368 O   0  0  0  0  0  0  0  0  0  0  0  0
    5.7236   -3.5655   -0.6035 O   0  0  0  0  0  0  0  0  0  0  0  0
  1  2  1  0
  2  3  2  0
  3  4  1  0
  4  5  2  0
  5  6  1  0
  6  7  2  0
  7  2  1  0
  6  8  1  0
  8  9  2  0
  9 10  1  0
 10 11  1  0
 11 12  1  0
 12 13  2  0
 12 14  1  0
 14 15  1  0
 15 16  2  0
 15 17  1  0
 10 17  2  0
 17 18  1  0
 18  8  1  0
 18 19  1  0
 19 20  1  0
 20 21  1  0
 21 22  2  0
 22 23  1  0
 23 24  1  0
 24 25  1  0
 23 26  2  0
 26 27  1  0
 27 28  1  0
 26 29  1  0
 29 30  2  0
 30 21  1  0
 11 31  1  0
 31 32  1  0
 32 33  2  0
 33 34  1  0
 34 35  2  0
 35 36  1  0
 36 37  2  0
 37 32  1  0
  3 38  1  0
 38 39  1  0
 38 40  2  0
M  CHG  1  39  -1
M  END
$$$$
s_4____66625____67310
     RDKit          3D

 42 46  0  0  0  0  0  0  0  0999 V2000
    8.8345    0.9998   -0.1423 S   0  0  0  0  0  0  0  0  0  0  0  0
    9.3062    0.3209    1.0368 O   0  0  0  0  0  0  0  0  0  0  0  0
    9.3228    0.3212   -1.3147 O   0  0  0  0  0  0  0  0  0  0  0  0
    9.3777    2.5366   -0.1383 N   0  0  0  0  0  0  0  0  0  0  0  0
    9.8011    3.1264    1.0590 C   0  0  0  0  0  0  0  0  0  0  0  0
    8.8854    3.8128    1.8501 C   0  0  0  0  0  0  0  0  0  0  0  0
    9.3097    4.3971    3.0389 C   0  0  0  0  0  0  0  0  0  0  0  0
   10.6407    4.2930    3.4287 C   0  0  0  0  0  0  0  0  0  0  0  0
   11.5473    3.6038    2.6301 C   0  0  0  0  0  0  0  0  0  0  0  0
   11.1345    3.0155    1.4392 C   0  0  0  0  0  0  0  0  0  0  0  0
    9.4231    3.3034   -1.3916 C   0  0  0  0  0  0  0  0  0  0  0  0
    8.1064    4.0381   -1.5841 C   0  0  0  0  0  0  0  0  0  0  0  0
    7.0938    0.9997   -0.1546 C   0  0  0  0  0  0  0  0  0  0  0  0
    6.3695    0.9998   -1.3427 C   0  0  0  0  0  0  0  0  0  0  0  0
    5.0281    1.0000   -1.3350 N   0  0  0  0  0  0  0  0  0  0  0  0
    4.3349    1.0000   -0.1865 C   0  0  0  0  0  0  0  0  0  0  0  0
    2.9350    1.0000   -0.1865 N   0  0  0  0  0  0  0  0  0  0  0  0
    2.2500    1.0000    1.0000 N   0  0  0  0  0  0  0  0  0  0  0  0
    1.0000    1.0000    1.0000 C   0  0  0  0  0  0  0  0  0  0  0  0
    0.2743    2.2569    1.0000 C   0  0  0  0  0  0  0  0  0  0  0  0
   -1.1290    2.4102    1.0000 C   0  0  0  0  0  0  0  0  0  0  0  0
   -1.3474    3.7064    0.9965 N   0  0  0  0  0  0  0  0  0  0  0  0
   -0.2226    4.3809    1.0015 N   0  0  0  0  0  0  0  0  0  0  0  0
   -0.1068    5.7763    1.0014 C   0  0  0  0  0  0  0  0  0  0  0  0
    1.1548    6.3627    1.0070 C   0  0  0  0  0  0  0  0  0  0  0  0
    1.2658    7.7492    1.0067 C   0  0  0  0  0  0  0  0  0  0  0  0
    0.1207    8.5385    1.0010 C   0  0  0  0  0  0  0  0  0  0  0  0
   -1.1355    7.9414    0.9948 C   0  0  0  0  0  0  0  0  0  0  0  0
   -1.2588    6.5559    0.9952 C   0  0  0  0  0  0  0  0  0  0  0  0
    0.8192    3.5039    0.9982 C   0  0  0  0  0  0  0  0  0  0  0  0
   -2.1270    1.3582    1.0024 C   0  0  0  0  0  0  0  0  0  0  0  0
   -3.2709    1.4985    0.2228 C   0  0  0  0  0  0  0  0  0  0  0  0
   -4.2356    0.4962    0.2156 C   0  0  0  0  0  0  0  0  0  0  0  0
   -4.0390   -0.6391    0.9950 C   0  0  0  0  0  0  0  0  0  0  0  0
   -5.2372   -1.9005    0.9956 S   0  0  0  0  0  0  0  0  0  0  0  0
   -6.2672   -1.3120    2.3626 C   0  0  0  0  0  0  0  0  0  0  0  0
   -7.4257   -2.2730    2.5744 C   0  0  0  0  0  0  0  0  0  0  0  0
   -8.2907   -1.7788    3.7224 C   0  0  0  0  0  0  0  0  0  0  0  0
   -2.8972   -0.7839    1.7764 C   0  0  0  0  0  0  0  0  0  0  0  0
   -1.9352    0.2210    1.7804 C   0  0  0  0  0  0  0  0  0  0  0  0
    4.9989    1.0000    1.0360 C   0  0  0  0  0  0  0  0  0  0  0  0
    6.3899    0.9996    1.0456 C   0  0  0  0  0  0  0  0  0  0  0  0
  1  2  2  0
  1  3  2  0
  1  4  1  0
  4  5  1  0
  5  6  2  0
  6  7  1  0
  7  8  2  0
  8  9  1  0
  9 10  2  0
 10  5  1  0
  4 11  1  0
 11 12  1  0
  1 13  1  0
 13 14  2  0
 14 15  1  0
 15 16  2  0
 16 17  1  0
 17 18  1  0
 18 19  2  0
 19 20  1  0
 20 21  1  0
 21 22  2  0
 22 23  1  0
 23 24  1  0
 24 25  2  0
 25 26  1  0
 26 27  2  0
 27 28  1  0
 28 29  2  0
 29 24  1  0
 23 30  1  0
 20 30  2  0
 21 31  1  0
 31 32  2  0
 32 33  1  0
 33 34  2  0
 34 35  1  0
 35 36  1  0
 36 37  1  0
 37 38  1  0
 34 39  1  0
 39 40  2  0
 40 31  1  0
 16 41  1  0
 41 42  2  0
 42 13  1  0
M  END
$$$$
s_2____11687950____9285048____7793932
     RDKit          3D

 42 47  0  0  0  0  0  0  0  0999 V2000
    8.8234    6.6324    4.0978 S   0  0  0  0  0  0  0  0  0  0  0  0
    8.0230    7.5515    4.8648 O   0  0  0  0  0  0  0  0  0  0  0  0
    9.9248    6.1690    4.9013 O   0  0  0  0  0  0  0  0  0  0  0  0
    9.3977    7.3874    2.7722 N   0  0  0  0  0  0  0  0  0  0  0  0
    7.8467    5.2761    3.6152 C   0  0  0  0  0  0  0  0  0  0  0  0
    7.4230    4.3582    4.5705 C   0  0  0  0  0  0  0  0  0  0  0  0
    6.6430    3.2756    4.1785 C   0  0  0  0  0  0  0  0  0  0  0  0
    6.2951    3.1226    2.8406 C   0  0  0  0  0  0  0  0  0  0  0  0
    5.5094    2.0301    2.4537 N   0  0  0  0  0  0  0  0  0  0  0  0
    4.2406    2.1295    2.4468 C   0  0  0  0  0  0  0  0  0  0  0  0
    3.3299    3.5681    2.4036 S   0  0  0  0  0  0  0  0  0  0  0  0
    1.7813    2.8529    2.4247 C   0  0  0  0  0  0  0  0  0  0  0  0
    2.0334    1.5154    2.4653 C   0  0  0  0  0  0  0  0  0  0  0  0
    3.3388    1.1121    2.4746 N   0  0  0  0  0  0  0  0  0  0  0  0
    3.7804   -0.2891    2.5193 C   0  0  0  0  0  0  0  0  0  0  0  0
    4.7661   -0.5790    1.4115 C   0  0  0  0  0  0  0  0  0  0  0  0
    4.7332   -0.1126    0.2852 O   0  0  0  0  0  0  0  0  0  0  0  0
    5.7283   -1.4527    1.9040 N   0  0  0  0  0  0  0  0  0  0  0  0
    6.8769   -1.9705    1.1470 C   0  0  0  0  0  0  0  0  0  0  0  0
    8.1005   -1.1165    1.4359 C   0  0  0  0  0  0  0  0  0  0  0  0
    8.3644   -0.0090    0.6369 C   0  0  0  0  0  0  0  0  0  0  0  0
    9.4827    0.7766    0.8964 C   0  0  0  0  0  0  0  0  0  0  0  0
   10.3234    0.4437    1.9536 C   0  0  0  0  0  0  0  0  0  0  0  0
   11.3941    1.1909    2.2082 F   0  0  0  0  0  0  0  0  0  0  0  0
   10.0645   -0.6633    2.7551 C   0  0  0  0  0  0  0  0  0  0  0  0
    8.9447   -1.4449    2.4911 C   0  0  0  0  0  0  0  0  0  0  0  0
    5.4092   -1.7795    3.2971 C   0  0  0  0  0  0  0  0  0  0  0  0
    4.6404   -0.5528    3.7303 C   0  0  0  0  0  0  0  0  0  0  0  0
    0.9034    0.6099    2.4960 C   0  0  0  0  0  0  0  0  0  0  0  0
    0.7740   -0.8645    1.6602 S   0  0  0  0  0  0  0  0  0  0  0  0
   -0.7786   -1.3034    2.2109 C   0  0  0  0  0  0  0  0  0  0  0  0
   -1.1742   -0.3157    3.0593 C   0  0  0  0  0  0  0  0  0  0  0  0
   -0.2545    0.7584    3.1934 C   0  0  0  0  0  0  0  0  0  0  0  0
   -2.5258   -0.4907    3.7369 C   0  0  0  0  0  0  0  0  0  0  0  0
   -2.7400   -1.9267    3.9611 N   0  0  0  0  0  0  0  0  0  0  0  0
   -3.2062   -2.3240    5.2192 C   0  0  0  0  0  0  0  0  0  0  0  0
   -3.7324   -1.5251    5.9438 O   0  0  0  0  0  0  0  0  0  0  0  0
   -3.0461   -3.7673    5.6681 C   0  0  0  0  0  0  0  0  0  0  0  0
   -2.4939   -2.9771    2.9557 C   0  0  0  0  0  0  0  0  0  0  0  0
   -1.5628   -2.5497    1.8303 C   0  0  0  0  0  0  0  0  0  0  0  0
    6.7221    4.0437    1.8906 C   0  0  0  0  0  0  0  0  0  0  0  0
    7.5026    5.1284    2.2758 C   0  0  0  0  0  0  0  0  0  0  0  0
  1  2  2  0
  1  3  2  0
  1  4  1  0
  1  5  1  0
  5  6  2  0
  6  7  1  0
  7  8  2  0
  8  9  1  0
  9 10  2  0
 10 11  1  0
 11 12  1  0
 12 13  2  0
 13 14  1  0
 14 10  1  0
 14 15  1  0
 15 16  1  0
 16 17  2  0
 16 18  1  0
 18 19  1  0
 19 20  1  0
 20 21  2  0
 21 22  1  0
 22 23  2  0
 23 24  1  0
 23 25  1  0
 25 26  2  0
 26 20  1  0
 18 27  1  0
 27 28  1  0
 28 15  1  0
 13 29  1  0
 29 30  1  0
 30 31  1  0
 31 32  2  0
 32 33  1  0
 29 33  2  0
 32 34  1  0
 34 35  1  0
 35 36  1  0
 36 37  2  0
 36 38  1  0
 35 39  1  0
 39 40  1  0
 40 31  1  0
  8 41  1  0
 41 42  2  0
 42  5  1  0
M  END
$$$$
s_22____4786910____903526
     RDKit          3D

 30 33  0  0  0  0  0  0  0  0999 V2000
    2.2631   -0.3662   -1.4054 Cl  0  0  0  0  0  0  0  0  0  0  0  0
    3.1318    0.4010   -0.0543 C   0  0  0  0  0  0  0  0  0  0  0  0
    2.4502    1.0000    1.0000 C   0  0  0  0  0  0  0  0  0  0  0  0
    3.1404    1.5679    1.9997 N   0  0  0  0  0  0  0  0  0  0  0  0
    4.4817    1.5731    2.0077 C   0  0  0  0  0  0  0  0  0  0  0  0
    5.1608    1.0011    1.0022 N   0  0  0  0  0  0  0  0  0  0  0  0
    4.5213    0.4191   -0.0224 C   0  0  0  0  0  0  0  0  0  0  0  0
    5.1937    2.1683    3.0550 N   0  0  0  0  0  0  0  0  0  0  0  0
    6.6636    2.1614    3.0416 C   0  0  0  0  0  0  0  0  0  0  0  0
    7.1708    3.4080    2.3275 C   0  0  0  0  0  0  0  0  0  0  0  0
    7.4178    3.5179    1.0419 O   0  0  0  0  0  0  0  0  0  0  0  0
    7.8446    4.7283    0.7536 C   0  0  0  0  0  0  0  0  0  0  0  0
    7.8843    5.4473    1.9101 C   0  0  0  0  0  0  0  0  0  0  0  0
    7.4460    4.5888    2.9450 C   0  0  0  0  0  0  0  0  0  0  0  0
    1.0000    1.0000    1.0000 C   0  0  0  0  0  0  0  0  0  0  0  0
    0.4000    2.0392    1.0073 O   0  0  0  0  0  0  0  0  0  0  0  0
    0.3150   -0.1864    0.9917 N   0  0  0  0  0  0  0  0  0  0  0  0
   -0.9441   -0.2634    0.3851 C   0  0  0  0  0  0  0  0  0  0  0  0
   -1.8423    0.7872    0.5386 C   0  0  0  0  0  0  0  0  0  0  0  0
   -3.0890    0.6951   -0.0710 C   0  0  0  0  0  0  0  0  0  0  0  0
   -3.9587    1.6907    0.0664 F   0  0  0  0  0  0  0  0  0  0  0  0
   -3.4285   -0.4263   -0.8199 C   0  0  0  0  0  0  0  0  0  0  0  0
   -4.6873   -0.4988   -1.4260 N   0  0  0  0  0  0  0  0  0  0  0  0
   -5.8986   -0.5577   -0.7438 C   0  0  0  0  0  0  0  0  0  0  0  0
   -6.0444   -0.5611    0.4667 O   0  0  0  0  0  0  0  0  0  0  0  0
   -7.0005   -0.6288   -1.7812 C   0  0  0  0  0  0  0  0  0  0  0  0
   -6.2684   -1.2078   -2.9746 C   0  0  0  0  0  0  0  0  0  0  0  0
   -4.9198   -0.5285   -2.8708 C   0  0  0  0  0  0  0  0  0  0  0  0
   -2.5194   -1.4690   -0.9650 C   0  0  0  0  0  0  0  0  0  0  0  0
   -1.2690   -1.3912   -0.3606 C   0  0  0  0  0  0  0  0  0  0  0  0
  1  2  1  0
  2  3  2  0
  3  4  1  0
  4  5  2  0
  5  6  1  0
  6  7  2  0
  7  2  1  0
  5  8  1  0
  8  9  1  0
  9 10  1  0
 10 11  1  0
 11 12  1  0
 12 13  2  0
 13 14  1  0
 10 14  2  0
  3 15  1  0
 15 16  2  0
 15 17  1  0
 17 18  1  0
 18 19  2  0
 19 20  1  0
 20 21  1  0
 20 22  2  0
 22 23  1  0
 23 24  1  0
 24 25  2  0
 24 26  1  0
 26 27  1  0
 27 28  1  0
 28 23  1  0
 22 29  1  0
 29 30  2  0
 30 18  1  0
M  END
$$$$
s_527a____4786924____12218672
     RDKit          3D

 31 34  0  0  0  0  0  0  0  0999 V2000
    2.6841   -3.7246    0.5266 F   0  0  0  0  0  0  0  0  0  0  0  0
    3.2118   -2.5169    0.3546 C   0  0  0  0  0  0  0  0  0  0  0  0
    4.4618   -2.3825   -0.2395 C   0  0  0  0  0  0  0  0  0  0  0  0
    5.1574   -3.5233   -0.6540 N   0  0  0  0  0  0  0  0  0  0  0  0
    5.7263   -4.4642    0.1988 C   0  0  0  0  0  0  0  0  0  0  0  0
    5.7103   -4.4347    1.4177 O   0  0  0  0  0  0  0  0  0  0  0  0
    6.3785   -5.5241   -0.6653 C   0  0  0  0  0  0  0  0  0  0  0  0
    6.6325   -4.7648   -1.9515 C   0  0  0  0  0  0  0  0  0  0  0  0
    5.3963   -3.8968   -2.0489 C   0  0  0  0  0  0  0  0  0  0  0  0
    5.0153   -1.1193   -0.4205 C   0  0  0  0  0  0  0  0  0  0  0  0
    4.3188    0.0114   -0.0070 C   0  0  0  0  0  0  0  0  0  0  0  0
    3.0698   -0.1391    0.5854 C   0  0  0  0  0  0  0  0  0  0  0  0
    2.3700    1.0000    1.0000 N   0  0  0  0  0  0  0  0  0  0  0  0
    1.0000    1.0000    1.0000 C   0  0  0  0  0  0  0  0  0  0  0  0
    0.4000   -0.0392    1.0000 O   0  0  0  0  0  0  0  0  0  0  0  0
    0.2745    2.2566    1.0000 C   0  0  0  0  0  0  0  0  0  0  0  0
    0.9250    3.4451    1.4213 C   0  0  0  0  0  0  0  0  0  0  0  0
    2.0911    3.3091    1.7644 O   0  0  0  0  0  0  0  0  0  0  0  0
    0.2424    4.7014    1.4345 C   0  0  0  0  0  0  0  0  0  0  0  0
    0.8200    5.9150    1.8365 C   0  0  0  0  0  0  0  0  0  0  0  0
    2.0991    6.0364    2.2580 O   0  0  0  0  0  0  0  0  0  0  0  0
    2.6527    7.3243    2.4847 C   0  0  0  0  0  0  0  0  0  0  0  0
    0.1078    7.1061    1.8301 C   0  0  0  0  0  0  0  0  0  0  0  0
   -1.2137    7.0590    1.4070 C   0  0  0  0  0  0  0  0  0  0  0  0
   -1.8960    8.2175    1.4052 O   0  0  0  0  0  0  0  0  0  0  0  0
   -3.3160    8.2052    1.4051 C   0  0  0  0  0  0  0  0  0  0  0  0
   -1.8230    5.8766    1.0002 C   0  0  0  0  0  0  0  0  0  0  0  0
   -1.0858    4.6973    1.0161 C   0  0  0  0  0  0  0  0  0  0  0  0
   -1.7003    3.5399    0.6125 N   0  0  0  0  0  0  0  0  0  0  0  0
   -1.0351    2.3413    0.6034 C   0  0  0  0  0  0  0  0  0  0  0  0
    2.5034   -1.3954    0.7726 C   0  0  0  0  0  0  0  0  0  0  0  0
  1  2  1  0
  2  3  2  0
  3  4  1  0
  4  5  1  0
  5  6  2  0
  5  7  1  0
  7  8  1  0
  8  9  1  0
  9  4  1  0
  3 10  1  0
 10 11  2  0
 11 12  1  0
 12 13  1  0
 13 14  1  0
 14 15  2  0
 14 16  1  0
 16 17  1  0
 17 18  2  0
 17 19  1  0
 19 20  2  0
 20 21  1  0
 21 22  1  0
 20 23  1  0
 23 24  2  0
 24 25  1  0
 25 26  1  0
 24 27  1  0
 27 28  2  0
 28 19  1  0
 28 29  1  0
 29 30  1  0
 16 30  2  0
 12 31  2  0
 31  2  1  0
M  END
$$$$
s_22____4786910____2787412
     RDKit          3D

 31 34  0  0  0  0  0  0  0  0999 V2000
    5.9950   -2.0429    1.4951 F   0  0  0  0  0  0  0  0  0  0  0  0
    4.8986   -1.6603    0.8484 C   0  0  0  0  0  0  0  0  0  0  0  0
    4.4434   -2.3928   -0.2423 C   0  0  0  0  0  0  0  0  0  0  0  0
    5.1443   -3.5308   -0.6524 N   0  0  0  0  0  0  0  0  0  0  0  0
    4.9826   -4.8034   -0.1146 C   0  0  0  0  0  0  0  0  0  0  0  0
    4.2245   -5.1146    0.7895 O   0  0  0  0  0  0  0  0  0  0  0  0
    5.9164   -5.7360   -0.8529 C   0  0  0  0  0  0  0  0  0  0  0  0
    6.9823   -4.7944   -1.3675 C   0  0  0  0  0  0  0  0  0  0  0  0
    6.1576   -3.5718   -1.7089 C   0  0  0  0  0  0  0  0  0  0  0  0
    3.2960   -1.9939   -0.9200 C   0  0  0  0  0  0  0  0  0  0  0  0
    2.6024   -0.8611   -0.5071 C   0  0  0  0  0  0  0  0  0  0  0  0
    3.0698   -0.1391    0.5854 C   0  0  0  0  0  0  0  0  0  0  0  0
    2.3700    1.0000    1.0000 N   0  0  0  0  0  0  0  0  0  0  0  0
    1.0000    1.0000    1.0000 C   0  0  0  0  0  0  0  0  0  0  0  0
    0.4000   -0.0392    1.0000 O   0  0  0  0  0  0  0  0  0  0  0  0
    0.2400    2.3164    1.0000 C   0  0  0  0  0  0  0  0  0  0  0  0
   -0.0134    2.7552   -0.4334 C   0  0  0  0  0  0  0  0  0  0  0  0
   -1.1970    2.3452   -1.1030 C   0  0  0  0  0  0  0  0  0  0  0  0
   -2.0059    1.6524   -0.5500 O   0  0  0  0  0  0  0  0  0  0  0  0
   -1.3965    2.7571   -2.3950 N   0  0  0  0  0  0  0  0  0  0  0  0
   -0.4783    3.5483   -3.0352 C   0  0  0  0  0  0  0  0  0  0  0  0
    0.6216    3.9267   -2.4078 N   0  0  0  0  0  0  0  0  0  0  0  0
    0.8759    3.5462   -1.1156 C   0  0  0  0  0  0  0  0  0  0  0  0
    2.1520    4.0015   -0.4265 C   0  0  0  0  0  0  0  0  0  0  0  0
   -0.7421    3.9528   -4.4024 C   0  0  0  0  0  0  0  0  0  0  0  0
   -1.8633    3.5604   -5.0256 N   0  0  0  0  0  0  0  0  0  0  0  0
   -2.1232    3.9256   -6.2894 C   0  0  0  0  0  0  0  0  0  0  0  0
   -1.2132    4.7274   -6.9704 C   0  0  0  0  0  0  0  0  0  0  0  0
   -0.0571    5.1252   -6.3075 C   0  0  0  0  0  0  0  0  0  0  0  0
    0.1464    4.7274   -5.0430 N   0  0  0  0  0  0  0  0  0  0  0  0
    4.2152   -0.5258    1.2731 C   0  0  0  0  0  0  0  0  0  0  0  0
  1  2  1  0
  2  3  2  0
  3  4  1  0
  4  5  1  0
  5  6  2  0
  5  7  1  0
  7  8  1  0
  8  9  1  0
  9  4  1  0
  3 10  1  0
 10 11  2  0
 11 12  1  0
 12 13  1  0
 13 14  1  0
 14 15  2  0
 14 16  1  0
 16 17  1  0
 17 18  1  0
 18 19  2  0
 18 20  1  0
 20 21  1  0
 21 22  2  0
 22 23  1  0
 17 23  2  0
 23 24  1  0
 21 25  1  0
 25 26  2  0
 26 27  1  0
 27 28  2  0
 28 29  1  0
 29 30  2  0
 30 25  1  0
 12 31  2  0
 31  2  1  0
M  END
$$$$
s_22____7639468____9963370
     RDKit          3D

 30 33  0  0  0  0  0  0  0  0999 V2000
    7.9838   -1.8228    0.6375 S   0  0  0  0  0  0  0  0  0  0  0  0
    8.2106   -1.7574   -1.0865 C   0  0  0  0  0  0  0  0  0  0  0  0
    7.6299   -2.6656   -1.8859 N   0  0  0  0  0  0  0  0  0  0  0  0
    7.7889   -2.6370   -3.2177 C   0  0  0  0  0  0  0  0  0  0  0  0
    8.5753   -1.6415   -3.7876 C   0  0  0  0  0  0  0  0  0  0  0  0
    9.1701   -0.7074   -2.9465 C   0  0  0  0  0  0  0  0  0  0  0  0
    8.9711   -0.7912   -1.6229 N   0  0  0  0  0  0  0  0  0  0  0  0
    6.5657   -0.8226    0.7636 C   0  0  0  0  0  0  0  0  0  0  0  0
    6.5560    0.4901    0.9344 O   0  0  0  0  0  0  0  0  0  0  0  0
    5.3144    0.9181    0.9999 C   0  0  0  0  0  0  0  0  0  0  0  0
    4.5195   -0.1763    0.8451 C   0  0  0  0  0  0  0  0  0  0  0  0
    5.3268   -1.2678    0.7014 N   0  0  0  0  0  0  0  0  0  0  0  0
    3.0680   -0.1763    0.8451 C   0  0  0  0  0  0  0  0  0  0  0  0
    2.4680   -1.2066    0.7095 O   0  0  0  0  0  0  0  0  0  0  0  0
    2.3830    1.0000    1.0000 N   0  0  0  0  0  0  0  0  0  0  0  0
    1.0000    1.0000    1.0000 N   0  0  0  0  0  0  0  0  0  0  0  0
    0.3004    2.2117    1.0000 C   0  0  0  0  0  0  0  0  0  0  0  0
   -0.6484    2.4819    1.9806 C   0  0  0  0  0  0  0  0  0  0  0  0
   -0.8828    1.5719    2.9206 F   0  0  0  0  0  0  0  0  0  0  0  0
   -1.3483    3.6834    1.9873 C   0  0  0  0  0  0  0  0  0  0  0  0
   -1.0792    4.6143    0.9900 C   0  0  0  0  0  0  0  0  0  0  0  0
   -0.1351    4.3678   -0.0009 C   0  0  0  0  0  0  0  0  0  0  0  0
    0.5518    3.1587    0.0136 C   0  0  0  0  0  0  0  0  0  0  0  0
    1.4582    2.9084   -0.9270 F   0  0  0  0  0  0  0  0  0  0  0  0
   -1.8028    5.8697    0.9857 C   0  0  0  0  0  0  0  0  0  0  0  0
   -2.9476    5.9005    0.6272 O   0  0  0  0  0  0  0  0  0  0  0  0
   -1.1802    7.0213    1.3895 N   0  0  0  0  0  0  0  0  0  0  0  0
   -1.9137    8.2933    1.3836 C   0  0  0  0  0  0  0  0  0  0  0  0
   -1.2608    9.3034    0.4847 C   0  0  0  0  0  0  0  0  0  0  0  0
   -1.1043    9.4116    1.9747 C   0  0  0  0  0  0  0  0  0  0  0  0
  1  2  1  0
  2  3  2  0
  3  4  1  0
  4  5  2  0
  5  6  1  0
  6  7  2  0
  7  2  1  0
  1  8  1  0
  8  9  1  0
  9 10  1  0
 10 11  2  0
 11 12  1  0
  8 12  2  0
 11 13  1  0
 13 14  2  0
 13 15  1  0
 15 16  1  0
 16 17  1  0
 17 18  2  0
 18 19  1  0
 18 20  1  0
 20 21  2  0
 21 22  1  0
 22 23  2  0
 23 17  1  0
 23 24  1  0
 21 25  1  0
 25 26  2  0
 25 27  1  0
 27 28  1  0
 28 29  1  0
 29 30  1  0
 30 28  1  0
M  END
$$$$
s_22____1041906____537790
     RDKit          3D

 32 36  0  0  0  0  0  0  0  0999 V2000
    2.4236   -1.2678    1.6179 F   0  0  0  0  0  0  0  0  0  0  0  0
    3.0970   -0.1616    1.3164 C   0  0  0  0  0  0  0  0  0  0  0  0
    2.4002    1.0000    1.0000 C   0  0  0  0  0  0  0  0  0  0  0  0
    1.0000    1.0000    1.0000 N   0  0  0  0  0  0  0  0  0  0  0  0
    0.3150    2.1864    0.9951 C   0  0  0  0  0  0  0  0  0  0  0  0
    0.8607    3.1958    1.3464 O   0  0  0  0  0  0  0  0  0  0  0  0
   -1.0714    2.2226    0.5649 C   0  0  0  0  0  0  0  0  0  0  0  0
   -2.1522    2.6415    1.3541 C   0  0  0  0  0  0  0  0  0  0  0  0
   -3.4259    2.6180    0.7873 C   0  0  0  0  0  0  0  0  0  0  0  0
   -3.5619    2.2001   -0.4849 N   0  0  0  0  0  0  0  0  0  0  0  0
   -2.5328    1.7967   -1.2491 C   0  0  0  0  0  0  0  0  0  0  0  0
   -1.2403    1.7952   -0.7442 C   0  0  0  0  0  0  0  0  0  0  0  0
   -2.7121    1.3257   -2.6831 C   0  0  0  0  0  0  0  0  0  0  0  0
   -2.2728    2.3820   -3.6546 C   0  0  0  0  0  0  0  0  0  0  0  0
   -3.7364    2.1326   -3.4280 C   0  0  0  0  0  0  0  0  0  0  0  0
   -4.5115    3.0187    1.5289 N   0  0  0  0  0  0  0  0  0  0  0  0
   -4.3687    3.4431    2.8269 C   0  0  0  0  0  0  0  0  0  0  0  0
   -5.3322    3.7982    3.4873 O   0  0  0  0  0  0  0  0  0  0  0  0
   -3.1331    3.4793    3.4193 N   0  0  0  0  0  0  0  0  0  0  0  0
   -2.0374    3.0893    2.7081 C   0  0  0  0  0  0  0  0  0  0  0  0
   -0.9850    3.1648    3.3296 O   0  0  0  0  0  0  0  0  0  0  0  0
   -5.8702    3.0097    0.9642 C   0  0  0  0  0  0  0  0  0  0  0  0
    3.0828    2.1685    0.6814 C   0  0  0  0  0  0  0  0  0  0  0  0
    4.4730    2.1524    0.6851 C   0  0  0  0  0  0  0  0  0  0  0  0
    5.1752    3.3182    0.3655 N   0  0  0  0  0  0  0  0  0  0  0  0
    6.5464    3.4912    0.5228 C   0  0  0  0  0  0  0  0  0  0  0  0
    7.3320    2.6696    0.9661 O   0  0  0  0  0  0  0  0  0  0  0  0
    6.8914    4.8836    0.0441 C   0  0  0  0  0  0  0  0  0  0  0  0
    5.5793    5.6195    0.2002 C   0  0  0  0  0  0  0  0  0  0  0  0
    4.5880    4.5420   -0.1843 C   0  0  0  0  0  0  0  0  0  0  0  0
    5.1758    0.9948    1.0008 C   0  0  0  0  0  0  0  0  0  0  0  0
    4.4880   -0.1715    1.3187 C   0  0  0  0  0  0  0  0  0  0  0  0
  1  2  1  0
  2  3  2  0
  3  4  1  0
  4  5  1  0
  5  6  2  0
  5  7  1  0
  7  8  2  0
  8  9  1  0
  9 10  2  0
 10 11  1  0
 11 12  2  0
 12  7  1  0
 11 13  1  0
 13 14  1  0
 14 15  1  0
 15 13  1  0
  9 16  1  0
 16 17  1  0
 17 18  2  0
 17 19  1  0
 19 20  1  0
 20  8  1  0
 20 21  2  0
 16 22  1  0
  3 23  1  0
 23 24  2  0
 24 25  1  0
 25 26  1  0
 26 27  2  0
 26 28  1  0
 28 29  1  0
 29 30  1  0
 30 25  1  0
 24 31  1  0
 31 32  2  0
 32  2  1  0
M  END
$$$$
s_22____4786910____14391792
     RDKit          3D

 27 30  0  0  0  0  0  0  0  0999 V2000
    5.1421   -1.2125    1.7694 F   0  0  0  0  0  0  0  0  0  0  0  0
    4.4741   -0.1273    1.3918 C   0  0  0  0  0  0  0  0  0  0  0  0
    5.1657    1.0116    0.9942 C   0  0  0  0  0  0  0  0  0  0  0  0
    6.5647    1.0071    0.9941 N   0  0  0  0  0  0  0  0  0  0  0  0
    7.3634    0.9890    2.1333 C   0  0  0  0  0  0  0  0  0  0  0  0
    6.9716    0.9801    3.2879 O   0  0  0  0  0  0  0  0  0  0  0  0
    8.8075    0.9943    1.6750 C   0  0  0  0  0  0  0  0  0  0  0  0
    8.6960    1.6208    0.3001 C   0  0  0  0  0  0  0  0  0  0  0  0
    7.4000    1.0263   -0.2078 C   0  0  0  0  0  0  0  0  0  0  0  0
    4.4681    2.1481    0.5983 C   0  0  0  0  0  0  0  0  0  0  0  0
    3.0772    2.1465    0.5999 C   0  0  0  0  0  0  0  0  0  0  0  0
    2.3997    1.0000    1.0000 C   0  0  0  0  0  0  0  0  0  0  0  0
    1.0000    1.0000    1.0000 N   0  0  0  0  0  0  0  0  0  0  0  0
    0.3150   -0.1863    0.9831 C   0  0  0  0  0  0  0  0  0  0  0  0
    0.8607   -1.1891    0.6133 O   0  0  0  0  0  0  0  0  0  0  0  0
   -1.0700   -0.2303    1.4122 C   0  0  0  0  0  0  0  0  0  0  0  0
   -1.8628   -1.3369    1.4450 C   0  0  0  0  0  0  0  0  0  0  0  0
   -3.0667   -0.9093    1.9064 N   0  0  0  0  0  0  0  0  0  0  0  0
   -3.0184    0.3870    2.1512 N   0  0  0  0  0  0  0  0  0  0  0  0
   -1.8316    0.8663    1.8753 C   0  0  0  0  0  0  0  0  0  0  0  0
   -4.0750   -1.8320    2.0388 C   0  0  0  0  0  0  0  0  0  0  0  0
   -5.1729   -1.4950    2.4549 O   0  0  0  0  0  0  0  0  0  0  0  0
   -3.8859   -3.1994    1.7014 C   0  0  0  0  0  0  0  0  0  0  0  0
   -2.6616   -3.6038    1.2325 C   0  0  0  0  0  0  0  0  0  0  0  0
   -1.6725   -2.6564    1.1155 N   0  0  0  0  0  0  0  0  0  0  0  0
   -2.4627   -5.0702    0.8679 C   0  0  0  0  0  0  0  0  0  0  0  0
    3.0834   -0.1439    1.3980 C   0  0  0  0  0  0  0  0  0  0  0  0
  1  2  1  0
  2  3  2  0
  3  4  1  0
  4  5  1  0
  5  6  2  0
  5  7  1  0
  7  8  1  0
  8  9  1  0
  9  4  1  0
  3 10  1  0
 10 11  2  0
 11 12  1  0
 12 13  1  0
 13 14  1  0
 14 15  2  0
 14 16  1  0
 16 17  2  0
 17 18  1  0
 18 19  1  0
 19 20  2  0
 20 16  1  0
 18 21  1  0
 21 22  2  0
 21 23  1  0
 23 24  2  0
 24 25  1  0
 25 17  1  0
 24 26  1  0
 12 27  2  0
 27  2  1  0
M  END
$$$$
s_274090____12937272____13778724
     RDKit          3D

 27 30  0  0  0  0  0  0  0  0999 V2000
    7.6907   -1.5855    1.1238 O   0  0  0  0  0  0  0  0  0  0  0  0
    7.3637   -1.5825    2.2984 C   0  0  0  0  0  0  0  0  0  0  0  0
    6.0631   -1.5265    2.7896 N   0  0  0  0  0  0  0  0  0  0  0  0
    4.9091   -1.4568    1.9996 C   0  0  0  0  0  0  0  0  0  0  0  0
    4.2141   -0.2565    1.8951 C   0  0  0  0  0  0  0  0  0  0  0  0
    3.0698   -0.2074    1.1056 C   0  0  0  0  0  0  0  0  0  0  0  0
    2.3700    1.0000    1.0000 N   0  0  0  0  0  0  0  0  0  0  0  0
    1.0000    1.0000    1.0000 C   0  0  0  0  0  0  0  0  0  0  0  0
    0.4000   -0.0392    1.0000 O   0  0  0  0  0  0  0  0  0  0  0  0
    0.2400    2.3164    1.0000 C   0  0  0  0  0  0  0  0  0  0  0  0
   -0.0050    2.7407   -0.3858 N   0  0  0  0  0  0  0  0  0  0  0  0
   -1.0536    2.4297   -1.1072 N   0  0  0  0  0  0  0  0  0  0  0  0
   -0.9894    2.9399   -2.2607 N   0  0  0  0  0  0  0  0  0  0  0  0
    0.1755    3.6407   -2.3311 C   0  0  0  0  0  0  0  0  0  0  0  0
    0.6527    4.3885   -3.4808 C   0  0  0  0  0  0  0  0  0  0  0  0
    1.8159    5.0584   -3.4665 N   0  0  0  0  0  0  0  0  0  0  0  0
    2.2560    5.7514   -4.5278 C   0  0  0  0  0  0  0  0  0  0  0  0
    1.4845    5.7790   -5.6850 C   0  0  0  0  0  0  0  0  0  0  0  0
    0.3210    5.1118   -5.7071 N   0  0  0  0  0  0  0  0  0  0  0  0
   -0.1132    4.4215   -4.6419 C   0  0  0  0  0  0  0  0  0  0  0  0
    0.8146    3.5223   -1.1351 C   0  0  0  0  0  0  0  0  0  0  0  0
    2.6179   -1.3332    0.4252 C   0  0  0  0  0  0  0  0  0  0  0  0
    3.3287   -2.5226    0.5444 C   0  0  0  0  0  0  0  0  0  0  0  0
    4.4750   -2.5953    1.3282 C   0  0  0  0  0  0  0  0  0  0  0  0
    6.0746   -1.5559    4.2530 C   0  0  0  0  0  0  0  0  0  0  0  0
    7.3936   -2.2320    4.5595 C   0  0  0  0  0  0  0  0  0  0  0  0
    8.2963   -1.6512    3.4903 C   0  0  0  0  0  0  0  0  0  0  0  0
  1  2  2  0
  2  3  1  0
  3  4  1  0
  4  5  2  0
  5  6  1  0
  6  7  1  0
  7  8  1  0
  8  9  2  0
  8 10  1  0
 10 11  1  0
 11 12  1  0
 12 13  2  0
 13 14  1  0
 14 15  1  0
 15 16  2  0
 16 17  1  0
 17 18  2  0
 18 19  1  0
 19 20  2  0
 20 15  1  0
 14 21  2  0
 21 11  1  0
  6 22  2  0
 22 23  1  0
 23 24  2  0
 24  4  1  0
  3 25  1  0
 25 26  1  0
 26 27  1  0
 27  2  1  0
M  END
$$$$
s_22____1041906____12335826
     RDKit          3D

 33 36  0  0  0  0  0  0  0  0999 V2000
   -1.1086    3.3228    3.0798 F   0  0  0  0  0  0  0  0  0  0  0  0
   -1.7820    2.7685    2.0762 C   0  0  0  0  0  0  0  0  0  0  0  0
   -1.0852    2.1862    1.0223 C   0  0  0  0  0  0  0  0  0  0  0  0
    0.3150    2.1862    1.0223 N   0  0  0  0  0  0  0  0  0  0  0  0
    1.0000    1.0000    1.0000 C   0  0  0  0  0  0  0  0  0  0  0  0
    0.4000   -0.0390    0.9804 O   0  0  0  0  0  0  0  0  0  0  0  0
    2.4507    1.0000    1.0000 C   0  0  0  0  0  0  0  0  0  0  0  0
    3.2456    1.5713    0.0522 N   0  0  0  0  0  0  0  0  0  0  0  0
    4.5025    1.3799    0.3742 N   0  0  0  0  0  0  0  0  0  0  0  0
    5.6072    1.8311   -0.3674 C   0  0  0  0  0  0  0  0  0  0  0  0
    5.4419    2.5215   -1.5100 N   0  0  0  0  0  0  0  0  0  0  0  0
    6.4714    2.9687   -2.2506 C   0  0  0  0  0  0  0  0  0  0  0  0
    7.7611    2.6994   -1.8036 C   0  0  0  0  0  0  0  0  0  0  0  0
    7.9534    1.9874   -0.6229 C   0  0  0  0  0  0  0  0  0  0  0  0
    6.8618    1.5805    0.0491 N   0  0  0  0  0  0  0  0  0  0  0  0
    9.3758    1.7046   -0.1511 C   0  0  0  0  0  0  0  0  0  0  0  0
    6.2834    3.7502   -3.5458 C   0  0  0  0  0  0  0  0  0  0  0  0
    4.5746    0.6762    1.5368 C   0  0  0  0  0  0  0  0  0  0  0  0
    5.5892    0.3274    2.1185 O   0  0  0  0  0  0  0  0  0  0  0  0
    3.2489    0.4327    1.9428 C   0  0  0  0  0  0  0  0  0  0  0  0
    2.7968   -0.3180    3.1849 C   0  0  0  0  0  0  0  0  0  0  0  0
    2.6481    0.6579    4.3407 C   0  0  0  0  0  0  0  0  0  0  0  0
    3.8967    1.2846    4.5947 O   0  0  0  0  0  0  0  0  0  0  0  0
   -1.7678    1.6009   -0.0379 C   0  0  0  0  0  0  0  0  0  0  0  0
   -3.1580    1.6094   -0.0237 C   0  0  0  0  0  0  0  0  0  0  0  0
   -3.8599    1.0268   -1.0824 N   0  0  0  0  0  0  0  0  0  0  0  0
   -4.2600    1.6931   -2.2365 C   0  0  0  0  0  0  0  0  0  0  0  0
   -4.0672    2.8695   -2.4928 O   0  0  0  0  0  0  0  0  0  0  0  0
   -4.9887    0.6917   -3.1091 C   0  0  0  0  0  0  0  0  0  0  0  0
   -5.4580   -0.3265   -2.0901 C   0  0  0  0  0  0  0  0  0  0  0  0
   -4.2850   -0.3729   -1.1347 C   0  0  0  0  0  0  0  0  0  0  0  0
   -3.8608    2.1893    1.0266 C   0  0  0  0  0  0  0  0  0  0  0  0
   -3.1730    2.7737    2.0848 C   0  0  0  0  0  0  0  0  0  0  0  0
  1  2  1  0
  2  3  2  0
  3  4  1  0
  4  5  1  0
  5  6  2  0
  5  7  1  0
  7  8  1  0
  8  9  1  0
  9 10  1  0
 10 11  2  0
 11 12  1  0
 12 13  2  0
 13 14  1  0
 14 15  2  0
 15 10  1  0
 14 16  1  0
 12 17  1  0
  9 18  1  0
 18 19  2  0
 18 20  1  0
  7 20  2  0
 20 21  1  0
 21 22  1  0
 22 23  1  0
  3 24  1  0
 24 25  2  0
 25 26  1  0
 26 27  1  0
 27 28  2  0
 27 29  1  0
 29 30  1  0
 30 31  1  0
 31 26  1  0
 25 32  1  0
 32 33  2  0
 33  2  1  0
M  END
$$$$
s_22____1041906____13472610
     RDKit          3D

 34 38  0  0  0  0  0  0  0  0999 V2000
   -1.7779    8.2881    0.9819 F   0  0  0  0  0  0  0  0  0  0  0  0
   -1.1137    7.1352    0.9849 C   0  0  0  0  0  0  0  0  0  0  0  0
    0.2736    7.1003    0.9774 C   0  0  0  0  0  0  0  0  0  0  0  0
    0.9366    8.2505    0.9705 F   0  0  0  0  0  0  0  0  0  0  0  0
    0.9662    5.8965    0.9790 C   0  0  0  0  0  0  0  0  0  0  0  0
    0.2585    4.6974    0.9889 C   0  0  0  0  0  0  0  0  0  0  0  0
   -1.1373    4.6830    1.0001 C   0  0  0  0  0  0  0  0  0  0  0  0
   -1.7776    3.4555    1.0080 N   0  0  0  0  0  0  0  0  0  0  0  0
   -1.0947    2.2675    1.0084 C   0  0  0  0  0  0  0  0  0  0  0  0
    0.2750    2.2557    1.0000 C   0  0  0  0  0  0  0  0  0  0  0  0
    1.0000    1.0000    1.0000 C   0  0  0  0  0  0  0  0  0  0  0  0
    0.4000   -0.0392    1.0000 O   0  0  0  0  0  0  0  0  0  0  0  0
    2.3700    1.0000    1.0000 N   0  0  0  0  0  0  0  0  0  0  0  0
    3.0701   -0.1395    1.4147 C   0  0  0  0  0  0  0  0  0  0  0  0
    3.9398   -0.7803    0.5384 C   0  0  0  0  0  0  0  0  0  0  0  0
    4.0995   -0.3027   -0.6922 F   0  0  0  0  0  0  0  0  0  0  0  0
    4.6400   -1.9127    0.9415 C   0  0  0  0  0  0  0  0  0  0  0  0
    4.4606   -2.3982    2.2324 C   0  0  0  0  0  0  0  0  0  0  0  0
    3.5899   -1.7526    3.1033 C   0  0  0  0  0  0  0  0  0  0  0  0
    3.4192   -2.2486    4.3986 N   0  0  0  0  0  0  0  0  0  0  0  0
    4.1774   -1.8724    5.5030 C   0  0  0  0  0  0  0  0  0  0  0  0
    5.0954   -1.0699    5.5072 O   0  0  0  0  0  0  0  0  0  0  0  0
    3.6603   -2.6516    6.6950 C   0  0  0  0  0  0  0  0  0  0  0  0
    3.0301   -3.8579    6.0293 C   0  0  0  0  0  0  0  0  0  0  0  0
    2.4189   -3.2436    4.7883 C   0  0  0  0  0  0  0  0  0  0  0  0
    2.8873   -0.6205    2.7062 C   0  0  0  0  0  0  0  0  0  0  0  0
    0.9953    3.4794    0.9900 C   0  0  0  0  0  0  0  0  0  0  0  0
    2.2195    3.4388    0.9814 O   0  0  0  0  0  0  0  0  0  0  0  0
   -3.2325    3.2571    1.0218 C   0  0  0  0  0  0  0  0  0  0  0  0
   -3.6548    2.3422    2.1349 C   0  0  0  0  0  0  0  0  0  0  0  0
   -3.6087    1.8347    0.7219 C   0  0  0  0  0  0  0  0  0  0  0  0
   -1.7938    5.9255    0.9967 C   0  0  0  0  0  0  0  0  0  0  0  0
   -3.1373    6.0734    1.0046 O   0  0  0  0  0  0  0  0  0  0  0  0
   -3.8005    6.4747    2.1944 C   0  0  0  0  0  0  0  0  0  0  0  0
  1  2  1  0
  2  3  2  0
  3  4  1  0
  3  5  1  0
  5  6  2  0
  6  7  1  0
  7  8  1  0
  8  9  1  0
  9 10  2  0
 10 11  1  0
 11 12  2  0
 11 13  1  0
 13 14  1  0
 14 15  2  0
 15 16  1  0
 15 17  1  0
 17 18  2  0
 18 19  1  0
 19 20  1  0
 20 21  1  0
 21 22  2  0
 21 23  1  0
 23 24  1  0
 24 25  1  0
 25 20  1  0
 19 26  2  0
 26 14  1  0
 10 27  1  0
 27  6  1  0
 27 28  2  0
  8 29  1  0
 29 30  1  0
 30 31  1  0
 31 29  1  0
  7 32  2  0
 32  2  1  0
 32 33  1  0
 33 34  1  0
M  END
$$$$
s_22____4786910____138341
     RDKit          3D

 30 33  0  0  0  0  0  0  0  0999 V2000
    3.7829   -2.6772    1.0905 S   0  0  0  0  0  0  0  0  0  0  0  0
    3.7034   -2.1438   -0.5209 C   0  0  0  0  0  0  0  0  0  0  0  0
    3.2738   -0.9015   -0.4934 N   0  0  0  0  0  0  0  0  0  0  0  0
    3.0238   -0.4032    0.7526 C   0  0  0  0  0  0  0  0  0  0  0  0
    3.2437   -1.2285    1.8105 C   0  0  0  0  0  0  0  0  0  0  0  0
    2.5200    1.0000    1.0000 C   0  0  0  0  0  0  0  0  0  0  0  0
    1.0000    1.0000    1.0000 C   0  0  0  0  0  0  0  0  0  0  0  0
    0.4000    1.0000   -0.0392 O   0  0  0  0  0  0  0  0  0  0  0  0
    0.3150    1.0000    2.1865 N   0  0  0  0  0  0  0  0  0  0  0  0
   -1.0214    0.5854    2.2230 C   0  0  0  0  0  0  0  0  0  0  0  0
   -1.8261    0.7726    1.1043 C   0  0  0  0  0  0  0  0  0  0  0  0
   -3.1516    0.3546    1.1570 C   0  0  0  0  0  0  0  0  0  0  0  0
   -3.9337    0.5266    0.0962 F   0  0  0  0  0  0  0  0  0  0  0  0
   -3.6602   -0.2395    2.3067 C   0  0  0  0  0  0  0  0  0  0  0  0
   -4.9960   -0.6540    2.3388 N   0  0  0  0  0  0  0  0  0  0  0  0
   -6.0953    0.1988    2.3610 C   0  0  0  0  0  0  0  0  0  0  0  0
   -6.0617    1.4177    2.3619 O   0  0  0  0  0  0  0  0  0  0  0  0
   -7.3392   -0.6653    2.3959 C   0  0  0  0  0  0  0  0  0  0  0  0
   -6.8087   -1.9515    2.9955 C   0  0  0  0  0  0  0  0  0  0  0  0
   -5.4389   -2.0489    2.3589 C   0  0  0  0  0  0  0  0  0  0  0  0
   -2.8430   -0.4205    3.4177 C   0  0  0  0  0  0  0  0  0  0  0  0
   -1.5155   -0.0070    3.3799 C   0  0  0  0  0  0  0  0  0  0  0  0
    4.0401   -2.9237   -1.6257 N   0  0  0  0  0  0  0  0  0  0  0  0
    3.9422   -2.4014   -2.8884 C   0  0  0  0  0  0  0  0  0  0  0  0
    3.5666   -1.2722   -3.0431 O   0  0  0  0  0  0  0  0  0  0  0  0
    4.2931   -3.2142   -4.0397 C   0  0  0  0  0  0  0  0  0  0  0  0
    4.2226   -2.7046   -5.6641 S   0  0  0  0  0  0  0  0  0  0  0  0
    4.7628   -4.1508   -6.3874 C   0  0  0  0  0  0  0  0  0  0  0  0
    4.9916   -5.0078   -5.3491 C   0  0  0  0  0  0  0  0  0  0  0  0
    4.7338   -4.5024   -4.0419 C   0  0  0  0  0  0  0  0  0  0  0  0
  1  2  1  0
  2  3  2  0
  3  4  1  0
  4  5  2  0
  5  1  1  0
  4  6  1  0
  6  7  1  0
  7  8  2  0
  7  9  1  0
  9 10  1  0
 10 11  2  0
 11 12  1  0
 12 13  1  0
 12 14  2  0
 14 15  1  0
 15 16  1  0
 16 17  2  0
 16 18  1  0
 18 19  1  0
 19 20  1  0
 20 15  1  0
 14 21  1  0
 21 22  2  0
 22 10  1  0
  2 23  1  0
 23 24  1  0
 24 25  2  0
 24 26  1  0
 26 27  1  0
 27 28  1  0
 28 29  2  0
 29 30  1  0
 26 30  2  0
M  END
$$$$
s_22____12904808____5728682
     RDKit          3D

 28 31  0  0  0  0  0  0  0  0999 V2000
    3.1256   -0.3098   -1.3556 F   0  0  0  0  0  0  0  0  0  0  0  0
    3.4509   -0.8722   -0.1951 C   0  0  0  0  0  0  0  0  0  0  0  0
    3.0952   -0.2561    1.0000 C   0  0  0  0  0  0  0  0  0  0  0  0
    3.4307   -0.8375    2.2188 C   0  0  0  0  0  0  0  0  0  0  0  0
    4.1264   -2.0419    2.2277 C   0  0  0  0  0  0  0  0  0  0  0  0
    4.4690   -2.6335    3.4466 N   0  0  0  0  0  0  0  0  0  0  0  0
    5.6519   -2.4007    4.1414 C   0  0  0  0  0  0  0  0  0  0  0  0
    6.5576   -1.6615    3.7948 O   0  0  0  0  0  0  0  0  0  0  0  0
    5.6121   -3.2431    5.4000 C   0  0  0  0  0  0  0  0  0  0  0  0
    4.6512   -4.3464    5.0065 C   0  0  0  0  0  0  0  0  0  0  0  0
    3.6363   -3.5921    4.1746 C   0  0  0  0  0  0  0  0  0  0  0  0
    4.4861   -2.6655    1.0371 C   0  0  0  0  0  0  0  0  0  0  0  0
    4.1460   -2.0771   -0.1767 C   0  0  0  0  0  0  0  0  0  0  0  0
    2.3700    1.0000    1.0000 C   0  0  0  0  0  0  0  0  0  0  0  0
    2.9700    2.0392    1.0000 O   0  0  0  0  0  0  0  0  0  0  0  0
    1.0000    1.0000    1.0000 N   0  0  0  0  0  0  0  0  0  0  0  0
    0.2650    2.2731    1.0000 C   0  0  0  0  0  0  0  0  0  0  0  0
    0.0116    2.7120   -0.4335 C   0  0  0  0  0  0  0  0  0  0  0  0
   -1.0437    2.3940   -1.1471 N   0  0  0  0  0  0  0  0  0  0  0  0
   -0.9160    2.9543   -2.3306 N   0  0  0  0  0  0  0  0  0  0  0  0
    0.2154    3.6291   -2.3895 C   0  0  0  0  0  0  0  0  0  0  0  0
    0.8326    3.4958   -1.1867 N   0  0  0  0  0  0  0  0  0  0  0  0
    2.0459    4.1197   -1.0247 C   0  0  0  0  0  0  0  0  0  0  0  0
    2.6241    4.8572   -2.0270 C   0  0  0  0  0  0  0  0  0  0  0  0
    2.0134    5.0071   -3.2459 N   0  0  0  0  0  0  0  0  0  0  0  0
    0.8032    4.3919   -3.4378 C   0  0  0  0  0  0  0  0  0  0  0  0
    0.2527    4.5193   -4.5196 O   0  0  0  0  0  0  0  0  0  0  0  0
    0.2650   -0.2731    1.0000 C   0  0  0  0  0  0  0  0  0  0  0  0
  1  2  1  0
  2  3  2  0
  3  4  1  0
  4  5  2  0
  5  6  1  0
  6  7  1  0
  7  8  2  0
  7  9  1  0
  9 10  1  0
 10 11  1  0
 11  6  1  0
  5 12  1  0
 12 13  2  0
 13  2  1  0
  3 14  1  0
 14 15  2  0
 14 16  1  0
 16 17  1  0
 17 18  1  0
 18 19  2  0
 19 20  1  0
 20 21  2  0
 21 22  1  0
 22 18  1  0
 22 23  1  0
 23 24  2  0
 24 25  1  0
 25 26  1  0
 26 21  1  0
 26 27  2  0
 16 28  1  0
M  END
$$$$
s_22____1041906____216552
     RDKit          3D

 29 33  0  0  0  0  0  0  0  0999 V2000
    2.4236   -1.2678    1.6179 F   0  0  0  0  0  0  0  0  0  0  0  0
    3.0970   -0.1616    1.3164 C   0  0  0  0  0  0  0  0  0  0  0  0
    2.4002    1.0000    1.0000 C   0  0  0  0  0  0  0  0  0  0  0  0
    1.0000    1.0000    1.0000 N   0  0  0  0  0  0  0  0  0  0  0  0
    0.3150    2.1864    0.9951 C   0  0  0  0  0  0  0  0  0  0  0  0
    0.8607    3.1958    1.3464 O   0  0  0  0  0  0  0  0  0  0  0  0
   -1.0709    2.2226    0.5650 C   0  0  0  0  0  0  0  0  0  0  0  0
   -2.1018    2.6515    1.4022 C   0  0  0  0  0  0  0  0  0  0  0  0
   -3.3838    2.6554    0.9185 C   0  0  0  0  0  0  0  0  0  0  0  0
   -4.1309    3.1086    1.9164 O   0  0  0  0  0  0  0  0  0  0  0  0
   -3.4763    3.3699    2.9627 N   0  0  0  0  0  0  0  0  0  0  0  0
   -2.2111    3.1202    2.7315 C   0  0  0  0  0  0  0  0  0  0  0  0
   -1.0870    3.3102    3.7401 C   0  0  0  0  0  0  0  0  0  0  0  0
   -3.6133    2.2455   -0.3449 N   0  0  0  0  0  0  0  0  0  0  0  0
   -2.6470    1.8237   -1.1813 C   0  0  0  0  0  0  0  0  0  0  0  0
   -1.3319    1.8049   -0.7350 C   0  0  0  0  0  0  0  0  0  0  0  0
   -2.9108    1.3593   -2.6064 C   0  0  0  0  0  0  0  0  0  0  0  0
   -2.4103    2.3658   -3.6009 C   0  0  0  0  0  0  0  0  0  0  0  0
   -3.8825    2.2478   -3.3284 C   0  0  0  0  0  0  0  0  0  0  0  0
    3.0828    2.1685    0.6814 C   0  0  0  0  0  0  0  0  0  0  0  0
    4.4730    2.1524    0.6851 C   0  0  0  0  0  0  0  0  0  0  0  0
    5.1752    3.3182    0.3655 N   0  0  0  0  0  0  0  0  0  0  0  0
    6.5464    3.4912    0.5228 C   0  0  0  0  0  0  0  0  0  0  0  0
    7.3320    2.6696    0.9661 O   0  0  0  0  0  0  0  0  0  0  0  0
    6.8914    4.8836    0.0441 C   0  0  0  0  0  0  0  0  0  0  0  0
    5.5793    5.6195    0.2002 C   0  0  0  0  0  0  0  0  0  0  0  0
    4.5880    4.5420   -0.1843 C   0  0  0  0  0  0  0  0  0  0  0  0
    5.1758    0.9948    1.0008 C   0  0  0  0  0  0  0  0  0  0  0  0
    4.4880   -0.1715    1.3187 C   0  0  0  0  0  0  0  0  0  0  0  0
  1  2  1  0
  2  3  2  0
  3  4  1  0
  4  5  1  0
  5  6  2  0
  5  7  1  0
  7  8  1  0
  8  9  2  0
  9 10  1  0
 10 11  1  0
 11 12  2  0
 12  8  1  0
 12 13  1  0
  9 14  1  0
 14 15  2  0
 15 16  1  0
 16  7  2  0
 15 17  1  0
 17 18  1  0
 18 19  1  0
 19 17  1  0
  3 20  1  0
 20 21  2  0
 21 22  1  0
 22 23  1  0
 23 24  2  0
 23 25  1  0
 25 26  1  0
 26 27  1  0
 27 22  1  0
 21 28  1  0
 28 29  2  0
 29  2  1  0
M  END
$$$$
s_22____1041906____3217104
     RDKit          3D

 31 35  0  0  0  0  0  0  0  0999 V2000
    9.2560    2.7881   -0.9641 S   0  0  0  0  0  0  0  0  0  0  0  0
    8.0755    2.4321    0.2118 C   0  0  0  0  0  0  0  0  0  0  0  0
    6.8917    1.6191   -0.0057 C   0  0  0  0  0  0  0  0  0  0  0  0
    6.8548    0.3105   -0.0167 N   0  0  0  0  0  0  0  0  0  0  0  0
    5.6111   -0.0447   -0.2467 N   0  0  0  0  0  0  0  0  0  0  0  0
    4.8340    1.0000   -0.3903 C   0  0  0  0  0  0  0  0  0  0  0  0
    3.1233    1.0000   -0.7065 S   0  0  0  0  0  0  0  0  0  0  0  0
    2.5200    1.0000    1.0000 C   0  0  0  0  0  0  0  0  0  0  0  0
    1.0000    1.0000    1.0000 C   0  0  0  0  0  0  0  0  0  0  0  0
    0.4000    1.0000   -0.0392 O   0  0  0  0  0  0  0  0  0  0  0  0
    0.3150    1.0000    2.1865 N   0  0  0  0  0  0  0  0  0  0  0  0
   -1.0852    1.0000    2.1865 C   0  0  0  0  0  0  0  0  0  0  0  0
   -1.7820   -0.0427    2.7884 C   0  0  0  0  0  0  0  0  0  0  0  0
   -1.1086   -1.0357    3.3615 F   0  0  0  0  0  0  0  0  0  0  0  0
   -3.1730   -0.0512    2.7938 C   0  0  0  0  0  0  0  0  0  0  0  0
   -3.8608    0.9958    2.1896 C   0  0  0  0  0  0  0  0  0  0  0  0
   -3.1580    2.0350    1.5900 C   0  0  0  0  0  0  0  0  0  0  0  0
   -3.8599    3.0825    0.9875 N   0  0  0  0  0  0  0  0  0  0  0  0
   -4.2600    4.2490    1.6320 C   0  0  0  0  0  0  0  0  0  0  0  0
   -4.0672    4.5274    2.8034 O   0  0  0  0  0  0  0  0  0  0  0  0
   -4.9887    5.1026    0.6143 C   0  0  0  0  0  0  0  0  0  0  0  0
   -5.4580    4.0645   -0.3844 C   0  0  0  0  0  0  0  0  0  0  0  0
   -4.2850    3.1084   -0.4129 C   0  0  0  0  0  0  0  0  0  0  0  0
   -1.7678    2.0491    1.5812 C   0  0  0  0  0  0  0  0  0  0  0  0
    5.6343    2.0853   -0.2385 N   0  0  0  0  0  0  0  0  0  0  0  0
    5.2207    3.4921   -0.3151 C   0  0  0  0  0  0  0  0  0  0  0  0
    4.6316    3.8226   -1.6560 C   0  0  0  0  0  0  0  0  0  0  0  0
    6.0284    4.2616   -1.3203 C   0  0  0  0  0  0  0  0  0  0  0  0
    8.4576    3.0487    1.3639 C   0  0  0  0  0  0  0  0  0  0  0  0
    9.6776    3.7742    1.2370 C   0  0  0  0  0  0  0  0  0  0  0  0
   10.2760    3.7459    0.0098 C   0  0  0  0  0  0  0  0  0  0  0  0
  1  2  1  0
  2  3  1  0
  3  4  2  0
  4  5  1  0
  5  6  2  0
  6  7  1  0
  7  8  1  0
  8  9  1  0
  9 10  2  0
  9 11  1  0
 11 12  1  0
 12 13  2  0
 13 14  1  0
 13 15  1  0
 15 16  2  0
 16 17  1  0
 17 18  1  0
 18 19  1  0
 19 20  2  0
 19 21  1  0
 21 22  1  0
 22 23  1  0
 23 18  1  0
 17 24  2  0
 24 12  1  0
  6 25  1  0
 25  3  1  0
 25 26  1  0
 26 27  1  0
 27 28  1  0
 28 26  1  0
  2 29  2  0
 29 30  1  0
 30 31  2  0
 31  1  1  0
M  END
$$$$
s_11a____15138556____7914494
     RDKit          3D

 28 31  0  0  0  0  0  0  0  0999 V2000
    2.3256    2.3683   -1.3975 Cl  0  0  0  0  0  0  0  0  0  0  0  0
    3.1672    1.5911   -0.0351 C   0  0  0  0  0  0  0  0  0  0  0  0
    2.4498    1.0000    1.0000 C   0  0  0  0  0  0  0  0  0  0  0  0
    3.1199    0.3962    2.0589 C   0  0  0  0  0  0  0  0  0  0  0  0
    4.5111    0.3902    2.0704 C   0  0  0  0  0  0  0  0  0  0  0  0
    5.1889   -0.2148    3.1322 N   0  0  0  0  0  0  0  0  0  0  0  0
    5.5752    0.4305    4.3028 C   0  0  0  0  0  0  0  0  0  0  0  0
    5.3894    1.6048    4.5733 O   0  0  0  0  0  0  0  0  0  0  0  0
    6.2789   -0.5908    5.1729 C   0  0  0  0  0  0  0  0  0  0  0  0
    6.7560   -1.5985    4.1471 C   0  0  0  0  0  0  0  0  0  0  0  0
    5.5994   -1.6192    3.1710 C   0  0  0  0  0  0  0  0  0  0  0  0
    5.2355    0.9791    1.0390 C   0  0  0  0  0  0  0  0  0  0  0  0
    4.5583    1.5811   -0.0166 C   0  0  0  0  0  0  0  0  0  0  0  0
    1.0000    1.0000    1.0000 C   0  0  0  0  0  0  0  0  0  0  0  0
    0.4000   -0.0392    1.0049 O   0  0  0  0  0  0  0  0  0  0  0  0
    0.3150    2.1864    0.9944 N   0  0  0  0  0  0  0  0  0  0  0  0
   -1.0251    2.2251    1.4099 C   0  0  0  0  0  0  0  0  0  0  0  0
   -1.3906    1.8398    2.6959 C   0  0  0  0  0  0  0  0  0  0  0  0
   -2.6787    1.8869    3.0700 N   0  0  0  0  0  0  0  0  0  0  0  0
   -3.6447    2.2986    2.2336 C   0  0  0  0  0  0  0  0  0  0  0  0
   -3.3115    2.6744    0.9892 N   0  0  0  0  0  0  0  0  0  0  0  0
   -2.0408    2.6500    0.5584 C   0  0  0  0  0  0  0  0  0  0  0  0
   -5.0319    2.3429    2.6569 C   0  0  0  0  0  0  0  0  0  0  0  0
   -5.7169    1.2093    2.8691 N   0  0  0  0  0  0  0  0  0  0  0  0
   -6.9991    1.2321    3.2608 C   0  0  0  0  0  0  0  0  0  0  0  0
   -7.6343    2.4548    3.4515 C   0  0  0  0  0  0  0  0  0  0  0  0
   -6.9075    3.6192    3.2278 C   0  0  0  0  0  0  0  0  0  0  0  0
   -5.6276    3.5314    2.8371 N   0  0  0  0  0  0  0  0  0  0  0  0
  1  2  1  0
  2  3  2  0
  3  4  1  0
  4  5  2  0
  5  6  1  0
  6  7  1  0
  7  8  2  0
  7  9  1  0
  9 10  1  0
 10 11  1  0
 11  6  1  0
  5 12  1  0
 12 13  2  0
 13  2  1  0
  3 14  1  0
 14 15  2  0
 14 16  1  0
 16 17  1  0
 17 18  2  0
 18 19  1  0
 19 20  2  0
 20 21  1  0
 21 22  2  0
 22 17  1  0
 20 23  1  0
 23 24  2  0
 24 25  1  0
 25 26  2  0
 26 27  1  0
 27 28  2  0
 28 23  1  0
M  END
$$$$
s_22____4786910____4639480
     RDKit          3D

 30 33  0  0  0  0  0  0  0  0999 V2000
    0.8353    5.6878    1.8009 F   0  0  0  0  0  0  0  0  0  0  0  0
    0.2343    4.5695    1.4078 C   0  0  0  0  0  0  0  0  0  0  0  0
   -1.0928    4.6019    0.9940 C   0  0  0  0  0  0  0  0  0  0  0  0
   -1.7884    5.8156    0.9940 N   0  0  0  0  0  0  0  0  0  0  0  0
   -2.1862    6.5083    2.1333 C   0  0  0  0  0  0  0  0  0  0  0  0
   -1.9969    6.1652    3.2879 O   0  0  0  0  0  0  0  0  0  0  0  0
   -2.9072    7.7595    1.6750 C   0  0  0  0  0  0  0  0  0  0  0  0
   -3.3769    7.3595    0.2913 C   0  0  0  0  0  0  0  0  0  0  0  0
   -2.2079    6.5380   -0.2080 C   0  0  0  0  0  0  0  0  0  0  0  0
   -1.7232    3.4324    0.5820 C   0  0  0  0  0  0  0  0  0  0  0  0
   -1.0265    2.2285    0.5836 C   0  0  0  0  0  0  0  0  0  0  0  0
    0.3002    2.2122    1.0000 C   0  0  0  0  0  0  0  0  0  0  0  0
    1.0000    1.0000    1.0000 N   0  0  0  0  0  0  0  0  0  0  0  0
    2.3700    1.0000    1.0000 C   0  0  0  0  0  0  0  0  0  0  0  0
    2.9700    1.9766    0.6446 O   0  0  0  0  0  0  0  0  0  0  0  0
    3.0954   -0.1807    1.4297 C   0  0  0  0  0  0  0  0  0  0  0  0
    3.9975   -0.1640    2.5310 C   0  0  0  0  0  0  0  0  0  0  0  0
    4.6649   -1.3299    2.8965 C   0  0  0  0  0  0  0  0  0  0  0  0
    4.4446   -2.4844    2.1902 N   0  0  0  0  0  0  0  0  0  0  0  0
    3.5774   -2.5065    1.1282 C   0  0  0  0  0  0  0  0  0  0  0  0
    3.3818   -3.5307    0.4994 O   0  0  0  0  0  0  0  0  0  0  0  0
    2.8796   -1.3367    0.7274 C   0  0  0  0  0  0  0  0  0  0  0  0
    5.5491   -1.3297    3.9702 C   0  0  0  0  0  0  0  0  0  0  0  0
    5.7842   -0.1688    4.6988 C   0  0  0  0  0  0  0  0  0  0  0  0
    5.1200    0.9983    4.3374 C   0  0  0  0  0  0  0  0  0  0  0  0
    5.3150    2.1967    5.0310 N   0  0  0  0  0  0  0  0  0  0  0  0
    6.4286    2.4973    5.4283 O   0  0  0  0  0  0  0  0  0  0  0  0
    4.3792    2.9356    5.2372 O   0  0  0  0  0  0  0  0  0  0  0  0
    4.2380    0.9947    3.2654 C   0  0  0  0  0  0  0  0  0  0  0  0
    0.9439    3.3733    1.4142 C   0  0  0  0  0  0  0  0  0  0  0  0
  1  2  1  0
  2  3  2  0
  3  4  1  0
  4  5  1  0
  5  6  2  0
  5  7  1  0
  7  8  1  0
  8  9  1  0
  9  4  1  0
  3 10  1  0
 10 11  2  0
 11 12  1  0
 12 13  1  0
 13 14  1  0
 14 15  2  0
 14 16  1  0
 16 17  1  0
 17 18  2  0
 18 19  1  0
 19 20  1  0
 20 21  2  0
 20 22  1  0
 16 22  2  0
 18 23  1  0
 23 24  2  0
 24 25  1  0
 25 26  1  0
 26 27  1  0
 26 28  2  0
 25 29  2  0
 29 17  1  0
 12 30  2  0
 30  2  1  0
M  CHG  2  26   1  27  -1
M  END
$$$$
s_22____4786910____5357344
     RDKit          3D

 30 33  0  0  0  0  0  0  0  0999 V2000
    3.3287    3.5724    2.4687 S   0  0  0  0  0  0  0  0  0  0  0  0
    4.2262    2.1265    2.4440 C   0  0  0  0  0  0  0  0  0  0  0  0
    3.3528    1.1511    2.4644 N   0  0  0  0  0  0  0  0  0  0  0  0
    2.0377    1.5325    2.4911 C   0  0  0  0  0  0  0  0  0  0  0  0
    0.9190    0.6236    2.5168 C   0  0  0  0  0  0  0  0  0  0  0  0
    0.9412   -0.3742    1.8506 O   0  0  0  0  0  0  0  0  0  0  0  0
   -0.1695    0.8990    3.3019 N   0  0  0  0  0  0  0  0  0  0  0  0
   -1.3983    0.2843    3.0350 C   0  0  0  0  0  0  0  0  0  0  0  0
   -1.7172   -0.0677    1.7278 C   0  0  0  0  0  0  0  0  0  0  0  0
   -2.9421   -0.6780    1.4799 C   0  0  0  0  0  0  0  0  0  0  0  0
   -3.2616   -1.0203    0.2360 F   0  0  0  0  0  0  0  0  0  0  0  0
   -3.8290   -0.9314    2.5204 C   0  0  0  0  0  0  0  0  0  0  0  0
   -5.0556   -1.5474    2.2498 N   0  0  0  0  0  0  0  0  0  0  0  0
   -6.1128   -0.9536    1.5672 C   0  0  0  0  0  0  0  0  0  0  0  0
   -6.1326    0.1779    1.1135 O   0  0  0  0  0  0  0  0  0  0  0  0
   -7.2372   -1.9669    1.5023 C   0  0  0  0  0  0  0  0  0  0  0  0
   -6.9260   -2.8545    2.6901 C   0  0  0  0  0  0  0  0  0  0  0  0
   -5.4140   -2.9093    2.6490 C   0  0  0  0  0  0  0  0  0  0  0  0
   -3.4960   -0.5741    3.8228 C   0  0  0  0  0  0  0  0  0  0  0  0
   -2.2748    0.0376    4.0860 C   0  0  0  0  0  0  0  0  0  0  0  0
    1.7793    2.8660    2.4982 C   0  0  0  0  0  0  0  0  0  0  0  0
    5.6199    2.0170    2.4168 N   0  0  0  0  0  0  0  0  0  0  0  0
    6.2225    0.7536    2.3987 C   0  0  0  0  0  0  0  0  0  0  0  0
    7.3691    0.5377    3.1565 C   0  0  0  0  0  0  0  0  0  0  0  0
    7.9677   -0.7180    3.1387 C   0  0  0  0  0  0  0  0  0  0  0  0
    7.4192   -1.7389    2.3696 C   0  0  0  0  0  0  0  0  0  0  0  0
    8.0002   -2.9572    2.3525 O   0  0  0  0  0  0  0  0  0  0  0  0
    9.4156   -3.0682    2.3249 C   0  0  0  0  0  0  0  0  0  0  0  0
    6.2726   -1.5232    1.6117 C   0  0  0  0  0  0  0  0  0  0  0  0
    5.6742   -0.2674    1.6294 C   0  0  0  0  0  0  0  0  0  0  0  0
  1  2  1  0
  2  3  2  0
  3  4  1  0
  4  5  1  0
  5  6  2  0
  5  7  1  0
  7  8  1  0
  8  9  2  0
  9 10  1  0
 10 11  1  0
 10 12  2  0
 12 13  1  0
 13 14  1  0
 14 15  2  0
 14 16  1  0
 16 17  1  0
 17 18  1  0
 18 13  1  0
 12 19  1  0
 19 20  2  0
 20  8  1  0
  4 21  2  0
 21  1  1  0
  2 22  1  0
 22 23  1  0
 23 24  2  0
 24 25  1  0
 25 26  2  0
 26 27  1  0
 27 28  1  0
 26 29  1  0
 29 30  2  0
 30 23  1  0
M  END
$$$$
s_22____736750____2517390
     RDKit          3D

 27 30  0  0  0  0  0  0  0  0999 V2000
   -2.1507    1.0000    3.5490 S   0  0  0  0  0  0  0  0  0  0  0  0
   -3.6042    1.0004    2.6646 C   0  0  0  0  0  0  0  0  0  0  0  0
   -3.2954    1.0036    1.3885 N   0  0  0  0  0  0  0  0  0  0  0  0
   -1.9561    0.9998    1.1070 C   0  0  0  0  0  0  0  0  0  0  0  0
   -1.1332    1.0000    2.1865 C   0  0  0  0  0  0  0  0  0  0  0  0
    0.3150    1.0000    2.1865 C   0  0  0  0  0  0  0  0  0  0  0  0
    0.9150    1.0000    3.2257 O   0  0  0  0  0  0  0  0  0  0  0  0
    1.0000    1.0000    1.0000 N   0  0  0  0  0  0  0  0  0  0  0  0
    2.4700    1.0000    1.0000 C   0  0  0  0  0  0  0  0  0  0  0  0
    2.9767   -0.4332    1.0000 C   0  0  0  0  0  0  0  0  0  0  0  0
    3.2034   -1.0744   -0.2132 C   0  0  0  0  0  0  0  0  0  0  0  0
    3.6674   -2.3856   -0.2072 C   0  0  0  0  0  0  0  0  0  0  0  0
    3.8991   -3.0403   -1.4199 N   0  0  0  0  0  0  0  0  0  0  0  0
    2.9564   -3.7942   -2.1120 C   0  0  0  0  0  0  0  0  0  0  0  0
    1.8049   -4.0000   -1.7679 O   0  0  0  0  0  0  0  0  0  0  0  0
    3.6274   -4.3213   -3.3639 C   0  0  0  0  0  0  0  0  0  0  0  0
    5.0889   -4.3040   -2.9652 C   0  0  0  0  0  0  0  0  0  0  0  0
    5.1715   -3.0357   -2.1434 C   0  0  0  0  0  0  0  0  0  0  0  0
    3.9052   -3.0570    0.9872 C   0  0  0  0  0  0  0  0  0  0  0  0
    3.6716   -2.3961    2.1881 C   0  0  0  0  0  0  0  0  0  0  0  0
    3.2078   -1.0845    2.2070 C   0  0  0  0  0  0  0  0  0  0  0  0
   -4.9294    1.0050    3.2528 C   0  0  0  0  0  0  0  0  0  0  0  0
   -5.0843    1.0023    4.5853 N   0  0  0  0  0  0  0  0  0  0  0  0
   -6.3024    1.0069    5.1458 C   0  0  0  0  0  0  0  0  0  0  0  0
   -7.4300    1.0144    4.3315 C   0  0  0  0  0  0  0  0  0  0  0  0
   -7.2495    1.0184    2.9525 C   0  0  0  0  0  0  0  0  0  0  0  0
   -6.0054    1.0136    2.4516 N   0  0  0  0  0  0  0  0  0  0  0  0
  1  2  1  0
  2  3  2  0
  3  4  1  0
  4  5  2  0
  5  1  1  0
  5  6  1  0
  6  7  2  0
  6  8  1  0
  8  9  1  0
  9 10  1  0
 10 11  2  0
 11 12  1  0
 12 13  1  0
 13 14  1  0
 14 15  2  0
 14 16  1  0
 16 17  1  0
 17 18  1  0
 18 13  1  0
 12 19  2  0
 19 20  1  0
 20 21  2  0
 21 10  1  0
  2 22  1  0
 22 23  2  0
 23 24  1  0
 24 25  2  0
 25 26  1  0
 26 27  2  0
 27 22  1  0
M  END
$$$$
s_22____14942836____6402668
     RDKit          3D

 28 31  0  0  0  0  0  0  0  0999 V2000
    6.5153   -2.1891    1.8217 Br  0  0  0  0  0  0  0  0  0  0  0  0
    4.9074   -1.6628    0.8333 C   0  0  0  0  0  0  0  0  0  0  0  0
    4.4854   -2.4069   -0.2674 C   0  0  0  0  0  0  0  0  0  0  0  0
    5.0674   -3.5065   -0.7881 O   0  0  0  0  0  0  0  0  0  0  0  0
    5.8425   -3.2934   -1.9582 C   0  0  0  0  0  0  0  0  0  0  0  0
    4.9537   -3.5544   -3.1628 C   0  0  0  0  0  0  0  0  0  0  0  0
    3.7622   -2.6064   -3.1843 C   0  0  0  0  0  0  0  0  0  0  0  0
    3.0097   -2.7816   -1.9941 O   0  0  0  0  0  0  0  0  0  0  0  0
    3.3455   -2.0124   -0.9390 C   0  0  0  0  0  0  0  0  0  0  0  0
    2.6479   -0.8863   -0.5105 C   0  0  0  0  0  0  0  0  0  0  0  0
    3.0710   -0.1409    0.5847 C   0  0  0  0  0  0  0  0  0  0  0  0
    2.3700    1.0000    1.0000 N   0  0  0  0  0  0  0  0  0  0  0  0
    1.0000    1.0000    1.0000 C   0  0  0  0  0  0  0  0  0  0  0  0
    0.4000   -0.0392    1.0000 O   0  0  0  0  0  0  0  0  0  0  0  0
    0.2746    2.2565    1.0000 C   0  0  0  0  0  0  0  0  0  0  0  0
    0.1044    2.9782   -0.2109 C   0  0  0  0  0  0  0  0  0  0  0  0
    0.5575    2.5654   -1.2664 O   0  0  0  0  0  0  0  0  0  0  0  0
   -0.5854    4.1618   -0.1774 N   0  0  0  0  0  0  0  0  0  0  0  0
   -1.1023    4.6443    0.9966 C   0  0  0  0  0  0  0  0  0  0  0  0
   -0.9414    3.9683    2.1204 N   0  0  0  0  0  0  0  0  0  0  0  0
   -0.2608    2.7789    2.1488 C   0  0  0  0  0  0  0  0  0  0  0  0
   -0.1020    2.0392    3.4679 C   0  0  0  0  0  0  0  0  0  0  0  0
   -1.8223    5.9022    0.9721 C   0  0  0  0  0  0  0  0  0  0  0  0
   -2.6866    6.3182    1.8746 O   0  0  0  0  0  0  0  0  0  0  0  0
   -3.1670    7.4963    1.5479 C   0  0  0  0  0  0  0  0  0  0  0  0
   -2.5908    7.8720    0.3716 C   0  0  0  0  0  0  0  0  0  0  0  0
   -1.7095    6.8361   -0.0142 C   0  0  0  0  0  0  0  0  0  0  0  0
    4.2174   -0.5350    1.2666 C   0  0  0  0  0  0  0  0  0  0  0  0
  1  2  1  0
  2  3  2  0
  3  4  1  0
  4  5  1  0
  5  6  1  0
  6  7  1  0
  7  8  1  0
  8  9  1  0
  9  3  1  0
  9 10  2  0
 10 11  1  0
 11 12  1  0
 12 13  1  0
 13 14  2  0
 13 15  1  0
 15 16  1  0
 16 17  2  0
 16 18  1  0
 18 19  1  0
 19 20  2  0
 20 21  1  0
 15 21  2  0
 21 22  1  0
 19 23  1  0
 23 24  1  0
 24 25  1  0
 25 26  2  0
 26 27  1  0
 23 27  2  0
 11 28  2  0
 28  2  1  0
M  END
$$$$
s_22____14598544____6402696
     RDKit          3D

 29 32  0  0  0  0  0  0  0  0999 V2000
   -3.8039    2.6469    4.0881 Cl  0  0  0  0  0  0  0  0  0  0  0  0
   -3.0855    2.3759    2.4814 C   0  0  0  0  0  0  0  0  0  0  0  0
   -3.8938    2.1552    1.3684 C   0  0  0  0  0  0  0  0  0  0  0  0
   -5.2412    2.1323    1.4929 O   0  0  0  0  0  0  0  0  0  0  0  0
   -6.0153    1.3323    0.6100 C   0  0  0  0  0  0  0  0  0  0  0  0
   -6.3660    2.1014   -0.6537 C   0  0  0  0  0  0  0  0  0  0  0  0
   -5.0851    2.6683   -1.2460 C   0  0  0  0  0  0  0  0  0  0  0  0
   -3.9638    1.8258   -1.0188 O   0  0  0  0  0  0  0  0  0  0  0  0
   -3.2737    1.9720    0.1355 C   0  0  0  0  0  0  0  0  0  0  0  0
   -1.8867    1.9778    0.0325 C   0  0  0  0  0  0  0  0  0  0  0  0
   -1.0821    2.1842    1.1483 C   0  0  0  0  0  0  0  0  0  0  0  0
    0.3150    2.1857    1.0425 N   0  0  0  0  0  0  0  0  0  0  0  0
    1.0000    1.0000    1.0000 C   0  0  0  0  0  0  0  0  0  0  0  0
    0.4000   -0.0386    0.9628 O   0  0  0  0  0  0  0  0  0  0  0  0
    2.4505    1.0000    1.0000 C   0  0  0  0  0  0  0  0  0  0  0  0
    3.2331    2.1158    1.0400 N   0  0  0  0  0  0  0  0  0  0  0  0
    4.4882    1.7297    1.0278 N   0  0  0  0  0  0  0  0  0  0  0  0
    5.5964    2.5929    1.0576 C   0  0  0  0  0  0  0  0  0  0  0  0
    6.8526    2.1118    1.0422 N   0  0  0  0  0  0  0  0  0  0  0  0
    7.9398    2.9026    1.0723 C   0  0  0  0  0  0  0  0  0  0  0  0
    7.7432    4.2791    1.1206 C   0  0  0  0  0  0  0  0  0  0  0  0
    6.4510    4.7969    1.1363 C   0  0  0  0  0  0  0  0  0  0  0  0
    5.4261    3.9267    1.1043 N   0  0  0  0  0  0  0  0  0  0  0  0
    6.2589    6.3089    1.1881 C   0  0  0  0  0  0  0  0  0  0  0  0
    9.3630    2.3569    1.0558 C   0  0  0  0  0  0  0  0  0  0  0  0
    4.5554    0.3699    0.9790 C   0  0  0  0  0  0  0  0  0  0  0  0
    5.5729   -0.3033    0.9553 O   0  0  0  0  0  0  0  0  0  0  0  0
    3.2312   -0.1148    0.9601 C   0  0  0  0  0  0  0  0  0  0  0  0
   -1.6974    2.3897    2.3792 C   0  0  0  0  0  0  0  0  0  0  0  0
  1  2  1  0
  2  3  2  0
  3  4  1  0
  4  5  1  0
  5  6  1  0
  6  7  1  0
  7  8  1  0
  8  9  1  0
  9  3  1  0
  9 10  2  0
 10 11  1  0
 11 12  1  0
 12 13  1  0
 13 14  2  0
 13 15  1  0
 15 16  1  0
 16 17  1  0
 17 18  1  0
 18 19  2  0
 19 20  1  0
 20 21  2  0
 21 22  1  0
 22 23  2  0
 23 18  1  0
 22 24  1  0
 20 25  1  0
 17 26  1  0
 26 27  2  0
 26 28  1  0
 15 28  2  0
 11 29  2  0
 29  2  1  0
M  END
$$$$
s_22____127815____1327666
     RDKit          3D

 28 31  0  0  0  0  0  0  0  0999 V2000
    7.3211   -0.0484   -0.3456 O   0  0  0  0  0  0  0  0  0  0  0  0
    6.5306   -0.8900   -0.7402 C   0  0  0  0  0  0  0  0  0  0  0  0
    5.1602   -0.9081   -0.5026 N   0  0  0  0  0  0  0  0  0  0  0  0
    4.4645    0.0444    0.2478 C   0  0  0  0  0  0  0  0  0  0  0  0
    3.0736    0.0439    0.2473 C   0  0  0  0  0  0  0  0  0  0  0  0
    2.3995    1.0000    1.0000 C   0  0  0  0  0  0  0  0  0  0  0  0
    1.0000    1.0000    1.0000 N   0  0  0  0  0  0  0  0  0  0  0  0
    0.3150    2.1859    0.9630 C   0  0  0  0  0  0  0  0  0  0  0  0
    0.8607    3.1822    0.5763 O   0  0  0  0  0  0  0  0  0  0  0  0
   -1.0697    2.2371    1.3912 C   0  0  0  0  0  0  0  0  0  0  0  0
   -1.8126    3.4490    1.3669 C   0  0  0  0  0  0  0  0  0  0  0  0
   -1.2952    4.4624    0.9857 O   0  0  0  0  0  0  0  0  0  0  0  0
   -3.1186    3.4377    1.7840 N   0  0  0  0  0  0  0  0  0  0  0  0
   -3.7181    2.2849    2.2216 C   0  0  0  0  0  0  0  0  0  0  0  0
   -5.1004    2.2953    2.6585 C   0  0  0  0  0  0  0  0  0  0  0  0
   -5.7081    1.1796    3.0907 N   0  0  0  0  0  0  0  0  0  0  0  0
   -6.9857    1.1837    3.4962 C   0  0  0  0  0  0  0  0  0  0  0  0
   -7.7310    2.3574    3.4816 C   0  0  0  0  0  0  0  0  0  0  0  0
   -7.1203    3.5254    3.0368 C   0  0  0  0  0  0  0  0  0  0  0  0
   -5.7937    3.5012    2.6207 C   0  0  0  0  0  0  0  0  0  0  0  0
   -3.0235    1.1032    2.2543 C   0  0  0  0  0  0  0  0  0  0  0  0
   -1.6680    1.0833    1.8280 C   0  0  0  0  0  0  0  0  0  0  0  0
    3.0934    1.9462    1.7468 C   0  0  0  0  0  0  0  0  0  0  0  0
    4.4840    1.9278    1.7323 C   0  0  0  0  0  0  0  0  0  0  0  0
    5.1791    0.9817    0.9870 C   0  0  0  0  0  0  0  0  0  0  0  0
    4.5659   -2.0752   -1.1581 C   0  0  0  0  0  0  0  0  0  0  0  0
    5.5518   -2.4101   -2.2568 C   0  0  0  0  0  0  0  0  0  0  0  0
    6.8676   -2.1037   -1.5770 C   0  0  0  0  0  0  0  0  0  0  0  0
  1  2  2  0
  2  3  1  0
  3  4  1  0
  4  5  2  0
  5  6  1  0
  6  7  1  0
  7  8  1  0
  8  9  2  0
  8 10  1  0
 10 11  1  0
 11 12  2  0
 11 13  1  0
 13 14  1  0
 14 15  1  0
 15 16  2  0
 16 17  1  0
 17 18  2  0
 18 19  1  0
 19 20  2  0
 20 15  1  0
 14 21  2  0
 21 22  1  0
 10 22  2  0
  6 23  2  0
 23 24  1  0
 24 25  2  0
 25  4  1  0
  3 26  1  0
 26 27  1  0
 27 28  1  0
 28  2  1  0
M  END
$$$$
s_527a____13946128____736122
     RDKit          3D

 30 33  0  0  0  0  0  0  0  0999 V2000
   -3.6971   -0.0444   -0.2452 F   0  0  0  0  0  0  0  0  0  0  0  0
   -3.0292    1.0855   -0.0327 C   0  0  0  0  0  0  0  0  0  0  0  0
   -3.6666    2.3068   -0.2246 C   0  0  0  0  0  0  0  0  0  0  0  0
   -5.0026    2.3446   -0.6377 N   0  0  0  0  0  0  0  0  0  0  0  0
   -5.3092    2.3680   -2.0765 C   0  0  0  0  0  0  0  0  0  0  0  0
   -6.6096    1.6352   -2.3686 C   0  0  0  0  0  0  0  0  0  0  0  0
   -7.6345    2.0109   -1.4575 O   0  0  0  0  0  0  0  0  0  0  0  0
   -7.3031    1.6104   -0.1344 C   0  0  0  0  0  0  0  0  0  0  0  0
   -6.0678    2.3361    0.3765 C   0  0  0  0  0  0  0  0  0  0  0  0
   -2.9643    3.4862   -0.0020 C   0  0  0  0  0  0  0  0  0  0  0  0
   -3.5761    4.6516   -0.1866 F   0  0  0  0  0  0  0  0  0  0  0  0
   -1.6361    3.4590    0.4093 C   0  0  0  0  0  0  0  0  0  0  0  0
   -1.0208    2.2258    0.5940 C   0  0  0  0  0  0  0  0  0  0  0  0
    0.3150    2.1864    1.0081 N   0  0  0  0  0  0  0  0  0  0  0  0
    1.0000    1.0000    1.0000 C   0  0  0  0  0  0  0  0  0  0  0  0
    0.4000   -0.0392    0.9929 O   0  0  0  0  0  0  0  0  0  0  0  0
    2.4506    1.0000    1.0000 C   0  0  0  0  0  0  0  0  0  0  0  0
    3.1617   -0.2304    0.9916 C   0  0  0  0  0  0  0  0  0  0  0  0
    2.5221   -1.2720    0.9845 O   0  0  0  0  0  0  0  0  0  0  0  0
    4.5846   -0.2142    0.9917 C   0  0  0  0  0  0  0  0  0  0  0  0
    5.2463    1.0098    1.0007 C   0  0  0  0  0  0  0  0  0  0  0  0
    4.5278    2.1775    1.0085 N   0  0  0  0  0  0  0  0  0  0  0  0
    3.1566    2.1754    1.0083 C   0  0  0  0  0  0  0  0  0  0  0  0
    6.6360    1.0695    1.0013 C   0  0  0  0  0  0  0  0  0  0  0  0
    7.3585   -0.1189    0.9928 C   0  0  0  0  0  0  0  0  0  0  0  0
    8.7052   -0.0983    0.9932 O   0  0  0  0  0  0  0  0  0  0  0  0
    9.3963    1.1422    1.0023 C   0  0  0  0  0  0  0  0  0  0  0  0
    6.7295   -1.3577    0.9846 C   0  0  0  0  0  0  0  0  0  0  0  0
    5.3402   -1.3842    0.9842 C   0  0  0  0  0  0  0  0  0  0  0  0
   -1.7017    1.0327    0.3779 C   0  0  0  0  0  0  0  0  0  0  0  0
  1  2  1  0
  2  3  2  0
  3  4  1  0
  4  5  1  0
  5  6  1  0
  6  7  1  0
  7  8  1  0
  8  9  1  0
  9  4  1  0
  3 10  1  0
 10 11  1  0
 10 12  2  0
 12 13  1  0
 13 14  1  0
 14 15  1  0
 15 16  2  0
 15 17  1  0
 17 18  1  0
 18 19  2  0
 18 20  1  0
 20 21  2  0
 21 22  1  0
 22 23  1  0
 17 23  2  0
 21 24  1  0
 24 25  2  0
 25 26  1  0
 26 27  1  0
 25 28  1  0
 28 29  2  0
 29 20  1  0
 13 30  2  0
 30  2  1  0
M  END
$$$$
s_7a____244978____204069
     RDKit          3D

 35 40  0  0  0  0  0  0  0  0999 V2000
    3.1233    1.0000    2.7065 S   0  0  0  0  0  0  0  0  0  0  0  0
    4.8358    1.0000    2.3900 C   0  0  0  0  0  0  0  0  0  0  0  0
    5.2845    2.1540    1.8799 N   0  0  0  0  0  0  0  0  0  0  0  0
    6.5808    2.3155    1.5836 C   0  0  0  0  0  0  0  0  0  0  0  0
    7.4342    1.3037    1.8067 N   0  0  0  0  0  0  0  0  0  0  0  0
    7.0532    0.1186    2.3162 C   0  0  0  0  0  0  0  0  0  0  0  0
    7.9453   -0.9040    2.5378 N   0  0  0  0  0  0  0  0  0  0  0  0
    7.5422   -2.1094    3.0565 C   0  0  0  0  0  0  0  0  0  0  0  0
    8.3398   -3.0129    3.2497 O   0  0  0  0  0  0  0  0  0  0  0  0
    6.2272   -2.3358    3.3735 N   0  0  0  0  0  0  0  0  0  0  0  0
    5.3188   -1.3379    3.1639 C   0  0  0  0  0  0  0  0  0  0  0  0
    4.1755   -1.6305    3.4785 O   0  0  0  0  0  0  0  0  0  0  0  0
    5.7089   -0.0704    2.6266 C   0  0  0  0  0  0  0  0  0  0  0  0
    9.3714   -0.7441    2.2264 C   0  0  0  0  0  0  0  0  0  0  0  0
    9.8123    0.6836    2.3735 C   0  0  0  0  0  0  0  0  0  0  0  0
    9.5886    0.1035    1.0061 C   0  0  0  0  0  0  0  0  0  0  0  0
    7.0255    3.6481    1.0035 C   0  0  0  0  0  0  0  0  0  0  0  0
    8.1679    4.2220    1.7896 C   0  0  0  0  0  0  0  0  0  0  0  0
    6.7874    4.7922    1.9464 C   0  0  0  0  0  0  0  0  0  0  0  0
    2.5200    1.0000    1.0000 C   0  0  0  0  0  0  0  0  0  0  0  0
    1.0000    1.0000    1.0000 C   0  0  0  0  0  0  0  0  0  0  0  0
    0.4000    1.0000   -0.0392 O   0  0  0  0  0  0  0  0  0  0  0  0
    0.3150    1.0000    2.1865 N   0  0  0  0  0  0  0  0  0  0  0  0
   -1.0848    1.0000    2.1865 C   0  0  0  0  0  0  0  0  0  0  0  0
   -1.7711    2.0489    2.7920 C   0  0  0  0  0  0  0  0  0  0  0  0
   -1.0627    3.0924    3.3938 N   0  0  0  0  0  0  0  0  0  0  0  0
   -0.6579    3.1180    4.7248 C   0  0  0  0  0  0  0  0  0  0  0  0
   -0.8618    2.2503    5.5567 O   0  0  0  0  0  0  0  0  0  0  0  0
    0.0713    4.4264    4.9522 C   0  0  0  0  0  0  0  0  0  0  0  0
   -0.5093    5.3009    3.8596 C   0  0  0  0  0  0  0  0  0  0  0  0
   -0.6435    4.3196    2.7150 C   0  0  0  0  0  0  0  0  0  0  0  0
   -3.1618    2.0669    2.8031 C   0  0  0  0  0  0  0  0  0  0  0  0
   -3.8529    1.0220    2.1999 C   0  0  0  0  0  0  0  0  0  0  0  0
   -3.1716   -0.0281    1.5935 C   0  0  0  0  0  0  0  0  0  0  0  0
   -1.7807   -0.0428    1.5846 C   0  0  0  0  0  0  0  0  0  0  0  0
  1  2  1  0
  2  3  2  0
  3  4  1  0
  4  5  2  0
  5  6  1  0
  6  7  1  0
  7  8  1  0
  8  9  2  0
  8 10  1  0
 10 11  1  0
 11 12  2  0
 11 13  1  0
 13  2  1  0
 13  6  2  0
  7 14  1  0
 14 15  1  0
 15 16  1  0
 16 14  1  0
  4 17  1  0
 17 18  1  0
 18 19  1  0
 19 17  1  0
  1 20  1  0
 20 21  1  0
 21 22  2  0
 21 23  1  0
 23 24  1  0
 24 25  1  0
 25 26  1  0
 26 27  1  0
 27 28  2  0
 27 29  1  0
 29 30  1  0
 30 31  1  0
 31 26  1  0
 25 32  2  0
 32 33  1  0
 33 34  2  0
 34 35  1  0
 35 24  2  0
M  END
$$$$
s_11a____4786906____1136820
     RDKit          3D

 29 31  0  0  0  0  0  0  0  0999 V2000
    3.2636   -0.9372    2.4822 Cl  0  0  0  0  0  0  0  0  0  0  0  0
    3.2156    0.8425    2.4904 C   0  0  0  0  0  0  0  0  0  0  0  0
    2.0110    1.5375    2.5046 C   0  0  0  0  0  0  0  0  0  0  0  0
    2.0122    2.8782    2.5100 N   0  0  0  0  0  0  0  0  0  0  0  0
    3.1581    3.5753    2.5022 C   0  0  0  0  0  0  0  0  0  0  0  0
    4.3327    2.9278    2.4888 N   0  0  0  0  0  0  0  0  0  0  0  0
    4.3894    1.5880    2.4836 C   0  0  0  0  0  0  0  0  0  0  0  0
    3.1500    4.9753    2.5076 N   0  0  0  0  0  0  0  0  0  0  0  0
    4.4188    5.7176    2.4989 C   0  0  0  0  0  0  0  0  0  0  0  0
    4.7176    6.1936    1.0866 C   0  0  0  0  0  0  0  0  0  0  0  0
    6.0295    6.9612    1.0775 C   0  0  0  0  0  0  0  0  0  0  0  0
    6.3283    7.4372   -0.3347 C   0  0  0  0  0  0  0  0  0  0  0  0
    1.8728    5.7029    2.5220 C   0  0  0  0  0  0  0  0  0  0  0  0
    0.7664    0.7925    2.5128 C   0  0  0  0  0  0  0  0  0  0  0  0
    0.1496    0.6434    1.4943 O   0  0  0  0  0  0  0  0  0  0  0  0
    0.2949    0.2592    3.6834 N   0  0  0  0  0  0  0  0  0  0  0  0
   -0.4718   -0.9115    3.6603 C   0  0  0  0  0  0  0  0  0  0  0  0
   -1.6706   -0.9299    2.9555 C   0  0  0  0  0  0  0  0  0  0  0  0
   -2.4203   -2.1013    2.9423 C   0  0  0  0  0  0  0  0  0  0  0  0
   -3.5683   -2.1349    2.2734 F   0  0  0  0  0  0  0  0  0  0  0  0
   -1.9775   -3.2315    3.6206 C   0  0  0  0  0  0  0  0  0  0  0  0
   -2.7460   -4.4002    3.5938 N   0  0  0  0  0  0  0  0  0  0  0  0
   -4.0053   -4.5399    4.1688 C   0  0  0  0  0  0  0  0  0  0  0  0
   -4.6182   -3.6804    4.7789 O   0  0  0  0  0  0  0  0  0  0  0  0
   -4.4685   -5.9586    3.9076 C   0  0  0  0  0  0  0  0  0  0  0  0
   -3.1533   -6.6851    3.7128 C   0  0  0  0  0  0  0  0  0  0  0  0
   -2.3383   -5.6552    2.9604 C   0  0  0  0  0  0  0  0  0  0  0  0
   -0.7761   -3.1981    4.3209 C   0  0  0  0  0  0  0  0  0  0  0  0
   -0.0160   -2.0335    4.3436 C   0  0  0  0  0  0  0  0  0  0  0  0
  1  2  1  0
  2  3  2  0
  3  4  1  0
  4  5  2  0
  5  6  1  0
  6  7  2  0
  7  2  1  0
  5  8  1  0
  8  9  1  0
  9 10  1  0
 10 11  1  0
 11 12  1  0
  8 13  1  0
  3 14  1  0
 14 15  2  0
 14 16  1  0
 16 17  1  0
 17 18  2  0
 18 19  1  0
 19 20  1  0
 19 21  2  0
 21 22  1  0
 22 23  1  0
 23 24  2  0
 23 25  1  0
 25 26  1  0
 26 27  1  0
 27 22  1  0
 21 28  1  0
 28 29  2  0
 29 17  1  0
M  END
$$$$
s_2430a____8989258____4862870
     RDKit          3D

 31 34  0  0  0  0  0  0  0  0999 V2000
    0.4000   -0.0392    1.0000 O   0  0  0  0  0  0  0  0  0  0  0  0
    1.0000    1.0000    1.0000 C   0  0  0  0  0  0  0  0  0  0  0  0
    2.3700    1.0000    1.0000 N   0  0  0  0  0  0  0  0  0  0  0  0
    3.0702   -0.0502    1.6064 C   0  0  0  0  0  0  0  0  0  0  0  0
    2.6110   -1.3554    1.4620 C   0  0  0  0  0  0  0  0  0  0  0  0
    3.3140   -2.3911    2.0687 C   0  0  0  0  0  0  0  0  0  0  0  0
    4.4610   -2.1252    2.8102 C   0  0  0  0  0  0  0  0  0  0  0  0
    5.1613   -3.1749    3.4168 N   0  0  0  0  0  0  0  0  0  0  0  0
    5.2907   -3.3517    4.7931 C   0  0  0  0  0  0  0  0  0  0  0  0
    4.8118   -2.6369    5.6576 O   0  0  0  0  0  0  0  0  0  0  0  0
    6.1240   -4.5916    5.0285 C   0  0  0  0  0  0  0  0  0  0  0  0
    5.8646   -5.3707    3.7586 C   0  0  0  0  0  0  0  0  0  0  0  0
    5.8807   -4.2562    2.7364 C   0  0  0  0  0  0  0  0  0  0  0  0
    4.9122   -0.8163    2.9477 C   0  0  0  0  0  0  0  0  0  0  0  0
    4.2162    0.2265    2.3451 C   0  0  0  0  0  0  0  0  0  0  0  0
    2.7994   -3.8118    1.9017 C   0  0  0  0  0  0  0  0  0  0  0  0
    0.3150    2.1865    1.0000 N   0  0  0  0  0  0  0  0  0  0  0  0
   -1.0840    2.1865    1.0000 C   0  0  0  0  0  0  0  0  0  0  0  0
   -1.8860    2.1865   -0.0972 N   0  0  0  0  0  0  0  0  0  0  0  0
   -3.1407    2.1876    0.2850 N   0  0  0  0  0  0  0  0  0  0  0  0
   -3.1977    2.1896    1.5938 C   0  0  0  0  0  0  0  0  0  0  0  0
   -1.8800    2.1896    2.1014 C   0  0  0  0  0  0  0  0  0  0  0  0
   -4.4687    2.1918    2.4272 C   0  0  0  0  0  0  0  0  0  0  0  0
   -5.4942    1.2686    1.7896 C   0  0  0  0  0  0  0  0  0  0  0  0
   -4.1539    1.7058    3.8326 C   0  0  0  0  0  0  0  0  0  0  0  0
   -1.4436    2.1870   -1.4257 C   0  0  0  0  0  0  0  0  0  0  0  0
   -1.8651    1.2420   -2.2796 N   0  0  0  0  0  0  0  0  0  0  0  0
   -1.4572    1.2200   -3.5570 C   0  0  0  0  0  0  0  0  0  0  0  0
   -0.5780    2.1979   -4.0077 C   0  0  0  0  0  0  0  0  0  0  0  0
   -0.1512    3.1698   -3.1100 C   0  0  0  0  0  0  0  0  0  0  0  0
   -0.5953    3.1375   -1.8452 N   0  0  0  0  0  0  0  0  0  0  0  0
  1  2  2  0
  2  3  1  0
  3  4  1  0
  4  5  2  0
  5  6  1  0
  6  7  2  0
  7  8  1  0
  8  9  1  0
  9 10  2  0
  9 11  1  0
 11 12  1  0
 12 13  1  0
 13  8  1  0
  7 14  1  0
 14 15  2  0
 15  4  1  0
  6 16  1  0
  2 17  1  0
 17 18  1  0
 18 19  1  0
 19 20  1  0
 20 21  2  0
 21 22  1  0
 18 22  2  0
 21 23  1  0
 23 24  1  0
 23 25  1  0
 19 26  1  0
 26 27  2  0
 27 28  1  0
 28 29  2  0
 29 30  1  0
 30 31  2  0
 31 26  1  0
M  END
$$$$
s_274090____12937272____12354574
     RDKit          3D

 24 27  0  0  0  0  0  0  0  0999 V2000
    7.6907   -1.5855    1.1238 O   0  0  0  0  0  0  0  0  0  0  0  0
    7.3637   -1.5825    2.2984 C   0  0  0  0  0  0  0  0  0  0  0  0
    6.0631   -1.5265    2.7896 N   0  0  0  0  0  0  0  0  0  0  0  0
    4.9091   -1.4568    1.9996 C   0  0  0  0  0  0  0  0  0  0  0  0
    4.2141   -0.2565    1.8951 C   0  0  0  0  0  0  0  0  0  0  0  0
    3.0698   -0.2074    1.1056 C   0  0  0  0  0  0  0  0  0  0  0  0
    2.3700    1.0000    1.0000 N   0  0  0  0  0  0  0  0  0  0  0  0
    1.0000    1.0000    1.0000 C   0  0  0  0  0  0  0  0  0  0  0  0
    0.4000   -0.0392    1.0000 O   0  0  0  0  0  0  0  0  0  0  0  0
    0.2400    2.3164    1.0000 C   0  0  0  0  0  0  0  0  0  0  0  0
   -0.0050    2.7407   -0.3860 N   0  0  0  0  0  0  0  0  0  0  0  0
   -1.0542    2.4291   -1.1064 N   0  0  0  0  0  0  0  0  0  0  0  0
   -0.9832    2.9424   -2.2585 N   0  0  0  0  0  0  0  0  0  0  0  0
    0.1820    3.6453   -2.3269 C   0  0  0  0  0  0  0  0  0  0  0  0
    0.8184    3.5233   -1.1321 C   0  0  0  0  0  0  0  0  0  0  0  0
    0.6826    4.4317   -3.5282 C   0  0  0  0  0  0  0  0  0  0  0  0
    0.8601    5.8819   -3.1852 C   0  0  0  0  0  0  0  0  0  0  0  0
   -0.3173    5.4440   -4.0082 C   0  0  0  0  0  0  0  0  0  0  0  0
    2.6179   -1.3332    0.4252 C   0  0  0  0  0  0  0  0  0  0  0  0
    3.3287   -2.5226    0.5444 C   0  0  0  0  0  0  0  0  0  0  0  0
    4.4750   -2.5953    1.3282 C   0  0  0  0  0  0  0  0  0  0  0  0
    6.0746   -1.5559    4.2530 C   0  0  0  0  0  0  0  0  0  0  0  0
    7.3936   -2.2320    4.5595 C   0  0  0  0  0  0  0  0  0  0  0  0
    8.2963   -1.6512    3.4903 C   0  0  0  0  0  0  0  0  0  0  0  0
  1  2  2  0
  2  3  1  0
  3  4  1  0
  4  5  2  0
  5  6  1  0
  6  7  1  0
  7  8  1  0
  8  9  2  0
  8 10  1  0
 10 11  1  0
 11 12  1  0
 12 13  2  0
 13 14  1  0
 14 15  2  0
 15 11  1  0
 14 16  1  0
 16 17  1  0
 17 18  1  0
 18 16  1  0
  6 19  2  0
 19 20  1  0
 20 21  2  0
 21  4  1  0
  3 22  1  0
 22 23  1  0
 23 24  1  0
 24  2  1  0
M  END
$$$$
s_22____7639468____11678546
     RDKit          3D

 29 32  0  0  0  0  0  0  0  0999 V2000
    2.4367   -1.1998    1.8109 F   0  0  0  0  0  0  0  0  0  0  0  0
    3.1076   -0.1232    1.4141 C   0  0  0  0  0  0  0  0  0  0  0  0
    2.3992    1.0000    1.0000 C   0  0  0  0  0  0  0  0  0  0  0  0
    1.0000    1.0000    1.0000 N   0  0  0  0  0  0  0  0  0  0  0  0
    0.3085    2.1977    0.9950 N   0  0  0  0  0  0  0  0  0  0  0  0
   -1.0527    2.2034    1.1498 C   0  0  0  0  0  0  0  0  0  0  0  0
   -1.6450    1.1692    1.2898 O   0  0  0  0  0  0  0  0  0  0  0  0
   -1.7780    3.4597    1.1446 C   0  0  0  0  0  0  0  0  0  0  0  0
   -1.1563    4.6401    0.9911 N   0  0  0  0  0  0  0  0  0  0  0  0
   -1.8231    5.8062    0.9855 C   0  0  0  0  0  0  0  0  0  0  0  0
   -3.2055    5.8209    1.1414 C   0  0  0  0  0  0  0  0  0  0  0  0
   -3.8585    4.6044    1.3019 C   0  0  0  0  0  0  0  0  0  0  0  0
   -3.1570    3.4053    1.3063 C   0  0  0  0  0  0  0  0  0  0  0  0
   -3.9216    7.0498    1.1357 C   0  0  0  0  0  0  0  0  0  0  0  0
   -5.1343    7.1119    1.2705 O   0  0  0  0  0  0  0  0  0  0  0  0
   -3.2261    8.2167    0.9751 N   0  0  0  0  0  0  0  0  0  0  0  0
   -1.8640    8.2219    0.8198 C   0  0  0  0  0  0  0  0  0  0  0  0
   -1.1541    7.0487    0.8216 C   0  0  0  0  0  0  0  0  0  0  0  0
    3.0936    2.1300    0.5829 C   0  0  0  0  0  0  0  0  0  0  0  0
    2.4236    3.2076    0.1845 F   0  0  0  0  0  0  0  0  0  0  0  0
    4.4841    2.1464    0.5773 C   0  0  0  0  0  0  0  0  0  0  0  0
    5.1697    1.0114    0.9963 C   0  0  0  0  0  0  0  0  0  0  0  0
    4.4980   -0.1310    1.4176 C   0  0  0  0  0  0  0  0  0  0  0  0
    6.6186    1.0158    0.9963 C   0  0  0  0  0  0  0  0  0  0  0  0
    7.2210    0.0427    1.3571 O   0  0  0  0  0  0  0  0  0  0  0  0
    7.3009    2.1307    0.5859 N   0  0  0  0  0  0  0  0  0  0  0  0
    8.7693    2.1348    0.5875 C   0  0  0  0  0  0  0  0  0  0  0  0
    9.3177    3.2102    1.4803 C   0  0  0  0  0  0  0  0  0  0  0  0
    9.3284    3.3937   -0.0105 C   0  0  0  0  0  0  0  0  0  0  0  0
  1  2  1  0
  2  3  2  0
  3  4  1  0
  4  5  1  0
  5  6  1  0
  6  7  2  0
  6  8  1  0
  8  9  2  0
  9 10  1  0
 10 11  2  0
 11 12  1  0
 12 13  2  0
 13  8  1  0
 11 14  1  0
 14 15  2  0
 14 16  1  0
 16 17  1  0
 17 18  2  0
 18 10  1  0
  3 19  1  0
 19 20  1  0
 19 21  2  0
 21 22  1  0
 22 23  2  0
 23  2  1  0
 22 24  1  0
 24 25  2  0
 24 26  1  0
 26 27  1  0
 27 28  1  0
 28 29  1  0
 29 27  1  0
M  END
$$$$
s_527a____4786924____3225118
     RDKit          3D

 29 32  0  0  0  0  0  0  0  0999 V2000
    2.8869   -3.6364    0.0616 F   0  0  0  0  0  0  0  0  0  0  0  0
    3.3151   -2.3850   -0.0689 C   0  0  0  0  0  0  0  0  0  0  0  0
    4.4604   -2.1157   -0.8099 C   0  0  0  0  0  0  0  0  0  0  0  0
    5.1563   -3.1675   -1.4154 N   0  0  0  0  0  0  0  0  0  0  0  0
    5.8089   -4.1894   -0.7329 C   0  0  0  0  0  0  0  0  0  0  0  0
    5.8774   -4.3182    0.4777 O   0  0  0  0  0  0  0  0  0  0  0  0
    6.4277   -5.1045   -1.7697 C   0  0  0  0  0  0  0  0  0  0  0  0
    6.5702   -4.1768   -2.9590 C   0  0  0  0  0  0  0  0  0  0  0  0
    5.3071   -3.3489   -2.8600 C   0  0  0  0  0  0  0  0  0  0  0  0
    4.9098   -0.8065   -0.9476 C   0  0  0  0  0  0  0  0  0  0  0  0
    4.2136    0.2353   -0.3438 C   0  0  0  0  0  0  0  0  0  0  0  0
    3.0698   -0.0498    0.3939 C   0  0  0  0  0  0  0  0  0  0  0  0
    2.3700    1.0000    1.0000 N   0  0  0  0  0  0  0  0  0  0  0  0
    1.0000    1.0000    1.0000 C   0  0  0  0  0  0  0  0  0  0  0  0
    0.4000   -0.0392    1.0000 O   0  0  0  0  0  0  0  0  0  0  0  0
    0.2400    2.3164    1.0000 C   0  0  0  0  0  0  0  0  0  0  0  0
    1.2282    3.4722    1.0000 C   0  0  0  0  0  0  0  0  0  0  0  0
    1.8643    3.8912    2.1979 C   0  0  0  0  0  0  0  0  0  0  0  0
    2.7181    4.9013    2.1562 N   0  0  0  0  0  0  0  0  0  0  0  0
    3.0073    5.5611    0.9926 C   0  0  0  0  0  0  0  0  0  0  0  0
    2.4225    5.1835   -0.1679 N   0  0  0  0  0  0  0  0  0  0  0  0
    2.8314    5.9247   -1.1722 N   0  0  0  0  0  0  0  0  0  0  0  0
    3.7174    6.8274   -0.6741 C   0  0  0  0  0  0  0  0  0  0  0  0
    4.3040    7.6854   -1.3143 O   0  0  0  0  0  0  0  0  0  0  0  0
    3.8403    6.6058    0.7150 C   0  0  0  0  0  0  0  0  0  0  0  0
    1.5358    4.1441   -0.1534 C   0  0  0  0  0  0  0  0  0  0  0  0
    0.8683    3.7096   -1.4490 C   0  0  0  0  0  0  0  0  0  0  0  0
    1.5293    3.1539    3.4851 C   0  0  0  0  0  0  0  0  0  0  0  0
    2.6082   -1.3535    0.5401 C   0  0  0  0  0  0  0  0  0  0  0  0
  1  2  1  0
  2  3  2  0
  3  4  1  0
  4  5  1  0
  5  6  2  0
  5  7  1  0
  7  8  1  0
  8  9  1  0
  9  4  1  0
  3 10  1  0
 10 11  2  0
 11 12  1  0
 12 13  1  0
 13 14  1  0
 14 15  2  0
 14 16  1  0
 16 17  1  0
 17 18  1  0
 18 19  2  0
 19 20  1  0
 20 21  1  0
 21 22  1  0
 22 23  1  0
 23 24  2  0
 23 25  1  0
 20 25  2  0
 21 26  1  0
 17 26  2  0
 26 27  1  0
 18 28  1  0
 12 29  2  0
 29  2  1  0
M  END
$$$$
s_22____7639468____6402696
     RDKit          3D

 32 35  0  0  0  0  0  0  0  0999 V2000
    1.9369   -0.9165   -0.9206 F   0  0  0  0  0  0  0  0  0  0  0  0
    2.8422   -1.1685    0.0194 C   0  0  0  0  0  0  0  0  0  0  0  0
    3.0826   -0.2117    1.0000 C   0  0  0  0  0  0  0  0  0  0  0  0
    2.3830    1.0000    1.0000 N   0  0  0  0  0  0  0  0  0  0  0  0
    1.0000    1.0000    1.0000 N   0  0  0  0  0  0  0  0  0  0  0  0
    0.3150    2.1865    1.0000 C   0  0  0  0  0  0  0  0  0  0  0  0
    0.9150    3.2257    1.0000 O   0  0  0  0  0  0  0  0  0  0  0  0
   -1.1355    2.1865    1.0000 C   0  0  0  0  0  0  0  0  0  0  0  0
   -1.9181    3.3030    1.0000 N   0  0  0  0  0  0  0  0  0  0  0  0
   -3.1732    2.9167    0.9984 N   0  0  0  0  0  0  0  0  0  0  0  0
   -4.2814    3.7804    0.9995 C   0  0  0  0  0  0  0  0  0  0  0  0
   -5.5376    3.2991    0.9976 N   0  0  0  0  0  0  0  0  0  0  0  0
   -6.6248    4.0905    0.9959 C   0  0  0  0  0  0  0  0  0  0  0  0
   -6.4282    5.4678    0.9969 C   0  0  0  0  0  0  0  0  0  0  0  0
   -5.1360    5.9858    0.9998 C   0  0  0  0  0  0  0  0  0  0  0  0
   -4.1111    5.1150    1.0006 N   0  0  0  0  0  0  0  0  0  0  0  0
   -4.9439    7.4987    1.0022 C   0  0  0  0  0  0  0  0  0  0  0  0
   -8.0480    3.5445    0.9929 C   0  0  0  0  0  0  0  0  0  0  0  0
   -3.2404    1.5560    0.9984 C   0  0  0  0  0  0  0  0  0  0  0  0
   -4.2579    0.8824    0.9980 O   0  0  0  0  0  0  0  0  0  0  0  0
   -1.9162    1.0709    0.9999 C   0  0  0  0  0  0  0  0  0  0  0  0
    4.0284   -0.4675    1.9864 C   0  0  0  0  0  0  0  0  0  0  0  0
    4.2648    0.4427    2.9270 F   0  0  0  0  0  0  0  0  0  0  0  0
    4.7320   -1.6669    2.0009 C   0  0  0  0  0  0  0  0  0  0  0  0
    4.4735   -2.6078    1.0100 C   0  0  0  0  0  0  0  0  0  0  0  0
    3.5328   -2.3754    0.0127 C   0  0  0  0  0  0  0  0  0  0  0  0
    5.1989   -3.8621    1.0143 C   0  0  0  0  0  0  0  0  0  0  0  0
    6.3443   -3.8916    1.3709 O   0  0  0  0  0  0  0  0  0  0  0  0
    4.5771   -5.0144    0.6113 N   0  0  0  0  0  0  0  0  0  0  0  0
    5.3122   -6.2855    0.6156 C   0  0  0  0  0  0  0  0  0  0  0  0
    5.3802   -6.8891   -0.7575 C   0  0  0  0  0  0  0  0  0  0  0  0
    4.4286   -7.4471    0.2621 C   0  0  0  0  0  0  0  0  0  0  0  0
  1  2  1  0
  2  3  2  0
  3  4  1  0
  4  5  1  0
  5  6  1  0
  6  7  2  0
  6  8  1  0
  8  9  1  0
  9 10  1  0
 10 11  1  0
 11 12  2  0
 12 13  1  0
 13 14  2  0
 14 15  1  0
 15 16  2  0
 16 11  1  0
 15 17  1  0
 13 18  1  0
 10 19  1  0
 19 20  2  0
 19 21  1  0
  8 21  2  0
  3 22  1  0
 22 23  1  0
 22 24  2  0
 24 25  1  0
 25 26  2  0
 26  2  1  0
 25 27  1  0
 27 28  2  0
 27 29  1  0
 29 30  1  0
 30 31  1  0
 31 32  1  0
 32 30  1  0
M  END
$$$$
s_22____8686200____903526
     RDKit          3D

 29 31  0  0  0  0  0  0  0  0999 V2000
    1.8038   -0.7854   -1.3958 Cl  0  0  0  0  0  0  0  0  0  0  0  0
    2.9107   -1.1493   -0.0500 C   0  0  0  0  0  0  0  0  0  0  0  0
    3.0951   -0.2559    1.0000 C   0  0  0  0  0  0  0  0  0  0  0  0
    3.9380   -0.5662    1.9957 N   0  0  0  0  0  0  0  0  0  0  0  0
    4.6133   -1.7252    2.0037 C   0  0  0  0  0  0  0  0  0  0  0  0
    4.4513   -2.6028    1.0022 N   0  0  0  0  0  0  0  0  0  0  0  0
    3.6214   -2.3435   -0.0183 C   0  0  0  0  0  0  0  0  0  0  0  0
    5.4911   -2.0405    3.0468 N   0  0  0  0  0  0  0  0  0  0  0  0
    6.2200   -3.3170    3.0334 C   0  0  0  0  0  0  0  0  0  0  0  0
    7.5488   -3.1354    2.3107 C   0  0  0  0  0  0  0  0  0  0  0  0
    7.7597   -3.2989    1.0243 O   0  0  0  0  0  0  0  0  0  0  0  0
    9.0195   -3.0644    0.7275 C   0  0  0  0  0  0  0  0  0  0  0  0
    9.6691   -2.7351    1.8790 C   0  0  0  0  0  0  0  0  0  0  0  0
    8.7128   -2.7812    2.9198 C   0  0  0  0  0  0  0  0  0  0  0  0
    2.3700    1.0000    1.0000 C   0  0  0  0  0  0  0  0  0  0  0  0
    2.9700    2.0392    1.0000 O   0  0  0  0  0  0  0  0  0  0  0  0
    1.0000    1.0000    1.0000 N   0  0  0  0  0  0  0  0  0  0  0  0
    0.3006    2.2114    1.0000 C   0  0  0  0  0  0  0  0  0  0  0  0
   -1.0899    2.1918    1.0000 C   0  0  0  0  0  0  0  0  0  0  0  0
   -1.7750    3.4014    1.0002 C   0  0  0  0  0  0  0  0  0  0  0  0
   -3.1042    3.4082    0.9993 F   0  0  0  0  0  0  0  0  0  0  0  0
   -1.0865    4.6095    1.0003 C   0  0  0  0  0  0  0  0  0  0  0  0
   -1.7600    5.7782    1.0012 O   0  0  0  0  0  0  0  0  0  0  0  0
   -2.1138    6.3928    2.2315 C   0  0  0  0  0  0  0  0  0  0  0  0
   -1.4748    7.7696    2.3122 C   0  0  0  0  0  0  0  0  0  0  0  0
   -3.6253    6.5302    2.3131 C   0  0  0  0  0  0  0  0  0  0  0  0
    0.3038    4.6044    1.0000 C   0  0  0  0  0  0  0  0  0  0  0  0
    0.9635    5.7586    0.9998 F   0  0  0  0  0  0  0  0  0  0  0  0
    1.0108    3.4068    0.9997 C   0  0  0  0  0  0  0  0  0  0  0  0
  1  2  1  0
  2  3  2  0
  3  4  1  0
  4  5  2  0
  5  6  1  0
  6  7  2  0
  7  2  1  0
  5  8  1  0
  8  9  1  0
  9 10  1  0
 10 11  1  0
 11 12  1  0
 12 13  2  0
 13 14  1  0
 10 14  2  0
  3 15  1  0
 15 16  2  0
 15 17  1  0
 17 18  1  0
 18 19  2  0
 19 20  1  0
 20 21  1  0
 20 22  2  0
 22 23  1  0
 23 24  1  0
 24 25  1  0
 24 26  1  0
 22 27  1  0
 27 28  1  0
 27 29  2  0
 29 18  1  0
M  END
$$$$
s_2430a____1041920____14943036
     RDKit          3D

 29 33  0  0  0  0  0  0  0  0999 V2000
    2.4236   -1.1678    1.9086 F   0  0  0  0  0  0  0  0  0  0  0  0
    3.0970   -0.1104    1.4653 C   0  0  0  0  0  0  0  0  0  0  0  0
    2.4002    1.0000    1.0000 C   0  0  0  0  0  0  0  0  0  0  0  0
    1.0000    1.0000    1.0000 N   0  0  0  0  0  0  0  0  0  0  0  0
    0.3150    2.1864    0.9951 C   0  0  0  0  0  0  0  0  0  0  0  0
    0.7944    3.1582    1.5107 O   0  0  0  0  0  0  0  0  0  0  0  0
   -0.9451    2.2652    0.3882 N   0  0  0  0  0  0  0  0  0  0  0  0
   -1.7915    3.4557    0.3039 C   0  0  0  0  0  0  0  0  0  0  0  0
   -3.2054    2.9327    0.1524 C   0  0  0  0  0  0  0  0  0  0  0  0
   -3.9605    3.2020    1.4339 C   0  0  0  0  0  0  0  0  0  0  0  0
   -4.3824    4.2977    1.7741 O   0  0  0  0  0  0  0  0  0  0  0  0
   -4.1453    2.0209    2.1564 N   0  0  0  0  0  0  0  0  0  0  0  0
   -3.6158    0.9488    1.4322 C   0  0  0  0  0  0  0  0  0  0  0  0
   -3.5623   -0.2075    1.8385 O   0  0  0  0  0  0  0  0  0  0  0  0
   -3.1089    1.4276    0.0940 C   0  0  0  0  0  0  0  0  0  0  0  0
   -1.6606    1.1747   -0.2712 C   0  0  0  0  0  0  0  0  0  0  0  0
   -4.1411    1.0400   -0.9351 C   0  0  0  0  0  0  0  0  0  0  0  0
   -3.9277    2.1155   -1.9783 C   0  0  0  0  0  0  0  0  0  0  0  0
   -3.9057    3.3579   -1.1236 C   0  0  0  0  0  0  0  0  0  0  0  0
    3.0828    2.1169    0.5316 C   0  0  0  0  0  0  0  0  0  0  0  0
    4.4730    2.1014    0.5374 C   0  0  0  0  0  0  0  0  0  0  0  0
    5.1762    3.2171    0.0677 N   0  0  0  0  0  0  0  0  0  0  0  0
    5.3824    3.5229   -1.2739 C   0  0  0  0  0  0  0  0  0  0  0  0
    4.9933    2.8727   -2.2292 O   0  0  0  0  0  0  0  0  0  0  0  0
    6.1887    4.8044   -1.3284 C   0  0  0  0  0  0  0  0  0  0  0  0
    6.8829    4.7935    0.0182 C   0  0  0  0  0  0  0  0  0  0  0  0
    5.8053    4.2285    0.9184 C   0  0  0  0  0  0  0  0  0  0  0  0
    5.1758    0.9950    1.0014 C   0  0  0  0  0  0  0  0  0  0  0  0
    4.4880   -0.1198    1.4689 C   0  0  0  0  0  0  0  0  0  0  0  0
  1  2  1  0
  2  3  2  0
  3  4  1  0
  4  5  1  0
  5  6  2  0
  5  7  1  0
  7  8  1  0
  8  9  1  0
  9 10  1  0
 10 11  2  0
 10 12  1  0
 12 13  1  0
 13 14  2  0
 13 15  1  0
 15  9  1  0
 15 16  1  0
 16  7  1  0
 15 17  1  0
 17 18  1  0
 18 19  1  0
 19  9  1  0
  3 20  1  0
 20 21  2  0
 21 22  1  0
 22 23  1  0
 23 24  2  0
 23 25  1  0
 25 26  1  0
 26 27  1  0
 27 22  1  0
 21 28  1  0
 28 29  2  0
 29  2  1  0
M  END
$$$$
m_274860a____17146992____17212884____15233878
     RDKit          3D

 35 38  0  0  0  0  0  0  0  0999 V2000
    3.1015   -1.6525    0.9052 F   0  0  0  0  0  0  0  0  0  0  0  0
    3.4368   -0.9493    1.9822 C   0  0  0  0  0  0  0  0  0  0  0  0
    3.0826    0.3941    2.0494 C   0  0  0  0  0  0  0  0  0  0  0  0
    2.3830    1.0000    1.0000 N   0  0  0  0  0  0  0  0  0  0  0  0
    1.0000    1.0000    1.0000 N   0  0  0  0  0  0  0  0  0  0  0  0
    0.3150    2.1865    1.0000 C   0  0  0  0  0  0  0  0  0  0  0  0
    0.7944    3.1561    0.4804 O   0  0  0  0  0  0  0  0  0  0  0  0
   -1.0523    2.2746    1.6582 C   0  0  0  0  0  0  0  0  0  0  0  0
   -1.5734    3.6425    1.5239 N   0  0  0  0  0  0  0  0  0  0  0  0
   -1.8028    4.2664    0.3948 N   0  0  0  0  0  0  0  0  0  0  0  0
   -2.2507    5.4306    0.5924 N   0  0  0  0  0  0  0  0  0  0  0  0
   -2.3302    5.6126    1.9391 C   0  0  0  0  0  0  0  0  0  0  0  0
   -2.7955    6.8109    2.6106 C   0  0  0  0  0  0  0  0  0  0  0  0
   -4.0506    6.8480    3.0813 N   0  0  0  0  0  0  0  0  0  0  0  0
   -4.5382    7.9278    3.7107 C   0  0  0  0  0  0  0  0  0  0  0  0
   -3.7184    9.0393    3.8797 C   0  0  0  0  0  0  0  0  0  0  0  0
   -2.4627    9.0020    3.4089 N   0  0  0  0  0  0  0  0  0  0  0  0
   -1.9757    7.9227    2.7797 C   0  0  0  0  0  0  0  0  0  0  0  0
   -0.5432    7.9482    2.2713 C   0  0  0  0  0  0  0  0  0  0  0  0
   -1.9007    4.4731    2.5472 C   0  0  0  0  0  0  0  0  0  0  0  0
   -2.0039    1.3012    0.9819 C   0  0  0  0  0  0  0  0  0  0  0  0
   -3.3712    1.9487    0.8350 C   0  0  0  0  0  0  0  0  0  0  0  0
   -1.4651    0.9380   -0.3922 C   0  0  0  0  0  0  0  0  0  0  0  0
   -2.1269    0.0435    1.8266 C   0  0  0  0  0  0  0  0  0  0  0  0
    3.4301    1.1367    3.1723 C   0  0  0  0  0  0  0  0  0  0  0  0
    3.0960    2.4221    3.2438 F   0  0  0  0  0  0  0  0  0  0  0  0
    4.1251    0.5495    4.2240 C   0  0  0  0  0  0  0  0  0  0  0  0
    4.4675   -0.7953    4.1334 C   0  0  0  0  0  0  0  0  0  0  0  0
    4.1316   -1.5589    3.0209 C   0  0  0  0  0  0  0  0  0  0  0  0
    5.1906   -1.4195    5.2229 C   0  0  0  0  0  0  0  0  0  0  0  0
    4.5926   -2.0100    6.0795 O   0  0  0  0  0  0  0  0  0  0  0  0
    6.5570   -1.3356    5.2751 N   0  0  0  0  0  0  0  0  0  0  0  0
    7.2898   -1.9682    6.3791 C   0  0  0  0  0  0  0  0  0  0  0  0
    8.0811   -0.9627    7.1648 C   0  0  0  0  0  0  0  0  0  0  0  0
    8.7770   -1.8735    6.1939 C   0  0  0  0  0  0  0  0  0  0  0  0
  1  2  1  0
  2  3  2  0
  3  4  1  0
  4  5  1  0
  5  6  1  0
  6  7  2  0
  6  8  1  0
  8  9  1  0
  9 10  1  0
 10 11  2  0
 11 12  1  0
 12 13  1  0
 13 14  2  0
 14 15  1  0
 15 16  2  0
 16 17  1  0
 17 18  2  0
 18 13  1  0
 18 19  1  0
 12 20  2  0
 20  9  1  0
  8 21  1  0
 21 22  1  0
 21 23  1  0
 21 24  1  0
  3 25  1  0
 25 26  1  0
 25 27  2  0
 27 28  1  0
 28 29  2  0
 29  2  1  0
 28 30  1  0
 30 31  2  0
 30 32  1  0
 32 33  1  0
 33 34  1  0
 34 35  1  0
 35 33  1  0
M  END
$$$$
s_22____231040____6402704
     RDKit          3D

 32 35  0  0  0  0  0  0  0  0999 V2000
    8.3502    3.9131    2.0178 F   0  0  0  0  0  0  0  0  0  0  0  0
    7.6854    2.7843    2.2477 C   0  0  0  0  0  0  0  0  0  0  0  0
    6.5874    3.0516    2.9490 F   0  0  0  0  0  0  0  0  0  0  0  0
    8.4574    1.9471    2.9347 F   0  0  0  0  0  0  0  0  0  0  0  0
    7.3236    2.1877    1.0109 O   0  0  0  0  0  0  0  0  0  0  0  0
    6.6367    1.0249    0.9974 C   0  0  0  0  0  0  0  0  0  0  0  0
    5.2434    1.0058    0.9980 C   0  0  0  0  0  0  0  0  0  0  0  0
    4.5177    2.1707    1.0128 N   0  0  0  0  0  0  0  0  0  0  0  0
    3.1458    2.1819    1.0135 C   0  0  0  0  0  0  0  0  0  0  0  0
    2.4505    1.0000    1.0000 C   0  0  0  0  0  0  0  0  0  0  0  0
    1.0000    1.0000    1.0000 C   0  0  0  0  0  0  0  0  0  0  0  0
    0.4000   -0.0392    0.9881 O   0  0  0  0  0  0  0  0  0  0  0  0
    0.3150    2.1864    1.0136 N   0  0  0  0  0  0  0  0  0  0  0  0
   -1.0694    2.1932    1.2243 C   0  0  0  0  0  0  0  0  0  0  0  0
   -1.7721    0.9926    1.2104 C   0  0  0  0  0  0  0  0  0  0  0  0
   -3.1470    1.0110    1.4205 C   0  0  0  0  0  0  0  0  0  0  0  0
   -3.8106    2.2137    1.6415 C   0  0  0  0  0  0  0  0  0  0  0  0
   -5.1948    2.2212    1.8521 N   0  0  0  0  0  0  0  0  0  0  0  0
   -6.1515    2.2388    0.8389 C   0  0  0  0  0  0  0  0  0  0  0  0
   -5.9285    2.2391   -0.3602 O   0  0  0  0  0  0  0  0  0  0  0  0
   -7.5180    2.2499    1.4869 C   0  0  0  0  0  0  0  0  0  0  0  0
   -7.2220    1.5965    2.8182 C   0  0  0  0  0  0  0  0  0  0  0  0
   -5.8837    2.2199    3.1463 C   0  0  0  0  0  0  0  0  0  0  0  0
   -3.0983    3.4088    1.6543 C   0  0  0  0  0  0  0  0  0  0  0  0
   -1.7231    3.4014    1.4450 C   0  0  0  0  0  0  0  0  0  0  0  0
   -3.9007   -0.3092    1.4022 C   0  0  0  0  0  0  0  0  0  0  0  0
    3.1526   -0.2357    0.9858 C   0  0  0  0  0  0  0  0  0  0  0  0
    2.5098   -1.2753    0.9738 O   0  0  0  0  0  0  0  0  0  0  0  0
    4.5752   -0.2167    0.9838 C   0  0  0  0  0  0  0  0  0  0  0  0
    5.3195   -1.3947    0.9698 C   0  0  0  0  0  0  0  0  0  0  0  0
    6.7100   -1.3833    0.9689 C   0  0  0  0  0  0  0  0  0  0  0  0
    7.3685   -0.1584    0.9828 C   0  0  0  0  0  0  0  0  0  0  0  0
  1  2  1  0
  2  3  1  0
  2  4  1  0
  2  5  1  0
  5  6  1  0
  6  7  2  0
  7  8  1  0
  8  9  1  0
  9 10  2  0
 10 11  1  0
 11 12  2  0
 11 13  1  0
 13 14  1  0
 14 15  2  0
 15 16  1  0
 16 17  2  0
 17 18  1  0
 18 19  1  0
 19 20  2  0
 19 21  1  0
 21 22  1  0
 22 23  1  0
 23 18  1  0
 17 24  1  0
 24 25  2  0
 25 14  1  0
 16 26  1  0
 10 27  1  0
 27 28  2  0
 27 29  1  0
 29  7  1  0
 29 30  2  0
 30 31  1  0
 31 32  2  0
 32  6  1  0
M  END
$$$$
s_22____10904692____903526
     RDKit          3D

 32 35  0  0  0  0  0  0  0  0999 V2000
    2.2631   -1.6061    1.9278 Cl  0  0  0  0  0  0  0  0  0  0  0  0
    3.1318   -0.1423    1.4068 C   0  0  0  0  0  0  0  0  0  0  0  0
    2.4502    1.0000    1.0000 C   0  0  0  0  0  0  0  0  0  0  0  0
    3.1404    2.0831    0.6143 N   0  0  0  0  0  0  0  0  0  0  0  0
    4.4817    2.0919    0.6106 C   0  0  0  0  0  0  0  0  0  0  0  0
    5.1608    1.0024    0.9993 N   0  0  0  0  0  0  0  0  0  0  0  0
    4.5213   -0.1078    1.3945 C   0  0  0  0  0  0  0  0  0  0  0  0
    5.1937    3.2266    0.2063 N   0  0  0  0  0  0  0  0  0  0  0  0
    6.6460    3.1460   -0.0062 C   0  0  0  0  0  0  0  0  0  0  0  0
    6.9270    2.7667   -1.4548 C   0  0  0  0  0  0  0  0  0  0  0  0
    7.0881    3.6009   -2.4567 O   0  0  0  0  0  0  0  0  0  0  0  0
    7.3146    2.9451   -3.5743 C   0  0  0  0  0  0  0  0  0  0  0  0
    7.2961    1.6125   -3.2915 C   0  0  0  0  0  0  0  0  0  0  0  0
    7.0412    1.4882   -1.9060 C   0  0  0  0  0  0  0  0  0  0  0  0
    1.0000    1.0000    1.0000 C   0  0  0  0  0  0  0  0  0  0  0  0
    0.4000    2.0392    1.0073 O   0  0  0  0  0  0  0  0  0  0  0  0
    0.3150   -0.1864    0.9917 N   0  0  0  0  0  0  0  0  0  0  0  0
   -1.1383   -0.1945    0.7706 C   0  0  0  0  0  0  0  0  0  0  0  0
   -1.4235   -0.3118   -0.7168 C   0  0  0  0  0  0  0  0  0  0  0  0
   -1.5595   -1.5726   -1.2879 C   0  0  0  0  0  0  0  0  0  0  0  0
   -1.8203   -1.6662   -2.6505 C   0  0  0  0  0  0  0  0  0  0  0  0
   -1.9529   -2.8643   -3.2120 F   0  0  0  0  0  0  0  0  0  0  0  0
   -1.9432   -0.5212   -3.4291 C   0  0  0  0  0  0  0  0  0  0  0  0
   -2.2059   -0.6315   -4.7997 N   0  0  0  0  0  0  0  0  0  0  0  0
   -3.6018   -0.6606   -5.2635 C   0  0  0  0  0  0  0  0  0  0  0  0
   -3.7370   -0.0005   -6.6270 C   0  0  0  0  0  0  0  0  0  0  0  0
   -2.7231   -0.4412   -7.5212 O   0  0  0  0  0  0  0  0  0  0  0  0
   -1.4394   -0.0332   -7.0667 C   0  0  0  0  0  0  0  0  0  0  0  0
   -1.0795   -0.6917   -5.7436 C   0  0  0  0  0  0  0  0  0  0  0  0
   -1.8027    0.7287   -2.8354 C   0  0  0  0  0  0  0  0  0  0  0  0
   -1.9210    1.8186   -3.5870 F   0  0  0  0  0  0  0  0  0  0  0  0
   -1.5418    0.8480   -1.4748 C   0  0  0  0  0  0  0  0  0  0  0  0
  1  2  1  0
  2  3  2  0
  3  4  1  0
  4  5  2  0
  5  6  1  0
  6  7  2  0
  7  2  1  0
  5  8  1  0
  8  9  1  0
  9 10  1  0
 10 11  1  0
 11 12  1  0
 12 13  2  0
 13 14  1  0
 10 14  2  0
  3 15  1  0
 15 16  2  0
 15 17  1  0
 17 18  1  0
 18 19  1  0
 19 20  2  0
 20 21  1  0
 21 22  1  0
 21 23  2  0
 23 24  1  0
 24 25  1  0
 25 26  1  0
 26 27  1  0
 27 28  1  0
 28 29  1  0
 29 24  1  0
 23 30  1  0
 30 31  1  0
 30 32  2  0
 32 19  1  0
M  END
$$$$
s_2708____906316____12904828
     RDKit          3D

 29 32  0  0  0  0  0  0  0  0999 V2000
   -2.6332    4.9529    5.2057 Cl  0  0  0  0  0  0  0  0  0  0  0  0
   -2.3479    3.3828    4.4160 C   0  0  0  0  0  0  0  0  0  0  0  0
   -2.5568    2.1763    5.0783 C   0  0  0  0  0  0  0  0  0  0  0  0
   -2.9917    2.2129    6.3605 O   0  0  0  0  0  0  0  0  0  0  0  0
   -3.8732    1.2342    6.8979 C   0  0  0  0  0  0  0  0  0  0  0  0
   -3.1146   -0.0129    7.3266 C   0  0  0  0  0  0  0  0  0  0  0  0
   -2.0360   -0.3902    6.3217 C   0  0  0  0  0  0  0  0  0  0  0  0
   -2.4644   -0.2329    4.9745 O   0  0  0  0  0  0  0  0  0  0  0  0
   -2.3125    0.9799    4.4024 C   0  0  0  0  0  0  0  0  0  0  0  0
   -1.8813    0.9771    3.0836 C   0  0  0  0  0  0  0  0  0  0  0  0
   -1.6617    2.1865    2.4332 C   0  0  0  0  0  0  0  0  0  0  0  0
   -1.8976    3.3840    3.1004 C   0  0  0  0  0  0  0  0  0  0  0  0
   -1.1550    2.1865    1.0000 C   0  0  0  0  0  0  0  0  0  0  0  0
    0.3150    2.1865    1.0000 N   0  0  0  0  0  0  0  0  0  0  0  0
    1.0000    1.0000    1.0000 C   0  0  0  0  0  0  0  0  0  0  0  0
    0.4000   -0.0392    1.0000 O   0  0  0  0  0  0  0  0  0  0  0  0
    2.3700    1.0000    1.0000 N   0  0  0  0  0  0  0  0  0  0  0  0
    3.1050   -0.2731    1.0000 C   0  0  0  0  0  0  0  0  0  0  0  0
    3.3584   -0.7120   -0.4335 C   0  0  0  0  0  0  0  0  0  0  0  0
    4.4137   -0.3940   -1.1471 N   0  0  0  0  0  0  0  0  0  0  0  0
    4.2860   -0.9543   -2.3306 N   0  0  0  0  0  0  0  0  0  0  0  0
    3.1546   -1.6291   -2.3895 C   0  0  0  0  0  0  0  0  0  0  0  0
    2.5374   -1.4958   -1.1867 N   0  0  0  0  0  0  0  0  0  0  0  0
    1.3241   -2.1197   -1.0247 C   0  0  0  0  0  0  0  0  0  0  0  0
    0.7459   -2.8572   -2.0270 C   0  0  0  0  0  0  0  0  0  0  0  0
    1.3566   -3.0071   -3.2459 N   0  0  0  0  0  0  0  0  0  0  0  0
    2.5668   -2.3919   -3.4378 C   0  0  0  0  0  0  0  0  0  0  0  0
    3.1173   -2.5193   -4.5196 O   0  0  0  0  0  0  0  0  0  0  0  0
    3.1050    2.2731    1.0000 C   0  0  0  0  0  0  0  0  0  0  0  0
  1  2  1  0
  2  3  2  0
  3  4  1  0
  4  5  1  0
  5  6  1  0
  6  7  1  0
  7  8  1  0
  8  9  1  0
  9  3  1  0
  9 10  2  0
 10 11  1  0
 11 12  2  0
 12  2  1  0
 11 13  1  0
 13 14  1  0
 14 15  1  0
 15 16  2  0
 15 17  1  0
 17 18  1  0
 18 19  1  0
 19 20  2  0
 20 21  1  0
 21 22  2  0
 22 23  1  0
 23 19  1  0
 23 24  1  0
 24 25  2  0
 25 26  1  0
 26 27  1  0
 27 22  1  0
 27 28  2  0
 17 29  1  0
M  END
$$$$
s_22____17548538____782382
     RDKit          3D

 31 34  0  0  0  0  0  0  0  0999 V2000
   -5.0718    3.1001    0.1023 O   0  0  0  0  0  0  0  0  0  0  0  0
   -5.6601    3.0836    1.1721 C   0  0  0  0  0  0  0  0  0  0  0  0
   -4.9958    2.6580    2.3307 N   0  0  0  0  0  0  0  0  0  0  0  0
   -3.6587    2.2429    2.2945 C   0  0  0  0  0  0  0  0  0  0  0  0
   -2.6380    3.1876    2.2770 C   0  0  0  0  0  0  0  0  0  0  0  0
   -1.3096    2.7756    2.2410 C   0  0  0  0  0  0  0  0  0  0  0  0
   -1.0215    1.4146    2.2230 C   0  0  0  0  0  0  0  0  0  0  0  0
    0.3150    1.0000    2.1865 N   0  0  0  0  0  0  0  0  0  0  0  0
    1.0000    1.0000    1.0000 C   0  0  0  0  0  0  0  0  0  0  0  0
    0.4000    1.0000   -0.0392 O   0  0  0  0  0  0  0  0  0  0  0  0
    2.5200    1.0000    1.0000 C   0  0  0  0  0  0  0  0  0  0  0  0
    3.0270   -0.4339    1.0000 C   0  0  0  0  0  0  0  0  0  0  0  0
    3.2678   -1.1152   -0.2239 C   0  0  0  0  0  0  0  0  0  0  0  0
    3.0601   -0.5315   -1.2516 O   0  0  0  0  0  0  0  0  0  0  0  0
    3.7242   -2.4093   -0.2388 N   0  0  0  0  0  0  0  0  0  0  0  0
    3.9999   -3.2200   -1.2409 N   0  0  0  0  0  0  0  0  0  0  0  0
    4.4062   -4.3873   -0.8157 C   0  0  0  0  0  0  0  0  0  0  0  0
    4.3786   -4.3010    0.5934 C   0  0  0  0  0  0  0  0  0  0  0  0
    4.7635   -5.4119    1.5568 C   0  0  0  0  0  0  0  0  0  0  0  0
    5.0522   -6.2451    2.2793 N   0  0  0  0  0  0  0  0  0  0  0  0
    3.9488   -3.0497    0.9310 C   0  0  0  0  0  0  0  0  0  0  0  0
    3.7199   -2.3975    2.1190 N   0  0  0  0  0  0  0  0  0  0  0  0
    3.2631   -1.1038    2.1736 C   0  0  0  0  0  0  0  0  0  0  0  0
    3.0138   -0.3962    3.4956 C   0  0  0  0  0  0  0  0  0  0  0  0
   -2.0425    0.4700    2.2407 C   0  0  0  0  0  0  0  0  0  0  0  0
   -3.3708    0.8818    2.2764 C   0  0  0  0  0  0  0  0  0  0  0  0
   -5.6962    2.6453    3.6239 C   0  0  0  0  0  0  0  0  0  0  0  0
   -6.7931    3.6972    3.6699 C   0  0  0  0  0  0  0  0  0  0  0  0
   -7.7276    3.4693    2.4923 C   0  0  0  0  0  0  0  0  0  0  0  0
   -6.9985    3.4955    1.2154 N   0  0  0  0  0  0  0  0  0  0  0  0
   -7.7066    3.9458    0.0081 C   0  0  0  0  0  0  0  0  0  0  0  0
  1  2  2  0
  2  3  1  0
  3  4  1  0
  4  5  2  0
  5  6  1  0
  6  7  2  0
  7  8  1  0
  8  9  1  0
  9 10  2  0
  9 11  1  0
 11 12  1  0
 12 13  1  0
 13 14  2  0
 13 15  1  0
 15 16  1  0
 16 17  2  0
 17 18  1  0
 18 19  1  0
 19 20  3  0
 18 21  2  0
 21 15  1  0
 21 22  1  0
 22 23  1  0
 12 23  2  0
 23 24  1  0
  7 25  1  0
 25 26  2  0
 26  4  1  0
  3 27  1  0
 27 28  1  0
 28 29  1  0
 29 30  1  0
 30  2  1  0
 30 31  1  0
M  END
$$$$
s_22____7639468____9598836
     RDKit          3D

 32 35  0  0  0  0  0  0  0  0999 V2000
   -6.7083    1.5454    4.2665 F   0  0  0  0  0  0  0  0  0  0  0  0
   -5.5144    1.4573    3.6901 C   0  0  0  0  0  0  0  0  0  0  0  0
   -5.0533    0.1957    3.3355 C   0  0  0  0  0  0  0  0  0  0  0  0
   -5.7813   -0.9161    3.5627 O   0  0  0  0  0  0  0  0  0  0  0  0
   -5.1363   -2.1758    3.6785 C   0  0  0  0  0  0  0  0  0  0  0  0
   -3.8090    0.0744    2.7313 C   0  0  0  0  0  0  0  0  0  0  0  0
   -3.0214    1.1927    2.4780 C   0  0  0  0  0  0  0  0  0  0  0  0
   -3.5018    2.4473    2.8399 C   0  0  0  0  0  0  0  0  0  0  0  0
   -2.7460    3.5651    2.6007 N   0  0  0  0  0  0  0  0  0  0  0  0
   -1.5132    3.4802    2.0062 C   0  0  0  0  0  0  0  0  0  0  0  0
   -0.9895    2.2706    1.6280 C   0  0  0  0  0  0  0  0  0  0  0  0
    0.3150    2.1865    1.0000 C   0  0  0  0  0  0  0  0  0  0  0  0
    0.7944    3.1561    0.4804 O   0  0  0  0  0  0  0  0  0  0  0  0
    1.0000    1.0000    1.0000 N   0  0  0  0  0  0  0  0  0  0  0  0
    2.3830    1.0000    1.0000 N   0  0  0  0  0  0  0  0  0  0  0  0
    3.0826   -0.0494    0.3941 C   0  0  0  0  0  0  0  0  0  0  0  0
    3.4368    0.0178   -0.9493 C   0  0  0  0  0  0  0  0  0  0  0  0
    3.1015    1.0948   -1.6525 F   0  0  0  0  0  0  0  0  0  0  0  0
    4.1316   -1.0209   -1.5589 C   0  0  0  0  0  0  0  0  0  0  0  0
    4.4675   -2.1334   -0.7953 C   0  0  0  0  0  0  0  0  0  0  0  0
    4.1251   -2.2240    0.5495 C   0  0  0  0  0  0  0  0  0  0  0  0
    3.4301   -1.1723    1.1367 C   0  0  0  0  0  0  0  0  0  0  0  0
    3.0960   -1.2438    2.4221 F   0  0  0  0  0  0  0  0  0  0  0  0
    5.1906   -3.2229   -1.4195 C   0  0  0  0  0  0  0  0  0  0  0  0
    4.5925   -4.0799   -2.0093 O   0  0  0  0  0  0  0  0  0  0  0  0
    6.5571   -3.2746   -1.3364 N   0  0  0  0  0  0  0  0  0  0  0  0
    7.2899   -4.3786   -1.9690 C   0  0  0  0  0  0  0  0  0  0  0  0
    8.0821   -5.1636   -0.9637 C   0  0  0  0  0  0  0  0  0  0  0  0
    8.7770   -4.1928   -1.8753 C   0  0  0  0  0  0  0  0  0  0  0  0
   -1.7442    1.0893    1.8605 C   0  0  0  0  0  0  0  0  0  0  0  0
   -1.2680    0.0161    1.5198 O   0  0  0  0  0  0  0  0  0  0  0  0
   -4.7458    2.5908    3.4459 C   0  0  0  0  0  0  0  0  0  0  0  0
  1  2  1  0
  2  3  2  0
  3  4  1  0
  4  5  1  0
  3  6  1  0
  6  7  2  0
  7  8  1  0
  8  9  1  0
  9 10  1  0
 10 11  2  0
 11 12  1  0
 12 13  2  0
 12 14  1  0
 14 15  1  0
 15 16  1  0
 16 17  2  0
 17 18  1  0
 17 19  1  0
 19 20  2  0
 20 21  1  0
 21 22  2  0
 22 16  1  0
 22 23  1  0
 20 24  1  0
 24 25  2  0
 24 26  1  0
 26 27  1  0
 27 28  1  0
 28 29  1  0
 29 27  1  0
 11 30  1  0
 30  7  1  0
 30 31  2  0
  8 32  2  0
 32  2  1  0
M  END
$$$$
s_274090____12937272____13143872
     RDKit          3D

 31 34  0  0  0  0  0  0  0  0999 V2000
   -0.9024    2.7054   -4.3269 O   0  0  0  0  0  0  0  0  0  0  0  0
   -2.0942    2.9365   -4.4401 C   0  0  0  0  0  0  0  0  0  0  0  0
   -2.8464    3.7887   -3.6375 N   0  0  0  0  0  0  0  0  0  0  0  0
   -2.3457    4.5201   -2.5536 C   0  0  0  0  0  0  0  0  0  0  0  0
   -1.8560    3.8524   -1.4360 C   0  0  0  0  0  0  0  0  0  0  0  0
   -1.3631    4.5967   -0.3691 C   0  0  0  0  0  0  0  0  0  0  0  0
   -0.8701    3.9255    0.7557 N   0  0  0  0  0  0  0  0  0  0  0  0
    0.4329    4.1003    1.1412 C   0  0  0  0  0  0  0  0  0  0  0  0
    1.2400    4.5166    0.3568 O   0  0  0  0  0  0  0  0  0  0  0  0
    0.8561    3.7670    2.5625 C   0  0  0  0  0  0  0  0  0  0  0  0
    2.0497    2.9093    2.5300 N   0  0  0  0  0  0  0  0  0  0  0  0
    3.2914    3.3277    2.5307 N   0  0  0  0  0  0  0  0  0  0  0  0
    4.0983    2.3562    2.5000 N   0  0  0  0  0  0  0  0  0  0  0  0
    3.3635    1.2089    2.4777 C   0  0  0  0  0  0  0  0  0  0  0  0
    2.0481    1.5507    2.4963 C   0  0  0  0  0  0  0  0  0  0  0  0
    3.9166   -0.2057    2.4415 C   0  0  0  0  0  0  0  0  0  0  0  0
    4.1033   -0.6942    3.8153 N   0  0  0  0  0  0  0  0  0  0  0  0
    4.5952   -1.9541    4.0335 C   0  0  0  0  0  0  0  0  0  0  0  0
    4.8736   -2.6589    3.1031 O   0  0  0  0  0  0  0  0  0  0  0  0
    4.7788   -2.4346    5.3850 C   0  0  0  0  0  0  0  0  0  0  0  0
    3.8098   -2.5723    6.3339 N   0  0  0  0  0  0  0  0  0  0  0  0
    4.3374   -3.0294    7.4503 N   0  0  0  0  0  0  0  0  0  0  0  0
    5.6287   -3.2186    7.2935 C   0  0  0  0  0  0  0  0  0  0  0  0
    5.9428   -2.8411    5.9689 C   0  0  0  0  0  0  0  0  0  0  0  0
    2.3905   -2.2494    6.1229 C   0  0  0  0  0  0  0  0  0  0  0  0
   -1.3531    5.9870   -0.4073 C   0  0  0  0  0  0  0  0  0  0  0  0
   -1.8480    6.6334   -1.5349 C   0  0  0  0  0  0  0  0  0  0  0  0
   -2.3459    5.9100   -2.6131 C   0  0  0  0  0  0  0  0  0  0  0  0
   -4.2372    3.8144   -4.0932 C   0  0  0  0  0  0  0  0  0  0  0  0
   -4.1162    3.4087   -5.5464 C   0  0  0  0  0  0  0  0  0  0  0  0
   -3.0255    2.3589   -5.4862 C   0  0  0  0  0  0  0  0  0  0  0  0
  1  2  2  0
  2  3  1  0
  3  4  1  0
  4  5  2  0
  5  6  1  0
  6  7  1  0
  7  8  1  0
  8  9  2  0
  8 10  1  0
 10 11  1  0
 11 12  1  0
 12 13  2  0
 13 14  1  0
 14 15  2  0
 15 11  1  0
 14 16  1  0
 16 17  1  0
 17 18  1  0
 18 19  2  0
 18 20  1  0
 20 21  1  0
 21 22  1  0
 22 23  2  0
 23 24  1  0
 20 24  2  0
 21 25  1  0
  6 26  2  0
 26 27  1  0
 27 28  2  0
 28  4  1  0
  3 29  1  0
 29 30  1  0
 30 31  1  0
 31  2  1  0
M  END
$$$$
s_22____4786910____17596044
     RDKit          3D

 29 32  0  0  0  0  0  0  0  0999 V2000
    2.8869   -3.6364    0.0616 F   0  0  0  0  0  0  0  0  0  0  0  0
    3.3151   -2.3850   -0.0689 C   0  0  0  0  0  0  0  0  0  0  0  0
    4.4604   -2.1157   -0.8099 C   0  0  0  0  0  0  0  0  0  0  0  0
    5.1563   -3.1675   -1.4154 N   0  0  0  0  0  0  0  0  0  0  0  0
    5.8089   -4.1894   -0.7329 C   0  0  0  0  0  0  0  0  0  0  0  0
    5.8774   -4.3182    0.4777 O   0  0  0  0  0  0  0  0  0  0  0  0
    6.4277   -5.1045   -1.7697 C   0  0  0  0  0  0  0  0  0  0  0  0
    6.5702   -4.1768   -2.9590 C   0  0  0  0  0  0  0  0  0  0  0  0
    5.3071   -3.3489   -2.8600 C   0  0  0  0  0  0  0  0  0  0  0  0
    4.9098   -0.8065   -0.9476 C   0  0  0  0  0  0  0  0  0  0  0  0
    4.2136    0.2353   -0.3438 C   0  0  0  0  0  0  0  0  0  0  0  0
    3.0698   -0.0498    0.3939 C   0  0  0  0  0  0  0  0  0  0  0  0
    2.3700    1.0000    1.0000 N   0  0  0  0  0  0  0  0  0  0  0  0
    1.0000    1.0000    1.0000 C   0  0  0  0  0  0  0  0  0  0  0  0
    0.4000   -0.0392    1.0000 O   0  0  0  0  0  0  0  0  0  0  0  0
    0.2747    2.2562    1.0000 C   0  0  0  0  0  0  0  0  0  0  0  0
   -0.5664    2.5575   -0.0008 N   0  0  0  0  0  0  0  0  0  0  0  0
   -1.2467    3.7136   -0.0206 C   0  0  0  0  0  0  0  0  0  0  0  0
   -1.0938    4.5987    0.9749 N   0  0  0  0  0  0  0  0  0  0  0  0
   -0.2678    4.3503    2.0006 C   0  0  0  0  0  0  0  0  0  0  0  0
    0.4484    3.1597    2.0435 C   0  0  0  0  0  0  0  0  0  0  0  0
    1.3859    2.8779    3.2065 C   0  0  0  0  0  0  0  0  0  0  0  0
   -2.1553    4.0352   -1.1063 C   0  0  0  0  0  0  0  0  0  0  0  0
   -2.8619    5.1355   -1.2140 N   0  0  0  0  0  0  0  0  0  0  0  0
   -3.5677    5.0763   -2.3184 N   0  0  0  0  0  0  0  0  0  0  0  0
   -3.3305    3.9043   -2.9717 C   0  0  0  0  0  0  0  0  0  0  0  0
   -2.4298    3.2150   -2.2194 C   0  0  0  0  0  0  0  0  0  0  0  0
   -4.4855    6.1231   -2.7897 C   0  0  0  0  0  0  0  0  0  0  0  0
    2.6082   -1.3535    0.5401 C   0  0  0  0  0  0  0  0  0  0  0  0
  1  2  1  0
  2  3  2  0
  3  4  1  0
  4  5  1  0
  5  6  2  0
  5  7  1  0
  7  8  1  0
  8  9  1  0
  9  4  1  0
  3 10  1  0
 10 11  2  0
 11 12  1  0
 12 13  1  0
 13 14  1  0
 14 15  2  0
 14 16  1  0
 16 17  2  0
 17 18  1  0
 18 19  2  0
 19 20  1  0
 20 21  2  0
 21 16  1  0
 21 22  1  0
 18 23  1  0
 23 24  2  0
 24 25  1  0
 25 26  1  0
 26 27  2  0
 27 23  1  0
 25 28  1  0
 12 29  2  0
 29  2  1  0
M  END
$$$$
s_22____15754276____13455094
     RDKit          3D

 31 33  0  0  0  0  0  0  0  0999 V2000
   -0.8533    1.3084   -1.5292 Br  0  0  0  0  0  0  0  0  0  0  0  0
   -1.8127    0.4346   -0.0600 C   0  0  0  0  0  0  0  0  0  0  0  0
   -1.1352   -0.1863    0.9841 C   0  0  0  0  0  0  0  0  0  0  0  0
   -1.8225   -0.7753    1.9734 N   0  0  0  0  0  0  0  0  0  0  0  0
   -3.1631   -0.7784    1.9809 C   0  0  0  0  0  0  0  0  0  0  0  0
   -3.8412   -0.1863    0.9861 N   0  0  0  0  0  0  0  0  0  0  0  0
   -3.2031    0.4164   -0.0271 C   0  0  0  0  0  0  0  0  0  0  0  0
   -3.8767   -1.3941    3.0157 N   0  0  0  0  0  0  0  0  0  0  0  0
   -3.1564   -2.0504    4.1163 C   0  0  0  0  0  0  0  0  0  0  0  0
   -2.9063   -1.0430    5.2315 C   0  0  0  0  0  0  0  0  0  0  0  0
   -3.7040   -0.7962    6.2458 O   0  0  0  0  0  0  0  0  0  0  0  0
   -3.1902    0.1307    7.0249 C   0  0  0  0  0  0  0  0  0  0  0  0
   -1.9968    0.5149    6.4915 C   0  0  0  0  0  0  0  0  0  0  0  0
   -1.8052   -0.2482    5.3164 C   0  0  0  0  0  0  0  0  0  0  0  0
    0.3150   -0.1863    0.9841 C   0  0  0  0  0  0  0  0  0  0  0  0
    0.9150   -1.2255    0.9703 O   0  0  0  0  0  0  0  0  0  0  0  0
    1.0000    1.0000    1.0000 N   0  0  0  0  0  0  0  0  0  0  0  0
    2.4004    1.0000    1.0000 C   0  0  0  0  0  0  0  0  0  0  0  0
    3.0875   -0.2094    0.9838 C   0  0  0  0  0  0  0  0  0  0  0  0
    4.4784   -0.1962    0.9842 C   0  0  0  0  0  0  0  0  0  0  0  0
    5.3425   -1.7524    0.9636 Cl  0  0  0  0  0  0  0  0  0  0  0  0
    5.1724    1.0101    1.0004 C   0  0  0  0  0  0  0  0  0  0  0  0
    4.4748    2.2139    1.0171 C   0  0  0  0  0  0  0  0  0  0  0  0
    3.0839    2.2117    1.0169 C   0  0  0  0  0  0  0  0  0  0  0  0
    6.6224    1.0124    1.0015 C   0  0  0  0  0  0  0  0  0  0  0  0
    7.2240   -0.0258    0.9885 O   0  0  0  0  0  0  0  0  0  0  0  0
    7.2755    2.1478    1.0168 O   0  0  0  0  0  0  0  0  0  0  0  0
    8.6955    2.1501    1.0179 C   0  0  0  0  0  0  0  0  0  0  0  0
    9.2043    1.4506   -0.2320 C   0  0  0  0  0  0  0  0  0  0  0  0
    9.1999    3.5839    1.0369 C   0  0  0  0  0  0  0  0  0  0  0  0
    9.2024    1.4183    2.2500 C   0  0  0  0  0  0  0  0  0  0  0  0
  1  2  1  0
  2  3  2  0
  3  4  1  0
  4  5  2  0
  5  6  1  0
  6  7  2  0
  7  2  1  0
  5  8  1  0
  8  9  1  0
  9 10  1  0
 10 11  1  0
 11 12  1  0
 12 13  2  0
 13 14  1  0
 10 14  2  0
  3 15  1  0
 15 16  2  0
 15 17  1  0
 17 18  1  0
 18 19  2  0
 19 20  1  0
 20 21  1  0
 20 22  2  0
 22 23  1  0
 23 24  2  0
 24 18  1  0
 22 25  1  0
 25 26  2  0
 25 27  1  0
 27 28  1  0
 28 29  1  0
 28 30  1  0
 28 31  1  0
M  END
$$$$
s_11a____4786906____9877408
     RDKit          3D

 29 32  0  0  0  0  0  0  0  0999 V2000
    2.8869   -3.6364    0.0616 F   0  0  0  0  0  0  0  0  0  0  0  0
    3.3151   -2.3850   -0.0689 C   0  0  0  0  0  0  0  0  0  0  0  0
    4.4604   -2.1157   -0.8099 C   0  0  0  0  0  0  0  0  0  0  0  0
    5.1563   -3.1675   -1.4154 N   0  0  0  0  0  0  0  0  0  0  0  0
    5.8089   -4.1894   -0.7329 C   0  0  0  0  0  0  0  0  0  0  0  0
    5.8774   -4.3182    0.4777 O   0  0  0  0  0  0  0  0  0  0  0  0
    6.4277   -5.1045   -1.7697 C   0  0  0  0  0  0  0  0  0  0  0  0
    6.5702   -4.1768   -2.9590 C   0  0  0  0  0  0  0  0  0  0  0  0
    5.3071   -3.3489   -2.8600 C   0  0  0  0  0  0  0  0  0  0  0  0
    4.9098   -0.8065   -0.9476 C   0  0  0  0  0  0  0  0  0  0  0  0
    4.2136    0.2353   -0.3438 C   0  0  0  0  0  0  0  0  0  0  0  0
    3.0698   -0.0498    0.3939 C   0  0  0  0  0  0  0  0  0  0  0  0
    2.3700    1.0000    1.0000 N   0  0  0  0  0  0  0  0  0  0  0  0
    1.0000    1.0000    1.0000 C   0  0  0  0  0  0  0  0  0  0  0  0
    0.4000   -0.0392    1.0000 O   0  0  0  0  0  0  0  0  0  0  0  0
    0.2400    2.3164    1.0000 C   0  0  0  0  0  0  0  0  0  0  0  0
    0.2478    3.0137    1.9766 O   0  0  0  0  0  0  0  0  0  0  0  0
   -0.4947    2.7296   -0.1804 C   0  0  0  0  0  0  0  0  0  0  0  0
   -0.5181    1.9379   -1.3236 C   0  0  0  0  0  0  0  0  0  0  0  0
   -1.2344    2.3312   -2.4493 C   0  0  0  0  0  0  0  0  0  0  0  0
   -1.9344    3.5336   -2.4032 C   0  0  0  0  0  0  0  0  0  0  0  0
   -2.6865    3.9343   -3.5147 N   0  0  0  0  0  0  0  0  0  0  0  0
   -2.4523    3.3946   -4.7854 C   0  0  0  0  0  0  0  0  0  0  0  0
   -3.1036    3.8104   -5.7300 O   0  0  0  0  0  0  0  0  0  0  0  0
   -1.3885    2.3204   -4.9559 C   0  0  0  0  0  0  0  0  0  0  0  0
   -1.2556    1.4694   -3.7026 C   0  0  0  0  0  0  0  0  0  0  0  0
   -1.9119    4.3435   -1.2721 C   0  0  0  0  0  0  0  0  0  0  0  0
   -1.1887    3.9353   -0.1568 C   0  0  0  0  0  0  0  0  0  0  0  0
    2.6082   -1.3535    0.5401 C   0  0  0  0  0  0  0  0  0  0  0  0
  1  2  1  0
  2  3  2  0
  3  4  1  0
  4  5  1  0
  5  6  2  0
  5  7  1  0
  7  8  1  0
  8  9  1  0
  9  4  1  0
  3 10  1  0
 10 11  2  0
 11 12  1  0
 12 13  1  0
 13 14  1  0
 14 15  2  0
 14 16  1  0
 16 17  2  0
 16 18  1  0
 18 19  2  0
 19 20  1  0
 20 21  2  0
 21 22  1  0
 22 23  1  0
 23 24  2  0
 23 25  1  0
 25 26  1  0
 26 20  1  0
 21 27  1  0
 27 28  2  0
 28 18  1  0
 12 29  2  0
 29  2  1  0
M  END
$$$$
s_51____4786918____3487126
     RDKit          3D

 29 32  0  0  0  0  0  0  0  0999 V2000
    8.2165    5.0402    1.8425 F   0  0  0  0  0  0  0  0  0  0  0  0
    7.7696    4.5053    2.9742 C   0  0  0  0  0  0  0  0  0  0  0  0
    8.4292    4.7598    4.1716 C   0  0  0  0  0  0  0  0  0  0  0  0
    9.5623    5.5804    4.1768 N   0  0  0  0  0  0  0  0  0  0  0  0
   10.8224    5.2027    3.7236 C   0  0  0  0  0  0  0  0  0  0  0  0
   11.1273    4.1145    3.2658 O   0  0  0  0  0  0  0  0  0  0  0  0
   11.7472    6.3875    3.9147 C   0  0  0  0  0  0  0  0  0  0  0  0
   11.0520    7.1498    5.0242 C   0  0  0  0  0  0  0  0  0  0  0  0
    9.5940    6.9599    4.6650 C   0  0  0  0  0  0  0  0  0  0  0  0
    7.9627    4.2010    5.3569 C   0  0  0  0  0  0  0  0  0  0  0  0
    6.8353    3.3864    5.3457 C   0  0  0  0  0  0  0  0  0  0  0  0
    6.1864    3.1413    4.1406 C   0  0  0  0  0  0  0  0  0  0  0  0
    5.0515    2.3221    4.1315 N   0  0  0  0  0  0  0  0  0  0  0  0
    4.2252    2.2263    2.9221 C   0  0  0  0  0  0  0  0  0  0  0  0
    3.2014    1.1115    3.0465 C   0  0  0  0  0  0  0  0  0  0  0  0
    3.4403   -0.0186    3.4185 O   0  0  0  0  0  0  0  0  0  0  0  0
    1.9504    1.6004    2.6725 N   0  0  0  0  0  0  0  0  0  0  0  0
    0.7774    0.8321    2.5867 C   0  0  0  0  0  0  0  0  0  0  0  0
    0.4088    0.1873    1.4103 C   0  0  0  0  0  0  0  0  0  0  0  0
   -0.7148   -0.5428    1.3454 N   0  0  0  0  0  0  0  0  0  0  0  0
   -1.5242   -0.6799    2.4062 C   0  0  0  0  0  0  0  0  0  0  0  0
   -2.6542   -1.4150    2.3348 O   0  0  0  0  0  0  0  0  0  0  0  0
   -3.4924   -1.5410    3.4741 C   0  0  0  0  0  0  0  0  0  0  0  0
   -1.2125   -0.0600    3.6120 C   0  0  0  0  0  0  0  0  0  0  0  0
   -0.0509    0.7007    3.6968 C   0  0  0  0  0  0  0  0  0  0  0  0
    2.0275    2.9584    2.3870 C   0  0  0  0  0  0  0  0  0  0  0  0
    1.1159    3.6374    1.9619 O   0  0  0  0  0  0  0  0  0  0  0  0
    3.4143    3.4805    2.6821 C   0  0  0  0  0  0  0  0  0  0  0  0
    6.6408    3.6932    2.9476 C   0  0  0  0  0  0  0  0  0  0  0  0
  1  2  1  0
  2  3  2  0
  3  4  1  0
  4  5  1  0
  5  6  2  0
  5  7  1  0
  7  8  1  0
  8  9  1  0
  9  4  1  0
  3 10  1  0
 10 11  2  0
 11 12  1  0
 12 13  1  0
 13 14  1  0
 14 15  1  0
 15 16  2  0
 15 17  1  0
 17 18  1  0
 18 19  2  0
 19 20  1  0
 20 21  2  0
 21 22  1  0
 22 23  1  0
 21 24  1  0
 24 25  2  0
 25 18  1  0
 17 26  1  0
 26 27  2  0
 26 28  1  0
 28 14  1  0
 12 29  2  0
 29  2  1  0
M  END
$$$$
s_1____86339____236095____9982796
     RDKit          3D

 29 33  0  0  0  0  0  0  0  0999 V2000
   -4.0011    4.8609    1.0133 Cl  0  0  0  0  0  0  0  0  0  0  0  0
   -3.1626    3.2904    1.0173 C   0  0  0  0  0  0  0  0  0  0  0  0
   -3.8530    2.0816    1.0333 C   0  0  0  0  0  0  0  0  0  0  0  0
   -5.2063    2.1272    1.0432 O   0  0  0  0  0  0  0  0  0  0  0  0
   -6.0083    1.1588    0.3800 C   0  0  0  0  0  0  0  0  0  0  0  0
   -6.1717   -0.0875    1.2373 C   0  0  0  0  0  0  0  0  0  0  0  0
   -4.8733   -0.4758    1.9287 C   0  0  0  0  0  0  0  0  0  0  0  0
   -3.7402   -0.3287    1.0815 O   0  0  0  0  0  0  0  0  0  0  0  0
   -3.1432    0.8803    1.0379 C   0  0  0  0  0  0  0  0  0  0  0  0
   -1.7550    0.8707    1.0082 C   0  0  0  0  0  0  0  0  0  0  0  0
   -1.0751    2.0825    1.0023 C   0  0  0  0  0  0  0  0  0  0  0  0
   -1.7714    3.2868    1.0049 C   0  0  0  0  0  0  0  0  0  0  0  0
    0.3750    2.0825    1.0023 C   0  0  0  0  0  0  0  0  0  0  0  0
    1.0000    1.0000    1.0000 N   0  0  0  0  0  0  0  0  0  0  0  0
    2.3494    1.0000    1.0000 N   0  0  0  0  0  0  0  0  0  0  0  0
    3.0519    1.5802    2.0100 C   0  0  0  0  0  0  0  0  0  0  0  0
    4.6947    1.3521    1.6198 S   0  0  0  0  0  0  0  0  0  0  0  0
    4.4777    0.5183    0.1521 C   0  0  0  0  0  0  0  0  0  0  0  0
    3.1265    0.4390    0.0184 C   0  0  0  0  0  0  0  0  0  0  0  0
    2.6054   -0.2359   -1.1570 C   0  0  0  0  0  0  0  0  0  0  0  0
    1.2885   -0.3676   -1.3821 N   0  0  0  0  0  0  0  0  0  0  0  0
    0.8067   -0.9932   -2.4669 C   0  0  0  0  0  0  0  0  0  0  0  0
    1.6981   -1.5244   -3.3932 C   0  0  0  0  0  0  0  0  0  0  0  0
    3.0156   -1.3966   -3.1755 N   0  0  0  0  0  0  0  0  0  0  0  0
    3.4903   -0.7705   -2.0882 C   0  0  0  0  0  0  0  0  0  0  0  0
    2.5858    2.1723    3.0311 N   0  0  0  0  0  0  0  0  0  0  0  0
    3.4989    2.7478    4.0267 C   0  0  0  0  0  0  0  0  0  0  0  0
    2.8964    3.9461    4.7015 C   0  0  0  0  0  0  0  0  0  0  0  0
    3.9485    4.1288    3.6451 C   0  0  0  0  0  0  0  0  0  0  0  0
  1  2  1  0
  2  3  2  0
  3  4  1  0
  4  5  1  0
  5  6  1  0
  6  7  1  0
  7  8  1  0
  8  9  1  0
  9  3  1  0
  9 10  2  0
 10 11  1  0
 11 12  2  0
 12  2  1  0
 11 13  1  0
 13 14  2  0
 14 15  1  0
 15 16  1  0
 16 17  1  0
 17 18  1  0
 18 19  2  0
 19 15  1  0
 19 20  1  0
 20 21  2  0
 21 22  1  0
 22 23  2  0
 23 24  1  0
 24 25  2  0
 25 20  1  0
 16 26  2  0
 26 27  1  0
 27 28  1  0
 28 29  1  0
 29 27  1  0
M  END
$$$$
s_22____1041906____3218514
     RDKit          3D

 31 34  0  0  0  0  0  0  0  0999 V2000
   -2.3267    3.7157    4.7817 F   0  0  0  0  0  0  0  0  0  0  0  0
   -2.5230    4.1180    3.5296 C   0  0  0  0  0  0  0  0  0  0  0  0
   -1.5300    3.9073    2.5785 C   0  0  0  0  0  0  0  0  0  0  0  0
   -0.3339    3.2760    2.9413 N   0  0  0  0  0  0  0  0  0  0  0  0
    0.8652    3.7847    2.5168 C   0  0  0  0  0  0  0  0  0  0  0  0
    0.9386    4.9269    2.1561 O   0  0  0  0  0  0  0  0  0  0  0  0
    2.0470    2.9421    2.5033 C   0  0  0  0  0  0  0  0  0  0  0  0
    3.2893    3.3423    2.4844 N   0  0  0  0  0  0  0  0  0  0  0  0
    4.1105    2.3204    2.4788 N   0  0  0  0  0  0  0  0  0  0  0  0
    5.5079    2.4065    2.4603 C   0  0  0  0  0  0  0  0  0  0  0  0
    6.2696    1.2423    2.4561 C   0  0  0  0  0  0  0  0  0  0  0  0
    7.6576    1.3319    2.4375 C   0  0  0  0  0  0  0  0  0  0  0  0
    8.2738    2.5786    2.4233 C   0  0  0  0  0  0  0  0  0  0  0  0
    7.5023    3.7359    2.4270 C   0  0  0  0  0  0  0  0  0  0  0  0
    6.1136    3.6586    2.4458 C   0  0  0  0  0  0  0  0  0  0  0  0
    3.3925    1.1642    2.4952 C   0  0  0  0  0  0  0  0  0  0  0  0
    2.0827    1.5324    2.5090 C   0  0  0  0  0  0  0  0  0  0  0  0
    1.0157    0.7034    2.5284 O   0  0  0  0  0  0  0  0  0  0  0  0
    0.5683    0.0938    1.3264 C   0  0  0  0  0  0  0  0  0  0  0  0
   -0.6372   -0.7837    1.6216 C   0  0  0  0  0  0  0  0  0  0  0  0
   -1.1161   -1.4362    0.3350 C   0  0  0  0  0  0  0  0  0  0  0  0
   -1.7127    4.3194    1.2634 C   0  0  0  0  0  0  0  0  0  0  0  0
   -2.9054    4.9452    0.9189 C   0  0  0  0  0  0  0  0  0  0  0  0
   -3.1052    5.3680   -0.4006 N   0  0  0  0  0  0  0  0  0  0  0  0
   -2.9356    6.6723   -0.8544 C   0  0  0  0  0  0  0  0  0  0  0  0
   -2.5983    7.6313   -0.1812 O   0  0  0  0  0  0  0  0  0  0  0  0
   -3.2585    6.6834   -2.3346 C   0  0  0  0  0  0  0  0  0  0  0  0
   -4.1681    5.4786   -2.4643 C   0  0  0  0  0  0  0  0  0  0  0  0
   -3.5280    4.5014   -1.5019 C   0  0  0  0  0  0  0  0  0  0  0  0
   -3.9023    5.1587    1.8644 C   0  0  0  0  0  0  0  0  0  0  0  0
   -3.7144    4.7445    3.1788 C   0  0  0  0  0  0  0  0  0  0  0  0
  1  2  1  0
  2  3  2  0
  3  4  1  0
  4  5  1  0
  5  6  2  0
  5  7  1  0
  7  8  2  0
  8  9  1  0
  9 10  1  0
 10 11  2  0
 11 12  1  0
 12 13  2  0
 13 14  1  0
 14 15  2  0
 15 10  1  0
  9 16  1  0
 16 17  2  0
 17  7  1  0
 17 18  1  0
 18 19  1  0
 19 20  1  0
 20 21  1  0
  3 22  1  0
 22 23  2  0
 23 24  1  0
 24 25  1  0
 25 26  2  0
 25 27  1  0
 27 28  1  0
 28 29  1  0
 29 24  1  0
 23 30  1  0
 30 31  2  0
 31  2  1  0
M  END
$$$$
s_22____7639468____13179878
     RDKit          3D

 29 32  0  0  0  0  0  0  0  0999 V2000
    2.4367   -1.1998    1.8109 F   0  0  0  0  0  0  0  0  0  0  0  0
    3.1076   -0.1232    1.4141 C   0  0  0  0  0  0  0  0  0  0  0  0
    2.3992    1.0000    1.0000 C   0  0  0  0  0  0  0  0  0  0  0  0
    1.0000    1.0000    1.0000 N   0  0  0  0  0  0  0  0  0  0  0  0
    0.3085    2.1977    0.9950 N   0  0  0  0  0  0  0  0  0  0  0  0
   -1.0265    2.2192    1.3020 C   0  0  0  0  0  0  0  0  0  0  0  0
   -1.5958    1.1988    1.5752 O   0  0  0  0  0  0  0  0  0  0  0  0
   -1.7528    3.4772    1.2967 C   0  0  0  0  0  0  0  0  0  0  0  0
   -1.4596    4.5505    2.0812 N   0  0  0  0  0  0  0  0  0  0  0  0
   -2.3039    5.4404    1.7934 N   0  0  0  0  0  0  0  0  0  0  0  0
   -3.1722    5.0728    0.8611 N   0  0  0  0  0  0  0  0  0  0  0  0
   -2.8292    3.8040    0.5248 C   0  0  0  0  0  0  0  0  0  0  0  0
   -3.5916    3.1333   -0.4748 C   0  0  0  0  0  0  0  0  0  0  0  0
   -3.3398    1.9932   -0.8340 O   0  0  0  0  0  0  0  0  0  0  0  0
   -4.6503    3.7584   -1.0784 N   0  0  0  0  0  0  0  0  0  0  0  0
   -4.9981    5.0406   -0.7288 C   0  0  0  0  0  0  0  0  0  0  0  0
   -4.2447    5.6677    0.2371 C   0  0  0  0  0  0  0  0  0  0  0  0
   -6.1862    5.7167   -1.4057 C   0  0  0  0  0  0  0  0  0  0  0  0
    3.0936    2.1300    0.5829 C   0  0  0  0  0  0  0  0  0  0  0  0
    2.4236    3.2076    0.1845 F   0  0  0  0  0  0  0  0  0  0  0  0
    4.4841    2.1464    0.5773 C   0  0  0  0  0  0  0  0  0  0  0  0
    5.1697    1.0114    0.9963 C   0  0  0  0  0  0  0  0  0  0  0  0
    4.4980   -0.1310    1.4176 C   0  0  0  0  0  0  0  0  0  0  0  0
    6.6186    1.0158    0.9963 C   0  0  0  0  0  0  0  0  0  0  0  0
    7.2210    0.0427    1.3571 O   0  0  0  0  0  0  0  0  0  0  0  0
    7.3009    2.1307    0.5859 N   0  0  0  0  0  0  0  0  0  0  0  0
    8.7693    2.1348    0.5875 C   0  0  0  0  0  0  0  0  0  0  0  0
    9.3177    3.2102    1.4803 C   0  0  0  0  0  0  0  0  0  0  0  0
    9.3284    3.3937   -0.0105 C   0  0  0  0  0  0  0  0  0  0  0  0
  1  2  1  0
  2  3  2  0
  3  4  1  0
  4  5  1  0
  5  6  1  0
  6  7  2  0
  6  8  1  0
  8  9  1  0
  9 10  2  0
 10 11  1  0
 11 12  1  0
  8 12  2  0
 12 13  1  0
 13 14  2  0
 13 15  1  0
 15 16  1  0
 16 17  2  0
 17 11  1  0
 16 18  1  0
  3 19  1  0
 19 20  1  0
 19 21  2  0
 21 22  1  0
 22 23  2  0
 23  2  1  0
 22 24  1  0
 24 25  2  0
 24 26  1  0
 26 27  1  0
 27 28  1  0
 28 29  1  0
 29 27  1  0
M  END
$$$$
s_22____14942836____6742582
     RDKit          3D

 30 33  0  0  0  0  0  0  0  0999 V2000
    4.4914   -4.5065    5.9257 Br  0  0  0  0  0  0  0  0  0  0  0  0
    4.1220   -4.1272    4.0382 C   0  0  0  0  0  0  0  0  0  0  0  0
    4.2050   -5.1140    3.0598 C   0  0  0  0  0  0  0  0  0  0  0  0
    4.5492   -6.3668    3.4414 O   0  0  0  0  0  0  0  0  0  0  0  0
    4.0266   -7.5322    2.8138 C   0  0  0  0  0  0  0  0  0  0  0  0
    4.7839   -7.8517    1.5325 C   0  0  0  0  0  0  0  0  0  0  0  0
    5.0980   -6.5970    0.7296 C   0  0  0  0  0  0  0  0  0  0  0  0
    4.0173   -5.6723    0.7171 O   0  0  0  0  0  0  0  0  0  0  0  0
    3.9328   -4.7837    1.7313 C   0  0  0  0  0  0  0  0  0  0  0  0
    3.5645   -3.4909    1.3809 C   0  0  0  0  0  0  0  0  0  0  0  0
    3.4943   -2.5117    2.3655 C   0  0  0  0  0  0  0  0  0  0  0  0
    3.1535   -1.1997    2.0170 N   0  0  0  0  0  0  0  0  0  0  0  0
    3.9322   -0.1546    2.4392 C   0  0  0  0  0  0  0  0  0  0  0  0
    5.0648   -0.3511    2.7837 O   0  0  0  0  0  0  0  0  0  0  0  0
    3.3877    1.1894    2.4697 C   0  0  0  0  0  0  0  0  0  0  0  0
    4.1176    2.3377    2.4884 N   0  0  0  0  0  0  0  0  0  0  0  0
    3.2730    3.3414    2.5117 N   0  0  0  0  0  0  0  0  0  0  0  0
    2.0358    2.9153    2.5097 C   0  0  0  0  0  0  0  0  0  0  0  0
    0.8466    3.7444    2.5274 C   0  0  0  0  0  0  0  0  0  0  0  0
   -0.4053    3.1389    2.5226 C   0  0  0  0  0  0  0  0  0  0  0  0
   -1.5388    3.9443    2.5396 C   0  0  0  0  0  0  0  0  0  0  0  0
   -2.7617    3.3734    2.5346 O   0  0  0  0  0  0  0  0  0  0  0  0
   -2.8849    1.9590    2.5123 C   0  0  0  0  0  0  0  0  0  0  0  0
   -1.4182    5.3296    2.5615 C   0  0  0  0  0  0  0  0  0  0  0  0
   -2.5300    6.0956    2.5783 O   0  0  0  0  0  0  0  0  0  0  0  0
   -2.4168    7.5109    2.6006 C   0  0  0  0  0  0  0  0  0  0  0  0
   -0.1638    5.9309    2.5664 C   0  0  0  0  0  0  0  0  0  0  0  0
    0.9727    5.1292    2.5495 C   0  0  0  0  0  0  0  0  0  0  0  0
    2.0666    1.5070    2.4823 C   0  0  0  0  0  0  0  0  0  0  0  0
    3.7700   -2.8273    3.6917 C   0  0  0  0  0  0  0  0  0  0  0  0
  1  2  1  0
  2  3  2  0
  3  4  1  0
  4  5  1  0
  5  6  1  0
  6  7  1  0
  7  8  1  0
  8  9  1  0
  9  3  1  0
  9 10  2  0
 10 11  1  0
 11 12  1  0
 12 13  1  0
 13 14  2  0
 13 15  1  0
 15 16  1  0
 16 17  1  0
 17 18  2  0
 18 19  1  0
 19 20  2  0
 20 21  1  0
 21 22  1  0
 22 23  1  0
 21 24  2  0
 24 25  1  0
 25 26  1  0
 24 27  1  0
 27 28  2  0
 28 19  1  0
 18 29  1  0
 15 29  2  0
 11 30  2  0
 30  2  1  0
M  END
$$$$
s_527a____10178188____736122
     RDKit          3D

 28 30  0  0  0  0  0  0  0  0999 V2000
    6.2850    3.7267    3.4767 O   0  0  0  0  0  0  0  0  0  0  0  0
    5.6230    3.6528    2.4786 C   0  0  0  0  0  0  0  0  0  0  0  0
    6.0417    4.2737    1.3314 N   0  0  0  0  0  0  0  0  0  0  0  0
    6.9385    5.4358    1.4100 C   0  0  0  0  0  0  0  0  0  0  0  0
    6.1122    6.7087    1.4949 C   0  0  0  0  0  0  0  0  0  0  0  0
    5.5940    3.7779    0.0219 C   0  0  0  0  0  0  0  0  0  0  0  0
    4.3800    2.9062    2.4867 C   0  0  0  0  0  0  0  0  0  0  0  0
    3.1728    3.5972    2.5008 C   0  0  0  0  0  0  0  0  0  0  0  0
    1.9830    2.8768    2.5101 C   0  0  0  0  0  0  0  0  0  0  0  0
    0.7615    3.5615    2.5249 N   0  0  0  0  0  0  0  0  0  0  0  0
    0.4438    4.4177    1.5037 C   0  0  0  0  0  0  0  0  0  0  0  0
    0.8679    4.2177    0.3991 O   0  0  0  0  0  0  0  0  0  0  0  0
   -0.4054    5.5660    1.7577 C   0  0  0  0  0  0  0  0  0  0  0  0
   -1.2427    5.5912    2.9057 C   0  0  0  0  0  0  0  0  0  0  0  0
   -1.2248    4.6296    3.6601 O   0  0  0  0  0  0  0  0  0  0  0  0
   -2.0702    6.7247    3.1413 C   0  0  0  0  0  0  0  0  0  0  0  0
   -2.0391    7.7832    2.2386 C   0  0  0  0  0  0  0  0  0  0  0  0
   -1.2188    7.7248    1.1416 N   0  0  0  0  0  0  0  0  0  0  0  0
   -0.4167    6.6385    0.9034 C   0  0  0  0  0  0  0  0  0  0  0  0
   -2.8323    8.9093    2.4322 C   0  0  0  0  0  0  0  0  0  0  0  0
   -3.6617    8.9620    3.5475 C   0  0  0  0  0  0  0  0  0  0  0  0
   -4.4432   10.0370    3.7660 O   0  0  0  0  0  0  0  0  0  0  0  0
   -5.8383    9.8705    3.9717 C   0  0  0  0  0  0  0  0  0  0  0  0
   -3.7176    7.9226    4.4677 C   0  0  0  0  0  0  0  0  0  0  0  0
   -2.9132    6.8113    4.2466 C   0  0  0  0  0  0  0  0  0  0  0  0
    1.9867    1.4860    2.5051 C   0  0  0  0  0  0  0  0  0  0  0  0
    3.2053    0.8159    2.4905 C   0  0  0  0  0  0  0  0  0  0  0  0
    4.4072    1.5158    2.4809 C   0  0  0  0  0  0  0  0  0  0  0  0
  1  2  2  0
  2  3  1  0
  3  4  1  0
  4  5  1  0
  3  6  1  0
  2  7  1  0
  7  8  2  0
  8  9  1  0
  9 10  1  0
 10 11  1  0
 11 12  2  0
 11 13  1  0
 13 14  1  0
 14 15  2  0
 14 16  1  0
 16 17  2  0
 17 18  1  0
 18 19  1  0
 13 19  2  0
 17 20  1  0
 20 21  2  0
 21 22  1  0
 22 23  1  0
 21 24  1  0
 24 25  2  0
 25 16  1  0
  9 26  2  0
 26 27  1  0
 27 28  2  0
 28  7  1  0
M  END
$$$$
s_22____651700____6402696
     RDKit          3D

 31 33  0  0  0  0  0  0  0  0999 V2000
    0.4076    3.7203    2.5266 Cl  0  0  0  0  0  0  0  0  0  0  0  0
    1.9772    2.8805    2.5094 C   0  0  0  0  0  0  0  0  0  0  0  0
    3.1726    3.5933    2.5023 C   0  0  0  0  0  0  0  0  0  0  0  0
    4.3872    2.9145    2.4880 C   0  0  0  0  0  0  0  0  0  0  0  0
    4.4066    1.5238    2.4817 C   0  0  0  0  0  0  0  0  0  0  0  0
    3.2056    0.8214    2.4895 C   0  0  0  0  0  0  0  0  0  0  0  0
    3.2274   -0.5788    2.4829 N   0  0  0  0  0  0  0  0  0  0  0  0
    2.3359   -1.2813    3.2501 C   0  0  0  0  0  0  0  0  0  0  0  0
    1.9286   -0.8130    4.2771 O   0  0  0  0  0  0  0  0  0  0  0  0
    1.8843   -2.5912    2.8209 C   0  0  0  0  0  0  0  0  0  0  0  0
    1.0024   -3.3770    3.5021 N   0  0  0  0  0  0  0  0  0  0  0  0
    0.8313   -4.4825    2.8141 N   0  0  0  0  0  0  0  0  0  0  0  0
   -0.0065   -5.5448    3.1928 C   0  0  0  0  0  0  0  0  0  0  0  0
   -0.1239   -6.6444    2.4268 N   0  0  0  0  0  0  0  0  0  0  0  0
   -0.9160   -7.6815    2.7511 C   0  0  0  0  0  0  0  0  0  0  0  0
   -1.6414   -7.6018    3.9356 C   0  0  0  0  0  0  0  0  0  0  0  0
   -1.5331   -6.4728    4.7429 C   0  0  0  0  0  0  0  0  0  0  0  0
   -0.7157   -5.4859    4.3347 N   0  0  0  0  0  0  0  0  0  0  0  0
   -2.3364   -6.4074    6.0375 C   0  0  0  0  0  0  0  0  0  0  0  0
   -1.0492   -8.9268    1.8822 C   0  0  0  0  0  0  0  0  0  0  0  0
    1.5883   -4.4468    1.6820 C   0  0  0  0  0  0  0  0  0  0  0  0
    1.6564   -5.3179    0.8301 O   0  0  0  0  0  0  0  0  0  0  0  0
    2.2790   -3.2173    1.6780 C   0  0  0  0  0  0  0  0  0  0  0  0
    1.9856    1.4896    2.5032 C   0  0  0  0  0  0  0  0  0  0  0  0
    3.1524    5.0431    2.5080 C   0  0  0  0  0  0  0  0  0  0  0  0
    3.1354    5.6470    1.4712 O   0  0  0  0  0  0  0  0  0  0  0  0
    3.1526    5.7235    3.6971 N   0  0  0  0  0  0  0  0  0  0  0  0
    3.1322    7.1933    3.7029 C   0  0  0  0  0  0  0  0  0  0  0  0
    1.6922    7.6799    3.7167 C   0  0  0  0  0  0  0  0  0  0  0  0
    3.1734    4.9837    4.9672 C   0  0  0  0  0  0  0  0  0  0  0  0
    4.6134    4.7487    5.3932 C   0  0  0  0  0  0  0  0  0  0  0  0
  1  2  1  0
  2  3  2  0
  3  4  1  0
  4  5  2  0
  5  6  1  0
  6  7  1  0
  7  8  1  0
  8  9  2  0
  8 10  1  0
 10 11  1  0
 11 12  1  0
 12 13  1  0
 13 14  2  0
 14 15  1  0
 15 16  2  0
 16 17  1  0
 17 18  2  0
 18 13  1  0
 17 19  1  0
 15 20  1  0
 12 21  1  0
 21 22  2  0
 21 23  1  0
 10 23  2  0
  6 24  2  0
 24  2  1  0
  3 25  1  0
 25 26  2  0
 25 27  1  0
 27 28  1  0
 28 29  1  0
 27 30  1  0
 30 31  1  0
M  END
$$$$
s_11a____13038172____673990
     RDKit          3D

 32 34  0  0  0  0  0  0  0  0999 V2000
    6.9276    6.2794    2.0550 Cl  0  0  0  0  0  0  0  0  0  0  0  0
    5.5991    7.4608    2.1437 C   0  0  0  0  0  0  0  0  0  0  0  0
    4.2754    7.0804    1.9485 C   0  0  0  0  0  0  0  0  0  0  0  0
    3.3024    8.0001    2.0231 N   0  0  0  0  0  0  0  0  0  0  0  0
    3.5761    9.2873    2.2825 C   0  0  0  0  0  0  0  0  0  0  0  0
    4.8450    9.6778    2.4750 N   0  0  0  0  0  0  0  0  0  0  0  0
    5.8567    8.8002    2.4116 C   0  0  0  0  0  0  0  0  0  0  0  0
    2.5543   10.2403    2.3583 N   0  0  0  0  0  0  0  0  0  0  0  0
    2.8792   11.6452    2.6439 C   0  0  0  0  0  0  0  0  0  0  0  0
    3.1250   12.3857    1.3353 C   0  0  0  0  0  0  0  0  0  0  0  0
    2.2200   13.0111    0.6173 O   0  0  0  0  0  0  0  0  0  0  0  0
    2.7655   13.5437   -0.4547 C   0  0  0  0  0  0  0  0  0  0  0  0
    4.0954   13.2481   -0.4414 C   0  0  0  0  0  0  0  0  0  0  0  0
    4.3376   12.4887    0.7268 C   0  0  0  0  0  0  0  0  0  0  0  0
    3.9694    5.6912    1.6669 C   0  0  0  0  0  0  0  0  0  0  0  0
    4.4323    5.1598    0.6956 O   0  0  0  0  0  0  0  0  0  0  0  0
    3.1519    4.9853    2.5098 N   0  0  0  0  0  0  0  0  0  0  0  0
    3.1792    3.5864    2.5020 C   0  0  0  0  0  0  0  0  0  0  0  0
    1.9828    2.8757    2.5094 C   0  0  0  0  0  0  0  0  0  0  0  0
    0.4299    3.7470    2.5290 Cl  0  0  0  0  0  0  0  0  0  0  0  0
    1.9858    1.4848    2.5024 C   0  0  0  0  0  0  0  0  0  0  0  0
    3.2015    0.8092    2.4872 C   0  0  0  0  0  0  0  0  0  0  0  0
    4.3941    1.5247    2.4794 C   0  0  0  0  0  0  0  0  0  0  0  0
    4.3966    2.9151    2.4867 C   0  0  0  0  0  0  0  0  0  0  0  0
    5.6615    0.8207    2.4636 C   0  0  0  0  0  0  0  0  0  0  0  0
    6.6568    1.3849    2.1016 O   0  0  0  0  0  0  0  0  0  0  0  0
    5.7228   -0.4887    2.8620 N   0  0  0  0  0  0  0  0  0  0  0  0
    7.0077   -1.2025    2.8460 C   0  0  0  0  0  0  0  0  0  0  0  0
    6.8014   -2.6283    3.3308 C   0  0  0  0  0  0  0  0  0  0  0  0
    8.1300   -3.3663    3.3142 C   0  0  0  0  0  0  0  0  0  0  0  0
    6.2511   -2.6071    4.7475 C   0  0  0  0  0  0  0  0  0  0  0  0
    5.8166   -3.3371    2.4153 C   0  0  0  0  0  0  0  0  0  0  0  0
  1  2  1  0
  2  3  2  0
  3  4  1  0
  4  5  2  0
  5  6  1  0
  6  7  2  0
  7  2  1  0
  5  8  1  0
  8  9  1  0
  9 10  1  0
 10 11  1  0
 11 12  1  0
 12 13  2  0
 13 14  1  0
 10 14  2  0
  3 15  1  0
 15 16  2  0
 15 17  1  0
 17 18  1  0
 18 19  2  0
 19 20  1  0
 19 21  1  0
 21 22  2  0
 22 23  1  0
 23 24  2  0
 24 18  1  0
 23 25  1  0
 25 26  2  0
 25 27  1  0
 27 28  1  0
 28 29  1  0
 29 30  1  0
 29 31  1  0
 29 32  1  0
M  END
$$$$
s_22____8686200____2787412
     RDKit          3D

 30 32  0  0  0  0  0  0  0  0999 V2000
    5.1377    2.8215   -0.4852 F   0  0  0  0  0  0  0  0  0  0  0  0
    4.4672    1.9323    0.2405 C   0  0  0  0  0  0  0  0  0  0  0  0
    5.1691    1.0019    0.9988 C   0  0  0  0  0  0  0  0  0  0  0  0
    6.5181    1.0017    1.0002 O   0  0  0  0  0  0  0  0  0  0  0  0
    7.2271   -0.2285    0.9826 C   0  0  0  0  0  0  0  0  0  0  0  0
    7.3734   -0.7085   -0.4522 C   0  0  0  0  0  0  0  0  0  0  0  0
    8.6048   -0.0280    1.5927 C   0  0  0  0  0  0  0  0  0  0  0  0
    4.4696    0.0703    1.7576 C   0  0  0  0  0  0  0  0  0  0  0  0
    5.1393   -0.8200    2.4830 F   0  0  0  0  0  0  0  0  0  0  0  0
    3.0789    0.0598    1.7659 C   0  0  0  0  0  0  0  0  0  0  0  0
    2.3988    1.0000    1.0000 C   0  0  0  0  0  0  0  0  0  0  0  0
    1.0000    1.0000    1.0000 N   0  0  0  0  0  0  0  0  0  0  0  0
    0.3150   -0.1863    0.9830 C   0  0  0  0  0  0  0  0  0  0  0  0
    0.8607   -1.1890    0.6131 O   0  0  0  0  0  0  0  0  0  0  0  0
   -1.1362   -0.2325    1.4326 C   0  0  0  0  0  0  0  0  0  0  0  0
   -2.0447    0.0166    0.2392 C   0  0  0  0  0  0  0  0  0  0  0  0
   -2.5012   -1.0755   -0.5460 C   0  0  0  0  0  0  0  0  0  0  0  0
   -2.1780   -2.2000   -0.2795 O   0  0  0  0  0  0  0  0  0  0  0  0
   -3.3188   -0.8184   -1.6156 N   0  0  0  0  0  0  0  0  0  0  0  0
   -3.6932    0.4626   -1.9283 C   0  0  0  0  0  0  0  0  0  0  0  0
   -3.2653    1.4752   -1.1947 N   0  0  0  0  0  0  0  0  0  0  0  0
   -2.4458    1.2802   -0.1132 C   0  0  0  0  0  0  0  0  0  0  0  0
   -1.9741    2.4697    0.7072 C   0  0  0  0  0  0  0  0  0  0  0  0
   -4.5592    0.6744   -3.0718 C   0  0  0  0  0  0  0  0  0  0  0  0
   -4.9851   -0.3639   -3.8066 N   0  0  0  0  0  0  0  0  0  0  0  0
   -5.7865   -0.1860   -4.8668 C   0  0  0  0  0  0  0  0  0  0  0  0
   -6.1857    1.1004   -5.2141 C   0  0  0  0  0  0  0  0  0  0  0  0
   -5.7351    2.1641   -4.4397 C   0  0  0  0  0  0  0  0  0  0  0  0
   -4.9350    1.9221   -3.3909 N   0  0  0  0  0  0  0  0  0  0  0  0
    3.0771    1.9411    0.2331 C   0  0  0  0  0  0  0  0  0  0  0  0
  1  2  1  0
  2  3  2  0
  3  4  1  0
  4  5  1  0
  5  6  1  0
  5  7  1  0
  3  8  1  0
  8  9  1  0
  8 10  2  0
 10 11  1  0
 11 12  1  0
 12 13  1  0
 13 14  2  0
 13 15  1  0
 15 16  1  0
 16 17  1  0
 17 18  2  0
 17 19  1  0
 19 20  1  0
 20 21  2  0
 21 22  1  0
 16 22  2  0
 22 23  1  0
 20 24  1  0
 24 25  2  0
 25 26  1  0
 26 27  2  0
 27 28  1  0
 28 29  2  0
 29 24  1  0
 11 30  2  0
 30  2  1  0
M  END
$$$$
s_22____14942836____263080
     RDKit          3D

 28 31  0  0  0  0  0  0  0  0999 V2000
   -4.5194    4.1905    0.2128 Br  0  0  0  0  0  0  0  0  0  0  0  0
   -3.2598    3.0506    1.1889 C   0  0  0  0  0  0  0  0  0  0  0  0
   -3.6932    2.3012    2.2815 C   0  0  0  0  0  0  0  0  0  0  0  0
   -4.9365    2.2498    2.8017 O   0  0  0  0  0  0  0  0  0  0  0  0
   -5.1394    3.0149    3.9802 C   0  0  0  0  0  0  0  0  0  0  0  0
   -4.9211    2.1017    5.1749 C   0  0  0  0  0  0  0  0  0  0  0  0
   -3.5044    1.5437    5.1904 C   0  0  0  0  0  0  0  0  0  0  0  0
   -3.2798    0.8173    3.9923 O   0  0  0  0  0  0  0  0  0  0  0  0
   -2.7815    1.5041    2.9445 C   0  0  0  0  0  0  0  0  0  0  0  0
   -1.4575    1.4677    2.5157 C   0  0  0  0  0  0  0  0  0  0  0  0
   -1.0235    2.2185    1.4285 C   0  0  0  0  0  0  0  0  0  0  0  0
    0.3150    2.1864    1.0128 N   0  0  0  0  0  0  0  0  0  0  0  0
    1.0000    1.0000    1.0000 C   0  0  0  0  0  0  0  0  0  0  0  0
    0.4000   -0.0392    0.9888 O   0  0  0  0  0  0  0  0  0  0  0  0
    2.4509    1.0000    1.0000 C   0  0  0  0  0  0  0  0  0  0  0  0
    3.2610   -0.0560    1.2708 C   0  0  0  0  0  0  0  0  0  0  0  0
    4.5376    0.4067    1.1500 N   0  0  0  0  0  0  0  0  0  0  0  0
    4.5162    1.6771    0.8246 N   0  0  0  0  0  0  0  0  0  0  0  0
    3.2833    2.1049    0.7140 C   0  0  0  0  0  0  0  0  0  0  0  0
    5.6927   -0.3576    1.3434 C   0  0  0  0  0  0  0  0  0  0  0  0
    6.1372   -0.6612    2.5519 N   0  0  0  0  0  0  0  0  0  0  0  0
    7.2294   -1.3840    2.7379 N   0  0  0  0  0  0  0  0  0  0  0  0
    7.9720   -1.8658    1.6890 C   0  0  0  0  0  0  0  0  0  0  0  0
    8.9827   -2.5346    1.8602 O   0  0  0  0  0  0  0  0  0  0  0  0
    7.5337   -1.5655    0.3714 C   0  0  0  0  0  0  0  0  0  0  0  0
    6.3996   -0.8149    0.1991 C   0  0  0  0  0  0  0  0  0  0  0  0
    2.8494   -1.4740    1.6409 C   0  0  0  0  0  0  0  0  0  0  0  0
   -1.9381    3.0216    0.7552 C   0  0  0  0  0  0  0  0  0  0  0  0
  1  2  1  0
  2  3  2  0
  3  4  1  0
  4  5  1  0
  5  6  1  0
  6  7  1  0
  7  8  1  0
  8  9  1  0
  9  3  1  0
  9 10  2  0
 10 11  1  0
 11 12  1  0
 12 13  1  0
 13 14  2  0
 13 15  1  0
 15 16  2  0
 16 17  1  0
 17 18  1  0
 18 19  2  0
 19 15  1  0
 17 20  1  0
 20 21  2  0
 21 22  1  0
 22 23  1  0
 23 24  2  0
 23 25  1  0
 25 26  2  0
 26 20  1  0
 16 27  1  0
 11 28  2  0
 28  2  1  0
M  END
$$$$
s_22____4786910____138584
     RDKit          3D

 31 35  0  0  0  0  0  0  0  0999 V2000
    4.7227    0.5334   -1.5667 S   0  0  0  0  0  0  0  0  0  0  0  0
    5.8724   -0.2627   -1.2234 O   0  0  0  0  0  0  0  0  0  0  0  0
    4.8464    1.9352   -1.2615 O   0  0  0  0  0  0  0  0  0  0  0  0
    3.3750   -0.1617   -0.8978 N   0  0  0  0  0  0  0  0  0  0  0  0
    2.5233   -0.6421   -1.8689 C   0  0  0  0  0  0  0  0  0  0  0  0
    3.0036   -0.4106   -3.1401 C   0  0  0  0  0  0  0  0  0  0  0  0
    4.2138    0.2416   -3.1648 C   0  0  0  0  0  0  0  0  0  0  0  0
    4.8572    0.5701   -4.3486 C   0  0  0  0  0  0  0  0  0  0  0  0
    4.2318    0.2118   -5.5344 C   0  0  0  0  0  0  0  0  0  0  0  0
    3.0082   -0.4499   -5.5241 C   0  0  0  0  0  0  0  0  0  0  0  0
    2.3858   -0.7685   -4.3208 C   0  0  0  0  0  0  0  0  0  0  0  0
    1.1666   -1.4256   -4.2217 C   0  0  0  0  0  0  0  0  0  0  0  0
    0.6298   -1.6901   -2.9661 C   0  0  0  0  0  0  0  0  0  0  0  0
    1.3003   -1.3043   -1.8099 C   0  0  0  0  0  0  0  0  0  0  0  0
    3.1300   -0.2370    0.5498 C   0  0  0  0  0  0  0  0  0  0  0  0
    2.3700    1.0000    1.0000 C   0  0  0  0  0  0  0  0  0  0  0  0
    2.9700    1.9766    1.3554 O   0  0  0  0  0  0  0  0  0  0  0  0
    1.0000    1.0000    1.0000 N   0  0  0  0  0  0  0  0  0  0  0  0
    0.3002    2.2122    1.0000 C   0  0  0  0  0  0  0  0  0  0  0  0
   -0.5661    2.5015    2.0489 C   0  0  0  0  0  0  0  0  0  0  0  0
   -1.2535    3.7105    2.0338 C   0  0  0  0  0  0  0  0  0  0  0  0
   -2.0852    4.0017    3.0288 F   0  0  0  0  0  0  0  0  0  0  0  0
   -1.0760    4.6116    0.9897 C   0  0  0  0  0  0  0  0  0  0  0  0
   -1.7754    5.8214    0.9941 N   0  0  0  0  0  0  0  0  0  0  0  0
   -3.1337    5.9583    0.7254 C   0  0  0  0  0  0  0  0  0  0  0  0
   -3.9068    5.0584    0.4439 O   0  0  0  0  0  0  0  0  0  0  0  0
   -3.4718    7.4311    0.8353 C   0  0  0  0  0  0  0  0  0  0  0  0
   -2.1278    8.0798    0.5744 C   0  0  0  0  0  0  0  0  0  0  0  0
   -1.1826    7.1294    1.2775 C   0  0  0  0  0  0  0  0  0  0  0  0
   -0.2058    4.3085   -0.0523 C   0  0  0  0  0  0  0  0  0  0  0  0
    0.4881    3.1029   -0.0511 C   0  0  0  0  0  0  0  0  0  0  0  0
  1  2  2  0
  1  3  2  0
  1  4  1  0
  4  5  1  0
  5  6  2  0
  6  7  1  0
  7  1  1  0
  7  8  2  0
  8  9  1  0
  9 10  2  0
 10 11  1  0
 11  6  1  0
 11 12  2  0
 12 13  1  0
 13 14  2  0
 14  5  1  0
  4 15  1  0
 15 16  1  0
 16 17  2  0
 16 18  1  0
 18 19  1  0
 19 20  2  0
 20 21  1  0
 21 22  1  0
 21 23  2  0
 23 24  1  0
 24 25  1  0
 25 26  2  0
 25 27  1  0
 27 28  1  0
 28 29  1  0
 29 24  1  0
 23 30  1  0
 30 31  2  0
 31 19  1  0
M  END
$$$$
s_1458____13942076____486520
     RDKit          3D

 29 32  0  0  0  0  0  0  0  0999 V2000
    2.4910    0.8121   -1.1546 O   0  0  0  0  0  0  0  0  0  0  0  0
    1.5270    1.5208   -1.2458 C   0  0  0  0  0  0  0  0  0  0  0  0
    0.7267    1.6734   -0.2199 O   0  0  0  0  0  0  0  0  0  0  0  0
    1.0000    1.0000    1.0000 C   0  0  0  0  0  0  0  0  0  0  0  0
    1.8776    1.8776    1.8776 C   0  0  0  0  0  0  0  0  0  0  0  0
    2.1500    2.9930    1.5289 O   0  0  0  0  0  0  0  0  0  0  0  0
    2.3575    1.3951    3.0666 N   0  0  0  0  0  0  0  0  0  0  0  0
    2.7945    2.2827    4.0569 C   0  0  0  0  0  0  0  0  0  0  0  0
    3.9914    2.0332    4.7225 C   0  0  0  0  0  0  0  0  0  0  0  0
    4.7494    0.9012    4.3994 N   0  0  0  0  0  0  0  0  0  0  0  0
    4.5796   -0.3597    4.9628 C   0  0  0  0  0  0  0  0  0  0  0  0
    3.7618   -0.6641    5.8145 O   0  0  0  0  0  0  0  0  0  0  0  0
    5.6047   -1.2801    4.3326 C   0  0  0  0  0  0  0  0  0  0  0  0
    6.6715   -0.3006    3.8878 C   0  0  0  0  0  0  0  0  0  0  0  0
    5.8392    0.8749    3.4226 C   0  0  0  0  0  0  0  0  0  0  0  0
    4.4424    2.9028    5.7098 C   0  0  0  0  0  0  0  0  0  0  0  0
    3.6792    4.0231    6.0193 C   0  0  0  0  0  0  0  0  0  0  0  0
    2.4827    4.2766    5.3569 C   0  0  0  0  0  0  0  0  0  0  0  0
    2.0347    3.4046    4.3702 C   0  0  0  0  0  0  0  0  0  0  0  0
    1.2479    2.2086   -2.4918 C   0  0  0  0  0  0  0  0  0  0  0  0
    1.9590    2.1468   -3.5898 N   0  0  0  0  0  0  0  0  0  0  0  0
    1.4158    2.9001   -4.5253 N   0  0  0  0  0  0  0  0  0  0  0  0
    0.2948    3.4792   -4.0407 C   0  0  0  0  0  0  0  0  0  0  0  0
   -0.4772    4.3371   -4.8703 C   0  0  0  0  0  0  0  0  0  0  0  0
   -1.4957    4.8664   -4.4532 O   0  0  0  0  0  0  0  0  0  0  0  0
   -0.1028    4.5923   -6.1628 N   0  0  0  0  0  0  0  0  0  0  0  0
    1.0409    3.9895   -6.6229 C   0  0  0  0  0  0  0  0  0  0  0  0
    1.7846    3.1610   -5.8212 C   0  0  0  0  0  0  0  0  0  0  0  0
    0.1550    3.0654   -2.7493 C   0  0  0  0  0  0  0  0  0  0  0  0
  1  2  2  0
  2  3  1  0
  3  4  1  0
  4  5  1  0
  5  6  2  0
  5  7  1  0
  7  8  1  0
  8  9  1  0
  9 10  1  0
 10 11  1  0
 11 12  2  0
 11 13  1  0
 13 14  1  0
 14 15  1  0
 15 10  1  0
  9 16  2  0
 16 17  1  0
 17 18  2  0
 18 19  1  0
 19  8  2  0
  2 20  1  0
 20 21  2  0
 21 22  1  0
 22 23  1  0
 23 24  1  0
 24 25  2  0
 24 26  1  0
 26 27  1  0
 27 28  2  0
 28 22  1  0
 23 29  2  0
 29 20  1  0
M  END
$$$$
s_22____664870____6402668
     RDKit          3D

 30 33  0  0  0  0  0  0  0  0999 V2000
    5.3613    3.1255   -0.7325 Cl  0  0  0  0  0  0  0  0  0  0  0  0
    4.4713    1.9309    0.2421 C   0  0  0  0  0  0  0  0  0  0  0  0
    5.1646    0.9963    1.0052 C   0  0  0  0  0  0  0  0  0  0  0  0
    6.5647    1.0047    0.9988 N   0  0  0  0  0  0  0  0  0  0  0  0
    7.2775    0.1954   -0.0014 C   0  0  0  0  0  0  0  0  0  0  0  0
    8.6735    0.7579   -0.2172 C   0  0  0  0  0  0  0  0  0  0  0  0
    9.1973    0.7507   -1.3205 O   0  0  0  0  0  0  0  0  0  0  0  0
    9.3472    1.2981    0.8844 N   0  0  0  0  0  0  0  0  0  0  0  0
    8.7103    1.3482    2.2083 C   0  0  0  0  0  0  0  0  0  0  0  0
    7.2818    1.8193    1.9924 C   0  0  0  0  0  0  0  0  0  0  0  0
    4.4801    0.0577    1.7702 C   0  0  0  0  0  0  0  0  0  0  0  0
    3.0884    0.0633    1.7640 C   0  0  0  0  0  0  0  0  0  0  0  0
    2.4001    1.0000    1.0000 C   0  0  0  0  0  0  0  0  0  0  0  0
    1.0000    1.0000    1.0000 N   0  0  0  0  0  0  0  0  0  0  0  0
    0.3150   -0.1863    0.9829 C   0  0  0  0  0  0  0  0  0  0  0  0
    0.7944   -1.1484    0.4494 O   0  0  0  0  0  0  0  0  0  0  0  0
   -0.9901   -0.2795    1.6099 C   0  0  0  0  0  0  0  0  0  0  0  0
   -2.1408    0.1982    0.9289 C   0  0  0  0  0  0  0  0  0  0  0  0
   -2.0617    0.6918   -0.1847 O   0  0  0  0  0  0  0  0  0  0  0  0
   -3.3589    0.0960    1.5483 N   0  0  0  0  0  0  0  0  0  0  0  0
   -3.4708   -0.4543    2.7985 C   0  0  0  0  0  0  0  0  0  0  0  0
   -2.3968   -0.8977    3.4273 N   0  0  0  0  0  0  0  0  0  0  0  0
   -1.1522   -0.8222    2.8582 C   0  0  0  0  0  0  0  0  0  0  0  0
    0.0532   -1.3458    3.6233 C   0  0  0  0  0  0  0  0  0  0  0  0
   -4.7849   -0.5357    3.4051 C   0  0  0  0  0  0  0  0  0  0  0  0
   -5.0945   -1.2047    4.4965 O   0  0  0  0  0  0  0  0  0  0  0  0
   -6.3734   -1.0802    4.7693 C   0  0  0  0  0  0  0  0  0  0  0  0
   -6.9317   -0.2916    3.8084 C   0  0  0  0  0  0  0  0  0  0  0  0
   -5.9013    0.0699    2.9106 C   0  0  0  0  0  0  0  0  0  0  0  0
    3.0806    1.9402    0.2339 C   0  0  0  0  0  0  0  0  0  0  0  0
  1  2  1  0
  2  3  2  0
  3  4  1  0
  4  5  1  0
  5  6  1  0
  6  7  2  0
  6  8  1  0
  8  9  1  0
  9 10  1  0
 10  4  1  0
  3 11  1  0
 11 12  2  0
 12 13  1  0
 13 14  1  0
 14 15  1  0
 15 16  2  0
 15 17  1  0
 17 18  1  0
 18 19  2  0
 18 20  1  0
 20 21  1  0
 21 22  2  0
 22 23  1  0
 17 23  2  0
 23 24  1  0
 21 25  1  0
 25 26  1  0
 26 27  1  0
 27 28  2  0
 28 29  1  0
 25 29  2  0
 13 30  2  0
 30  2  1  0
M  END
$$$$
s_22____12904808____5825582
     RDKit          3D

 29 31  0  0  0  0  0  0  0  0999 V2000
    0.8226    3.5273    2.5241 F   0  0  0  0  0  0  0  0  0  0  0  0
    1.9821    2.8763    2.5102 C   0  0  0  0  0  0  0  0  0  0  0  0
    3.1781    3.5854    2.5020 C   0  0  0  0  0  0  0  0  0  0  0  0
    3.1519    4.9853    2.5098 N   0  0  0  0  0  0  0  0  0  0  0  0
    3.7425    5.6758    3.5352 C   0  0  0  0  0  0  0  0  0  0  0  0
    4.2823    5.0808    4.4266 O   0  0  0  0  0  0  0  0  0  0  0  0
    3.7141    7.1955    3.5436 C   0  0  0  0  0  0  0  0  0  0  0  0
    2.2719    7.6752    3.5607 C   0  0  0  0  0  0  0  0  0  0  0  0
    4.4335    7.7088    4.7803 C   0  0  0  0  0  0  0  0  0  0  0  0
    4.3974    2.9172    2.4866 C   0  0  0  0  0  0  0  0  0  0  0  0
    4.4046    1.5262    2.4788 C   0  0  0  0  0  0  0  0  0  0  0  0
    3.2098    0.8152    2.4879 C   0  0  0  0  0  0  0  0  0  0  0  0
    3.2130   -0.5146    2.4812 F   0  0  0  0  0  0  0  0  0  0  0  0
    1.9907    1.4852    2.5037 C   0  0  0  0  0  0  0  0  0  0  0  0
    5.6741    0.8254    2.4611 C   0  0  0  0  0  0  0  0  0  0  0  0
    6.1880    0.5412    1.4146 O   0  0  0  0  0  0  0  0  0  0  0  0
    6.2867    0.4877    3.6391 N   0  0  0  0  0  0  0  0  0  0  0  0
    7.5735   -0.2227    3.6211 C   0  0  0  0  0  0  0  0  0  0  0  0
    8.7100    0.7874    3.6143 C   0  0  0  0  0  0  0  0  0  0  0  0
    9.2640    1.2960    2.5381 N   0  0  0  0  0  0  0  0  0  0  0  0
   10.2054    2.1305    2.9232 N   0  0  0  0  0  0  0  0  0  0  0  0
   10.2673    2.1627    4.2401 C   0  0  0  0  0  0  0  0  0  0  0  0
    9.3184    1.3137    4.7136 N   0  0  0  0  0  0  0  0  0  0  0  0
    9.2082    1.1837    6.0769 C   0  0  0  0  0  0  0  0  0  0  0  0
   10.0141    1.8806    6.9416 C   0  0  0  0  0  0  0  0  0  0  0  0
   10.9740    2.7458    6.4819 N   0  0  0  0  0  0  0  0  0  0  0  0
   11.1096    2.8927    5.1255 C   0  0  0  0  0  0  0  0  0  0  0  0
   11.9616    3.6601    4.7074 O   0  0  0  0  0  0  0  0  0  0  0  0
    5.6571    0.8359    4.9210 C   0  0  0  0  0  0  0  0  0  0  0  0
  1  2  1  0
  2  3  2  0
  3  4  1  0
  4  5  1  0
  5  6  2  0
  5  7  1  0
  7  8  1  0
  7  9  1  0
  3 10  1  0
 10 11  2  0
 11 12  1  0
 12 13  1  0
 12 14  2  0
 14  2  1  0
 11 15  1  0
 15 16  2  0
 15 17  1  0
 17 18  1  0
 18 19  1  0
 19 20  2  0
 20 21  1  0
 21 22  2  0
 22 23  1  0
 23 19  1  0
 23 24  1  0
 24 25  2  0
 25 26  1  0
 26 27  1  0
 27 22  1  0
 27 28  2  0
 17 29  1  0
M  END
$$$$
s_2430a____1041920____12908904
     RDKit          3D

 29 32  0  0  0  0  0  0  0  0999 V2000
    4.9624    0.4227    0.2944 F   0  0  0  0  0  0  0  0  0  0  0  0
    4.3818   -0.3215    1.2310 C   0  0  0  0  0  0  0  0  0  0  0  0
    3.0701   -0.0502    1.6063 C   0  0  0  0  0  0  0  0  0  0  0  0
    2.3700    1.0000    1.0000 N   0  0  0  0  0  0  0  0  0  0  0  0
    1.0000    1.0000    1.0000 C   0  0  0  0  0  0  0  0  0  0  0  0
    0.4000   -0.0392    1.0000 O   0  0  0  0  0  0  0  0  0  0  0  0
    0.3150    2.1865    1.0000 N   0  0  0  0  0  0  0  0  0  0  0  0
   -1.1550    2.1865    1.0000 C   0  0  0  0  0  0  0  0  0  0  0  0
   -1.6616    2.1865    2.4329 C   0  0  0  0  0  0  0  0  0  0  0  0
   -1.9154    1.1186    3.1506 N   0  0  0  0  0  0  0  0  0  0  0  0
   -2.3322    1.5164    4.3334 N   0  0  0  0  0  0  0  0  0  0  0  0
   -2.3515    2.8328    4.3807 C   0  0  0  0  0  0  0  0  0  0  0  0
   -1.9296    3.2935    3.1815 N   0  0  0  0  0  0  0  0  0  0  0  0
   -1.8696    4.6512    2.9865 C   0  0  0  0  0  0  0  0  0  0  0  0
   -2.2237    5.5352    3.9727 C   0  0  0  0  0  0  0  0  0  0  0  0
   -2.6539    5.0907    5.1968 N   0  0  0  0  0  0  0  0  0  0  0  0
   -2.7212    3.7375    5.4136 C   0  0  0  0  0  0  0  0  0  0  0  0
   -3.0993    3.3102    6.4929 O   0  0  0  0  0  0  0  0  0  0  0  0
   -3.0272    6.0570    6.2400 C   0  0  0  0  0  0  0  0  0  0  0  0
    2.4425   -0.8146    2.5833 C   0  0  0  0  0  0  0  0  0  0  0  0
    3.1510   -1.8535    3.1763 C   0  0  0  0  0  0  0  0  0  0  0  0
    2.5347   -2.6322    4.1630 N   0  0  0  0  0  0  0  0  0  0  0  0
    2.6173   -2.3968    5.5319 C   0  0  0  0  0  0  0  0  0  0  0  0
    3.2342   -1.4942    6.0718 O   0  0  0  0  0  0  0  0  0  0  0  0
    1.8104   -3.4742    6.2271 C   0  0  0  0  0  0  0  0  0  0  0  0
    1.8272   -4.5879    5.2000 C   0  0  0  0  0  0  0  0  0  0  0  0
    1.7137   -3.8158    3.9031 C   0  0  0  0  0  0  0  0  0  0  0  0
    4.4622   -2.1304    2.8057 C   0  0  0  0  0  0  0  0  0  0  0  0
    5.0855   -1.3624    1.8279 C   0  0  0  0  0  0  0  0  0  0  0  0
  1  2  1  0
  2  3  2  0
  3  4  1  0
  4  5  1  0
  5  6  2  0
  5  7  1  0
  7  8  1  0
  8  9  1  0
  9 10  2  0
 10 11  1  0
 11 12  2  0
 12 13  1  0
 13  9  1  0
 13 14  1  0
 14 15  2  0
 15 16  1  0
 16 17  1  0
 17 12  1  0
 17 18  2  0
 16 19  1  0
  3 20  1  0
 20 21  2  0
 21 22  1  0
 22 23  1  0
 23 24  2  0
 23 25  1  0
 25 26  1  0
 26 27  1  0
 27 22  1  0
 21 28  1  0
 28 29  2  0
 29  2  1  0
M  END
$$$$
s_22____215840____6741462
     RDKit          3D

 30 34  0  0  0  0  0  0  0  0999 V2000
    5.3613    3.7070    0.5624 Cl  0  0  0  0  0  0  0  0  0  0  0  0
    4.4713    2.1851    0.8091 C   0  0  0  0  0  0  0  0  0  0  0  0
    5.1646    0.9942    1.0026 C   0  0  0  0  0  0  0  0  0  0  0  0
    6.5647    1.0047    1.0013 N   0  0  0  0  0  0  0  0  0  0  0  0
    7.3586    1.0263   -0.1439 C   0  0  0  0  0  0  0  0  0  0  0  0
    6.9580    1.0499   -1.2956 O   0  0  0  0  0  0  0  0  0  0  0  0
    8.8069    1.0228    0.2915 C   0  0  0  0  0  0  0  0  0  0  0  0
    8.7058    1.6404    1.6683 C   0  0  0  0  0  0  0  0  0  0  0  0
    7.4401    0.9875    2.1773 C   0  0  0  0  0  0  0  0  0  0  0  0
    4.4801   -0.2012    1.1959 C   0  0  0  0  0  0  0  0  0  0  0  0
    3.0884   -0.1932    1.1933 C   0  0  0  0  0  0  0  0  0  0  0  0
    2.4001    1.0000    1.0000 C   0  0  0  0  0  0  0  0  0  0  0  0
    1.0000    1.0000    1.0000 N   0  0  0  0  0  0  0  0  0  0  0  0
    0.3150   -0.1863    0.9829 C   0  0  0  0  0  0  0  0  0  0  0  0
    0.8607   -1.1890    0.6130 O   0  0  0  0  0  0  0  0  0  0  0  0
   -1.0711   -0.2304    1.4123 C   0  0  0  0  0  0  0  0  0  0  0  0
   -2.1091   -0.6418    0.5762 C   0  0  0  0  0  0  0  0  0  0  0  0
   -3.4134   -0.6553    1.0670 C   0  0  0  0  0  0  0  0  0  0  0  0
   -3.6510   -0.2740    2.3324 N   0  0  0  0  0  0  0  0  0  0  0  0
   -2.6678    0.1257    3.1555 C   0  0  0  0  0  0  0  0  0  0  0  0
   -1.3484    0.1585    2.7180 C   0  0  0  0  0  0  0  0  0  0  0  0
   -2.9475    0.5565    4.5862 C   0  0  0  0  0  0  0  0  0  0  0  0
   -1.8990    0.0285    5.5212 C   0  0  0  0  0  0  0  0  0  0  0  0
   -3.2599   -0.6055    5.4845 C   0  0  0  0  0  0  0  0  0  0  0  0
   -4.4544   -1.0641    0.2390 C   0  0  0  0  0  0  0  0  0  0  0  0
   -4.2182   -1.4609   -1.0733 C   0  0  0  0  0  0  0  0  0  0  0  0
   -2.9198   -1.4503   -1.5718 C   0  0  0  0  0  0  0  0  0  0  0  0
   -2.5422   -1.9452   -3.2395 Cl  0  0  0  0  0  0  0  0  0  0  0  0
   -1.8841   -1.0408   -0.7401 C   0  0  0  0  0  0  0  0  0  0  0  0
    3.0806    2.1972    0.8066 C   0  0  0  0  0  0  0  0  0  0  0  0
  1  2  1  0
  2  3  2  0
  3  4  1  0
  4  5  1  0
  5  6  2  0
  5  7  1  0
  7  8  1  0
  8  9  1  0
  9  4  1  0
  3 10  1  0
 10 11  2  0
 11 12  1  0
 12 13  1  0
 13 14  1  0
 14 15  2  0
 14 16  1  0
 16 17  2  0
 17 18  1  0
 18 19  2  0
 19 20  1  0
 20 21  2  0
 21 16  1  0
 20 22  1  0
 22 23  1  0
 23 24  1  0
 24 22  1  0
 18 25  1  0
 25 26  2  0
 26 27  1  0
 27 28  1  0
 27 29  2  0
 29 17  1  0
 12 30  2  0
 30  2  1  0
M  END
$$$$
s_22____17548538____872068
     RDKit          3D

 32 35  0  0  0  0  0  0  0  0999 V2000
    2.6901    3.7193    3.2077 S   0  0  0  0  0  0  0  0  0  0  0  0
    3.7233    2.3774    3.0696 C   0  0  0  0  0  0  0  0  0  0  0  0
    3.1064    1.4935    2.3168 N   0  0  0  0  0  0  0  0  0  0  0  0
    1.8725    1.8725    1.8725 C   0  0  0  0  0  0  0  0  0  0  0  0
    1.4242    3.1002    2.2475 C   0  0  0  0  0  0  0  0  0  0  0  0
    1.0000    1.0000    1.0000 C   0  0  0  0  0  0  0  0  0  0  0  0
    0.1103    0.1347    1.8775 C   0  0  0  0  0  0  0  0  0  0  0  0
    0.5888   -0.4991    2.7771 O   0  0  0  0  0  0  0  0  0  0  0  0
   -1.2381    0.0783    1.6413 N   0  0  0  0  0  0  0  0  0  0  0  0
   -2.0718   -0.6341    2.5113 C   0  0  0  0  0  0  0  0  0  0  0  0
   -2.9124    0.0660    3.3710 C   0  0  0  0  0  0  0  0  0  0  0  0
   -3.7412   -0.6421    4.2353 C   0  0  0  0  0  0  0  0  0  0  0  0
   -3.7228   -2.0328    4.2328 C   0  0  0  0  0  0  0  0  0  0  0  0
   -4.5573   -2.7453    5.1030 N   0  0  0  0  0  0  0  0  0  0  0  0
   -4.2168   -2.9395    6.4485 C   0  0  0  0  0  0  0  0  0  0  0  0
   -3.1760   -2.4863    6.8979 O   0  0  0  0  0  0  0  0  0  0  0  0
   -5.0657   -3.6566    7.3023 N   0  0  0  0  0  0  0  0  0  0  0  0
   -6.3262   -4.2286    6.8052 C   0  0  0  0  0  0  0  0  0  0  0  0
   -6.8782   -3.3912    5.6622 C   0  0  0  0  0  0  0  0  0  0  0  0
   -5.8180   -3.2903    4.5768 C   0  0  0  0  0  0  0  0  0  0  0  0
   -4.7207   -3.8646    8.7164 C   0  0  0  0  0  0  0  0  0  0  0  0
   -2.8824   -2.7331    3.3731 C   0  0  0  0  0  0  0  0  0  0  0  0
   -2.0534   -2.0250    2.5090 C   0  0  0  0  0  0  0  0  0  0  0  0
    5.0471    2.2804    3.7012 N   0  0  0  0  0  0  0  0  0  0  0  0
    5.8070    1.1534    3.5299 C   0  0  0  0  0  0  0  0  0  0  0  0
    5.5854    0.4144    2.6108 O   0  0  0  0  0  0  0  0  0  0  0  0
    6.8810    0.8530    4.4609 C   0  0  0  0  0  0  0  0  0  0  0  0
    8.2012    0.7181    4.1777 C   0  0  0  0  0  0  0  0  0  0  0  0
    8.8514    0.4489    5.2827 O   0  0  0  0  0  0  0  0  0  0  0  0
    8.0308    0.3929    6.3077 C   0  0  0  0  0  0  0  0  0  0  0  0
    6.7704    0.6381    5.8520 C   0  0  0  0  0  0  0  0  0  0  0  0
    8.8223    0.8602    2.7982 C   0  0  0  0  0  0  0  0  0  0  0  0
  1  2  1  0
  2  3  2  0
  3  4  1  0
  4  5  2  0
  5  1  1  0
  4  6  1  0
  6  7  1  0
  7  8  2  0
  7  9  1  0
  9 10  1  0
 10 11  2  0
 11 12  1  0
 12 13  2  0
 13 14  1  0
 14 15  1  0
 15 16  2  0
 15 17  1  0
 17 18  1  0
 18 19  1  0
 19 20  1  0
 20 14  1  0
 17 21  1  0
 13 22  1  0
 22 23  2  0
 23 10  1  0
  2 24  1  0
 24 25  1  0
 25 26  2  0
 25 27  1  0
 27 28  2  0
 28 29  1  0
 29 30  1  0
 30 31  2  0
 31 27  1  0
 28 32  1  0
M  END
$$$$
s_22____602696____13455094
     RDKit          3D

 29 32  0  0  0  0  0  0  0  0999 V2000
    3.2645   -1.1197    2.4772 Br  0  0  0  0  0  0  0  0  0  0  0  0
    3.2136    0.8399    2.4876 C   0  0  0  0  0  0  0  0  0  0  0  0
    2.0098    1.5365    2.5047 C   0  0  0  0  0  0  0  0  0  0  0  0
    2.0108    2.8773    2.5108 N   0  0  0  0  0  0  0  0  0  0  0  0
    3.1582    3.5706    2.5023 C   0  0  0  0  0  0  0  0  0  0  0  0
    4.3333    2.9233    2.4861 N   0  0  0  0  0  0  0  0  0  0  0  0
    4.3887    1.5839    2.4789 C   0  0  0  0  0  0  0  0  0  0  0  0
    3.1548    4.9703    2.5090 N   0  0  0  0  0  0  0  0  0  0  0  0
    4.4261    5.7084    2.4994 C   0  0  0  0  0  0  0  0  0  0  0  0
    4.8504    5.9703    1.0599 C   0  0  0  0  0  0  0  0  0  0  0  0
    4.5335    7.0210    0.3377 O   0  0  0  0  0  0  0  0  0  0  0  0
    5.0620    6.9343   -0.8637 C   0  0  0  0  0  0  0  0  0  0  0  0
    5.7568    5.7645   -0.9347 C   0  0  0  0  0  0  0  0  0  0  0  0
    5.6213    5.1274    0.3206 C   0  0  0  0  0  0  0  0  0  0  0  0
    0.7641    0.7940    2.5152 C   0  0  0  0  0  0  0  0  0  0  0  0
    0.5047    0.0446    1.6146 O   0  0  0  0  0  0  0  0  0  0  0  0
   -0.1165    0.9482    3.5533 N   0  0  0  0  0  0  0  0  0  0  0  0
   -1.3186    0.2317    3.5635 C   0  0  0  0  0  0  0  0  0  0  0  0
   -1.6162   -0.6516    4.5961 C   0  0  0  0  0  0  0  0  0  0  0  0
   -0.7390   -0.8159    5.5822 F   0  0  0  0  0  0  0  0  0  0  0  0
   -2.8156   -1.3555    4.5970 C   0  0  0  0  0  0  0  0  0  0  0  0
   -3.7360   -1.1926    3.5671 C   0  0  0  0  0  0  0  0  0  0  0  0
   -3.4312   -0.3136    2.5325 C   0  0  0  0  0  0  0  0  0  0  0  0
   -4.3425   -0.1524    1.4811 N   0  0  0  0  0  0  0  0  0  0  0  0
   -5.6860   -0.5242    1.6165 C   0  0  0  0  0  0  0  0  0  0  0  0
   -6.4505   -0.3211    0.6870 O   0  0  0  0  0  0  0  0  0  0  0  0
   -6.1590   -1.1560    2.9170 C   0  0  0  0  0  0  0  0  0  0  0  0
   -5.0487   -1.9615    3.5743 C   0  0  0  0  0  0  0  0  0  0  0  0
   -2.2348    0.3962    2.5303 C   0  0  0  0  0  0  0  0  0  0  0  0
  1  2  1  0
  2  3  2  0
  3  4  1  0
  4  5  2  0
  5  6  1  0
  6  7  2  0
  7  2  1  0
  5  8  1  0
  8  9  1  0
  9 10  1  0
 10 11  1  0
 11 12  1  0
 12 13  2  0
 13 14  1  0
 10 14  2  0
  3 15  1  0
 15 16  2  0
 15 17  1  0
 17 18  1  0
 18 19  2  0
 19 20  1  0
 19 21  1  0
 21 22  2  0
 22 23  1  0
 23 24  1  0
 24 25  1  0
 25 26  2  0
 25 27  1  0
 27 28  1  0
 28 22  1  0
 23 29  2  0
 29 18  1  0
M  END
$$$$
s_2718____12904830____1202816
     RDKit          3D

 31 34  0  0  0  0  0  0  0  0999 V2000
    4.6286    2.1052    3.9154 F   0  0  0  0  0  0  0  0  0  0  0  0
    5.3020    1.3681    3.0372 C   0  0  0  0  0  0  0  0  0  0  0  0
    4.6052    0.5942    2.1149 C   0  0  0  0  0  0  0  0  0  0  0  0
    3.2050    0.5942    2.1149 N   0  0  0  0  0  0  0  0  0  0  0  0
    2.5200    1.0000    1.0000 C   0  0  0  0  0  0  0  0  0  0  0  0
    3.1200    1.3554    0.0234 O   0  0  0  0  0  0  0  0  0  0  0  0
    1.0000    1.0000    1.0000 C   0  0  0  0  0  0  0  0  0  0  0  0
    0.4000   -0.0392    1.0000 O   0  0  0  0  0  0  0  0  0  0  0  0
    0.3150    2.1865    1.0000 N   0  0  0  0  0  0  0  0  0  0  0  0
   -1.1550    2.1865    1.0000 C   0  0  0  0  0  0  0  0  0  0  0  0
   -1.6618    2.1865    2.4335 C   0  0  0  0  0  0  0  0  0  0  0  0
   -1.9141    1.1136    3.1471 N   0  0  0  0  0  0  0  0  0  0  0  0
   -2.3302    1.5043    4.3325 N   0  0  0  0  0  0  0  0  0  0  0  0
   -2.3527    2.8215    4.3900 C   0  0  0  0  0  0  0  0  0  0  0  0
   -1.9266    3.2894    3.1879 N   0  0  0  0  0  0  0  0  0  0  0  0
   -1.8763    4.6520    3.0203 C   0  0  0  0  0  0  0  0  0  0  0  0
   -2.2344    5.5216    4.0195 C   0  0  0  0  0  0  0  0  0  0  0  0
   -2.6621    5.0676    5.2411 N   0  0  0  0  0  0  0  0  0  0  0  0
   -2.7264    3.7120    5.4358 C   0  0  0  0  0  0  0  0  0  0  0  0
   -3.1065    3.2989    6.5196 O   0  0  0  0  0  0  0  0  0  0  0  0
    1.0500    3.4595    1.0000 C   0  0  0  0  0  0  0  0  0  0  0  0
    5.2878   -0.1846    1.1874 C   0  0  0  0  0  0  0  0  0  0  0  0
    6.6780   -0.1744    1.2004 C   0  0  0  0  0  0  0  0  0  0  0  0
    7.3799   -0.9527    0.2760 N   0  0  0  0  0  0  0  0  0  0  0  0
    7.7800   -2.2692    0.4827 C   0  0  0  0  0  0  0  0  0  0  0  0
    7.5872   -2.9315    1.4882 O   0  0  0  0  0  0  0  0  0  0  0  0
    8.5087   -2.7233   -0.7656 C   0  0  0  0  0  0  0  0  0  0  0  0
    8.9780   -1.4062   -1.3491 C   0  0  0  0  0  0  0  0  0  0  0  0
    7.8050   -0.4980   -1.0488 C   0  0  0  0  0  0  0  0  0  0  0  0
    7.3808    0.5971    2.1193 C   0  0  0  0  0  0  0  0  0  0  0  0
    6.6930    1.3743    3.0451 C   0  0  0  0  0  0  0  0  0  0  0  0
  1  2  1  0
  2  3  2  0
  3  4  1  0
  4  5  1  0
  5  6  2  0
  5  7  1  0
  7  8  2  0
  7  9  1  0
  9 10  1  0
 10 11  1  0
 11 12  2  0
 12 13  1  0
 13 14  2  0
 14 15  1  0
 15 11  1  0
 15 16  1  0
 16 17  2  0
 17 18  1  0
 18 19  1  0
 19 14  1  0
 19 20  2  0
  9 21  1  0
  3 22  1  0
 22 23  2  0
 23 24  1  0
 24 25  1  0
 25 26  2  0
 25 27  1  0
 27 28  1  0
 28 29  1  0
 29 24  1  0
 23 30  1  0
 30 31  2  0
 31  2  1  0
M  END
$$$$
s_272164____17324116____9374480
     RDKit          3D

 30 33  0  0  0  0  0  0  0  0999 V2000
    0.4000   -0.0392    1.0000 O   0  0  0  0  0  0  0  0  0  0  0  0
    1.0000    1.0000    1.0000 C   0  0  0  0  0  0  0  0  0  0  0  0
    0.2956    2.2201    1.0000 N   0  0  0  0  0  0  0  0  0  0  0  0
    0.8965    3.4810    1.0000 C   0  0  0  0  0  0  0  0  0  0  0  0
    0.9409    4.1206   -0.2381 C   0  0  0  0  0  0  0  0  0  0  0  0
    0.4178    3.5825   -1.4300 N   0  0  0  0  0  0  0  0  0  0  0  0
   -0.7532    2.7911   -1.5414 C   0  0  0  0  0  0  0  0  0  0  0  0
   -1.0001    2.4003   -2.6725 O   0  0  0  0  0  0  0  0  0  0  0  0
   -1.7187    2.3445   -0.4402 C   0  0  0  0  0  0  0  0  0  0  0  0
   -1.1672    2.3418    0.9818 C   0  0  0  0  0  0  0  0  0  0  0  0
   -2.3396    1.0017   -0.7809 C   0  0  0  0  0  0  0  0  0  0  0  0
   -3.2910    0.5870    0.3296 C   0  0  0  0  0  0  0  0  0  0  0  0
    1.5320    5.3772   -0.2602 C   0  0  0  0  0  0  0  0  0  0  0  0
    2.0451    5.9367    0.9041 C   0  0  0  0  0  0  0  0  0  0  0  0
    1.9700    5.2687    2.0653 N   0  0  0  0  0  0  0  0  0  0  0  0
    1.4113    4.0554    2.1555 C   0  0  0  0  0  0  0  0  0  0  0  0
    2.3700    1.0000    1.0000 N   0  0  0  0  0  0  0  0  0  0  0  0
    3.0702   -0.1943    0.7894 C   0  0  0  0  0  0  0  0  0  0  0  0
    2.3818   -1.4032    0.7896 C   0  0  0  0  0  0  0  0  0  0  0  0
    3.0872   -2.5835    0.5797 C   0  0  0  0  0  0  0  0  0  0  0  0
    4.4627   -2.5556    0.3724 C   0  0  0  0  0  0  0  0  0  0  0  0
    5.1634   -3.7494    0.1620 N   0  0  0  0  0  0  0  0  0  0  0  0
    5.6469   -4.5750    1.1753 C   0  0  0  0  0  0  0  0  0  0  0  0
    5.5237   -4.3885    2.3743 O   0  0  0  0  0  0  0  0  0  0  0  0
    6.3462   -5.7491    0.5275 C   0  0  0  0  0  0  0  0  0  0  0  0
    5.6457   -5.8118   -0.8113 C   0  0  0  0  0  0  0  0  0  0  0  0
    5.5196   -4.3392   -1.1322 C   0  0  0  0  0  0  0  0  0  0  0  0
    5.1416   -1.3411    0.3734 C   0  0  0  0  0  0  0  0  0  0  0  0
    4.4455   -0.1551    0.5826 C   0  0  0  0  0  0  0  0  0  0  0  0
    2.3206   -3.8964    0.5828 C   0  0  0  0  0  0  0  0  0  0  0  0
  1  2  2  0
  2  3  1  0
  3  4  1  0
  4  5  2  0
  5  6  1  0
  6  7  1  0
  7  8  2  0
  7  9  1  0
  9 10  1  0
 10  3  1  0
  9 11  1  0
 11 12  1  0
  5 13  1  0
 13 14  2  0
 14 15  1  0
 15 16  2  0
 16  4  1  0
  2 17  1  0
 17 18  1  0
 18 19  2  0
 19 20  1  0
 20 21  2  0
 21 22  1  0
 22 23  1  0
 23 24  2  0
 23 25  1  0
 25 26  1  0
 26 27  1  0
 27 22  1  0
 21 28  1  0
 28 29  2  0
 29 18  1  0
 20 30  1  0
M  END
$$$$
s_22____14942836____16809432
     RDKit          3D

 32 36  0  0  0  0  0  0  0  0999 V2000
    6.5153   -2.2833    1.2554 Br  0  0  0  0  0  0  0  0  0  0  0  0
    4.9074   -1.5934    0.3734 C   0  0  0  0  0  0  0  0  0  0  0  0
    4.4854   -2.1351   -0.8397 C   0  0  0  0  0  0  0  0  0  0  0  0
    5.0674   -3.1275   -1.5435 O   0  0  0  0  0  0  0  0  0  0  0  0
    5.8425   -2.7144   -2.6588 C   0  0  0  0  0  0  0  0  0  0  0  0
    4.9537   -2.7624   -3.8904 C   0  0  0  0  0  0  0  0  0  0  0  0
    3.7622   -1.8250   -3.7470 C   0  0  0  0  0  0  0  0  0  0  0  0
    3.0097   -2.2042   -2.6053 O   0  0  0  0  0  0  0  0  0  0  0  0
    3.3455   -1.6299   -1.4326 C   0  0  0  0  0  0  0  0  0  0  0  0
    2.6479   -0.5953   -0.8151 C   0  0  0  0  0  0  0  0  0  0  0  0
    3.0710   -0.0515    0.3929 C   0  0  0  0  0  0  0  0  0  0  0  0
    2.3700    1.0000    1.0000 N   0  0  0  0  0  0  0  0  0  0  0  0
    1.0000    1.0000    1.0000 C   0  0  0  0  0  0  0  0  0  0  0  0
    0.4000   -0.0392    1.0000 O   0  0  0  0  0  0  0  0  0  0  0  0
    0.2757    2.2545    1.0000 C   0  0  0  0  0  0  0  0  0  0  0  0
    0.9366    3.4334    1.4228 C   0  0  0  0  0  0  0  0  0  0  0  0
    2.0797    3.3479    1.8493 O   0  0  0  0  0  0  0  0  0  0  0  0
    0.2435    4.6697    1.3276 C   0  0  0  0  0  0  0  0  0  0  0  0
   -1.0081    4.6929    0.7464 C   0  0  0  0  0  0  0  0  0  0  0  0
   -1.7143    3.5484    0.5140 N   0  0  0  0  0  0  0  0  0  0  0  0
   -1.0292    2.3602    0.5961 C   0  0  0  0  0  0  0  0  0  0  0  0
   -3.1611    3.6171    0.2067 C   0  0  0  0  0  0  0  0  0  0  0  0
   -3.6318    4.9484   -0.3642 C   0  0  0  0  0  0  0  0  0  0  0  0
   -2.6082    5.9417   -0.4088 O   0  0  0  0  0  0  0  0  0  0  0  0
   -1.5375    5.9157    0.4078 C   0  0  0  0  0  0  0  0  0  0  0  0
   -0.9690    7.0907    0.8992 C   0  0  0  0  0  0  0  0  0  0  0  0
   -1.5233    8.2763    0.6584 F   0  0  0  0  0  0  0  0  0  0  0  0
    0.2032    7.0679    1.6411 C   0  0  0  0  0  0  0  0  0  0  0  0
    0.7103    8.1682    2.1913 F   0  0  0  0  0  0  0  0  0  0  0  0
    0.8194    5.8405    1.8073 C   0  0  0  0  0  0  0  0  0  0  0  0
   -3.6375    2.5143   -0.7281 C   0  0  0  0  0  0  0  0  0  0  0  0
    4.2174   -0.5580    0.9960 C   0  0  0  0  0  0  0  0  0  0  0  0
  1  2  1  0
  2  3  2  0
  3  4  1  0
  4  5  1  0
  5  6  1  0
  6  7  1  0
  7  8  1  0
  8  9  1  0
  9  3  1  0
  9 10  2  0
 10 11  1  0
 11 12  1  0
 12 13  1  0
 13 14  2  0
 13 15  1  0
 15 16  1  0
 16 17  2  0
 16 18  1  0
 18 19  2  0
 19 20  1  0
 20 21  1  0
 15 21  2  0
 20 22  1  0
 22 23  1  0
 23 24  1  0
 24 25  1  0
 25 19  1  0
 25 26  2  0
 26 27  1  0
 26 28  1  0
 28 29  1  0
 28 30  2  0
 30 18  1  0
 22 31  1  0
 11 32  2  0
 32  2  1  0
M  END
$$$$
s_22____17548538____2307488
     RDKit          3D

 32 35  0  0  0  0  0  0  0  0999 V2000
   -3.8523    2.3918    5.5514 O   0  0  0  0  0  0  0  0  0  0  0  0
   -4.8325    2.4663    4.8272 C   0  0  0  0  0  0  0  0  0  0  0  0
   -4.6901    2.4809    3.4331 N   0  0  0  0  0  0  0  0  0  0  0  0
   -3.4308    2.4090    2.8261 C   0  0  0  0  0  0  0  0  0  0  0  0
   -2.6833    3.5667    2.6369 C   0  0  0  0  0  0  0  0  0  0  0  0
   -1.4318    3.4956    2.0336 C   0  0  0  0  0  0  0  0  0  0  0  0
   -0.9442    2.2579    1.6262 C   0  0  0  0  0  0  0  0  0  0  0  0
    0.3150    2.1863    1.0188 N   0  0  0  0  0  0  0  0  0  0  0  0
    1.0000    1.0000    1.0000 C   0  0  0  0  0  0  0  0  0  0  0  0
    0.4000   -0.0391    0.9835 O   0  0  0  0  0  0  0  0  0  0  0  0
    2.4503    1.0000    1.0000 C   0  0  0  0  0  0  0  0  0  0  0  0
    3.2379    0.4628    1.8973 N   0  0  0  0  0  0  0  0  0  0  0  0
    4.4582    0.6529    1.5902 O   0  0  0  0  0  0  0  0  0  0  0  0
    4.5546    1.3225    0.4689 C   0  0  0  0  0  0  0  0  0  0  0  0
    5.7862    1.7165   -0.1880 C   0  0  0  0  0  0  0  0  0  0  0  0
    7.0270    1.3947    0.3540 C   0  0  0  0  0  0  0  0  0  0  0  0
    7.0992    0.7037    1.5118 O   0  0  0  0  0  0  0  0  0  0  0  0
    8.3652    0.3753    2.0648 C   0  0  0  0  0  0  0  0  0  0  0  0
    8.1931    1.7851   -0.2967 C   0  0  0  0  0  0  0  0  0  0  0  0
    8.1188    2.4971   -1.4897 C   0  0  0  0  0  0  0  0  0  0  0  0
    6.8736    2.8135   -2.0233 C   0  0  0  0  0  0  0  0  0  0  0  0
    6.8014    3.5047   -3.1815 O   0  0  0  0  0  0  0  0  0  0  0  0
    7.9914    3.9032   -3.8459 C   0  0  0  0  0  0  0  0  0  0  0  0
    5.7017    2.4280   -1.3805 C   0  0  0  0  0  0  0  0  0  0  0  0
    3.2930    1.5811    0.0305 C   0  0  0  0  0  0  0  0  0  0  0  0
   -1.6917    1.1002    1.8156 C   0  0  0  0  0  0  0  0  0  0  0  0
   -2.9434    1.1712    2.4186 C   0  0  0  0  0  0  0  0  0  0  0  0
   -5.8790    2.5787    2.5728 C   0  0  0  0  0  0  0  0  0  0  0  0
   -7.0108    3.3194    3.2676 C   0  0  0  0  0  0  0  0  0  0  0  0
   -7.3135    2.6210    4.5840 C   0  0  0  0  0  0  0  0  0  0  0  0
   -6.1027    2.5381    5.4148 N   0  0  0  0  0  0  0  0  0  0  0  0
   -6.2648    2.5264    6.8762 C   0  0  0  0  0  0  0  0  0  0  0  0
  1  2  2  0
  2  3  1  0
  3  4  1  0
  4  5  2  0
  5  6  1  0
  6  7  2  0
  7  8  1  0
  8  9  1  0
  9 10  2  0
  9 11  1  0
 11 12  2  0
 12 13  1  0
 13 14  1  0
 14 15  1  0
 15 16  2  0
 16 17  1  0
 17 18  1  0
 16 19  1  0
 19 20  2  0
 20 21  1  0
 21 22  1  0
 22 23  1  0
 21 24  2  0
 24 15  1  0
 14 25  2  0
 25 11  1  0
  7 26  1  0
 26 27  2  0
 27  4  1  0
  3 28  1  0
 28 29  1  0
 29 30  1  0
 30 31  1  0
 31  2  1  0
 31 32  1  0
M  END
$$$$
s_22____14942836____14559794
     RDKit          3D

 29 32  0  0  0  0  0  0  0  0999 V2000
   -5.2891   -0.5487    5.2897 Br  0  0  0  0  0  0  0  0  0  0  0  0
   -3.3493   -0.6048    5.0193 C   0  0  0  0  0  0  0  0  0  0  0  0
   -2.5350   -1.2914    5.9185 C   0  0  0  0  0  0  0  0  0  0  0  0
   -2.9155   -1.9619    7.0252 O   0  0  0  0  0  0  0  0  0  0  0  0
   -2.7129   -1.2806    8.2541 C   0  0  0  0  0  0  0  0  0  0  0  0
   -1.3677   -1.7132    8.8132 C   0  0  0  0  0  0  0  0  0  0  0  0
   -0.2344   -1.3552    7.8613 C   0  0  0  0  0  0  0  0  0  0  0  0
   -0.4570   -1.9959    6.6149 O   0  0  0  0  0  0  0  0  0  0  0  0
   -1.1726   -1.3161    5.6965 C   0  0  0  0  0  0  0  0  0  0  0  0
   -0.6423   -0.6568    4.5909 C   0  0  0  0  0  0  0  0  0  0  0  0
   -1.4537    0.0322    3.6959 C   0  0  0  0  0  0  0  0  0  0  0  0
   -0.9090    0.7053    2.5933 N   0  0  0  0  0  0  0  0  0  0  0  0
    0.1103    0.1347    1.8775 C   0  0  0  0  0  0  0  0  0  0  0  0
    0.3006   -1.0483    1.9433 O   0  0  0  0  0  0  0  0  0  0  0  0
    1.0000    1.0000    1.0000 C   0  0  0  0  0  0  0  0  0  0  0  0
    1.8725    1.8725    1.8725 C   0  0  0  0  0  0  0  0  0  0  0  0
    1.5047    3.1176    2.2943 N   0  0  0  0  0  0  0  0  0  0  0  0
    2.3902    3.7362    3.0439 C   0  0  0  0  0  0  0  0  0  0  0  0
    3.7213    2.6921    3.2037 S   0  0  0  0  0  0  0  0  0  0  0  0
    3.0904    1.4144    2.2671 C   0  0  0  0  0  0  0  0  0  0  0  0
    2.3098    5.0027    3.6197 N   0  0  0  0  0  0  0  0  0  0  0  0
    1.1662    5.7877    3.4279 C   0  0  0  0  0  0  0  0  0  0  0  0
    0.1311    5.3496    2.6955 N   0  0  0  0  0  0  0  0  0  0  0  0
   -0.9650    6.0997    2.5110 C   0  0  0  0  0  0  0  0  0  0  0  0
   -1.0675    7.3674    3.0754 C   0  0  0  0  0  0  0  0  0  0  0  0
   -2.5133    8.3812    2.8430 Cl  0  0  0  0  0  0  0  0  0  0  0  0
   -0.0026    7.8379    3.8371 C   0  0  0  0  0  0  0  0  0  0  0  0
    1.1267    7.0466    4.0189 C   0  0  0  0  0  0  0  0  0  0  0  0
   -2.8273    0.0585    3.9133 C   0  0  0  0  0  0  0  0  0  0  0  0
  1  2  1  0
  2  3  2  0
  3  4  1  0
  4  5  1  0
  5  6  1  0
  6  7  1  0
  7  8  1  0
  8  9  1  0
  9  3  1  0
  9 10  2  0
 10 11  1  0
 11 12  1  0
 12 13  1  0
 13 14  2  0
 13 15  1  0
 15 16  1  0
 16 17  1  0
 17 18  2  0
 18 19  1  0
 19 20  1  0
 16 20  2  0
 18 21  1  0
 21 22  1  0
 22 23  2  0
 23 24  1  0
 24 25  2  0
 25 26  1  0
 25 27  1  0
 27 28  2  0
 28 22  1  0
 11 29  2  0
 29  2  1  0
M  END
$$$$
s_274090____12937292____14418166
     RDKit          3D

 28 31  0  0  0  0  0  0  0  0999 V2000
    0.8770    5.7033    2.3119 Cl  0  0  0  0  0  0  0  0  0  0  0  0
    2.0079    4.9491    3.4610 C   0  0  0  0  0  0  0  0  0  0  0  0
    2.1119    3.5650    3.5650 C   0  0  0  0  0  0  0  0  0  0  0  0
    1.3043    2.7574    2.7574 N   0  0  0  0  0  0  0  0  0  0  0  0
    1.8776    1.8776    1.8776 C   0  0  0  0  0  0  0  0  0  0  0  0
    3.0725    1.7997    1.7997 O   0  0  0  0  0  0  0  0  0  0  0  0
    1.0000    1.0000    1.0000 C   0  0  0  0  0  0  0  0  0  0  0  0
    0.7171    1.6970   -0.2628 N   0  0  0  0  0  0  0  0  0  0  0  0
    1.2589    1.4257   -1.4245 N   0  0  0  0  0  0  0  0  0  0  0  0
    0.8207    2.1903   -2.3292 N   0  0  0  0  0  0  0  0  0  0  0  0
   -0.0738    3.0364   -1.7485 C   0  0  0  0  0  0  0  0  0  0  0  0
   -0.8194    4.0814   -2.4232 C   0  0  0  0  0  0  0  0  0  0  0  0
   -0.6665    5.3524   -2.0237 N   0  0  0  0  0  0  0  0  0  0  0  0
   -1.3288    6.3620   -2.6082 C   0  0  0  0  0  0  0  0  0  0  0  0
   -2.1981    6.0820   -3.6580 C   0  0  0  0  0  0  0  0  0  0  0  0
   -2.3509    4.8106   -4.0578 N   0  0  0  0  0  0  0  0  0  0  0  0
   -1.6889    3.8017   -3.4732 C   0  0  0  0  0  0  0  0  0  0  0  0
   -1.9092    2.3841   -3.9766 C   0  0  0  0  0  0  0  0  0  0  0  0
   -0.1504    2.7292   -0.4247 C   0  0  0  0  0  0  0  0  0  0  0  0
    3.0073    3.0004    4.4666 C   0  0  0  0  0  0  0  0  0  0  0  0
    3.7931    3.8085    5.2813 C   0  0  0  0  0  0  0  0  0  0  0  0
    4.6522    3.2108    6.1410 O   0  0  0  0  0  0  0  0  0  0  0  0
    5.8981    3.7994    6.4970 C   0  0  0  0  0  0  0  0  0  0  0  0
    5.7204    4.8465    7.5867 C   0  0  0  0  0  0  0  0  0  0  0  0
    4.5033    5.7229    7.3328 C   0  0  0  0  0  0  0  0  0  0  0  0
    4.3546    6.0535    5.9577 O   0  0  0  0  0  0  0  0  0  0  0  0
    3.6633    5.1941    5.1785 C   0  0  0  0  0  0  0  0  0  0  0  0
    2.7914    5.7701    4.2643 C   0  0  0  0  0  0  0  0  0  0  0  0
  1  2  1  0
  2  3  2  0
  3  4  1  0
  4  5  1  0
  5  6  2  0
  5  7  1  0
  7  8  1  0
  8  9  1  0
  9 10  2  0
 10 11  1  0
 11 12  1  0
 12 13  2  0
 13 14  1  0
 14 15  2  0
 15 16  1  0
 16 17  2  0
 17 12  1  0
 17 18  1  0
 11 19  2  0
 19  8  1  0
  3 20  1  0
 20 21  2  0
 21 22  1  0
 22 23  1  0
 23 24  1  0
 24 25  1  0
 25 26  1  0
 26 27  1  0
 27 21  1  0
 27 28  2  0
 28  2  1  0
M  END
$$$$
s_22____127815____7873282
     RDKit          3D

 30 34  0  0  0  0  0  0  0  0999 V2000
    0.4000    2.0392    1.0033 O   0  0  0  0  0  0  0  0  0  0  0  0
    1.0000    1.0000    1.0000 C   0  0  0  0  0  0  0  0  0  0  0  0
    0.3150   -0.1864    0.9962 N   0  0  0  0  0  0  0  0  0  0  0  0
   -1.0805   -0.1891    1.1019 C   0  0  0  0  0  0  0  0  0  0  0  0
   -1.6952   -1.1581    1.8883 C   0  0  0  0  0  0  0  0  0  0  0  0
   -3.0822   -1.1601    1.9927 C   0  0  0  0  0  0  0  0  0  0  0  0
   -3.7195   -2.1271    2.7797 N   0  0  0  0  0  0  0  0  0  0  0  0
   -4.4184   -3.2239    2.2850 C   0  0  0  0  0  0  0  0  0  0  0  0
   -4.5844   -3.5020    1.1095 O   0  0  0  0  0  0  0  0  0  0  0  0
   -4.9442   -4.0011    3.4745 C   0  0  0  0  0  0  0  0  0  0  0  0
   -4.9958   -2.9323    4.5471 C   0  0  0  0  0  0  0  0  0  0  0  0
   -3.7508   -2.1270    4.2431 C   0  0  0  0  0  0  0  0  0  0  0  0
   -3.8511   -0.2129    1.3244 C   0  0  0  0  0  0  0  0  0  0  0  0
   -3.2150    0.7461    0.5436 C   0  0  0  0  0  0  0  0  0  0  0  0
   -1.8295    0.7673    0.4245 C   0  0  0  0  0  0  0  0  0  0  0  0
    2.4502    1.0000    1.0000 C   0  0  0  0  0  0  0  0  0  0  0  0
    3.1559   -0.1424    0.9964 N   0  0  0  0  0  0  0  0  0  0  0  0
    4.4987   -0.1510    0.9963 C   0  0  0  0  0  0  0  0  0  0  0  0
    5.2029    1.0511    0.9994 C   0  0  0  0  0  0  0  0  0  0  0  0
    4.4898    2.2484    1.0032 C   0  0  0  0  0  0  0  0  0  0  0  0
    5.1038    3.4519    1.0066 O   0  0  0  0  0  0  0  0  0  0  0  0
    4.3311    4.6432    1.0104 C   0  0  0  0  0  0  0  0  0  0  0  0
    5.2581    5.8486    1.0138 C   0  0  0  0  0  0  0  0  0  0  0  0
    6.1408    5.8511   -0.2000 C   0  0  0  0  0  0  0  0  0  0  0  0
    6.7034    5.4603    1.1365 C   0  0  0  0  0  0  0  0  0  0  0  0
    3.0992    2.2298    1.0035 C   0  0  0  0  0  0  0  0  0  0  0  0
    6.5959    1.0234    0.9998 C   0  0  0  0  0  0  0  0  0  0  0  0
    7.3075   -0.1710    0.9963 C   0  0  0  0  0  0  0  0  0  0  0  0
    6.5973   -1.3665    0.9924 C   0  0  0  0  0  0  0  0  0  0  0  0
    5.2063   -1.3490    0.9928 C   0  0  0  0  0  0  0  0  0  0  0  0
  1  2  2  0
  2  3  1  0
  3  4  1  0
  4  5  2  0
  5  6  1  0
  6  7  1  0
  7  8  1  0
  8  9  2  0
  8 10  1  0
 10 11  1  0
 11 12  1  0
 12  7  1  0
  6 13  2  0
 13 14  1  0
 14 15  2  0
 15  4  1  0
  2 16  1  0
 16 17  2  0
 17 18  1  0
 18 19  2  0
 19 20  1  0
 20 21  1  0
 21 22  1  0
 22 23  1  0
 23 24  1  0
 24 25  1  0
 25 23  1  0
 20 26  2  0
 26 16  1  0
 19 27  1  0
 27 28  2  0
 28 29  1  0
 29 30  2  0
 30 18  1  0
M  END
$$$$
s_22____10707108____903526
     RDKit          3D

 30 32  0  0  0  0  0  0  0  0999 V2000
    1.8038    0.1417   -1.8619 Cl  0  0  0  0  0  0  0  0  0  0  0  0
    2.9107   -0.6606   -0.7218 C   0  0  0  0  0  0  0  0  0  0  0  0
    3.0951   -0.1802    0.5705 C   0  0  0  0  0  0  0  0  0  0  0  0
    3.9380   -0.8123    1.4000 N   0  0  0  0  0  0  0  0  0  0  0  0
    4.6133   -1.9041    1.0111 C   0  0  0  0  0  0  0  0  0  0  0  0
    4.4513   -2.3863   -0.2302 N   0  0  0  0  0  0  0  0  0  0  0  0
    3.6214   -1.7936   -1.1005 C   0  0  0  0  0  0  0  0  0  0  0  0
    5.4911   -2.5572    1.8834 N   0  0  0  0  0  0  0  0  0  0  0  0
    6.2200   -3.7521    1.4343 C   0  0  0  0  0  0  0  0  0  0  0  0
    7.5488   -3.3343    0.8172 C   0  0  0  0  0  0  0  0  0  0  0  0
    7.7597   -3.0480   -0.4475 O   0  0  0  0  0  0  0  0  0  0  0  0
    9.0195   -2.7261   -0.6462 C   0  0  0  0  0  0  0  0  0  0  0  0
    9.6691   -2.8105    0.5485 C   0  0  0  0  0  0  0  0  0  0  0  0
    8.7128   -3.2098    1.5108 C   0  0  0  0  0  0  0  0  0  0  0  0
    2.3700    1.0000    1.0000 C   0  0  0  0  0  0  0  0  0  0  0  0
    2.9700    1.9766    1.3554 O   0  0  0  0  0  0  0  0  0  0  0  0
    1.0000    1.0000    1.0000 N   0  0  0  0  0  0  0  0  0  0  0  0
    0.3002    2.2120    1.0000 C   0  0  0  0  0  0  0  0  0  0  0  0
    0.7640    3.2663    0.2206 C   0  0  0  0  0  0  0  0  0  0  0  0
    0.0585    4.4648    0.2300 C   0  0  0  0  0  0  0  0  0  0  0  0
    0.4863    5.4836   -0.5097 F   0  0  0  0  0  0  0  0  0  0  0  0
   -1.0894    4.6166    1.0009 C   0  0  0  0  0  0  0  0  0  0  0  0
   -1.9503    6.1290    0.9914 S   0  0  0  0  0  0  0  0  0  0  0  0
   -1.3172    6.8250    2.5376 C   0  0  0  0  0  0  0  0  0  0  0  0
   -2.2203    6.4095    3.6875 C   0  0  0  0  0  0  0  0  0  0  0  0
    0.0905    6.3086    2.7868 C   0  0  0  0  0  0  0  0  0  0  0  0
   -1.2902    8.3414    2.4371 C   0  0  0  0  0  0  0  0  0  0  0  0
   -1.5314    3.5469    1.7712 C   0  0  0  0  0  0  0  0  0  0  0  0
   -2.6284    3.6827    2.5111 F   0  0  0  0  0  0  0  0  0  0  0  0
   -0.8445    2.3374    1.7793 C   0  0  0  0  0  0  0  0  0  0  0  0
  1  2  1  0
  2  3  2  0
  3  4  1  0
  4  5  2  0
  5  6  1  0
  6  7  2  0
  7  2  1  0
  5  8  1  0
  8  9  1  0
  9 10  1  0
 10 11  1  0
 11 12  1  0
 12 13  2  0
 13 14  1  0
 10 14  2  0
  3 15  1  0
 15 16  2  0
 15 17  1  0
 17 18  1  0
 18 19  2  0
 19 20  1  0
 20 21  1  0
 20 22  2  0
 22 23  1  0
 23 24  1  0
 24 25  1  0
 24 26  1  0
 24 27  1  0
 22 28  1  0
 28 29  1  0
 28 30  2  0
 30 18  1  0
M  END
$$$$
s_2430a____740276____15752898
     RDKit          3D

 29 32  0  0  0  0  0  0  0  0999 V2000
    5.1601    0.6807   -0.0278 Cl  0  0  0  0  0  0  0  0  0  0  0  0
    4.3809   -0.3145    1.2251 C   0  0  0  0  0  0  0  0  0  0  0  0
    3.0699   -0.0498    1.6061 C   0  0  0  0  0  0  0  0  0  0  0  0
    2.3700    1.0000    1.0000 N   0  0  0  0  0  0  0  0  0  0  0  0
    1.0000    1.0000    1.0000 C   0  0  0  0  0  0  0  0  0  0  0  0
    0.4000   -0.0392    1.0000 O   0  0  0  0  0  0  0  0  0  0  0  0
    0.3150    2.1865    1.0000 N   0  0  0  0  0  0  0  0  0  0  0  0
   -1.1550    2.1865    1.0000 C   0  0  0  0  0  0  0  0  0  0  0  0
   -1.6620    2.1865    2.4341 C   0  0  0  0  0  0  0  0  0  0  0  0
   -1.8987    1.0470    3.1036 N   0  0  0  0  0  0  0  0  0  0  0  0
   -2.3480    1.0238    4.3709 C   0  0  0  0  0  0  0  0  0  0  0  0
   -2.5863   -0.1422    5.0549 N   0  0  0  0  0  0  0  0  0  0  0  0
   -3.0417   -0.1492    6.3508 C   0  0  0  0  0  0  0  0  0  0  0  0
   -3.2512   -1.1880    6.9586 O   0  0  0  0  0  0  0  0  0  0  0  0
   -3.2813    1.0773    7.0270 C   0  0  0  0  0  0  0  0  0  0  0  0
   -3.0494    2.2534    6.3617 C   0  0  0  0  0  0  0  0  0  0  0  0
   -2.5780    2.2314    5.0215 C   0  0  0  0  0  0  0  0  0  0  0  0
   -2.3467    3.4364    4.3671 C   0  0  0  0  0  0  0  0  0  0  0  0
   -1.8838    3.4112    3.0560 C   0  0  0  0  0  0  0  0  0  0  0  0
    2.4517   -0.8207    2.5843 C   0  0  0  0  0  0  0  0  0  0  0  0
    3.1667   -1.8583    3.1721 C   0  0  0  0  0  0  0  0  0  0  0  0
    2.5484   -2.6367    4.1571 N   0  0  0  0  0  0  0  0  0  0  0  0
    2.6302   -2.4028    5.5263 C   0  0  0  0  0  0  0  0  0  0  0  0
    3.2482   -1.5019    6.0677 O   0  0  0  0  0  0  0  0  0  0  0  0
    1.8208   -3.4795    6.2197 C   0  0  0  0  0  0  0  0  0  0  0  0
    1.8364   -4.5921    5.1915 C   0  0  0  0  0  0  0  0  0  0  0  0
    1.7255   -3.8186    3.8953 C   0  0  0  0  0  0  0  0  0  0  0  0
    4.4773   -2.1284    2.7928 C   0  0  0  0  0  0  0  0  0  0  0  0
    5.0922   -1.3534    1.8148 C   0  0  0  0  0  0  0  0  0  0  0  0
  1  2  1  0
  2  3  2  0
  3  4  1  0
  4  5  1  0
  5  6  2  0
  5  7  1  0
  7  8  1  0
  8  9  1  0
  9 10  2  0
 10 11  1  0
 11 12  1  0
 12 13  1  0
 13 14  2  0
 13 15  1  0
 15 16  2  0
 16 17  1  0
 17 11  2  0
 17 18  1  0
 18 19  2  0
 19  9  1  0
  3 20  1  0
 20 21  2  0
 21 22  1  0
 22 23  1  0
 23 24  2  0
 23 25  1  0
 25 26  1  0
 26 27  1  0
 27 22  1  0
 21 28  1  0
 28 29  2  0
 29  2  1  0
M  END
$$$$
s_2718____9148450____8251538
     RDKit          3D

 35 38  0  0  0  0  0  0  0  0999 V2000
    4.3902    0.1566   -0.1794 F   0  0  0  0  0  0  0  0  0  0  0  0
    5.1051    1.1719    0.2947 C   0  0  0  0  0  0  0  0  0  0  0  0
    4.4517    2.2121    0.9473 C   0  0  0  0  0  0  0  0  0  0  0  0
    3.0615    2.1932    1.1044 N   0  0  0  0  0  0  0  0  0  0  0  0
    2.3700    1.0000    1.0000 N   0  0  0  0  0  0  0  0  0  0  0  0
    1.0000    1.0000    1.0000 C   0  0  0  0  0  0  0  0  0  0  0  0
    0.4000   -0.0392    1.0000 O   0  0  0  0  0  0  0  0  0  0  0  0
    0.2400    2.3164    1.0000 C   0  0  0  0  0  0  0  0  0  0  0  0
    0.1729    2.9705   -0.0038 O   0  0  0  0  0  0  0  0  0  0  0  0
   -0.3684    2.7560    2.1460 N   0  0  0  0  0  0  0  0  0  0  0  0
   -1.3911    3.7080    2.0741 C   0  0  0  0  0  0  0  0  0  0  0  0
   -1.5767    4.7515    2.9246 N   0  0  0  0  0  0  0  0  0  0  0  0
   -2.6342    5.4312    2.5502 N   0  0  0  0  0  0  0  0  0  0  0  0
   -3.1550    4.8749    1.4845 C   0  0  0  0  0  0  0  0  0  0  0  0
   -2.3770    3.7479    1.1397 C   0  0  0  0  0  0  0  0  0  0  0  0
   -4.3897    5.3603    0.7430 C   0  0  0  0  0  0  0  0  0  0  0  0
   -4.0047    6.4921   -0.1957 C   0  0  0  0  0  0  0  0  0  0  0  0
   -4.9809    4.2140   -0.0613 C   0  0  0  0  0  0  0  0  0  0  0  0
   -0.7685    5.0531    4.0276 C   0  0  0  0  0  0  0  0  0  0  0  0
    0.2763    5.8839    3.8938 N   0  0  0  0  0  0  0  0  0  0  0  0
    1.0657    6.1896    4.9341 C   0  0  0  0  0  0  0  0  0  0  0  0
    0.7963    5.6338    6.1794 C   0  0  0  0  0  0  0  0  0  0  0  0
   -0.2901    4.7750    6.3008 C   0  0  0  0  0  0  0  0  0  0  0  0
   -1.0417    4.5087    5.2226 N   0  0  0  0  0  0  0  0  0  0  0  0
    5.1924    3.2780    1.4455 C   0  0  0  0  0  0  0  0  0  0  0  0
    4.5750    4.2770    2.0698 F   0  0  0  0  0  0  0  0  0  0  0  0
    6.5748    3.3119    1.2980 C   0  0  0  0  0  0  0  0  0  0  0  0
    7.2050    2.2599    0.6423 C   0  0  0  0  0  0  0  0  0  0  0  0
    6.4863    1.1830    0.1349 C   0  0  0  0  0  0  0  0  0  0  0  0
    8.6450    2.2824    0.4829 C   0  0  0  0  0  0  0  0  0  0  0  0
    9.2174    1.3146    0.0636 O   0  0  0  0  0  0  0  0  0  0  0  0
    9.3530    3.4084    0.8110 N   0  0  0  0  0  0  0  0  0  0  0  0
   10.8123    3.4312    0.6495 C   0  0  0  0  0  0  0  0  0  0  0  0
   11.5087    3.6845    1.9553 C   0  0  0  0  0  0  0  0  0  0  0  0
   11.3890    4.7866    0.9416 C   0  0  0  0  0  0  0  0  0  0  0  0
  1  2  1  0
  2  3  2  0
  3  4  1  0
  4  5  1  0
  5  6  1  0
  6  7  2  0
  6  8  1  0
  8  9  2  0
  8 10  1  0
 10 11  1  0
 11 12  1  0
 12 13  1  0
 13 14  2  0
 14 15  1  0
 11 15  2  0
 14 16  1  0
 16 17  1  0
 16 18  1  0
 12 19  1  0
 19 20  2  0
 20 21  1  0
 21 22  2  0
 22 23  1  0
 23 24  2  0
 24 19  1  0
  3 25  1  0
 25 26  1  0
 25 27  2  0
 27 28  1  0
 28 29  2  0
 29  2  1  0
 28 30  1  0
 30 31  2  0
 30 32  1  0
 32 33  1  0
 33 34  1  0
 34 35  1  0
 35 33  1  0
M  END
$$$$
s_22____470104____7119376
     RDKit          3D

 31 35  0  0  0  0  0  0  0  0999 V2000
   -2.1465    8.5889    0.6079 Cl  0  0  0  0  0  0  0  0  0  0  0  0
   -1.2389    7.0586    0.6012 C   0  0  0  0  0  0  0  0  0  0  0  0
    0.0860    7.0601    0.1827 C   0  0  0  0  0  0  0  0  0  0  0  0
    0.6730    8.1852   -0.2089 F   0  0  0  0  0  0  0  0  0  0  0  0
    0.7878    5.8608    0.1798 C   0  0  0  0  0  0  0  0  0  0  0  0
    0.1975    4.6671    0.5853 C   0  0  0  0  0  0  0  0  0  0  0  0
   -1.1305    4.6548    1.0065 C   0  0  0  0  0  0  0  0  0  0  0  0
   -1.7263    3.4817    1.4083 N   0  0  0  0  0  0  0  0  0  0  0  0
   -1.0339    2.2987    1.4051 C   0  0  0  0  0  0  0  0  0  0  0  0
    0.2747    2.2562    1.0000 C   0  0  0  0  0  0  0  0  0  0  0  0
    1.0000    1.0000    1.0000 C   0  0  0  0  0  0  0  0  0  0  0  0
    0.4000   -0.0392    1.0000 O   0  0  0  0  0  0  0  0  0  0  0  0
    2.3700    1.0000    1.0000 N   0  0  0  0  0  0  0  0  0  0  0  0
    3.0703   -0.1397    0.5852 C   0  0  0  0  0  0  0  0  0  0  0  0
    3.9401   -0.7832    1.4571 C   0  0  0  0  0  0  0  0  0  0  0  0
    4.1584   -0.1510    3.1073 Cl  0  0  0  0  0  0  0  0  0  0  0  0
    4.6282   -1.9094    1.0117 C   0  0  0  0  0  0  0  0  0  0  0  0
    4.4689   -2.4084   -0.2777 C   0  0  0  0  0  0  0  0  0  0  0  0
    5.0919   -3.4705   -0.8098 O   0  0  0  0  0  0  0  0  0  0  0  0
    6.1819   -3.2055   -1.6739 C   0  0  0  0  0  0  0  0  0  0  0  0
    5.6457   -3.1566   -3.0962 C   0  0  0  0  0  0  0  0  0  0  0  0
    4.5945   -2.0707   -3.2529 C   0  0  0  0  0  0  0  0  0  0  0  0
    3.5193   -2.3126   -2.3645 O   0  0  0  0  0  0  0  0  0  0  0  0
    3.6055   -1.7690   -1.1342 C   0  0  0  0  0  0  0  0  0  0  0  0
    2.9106   -0.6412   -0.7030 C   0  0  0  0  0  0  0  0  0  0  0  0
    0.9264    3.4458    0.5781 C   0  0  0  0  0  0  0  0  0  0  0  0
    2.0937    3.3794    0.2211 O   0  0  0  0  0  0  0  0  0  0  0  0
   -3.1257    3.4241    1.8602 C   0  0  0  0  0  0  0  0  0  0  0  0
   -3.2506    2.7253    3.1833 C   0  0  0  0  0  0  0  0  0  0  0  0
   -3.6400    2.0145    1.9186 C   0  0  0  0  0  0  0  0  0  0  0  0
   -1.8235    5.8640    1.0042 C   0  0  0  0  0  0  0  0  0  0  0  0
  1  2  1  0
  2  3  2  0
  3  4  1  0
  3  5  1  0
  5  6  2  0
  6  7  1  0
  7  8  1  0
  8  9  1  0
  9 10  2  0
 10 11  1  0
 11 12  2  0
 11 13  1  0
 13 14  1  0
 14 15  2  0
 15 16  1  0
 15 17  1  0
 17 18  2  0
 18 19  1  0
 19 20  1  0
 20 21  1  0
 21 22  1  0
 22 23  1  0
 23 24  1  0
 24 18  1  0
 24 25  2  0
 25 14  1  0
 10 26  1  0
 26  6  1  0
 26 27  2  0
  8 28  1  0
 28 29  1  0
 29 30  1  0
 30 28  1  0
  7 31  2  0
 31  2  1  0
M  END
$$$$
s_22____107200____60334
     RDKit          3D

 29 32  0  0  0  0  0  0  0  0999 V2000
    0.6517    1.8583   -0.5550 S   0  0  0  0  0  0  0  0  0  0  0  0
   -0.3360    0.6471   -1.3191 C   0  0  0  0  0  0  0  0  0  0  0  0
   -0.6750   -0.5199   -0.8301 N   0  0  0  0  0  0  0  0  0  0  0  0
   -1.4303   -1.1909   -1.6700 N   0  0  0  0  0  0  0  0  0  0  0  0
   -1.5859   -0.4466   -2.7357 C   0  0  0  0  0  0  0  0  0  0  0  0
   -0.9092    0.7192   -2.5469 N   0  0  0  0  0  0  0  0  0  0  0  0
   -0.8177    1.8471   -3.4916 C   0  0  0  0  0  0  0  0  0  0  0  0
   -1.9593    2.8172   -3.2345 C   0  0  0  0  0  0  0  0  0  0  0  0
   -2.3555   -0.8040   -3.9143 C   0  0  0  0  0  0  0  0  0  0  0  0
   -3.6642   -0.7244   -4.0388 O   0  0  0  0  0  0  0  0  0  0  0  0
   -4.0425   -1.1349   -5.2278 C   0  0  0  0  0  0  0  0  0  0  0  0
   -2.9270   -1.5041   -5.9179 C   0  0  0  0  0  0  0  0  0  0  0  0
   -1.8177   -1.2920   -5.0677 C   0  0  0  0  0  0  0  0  0  0  0  0
    1.0000    1.0000    1.0000 C   0  0  0  0  0  0  0  0  0  0  0  0
    1.8776    1.8776    1.8776 C   0  0  0  0  0  0  0  0  0  0  0  0
    2.9588    2.2240    1.4891 O   0  0  0  0  0  0  0  0  0  0  0  0
    1.4341    2.2731    3.1120 N   0  0  0  0  0  0  0  0  0  0  0  0
    2.3511    2.5051    4.1439 C   0  0  0  0  0  0  0  0  0  0  0  0
    3.1754    1.4667    4.5656 C   0  0  0  0  0  0  0  0  0  0  0  0
    4.0869    1.6975    5.5909 C   0  0  0  0  0  0  0  0  0  0  0  0
    4.1661    2.9545    6.1810 C   0  0  0  0  0  0  0  0  0  0  0  0
    5.0834    3.1865    7.2126 N   0  0  0  0  0  0  0  0  0  0  0  0
    5.3045    2.3340    8.2898 C   0  0  0  0  0  0  0  0  0  0  0  0
    4.7374    1.2750    8.4988 O   0  0  0  0  0  0  0  0  0  0  0  0
    6.3696    2.9693    9.1601 C   0  0  0  0  0  0  0  0  0  0  0  0
    6.2328    4.4347    8.8005 C   0  0  0  0  0  0  0  0  0  0  0  0
    5.9458    4.3647    7.3161 C   0  0  0  0  0  0  0  0  0  0  0  0
    3.3420    3.9932    5.7594 C   0  0  0  0  0  0  0  0  0  0  0  0
    2.4303    3.7622    4.7342 C   0  0  0  0  0  0  0  0  0  0  0  0
  1  2  1  0
  2  3  2  0
  3  4  1  0
  4  5  2  0
  5  6  1  0
  6  2  1  0
  6  7  1  0
  7  8  1  0
  5  9  1  0
  9 10  1  0
 10 11  1  0
 11 12  2  0
 12 13  1  0
  9 13  2  0
  1 14  1  0
 14 15  1  0
 15 16  2  0
 15 17  1  0
 17 18  1  0
 18 19  2  0
 19 20  1  0
 20 21  2  0
 21 22  1  0
 22 23  1  0
 23 24  2  0
 23 25  1  0
 25 26  1  0
 26 27  1  0
 27 22  1  0
 21 28  1  0
 28 29  2  0
 29 18  1  0
M  END
$$$$
s_11a____4786906____246127
     RDKit          3D

 29 32  0  0  0  0  0  0  0  0999 V2000
   -3.3459    4.8108    2.2654 F   0  0  0  0  0  0  0  0  0  0  0  0
   -2.8523    3.6258    1.9209 C   0  0  0  0  0  0  0  0  0  0  0  0
   -3.6644    2.4976    1.9560 C   0  0  0  0  0  0  0  0  0  0  0  0
   -5.0000    2.6181    2.3545 N   0  0  0  0  0  0  0  0  0  0  0  0
   -5.4237    2.8921    3.6512 C   0  0  0  0  0  0  0  0  0  0  0  0
   -4.7068    3.0601    4.6231 O   0  0  0  0  0  0  0  0  0  0  0  0
   -6.9381    2.9311    3.6350 C   0  0  0  0  0  0  0  0  0  0  0  0
   -7.2590    2.0776    2.4250 C   0  0  0  0  0  0  0  0  0  0  0  0
   -6.1545    2.4691    1.4671 C   0  0  0  0  0  0  0  0  0  0  0  0
   -3.1494    1.2567    1.5955 C   0  0  0  0  0  0  0  0  0  0  0  0
   -1.8209    1.1429    1.1996 C   0  0  0  0  0  0  0  0  0  0  0  0
   -1.0214    2.2802    1.1696 C   0  0  0  0  0  0  0  0  0  0  0  0
    0.3150    2.1639    0.7699 N   0  0  0  0  0  0  0  0  0  0  0  0
    1.0000    1.0000    1.0000 C   0  0  0  0  0  0  0  0  0  0  0  0
    0.4000   -0.0195    1.2015 O   0  0  0  0  0  0  0  0  0  0  0  0
    2.4506    1.0000    1.0000 C   0  0  0  0  0  0  0  0  0  0  0  0
    3.2091   -0.0516    1.2079 O   0  0  0  0  0  0  0  0  0  0  0  0
    4.4735    0.2929    1.1404 C   0  0  0  0  0  0  0  0  0  0  0  0
    4.5613    1.6266    0.8746 C   0  0  0  0  0  0  0  0  0  0  0  0
    3.2324    2.0917    0.7821 C   0  0  0  0  0  0  0  0  0  0  0  0
    5.6534   -0.6466    1.3274 C   0  0  0  0  0  0  0  0  0  0  0  0
    6.0349   -1.2193    0.0273 N   0  0  0  0  0  0  0  0  0  0  0  0
    6.9617   -0.5821   -0.7585 C   0  0  0  0  0  0  0  0  0  0  0  0
    7.4908    0.4613   -0.4111 O   0  0  0  0  0  0  0  0  0  0  0  0
    7.3176   -1.1491   -2.0117 C   0  0  0  0  0  0  0  0  0  0  0  0
    6.7304   -2.3213   -2.4150 C   0  0  0  0  0  0  0  0  0  0  0  0
    5.7735   -2.9606   -1.5810 C   0  0  0  0  0  0  0  0  0  0  0  0
    5.4488   -2.3909   -0.3772 C   0  0  0  0  0  0  0  0  0  0  0  0
   -1.5222    3.5276    1.5266 C   0  0  0  0  0  0  0  0  0  0  0  0
  1  2  1  0
  2  3  2  0
  3  4  1  0
  4  5  1  0
  5  6  2  0
  5  7  1  0
  7  8  1  0
  8  9  1  0
  9  4  1  0
  3 10  1  0
 10 11  2  0
 11 12  1  0
 12 13  1  0
 13 14  1  0
 14 15  2  0
 14 16  1  0
 16 17  1  0
 17 18  1  0
 18 19  2  0
 19 20  1  0
 16 20  2  0
 18 21  1  0
 21 22  1  0
 22 23  1  0
 23 24  2  0
 23 25  1  0
 25 26  2  0
 26 27  1  0
 27 28  2  0
 28 22  1  0
 12 29  2  0
 29  2  1  0
M  END
$$$$
m_274860a____17146992____12536600____12655686
     RDKit          3D

 27 30  0  0  0  0  0  0  0  0999 V2000
    1.9369   -0.9165   -0.9206 F   0  0  0  0  0  0  0  0  0  0  0  0
    2.8422   -1.1685    0.0194 C   0  0  0  0  0  0  0  0  0  0  0  0
    3.0826   -0.2117    1.0000 C   0  0  0  0  0  0  0  0  0  0  0  0
    2.3830    1.0000    1.0000 N   0  0  0  0  0  0  0  0  0  0  0  0
    1.0000    1.0000    1.0000 N   0  0  0  0  0  0  0  0  0  0  0  0
    0.3150    2.1865    1.0000 C   0  0  0  0  0  0  0  0  0  0  0  0
    0.9150    3.2257    1.0000 O   0  0  0  0  0  0  0  0  0  0  0  0
   -1.2050    2.1865    1.0000 C   0  0  0  0  0  0  0  0  0  0  0  0
   -1.6950    2.1865    2.3860 N   0  0  0  0  0  0  0  0  0  0  0  0
   -1.9497    3.2509    3.1064 N   0  0  0  0  0  0  0  0  0  0  0  0
   -2.3587    2.9328    4.2585 N   0  0  0  0  0  0  0  0  0  0  0  0
   -2.3849    1.5722    4.3269 C   0  0  0  0  0  0  0  0  0  0  0  0
   -1.9610    1.0821    3.1321 C   0  0  0  0  0  0  0  0  0  0  0  0
   -2.8156    0.7455    5.5282 C   0  0  0  0  0  0  0  0  0  0  0  0
   -3.9828   -0.1334    5.1852 C   0  0  0  0  0  0  0  0  0  0  0  0
   -4.1922    1.1053    6.0082 C   0  0  0  0  0  0  0  0  0  0  0  0
    4.0284   -0.4675    1.9864 C   0  0  0  0  0  0  0  0  0  0  0  0
    4.2648    0.4427    2.9270 F   0  0  0  0  0  0  0  0  0  0  0  0
    4.7320   -1.6669    2.0009 C   0  0  0  0  0  0  0  0  0  0  0  0
    4.4735   -2.6078    1.0100 C   0  0  0  0  0  0  0  0  0  0  0  0
    3.5328   -2.3754    0.0127 C   0  0  0  0  0  0  0  0  0  0  0  0
    5.1989   -3.8621    1.0143 C   0  0  0  0  0  0  0  0  0  0  0  0
    6.3443   -3.8916    1.3709 O   0  0  0  0  0  0  0  0  0  0  0  0
    4.5771   -5.0144    0.6113 N   0  0  0  0  0  0  0  0  0  0  0  0
    5.3122   -6.2855    0.6156 C   0  0  0  0  0  0  0  0  0  0  0  0
    5.3802   -6.8891   -0.7575 C   0  0  0  0  0  0  0  0  0  0  0  0
    4.4286   -7.4471    0.2621 C   0  0  0  0  0  0  0  0  0  0  0  0
  1  2  1  0
  2  3  2  0
  3  4  1  0
  4  5  1  0
  5  6  1  0
  6  7  2  0
  6  8  1  0
  8  9  1  0
  9 10  1  0
 10 11  2  0
 11 12  1  0
 12 13  2  0
 13  9  1  0
 12 14  1  0
 14 15  1  0
 15 16  1  0
 16 14  1  0
  3 17  1  0
 17 18  1  0
 17 19  2  0
 19 20  1  0
 20 21  2  0
 21  2  1  0
 20 22  1  0
 22 23  2  0
 22 24  1  0
 24 25  1  0
 25 26  1  0
 26 27  1  0
 27 25  1  0
M  END
$$$$
s_527a____2016380____12218672
     RDKit          3D

 30 33  0  0  0  0  0  0  0  0999 V2000
    6.2351   -0.1670   -3.1938 Cl  0  0  0  0  0  0  0  0  0  0  0  0
    4.7297   -0.7130   -2.4166 C   0  0  0  0  0  0  0  0  0  0  0  0
    3.7964   -1.5045   -3.0898 C   0  0  0  0  0  0  0  0  0  0  0  0
    3.9440   -1.9044   -4.3742 O   0  0  0  0  0  0  0  0  0  0  0  0
    2.8364   -2.1288   -5.2421 C   0  0  0  0  0  0  0  0  0  0  0  0
    1.5878   -2.5927   -4.5015 C   0  0  0  0  0  0  0  0  0  0  0  0
    1.7749   -2.6976   -3.0934 O   0  0  0  0  0  0  0  0  0  0  0  0
    2.6491   -1.9145   -2.4247 C   0  0  0  0  0  0  0  0  0  0  0  0
    2.4403   -1.5118   -1.1084 C   0  0  0  0  0  0  0  0  0  0  0  0
    3.3585   -0.7122   -0.4341 C   0  0  0  0  0  0  0  0  0  0  0  0
    4.5150   -0.3164   -1.1001 C   0  0  0  0  0  0  0  0  0  0  0  0
    3.1050   -0.2731    1.0000 C   0  0  0  0  0  0  0  0  0  0  0  0
    2.3700    1.0000    1.0000 N   0  0  0  0  0  0  0  0  0  0  0  0
    1.0000    1.0000    1.0000 C   0  0  0  0  0  0  0  0  0  0  0  0
    0.4000   -0.0392    1.0000 O   0  0  0  0  0  0  0  0  0  0  0  0
    0.2745    2.2566    1.0000 C   0  0  0  0  0  0  0  0  0  0  0  0
   -1.1444    2.2504    1.0000 C   0  0  0  0  0  0  0  0  0  0  0  0
   -1.6523    1.1632    0.9997 O   0  0  0  0  0  0  0  0  0  0  0  0
   -1.8930    3.4685    1.0003 C   0  0  0  0  0  0  0  0  0  0  0  0
   -3.2941    3.5397    1.0011 C   0  0  0  0  0  0  0  0  0  0  0  0
   -4.1432    2.4015    1.0049 O   0  0  0  0  0  0  0  0  0  0  0  0
   -5.5534    2.5678    1.0055 C   0  0  0  0  0  0  0  0  0  0  0  0
   -3.9687    4.7525    0.9999 C   0  0  0  0  0  0  0  0  0  0  0  0
   -3.2028    5.9106    0.9980 C   0  0  0  0  0  0  0  0  0  0  0  0
   -3.9023    7.1464    0.9956 O   0  0  0  0  0  0  0  0  0  0  0  0
   -3.1818    8.3700    0.9935 C   0  0  0  0  0  0  0  0  0  0  0  0
   -1.8122    5.8829    0.9976 C   0  0  0  0  0  0  0  0  0  0  0  0
   -1.1616    4.6535    0.9993 C   0  0  0  0  0  0  0  0  0  0  0  0
    0.2095    4.6426    0.9987 N   0  0  0  0  0  0  0  0  0  0  0  0
    0.9164    3.4680    0.9992 C   0  0  0  0  0  0  0  0  0  0  0  0
  1  2  1  0
  2  3  2  0
  3  4  1  0
  4  5  1  0
  5  6  1  0
  6  7  1  0
  7  8  1  0
  8  3  1  0
  8  9  2  0
  9 10  1  0
 10 11  2  0
 11  2  1  0
 10 12  1  0
 12 13  1  0
 13 14  1  0
 14 15  2  0
 14 16  1  0
 16 17  1  0
 17 18  2  0
 17 19  1  0
 19 20  2  0
 20 21  1  0
 21 22  1  0
 20 23  1  0
 23 24  2  0
 24 25  1  0
 25 26  1  0
 24 27  1  0
 27 28  2  0
 28 19  1  0
 28 29  1  0
 29 30  1  0
 16 30  2  0
M  END
$$$$
s_11a____4786906____10159058
     RDKit          3D

 29 32  0  0  0  0  0  0  0  0999 V2000
    2.8869   -3.6364    0.0616 F   0  0  0  0  0  0  0  0  0  0  0  0
    3.3151   -2.3850   -0.0689 C   0  0  0  0  0  0  0  0  0  0  0  0
    4.4604   -2.1157   -0.8099 C   0  0  0  0  0  0  0  0  0  0  0  0
    5.1563   -3.1675   -1.4154 N   0  0  0  0  0  0  0  0  0  0  0  0
    5.8089   -4.1894   -0.7329 C   0  0  0  0  0  0  0  0  0  0  0  0
    5.8774   -4.3182    0.4777 O   0  0  0  0  0  0  0  0  0  0  0  0
    6.4277   -5.1045   -1.7697 C   0  0  0  0  0  0  0  0  0  0  0  0
    6.5702   -4.1768   -2.9590 C   0  0  0  0  0  0  0  0  0  0  0  0
    5.3071   -3.3489   -2.8600 C   0  0  0  0  0  0  0  0  0  0  0  0
    4.9098   -0.8065   -0.9476 C   0  0  0  0  0  0  0  0  0  0  0  0
    4.2136    0.2353   -0.3438 C   0  0  0  0  0  0  0  0  0  0  0  0
    3.0698   -0.0498    0.3939 C   0  0  0  0  0  0  0  0  0  0  0  0
    2.3700    1.0000    1.0000 N   0  0  0  0  0  0  0  0  0  0  0  0
    1.0000    1.0000    1.0000 C   0  0  0  0  0  0  0  0  0  0  0  0
    0.4000   -0.0392    1.0000 O   0  0  0  0  0  0  0  0  0  0  0  0
    0.2710    2.2627    1.0000 C   0  0  0  0  0  0  0  0  0  0  0  0
   -0.6072    2.6882    1.9488 N   0  0  0  0  0  0  0  0  0  0  0  0
   -1.0653    3.8344    1.6237 N   0  0  0  0  0  0  0  0  0  0  0  0
   -0.5452    4.2225    0.4804 N   0  0  0  0  0  0  0  0  0  0  0  0
    0.3029    3.2489    0.0697 C   0  0  0  0  0  0  0  0  0  0  0  0
    1.1365    3.2509   -1.2011 C   0  0  0  0  0  0  0  0  0  0  0  0
   -0.8300    5.4845   -0.2157 C   0  0  0  0  0  0  0  0  0  0  0  0
    0.1429    6.5531    0.2545 C   0  0  0  0  0  0  0  0  0  0  0  0
   -0.1819    7.3497    1.3463 C   0  0  0  0  0  0  0  0  0  0  0  0
    0.7268    8.3200    1.7546 C   0  0  0  0  0  0  0  0  0  0  0  0
    1.8914    8.4831    1.1090 N   0  0  0  0  0  0  0  0  0  0  0  0
    2.2207    7.7236    0.0540 C   0  0  0  0  0  0  0  0  0  0  0  0
    1.3542    6.7361   -0.4032 C   0  0  0  0  0  0  0  0  0  0  0  0
    2.6082   -1.3535    0.5401 C   0  0  0  0  0  0  0  0  0  0  0  0
  1  2  1  0
  2  3  2  0
  3  4  1  0
  4  5  1  0
  5  6  2  0
  5  7  1  0
  7  8  1  0
  8  9  1  0
  9  4  1  0
  3 10  1  0
 10 11  2  0
 11 12  1  0
 12 13  1  0
 13 14  1  0
 14 15  2  0
 14 16  1  0
 16 17  1  0
 17 18  2  0
 18 19  1  0
 19 20  1  0
 16 20  2  0
 20 21  1  0
 19 22  1  0
 22 23  1  0
 23 24  2  0
 24 25  1  0
 25 26  2  0
 26 27  1  0
 27 28  2  0
 28 23  1  0
 12 29  2  0
 29  2  1  0
M  END
$$$$
s_274090____12937292____12385960
     RDKit          3D

 28 31  0  0  0  0  0  0  0  0999 V2000
    3.1207   -3.1510   -1.5322 Cl  0  0  0  0  0  0  0  0  0  0  0  0
    2.4326   -1.9484   -2.6496 C   0  0  0  0  0  0  0  0  0  0  0  0
    1.8601   -0.7712   -2.1765 C   0  0  0  0  0  0  0  0  0  0  0  0
    1.8182   -0.5388   -0.7979 N   0  0  0  0  0  0  0  0  0  0  0  0
    1.7037    0.7408   -0.3221 C   0  0  0  0  0  0  0  0  0  0  0  0
    2.1590    1.6571   -0.9492 O   0  0  0  0  0  0  0  0  0  0  0  0
    1.0000    1.0000    1.0000 C   0  0  0  0  0  0  0  0  0  0  0  0
    1.8488    1.8488    1.8488 N   0  0  0  0  0  0  0  0  0  0  0  0
    1.8340    3.1586    1.8770 N   0  0  0  0  0  0  0  0  0  0  0  0
    2.6750    3.6048    2.7074 N   0  0  0  0  0  0  0  0  0  0  0  0
    3.2987    2.5366    3.2787 C   0  0  0  0  0  0  0  0  0  0  0  0
    2.7775    1.4046    2.7360 C   0  0  0  0  0  0  0  0  0  0  0  0
    4.3847    2.5985    4.3395 C   0  0  0  0  0  0  0  0  0  0  0  0
    3.7679    2.5845    5.6737 N   0  0  0  0  0  0  0  0  0  0  0  0
    3.5296    1.3636    6.3240 C   0  0  0  0  0  0  0  0  0  0  0  0
    2.8232    1.2185    7.8663 S   0  0  0  0  0  0  0  0  0  0  0  0
    2.8882   -0.4795    7.9358 C   0  0  0  0  0  0  0  0  0  0  0  0
    3.4577   -0.8526    6.7537 C   0  0  0  0  0  0  0  0  0  0  0  0
    3.7974    0.1582    5.8899 N   0  0  0  0  0  0  0  0  0  0  0  0
    1.3345    0.1550   -3.0706 C   0  0  0  0  0  0  0  0  0  0  0  0
    1.3609   -0.0909   -4.4392 C   0  0  0  0  0  0  0  0  0  0  0  0
    0.8391    0.8434   -5.2693 O   0  0  0  0  0  0  0  0  0  0  0  0
    1.3583    1.0700   -6.5748 C   0  0  0  0  0  0  0  0  0  0  0  0
    0.8138    0.0535   -7.5675 C   0  0  0  0  0  0  0  0  0  0  0  0
    0.7953   -1.3508   -6.9830 C   0  0  0  0  0  0  0  0  0  0  0  0
    1.9521   -1.6249   -6.2027 O   0  0  0  0  0  0  0  0  0  0  0  0
    1.9211   -1.2845   -4.8963 C   0  0  0  0  0  0  0  0  0  0  0  0
    2.4721   -2.2055   -4.0155 C   0  0  0  0  0  0  0  0  0  0  0  0
  1  2  1  0
  2  3  2  0
  3  4  1  0
  4  5  1  0
  5  6  2  0
  5  7  1  0
  7  8  1  0
  8  9  1  0
  9 10  2  0
 10 11  1  0
 11 12  2  0
 12  8  1  0
 11 13  1  0
 13 14  1  0
 14 15  1  0
 15 16  1  0
 16 17  1  0
 17 18  2  0
 18 19  1  0
 15 19  2  0
  3 20  1  0
 20 21  2  0
 21 22  1  0
 22 23  1  0
 23 24  1  0
 24 25  1  0
 25 26  1  0
 26 27  1  0
 27 21  1  0
 27 28  2  0
 28  2  1  0
M  END
$$$$
s_11a____215838____11684368
     RDKit          3D

 33 36  0  0  0  0  0  0  0  0999 V2000
    6.3701   -0.4801    3.8894 Cl  0  0  0  0  0  0  0  0  0  0  0  0
    4.9018   -0.8194    2.9418 C   0  0  0  0  0  0  0  0  0  0  0  0
    4.4473   -2.1273    2.8024 C   0  0  0  0  0  0  0  0  0  0  0  0
    5.1541   -3.1704    3.4129 N   0  0  0  0  0  0  0  0  0  0  0  0
    5.8354   -4.1748    2.7279 C   0  0  0  0  0  0  0  0  0  0  0  0
    5.9243   -4.2855    1.5165 O   0  0  0  0  0  0  0  0  0  0  0  0
    6.4530   -5.1018    3.7509 C   0  0  0  0  0  0  0  0  0  0  0  0
    6.5967   -4.1794    4.9407 C   0  0  0  0  0  0  0  0  0  0  0  0
    5.3017   -3.4031    4.8529 C   0  0  0  0  0  0  0  0  0  0  0  0
    3.3016   -2.4048    2.0641 C   0  0  0  0  0  0  0  0  0  0  0  0
    2.6120   -1.3557    1.4634 C   0  0  0  0  0  0  0  0  0  0  0  0
    3.0700   -0.0501    1.6063 C   0  0  0  0  0  0  0  0  0  0  0  0
    2.3700    1.0000    1.0000 N   0  0  0  0  0  0  0  0  0  0  0  0
    1.0000    1.0000    1.0000 C   0  0  0  0  0  0  0  0  0  0  0  0
    0.4000   -0.0392    1.0000 O   0  0  0  0  0  0  0  0  0  0  0  0
    0.2749    2.2559    1.0000 C   0  0  0  0  0  0  0  0  0  0  0  0
   -0.0923    2.8919   -0.1822 C   0  0  0  0  0  0  0  0  0  0  0  0
   -0.7619    4.0525   -0.1212 N   0  0  0  0  0  0  0  0  0  0  0  0
   -1.0855    4.6139    1.0536 C   0  0  0  0  0  0  0  0  0  0  0  0
   -0.7417    4.0191    2.2047 N   0  0  0  0  0  0  0  0  0  0  0  0
   -0.0714    2.8580    2.2042 C   0  0  0  0  0  0  0  0  0  0  0  0
   -1.7840    5.8251    1.1128 N   0  0  0  0  0  0  0  0  0  0  0  0
   -2.4690    6.1818    2.2807 C   0  0  0  0  0  0  0  0  0  0  0  0
   -3.4878    5.3639    2.7587 C   0  0  0  0  0  0  0  0  0  0  0  0
   -4.1659    5.7215    3.9194 C   0  0  0  0  0  0  0  0  0  0  0  0
   -3.8237    6.8892    4.5928 C   0  0  0  0  0  0  0  0  0  0  0  0
   -2.8030    7.6991    4.1061 C   0  0  0  0  0  0  0  0  0  0  0  0
   -2.1181    7.3517    2.9464 C   0  0  0  0  0  0  0  0  0  0  0  0
    0.2568    2.2860   -1.5321 C   0  0  0  0  0  0  0  0  0  0  0  0
   -0.7294    1.4859   -1.9273 F   0  0  0  0  0  0  0  0  0  0  0  0
    0.4238    3.2579   -2.4245 F   0  0  0  0  0  0  0  0  0  0  0  0
    1.3814    1.5840   -1.4254 F   0  0  0  0  0  0  0  0  0  0  0  0
    4.2148    0.2316    2.3438 C   0  0  0  0  0  0  0  0  0  0  0  0
  1  2  1  0
  2  3  2  0
  3  4  1  0
  4  5  1  0
  5  6  2  0
  5  7  1  0
  7  8  1  0
  8  9  1  0
  9  4  1  0
  3 10  1  0
 10 11  2  0
 11 12  1  0
 12 13  1  0
 13 14  1  0
 14 15  2  0
 14 16  1  0
 16 17  2  0
 17 18  1  0
 18 19  2  0
 19 20  1  0
 20 21  2  0
 21 16  1  0
 19 22  1  0
 22 23  1  0
 23 24  2  0
 24 25  1  0
 25 26  2  0
 26 27  1  0
 27 28  2  0
 28 23  1  0
 17 29  1  0
 29 30  1  0
 29 31  1  0
 29 32  1  0
 12 33  2  0
 33  2  1  0
M  END
$$$$
s_22____127815____7593102
     RDKit          3D

 29 32  0  0  0  0  0  0  0  0999 V2000
    0.4000   -0.0392    1.0000 O   0  0  0  0  0  0  0  0  0  0  0  0
    1.0000    1.0000    1.0000 C   0  0  0  0  0  0  0  0  0  0  0  0
    2.3700    1.0000    1.0000 N   0  0  0  0  0  0  0  0  0  0  0  0
    3.0698   -0.2074    1.1056 C   0  0  0  0  0  0  0  0  0  0  0  0
    4.2141   -0.2565    1.8951 C   0  0  0  0  0  0  0  0  0  0  0  0
    4.9091   -1.4568    1.9996 C   0  0  0  0  0  0  0  0  0  0  0  0
    6.0631   -1.5265    2.7896 N   0  0  0  0  0  0  0  0  0  0  0  0
    7.3637   -1.5825    2.2984 C   0  0  0  0  0  0  0  0  0  0  0  0
    7.6907   -1.5855    1.1238 O   0  0  0  0  0  0  0  0  0  0  0  0
    8.2963   -1.6512    3.4903 C   0  0  0  0  0  0  0  0  0  0  0  0
    7.3936   -2.2320    4.5595 C   0  0  0  0  0  0  0  0  0  0  0  0
    6.0746   -1.5559    4.2530 C   0  0  0  0  0  0  0  0  0  0  0  0
    4.4750   -2.5953    1.3282 C   0  0  0  0  0  0  0  0  0  0  0  0
    3.3287   -2.5226    0.5444 C   0  0  0  0  0  0  0  0  0  0  0  0
    2.6179   -1.3332    0.4252 C   0  0  0  0  0  0  0  0  0  0  0  0
    0.2750    2.2557    1.0000 C   0  0  0  0  0  0  0  0  0  0  0  0
   -1.0305    2.3935    1.0000 N   0  0  0  0  0  0  0  0  0  0  0  0
   -1.3475    3.6651    0.9999 N   0  0  0  0  0  0  0  0  0  0  0  0
   -2.6489    4.1808    1.0003 C   0  0  0  0  0  0  0  0  0  0  0  0
   -3.2955    4.4367   -0.1474 N   0  0  0  0  0  0  0  0  0  0  0  0
   -4.5425    4.9291   -0.1568 C   0  0  0  0  0  0  0  0  0  0  0  0
   -5.2100    5.1925    1.0340 C   0  0  0  0  0  0  0  0  0  0  0  0
   -4.5565    4.9332    2.2336 C   0  0  0  0  0  0  0  0  0  0  0  0
   -3.2630    4.4223    2.2247 C   0  0  0  0  0  0  0  0  0  0  0  0
   -0.2040    4.4022    0.9997 C   0  0  0  0  0  0  0  0  0  0  0  0
    0.8506    3.5446    1.0007 C   0  0  0  0  0  0  0  0  0  0  0  0
   -0.1152    5.9195    0.9989 C   0  0  0  0  0  0  0  0  0  0  0  0
    0.6294    6.3841    2.2399 C   0  0  0  0  0  0  0  0  0  0  0  0
    0.6299    6.3828   -0.2422 C   0  0  0  0  0  0  0  0  0  0  0  0
  1  2  2  0
  2  3  1  0
  3  4  1  0
  4  5  2  0
  5  6  1  0
  6  7  1  0
  7  8  1  0
  8  9  2  0
  8 10  1  0
 10 11  1  0
 11 12  1  0
 12  7  1  0
  6 13  2  0
 13 14  1  0
 14 15  2  0
 15  4  1  0
  2 16  1  0
 16 17  2  0
 17 18  1  0
 18 19  1  0
 19 20  2  0
 20 21  1  0
 21 22  2  0
 22 23  1  0
 23 24  2  0
 24 19  1  0
 18 25  1  0
 25 26  2  0
 26 16  1  0
 25 27  1  0
 27 28  1  0
 27 29  1  0
M  END
$$$$
s_527a____4786924____13595988
     RDKit          3D

 29 32  0  0  0  0  0  0  0  0999 V2000
    2.8869   -3.6364    0.0616 F   0  0  0  0  0  0  0  0  0  0  0  0
    3.3151   -2.3850   -0.0689 C   0  0  0  0  0  0  0  0  0  0  0  0
    4.4604   -2.1157   -0.8099 C   0  0  0  0  0  0  0  0  0  0  0  0
    5.1563   -3.1675   -1.4154 N   0  0  0  0  0  0  0  0  0  0  0  0
    5.8089   -4.1894   -0.7329 C   0  0  0  0  0  0  0  0  0  0  0  0
    5.8774   -4.3182    0.4777 O   0  0  0  0  0  0  0  0  0  0  0  0
    6.4277   -5.1045   -1.7697 C   0  0  0  0  0  0  0  0  0  0  0  0
    6.5702   -4.1768   -2.9590 C   0  0  0  0  0  0  0  0  0  0  0  0
    5.3071   -3.3489   -2.8600 C   0  0  0  0  0  0  0  0  0  0  0  0
    4.9098   -0.8065   -0.9476 C   0  0  0  0  0  0  0  0  0  0  0  0
    4.2136    0.2353   -0.3438 C   0  0  0  0  0  0  0  0  0  0  0  0
    3.0698   -0.0498    0.3939 C   0  0  0  0  0  0  0  0  0  0  0  0
    2.3700    1.0000    1.0000 N   0  0  0  0  0  0  0  0  0  0  0  0
    1.0000    1.0000    1.0000 C   0  0  0  0  0  0  0  0  0  0  0  0
    0.4000   -0.0392    1.0000 O   0  0  0  0  0  0  0  0  0  0  0  0
    0.2750    2.2558    1.0000 C   0  0  0  0  0  0  0  0  0  0  0  0
    0.9715    3.4416    1.2109 C   0  0  0  0  0  0  0  0  0  0  0  0
    0.2848    4.6513    1.2127 C   0  0  0  0  0  0  0  0  0  0  0  0
   -1.0906    4.6604    1.0043 C   0  0  0  0  0  0  0  0  0  0  0  0
   -1.7897    5.8727    1.0047 N   0  0  0  0  0  0  0  0  0  0  0  0
   -1.2308    7.0046    0.3979 C   0  0  0  0  0  0  0  0  0  0  0  0
   -1.1385    7.0800   -0.9383 N   0  0  0  0  0  0  0  0  0  0  0  0
   -0.6082    8.1525   -1.5443 C   0  0  0  0  0  0  0  0  0  0  0  0
   -0.1434    9.2105   -0.7716 C   0  0  0  0  0  0  0  0  0  0  0  0
   -0.2467    9.1163    0.6115 C   0  0  0  0  0  0  0  0  0  0  0  0
   -0.7869    8.0171    1.1575 N   0  0  0  0  0  0  0  0  0  0  0  0
   -1.7867    3.4740    0.7935 C   0  0  0  0  0  0  0  0  0  0  0  0
   -1.0999    2.2644    0.7915 C   0  0  0  0  0  0  0  0  0  0  0  0
    2.6082   -1.3535    0.5401 C   0  0  0  0  0  0  0  0  0  0  0  0
  1  2  1  0
  2  3  2  0
  3  4  1  0
  4  5  1  0
  5  6  2  0
  5  7  1  0
  7  8  1  0
  8  9  1  0
  9  4  1  0
  3 10  1  0
 10 11  2  0
 11 12  1  0
 12 13  1  0
 13 14  1  0
 14 15  2  0
 14 16  1  0
 16 17  2  0
 17 18  1  0
 18 19  2  0
 19 20  1  0
 20 21  1  0
 21 22  2  0
 22 23  1  0
 23 24  2  0
 24 25  1  0
 25 26  2  0
 26 21  1  0
 19 27  1  0
 27 28  2  0
 28 16  1  0
 12 29  2  0
 29  2  1  0
M  END
$$$$
s_22____8852978____903526
     RDKit          3D

 29 33  0  0  0  0  0  0  0  0999 V2000
    3.2636   -0.9372    2.4822 Cl  0  0  0  0  0  0  0  0  0  0  0  0
    3.2156    0.8425    2.4904 C   0  0  0  0  0  0  0  0  0  0  0  0
    2.0110    1.5375    2.5046 C   0  0  0  0  0  0  0  0  0  0  0  0
    2.0122    2.8782    2.5100 N   0  0  0  0  0  0  0  0  0  0  0  0
    3.1581    3.5753    2.5022 C   0  0  0  0  0  0  0  0  0  0  0  0
    4.3327    2.9278    2.4888 N   0  0  0  0  0  0  0  0  0  0  0  0
    4.3894    1.5880    2.4836 C   0  0  0  0  0  0  0  0  0  0  0  0
    3.1500    4.9753    2.5076 N   0  0  0  0  0  0  0  0  0  0  0  0
    4.4188    5.7176    2.4989 C   0  0  0  0  0  0  0  0  0  0  0  0
    4.8440    5.9795    1.0596 C   0  0  0  0  0  0  0  0  0  0  0  0
    4.5245    7.0285    0.3361 O   0  0  0  0  0  0  0  0  0  0  0  0
    5.0547    6.9425   -0.8647 C   0  0  0  0  0  0  0  0  0  0  0  0
    5.7535    5.7749   -0.9337 C   0  0  0  0  0  0  0  0  0  0  0  0
    5.6186    5.1385    0.3220 C   0  0  0  0  0  0  0  0  0  0  0  0
    0.7664    0.7925    2.5128 C   0  0  0  0  0  0  0  0  0  0  0  0
    0.5103    0.0422    1.6120 O   0  0  0  0  0  0  0  0  0  0  0  0
   -0.1347    0.9487    3.5700 N   0  0  0  0  0  0  0  0  0  0  0  0
   -1.3584    0.2950    3.6970 C   0  0  0  0  0  0  0  0  0  0  0  0
   -1.7040    0.3161    5.0202 C   0  0  0  0  0  0  0  0  0  0  0  0
   -2.8622   -0.2516    5.4940 C   0  0  0  0  0  0  0  0  0  0  0  0
   -3.7498   -0.8666    4.6134 C   0  0  0  0  0  0  0  0  0  0  0  0
   -3.4318   -0.8881    3.2591 C   0  0  0  0  0  0  0  0  0  0  0  0
   -2.2483   -0.3114    2.8134 C   0  0  0  0  0  0  0  0  0  0  0  0
   -3.0362   -0.1185    6.9220 C   0  0  0  0  0  0  0  0  0  0  0  0
   -3.5001   -1.0144    7.6111 O   0  0  0  0  0  0  0  0  0  0  0  0
   -2.6260    1.2334    7.4886 C   0  0  0  0  0  0  0  0  0  0  0  0
   -1.5614    1.9444    6.6541 C   0  0  0  0  0  0  0  0  0  0  0  0
   -0.6518    1.0170    5.8492 C   0  0  0  0  0  0  0  0  0  0  0  0
    0.0282    1.8040    4.7476 C   0  0  0  0  0  0  0  0  0  0  0  0
  1  2  1  0
  2  3  2  0
  3  4  1  0
  4  5  2  0
  5  6  1  0
  6  7  2  0
  7  2  1  0
  5  8  1  0
  8  9  1  0
  9 10  1  0
 10 11  1  0
 11 12  1  0
 12 13  2  0
 13 14  1  0
 10 14  2  0
  3 15  1  0
 15 16  2  0
 15 17  1  0
 17 18  1  0
 18 19  2  0
 19 20  1  0
 20 21  2  0
 21 22  1  0
 22 23  2  0
 23 18  1  0
 20 24  1  0
 24 25  2  0
 24 26  1  0
 26 27  1  0
 27 28  1  0
 28 19  1  0
 28 29  1  0
 29 17  1  0
M  END
$$$$
s_527a____4786924____3936972
     RDKit          3D

 30 33  0  0  0  0  0  0  0  0999 V2000
    5.1421   -1.2125    1.7694 F   0  0  0  0  0  0  0  0  0  0  0  0
    4.4741   -0.1273    1.3918 C   0  0  0  0  0  0  0  0  0  0  0  0
    5.1657    1.0116    0.9942 C   0  0  0  0  0  0  0  0  0  0  0  0
    6.5647    1.0071    0.9941 N   0  0  0  0  0  0  0  0  0  0  0  0
    7.3634    0.9890    2.1333 C   0  0  0  0  0  0  0  0  0  0  0  0
    6.9716    0.9801    3.2879 O   0  0  0  0  0  0  0  0  0  0  0  0
    8.8075    0.9943    1.6750 C   0  0  0  0  0  0  0  0  0  0  0  0
    8.6960    1.6208    0.3001 C   0  0  0  0  0  0  0  0  0  0  0  0
    7.4000    1.0263   -0.2078 C   0  0  0  0  0  0  0  0  0  0  0  0
    4.4681    2.1481    0.5983 C   0  0  0  0  0  0  0  0  0  0  0  0
    3.0772    2.1465    0.5999 C   0  0  0  0  0  0  0  0  0  0  0  0
    2.3997    1.0000    1.0000 C   0  0  0  0  0  0  0  0  0  0  0  0
    1.0000    1.0000    1.0000 N   0  0  0  0  0  0  0  0  0  0  0  0
    0.3150   -0.1863    0.9831 C   0  0  0  0  0  0  0  0  0  0  0  0
    0.8607   -1.1891    0.6133 O   0  0  0  0  0  0  0  0  0  0  0  0
   -1.0674   -0.2303    1.4113 C   0  0  0  0  0  0  0  0  0  0  0  0
   -1.7908    0.9013    1.8626 C   0  0  0  0  0  0  0  0  0  0  0  0
   -1.2008    1.9382    2.0764 O   0  0  0  0  0  0  0  0  0  0  0  0
   -3.1495    0.7788    2.0786 N   0  0  0  0  0  0  0  0  0  0  0  0
   -3.8469   -0.3901    1.8946 C   0  0  0  0  0  0  0  0  0  0  0  0
   -3.0739   -1.4794    1.7068 C   0  0  0  0  0  0  0  0  0  0  0  0
   -3.5859   -2.7950    1.8964 C   0  0  0  0  0  0  0  0  0  0  0  0
   -3.0363   -3.7738    1.4516 O   0  0  0  0  0  0  0  0  0  0  0  0
   -4.8410   -2.8830    2.7412 C   0  0  0  0  0  0  0  0  0  0  0  0
   -5.8769   -1.9264    2.1657 C   0  0  0  0  0  0  0  0  0  0  0  0
   -5.3658   -0.5151    1.8889 C   0  0  0  0  0  0  0  0  0  0  0  0
   -7.0139   -1.8302    3.1685 C   0  0  0  0  0  0  0  0  0  0  0  0
   -6.4789   -2.4839    0.8801 C   0  0  0  0  0  0  0  0  0  0  0  0
   -1.6945   -1.4436    1.3718 C   0  0  0  0  0  0  0  0  0  0  0  0
    3.0834   -0.1439    1.3980 C   0  0  0  0  0  0  0  0  0  0  0  0
  1  2  1  0
  2  3  2  0
  3  4  1  0
  4  5  1  0
  5  6  2  0
  5  7  1  0
  7  8  1  0
  8  9  1  0
  9  4  1  0
  3 10  1  0
 10 11  2  0
 11 12  1  0
 12 13  1  0
 13 14  1  0
 14 15  2  0
 14 16  1  0
 16 17  1  0
 17 18  2  0
 17 19  1  0
 19 20  1  0
 20 21  2  0
 21 22  1  0
 22 23  2  0
 22 24  1  0
 24 25  1  0
 25 26  1  0
 26 20  1  0
 25 27  1  0
 25 28  1  0
 21 29  1  0
 16 29  2  0
 12 30  2  0
 30  2  1  0
M  END
$$$$
s_527a____7042684____12218672
     RDKit          3D

 32 34  0  0  0  0  0  0  0  0999 V2000
    2.1390    5.7161    2.5192 O   0  0  0  0  0  0  0  0  0  0  0  0
    3.1760    5.1124    2.5053 C   0  0  0  0  0  0  0  0  0  0  0  0
    4.3128    5.7632    2.4938 O   0  0  0  0  0  0  0  0  0  0  0  0
    4.3180    7.1832    2.4978 C   0  0  0  0  0  0  0  0  0  0  0  0
    4.3367    7.6858    3.9322 C   0  0  0  0  0  0  0  0  0  0  0  0
    5.5524    7.6874    1.7682 C   0  0  0  0  0  0  0  0  0  0  0  0
    3.0704    7.6964    1.7974 C   0  0  0  0  0  0  0  0  0  0  0  0
    3.1704    3.5924    2.5011 C   0  0  0  0  0  0  0  0  0  0  0  0
    1.9734    2.8828    2.5131 C   0  0  0  0  0  0  0  0  0  0  0  0
    0.7353    3.5779    2.5305 O   0  0  0  0  0  0  0  0  0  0  0  0
    1.9898    1.4916    2.5089 C   0  0  0  0  0  0  0  0  0  0  0  0
    3.2027    0.8099    2.4927 C   0  0  0  0  0  0  0  0  0  0  0  0
    4.3950    1.5268    2.4808 C   0  0  0  0  0  0  0  0  0  0  0  0
    5.6789    0.8111    2.4634 N   0  0  0  0  0  0  0  0  0  0  0  0
    5.6995   -0.5588    2.4590 C   0  0  0  0  0  0  0  0  0  0  0  0
    4.6695   -1.1744    2.4694 O   0  0  0  0  0  0  0  0  0  0  0  0
    6.9668   -1.2652    2.4418 C   0  0  0  0  0  0  0  0  0  0  0  0
    6.9819   -2.6841    2.4374 C   0  0  0  0  0  0  0  0  0  0  0  0
    5.9025   -3.2083    2.4489 O   0  0  0  0  0  0  0  0  0  0  0  0
    8.2111   -3.4142    2.4203 C   0  0  0  0  0  0  0  0  0  0  0  0
    8.3033   -4.8140    2.4141 C   0  0  0  0  0  0  0  0  0  0  0  0
    7.1781   -5.6802    2.4211 O   0  0  0  0  0  0  0  0  0  0  0  0
    7.3655   -7.0877    2.4141 C   0  0  0  0  0  0  0  0  0  0  0  0
    9.5261   -5.4703    2.3988 C   0  0  0  0  0  0  0  0  0  0  0  0
   10.6725   -4.6871    2.3894 C   0  0  0  0  0  0  0  0  0  0  0  0
   11.9186   -5.3678    2.3750 O   0  0  0  0  0  0  0  0  0  0  0  0
   13.1312   -4.6289    2.3648 C   0  0  0  0  0  0  0  0  0  0  0  0
   10.6238   -3.2970    2.3946 C   0  0  0  0  0  0  0  0  0  0  0  0
    9.3849   -2.6650    2.4095 C   0  0  0  0  0  0  0  0  0  0  0  0
    9.3533   -1.2943    2.4147 N   0  0  0  0  0  0  0  0  0  0  0  0
    8.1684   -0.6052    2.4303 C   0  0  0  0  0  0  0  0  0  0  0  0
    4.3871    2.9184    2.4851 C   0  0  0  0  0  0  0  0  0  0  0  0
  1  2  2  0
  2  3  1  0
  3  4  1  0
  4  5  1  0
  4  6  1  0
  4  7  1  0
  2  8  1  0
  8  9  2  0
  9 10  1  0
  9 11  1  0
 11 12  2  0
 12 13  1  0
 13 14  1  0
 14 15  1  0
 15 16  2  0
 15 17  1  0
 17 18  1  0
 18 19  2  0
 18 20  1  0
 20 21  2  0
 21 22  1  0
 22 23  1  0
 21 24  1  0
 24 25  2  0
 25 26  1  0
 26 27  1  0
 25 28  1  0
 28 29  2  0
 29 20  1  0
 29 30  1  0
 30 31  1  0
 17 31  2  0
 13 32  2  0
 32  8  1  0
M  END
$$$$
m_274860a____17141104____12536600____15233748
     RDKit          3D

 30 33  0  0  0  0  0  0  0  0999 V2000
    5.8485   -0.3278   -3.0153 F   0  0  0  0  0  0  0  0  0  0  0  0
    4.7412   -0.7106   -2.3862 C   0  0  0  0  0  0  0  0  0  0  0  0
    3.8158   -1.5131   -3.0434 C   0  0  0  0  0  0  0  0  0  0  0  0
    4.0510   -1.9159   -4.3633 N   0  0  0  0  0  0  0  0  0  0  0  0
    4.7770   -3.1711   -4.6127 C   0  0  0  0  0  0  0  0  0  0  0  0
    4.2812   -3.8443   -5.8831 C   0  0  0  0  0  0  0  0  0  0  0  0
    4.1613   -2.9143   -6.9520 O   0  0  0  0  0  0  0  0  0  0  0  0
    3.1633   -1.9435   -6.6646 C   0  0  0  0  0  0  0  0  0  0  0  0
    3.5456   -1.0863   -5.4676 C   0  0  0  0  0  0  0  0  0  0  0  0
    2.6595   -1.9091   -2.3795 C   0  0  0  0  0  0  0  0  0  0  0  0
    1.7794   -2.6759   -3.0153 F   0  0  0  0  0  0  0  0  0  0  0  0
    2.4175   -1.5140   -1.0685 C   0  0  0  0  0  0  0  0  0  0  0  0
    3.3582   -0.7116   -0.4322 C   0  0  0  0  0  0  0  0  0  0  0  0
    4.5215   -0.3024   -1.0752 C   0  0  0  0  0  0  0  0  0  0  0  0
    3.1050   -0.2731    1.0000 C   0  0  0  0  0  0  0  0  0  0  0  0
    2.3700    1.0000    1.0000 N   0  0  0  0  0  0  0  0  0  0  0  0
    1.0000    1.0000    1.0000 C   0  0  0  0  0  0  0  0  0  0  0  0
    0.4000   -0.0392    1.0000 O   0  0  0  0  0  0  0  0  0  0  0  0
    0.2400    2.3164    1.0000 C   0  0  0  0  0  0  0  0  0  0  0  0
   -0.0050    2.7407   -0.3858 N   0  0  0  0  0  0  0  0  0  0  0  0
   -1.0536    2.4297   -1.1072 N   0  0  0  0  0  0  0  0  0  0  0  0
   -0.9894    2.9399   -2.2607 N   0  0  0  0  0  0  0  0  0  0  0  0
    0.1755    3.6407   -2.3311 C   0  0  0  0  0  0  0  0  0  0  0  0
    0.6527    4.3885   -3.4808 C   0  0  0  0  0  0  0  0  0  0  0  0
    1.8159    5.0584   -3.4665 N   0  0  0  0  0  0  0  0  0  0  0  0
    2.2560    5.7514   -4.5278 C   0  0  0  0  0  0  0  0  0  0  0  0
    1.4845    5.7790   -5.6850 C   0  0  0  0  0  0  0  0  0  0  0  0
    0.3210    5.1118   -5.7071 N   0  0  0  0  0  0  0  0  0  0  0  0
   -0.1132    4.4215   -4.6419 C   0  0  0  0  0  0  0  0  0  0  0  0
    0.8146    3.5223   -1.1351 C   0  0  0  0  0  0  0  0  0  0  0  0
  1  2  1  0
  2  3  2  0
  3  4  1  0
  4  5  1  0
  5  6  1  0
  6  7  1  0
  7  8  1  0
  8  9  1  0
  9  4  1  0
  3 10  1  0
 10 11  1  0
 10 12  2  0
 12 13  1  0
 13 14  2  0
 14  2  1  0
 13 15  1  0
 15 16  1  0
 16 17  1  0
 17 18  2  0
 17 19  1  0
 19 20  1  0
 20 21  1  0
 21 22  2  0
 22 23  1  0
 23 24  1  0
 24 25  2  0
 25 26  1  0
 26 27  2  0
 27 28  1  0
 28 29  2  0
 29 24  1  0
 23 30  2  0
 30 20  1  0
M  END
$$$$
m_276010a____17282234____17261590____17280668
     RDKit          3D

 30 33  0  0  0  0  0  0  0  0999 V2000
    6.2933   -3.2829   -0.2498 Br  0  0  0  0  0  0  0  0  0  0  0  0
    5.7737   -3.8247    1.5609 C   0  0  0  0  0  0  0  0  0  0  0  0
    6.5214   -4.8178    2.2468 C   0  0  0  0  0  0  0  0  0  0  0  0
    7.4851   -5.3220    1.6892 O   0  0  0  0  0  0  0  0  0  0  0  0
    6.1337   -5.1757    3.5131 N   0  0  0  0  0  0  0  0  0  0  0  0
    5.0891   -4.6226    4.1048 N   0  0  0  0  0  0  0  0  0  0  0  0
    4.3645   -3.6950    3.5035 C   0  0  0  0  0  0  0  0  0  0  0  0
    4.6935   -3.2628    2.1903 C   0  0  0  0  0  0  0  0  0  0  0  0
    3.9447   -2.2816    1.5279 N   0  0  0  0  0  0  0  0  0  0  0  0
    3.3122   -2.4412    0.3921 N   0  0  0  0  0  0  0  0  0  0  0  0
    2.7279   -1.3740    0.0505 N   0  0  0  0  0  0  0  0  0  0  0  0
    2.9766   -0.4328    1.0000 C   0  0  0  0  0  0  0  0  0  0  0  0
    3.7550   -1.0052    1.9545 C   0  0  0  0  0  0  0  0  0  0  0  0
    2.4700    1.0000    1.0000 C   0  0  0  0  0  0  0  0  0  0  0  0
    1.0000    1.0000    1.0000 N   0  0  0  0  0  0  0  0  0  0  0  0
    0.3150    1.0000    2.1865 C   0  0  0  0  0  0  0  0  0  0  0  0
    0.9150    1.0000    3.2257 O   0  0  0  0  0  0  0  0  0  0  0  0
   -1.1354    1.0000    2.1865 C   0  0  0  0  0  0  0  0  0  0  0  0
   -1.8468    1.4087    1.0635 C   0  0  0  0  0  0  0  0  0  0  0  0
   -1.1971    1.8061   -0.0269 F   0  0  0  0  0  0  0  0  0  0  0  0
   -3.2379    1.4029    1.0809 C   0  0  0  0  0  0  0  0  0  0  0  0
   -3.9174    0.9875    2.2214 C   0  0  0  0  0  0  0  0  0  0  0  0
   -3.1976    0.5800    3.3401 C   0  0  0  0  0  0  0  0  0  0  0  0
   -3.8812    0.1622    4.4851 N   0  0  0  0  0  0  0  0  0  0  0  0
   -4.2710   -1.1474    4.7478 C   0  0  0  0  0  0  0  0  0  0  0  0
   -4.0837   -2.1132    4.0275 O   0  0  0  0  0  0  0  0  0  0  0  0
   -4.9807   -1.1497    6.0864 C   0  0  0  0  0  0  0  0  0  0  0  0
   -5.4557    0.2852    6.1899 C   0  0  0  0  0  0  0  0  0  0  0  0
   -4.2951    1.0413    5.5799 C   0  0  0  0  0  0  0  0  0  0  0  0
   -1.8067    0.5833    3.3318 C   0  0  0  0  0  0  0  0  0  0  0  0
  1  2  1  0
  2  3  1  0
  3  4  2  0
  3  5  1  0
  5  6  1  0
  6  7  2  0
  7  8  1  0
  2  8  2  0
  8  9  1  0
  9 10  1  0
 10 11  2  0
 11 12  1  0
 12 13  2  0
 13  9  1  0
 12 14  1  0
 14 15  1  0
 15 16  1  0
 16 17  2  0
 16 18  1  0
 18 19  2  0
 19 20  1  0
 19 21  1  0
 21 22  2  0
 22 23  1  0
 23 24  1  0
 24 25  1  0
 25 26  2  0
 25 27  1  0
 27 28  1  0
 28 29  1  0
 29 24  1  0
 23 30  2  0
 30 18  1  0
M  END
$$$$
s_22____1041906____16917034
     RDKit          3D

 33 36  0  0  0  0  0  0  0  0999 V2000
    1.7477   -2.7666    5.2040 F   0  0  0  0  0  0  0  0  0  0  0  0
    1.9482   -3.4331    4.0710 C   0  0  0  0  0  0  0  0  0  0  0  0
    2.1416   -2.7292    2.8869 C   0  0  0  0  0  0  0  0  0  0  0  0
    2.1242   -1.3291    2.8924 N   0  0  0  0  0  0  0  0  0  0  0  0
    3.2280   -0.6288    2.4827 C   0  0  0  0  0  0  0  0  0  0  0  0
    4.2099   -1.2152    2.1192 O   0  0  0  0  0  0  0  0  0  0  0  0
    3.2100    0.8240    2.4884 C   0  0  0  0  0  0  0  0  0  0  0  0
    2.0117    1.5313    2.4983 C   0  0  0  0  0  0  0  0  0  0  0  0
    2.0243    2.8725    2.5059 N   0  0  0  0  0  0  0  0  0  0  0  0
    3.1702    3.5719    2.5043 C   0  0  0  0  0  0  0  0  0  0  0  0
    4.3360    2.9082    2.4938 N   0  0  0  0  0  0  0  0  0  0  0  0
    4.3850    1.5680    2.4868 C   0  0  0  0  0  0  0  0  0  0  0  0
    3.1526    5.0958    2.5128 C   0  0  0  0  0  0  0  0  0  0  0  0
    2.4419    5.6720    1.3101 C   0  0  0  0  0  0  0  0  0  0  0  0
    3.4917    6.6893    1.2896 N   0  0  0  0  0  0  0  0  0  0  0  0
    3.6219    8.0210    0.8441 C   0  0  0  0  0  0  0  0  0  0  0  0
    4.6636    8.6006    0.9817 O   0  0  0  0  0  0  0  0  0  0  0  0
    2.6056    8.6253    0.2801 O   0  0  0  0  0  0  0  0  0  0  0  0
    2.7367    9.9662   -0.1684 C   0  0  0  0  0  0  0  0  0  0  0  0
    3.0898   10.8618    1.0080 C   0  0  0  0  0  0  0  0  0  0  0  0
    3.8373   10.0455   -1.2137 C   0  0  0  0  0  0  0  0  0  0  0  0
    1.4234   10.4268   -0.7795 C   0  0  0  0  0  0  0  0  0  0  0  0
    4.3910    5.7030    1.8834 C   0  0  0  0  0  0  0  0  0  0  0  0
    2.3529   -3.4046    1.6902 C   0  0  0  0  0  0  0  0  0  0  0  0
    2.3668   -4.7947    1.7010 C   0  0  0  0  0  0  0  0  0  0  0  0
    2.5763   -5.4894    0.5066 N   0  0  0  0  0  0  0  0  0  0  0  0
    1.5716   -5.8986   -0.3647 C   0  0  0  0  0  0  0  0  0  0  0  0
    0.3742   -5.7212   -0.2179 O   0  0  0  0  0  0  0  0  0  0  0  0
    2.2381   -6.6145   -1.5216 C   0  0  0  0  0  0  0  0  0  0  0  0
    3.5412   -7.0702   -0.8972 C   0  0  0  0  0  0  0  0  0  0  0  0
    3.8855   -5.8963   -0.0060 C   0  0  0  0  0  0  0  0  0  0  0  0
    2.1746   -5.5046    2.8810 C   0  0  0  0  0  0  0  0  0  0  0  0
    1.9635   -4.8241    4.0754 C   0  0  0  0  0  0  0  0  0  0  0  0
  1  2  1  0
  2  3  2  0
  3  4  1  0
  4  5  1  0
  5  6  2  0
  5  7  1  0
  7  8  2  0
  8  9  1  0
  9 10  2  0
 10 11  1  0
 11 12  2  0
 12  7  1  0
 10 13  1  0
 13 14  1  0
 14 15  1  0
 15 16  1  0
 16 17  2  0
 16 18  1  0
 18 19  1  0
 19 20  1  0
 19 21  1  0
 19 22  1  0
 15 23  1  0
 23 13  1  0
  3 24  1  0
 24 25  2  0
 25 26  1  0
 26 27  1  0
 27 28  2  0
 27 29  1  0
 29 30  1  0
 30 31  1  0
 31 26  1  0
 25 32  1  0
 32 33  2  0
 33  2  1  0
M  END
$$$$
s_22____14942836____537792
     RDKit          3D

 34 38  0  0  0  0  0  0  0  0999 V2000
    7.2163   -5.7584    2.4086 Br  0  0  0  0  0  0  0  0  0  0  0  0
    7.5096   -3.8205    2.4237 C   0  0  0  0  0  0  0  0  0  0  0  0
    8.7883   -3.2702    2.4310 C   0  0  0  0  0  0  0  0  0  0  0  0
    9.8483   -4.1130    2.4244 O   0  0  0  0  0  0  0  0  0  0  0  0
   11.0672   -3.8096    1.7555 C   0  0  0  0  0  0  0  0  0  0  0  0
   11.9509   -2.9091    2.6072 C   0  0  0  0  0  0  0  0  0  0  0  0
   11.1469   -1.8253    3.3119 C   0  0  0  0  0  0  0  0  0  0  0  0
   10.1372   -1.2669    2.4801 O   0  0  0  0  0  0  0  0  0  0  0  0
    8.9350   -1.8823    2.4440 C   0  0  0  0  0  0  0  0  0  0  0  0
    7.8232   -1.0495    2.4317 C   0  0  0  0  0  0  0  0  0  0  0  0
    6.5512   -1.6107    2.4340 C   0  0  0  0  0  0  0  0  0  0  0  0
    5.4254   -0.7794    2.4522 N   0  0  0  0  0  0  0  0  0  0  0  0
    5.5792    0.5819    2.4581 C   0  0  0  0  0  0  0  0  0  0  0  0
    6.6791    1.0616    2.4477 O   0  0  0  0  0  0  0  0  0  0  0  0
    4.3565    1.4848    2.4779 C   0  0  0  0  0  0  0  0  0  0  0  0
    4.3868    2.8868    2.4855 C   0  0  0  0  0  0  0  0  0  0  0  0
    3.1707    3.5688    2.5011 C   0  0  0  0  0  0  0  0  0  0  0  0
    2.0283    2.8572    2.5053 N   0  0  0  0  0  0  0  0  0  0  0  0
    1.9888    1.5141    2.4982 C   0  0  0  0  0  0  0  0  0  0  0  0
    3.1638    0.7761    2.4835 C   0  0  0  0  0  0  0  0  0  0  0  0
    0.6846    0.7321    2.5062 C   0  0  0  0  0  0  0  0  0  0  0  0
    0.2104    0.4636    1.1079 C   0  0  0  0  0  0  0  0  0  0  0  0
   -0.4602    1.5203    1.9379 C   0  0  0  0  0  0  0  0  0  0  0  0
    3.1580    4.9432    2.5113 N   0  0  0  0  0  0  0  0  0  0  0  0
    4.3258    5.6654    2.5085 C   0  0  0  0  0  0  0  0  0  0  0  0
    4.3162    6.8653    2.5186 O   0  0  0  0  0  0  0  0  0  0  0  0
    5.5408    5.0309    2.4943 N   0  0  0  0  0  0  0  0  0  0  0  0
    5.5851    3.6684    2.4825 C   0  0  0  0  0  0  0  0  0  0  0  0
    6.6958    3.2144    2.4662 O   0  0  0  0  0  0  0  0  0  0  0  0
    1.8958    5.6965    2.5257 C   0  0  0  0  0  0  0  0  0  0  0  0
    1.4709    5.9456    3.9637 C   0  0  0  0  0  0  0  0  0  0  0  0
    0.1657    6.7245    3.9786 C   0  0  0  0  0  0  0  0  0  0  0  0
    1.2749    4.6150    4.6719 C   0  0  0  0  0  0  0  0  0  0  0  0
    6.3925   -2.9925    2.4281 C   0  0  0  0  0  0  0  0  0  0  0  0
  1  2  1  0
  2  3  2  0
  3  4  1  0
  4  5  1  0
  5  6  1  0
  6  7  1  0
  7  8  1  0
  8  9  1  0
  9  3  1  0
  9 10  2  0
 10 11  1  0
 11 12  1  0
 12 13  1  0
 13 14  2  0
 13 15  1  0
 15 16  2  0
 16 17  1  0
 17 18  2  0
 18 19  1  0
 19 20  2  0
 20 15  1  0
 19 21  1  0
 21 22  1  0
 22 23  1  0
 23 21  1  0
 17 24  1  0
 24 25  1  0
 25 26  2  0
 25 27  1  0
 27 28  1  0
 28 16  1  0
 28 29  2  0
 24 30  1  0
 30 31  1  0
 31 32  1  0
 31 33  1  0
 11 34  2  0
 34  2  1  0
M  END
$$$$
s_22____124809____782382
     RDKit          3D

 30 33  0  0  0  0  0  0  0  0999 V2000
   -2.6332   -3.2057    4.9529 Cl  0  0  0  0  0  0  0  0  0  0  0  0
   -2.3479   -2.4160    3.3828 C   0  0  0  0  0  0  0  0  0  0  0  0
   -2.5568   -3.0783    2.1763 C   0  0  0  0  0  0  0  0  0  0  0  0
   -2.9917   -4.3605    2.2129 O   0  0  0  0  0  0  0  0  0  0  0  0
   -3.8732   -4.8979    1.2342 C   0  0  0  0  0  0  0  0  0  0  0  0
   -3.1146   -5.3266   -0.0129 C   0  0  0  0  0  0  0  0  0  0  0  0
   -2.0360   -4.3217   -0.3902 C   0  0  0  0  0  0  0  0  0  0  0  0
   -2.4644   -2.9745   -0.2329 O   0  0  0  0  0  0  0  0  0  0  0  0
   -2.3125   -2.4024    0.9799 C   0  0  0  0  0  0  0  0  0  0  0  0
   -1.8813   -1.0836    0.9771 C   0  0  0  0  0  0  0  0  0  0  0  0
   -1.6617   -0.4332    2.1865 C   0  0  0  0  0  0  0  0  0  0  0  0
   -1.8976   -1.1004    3.3840 C   0  0  0  0  0  0  0  0  0  0  0  0
   -1.1550    1.0000    2.1865 C   0  0  0  0  0  0  0  0  0  0  0  0
    0.3150    1.0000    2.1865 N   0  0  0  0  0  0  0  0  0  0  0  0
    1.0000    1.0000    1.0000 C   0  0  0  0  0  0  0  0  0  0  0  0
    0.4000    1.0000   -0.0392 O   0  0  0  0  0  0  0  0  0  0  0  0
    2.5200    1.0000    1.0000 C   0  0  0  0  0  0  0  0  0  0  0  0
    3.0270   -0.4122    0.7510 C   0  0  0  0  0  0  0  0  0  0  0  0
    3.0675   -0.9435   -0.5666 C   0  0  0  0  0  0  0  0  0  0  0  0
    2.6849   -0.2394   -1.4880 O   0  0  0  0  0  0  0  0  0  0  0  0
    3.5214   -2.2163   -0.8057 N   0  0  0  0  0  0  0  0  0  0  0  0
    3.6332   -2.9007   -1.9267 N   0  0  0  0  0  0  0  0  0  0  0  0
    4.1092   -4.0989   -1.7116 C   0  0  0  0  0  0  0  0  0  0  0  0
    4.3123   -4.1745   -0.3164 C   0  0  0  0  0  0  0  0  0  0  0  0
    4.8548   -5.3780    0.4356 C   0  0  0  0  0  0  0  0  0  0  0  0
    5.2618   -6.2810    0.9999 N   0  0  0  0  0  0  0  0  0  0  0  0
    3.9376   -2.9804    0.2297 C   0  0  0  0  0  0  0  0  0  0  0  0
    3.9031   -2.4735    1.5068 N   0  0  0  0  0  0  0  0  0  0  0  0
    3.4553   -1.2056    1.7848 C   0  0  0  0  0  0  0  0  0  0  0  0
    3.4224   -0.6589    3.2044 C   0  0  0  0  0  0  0  0  0  0  0  0
  1  2  1  0
  2  3  2  0
  3  4  1  0
  4  5  1  0
  5  6  1  0
  6  7  1  0
  7  8  1  0
  8  9  1  0
  9  3  1  0
  9 10  2  0
 10 11  1  0
 11 12  2  0
 12  2  1  0
 11 13  1  0
 13 14  1  0
 14 15  1  0
 15 16  2  0
 15 17  1  0
 17 18  1  0
 18 19  1  0
 19 20  2  0
 19 21  1  0
 21 22  1  0
 22 23  2  0
 23 24  1  0
 24 25  1  0
 25 26  3  0
 24 27  2  0
 27 21  1  0
 27 28  1  0
 28 29  1  0
 18 29  2  0
 29 30  1  0
M  END
$$$$
s_2430a____1041920____10160092
     RDKit          3D

 29 32  0  0  0  0  0  0  0  0999 V2000
   -1.5799    3.5766   -0.4243 F   0  0  0  0  0  0  0  0  0  0  0  0
   -1.9616    2.9341    0.6756 C   0  0  0  0  0  0  0  0  0  0  0  0
   -1.0219    2.2230    1.4147 C   0  0  0  0  0  0  0  0  0  0  0  0
    0.3150    2.1865    1.0000 N   0  0  0  0  0  0  0  0  0  0  0  0
    1.0000    1.0000    1.0000 C   0  0  0  0  0  0  0  0  0  0  0  0
    0.4000   -0.0392    1.0000 O   0  0  0  0  0  0  0  0  0  0  0  0
    2.3700    1.0000    1.0000 N   0  0  0  0  0  0  0  0  0  0  0  0
    3.0615   -0.1977    1.0000 N   0  0  0  0  0  0  0  0  0  0  0  0
    4.4644   -0.1977    1.0000 C   0  0  0  0  0  0  0  0  0  0  0  0
    5.1964   -1.3249    1.0000 N   0  0  0  0  0  0  0  0  0  0  0  0
    6.4907   -1.3138    1.0008 N   0  0  0  0  0  0  0  0  0  0  0  0
    7.2027   -0.1741    1.0017 C   0  0  0  0  0  0  0  0  0  0  0  0
    8.6031   -0.1489    1.0022 N   0  0  0  0  0  0  0  0  0  0  0  0
    9.4185   -1.2407    1.0018 C   0  0  0  0  0  0  0  0  0  0  0  0
   10.6567   -0.8044    1.0028 N   0  0  0  0  0  0  0  0  0  0  0  0
   10.6715    0.5594    1.0019 C   0  0  0  0  0  0  0  0  0  0  0  0
    9.3742    0.9748    1.0005 C   0  0  0  0  0  0  0  0  0  0  0  0
    6.5177    1.0361    1.0016 C   0  0  0  0  0  0  0  0  0  0  0  0
    5.1270    1.0248    1.0010 C   0  0  0  0  0  0  0  0  0  0  0  0
   -1.3976    1.5435    2.5679 C   0  0  0  0  0  0  0  0  0  0  0  0
   -2.7288    1.5888    2.9664 C   0  0  0  0  0  0  0  0  0  0  0  0
   -3.1247    0.9089    4.1243 N   0  0  0  0  0  0  0  0  0  0  0  0
   -3.5779   -0.4062    4.1613 C   0  0  0  0  0  0  0  0  0  0  0  0
   -3.7028   -1.1524    3.2051 O   0  0  0  0  0  0  0  0  0  0  0  0
   -3.8983   -0.7352    5.6050 C   0  0  0  0  0  0  0  0  0  0  0  0
   -4.1599    0.6388    6.1873 C   0  0  0  0  0  0  0  0  0  0  0  0
   -3.1262    1.4813    5.4714 C   0  0  0  0  0  0  0  0  0  0  0  0
   -3.6732    2.2980    2.2325 C   0  0  0  0  0  0  0  0  0  0  0  0
   -3.2920    2.9760    1.0795 C   0  0  0  0  0  0  0  0  0  0  0  0
  1  2  1  0
  2  3  2  0
  3  4  1  0
  4  5  1  0
  5  6  2  0
  5  7  1  0
  7  8  1  0
  8  9  1  0
  9 10  2  0
 10 11  1  0
 11 12  2  0
 12 13  1  0
 13 14  1  0
 14 15  2  0
 15 16  1  0
 16 17  2  0
 17 13  1  0
 12 18  1  0
 18 19  2  0
 19  9  1  0
  3 20  1  0
 20 21  2  0
 21 22  1  0
 22 23  1  0
 23 24  2  0
 23 25  1  0
 25 26  1  0
 26 27  1  0
 27 22  1  0
 21 28  1  0
 28 29  2  0
 29  2  1  0
M  END
$$$$
s_22____15475860____5728682
     RDKit          3D

 30 34  0  0  0  0  0  0  0  0999 V2000
    2.5121    2.5283    2.7925 F   0  0  0  0  0  0  0  0  0  0  0  0
    3.1618    1.7751    1.9096 C   0  0  0  0  0  0  0  0  0  0  0  0
    2.4504    1.0000    1.0000 C   0  0  0  0  0  0  0  0  0  0  0  0
    3.1217    0.2096    0.0723 C   0  0  0  0  0  0  0  0  0  0  0  0
    4.5126    0.2036    0.0656 C   0  0  0  0  0  0  0  0  0  0  0  0
    5.1975   -0.5892   -0.8632 N   0  0  0  0  0  0  0  0  0  0  0  0
    5.2441   -1.9797   -0.8440 C   0  0  0  0  0  0  0  0  0  0  0  0
    4.7090   -2.7074   -0.0249 O   0  0  0  0  0  0  0  0  0  0  0  0
    6.0910   -2.4216   -2.0200 C   0  0  0  0  0  0  0  0  0  0  0  0
    6.9500   -1.1974   -2.2630 C   0  0  0  0  0  0  0  0  0  0  0  0
    5.9726   -0.0738   -1.9928 C   0  0  0  0  0  0  0  0  0  0  0  0
    5.2324    0.9760    0.9716 C   0  0  0  0  0  0  0  0  0  0  0  0
    4.5529    1.7636    1.8953 C   0  0  0  0  0  0  0  0  0  0  0  0
    1.0000    1.0000    1.0000 C   0  0  0  0  0  0  0  0  0  0  0  0
    0.4000   -0.0392    1.0079 O   0  0  0  0  0  0  0  0  0  0  0  0
    0.2969    2.2178    0.9907 N   0  0  0  0  0  0  0  0  0  0  0  0
   -0.5477    2.5217    2.0712 C   0  0  0  0  0  0  0  0  0  0  0  0
   -1.6007    3.4184    1.8925 C   0  0  0  0  0  0  0  0  0  0  0  0
   -1.8161    4.0005    0.6395 N   0  0  0  0  0  0  0  0  0  0  0  0
   -0.8698    3.8840   -0.3884 C   0  0  0  0  0  0  0  0  0  0  0  0
   -1.1636    4.4099   -1.4591 O   0  0  0  0  0  0  0  0  0  0  0  0
    0.4327    3.1260   -0.1631 C   0  0  0  0  0  0  0  0  0  0  0  0
    1.7750    3.8327   -0.1622 C   0  0  0  0  0  0  0  0  0  0  0  0
    1.8416    3.6631   -1.6765 C   0  0  0  0  0  0  0  0  0  0  0  0
    0.9546    2.4744   -1.4272 C   0  0  0  0  0  0  0  0  0  0  0  0
   -2.4659    3.7225    2.9390 C   0  0  0  0  0  0  0  0  0  0  0  0
   -2.2661    3.1264    4.1785 C   0  0  0  0  0  0  0  0  0  0  0  0
   -3.1024    3.4170    5.1663 F   0  0  0  0  0  0  0  0  0  0  0  0
   -1.2195    2.2347    4.3881 C   0  0  0  0  0  0  0  0  0  0  0  0
   -0.3735    1.9483    3.3237 C   0  0  0  0  0  0  0  0  0  0  0  0
  1  2  1  0
  2  3  2  0
  3  4  1  0
  4  5  2  0
  5  6  1  0
  6  7  1  0
  7  8  2  0
  7  9  1  0
  9 10  1  0
 10 11  1  0
 11  6  1  0
  5 12  1  0
 12 13  2  0
 13  2  1  0
  3 14  1  0
 14 15  2  0
 14 16  1  0
 16 17  1  0
 17 18  2  0
 18 19  1  0
 19 20  1  0
 20 21  2  0
 20 22  1  0
 22 16  1  0
 22 23  1  0
 23 24  1  0
 24 25  1  0
 25 22  1  0
 18 26  1  0
 26 27  2  0
 27 28  1  0
 27 29  1  0
 29 30  2  0
 30 17  1  0
M  END
$$$$
s_22____13160284____9172612
     RDKit          3D

 30 33  0  0  0  0  0  0  0  0999 V2000
    6.9447    0.9896    1.0125 Cl  0  0  0  0  0  0  0  0  0  0  0  0
    5.1648    0.9946    1.0073 C   0  0  0  0  0  0  0  0  0  0  0  0
    4.4640    0.3490    2.0208 C   0  0  0  0  0  0  0  0  0  0  0  0
    5.1670   -0.3014    3.0414 N   0  0  0  0  0  0  0  0  0  0  0  0
    5.5259   -1.6156    2.8960 C   0  0  0  0  0  0  0  0  0  0  0  0
    5.2375   -2.2090    1.8936 O   0  0  0  0  0  0  0  0  0  0  0  0
    6.2897   -2.3222    4.0048 C   0  0  0  0  0  0  0  0  0  0  0  0
    7.6002   -1.6416    4.2730 C   0  0  0  0  0  0  0  0  0  0  0  0
    7.5691   -2.9389    3.5171 C   0  0  0  0  0  0  0  0  0  0  0  0
    3.0736    0.3463    2.0260 C   0  0  0  0  0  0  0  0  0  0  0  0
    2.4000    1.0000    1.0000 C   0  0  0  0  0  0  0  0  0  0  0  0
    1.0000    1.0000    1.0000 N   0  0  0  0  0  0  0  0  0  0  0  0
    0.3150    2.1853    1.0518 C   0  0  0  0  0  0  0  0  0  0  0  0
    0.8607    3.1767    1.4509 O   0  0  0  0  0  0  0  0  0  0  0  0
   -1.0699    2.2419    0.6242 C   0  0  0  0  0  0  0  0  0  0  0  0
   -2.0174    2.6350    1.5341 N   0  0  0  0  0  0  0  0  0  0  0  0
   -3.3508    2.7177    1.2178 C   0  0  0  0  0  0  0  0  0  0  0  0
   -4.2934    3.1196    2.1618 C   0  0  0  0  0  0  0  0  0  0  0  0
   -3.9325    3.4424    3.4225 O   0  0  0  0  0  0  0  0  0  0  0  0
   -4.9177    3.8484    4.3612 C   0  0  0  0  0  0  0  0  0  0  0  0
   -5.6424    3.2020    1.8346 C   0  0  0  0  0  0  0  0  0  0  0  0
   -6.0669    2.8805    0.5498 C   0  0  0  0  0  0  0  0  0  0  0  0
   -5.1203    2.4807   -0.3869 C   0  0  0  0  0  0  0  0  0  0  0  0
   -3.7653    2.3938   -0.0722 C   0  0  0  0  0  0  0  0  0  0  0  0
   -2.7990    1.9838   -1.0336 C   0  0  0  0  0  0  0  0  0  0  0  0
   -3.1030    1.6873   -2.1803 O   0  0  0  0  0  0  0  0  0  0  0  0
   -1.4302    1.9126   -0.6577 C   0  0  0  0  0  0  0  0  0  0  0  0
   -0.3959    1.4748   -1.6827 C   0  0  0  0  0  0  0  0  0  0  0  0
    3.0950    1.6468   -0.0161 C   0  0  0  0  0  0  0  0  0  0  0  0
    4.4866    1.6463   -0.0173 C   0  0  0  0  0  0  0  0  0  0  0  0
  1  2  1  0
  2  3  2  0
  3  4  1  0
  4  5  1  0
  5  6  2  0
  5  7  1  0
  7  8  1  0
  8  9  1  0
  9  7  1  0
  3 10  1  0
 10 11  2  0
 11 12  1  0
 12 13  1  0
 13 14  2  0
 13 15  1  0
 15 16  1  0
 16 17  1  0
 17 18  2  0
 18 19  1  0
 19 20  1  0
 18 21  1  0
 21 22  2  0
 22 23  1  0
 23 24  2  0
 24 17  1  0
 24 25  1  0
 25 26  2  0
 25 27  1  0
 15 27  2  0
 27 28  1  0
 11 29  1  0
 29 30  2  0
 30  2  1  0
M  END
$$$$
s_527a____518116____736122
     RDKit          3D

 30 33  0  0  0  0  0  0  0  0999 V2000
    5.2087   -1.4150   -3.1709 O   0  0  0  0  0  0  0  0  0  0  0  0
    5.1990   -0.2921   -2.7477 C   0  0  0  0  0  0  0  0  0  0  0  0
    4.1962    0.2763   -1.9715 N   0  0  0  0  0  0  0  0  0  0  0  0
    2.9674   -0.4057   -1.5410 C   0  0  0  0  0  0  0  0  0  0  0  0
    3.2087   -1.0894   -0.2051 C   0  0  0  0  0  0  0  0  0  0  0  0
    2.9767   -0.4333    1.0000 C   0  0  0  0  0  0  0  0  0  0  0  0
    3.2085   -1.0891    2.2047 C   0  0  0  0  0  0  0  0  0  0  0  0
    3.6723   -2.4011    2.2047 C   0  0  0  0  0  0  0  0  0  0  0  0
    3.9033   -3.0572    0.9998 C   0  0  0  0  0  0  0  0  0  0  0  0
    3.6720   -2.4012   -0.2049 C   0  0  0  0  0  0  0  0  0  0  0  0
    2.4700    1.0000    1.0000 C   0  0  0  0  0  0  0  0  0  0  0  0
    1.0000    1.0000    1.0000 N   0  0  0  0  0  0  0  0  0  0  0  0
    0.3150    1.0000    2.1865 C   0  0  0  0  0  0  0  0  0  0  0  0
    0.9116    1.0906    3.2237 O   0  0  0  0  0  0  0  0  0  0  0  0
   -1.1315    0.8905    2.1888 C   0  0  0  0  0  0  0  0  0  0  0  0
   -1.9334    2.0638    2.1914 C   0  0  0  0  0  0  0  0  0  0  0  0
   -1.3743    3.1507    2.1915 O   0  0  0  0  0  0  0  0  0  0  0  0
   -3.3511    1.9402    2.1937 C   0  0  0  0  0  0  0  0  0  0  0  0
   -3.9185    0.6697    2.1941 C   0  0  0  0  0  0  0  0  0  0  0  0
   -3.1138   -0.4405    2.1914 N   0  0  0  0  0  0  0  0  0  0  0  0
   -1.7467   -0.3349    2.1890 C   0  0  0  0  0  0  0  0  0  0  0  0
   -5.2996    0.5053    2.1965 C   0  0  0  0  0  0  0  0  0  0  0  0
   -6.1099    1.6358    2.1986 C   0  0  0  0  0  0  0  0  0  0  0  0
   -7.4511    1.5136    2.2011 O   0  0  0  0  0  0  0  0  0  0  0  0
   -8.1561    1.4506    3.4321 C   0  0  0  0  0  0  0  0  0  0  0  0
   -5.5761    2.9186    2.1993 C   0  0  0  0  0  0  0  0  0  0  0  0
   -4.1928    3.0499    2.1968 C   0  0  0  0  0  0  0  0  0  0  0  0
    4.5462    1.6637   -1.6542 C   0  0  0  0  0  0  0  0  0  0  0  0
    6.0539    1.6722   -1.7775 C   0  0  0  0  0  0  0  0  0  0  0  0
    6.2712    0.7574   -2.9644 C   0  0  0  0  0  0  0  0  0  0  0  0
  1  2  2  0
  2  3  1  0
  3  4  1  0
  4  5  1  0
  5  6  1  0
  6  7  2  0
  7  8  1  0
  8  9  2  0
  9 10  1  0
 10  5  2  0
  6 11  1  0
 11 12  1  0
 12 13  1  0
 13 14  2  0
 13 15  1  0
 15 16  1  0
 16 17  2  0
 16 18  1  0
 18 19  2  0
 19 20  1  0
 20 21  1  0
 15 21  2  0
 19 22  1  0
 22 23  2  0
 23 24  1  0
 24 25  1  0
 23 26  1  0
 26 27  2  0
 27 18  1  0
  3 28  1  0
 28 29  1  0
 29 30  1  0
 30  2  1  0
M  END
$$$$
m_274860a____17134546____12536600____15233748
     RDKit          3D

 29 31  0  0  0  0  0  0  0  0999 V2000
    2.1895    3.3458    0.1980 F   0  0  0  0  0  0  0  0  0  0  0  0
    0.9204    3.3877    0.5906 C   0  0  0  0  0  0  0  0  0  0  0  0
    0.3004    2.2117    1.0000 C   0  0  0  0  0  0  0  0  0  0  0  0
    1.0000    1.0000    1.0000 N   0  0  0  0  0  0  0  0  0  0  0  0
    2.3830    1.0000    1.0000 N   0  0  0  0  0  0  0  0  0  0  0  0
    3.0680   -0.1763    0.8451 C   0  0  0  0  0  0  0  0  0  0  0  0
    2.4680   -1.2066    0.7095 O   0  0  0  0  0  0  0  0  0  0  0  0
    4.5880   -0.1763    0.8451 C   0  0  0  0  0  0  0  0  0  0  0  0
    5.0780   -0.3572    2.2191 N   0  0  0  0  0  0  0  0  0  0  0  0
    5.3330   -1.5059    2.7954 N   0  0  0  0  0  0  0  0  0  0  0  0
    5.7427   -1.3483    3.9797 N   0  0  0  0  0  0  0  0  0  0  0  0
    5.7671   -0.0100    4.2269 C   0  0  0  0  0  0  0  0  0  0  0  0
    6.1762    0.6204    5.4694 C   0  0  0  0  0  0  0  0  0  0  0  0
    6.1747    1.9531    5.6305 N   0  0  0  0  0  0  0  0  0  0  0  0
    6.5549    2.5359    6.7777 C   0  0  0  0  0  0  0  0  0  0  0  0
    6.9645    1.7362    7.8396 C   0  0  0  0  0  0  0  0  0  0  0  0
    6.9684    0.4035    7.6865 N   0  0  0  0  0  0  0  0  0  0  0  0
    6.5877   -0.1724    6.5362 C   0  0  0  0  0  0  0  0  0  0  0  0
    5.3450    0.6362    3.1057 C   0  0  0  0  0  0  0  0  0  0  0  0
   -1.0271    2.2471    1.4116 C   0  0  0  0  0  0  0  0  0  0  0  0
   -1.6274    1.1269    1.8036 F   0  0  0  0  0  0  0  0  0  0  0  0
   -1.7364    3.4432    1.4178 C   0  0  0  0  0  0  0  0  0  0  0  0
   -1.0944    4.6055    1.0045 C   0  0  0  0  0  0  0  0  0  0  0  0
    0.2323    4.5959    0.5881 C   0  0  0  0  0  0  0  0  0  0  0  0
   -1.8218    5.8587    1.0074 C   0  0  0  0  0  0  0  0  0  0  0  0
   -2.6387    6.0790    0.1564 O   0  0  0  0  0  0  0  0  0  0  0  0
   -1.5777    6.7916    1.9805 N   0  0  0  0  0  0  0  0  0  0  0  0
   -1.1443    6.3624    3.3180 C   0  0  0  0  0  0  0  0  0  0  0  0
   -1.7491    8.2218    1.6872 C   0  0  0  0  0  0  0  0  0  0  0  0
  1  2  1  0
  2  3  2  0
  3  4  1  0
  4  5  1  0
  5  6  1  0
  6  7  2  0
  6  8  1  0
  8  9  1  0
  9 10  1  0
 10 11  2  0
 11 12  1  0
 12 13  1  0
 13 14  2  0
 14 15  1  0
 15 16  2  0
 16 17  1  0
 17 18  2  0
 18 13  1  0
 12 19  2  0
 19  9  1  0
  3 20  1  0
 20 21  1  0
 20 22  2  0
 22 23  1  0
 23 24  2  0
 24  2  1  0
 23 25  1  0
 25 26  2  0
 25 27  1  0
 27 28  1  0
 27 29  1  0
M  END
$$$$
m_274860a____17146992____17212874____17179624
     RDKit          3D

 35 38  0  0  0  0  0  0  0  0999 V2000
    2.6018    6.7609    2.2164 F   0  0  0  0  0  0  0  0  0  0  0  0
    2.0933    6.3799    3.3838 C   0  0  0  0  0  0  0  0  0  0  0  0
    1.9516    5.0216    3.6482 C   0  0  0  0  0  0  0  0  0  0  0  0
    2.3382    4.0671    2.7009 N   0  0  0  0  0  0  0  0  0  0  0  0
    1.4341    3.1120    2.2731 N   0  0  0  0  0  0  0  0  0  0  0  0
    1.8776    1.8776    1.8776 C   0  0  0  0  0  0  0  0  0  0  0  0
    2.9588    1.4891    2.2240 O   0  0  0  0  0  0  0  0  0  0  0  0
    1.0000    1.0000    1.0000 C   0  0  0  0  0  0  0  0  0  0  0  0
    0.7171    1.6972   -0.2630 N   0  0  0  0  0  0  0  0  0  0  0  0
   -0.4724    2.0206   -0.7073 N   0  0  0  0  0  0  0  0  0  0  0  0
   -0.3960    2.6134   -1.8202 N   0  0  0  0  0  0  0  0  0  0  0  0
    0.9224    2.6993   -2.1534 C   0  0  0  0  0  0  0  0  0  0  0  0
    1.6463    2.1149   -1.1625 C   0  0  0  0  0  0  0  0  0  0  0  0
    1.4863    3.3392   -3.4108 C   0  0  0  0  0  0  0  0  0  0  0  0
    1.7551    4.7622   -3.1583 N   0  0  0  0  0  0  0  0  0  0  0  0
    2.9796    5.1546   -2.6855 C   0  0  0  0  0  0  0  0  0  0  0  0
    3.8327    4.3366   -2.4774 O   0  0  0  0  0  0  0  0  0  0  0  0
    3.2440    6.5544   -2.4371 C   0  0  0  0  0  0  0  0  0  0  0  0
    3.1965    7.5623   -3.3537 N   0  0  0  0  0  0  0  0  0  0  0  0
    3.5015    8.7065   -2.7779 N   0  0  0  0  0  0  0  0  0  0  0  0
    3.7445    8.5168   -1.5001 C   0  0  0  0  0  0  0  0  0  0  0  0
    3.5873    7.1351   -1.2513 C   0  0  0  0  0  0  0  0  0  0  0  0
    2.8557    7.3777   -4.7725 C   0  0  0  0  0  0  0  0  0  0  0  0
   -0.3059    0.7075    1.7208 C   0  0  0  0  0  0  0  0  0  0  0  0
    1.4200    4.6149    4.8668 C   0  0  0  0  0  0  0  0  0  0  0  0
    1.2804    3.3180    5.1269 F   0  0  0  0  0  0  0  0  0  0  0  0
    1.0313    5.5508    5.8191 C   0  0  0  0  0  0  0  0  0  0  0  0
    1.1833    6.9028    5.5315 C   0  0  0  0  0  0  0  0  0  0  0  0
    1.7121    7.3346    4.3200 C   0  0  0  0  0  0  0  0  0  0  0  0
    0.7834    7.8882    6.5156 C   0  0  0  0  0  0  0  0  0  0  0  0
    1.3624    7.9581    7.5643 O   0  0  0  0  0  0  0  0  0  0  0  0
   -0.2558    8.7401    6.2488 N   0  0  0  0  0  0  0  0  0  0  0  0
   -0.6612    9.7387    7.2461 C   0  0  0  0  0  0  0  0  0  0  0  0
   -2.0885    9.5472    7.6712 C   0  0  0  0  0  0  0  0  0  0  0  0
   -1.7294   10.6549    6.7222 C   0  0  0  0  0  0  0  0  0  0  0  0
  1  2  1  0
  2  3  2  0
  3  4  1  0
  4  5  1  0
  5  6  1  0
  6  7  2  0
  6  8  1  0
  8  9  1  0
  9 10  1  0
 10 11  2  0
 11 12  1  0
 12 13  2  0
 13  9  1  0
 12 14  1  0
 14 15  1  0
 15 16  1  0
 16 17  2  0
 16 18  1  0
 18 19  1  0
 19 20  1  0
 20 21  2  0
 21 22  1  0
 18 22  2  0
 19 23  1  0
  8 24  1  0
  3 25  1  0
 25 26  1  0
 25 27  2  0
 27 28  1  0
 28 29  2  0
 29  2  1  0
 28 30  1  0
 30 31  2  0
 30 32  1  0
 32 33  1  0
 33 34  1  0
 34 35  1  0
 35 33  1  0
M  END
$$$$
s_272164____9389352____9374480
     RDKit          3D

 31 34  0  0  0  0  0  0  0  0999 V2000
    1.9023   -1.8658    5.1499 O   0  0  0  0  0  0  0  0  0  0  0  0
    2.9224   -1.2597    5.3286 C   0  0  0  0  0  0  0  0  0  0  0  0
    3.5511   -1.3587    6.4736 O   0  0  0  0  0  0  0  0  0  0  0  0
    3.0254   -2.1832    7.5033 C   0  0  0  0  0  0  0  0  0  0  0  0
    3.4593   -0.4176    4.2769 C   0  0  0  0  0  0  0  0  0  0  0  0
    2.6865   -0.1227    3.1582 C   0  0  0  0  0  0  0  0  0  0  0  0
    3.1652    0.6929    2.1375 C   0  0  0  0  0  0  0  0  0  0  0  0
    2.4024    1.0000    1.0000 N   0  0  0  0  0  0  0  0  0  0  0  0
    1.0000    1.0000    1.0000 C   0  0  0  0  0  0  0  0  0  0  0  0
    0.4000    1.2671    2.0043 O   0  0  0  0  0  0  0  0  0  0  0  0
    0.3150    0.6951   -0.1466 N   0  0  0  0  0  0  0  0  0  0  0  0
   -1.0694    0.8963   -0.2096 C   0  0  0  0  0  0  0  0  0  0  0  0
   -1.7721    1.2046    0.9507 C   0  0  0  0  0  0  0  0  0  0  0  0
   -3.1470    1.4021    0.8767 C   0  0  0  0  0  0  0  0  0  0  0  0
   -3.8106    1.2927   -0.3413 C   0  0  0  0  0  0  0  0  0  0  0  0
   -5.1948    1.4936   -0.4049 N   0  0  0  0  0  0  0  0  0  0  0  0
   -6.1515    0.5128   -0.1503 C   0  0  0  0  0  0  0  0  0  0  0  0
   -5.9285   -0.6425    0.1709 O   0  0  0  0  0  0  0  0  0  0  0  0
   -7.5180    1.1340   -0.3347 C   0  0  0  0  0  0  0  0  0  0  0  0
   -7.2220    2.5918   -0.0621 C   0  0  0  0  0  0  0  0  0  0  0  0
   -5.8837    2.7408   -0.7506 C   0  0  0  0  0  0  0  0  0  0  0  0
   -3.0983    0.9847   -1.4961 C   0  0  0  0  0  0  0  0  0  0  0  0
   -1.7231    0.7850   -1.4328 C   0  0  0  0  0  0  0  0  0  0  0  0
   -3.9007    1.7384    2.1535 C   0  0  0  0  0  0  0  0  0  0  0  0
    3.0940    1.3439   -0.2507 C   0  0  0  0  0  0  0  0  0  0  0  0
    4.3539    2.1474    0.0327 C   0  0  0  0  0  0  0  0  0  0  0  0
    4.8485    2.8680   -0.8212 O   0  0  0  0  0  0  0  0  0  0  0  0
    4.9626    2.0636    1.2914 N   0  0  0  0  0  0  0  0  0  0  0  0
    4.4461    1.2134    2.2764 C   0  0  0  0  0  0  0  0  0  0  0  0
    5.2366    0.9194    3.3850 C   0  0  0  0  0  0  0  0  0  0  0  0
    4.7457    0.0972    4.3945 C   0  0  0  0  0  0  0  0  0  0  0  0
  1  2  2  0
  2  3  1  0
  3  4  1  0
  2  5  1  0
  5  6  2  0
  6  7  1  0
  7  8  1  0
  8  9  1  0
  9 10  2  0
  9 11  1  0
 11 12  1  0
 12 13  2  0
 13 14  1  0
 14 15  2  0
 15 16  1  0
 16 17  1  0
 17 18  2  0
 17 19  1  0
 19 20  1  0
 20 21  1  0
 21 16  1  0
 15 22  1  0
 22 23  2  0
 23 12  1  0
 14 24  1  0
  8 25  1  0
 25 26  1  0
 26 27  2  0
 26 28  1  0
 28 29  1  0
 29  7  2  0
 29 30  1  0
 30 31  2  0
 31  5  1  0
M  END
$$$$
s_2718____871068____8251538
     RDKit          3D

 33 36  0  0  0  0  0  0  0  0999 V2000
    0.8400    3.3556    1.0000 O   0  0  0  0  0  0  0  0  0  0  0  0
    0.2400    2.3164    1.0000 C   0  0  0  0  0  0  0  0  0  0  0  0
   -1.1300    2.3164    1.0000 N   0  0  0  0  0  0  0  0  0  0  0  0
   -1.8295    3.5279    1.0000 C   0  0  0  0  0  0  0  0  0  0  0  0
   -3.1807    3.6739    1.0000 N   0  0  0  0  0  0  0  0  0  0  0  0
   -3.4771    4.9516    0.9988 N   0  0  0  0  0  0  0  0  0  0  0  0
   -2.3721    5.6554    0.9968 C   0  0  0  0  0  0  0  0  0  0  0  0
   -1.2736    4.7679    0.9968 C   0  0  0  0  0  0  0  0  0  0  0  0
   -2.2859    7.1729    0.9946 C   0  0  0  0  0  0  0  0  0  0  0  0
   -2.2558    7.6807    2.4270 C   0  0  0  0  0  0  0  0  0  0  0  0
   -1.0187    7.6073    0.2763 C   0  0  0  0  0  0  0  0  0  0  0  0
   -4.1103    2.6262    0.9994 C   0  0  0  0  0  0  0  0  0  0  0  0
   -3.6928    1.3513    1.0008 N   0  0  0  0  0  0  0  0  0  0  0  0
   -4.5619    0.3297    1.0008 C   0  0  0  0  0  0  0  0  0  0  0  0
   -5.9261    0.5967    0.9996 C   0  0  0  0  0  0  0  0  0  0  0  0
   -6.3417    1.9233    0.9983 C   0  0  0  0  0  0  0  0  0  0  0  0
   -5.4233    2.9003    0.9983 N   0  0  0  0  0  0  0  0  0  0  0  0
    1.0000    1.0000    1.0000 C   0  0  0  0  0  0  0  0  0  0  0  0
    0.4000   -0.0392    1.0000 O   0  0  0  0  0  0  0  0  0  0  0  0
    2.3700    1.0000    1.0000 N   0  0  0  0  0  0  0  0  0  0  0  0
    3.1050   -0.2731    1.0000 C   0  0  0  0  0  0  0  0  0  0  0  0
    3.3583   -0.7118   -0.4330 C   0  0  0  0  0  0  0  0  0  0  0  0
    4.5227   -0.3014   -1.0743 C   0  0  0  0  0  0  0  0  0  0  0  0
    4.7526   -0.7044   -2.3860 C   0  0  0  0  0  0  0  0  0  0  0  0
    3.8242   -1.5083   -3.0390 C   0  0  0  0  0  0  0  0  0  0  0  0
    4.0581   -1.9121   -4.3563 N   0  0  0  0  0  0  0  0  0  0  0  0
    3.2044   -2.7133   -5.1082 C   0  0  0  0  0  0  0  0  0  0  0  0
    2.1591   -3.1749   -4.7418 O   0  0  0  0  0  0  0  0  0  0  0  0
    3.8430   -2.9049   -6.4686 C   0  0  0  0  0  0  0  0  0  0  0  0
    5.3085   -2.6754   -6.1602 C   0  0  0  0  0  0  0  0  0  0  0  0
    5.2402   -1.5568   -5.1429 C   0  0  0  0  0  0  0  0  0  0  0  0
    2.6611   -1.9174   -2.3951 C   0  0  0  0  0  0  0  0  0  0  0  0
    2.4284   -1.5159   -1.0837 C   0  0  0  0  0  0  0  0  0  0  0  0
  1  2  2  0
  2  3  1  0
  3  4  1  0
  4  5  1  0
  5  6  1  0
  6  7  2  0
  7  8  1  0
  4  8  2  0
  7  9  1  0
  9 10  1  0
  9 11  1  0
  5 12  1  0
 12 13  2  0
 13 14  1  0
 14 15  2  0
 15 16  1  0
 16 17  2  0
 17 12  1  0
  2 18  1  0
 18 19  2  0
 18 20  1  0
 20 21  1  0
 21 22  1  0
 22 23  2  0
 23 24  1  0
 24 25  2  0
 25 26  1  0
 26 27  1  0
 27 28  2  0
 27 29  1  0
 29 30  1  0
 30 31  1  0
 31 26  1  0
 25 32  1  0
 32 33  2  0
 33 22  1  0
M  END
$$$$
m_274860a____17135624____17212874____12655848
     RDKit          3D

 31 34  0  0  0  0  0  0  0  0999 V2000
    3.8888   -3.0133   -1.3521 F   0  0  0  0  0  0  0  0  0  0  0  0
    3.6670   -2.3852   -0.2001 C   0  0  0  0  0  0  0  0  0  0  0  0
    3.8982   -3.0399    1.0056 C   0  0  0  0  0  0  0  0  0  0  0  0
    4.3654   -4.3598    0.9957 N   0  0  0  0  0  0  0  0  0  0  0  0
    5.6525   -4.6552    0.3478 C   0  0  0  0  0  0  0  0  0  0  0  0
    6.2321   -5.9398    0.9185 C   0  0  0  0  0  0  0  0  0  0  0  0
    7.4348   -6.0762    1.0815 O   0  0  0  0  0  0  0  0  0  0  0  0
    5.3481   -6.9681    1.2653 N   0  0  0  0  0  0  0  0  0  0  0  0
    3.8960   -6.7993    1.1108 C   0  0  0  0  0  0  0  0  0  0  0  0
    3.5560   -5.4123    1.6301 C   0  0  0  0  0  0  0  0  0  0  0  0
    3.6689   -2.3948    2.2160 C   0  0  0  0  0  0  0  0  0  0  0  0
    3.2051   -1.0835    2.2087 C   0  0  0  0  0  0  0  0  0  0  0  0
    2.9766   -0.4330    1.0000 C   0  0  0  0  0  0  0  0  0  0  0  0
    3.2034   -1.0743   -0.2128 C   0  0  0  0  0  0  0  0  0  0  0  0
    2.4700    1.0000    1.0000 C   0  0  0  0  0  0  0  0  0  0  0  0
    1.0000    1.0000    1.0000 N   0  0  0  0  0  0  0  0  0  0  0  0
    0.3150    1.0000    2.1865 C   0  0  0  0  0  0  0  0  0  0  0  0
    0.9150    1.0000    3.2257 O   0  0  0  0  0  0  0  0  0  0  0  0
   -1.2050    1.0000    2.1865 C   0  0  0  0  0  0  0  0  0  0  0  0
   -1.6950   -0.2002    1.4935 N   0  0  0  0  0  0  0  0  0  0  0  0
   -1.4486   -1.4390    1.8420 N   0  0  0  0  0  0  0  0  0  0  0  0
   -2.0046   -2.2590    1.0587 N   0  0  0  0  0  0  0  0  0  0  0  0
   -2.6698   -1.5351    0.1172 C   0  0  0  0  0  0  0  0  0  0  0  0
   -3.4481   -2.0759   -0.9792 C   0  0  0  0  0  0  0  0  0  0  0  0
   -3.5694   -3.4519   -1.1452 C   0  0  0  0  0  0  0  0  0  0  0  0
   -4.2945   -3.9289   -2.1679 N   0  0  0  0  0  0  0  0  0  0  0  0
   -4.9057   -3.1082   -3.0346 C   0  0  0  0  0  0  0  0  0  0  0  0
   -4.7984   -1.7790   -2.8892 N   0  0  0  0  0  0  0  0  0  0  0  0
   -4.0879   -1.2396   -1.8874 C   0  0  0  0  0  0  0  0  0  0  0  0
   -2.4806   -0.2142    0.3860 C   0  0  0  0  0  0  0  0  0  0  0  0
   -1.7117    1.0000    3.6195 C   0  0  0  0  0  0  0  0  0  0  0  0
  1  2  1  0
  2  3  2  0
  3  4  1  0
  4  5  1  0
  5  6  1  0
  6  7  2  0
  6  8  1  0
  8  9  1  0
  9 10  1  0
 10  4  1  0
  3 11  1  0
 11 12  2  0
 12 13  1  0
 13 14  2  0
 14  2  1  0
 13 15  1  0
 15 16  1  0
 16 17  1  0
 17 18  2  0
 17 19  1  0
 19 20  1  0
 20 21  1  0
 21 22  2  0
 22 23  1  0
 23 24  1  0
 24 25  2  0
 25 26  1  0
 26 27  2  0
 27 28  1  0
 28 29  2  0
 29 24  1  0
 23 30  2  0
 30 20  1  0
 19 31  1  0
M  END
$$$$
s_22____2016360____2787412
     RDKit          3D

 30 33  0  0  0  0  0  0  0  0999 V2000
    6.2357   -0.1668   -3.1941 Cl  0  0  0  0  0  0  0  0  0  0  0  0
    4.7297   -0.7130   -2.4166 C   0  0  0  0  0  0  0  0  0  0  0  0
    3.7964   -1.5045   -3.0898 C   0  0  0  0  0  0  0  0  0  0  0  0
    3.9440   -1.9044   -4.3742 O   0  0  0  0  0  0  0  0  0  0  0  0
    2.8364   -2.1288   -5.2421 C   0  0  0  0  0  0  0  0  0  0  0  0
    1.5878   -2.5927   -4.5015 C   0  0  0  0  0  0  0  0  0  0  0  0
    1.7749   -2.6976   -3.0934 O   0  0  0  0  0  0  0  0  0  0  0  0
    2.6491   -1.9145   -2.4247 C   0  0  0  0  0  0  0  0  0  0  0  0
    2.4403   -1.5118   -1.1084 C   0  0  0  0  0  0  0  0  0  0  0  0
    3.3585   -0.7122   -0.4341 C   0  0  0  0  0  0  0  0  0  0  0  0
    4.5150   -0.3164   -1.1001 C   0  0  0  0  0  0  0  0  0  0  0  0
    3.1050   -0.2731    1.0000 C   0  0  0  0  0  0  0  0  0  0  0  0
    2.3700    1.0000    1.0000 N   0  0  0  0  0  0  0  0  0  0  0  0
    1.0000    1.0000    1.0000 C   0  0  0  0  0  0  0  0  0  0  0  0
    0.4000   -0.0392    1.0000 O   0  0  0  0  0  0  0  0  0  0  0  0
    0.2400    2.3164    1.0000 C   0  0  0  0  0  0  0  0  0  0  0  0
   -0.2289    2.6308   -0.4116 C   0  0  0  0  0  0  0  0  0  0  0  0
   -1.3912    2.0006   -0.9308 C   0  0  0  0  0  0  0  0  0  0  0  0
   -2.0234    1.2046   -0.2557 O   0  0  0  0  0  0  0  0  0  0  0  0
   -1.7882    2.3047   -2.2069 N   0  0  0  0  0  0  0  0  0  0  0  0
   -1.0844    3.1972   -2.9733 C   0  0  0  0  0  0  0  0  0  0  0  0
   -0.0035    3.7805   -2.4855 N   0  0  0  0  0  0  0  0  0  0  0  0
    0.4422    3.5162   -1.2163 C   0  0  0  0  0  0  0  0  0  0  0  0
    1.6899    4.2070   -0.6895 C   0  0  0  0  0  0  0  0  0  0  0  0
   -1.5511    3.4796   -4.3167 C   0  0  0  0  0  0  0  0  0  0  0  0
   -2.6496    2.8785   -4.7977 N   0  0  0  0  0  0  0  0  0  0  0  0
   -3.0952    3.1284   -6.0375 C   0  0  0  0  0  0  0  0  0  0  0  0
   -2.4061    4.0287   -6.8433 C   0  0  0  0  0  0  0  0  0  0  0  0
   -1.2703    4.6429   -6.3269 C   0  0  0  0  0  0  0  0  0  0  0  0
   -0.8744    4.3518   -5.0790 N   0  0  0  0  0  0  0  0  0  0  0  0
  1  2  1  0
  2  3  2  0
  3  4  1  0
  4  5  1  0
  5  6  1  0
  6  7  1  0
  7  8  1  0
  8  3  1  0
  8  9  2  0
  9 10  1  0
 10 11  2  0
 11  2  1  0
 10 12  1  0
 12 13  1  0
 13 14  1  0
 14 15  2  0
 14 16  1  0
 16 17  1  0
 17 18  1  0
 18 19  2  0
 18 20  1  0
 20 21  1  0
 21 22  2  0
 22 23  1  0
 17 23  2  0
 23 24  1  0
 21 25  1  0
 25 26  2  0
 26 27  1  0
 27 28  2  0
 28 29  1  0
 29 30  2  0
 30 25  1  0
M  END
$$$$
s_11a____15138556____5825580
     RDKit          3D

 29 31  0  0  0  0  0  0  0  0999 V2000
    0.8226    3.5273    2.5241 F   0  0  0  0  0  0  0  0  0  0  0  0
    1.9821    2.8763    2.5102 C   0  0  0  0  0  0  0  0  0  0  0  0
    3.1781    3.5854    2.5020 C   0  0  0  0  0  0  0  0  0  0  0  0
    3.1519    4.9853    2.5098 N   0  0  0  0  0  0  0  0  0  0  0  0
    3.7219    5.6869    1.4803 C   0  0  0  0  0  0  0  0  0  0  0  0
    4.2435    5.1016    0.5718 O   0  0  0  0  0  0  0  0  0  0  0  0
    3.6934    7.2066    1.4888 C   0  0  0  0  0  0  0  0  0  0  0  0
    4.4128    7.7199    2.7255 C   0  0  0  0  0  0  0  0  0  0  0  0
    4.3879    7.7333    0.2435 C   0  0  0  0  0  0  0  0  0  0  0  0
    4.3974    2.9172    2.4866 C   0  0  0  0  0  0  0  0  0  0  0  0
    4.4046    1.5262    2.4788 C   0  0  0  0  0  0  0  0  0  0  0  0
    3.2098    0.8152    2.4879 C   0  0  0  0  0  0  0  0  0  0  0  0
    3.2130   -0.5146    2.4812 F   0  0  0  0  0  0  0  0  0  0  0  0
    1.9907    1.4852    2.5037 C   0  0  0  0  0  0  0  0  0  0  0  0
    5.6741    0.8254    2.4611 C   0  0  0  0  0  0  0  0  0  0  0  0
    6.5914    1.2286    3.1214 O   0  0  0  0  0  0  0  0  0  0  0  0
    5.8261   -0.2971    1.6905 N   0  0  0  0  0  0  0  0  0  0  0  0
    7.1111   -0.7335    1.3320 C   0  0  0  0  0  0  0  0  0  0  0  0
    8.0307    0.1361    0.7542 C   0  0  0  0  0  0  0  0  0  0  0  0
    9.2539   -0.3049    0.4213 N   0  0  0  0  0  0  0  0  0  0  0  0
    9.6289   -1.5771    0.6283 C   0  0  0  0  0  0  0  0  0  0  0  0
    8.7556   -2.4306    1.1849 N   0  0  0  0  0  0  0  0  0  0  0  0
    7.5193   -2.0479    1.5397 C   0  0  0  0  0  0  0  0  0  0  0  0
   10.9561   -2.0348    0.2620 C   0  0  0  0  0  0  0  0  0  0  0  0
   12.0312   -1.2677    0.4969 N   0  0  0  0  0  0  0  0  0  0  0  0
   13.2648   -1.6754    0.1652 C   0  0  0  0  0  0  0  0  0  0  0  0
   13.4360   -2.9184   -0.4351 C   0  0  0  0  0  0  0  0  0  0  0  0
   12.3098   -3.6999   -0.6696 C   0  0  0  0  0  0  0  0  0  0  0  0
   11.1021   -3.2372   -0.3150 N   0  0  0  0  0  0  0  0  0  0  0  0
  1  2  1  0
  2  3  2  0
  3  4  1  0
  4  5  1  0
  5  6  2  0
  5  7  1  0
  7  8  1  0
  7  9  1  0
  3 10  1  0
 10 11  2  0
 11 12  1  0
 12 13  1  0
 12 14  2  0
 14  2  1  0
 11 15  1  0
 15 16  2  0
 15 17  1  0
 17 18  1  0
 18 19  2  0
 19 20  1  0
 20 21  2  0
 21 22  1  0
 22 23  2  0
 23 18  1  0
 21 24  1  0
 24 25  2  0
 25 26  1  0
 26 27  2  0
 27 28  1  0
 28 29  2  0
 29 24  1  0
M  END
$$$$
s_527a____15105384____12218672
     RDKit          3D

 32 35  0  0  0  0  0  0  0  0999 V2000
   -3.0409    0.3597   -2.0124 F   0  0  0  0  0  0  0  0  0  0  0  0
   -2.2381    1.3704   -1.6956 C   0  0  0  0  0  0  0  0  0  0  0  0
   -2.1978    2.5036   -2.5005 C   0  0  0  0  0  0  0  0  0  0  0  0
   -1.3608    3.5644   -2.1722 C   0  0  0  0  0  0  0  0  0  0  0  0
   -0.5603    3.4933   -1.0372 C   0  0  0  0  0  0  0  0  0  0  0  0
   -0.6088    2.3536   -0.2409 C   0  0  0  0  0  0  0  0  0  0  0  0
   -1.4423    1.2863   -0.5581 C   0  0  0  0  0  0  0  0  0  0  0  0
    0.2650    2.2731    1.0000 C   0  0  0  0  0  0  0  0  0  0  0  0
    1.0000    1.0000    1.0000 N   0  0  0  0  0  0  0  0  0  0  0  0
    2.3700    1.0000    1.0000 C   0  0  0  0  0  0  0  0  0  0  0  0
    2.9700    2.0353    1.0906 O   0  0  0  0  0  0  0  0  0  0  0  0
    3.0955   -0.2518    0.8905 C   0  0  0  0  0  0  0  0  0  0  0  0
    2.4450   -1.4726    1.2066 C   0  0  0  0  0  0  0  0  0  0  0  0
    1.2789   -1.3669    1.5603 O   0  0  0  0  0  0  0  0  0  0  0  0
    3.1276   -2.7252    1.1102 C   0  0  0  0  0  0  0  0  0  0  0  0
    2.5500   -3.9692    1.4050 C   0  0  0  0  0  0  0  0  0  0  0  0
    1.2709   -4.1269    1.8143 O   0  0  0  0  0  0  0  0  0  0  0  0
    0.7499   -5.4303    2.0294 C   0  0  0  0  0  0  0  0  0  0  0  0
    3.2622   -5.1552    1.2948 C   0  0  0  0  0  0  0  0  0  0  0  0
    4.5837   -5.0714    0.8774 C   0  0  0  0  0  0  0  0  0  0  0  0
    5.2660   -6.2253    0.7746 O   0  0  0  0  0  0  0  0  0  0  0  0
    6.6849   -6.2089    0.7213 C   0  0  0  0  0  0  0  0  0  0  0  0
    5.1930   -3.8581    0.5752 C   0  0  0  0  0  0  0  0  0  0  0  0
    4.4558   -2.6846    0.6938 C   0  0  0  0  0  0  0  0  0  0  0  0
    5.0703   -1.4965    0.3926 N   0  0  0  0  0  0  0  0  0  0  0  0
    4.4051   -0.3017    0.4880 C   0  0  0  0  0  0  0  0  0  0  0  0
   -0.6089    2.3536    2.2411 C   0  0  0  0  0  0  0  0  0  0  0  0
   -1.3189    3.5833    2.2411 O   0  0  0  0  0  0  0  0  0  0  0  0
    0.2654    2.2730    3.4827 C   0  0  0  0  0  0  0  0  0  0  0  0
   -0.5650    2.3495    4.7305 C   0  0  0  0  0  0  0  0  0  0  0  0
    0.2362    3.5402    4.2879 C   0  0  0  0  0  0  0  0  0  0  0  0
   -3.0705    2.5815   -3.7416 C   0  0  0  0  0  0  0  0  0  0  0  0
  1  2  1  0
  2  3  2  0
  3  4  1  0
  4  5  2  0
  5  6  1  0
  6  7  2  0
  7  2  1  0
  6  8  1  0
  8  9  1  0
  9 10  1  0
 10 11  2  0
 10 12  1  0
 12 13  1  0
 13 14  2  0
 13 15  1  0
 15 16  2  0
 16 17  1  0
 17 18  1  0
 16 19  1  0
 19 20  2  0
 20 21  1  0
 21 22  1  0
 20 23  1  0
 23 24  2  0
 24 15  1  0
 24 25  1  0
 25 26  1  0
 12 26  2  0
  8 27  1  0
 27 28  1  0
 27 29  1  0
 29 30  1  0
 30 31  1  0
 31 29  1  0
  3 32  1  0
M  END
$$$$
s_2430a____1041920____7689788
     RDKit          3D

 31 34  0  0  0  0  0  0  0  0999 V2000
    4.0995    0.3546   -1.0357 F   0  0  0  0  0  0  0  0  0  0  0  0
    3.9398   -0.5151   -0.0427 C   0  0  0  0  0  0  0  0  0  0  0  0
    3.0701   -0.2126    1.0000 C   0  0  0  0  0  0  0  0  0  0  0  0
    2.3700    1.0000    1.0000 N   0  0  0  0  0  0  0  0  0  0  0  0
    1.0000    1.0000    1.0000 C   0  0  0  0  0  0  0  0  0  0  0  0
    0.4000   -0.0392    1.0000 O   0  0  0  0  0  0  0  0  0  0  0  0
    0.3150    2.1865    1.0000 N   0  0  0  0  0  0  0  0  0  0  0  0
   -1.1550    2.1865    1.0000 C   0  0  0  0  0  0  0  0  0  0  0  0
   -1.6616    2.9029    2.2410 C   0  0  0  0  0  0  0  0  0  0  0  0
   -1.2751    4.0811    2.6580 O   0  0  0  0  0  0  0  0  0  0  0  0
   -1.8939    4.3874    3.7191 N   0  0  0  0  0  0  0  0  0  0  0  0
   -2.7040    3.4029    4.0230 C   0  0  0  0  0  0  0  0  0  0  0  0
   -2.5620    2.4403    3.0737 N   0  0  0  0  0  0  0  0  0  0  0  0
   -3.5947    3.3520    5.1666 C   0  0  0  0  0  0  0  0  0  0  0  0
   -3.2466    3.0445    6.3931 N   0  0  0  0  0  0  0  0  0  0  0  0
   -4.3145    3.1050    7.1564 N   0  0  0  0  0  0  0  0  0  0  0  0
   -5.3719    3.4692    6.3746 C   0  0  0  0  0  0  0  0  0  0  0  0
   -4.9294    3.6220    5.1467 N   0  0  0  0  0  0  0  0  0  0  0  0
   -1.6617    2.9030   -0.2411 C   0  0  0  0  0  0  0  0  0  0  0  0
   -1.1550    2.1865   -1.4821 C   0  0  0  0  0  0  0  0  0  0  0  0
   -3.1817    2.9030   -0.2411 C   0  0  0  0  0  0  0  0  0  0  0  0
    2.8873   -1.1064    2.0491 C   0  0  0  0  0  0  0  0  0  0  0  0
    3.5899   -2.3059    2.0350 C   0  0  0  0  0  0  0  0  0  0  0  0
    3.4192   -3.2150    3.0825 N   0  0  0  0  0  0  0  0  0  0  0  0
    4.1774   -3.2393    4.2490 C   0  0  0  0  0  0  0  0  0  0  0  0
    5.0954   -2.4866    4.5274 O   0  0  0  0  0  0  0  0  0  0  0  0
    3.6603   -4.3792    5.1026 C   0  0  0  0  0  0  0  0  0  0  0  0
    3.0301   -5.2850    4.0645 C   0  0  0  0  0  0  0  0  0  0  0  0
    2.4189   -4.2834    3.1084 C   0  0  0  0  0  0  0  0  0  0  0  0
    4.4606   -2.6148    0.9958 C   0  0  0  0  0  0  0  0  0  0  0  0
    4.6400   -1.7171   -0.0512 C   0  0  0  0  0  0  0  0  0  0  0  0
  1  2  1  0
  2  3  2  0
  3  4  1  0
  4  5  1  0
  5  6  2  0
  5  7  1  0
  7  8  1  0
  8  9  1  0
  9 10  1  0
 10 11  1  0
 11 12  2  0
 12 13  1  0
  9 13  2  0
 12 14  1  0
 14 15  2  0
 15 16  1  0
 16 17  1  0
 17 18  2  0
 18 14  1  0
  8 19  1  0
 19 20  1  0
 19 21  1  0
  3 22  1  0
 22 23  2  0
 23 24  1  0
 24 25  1  0
 25 26  2  0
 25 27  1  0
 27 28  1  0
 28 29  1  0
 29 24  1  0
 23 30  1  0
 30 31  2  0
 31  2  1  0
M  END
$$$$
s_22____7639468____7688372
     RDKit          3D

 33 37  0  0  0  0  0  0  0  0999 V2000
    1.9369    0.3005   -1.6216 F   0  0  0  0  0  0  0  0  0  0  0  0
    2.8422   -0.3877   -0.9335 C   0  0  0  0  0  0  0  0  0  0  0  0
    3.0826   -0.0494    0.3941 C   0  0  0  0  0  0  0  0  0  0  0  0
    2.3830    1.0000    1.0000 N   0  0  0  0  0  0  0  0  0  0  0  0
    1.0000    1.0000    1.0000 N   0  0  0  0  0  0  0  0  0  0  0  0
    0.3150    2.1865    1.0000 C   0  0  0  0  0  0  0  0  0  0  0  0
    0.8843    3.2080    0.7310 O   0  0  0  0  0  0  0  0  0  0  0  0
   -1.1004    2.2079    1.3256 C   0  0  0  0  0  0  0  0  0  0  0  0
   -1.6182    2.9313    2.3995 C   0  0  0  0  0  0  0  0  0  0  0  0
   -2.9895    2.8994    2.6450 C   0  0  0  0  0  0  0  0  0  0  0  0
   -3.7874    2.1739    1.8447 N   0  0  0  0  0  0  0  0  0  0  0  0
   -3.3097    1.4700    0.8055 C   0  0  0  0  0  0  0  0  0  0  0  0
   -1.9503    1.4664    0.5140 C   0  0  0  0  0  0  0  0  0  0  0  0
   -4.2197    0.6511   -0.0954 C   0  0  0  0  0  0  0  0  0  0  0  0
   -3.6093    0.4705   -1.4545 C   0  0  0  0  0  0  0  0  0  0  0  0
   -4.7367    1.4437   -1.2613 C   0  0  0  0  0  0  0  0  0  0  0  0
   -3.5083    3.6210    3.7161 C   0  0  0  0  0  0  0  0  0  0  0  0
   -2.6871    4.3751    4.5485 C   0  0  0  0  0  0  0  0  0  0  0  0
   -1.3173    4.4096    4.3083 C   0  0  0  0  0  0  0  0  0  0  0  0
   -0.4718    5.1237    5.0814 O   0  0  0  0  0  0  0  0  0  0  0  0
   -0.8788    6.3782    5.6077 C   0  0  0  0  0  0  0  0  0  0  0  0
   -0.8029    3.6875    3.2386 C   0  0  0  0  0  0  0  0  0  0  0  0
    4.0284   -0.7641    1.1205 C   0  0  0  0  0  0  0  0  0  0  0  0
    4.2648   -0.4462    2.3902 F   0  0  0  0  0  0  0  0  0  0  0  0
    4.7320   -1.8100    0.5333 C   0  0  0  0  0  0  0  0  0  0  0  0
    4.4735   -2.1295   -0.7952 C   0  0  0  0  0  0  0  0  0  0  0  0
    3.5328   -1.4295   -1.5427 C   0  0  0  0  0  0  0  0  0  0  0  0
    5.1989   -3.2179   -1.4187 C   0  0  0  0  0  0  0  0  0  0  0  0
    4.6015   -4.0857   -1.9931 O   0  0  0  0  0  0  0  0  0  0  0  0
    6.5667   -3.2562   -1.3523 N   0  0  0  0  0  0  0  0  0  0  0  0
    7.3019   -4.3592   -1.9841 C   0  0  0  0  0  0  0  0  0  0  0  0
    8.1139   -5.1276   -0.9818 C   0  0  0  0  0  0  0  0  0  0  0  0
    8.7883   -4.1588   -1.9107 C   0  0  0  0  0  0  0  0  0  0  0  0
  1  2  1  0
  2  3  2  0
  3  4  1  0
  4  5  1  0
  5  6  1  0
  6  7  2  0
  6  8  1  0
  8  9  2  0
  9 10  1  0
 10 11  2  0
 11 12  1  0
 12 13  2  0
 13  8  1  0
 12 14  1  0
 14 15  1  0
 15 16  1  0
 16 14  1  0
 10 17  1  0
 17 18  2  0
 18 19  1  0
 19 20  1  0
 20 21  1  0
 19 22  2  0
 22  9  1  0
  3 23  1  0
 23 24  1  0
 23 25  2  0
 25 26  1  0
 26 27  2  0
 27  2  1  0
 26 28  1  0
 28 29  2  0
 28 30  1  0
 30 31  1  0
 31 32  1  0
 32 33  1  0
 33 31  1  0
M  END
$$$$
m_274860b____17167114____17196280____17179884
     RDKit          3D

 42 48  0  0  0  0  0  0  0  0999 V2000
   -6.5242    9.6239    5.6331 Br  0  0  0  0  0  0  0  0  0  0  0  0
   -4.6169    9.1853    5.7421 C   0  0  0  0  0  0  0  0  0  0  0  0
   -3.7852    9.8051    6.6714 C   0  0  0  0  0  0  0  0  0  0  0  0
   -4.2453   10.7268    7.5325 N   0  0  0  0  0  0  0  0  0  0  0  0
   -3.4483   11.3272    8.4292 C   0  0  0  0  0  0  0  0  0  0  0  0
   -2.1007   10.9832    8.4690 C   0  0  0  0  0  0  0  0  0  0  0  0
   -1.6411   10.0621    7.6095 N   0  0  0  0  0  0  0  0  0  0  0  0
   -2.4366    9.4603    6.7112 C   0  0  0  0  0  0  0  0  0  0  0  0
   -1.9381    8.5067    5.8288 C   0  0  0  0  0  0  0  0  0  0  0  0
   -2.7741    7.8909    4.9036 C   0  0  0  0  0  0  0  0  0  0  0  0
   -4.1226    8.2311    4.8586 C   0  0  0  0  0  0  0  0  0  0  0  0
   -2.2463    6.8985    3.9894 C   0  0  0  0  0  0  0  0  0  0  0  0
   -2.8427    6.6326    2.9826 O   0  0  0  0  0  0  0  0  0  0  0  0
   -1.0662    6.2636    4.2745 N   0  0  0  0  0  0  0  0  0  0  0  0
   -0.5310    5.2574    3.3477 C   0  0  0  0  0  0  0  0  0  0  0  0
    0.7695    4.6479    3.7945 C   0  0  0  0  0  0  0  0  0  0  0  0
    0.8507    3.7642    2.5836 C   0  0  0  0  0  0  0  0  0  0  0  0
    2.0449    2.9079    2.5406 N   0  0  0  0  0  0  0  0  0  0  0  0
    3.2864    3.3264    2.5304 N   0  0  0  0  0  0  0  0  0  0  0  0
    4.0997    2.3609    2.4928 N   0  0  0  0  0  0  0  0  0  0  0  0
    3.3679    1.2133    2.4745 C   0  0  0  0  0  0  0  0  0  0  0  0
    3.8997   -0.1356    2.4323 C   0  0  0  0  0  0  0  0  0  0  0  0
    5.2336   -0.3393    2.0942 C   0  0  0  0  0  0  0  0  0  0  0  0
    5.7317   -1.6375    2.0568 C   0  0  0  0  0  0  0  0  0  0  0  0
    4.9063   -2.7181    2.3539 C   0  0  0  0  0  0  0  0  0  0  0  0
    3.5740   -2.5036    2.6907 C   0  0  0  0  0  0  0  0  0  0  0  0
    3.0665   -1.2089    2.7308 C   0  0  0  0  0  0  0  0  0  0  0  0
    5.4254   -4.1467    2.3203 C   0  0  0  0  0  0  0  0  0  0  0  0
    7.1248   -1.8295    1.7021 C   0  0  0  0  0  0  0  0  0  0  0  0
    7.4359   -1.9818    0.5532 O   0  0  0  0  0  0  0  0  0  0  0  0
    8.0856   -1.8370    2.6787 N   0  0  0  0  0  0  0  0  0  0  0  0
    9.3831   -1.3987    2.3876 C   0  0  0  0  0  0  0  0  0  0  0  0
    9.6597   -0.0355    2.3611 C   0  0  0  0  0  0  0  0  0  0  0  0
   10.9500    0.3962    2.0718 C   0  0  0  0  0  0  0  0  0  0  0  0
   11.9520   -0.5325    1.8115 C   0  0  0  0  0  0  0  0  0  0  0  0
   11.6641   -1.8929    1.8413 C   0  0  0  0  0  0  0  0  0  0  0  0
   10.3776   -2.3363    2.1293 C   0  0  0  0  0  0  0  0  0  0  0  0
    2.0495    1.5504    2.5067 C   0  0  0  0  0  0  0  0  0  0  0  0
    0.7795    4.7651    1.4507 C   0  0  0  0  0  0  0  0  0  0  0  0
   -0.1502    5.8297    2.0001 C   0  0  0  0  0  0  0  0  0  0  0  0
   -0.4411    2.9862    2.7323 C   0  0  0  0  0  0  0  0  0  0  0  0
   -1.4154    4.0341    3.2209 C   0  0  0  0  0  0  0  0  0  0  0  0
  1  2  1  0
  2  3  2  0
  3  4  1  0
  4  5  2  0
  5  6  1  0
  6  7  2  0
  7  8  1  0
  8  3  1  0
  8  9  2  0
  9 10  1  0
 10 11  2  0
 11  2  1  0
 10 12  1  0
 12 13  2  0
 12 14  1  0
 14 15  1  0
 15 16  1  0
 16 17  1  0
 17 18  1  0
 18 19  1  0
 19 20  2  0
 20 21  1  0
 21 22  1  0
 22 23  2  0
 23 24  1  0
 24 25  2  0
 25 26  1  0
 26 27  2  0
 27 22  1  0
 25 28  1  0
 24 29  1  0
 29 30  2  0
 29 31  1  0
 31 32  1  0
 32 33  2  0
 33 34  1  0
 34 35  2  0
 35 36  1  0
 36 37  2  0
 37 32  1  0
 21 38  2  0
 38 18  1  0
 17 39  1  0
 39 40  1  0
 40 15  1  0
 17 41  1  0
 41 42  1  0
 42 15  1  0
M  END
$$$$
s_270196____8769658____8776130
     RDKit          3D

 34 38  0  0  0  0  0  0  0  0999 V2000
   -0.3091    2.1009    1.2214 O   0  0  0  0  0  0  0  0  0  0  0  0
   -0.3808    2.9393    2.0770 C   0  0  0  0  0  0  0  0  0  0  0  0
    0.7553    3.5615    2.5233 N   0  0  0  0  0  0  0  0  0  0  0  0
    1.9784    2.8800    2.5090 C   0  0  0  0  0  0  0  0  0  0  0  0
    3.1723    3.5939    2.5011 C   0  0  0  0  0  0  0  0  0  0  0  0
    4.3871    2.9167    2.4870 C   0  0  0  0  0  0  0  0  0  0  0  0
    4.4087    1.5256    2.4808 C   0  0  0  0  0  0  0  0  0  0  0  0
    3.2087    0.8215    2.4887 C   0  0  0  0  0  0  0  0  0  0  0  0
    1.9886    1.4893    2.5029 C   0  0  0  0  0  0  0  0  0  0  0  0
    3.2280   -0.6288    2.4827 C   0  0  0  0  0  0  0  0  0  0  0  0
    2.1737   -1.4076    2.4897 O   0  0  0  0  0  0  0  0  0  0  0  0
    2.5424   -2.6203    2.4804 N   0  0  0  0  0  0  0  0  0  0  0  0
    3.8541   -2.6611    2.4685 C   0  0  0  0  0  0  0  0  0  0  0  0
    4.3012   -1.3780    2.4709 N   0  0  0  0  0  0  0  0  0  0  0  0
    4.6748   -3.8565    2.4580 C   0  0  0  0  0  0  0  0  0  0  0  0
    6.0593   -3.7278    2.4459 C   0  0  0  0  0  0  0  0  0  0  0  0
    6.8553   -4.8687    2.4346 C   0  0  0  0  0  0  0  0  0  0  0  0
    6.2564   -6.1242    2.4362 C   0  0  0  0  0  0  0  0  0  0  0  0
    7.0204   -7.2370    2.4268 O   0  0  0  0  0  0  0  0  0  0  0  0
    7.3924   -7.7899    1.2540 C   0  0  0  0  0  0  0  0  0  0  0  0
    6.6191   -8.7228    0.6771 N   0  0  0  0  0  0  0  0  0  0  0  0
    6.9617   -9.2896   -0.4888 C   0  0  0  0  0  0  0  0  0  0  0  0
    8.1423   -8.9026   -1.1145 C   0  0  0  0  0  0  0  0  0  0  0  0
    8.9309   -7.9345   -0.5032 C   0  0  0  0  0  0  0  0  0  0  0  0
    8.5334   -7.4055    0.6631 N   0  0  0  0  0  0  0  0  0  0  0  0
    4.8713   -6.2524    2.4481 C   0  0  0  0  0  0  0  0  0  0  0  0
    4.0752   -5.1118    2.4590 C   0  0  0  0  0  0  0  0  0  0  0  0
    3.1733    5.1142    2.5087 C   0  0  0  0  0  0  0  0  0  0  0  0
   -1.6696    3.2943    2.6394 C   0  0  0  0  0  0  0  0  0  0  0  0
   -2.7410    2.4159    2.5156 C   0  0  0  0  0  0  0  0  0  0  0  0
   -3.9757    2.7607    3.0559 C   0  0  0  0  0  0  0  0  0  0  0  0
   -4.1316    3.9755    3.7151 C   0  0  0  0  0  0  0  0  0  0  0  0
   -3.0542    4.8449    3.8331 C   0  0  0  0  0  0  0  0  0  0  0  0
   -1.8147    4.5119    3.2967 C   0  0  0  0  0  0  0  0  0  0  0  0
  1  2  2  0
  2  3  1  0
  3  4  1  0
  4  5  2  0
  5  6  1  0
  6  7  2  0
  7  8  1  0
  8  9  2  0
  9  4  1  0
  8 10  1  0
 10 11  1  0
 11 12  1  0
 12 13  2  0
 13 14  1  0
 10 14  2  0
 13 15  1  0
 15 16  2  0
 16 17  1  0
 17 18  2  0
 18 19  1  0
 19 20  1  0
 20 21  2  0
 21 22  1  0
 22 23  2  0
 23 24  1  0
 24 25  2  0
 25 20  1  0
 18 26  1  0
 26 27  2  0
 27 15  1  0
  5 28  1  0
  2 29  1  0
 29 30  2  0
 30 31  1  0
 31 32  2  0
 32 33  1  0
 33 34  2  0
 34 29  1  0
M  END
$$$$
s_270196____13074244____8776130
     RDKit          3D

 34 38  0  0  0  0  0  0  0  0999 V2000
    0.1226    2.6058    0.6023 O   0  0  0  0  0  0  0  0  0  0  0  0
   -0.1526    3.3428    1.5084 C   0  0  0  0  0  0  0  0  0  0  0  0
    0.7417    3.5392    2.5275 N   0  0  0  0  0  0  0  0  0  0  0  0
    1.9769    2.8800    2.5117 C   0  0  0  0  0  0  0  0  0  0  0  0
    3.1722    3.5930    2.5023 C   0  0  0  0  0  0  0  0  0  0  0  0
    4.3872    2.9146    2.4871 C   0  0  0  0  0  0  0  0  0  0  0  0
    4.4074    1.5237    2.4807 C   0  0  0  0  0  0  0  0  0  0  0  0
    3.2062    0.8215    2.4897 C   0  0  0  0  0  0  0  0  0  0  0  0
    1.9856    1.4890    2.5053 C   0  0  0  0  0  0  0  0  0  0  0  0
    3.2280   -0.6287    2.4827 C   0  0  0  0  0  0  0  0  0  0  0  0
    4.3041   -1.3773    2.4683 O   0  0  0  0  0  0  0  0  0  0  0  0
    3.9699   -2.6000    2.4670 N   0  0  0  0  0  0  0  0  0  0  0  0
    2.6599   -2.6780    2.4792 C   0  0  0  0  0  0  0  0  0  0  0  0
    2.1766   -1.4082    2.4886 N   0  0  0  0  0  0  0  0  0  0  0  0
    1.8734   -3.8966    2.4796 C   0  0  0  0  0  0  0  0  0  0  0  0
    0.4521   -3.8658    2.4933 C   0  0  0  0  0  0  0  0  0  0  0  0
   -0.1350   -2.7960    2.5053 O   0  0  0  0  0  0  0  0  0  0  0  0
   -0.2394   -5.0497    2.4934 N   0  0  0  0  0  0  0  0  0  0  0  0
    0.4115   -6.2563    2.4804 C   0  0  0  0  0  0  0  0  0  0  0  0
   -0.3397   -7.4975    2.4810 C   0  0  0  0  0  0  0  0  0  0  0  0
   -1.7294   -7.4631    2.4949 C   0  0  0  0  0  0  0  0  0  0  0  0
   -2.4243   -8.6678    2.4946 C   0  0  0  0  0  0  0  0  0  0  0  0
   -1.7680   -9.8378    2.4808 N   0  0  0  0  0  0  0  0  0  0  0  0
   -0.4279   -9.8902    2.4672 C   0  0  0  0  0  0  0  0  0  0  0  0
    0.3235   -8.7194    2.4670 C   0  0  0  0  0  0  0  0  0  0  0  0
    1.7814   -6.3131    2.4666 C   0  0  0  0  0  0  0  0  0  0  0  0
    2.5257   -5.1025    2.4661 C   0  0  0  0  0  0  0  0  0  0  0  0
    3.1505    5.1125    2.5107 C   0  0  0  0  0  0  0  0  0  0  0  0
   -1.4320    4.0256    1.5248 C   0  0  0  0  0  0  0  0  0  0  0  0
   -2.1512    4.1701    0.3429 C   0  0  0  0  0  0  0  0  0  0  0  0
   -3.3775    4.8265    0.3629 C   0  0  0  0  0  0  0  0  0  0  0  0
   -3.8767    5.3314    1.5590 C   0  0  0  0  0  0  0  0  0  0  0  0
   -3.1498    5.1808    2.7335 C   0  0  0  0  0  0  0  0  0  0  0  0
   -1.9220    4.5270    2.7266 C   0  0  0  0  0  0  0  0  0  0  0  0
  1  2  2  0
  2  3  1  0
  3  4  1  0
  4  5  2  0
  5  6  1  0
  6  7  2  0
  7  8  1  0
  8  9  2  0
  9  4  1  0
  8 10  1  0
 10 11  1  0
 11 12  1  0
 12 13  2  0
 13 14  1  0
 10 14  2  0
 13 15  1  0
 15 16  1  0
 16 17  2  0
 16 18  1  0
 18 19  1  0
 19 20  1  0
 20 21  2  0
 21 22  1  0
 22 23  2  0
 23 24  1  0
 24 25  2  0
 25 20  1  0
 19 26  2  0
 26 27  1  0
 15 27  2  0
  5 28  1  0
  2 29  1  0
 29 30  2  0
 30 31  1  0
 31 32  2  0
 32 33  1  0
 33 34  2  0
 34 29  1  0
M  END
$$$$
s_270196____8771036____10224814
     RDKit          3D

 32 36  0  0  0  0  0  0  0  0999 V2000
    0.4406    3.6997    2.5340 S   0  0  0  0  0  0  0  0  0  0  0  0
    1.9779    2.8839    2.5130 C   0  0  0  0  0  0  0  0  0  0  0  0
    3.1753    3.5938    2.5035 C   0  0  0  0  0  0  0  0  0  0  0  0
    4.3913    2.9189    2.4880 C   0  0  0  0  0  0  0  0  0  0  0  0
    4.4147    1.5277    2.4812 C   0  0  0  0  0  0  0  0  0  0  0  0
    3.2158    0.8216    2.4897 C   0  0  0  0  0  0  0  0  0  0  0  0
    1.9973    1.4929    2.5059 C   0  0  0  0  0  0  0  0  0  0  0  0
    3.2290   -0.6987    2.4825 C   0  0  0  0  0  0  0  0  0  0  0  0
    3.1884    5.0440    2.5106 C   0  0  0  0  0  0  0  0  0  0  0  0
    3.7336    5.8107    3.4257 N   0  0  0  0  0  0  0  0  0  0  0  0
    3.5524    7.0225    3.1011 O   0  0  0  0  0  0  0  0  0  0  0  0
    2.8869    7.0794    1.9731 C   0  0  0  0  0  0  0  0  0  0  0  0
    2.6414    5.8584    1.5706 N   0  0  0  0  0  0  0  0  0  0  0  0
    2.4901    8.2930    1.2852 C   0  0  0  0  0  0  0  0  0  0  0  0
    1.7835    8.2157    0.0894 C   0  0  0  0  0  0  0  0  0  0  0  0
    1.4714    7.0283   -0.4233 F   0  0  0  0  0  0  0  0  0  0  0  0
    1.3983    9.3746   -0.5770 C   0  0  0  0  0  0  0  0  0  0  0  0
    1.7311   10.6099   -0.0306 C   0  0  0  0  0  0  0  0  0  0  0  0
    1.3356   11.8241   -0.7160 C   0  0  0  0  0  0  0  0  0  0  0  0
    1.6589   13.0691   -0.1858 C   0  0  0  0  0  0  0  0  0  0  0  0
    1.2816   14.1789   -0.8378 N   0  0  0  0  0  0  0  0  0  0  0  0
    0.5991   14.1150   -1.9904 C   0  0  0  0  0  0  0  0  0  0  0  0
    0.2790   12.9226   -2.5149 N   0  0  0  0  0  0  0  0  0  0  0  0
    0.6272   11.7763   -1.9116 C   0  0  0  0  0  0  0  0  0  0  0  0
    2.4383   10.7009    1.1641 C   0  0  0  0  0  0  0  0  0  0  0  0
    2.8170    9.5347    1.8206 C   0  0  0  0  0  0  0  0  0  0  0  0
   -0.6052    2.3094    2.5385 C   0  0  0  0  0  0  0  0  0  0  0  0
   -1.0346    1.7623    1.3337 C   0  0  0  0  0  0  0  0  0  0  0  0
   -1.8706    0.6503    1.3518 C   0  0  0  0  0  0  0  0  0  0  0  0
   -2.2738    0.0921    2.5603 C   0  0  0  0  0  0  0  0  0  0  0  0
   -1.8394    0.6474    3.7593 C   0  0  0  0  0  0  0  0  0  0  0  0
   -1.0033    1.7589    3.7529 C   0  0  0  0  0  0  0  0  0  0  0  0
  1  2  1  0
  2  3  1  0
  3  4  2  0
  4  5  1  0
  5  6  2  0
  6  7  1  0
  7  2  2  0
  6  8  1  0
  3  9  1  0
  9 10  2  0
 10 11  1  0
 11 12  1  0
 12 13  2  0
 13  9  1  0
 12 14  1  0
 14 15  2  0
 15 16  1  0
 15 17  1  0
 17 18  2  0
 18 19  1  0
 19 20  2  0
 20 21  1  0
 21 22  2  0
 22 23  1  0
 23 24  2  0
 24 19  1  0
 18 25  1  0
 25 26  2  0
 26 14  1  0
  1 27  1  0
 27 28  2  0
 28 29  1  0
 29 30  2  0
 30 31  1  0
 31 32  2  0
 32 27  1  0
M  END
$$$$
s_22____13608224____8992344
     RDKit          3D

 34 38  0  0  0  0  0  0  0  0999 V2000
    3.3287    3.5724    2.4687 S   0  0  0  0  0  0  0  0  0  0  0  0
    4.2262    2.1265    2.4440 C   0  0  0  0  0  0  0  0  0  0  0  0
    3.3528    1.1511    2.4644 N   0  0  0  0  0  0  0  0  0  0  0  0
    2.0377    1.5325    2.4911 C   0  0  0  0  0  0  0  0  0  0  0  0
    0.9190    0.6236    2.5168 C   0  0  0  0  0  0  0  0  0  0  0  0
    1.1588   -0.7462    2.5150 C   0  0  0  0  0  0  0  0  0  0  0  0
    0.0858   -1.6315    2.5385 C   0  0  0  0  0  0  0  0  0  0  0  0
   -1.2135   -1.1355    2.5643 C   0  0  0  0  0  0  0  0  0  0  0  0
   -2.2609   -1.9867    2.5888 O   0  0  0  0  0  0  0  0  0  0  0  0
   -2.8094   -2.4160    1.4322 C   0  0  0  0  0  0  0  0  0  0  0  0
   -3.8511   -1.6976    0.8548 C   0  0  0  0  0  0  0  0  0  0  0  0
   -4.4133   -2.1452   -0.3371 C   0  0  0  0  0  0  0  0  0  0  0  0
   -3.9328   -3.3021   -0.9423 C   0  0  0  0  0  0  0  0  0  0  0  0
   -2.8914   -4.0162   -0.3587 C   0  0  0  0  0  0  0  0  0  0  0  0
   -2.3250   -3.5742    0.8327 C   0  0  0  0  0  0  0  0  0  0  0  0
   -1.4528    0.2348    2.5659 C   0  0  0  0  0  0  0  0  0  0  0  0
   -0.3802    1.1201    2.5420 C   0  0  0  0  0  0  0  0  0  0  0  0
    1.7793    2.8660    2.4982 C   0  0  0  0  0  0  0  0  0  0  0  0
    5.6199    2.0170    2.4168 N   0  0  0  0  0  0  0  0  0  0  0  0
    6.2169    1.0613    1.6377 C   0  0  0  0  0  0  0  0  0  0  0  0
    5.6128    0.5669    0.7263 O   0  0  0  0  0  0  0  0  0  0  0  0
    7.5790    0.6471    1.9143 C   0  0  0  0  0  0  0  0  0  0  0  0
    8.1362    0.8798    3.1676 C   0  0  0  0  0  0  0  0  0  0  0  0
    7.4194    1.4823    4.1127 F   0  0  0  0  0  0  0  0  0  0  0  0
    9.4418    0.4854    3.4420 C   0  0  0  0  0  0  0  0  0  0  0  0
   10.1808   -0.1433    2.4450 C   0  0  0  0  0  0  0  0  0  0  0  0
   11.5421   -0.5583    2.7188 C   0  0  0  0  0  0  0  0  0  0  0  0
   12.4854   -0.5977    1.6969 C   0  0  0  0  0  0  0  0  0  0  0  0
   13.7389   -0.9858    1.9745 N   0  0  0  0  0  0  0  0  0  0  0  0
   14.1035   -1.3370    3.2164 C   0  0  0  0  0  0  0  0  0  0  0  0
   13.2063   -1.3051    4.2130 N   0  0  0  0  0  0  0  0  0  0  0  0
   11.9372   -0.9262    4.0003 C   0  0  0  0  0  0  0  0  0  0  0  0
    9.6356   -0.3810    1.1872 C   0  0  0  0  0  0  0  0  0  0  0  0
    8.3291    0.0178    0.9259 C   0  0  0  0  0  0  0  0  0  0  0  0
  1  2  1  0
  2  3  2  0
  3  4  1  0
  4  5  1  0
  5  6  2  0
  6  7  1  0
  7  8  2  0
  8  9  1  0
  9 10  1  0
 10 11  2  0
 11 12  1  0
 12 13  2  0
 13 14  1  0
 14 15  2  0
 15 10  1  0
  8 16  1  0
 16 17  2  0
 17  5  1  0
  4 18  2  0
 18  1  1  0
  2 19  1  0
 19 20  1  0
 20 21  2  0
 20 22  1  0
 22 23  2  0
 23 24  1  0
 23 25  1  0
 25 26  2  0
 26 27  1  0
 27 28  2  0
 28 29  1  0
 29 30  2  0
 30 31  1  0
 31 32  2  0
 32 27  1  0
 26 33  1  0
 33 34  2  0
 34 22  1  0
M  END
$$$$
s_708____1723544____9192442
     RDKit          3D

 31 35  0  0  0  0  0  0  0  0999 V2000
   -0.4078   -3.0512    2.5126 S   0  0  0  0  0  0  0  0  0  0  0  0
   -0.3977   -1.3103    2.5126 C   0  0  0  0  0  0  0  0  0  0  0  0
    0.7388   -0.5920    2.5070 N   0  0  0  0  0  0  0  0  0  0  0  0
    0.7554    0.7530    2.5065 C   0  0  0  0  0  0  0  0  0  0  0  0
   -0.4470    1.4531    2.5127 C   0  0  0  0  0  0  0  0  0  0  0  0
   -1.6454    0.7474    2.5183 C   0  0  0  0  0  0  0  0  0  0  0  0
   -1.6185   -0.6435    2.5186 C   0  0  0  0  0  0  0  0  0  0  0  0
    1.9928    1.5131    2.5007 C   0  0  0  0  0  0  0  0  0  0  0  0
    1.9860    2.8354    2.5006 N   0  0  0  0  0  0  0  0  0  0  0  0
    3.1479    3.5642    2.4955 C   0  0  0  0  0  0  0  0  0  0  0  0
    4.3714    2.9007    2.4900 C   0  0  0  0  0  0  0  0  0  0  0  0
    5.5511    3.6390    2.4849 C   0  0  0  0  0  0  0  0  0  0  0  0
    5.5301    5.0284    2.4838 C   0  0  0  0  0  0  0  0  0  0  0  0
    6.7060    5.6912    2.4778 O   0  0  0  0  0  0  0  0  0  0  0  0
    7.2994    6.0237    3.6441 C   0  0  0  0  0  0  0  0  0  0  0  0
    8.5111    6.7066    3.6309 C   0  0  0  0  0  0  0  0  0  0  0  0
    9.1188    7.0459    4.8361 C   0  0  0  0  0  0  0  0  0  0  0  0
    8.5143    6.7032    6.0415 C   0  0  0  0  0  0  0  0  0  0  0  0
    7.3031    6.0193    6.0471 C   0  0  0  0  0  0  0  0  0  0  0  0
    6.6903    5.6770    4.8458 C   0  0  0  0  0  0  0  0  0  0  0  0
    4.3085    5.6938    2.4888 C   0  0  0  0  0  0  0  0  0  0  0  0
    3.1292    4.9557    2.4948 C   0  0  0  0  0  0  0  0  0  0  0  0
    4.3730    1.4784    2.4906 C   0  0  0  0  0  0  0  0  0  0  0  0
    5.4013    0.8177    2.4878 O   0  0  0  0  0  0  0  0  0  0  0  0
    3.1736    0.8184    2.4956 N   0  0  0  0  0  0  0  0  0  0  0  0
   -2.1293   -3.3136    2.5210 C   0  0  0  0  0  0  0  0  0  0  0  0
   -2.8720   -3.2255    1.4056 N   0  0  0  0  0  0  0  0  0  0  0  0
   -4.1986   -3.4263    1.4098 C   0  0  0  0  0  0  0  0  0  0  0  0
   -4.8313   -3.7375    2.6092 C   0  0  0  0  0  0  0  0  0  0  0  0
   -4.0970   -3.8278    3.7281 N   0  0  0  0  0  0  0  0  0  0  0  0
   -2.7718   -3.6246    3.7137 C   0  0  0  0  0  0  0  0  0  0  0  0
  1  2  1  0
  2  3  2  0
  3  4  1  0
  4  5  2  0
  5  6  1  0
  6  7  2  0
  7  2  1  0
  4  8  1  0
  8  9  2  0
  9 10  1  0
 10 11  2  0
 11 12  1  0
 12 13  2  0
 13 14  1  0
 14 15  1  0
 15 16  2  0
 16 17  1  0
 17 18  2  0
 18 19  1  0
 19 20  2  0
 20 15  1  0
 13 21  1  0
 21 22  2  0
 22 10  1  0
 11 23  1  0
 23 24  2  0
 23 25  1  0
 25  8  1  0
  1 26  1  0
 26 27  2  0
 27 28  1  0
 28 29  2  0
 29 30  1  0
 30 31  2  0
 31 26  1  0
M  END
$$$$
s_708____5532596____2161430
     RDKit          3D

 36 40  0  0  0  0  0  0  0  0999 V2000
   11.5690    3.1757    2.4229 F   0  0  0  0  0  0  0  0  0  0  0  0
   10.3887    3.7879    2.4366 C   0  0  0  0  0  0  0  0  0  0  0  0
   10.3689    5.1764    2.4435 C   0  0  0  0  0  0  0  0  0  0  0  0
   11.5075    5.8978    2.4380 O   0  0  0  0  0  0  0  0  0  0  0  0
   12.0871    6.2531    3.6042 C   0  0  0  0  0  0  0  0  0  0  0  0
   11.7345    7.4558    4.2078 C   0  0  0  0  0  0  0  0  0  0  0  0
   12.3294    7.8245    5.4103 C   0  0  0  0  0  0  0  0  0  0  0  0
   13.2710    6.9828    5.9936 C   0  0  0  0  0  0  0  0  0  0  0  0
   13.8428    7.3308    7.1431 F   0  0  0  0  0  0  0  0  0  0  0  0
   13.6279    5.7788    5.3952 C   0  0  0  0  0  0  0  0  0  0  0  0
   13.0295    5.4162    4.1928 C   0  0  0  0  0  0  0  0  0  0  0  0
    9.1463    5.8340    2.4567 C   0  0  0  0  0  0  0  0  0  0  0  0
    7.9502    5.1238    2.4635 C   0  0  0  0  0  0  0  0  0  0  0  0
    7.9680    3.7342    2.4580 C   0  0  0  0  0  0  0  0  0  0  0  0
    6.7901    3.0335    2.4656 N   0  0  0  0  0  0  0  0  0  0  0  0
    5.6230    3.6528    2.4786 C   0  0  0  0  0  0  0  0  0  0  0  0
    5.5502    5.0209    2.4853 N   0  0  0  0  0  0  0  0  0  0  0  0
    6.6887    5.7807    2.4780 C   0  0  0  0  0  0  0  0  0  0  0  0
    6.5748    6.9968    2.4844 O   0  0  0  0  0  0  0  0  0  0  0  0
    4.3800    2.9062    2.4867 C   0  0  0  0  0  0  0  0  0  0  0  0
    3.1728    3.5972    2.5008 C   0  0  0  0  0  0  0  0  0  0  0  0
    1.9830    2.8768    2.5101 C   0  0  0  0  0  0  0  0  0  0  0  0
    0.7615    3.5615    2.5249 N   0  0  0  0  0  0  0  0  0  0  0  0
    0.4644    4.4101    3.5586 C   0  0  0  0  0  0  0  0  0  0  0  0
    0.9107    4.2020    4.6529 O   0  0  0  0  0  0  0  0  0  0  0  0
   -0.3894    5.5600    3.3302 C   0  0  0  0  0  0  0  0  0  0  0  0
   -0.5693    6.0477    2.0392 C   0  0  0  0  0  0  0  0  0  0  0  0
    0.0422    5.4599    1.0146 F   0  0  0  0  0  0  0  0  0  0  0  0
   -1.3877    7.1508    1.8207 C   0  0  0  0  0  0  0  0  0  0  0  0
   -2.0271    7.7655    2.8918 C   0  0  0  0  0  0  0  0  0  0  0  0
   -1.8473    7.2777    4.1824 C   0  0  0  0  0  0  0  0  0  0  0  0
   -1.0289    6.1744    4.4011 C   0  0  0  0  0  0  0  0  0  0  0  0
    1.9867    1.4860    2.5051 C   0  0  0  0  0  0  0  0  0  0  0  0
    3.2053    0.8159    2.4905 C   0  0  0  0  0  0  0  0  0  0  0  0
    4.4072    1.5158    2.4809 C   0  0  0  0  0  0  0  0  0  0  0  0
    9.1933    3.0757    2.4447 C   0  0  0  0  0  0  0  0  0  0  0  0
  1  2  1  0
  2  3  2  0
  3  4  1  0
  4  5  1  0
  5  6  2  0
  6  7  1  0
  7  8  2  0
  8  9  1  0
  8 10  1  0
 10 11  2  0
 11  5  1  0
  3 12  1  0
 12 13  2  0
 13 14  1  0
 14 15  1  0
 15 16  2  0
 16 17  1  0
 17 18  1  0
 18 13  1  0
 18 19  2  0
 16 20  1  0
 20 21  2  0
 21 22  1  0
 22 23  1  0
 23 24  1  0
 24 25  2  0
 24 26  1  0
 26 27  2  0
 27 28  1  0
 27 29  1  0
 29 30  2  0
 30 31  1  0
 31 32  2  0
 32 26  1  0
 22 33  2  0
 33 34  1  0
 34 35  2  0
 35 20  1  0
 14 36  2  0
 36  2  1  0
M  END
$$$$
s_270196____8770750____10224814
     RDKit          3D

 34 38  0  0  0  0  0  0  0  0999 V2000
    9.4132   -1.8368    2.4088 F   0  0  0  0  0  0  0  0  0  0  0  0
    9.9815   -0.6338    2.4077 C   0  0  0  0  0  0  0  0  0  0  0  0
    9.1895    0.5097    2.4218 C   0  0  0  0  0  0  0  0  0  0  0  0
    9.7841    1.7674    2.4216 C   0  0  0  0  0  0  0  0  0  0  0  0
   11.1698    1.8857    2.4063 C   0  0  0  0  0  0  0  0  0  0  0  0
   11.9506    0.7343    2.3913 C   0  0  0  0  0  0  0  0  0  0  0  0
   13.3947    0.8558    2.3753 C   0  0  0  0  0  0  0  0  0  0  0  0
   14.0162    1.9474    2.9735 C   0  0  0  0  0  0  0  0  0  0  0  0
   15.3542    2.0384    2.9453 N   0  0  0  0  0  0  0  0  0  0  0  0
   16.1067    1.0998    2.3528 C   0  0  0  0  0  0  0  0  0  0  0  0
   15.5233    0.0413    1.7710 N   0  0  0  0  0  0  0  0  0  0  0  0
   14.1902   -0.1078    1.7651 C   0  0  0  0  0  0  0  0  0  0  0  0
   11.3687   -0.5294    2.3919 C   0  0  0  0  0  0  0  0  0  0  0  0
    7.7441    0.3909    2.4378 C   0  0  0  0  0  0  0  0  0  0  0  0
    7.0691   -0.7329    2.4406 O   0  0  0  0  0  0  0  0  0  0  0  0
    5.8269   -0.4812    2.4568 N   0  0  0  0  0  0  0  0  0  0  0  0
    5.6615    0.8207    2.4636 C   0  0  0  0  0  0  0  0  0  0  0  0
    6.8961    1.3879    2.4505 N   0  0  0  0  0  0  0  0  0  0  0  0
    4.3934    1.5238    2.4792 C   0  0  0  0  0  0  0  0  0  0  0  0
    4.3889    2.9151    2.4847 C   0  0  0  0  0  0  0  0  0  0  0  0
    3.1774    3.5986    2.4996 C   0  0  0  0  0  0  0  0  0  0  0  0
    1.9850    2.8822    2.5096 C   0  0  0  0  0  0  0  0  0  0  0  0
    0.7615    3.5615    2.5249 N   0  0  0  0  0  0  0  0  0  0  0  0
    0.2504    4.0782    1.3636 C   0  0  0  0  0  0  0  0  0  0  0  0
   -0.7987    4.6606    1.3766 O   0  0  0  0  0  0  0  0  0  0  0  0
    0.9774    3.9211    0.1180 C   0  0  0  0  0  0  0  0  0  0  0  0
    1.9023    4.8847   -0.2675 C   0  0  0  0  0  0  0  0  0  0  0  0
    2.5854    4.7087   -1.4661 C   0  0  0  0  0  0  0  0  0  0  0  0
    2.3573    3.6323   -2.2336 N   0  0  0  0  0  0  0  0  0  0  0  0
    1.4688    2.6927   -1.8776 C   0  0  0  0  0  0  0  0  0  0  0  0
    0.7538    2.8121   -0.6902 C   0  0  0  0  0  0  0  0  0  0  0  0
    0.0249    3.7206    3.7870 C   0  0  0  0  0  0  0  0  0  0  0  0
    1.9902    1.4907    2.5042 C   0  0  0  0  0  0  0  0  0  0  0  0
    3.2017    0.8073    2.4891 C   0  0  0  0  0  0  0  0  0  0  0  0
  1  2  1  0
  2  3  2  0
  3  4  1  0
  4  5  2  0
  5  6  1  0
  6  7  1  0
  7  8  2  0
  8  9  1  0
  9 10  2  0
 10 11  1  0
 11 12  2  0
 12  7  1  0
  6 13  2  0
 13  2  1  0
  3 14  1  0
 14 15  1  0
 15 16  1  0
 16 17  2  0
 17 18  1  0
 14 18  2  0
 17 19  1  0
 19 20  2  0
 20 21  1  0
 21 22  2  0
 22 23  1  0
 23 24  1  0
 24 25  2  0
 24 26  1  0
 26 27  2  0
 27 28  1  0
 28 29  2  0
 29 30  1  0
 30 31  2  0
 31 26  1  0
 23 32  1  0
 22 33  1  0
 33 34  2  0
 34 19  1  0
M  END
$$$$
s_22____13206596____1324354
     RDKit          3D

 35 39  0  0  0  0  0  0  0  0999 V2000
    7.3530   -7.2336    3.3133 Cl  0  0  0  0  0  0  0  0  0  0  0  0
    6.6679   -6.0907    2.1301 C   0  0  0  0  0  0  0  0  0  0  0  0
    5.9946   -4.9810    2.4814 N   0  0  0  0  0  0  0  0  0  0  0  0
    5.5024   -4.1580    1.6118 N   0  0  0  0  0  0  0  0  0  0  0  0
    5.6238   -4.3484    0.2866 C   0  0  0  0  0  0  0  0  0  0  0  0
    5.1138   -3.4964   -0.6326 O   0  0  0  0  0  0  0  0  0  0  0  0
    4.4464   -2.3943   -0.2336 C   0  0  0  0  0  0  0  0  0  0  0  0
    3.0718   -2.4529   -0.0329 C   0  0  0  0  0  0  0  0  0  0  0  0
    2.2012   -3.9808   -0.3051 Cl  0  0  0  0  0  0  0  0  0  0  0  0
    2.3714   -1.3241    0.3787 C   0  0  0  0  0  0  0  0  0  0  0  0
    3.0697   -0.1388    0.5855 C   0  0  0  0  0  0  0  0  0  0  0  0
    2.3700    1.0000    1.0000 N   0  0  0  0  0  0  0  0  0  0  0  0
    1.0000    1.0000    1.0000 C   0  0  0  0  0  0  0  0  0  0  0  0
    0.4000   -0.0392    1.0000 O   0  0  0  0  0  0  0  0  0  0  0  0
    0.2745    2.2565    1.0000 C   0  0  0  0  0  0  0  0  0  0  0  0
   -1.0820    2.3879    1.0000 N   0  0  0  0  0  0  0  0  0  0  0  0
   -1.3693    3.7241    1.0051 C   0  0  0  0  0  0  0  0  0  0  0  0
   -0.2107    4.4580    1.0028 C   0  0  0  0  0  0  0  0  0  0  0  0
   -0.2579    5.8525    1.0134 C   0  0  0  0  0  0  0  0  0  0  0  0
   -1.4802    6.5215    1.0213 C   0  0  0  0  0  0  0  0  0  0  0  0
   -2.6521    5.7738    1.0211 C   0  0  0  0  0  0  0  0  0  0  0  0
   -3.8500    6.3964    1.0293 O   0  0  0  0  0  0  0  0  0  0  0  0
   -3.9128    7.8150    1.0368 C   0  0  0  0  0  0  0  0  0  0  0  0
   -5.3672    8.2578    1.0451 C   0  0  0  0  0  0  0  0  0  0  0  0
   -6.0213    8.4524    2.2572 C   0  0  0  0  0  0  0  0  0  0  0  0
   -7.3523    8.8568    2.2603 C   0  0  0  0  0  0  0  0  0  0  0  0
   -8.0189    9.0648    1.0574 C   0  0  0  0  0  0  0  0  0  0  0  0
   -7.3552    8.8679   -0.1474 C   0  0  0  0  0  0  0  0  0  0  0  0
   -6.0245    8.4629   -0.1638 C   0  0  0  0  0  0  0  0  0  0  0  0
   -2.5936    4.3831    1.0138 C   0  0  0  0  0  0  0  0  0  0  0  0
    0.8353    3.4997    1.0033 C   0  0  0  0  0  0  0  0  0  0  0  0
    4.4453   -0.0665    0.3889 C   0  0  0  0  0  0  0  0  0  0  0  0
    5.1330   -1.2035   -0.0235 C   0  0  0  0  0  0  0  0  0  0  0  0
    6.3064   -5.4740   -0.1607 C   0  0  0  0  0  0  0  0  0  0  0  0
    6.8348   -6.3569    0.7749 C   0  0  0  0  0  0  0  0  0  0  0  0
  1  2  1  0
  2  3  2  0
  3  4  1  0
  4  5  2  0
  5  6  1  0
  6  7  1  0
  7  8  2  0
  8  9  1  0
  8 10  1  0
 10 11  2  0
 11 12  1  0
 12 13  1  0
 13 14  2  0
 13 15  1  0
 15 16  1  0
 16 17  1  0
 17 18  2  0
 18 19  1  0
 19 20  2  0
 20 21  1  0
 21 22  1  0
 22 23  1  0
 23 24  1  0
 24 25  2  0
 25 26  1  0
 26 27  2  0
 27 28  1  0
 28 29  2  0
 29 24  1  0
 21 30  2  0
 30 17  1  0
 18 31  1  0
 15 31  2  0
 11 32  1  0
 32 33  2  0
 33  7  1  0
  5 34  1  0
 34 35  2  0
 35  2  1  0
M  END
$$$$
s_708____1723544____8845432
     RDKit          3D

 30 34  0  0  0  0  0  0  0  0999 V2000
    5.4013    0.8177    2.4878 O   0  0  0  0  0  0  0  0  0  0  0  0
    4.3730    1.4784    2.4906 C   0  0  0  0  0  0  0  0  0  0  0  0
    3.1736    0.8184    2.4956 N   0  0  0  0  0  0  0  0  0  0  0  0
    1.9928    1.5131    2.5007 C   0  0  0  0  0  0  0  0  0  0  0  0
    1.9860    2.8354    2.5006 N   0  0  0  0  0  0  0  0  0  0  0  0
    3.1479    3.5642    2.4955 C   0  0  0  0  0  0  0  0  0  0  0  0
    4.3714    2.9007    2.4900 C   0  0  0  0  0  0  0  0  0  0  0  0
    5.5511    3.6390    2.4849 C   0  0  0  0  0  0  0  0  0  0  0  0
    5.5301    5.0284    2.4838 C   0  0  0  0  0  0  0  0  0  0  0  0
    6.7060    5.6912    2.4778 O   0  0  0  0  0  0  0  0  0  0  0  0
    7.2994    6.0237    3.6441 C   0  0  0  0  0  0  0  0  0  0  0  0
    8.5111    6.7066    3.6309 C   0  0  0  0  0  0  0  0  0  0  0  0
    9.1188    7.0459    4.8361 C   0  0  0  0  0  0  0  0  0  0  0  0
    8.5143    6.7032    6.0415 C   0  0  0  0  0  0  0  0  0  0  0  0
    7.3031    6.0193    6.0471 C   0  0  0  0  0  0  0  0  0  0  0  0
    6.6903    5.6770    4.8458 C   0  0  0  0  0  0  0  0  0  0  0  0
    4.3085    5.6938    2.4888 C   0  0  0  0  0  0  0  0  0  0  0  0
    3.1292    4.9557    2.4948 C   0  0  0  0  0  0  0  0  0  0  0  0
    0.7570    0.7540    2.5065 C   0  0  0  0  0  0  0  0  0  0  0  0
    0.8124   -0.6358    2.5067 C   0  0  0  0  0  0  0  0  0  0  0  0
   -0.3773   -1.3569    2.5126 C   0  0  0  0  0  0  0  0  0  0  0  0
   -0.3335   -2.8063    2.5109 C   0  0  0  0  0  0  0  0  0  0  0  0
   -1.4983   -3.5670    2.5166 C   0  0  0  0  0  0  0  0  0  0  0  0
   -1.4469   -4.9072    2.5142 N   0  0  0  0  0  0  0  0  0  0  0  0
   -0.2742   -5.5582    2.5067 C   0  0  0  0  0  0  0  0  0  0  0  0
    0.9260   -4.8552    2.5010 C   0  0  0  0  0  0  0  0  0  0  0  0
    0.8916   -3.4648    2.5029 C   0  0  0  0  0  0  0  0  0  0  0  0
   -1.6086   -0.7101    2.5184 C   0  0  0  0  0  0  0  0  0  0  0  0
   -1.6389    0.6803    2.5185 C   0  0  0  0  0  0  0  0  0  0  0  0
   -0.4628    1.4227    2.5129 C   0  0  0  0  0  0  0  0  0  0  0  0
  1  2  2  0
  2  3  1  0
  3  4  1  0
  4  5  2  0
  5  6  1  0
  6  7  2  0
  7  2  1  0
  7  8  1  0
  8  9  2  0
  9 10  1  0
 10 11  1  0
 11 12  2  0
 12 13  1  0
 13 14  2  0
 14 15  1  0
 15 16  2  0
 16 11  1  0
  9 17  1  0
 17 18  2  0
 18  6  1  0
  4 19  1  0
 19 20  2  0
 20 21  1  0
 21 22  1  0
 22 23  2  0
 23 24  1  0
 24 25  2  0
 25 26  1  0
 26 27  2  0
 27 22  1  0
 21 28  2  0
 28 29  1  0
 29 30  2  0
 30 19  1  0
M  END
$$$$
s_272212____12527328____9425444
     RDKit          3D

 31 34  0  0  0  0  0  0  0  0999 V2000
   -5.7397    3.8507   -0.7169 Cl  0  0  0  0  0  0  0  0  0  0  0  0
   -4.4390    3.2948    0.3631 C   0  0  0  0  0  0  0  0  0  0  0  0
   -4.4797    2.0059    0.8845 C   0  0  0  0  0  0  0  0  0  0  0  0
   -5.8287    0.9206    0.4704 Cl  0  0  0  0  0  0  0  0  0  0  0  0
   -3.4738    1.5518    1.7313 C   0  0  0  0  0  0  0  0  0  0  0  0
   -2.4216    2.4041    2.0514 C   0  0  0  0  0  0  0  0  0  0  0  0
   -2.3852    3.6917    1.5266 C   0  0  0  0  0  0  0  0  0  0  0  0
   -3.3890    4.1498    0.6802 C   0  0  0  0  0  0  0  0  0  0  0  0
   -1.2356    4.6230    1.8763 C   0  0  0  0  0  0  0  0  0  0  0  0
   -1.1228    4.6030    3.3365 N   0  0  0  0  0  0  0  0  0  0  0  0
    0.0651    3.9511    3.6695 C   0  0  0  0  0  0  0  0  0  0  0  0
    0.4427    3.7463    4.8092 O   0  0  0  0  0  0  0  0  0  0  0  0
    0.7615    3.5615    2.5249 N   0  0  0  0  0  0  0  0  0  0  0  0
    1.9869    2.8842    2.5109 C   0  0  0  0  0  0  0  0  0  0  0  0
    3.1774    3.6042    2.4996 C   0  0  0  0  0  0  0  0  0  0  0  0
    4.3870    2.9175    2.4860 C   0  0  0  0  0  0  0  0  0  0  0  0
    4.4032    1.5256    2.4835 C   0  0  0  0  0  0  0  0  0  0  0  0
    3.2070    0.8157    2.4951 C   0  0  0  0  0  0  0  0  0  0  0  0
    1.9918    1.4929    2.5088 C   0  0  0  0  0  0  0  0  0  0  0  0
    5.7085    0.7463    2.4684 C   0  0  0  0  0  0  0  0  0  0  0  0
    5.6161    3.6874    2.4743 C   0  0  0  0  0  0  0  0  0  0  0  0
    5.9713    4.2354    1.4676 O   0  0  0  0  0  0  0  0  0  0  0  0
    6.4158    3.7949    3.6794 C   0  0  0  0  0  0  0  0  0  0  0  0
    7.7284    3.3342    3.6788 C   0  0  0  0  0  0  0  0  0  0  0  0
    8.4917    3.4384    4.8371 C   0  0  0  0  0  0  0  0  0  0  0  0
    7.9418    4.0012    5.9841 C   0  0  0  0  0  0  0  0  0  0  0  0
    6.6298    4.4584    5.9729 C   0  0  0  0  0  0  0  0  0  0  0  0
    5.8560    4.3593    4.8212 C   0  0  0  0  0  0  0  0  0  0  0  0
    0.0419    3.9566    1.3994 C   0  0  0  0  0  0  0  0  0  0  0  0
    0.3802    3.8086    0.2362 O   0  0  0  0  0  0  0  0  0  0  0  0
   -1.4344    6.0121    1.2946 C   0  0  0  0  0  0  0  0  0  0  0  0
  1  2  1  0
  2  3  2  0
  3  4  1  0
  3  5  1  0
  5  6  2  0
  6  7  1  0
  7  8  2  0
  8  2  1  0
  7  9  1  0
  9 10  1  0
 10 11  1  0
 11 12  2  0
 11 13  1  0
 13 14  1  0
 14 15  2  0
 15 16  1  0
 16 17  2  0
 17 18  1  0
 18 19  2  0
 19 14  1  0
 17 20  1  0
 16 21  1  0
 21 22  2  0
 21 23  1  0
 23 24  2  0
 24 25  1  0
 25 26  2  0
 26 27  1  0
 27 28  2  0
 28 23  1  0
 13 29  1  0
 29  9  1  0
 29 30  2  0
  9 31  1  0
M  END
$$$$
s_708____1723544____6007714
     RDKit          3D

 30 34  0  0  0  0  0  0  0  0999 V2000
    5.4013    0.8177    2.4878 O   0  0  0  0  0  0  0  0  0  0  0  0
    4.3730    1.4784    2.4906 C   0  0  0  0  0  0  0  0  0  0  0  0
    3.1736    0.8184    2.4956 N   0  0  0  0  0  0  0  0  0  0  0  0
    1.9928    1.5131    2.5007 C   0  0  0  0  0  0  0  0  0  0  0  0
    1.9860    2.8354    2.5006 N   0  0  0  0  0  0  0  0  0  0  0  0
    3.1479    3.5642    2.4955 C   0  0  0  0  0  0  0  0  0  0  0  0
    4.3714    2.9007    2.4900 C   0  0  0  0  0  0  0  0  0  0  0  0
    5.5511    3.6390    2.4849 C   0  0  0  0  0  0  0  0  0  0  0  0
    5.5301    5.0284    2.4838 C   0  0  0  0  0  0  0  0  0  0  0  0
    6.7060    5.6912    2.4778 O   0  0  0  0  0  0  0  0  0  0  0  0
    7.2887    6.0216    1.3055 C   0  0  0  0  0  0  0  0  0  0  0  0
    8.1794    5.1380    0.7052 C   0  0  0  0  0  0  0  0  0  0  0  0
    8.7778    5.4843   -0.5027 C   0  0  0  0  0  0  0  0  0  0  0  0
    8.4832    6.7053   -1.1009 C   0  0  0  0  0  0  0  0  0  0  0  0
    7.5923    7.5846   -0.4943 C   0  0  0  0  0  0  0  0  0  0  0  0
    6.9906    7.2446    0.7132 C   0  0  0  0  0  0  0  0  0  0  0  0
    4.3085    5.6938    2.4888 C   0  0  0  0  0  0  0  0  0  0  0  0
    3.1292    4.9557    2.4948 C   0  0  0  0  0  0  0  0  0  0  0  0
    0.7569    0.7539    2.5065 C   0  0  0  0  0  0  0  0  0  0  0  0
    0.7711   -0.5740    2.9211 C   0  0  0  0  0  0  0  0  0  0  0  0
   -0.4178   -1.2968    2.9237 C   0  0  0  0  0  0  0  0  0  0  0  0
   -1.6062   -0.6985    2.5166 C   0  0  0  0  0  0  0  0  0  0  0  0
   -2.7957   -1.4317    2.5238 N   0  0  0  0  0  0  0  0  0  0  0  0
   -3.3546   -1.9947    3.5748 N   0  0  0  0  0  0  0  0  0  0  0  0
   -4.4608   -2.5988    3.2047 C   0  0  0  0  0  0  0  0  0  0  0  0
   -4.5904   -2.4111    1.8573 N   0  0  0  0  0  0  0  0  0  0  0  0
   -3.5713   -1.6918    1.4301 C   0  0  0  0  0  0  0  0  0  0  0  0
   -1.6104    0.6305    2.1044 C   0  0  0  0  0  0  0  0  0  0  0  0
   -0.4264    1.3609    2.0982 C   0  0  0  0  0  0  0  0  0  0  0  0
   -0.3871   -2.7467    3.3797 C   0  0  0  0  0  0  0  0  0  0  0  0
  1  2  2  0
  2  3  1  0
  3  4  1  0
  4  5  2  0
  5  6  1  0
  6  7  2  0
  7  2  1  0
  7  8  1  0
  8  9  2  0
  9 10  1  0
 10 11  1  0
 11 12  2  0
 12 13  1  0
 13 14  2  0
 14 15  1  0
 15 16  2  0
 16 11  1  0
  9 17  1  0
 17 18  2  0
 18  6  1  0
  4 19  1  0
 19 20  2  0
 20 21  1  0
 21 22  2  0
 22 23  1  0
 23 24  1  0
 24 25  2  0
 25 26  1  0
 26 27  2  0
 27 23  1  0
 22 28  1  0
 28 29  2  0
 29 19  1  0
 21 30  1  0
M  END
$$$$
s_270196____8770464____8779096
     RDKit          3D

 34 38  0  0  0  0  0  0  0  0999 V2000
   11.9813    6.3306    2.4206 F   0  0  0  0  0  0  0  0  0  0  0  0
   11.2581    5.2158    2.4257 C   0  0  0  0  0  0  0  0  0  0  0  0
   11.8916    3.9787    2.4162 C   0  0  0  0  0  0  0  0  0  0  0  0
   11.1485    2.8032    2.4219 C   0  0  0  0  0  0  0  0  0  0  0  0
    9.7594    2.8770    2.4364 C   0  0  0  0  0  0  0  0  0  0  0  0
    9.1291    4.1165    2.4456 C   0  0  0  0  0  0  0  0  0  0  0  0
    9.8695    5.2940    2.4404 C   0  0  0  0  0  0  0  0  0  0  0  0
    7.6813    4.1871    2.4612 C   0  0  0  0  0  0  0  0  0  0  0  0
    6.9578    5.2820    2.4714 N   0  0  0  0  0  0  0  0  0  0  0  0
    5.7322    4.9591    2.4809 O   0  0  0  0  0  0  0  0  0  0  0  0
    5.6230    3.6528    2.4786 C   0  0  0  0  0  0  0  0  0  0  0  0
    6.8241    3.1329    2.4649 N   0  0  0  0  0  0  0  0  0  0  0  0
    4.3787    2.9077    2.4882 C   0  0  0  0  0  0  0  0  0  0  0  0
    3.1719    3.5991    2.5011 C   0  0  0  0  0  0  0  0  0  0  0  0
    1.9827    2.8773    2.5101 C   0  0  0  0  0  0  0  0  0  0  0  0
    1.9872    1.4865    2.5060 C   0  0  0  0  0  0  0  0  0  0  0  0
    3.2061    0.8170    2.4926 C   0  0  0  0  0  0  0  0  0  0  0  0
    4.4079    1.5169    2.4834 C   0  0  0  0  0  0  0  0  0  0  0  0
    0.7179    3.5859    2.5254 C   0  0  0  0  0  0  0  0  0  0  0  0
    0.3160    4.1178    1.5277 O   0  0  0  0  0  0  0  0  0  0  0  0
   -0.0184    3.6482    3.6791 N   0  0  0  0  0  0  0  0  0  0  0  0
   -1.4145    3.7348    3.6168 C   0  0  0  0  0  0  0  0  0  0  0  0
   -2.0255    4.9838    3.5692 C   0  0  0  0  0  0  0  0  0  0  0  0
   -3.4127    5.0658    3.5072 C   0  0  0  0  0  0  0  0  0  0  0  0
   -4.1780    3.9047    3.4932 C   0  0  0  0  0  0  0  0  0  0  0  0
   -3.5563    2.6613    3.5406 C   0  0  0  0  0  0  0  0  0  0  0  0
   -2.1700    2.5670    3.6029 C   0  0  0  0  0  0  0  0  0  0  0  0
    0.6572    3.6241    4.9844 C   0  0  0  0  0  0  0  0  0  0  0  0
   13.4095    3.9049    2.4009 C   0  0  0  0  0  0  0  0  0  0  0  0
   13.9236    4.1177    3.7599 N   0  0  0  0  0  0  0  0  0  0  0  0
   14.1465    3.1850    4.6608 N   0  0  0  0  0  0  0  0  0  0  0  0
   14.6045    3.7438    5.7578 C   0  0  0  0  0  0  0  0  0  0  0  0
   14.6701    5.0880    5.5288 N   0  0  0  0  0  0  0  0  0  0  0  0
   14.2525    5.3260    4.3043 C   0  0  0  0  0  0  0  0  0  0  0  0
  1  2  1  0
  2  3  2  0
  3  4  1  0
  4  5  2  0
  5  6  1  0
  6  7  2  0
  7  2  1  0
  6  8  1  0
  8  9  2  0
  9 10  1  0
 10 11  1  0
 11 12  2  0
 12  8  1  0
 11 13  1  0
 13 14  2  0
 14 15  1  0
 15 16  2  0
 16 17  1  0
 17 18  2  0
 18 13  1  0
 15 19  1  0
 19 20  2  0
 19 21  1  0
 21 22  1  0
 22 23  2  0
 23 24  1  0
 24 25  2  0
 25 26  1  0
 26 27  2  0
 27 22  1  0
 21 28  1  0
  3 29  1  0
 29 30  1  0
 30 31  1  0
 31 32  2  0
 32 33  1  0
 33 34  2  0
 34 30  1  0
M  END
$$$$
s_11a____6741044____13263486
     RDKit          3D

 33 37  0  0  0  0  0  0  0  0999 V2000
    4.2958    6.3837    0.3224 Br  0  0  0  0  0  0  0  0  0  0  0  0
    5.7818    5.1995    0.8038 C   0  0  0  0  0  0  0  0  0  0  0  0
    7.0111    5.2826    0.1546 C   0  0  0  0  0  0  0  0  0  0  0  0
    7.2376    6.1716   -0.8258 N   0  0  0  0  0  0  0  0  0  0  0  0
    8.4196    6.2553   -1.4547 C   0  0  0  0  0  0  0  0  0  0  0  0
    9.4451    5.3934   -1.0785 C   0  0  0  0  0  0  0  0  0  0  0  0
    9.2192    4.5059   -0.0988 N   0  0  0  0  0  0  0  0  0  0  0  0
    8.0372    4.4200    0.5316 C   0  0  0  0  0  0  0  0  0  0  0  0
    7.8251    3.4913    1.5461 C   0  0  0  0  0  0  0  0  0  0  0  0
    6.5953    3.4139    2.1909 C   0  0  0  0  0  0  0  0  0  0  0  0
    5.5658    4.2729    1.8188 C   0  0  0  0  0  0  0  0  0  0  0  0
    6.3841    2.4444    3.2467 C   0  0  0  0  0  0  0  0  0  0  0  0
    7.2162    2.2936    4.0981 O   0  0  0  0  0  0  0  0  0  0  0  0
    5.2081    1.6827    3.2736 N   0  0  0  0  0  0  0  0  0  0  0  0
    4.5138    1.3279    2.1055 C   0  0  0  0  0  0  0  0  0  0  0  0
    3.1259    1.3196    2.1478 C   0  0  0  0  0  0  0  0  0  0  0  0
    2.4005    1.0000    1.0000 C   0  0  0  0  0  0  0  0  0  0  0  0
    1.0000    1.0000    1.0000 N   0  0  0  0  0  0  0  0  0  0  0  0
    0.3150    2.0217    0.3968 C   0  0  0  0  0  0  0  0  0  0  0  0
    0.9150    2.9165   -0.1316 O   0  0  0  0  0  0  0  0  0  0  0  0
   -1.1352    2.0217    0.3968 C   0  0  0  0  0  0  0  0  0  0  0  0
   -1.8154    2.7924   -0.5403 C   0  0  0  0  0  0  0  0  0  0  0  0
   -3.2065    2.8033   -0.5540 C   0  0  0  0  0  0  0  0  0  0  0  0
   -3.8999    2.0384    0.3775 C   0  0  0  0  0  0  0  0  0  0  0  0
   -5.2297    2.0400    0.3751 F   0  0  0  0  0  0  0  0  0  0  0  0
   -3.2201    1.2682    1.3146 C   0  0  0  0  0  0  0  0  0  0  0  0
   -1.8296    1.2568    1.3288 C   0  0  0  0  0  0  0  0  0  0  0  0
    3.0485    0.6529   -0.1818 C   0  0  0  0  0  0  0  0  0  0  0  0
    4.4376    0.6335   -0.2328 C   0  0  0  0  0  0  0  0  0  0  0  0
    5.1458    0.9779    0.9139 C   0  0  0  0  0  0  0  0  0  0  0  0
    2.4455    1.6585    3.4650 C   0  0  0  0  0  0  0  0  0  0  0  0
    3.2031    0.9720    4.5911 C   0  0  0  0  0  0  0  0  0  0  0  0
    4.7031    1.2266    4.5790 C   0  0  0  0  0  0  0  0  0  0  0  0
  1  2  1  0
  2  3  2  0
  3  4  1  0
  4  5  2  0
  5  6  1  0
  6  7  2  0
  7  8  1  0
  8  3  1  0
  8  9  2  0
  9 10  1  0
 10 11  2  0
 11  2  1  0
 10 12  1  0
 12 13  2  0
 12 14  1  0
 14 15  1  0
 15 16  2  0
 16 17  1  0
 17 18  1  0
 18 19  1  0
 19 20  2  0
 19 21  1  0
 21 22  2  0
 22 23  1  0
 23 24  2  0
 24 25  1  0
 24 26  1  0
 26 27  2  0
 27 21  1  0
 17 28  2  0
 28 29  1  0
 29 30  2  0
 30 15  1  0
 16 31  1  0
 31 32  1  0
 32 33  1  0
 33 14  1  0
M  END
$$$$
s_22____1723382____13263488
     RDKit          3D

 33 37  0  0  0  0  0  0  0  0999 V2000
    6.8373   -5.7482    1.4170 Br  0  0  0  0  0  0  0  0  0  0  0  0
    5.8452   -4.4668    2.5197 C   0  0  0  0  0  0  0  0  0  0  0  0
    5.6023   -4.7112    3.8691 C   0  0  0  0  0  0  0  0  0  0  0  0
    6.0328   -5.8282    4.4770 N   0  0  0  0  0  0  0  0  0  0  0  0
    5.8009   -6.0687    5.7763 C   0  0  0  0  0  0  0  0  0  0  0  0
    5.0919   -5.1297    6.5189 C   0  0  0  0  0  0  0  0  0  0  0  0
    4.6626   -4.0135    5.9119 N   0  0  0  0  0  0  0  0  0  0  0  0
    4.8929   -3.7709    4.6120 C   0  0  0  0  0  0  0  0  0  0  0  0
    4.4381   -2.6053    4.0027 C   0  0  0  0  0  0  0  0  0  0  0  0
    4.6846   -2.3670    2.6549 C   0  0  0  0  0  0  0  0  0  0  0  0
    5.3927   -3.3026    1.9070 C   0  0  0  0  0  0  0  0  0  0  0  0
    4.2080   -1.1501    2.0294 C   0  0  0  0  0  0  0  0  0  0  0  0
    4.0944   -1.0935    0.8362 O   0  0  0  0  0  0  0  0  0  0  0  0
    3.8868   -0.0641    2.8003 N   0  0  0  0  0  0  0  0  0  0  0  0
    3.4030    1.1711    2.1655 C   0  0  0  0  0  0  0  0  0  0  0  0
    2.0188    1.4945    2.6784 C   0  0  0  0  0  0  0  0  0  0  0  0
    1.9385    2.9493    2.5336 N   0  0  0  0  0  0  0  0  0  0  0  0
    0.7589    3.6950    2.4239 C   0  0  0  0  0  0  0  0  0  0  0  0
    0.1505    4.1764    3.5787 C   0  0  0  0  0  0  0  0  0  0  0  0
   -1.0217    4.9177    3.4695 C   0  0  0  0  0  0  0  0  0  0  0  0
   -1.5711    5.1694    2.2168 C   0  0  0  0  0  0  0  0  0  0  0  0
   -2.7084    5.8887    2.1112 O   0  0  0  0  0  0  0  0  0  0  0  0
   -3.2424    6.1335    0.8955 C   0  0  0  0  0  0  0  0  0  0  0  0
   -2.8654    7.2738    0.1939 C   0  0  0  0  0  0  0  0  0  0  0  0
   -3.4199    7.5216   -1.0585 C   0  0  0  0  0  0  0  0  0  0  0  0
   -4.3426    6.6321   -1.5998 C   0  0  0  0  0  0  0  0  0  0  0  0
   -4.7158    5.4942   -0.8920 C   0  0  0  0  0  0  0  0  0  0  0  0
   -4.1654    5.2407    0.3604 C   0  0  0  0  0  0  0  0  0  0  0  0
   -0.9629    4.6881    1.0618 C   0  0  0  0  0  0  0  0  0  0  0  0
    0.2092    3.9466    1.1710 C   0  0  0  0  0  0  0  0  0  0  0  0
    3.2236    3.4872    2.5190 C   0  0  0  0  0  0  0  0  0  0  0  0
    3.5114    4.6662    2.3942 O   0  0  0  0  0  0  0  0  0  0  0  0
    4.2041    2.3444    2.6836 C   0  0  0  0  0  0  0  0  0  0  0  0
  1  2  1  0
  2  3  2  0
  3  4  1  0
  4  5  2  0
  5  6  1  0
  6  7  2  0
  7  8  1  0
  8  3  1  0
  8  9  2  0
  9 10  1  0
 10 11  2  0
 11  2  1  0
 10 12  1  0
 12 13  2  0
 12 14  1  0
 14 15  1  0
 15 16  1  0
 16 17  1  0
 17 18  1  0
 18 19  2  0
 19 20  1  0
 20 21  2  0
 21 22  1  0
 22 23  1  0
 23 24  2  0
 24 25  1  0
 25 26  2  0
 26 27  1  0
 27 28  2  0
 28 23  1  0
 21 29  1  0
 29 30  2  0
 30 18  1  0
 17 31  1  0
 31 32  2  0
 31 33  1  0
 33 15  1  0
M  END
$$$$
s_708____1107374____5062888
     RDKit          3D

 33 37  0  0  0  0  0  0  0  0999 V2000
   10.1365   -0.2849    4.9030 Cl  0  0  0  0  0  0  0  0  0  0  0  0
   11.1058   -0.7758    3.4927 C   0  0  0  0  0  0  0  0  0  0  0  0
   10.4913   -1.3894    2.4058 C   0  0  0  0  0  0  0  0  0  0  0  0
   11.2489   -1.7714    1.3036 C   0  0  0  0  0  0  0  0  0  0  0  0
   12.6205   -1.5420    1.2891 C   0  0  0  0  0  0  0  0  0  0  0  0
   13.2347   -0.9290    2.3764 C   0  0  0  0  0  0  0  0  0  0  0  0
   12.4771   -0.5459    3.4777 C   0  0  0  0  0  0  0  0  0  0  0  0
    9.0614   -1.6287    2.4208 C   0  0  0  0  0  0  0  0  0  0  0  0
    8.0495   -0.6228    2.4351 C   0  0  0  0  0  0  0  0  0  0  0  0
    6.7975   -1.1432    2.4470 C   0  0  0  0  0  0  0  0  0  0  0  0
    6.9167   -2.8402    2.4381 S   0  0  0  0  0  0  0  0  0  0  0  0
    8.6200   -2.9185    2.4213 C   0  0  0  0  0  0  0  0  0  0  0  0
    5.6002   -0.4926    2.4615 N   0  0  0  0  0  0  0  0  0  0  0  0
    5.6615    0.8207    2.4636 C   0  0  0  0  0  0  0  0  0  0  0  0
    6.8530    1.4972    2.4543 N   0  0  0  0  0  0  0  0  0  0  0  0
    8.0328    0.8024    2.4410 C   0  0  0  0  0  0  0  0  0  0  0  0
    9.0639    1.4587    2.4318 O   0  0  0  0  0  0  0  0  0  0  0  0
    4.3934    1.5238    2.4792 C   0  0  0  0  0  0  0  0  0  0  0  0
    4.3889    2.9151    2.4847 C   0  0  0  0  0  0  0  0  0  0  0  0
    3.1774    3.5986    2.4996 C   0  0  0  0  0  0  0  0  0  0  0  0
    1.9850    2.8822    2.5096 C   0  0  0  0  0  0  0  0  0  0  0  0
    0.7615    3.5615    2.5249 N   0  0  0  0  0  0  0  0  0  0  0  0
    0.2750    4.0700    3.7003 C   0  0  0  0  0  0  0  0  0  0  0  0
   -0.6176    4.8720    3.6832 O   0  0  0  0  0  0  0  0  0  0  0  0
    0.8388    3.6390    4.9656 C   0  0  0  0  0  0  0  0  0  0  0  0
    0.5264    2.3809    5.4676 C   0  0  0  0  0  0  0  0  0  0  0  0
    1.0812    1.9932    6.6825 C   0  0  0  0  0  0  0  0  0  0  0  0
    1.9006    2.8152    7.3554 N   0  0  0  0  0  0  0  0  0  0  0  0
    2.2131    4.0323    6.8864 C   0  0  0  0  0  0  0  0  0  0  0  0
    1.6897    4.4776    5.6768 C   0  0  0  0  0  0  0  0  0  0  0  0
   -0.0015    3.7293    1.2797 C   0  0  0  0  0  0  0  0  0  0  0  0
    1.9902    1.4907    2.5042 C   0  0  0  0  0  0  0  0  0  0  0  0
    3.2017    0.8073    2.4891 C   0  0  0  0  0  0  0  0  0  0  0  0
  1  2  1  0
  2  3  2  0
  3  4  1  0
  4  5  2  0
  5  6  1  0
  6  7  2  0
  7  2  1  0
  3  8  1  0
  8  9  1  0
  9 10  2  0
 10 11  1  0
 11 12  1  0
  8 12  2  0
 10 13  1  0
 13 14  2  0
 14 15  1  0
 15 16  1  0
 16  9  1  0
 16 17  2  0
 14 18  1  0
 18 19  2  0
 19 20  1  0
 20 21  2  0
 21 22  1  0
 22 23  1  0
 23 24  2  0
 23 25  1  0
 25 26  2  0
 26 27  1  0
 27 28  2  0
 28 29  1  0
 29 30  2  0
 30 25  1  0
 22 31  1  0
 21 32  1  0
 32 33  2  0
 33 18  1  0
M  END
$$$$
s_270196____9437302____17512658
     RDKit          3D

 31 35  0  0  0  0  0  0  0  0999 V2000
    8.2283   -6.7125    2.4379 Cl  0  0  0  0  0  0  0  0  0  0  0  0
    6.7593   -5.7091    2.4601 C   0  0  0  0  0  0  0  0  0  0  0  0
    5.4225   -6.1736    2.4795 C   0  0  0  0  0  0  0  0  0  0  0  0
    4.6498   -5.1126    2.4919 N   0  0  0  0  0  0  0  0  0  0  0  0
    5.3765   -4.0152    2.4791 N   0  0  0  0  0  0  0  0  0  0  0  0
    4.8809   -2.7027    2.4850 C   0  0  0  0  0  0  0  0  0  0  0  0
    3.5079   -2.4861    2.5062 C   0  0  0  0  0  0  0  0  0  0  0  0
    2.6722   -3.5204    2.5194 F   0  0  0  0  0  0  0  0  0  0  0  0
    3.0007   -1.1910    2.5128 C   0  0  0  0  0  0  0  0  0  0  0  0
    3.8900   -0.1218    2.4978 C   0  0  0  0  0  0  0  0  0  0  0  0
    5.2643   -0.3344    2.4759 C   0  0  0  0  0  0  0  0  0  0  0  0
    5.7677   -1.6314    2.4691 C   0  0  0  0  0  0  0  0  0  0  0  0
    3.3683    1.2311    2.5037 C   0  0  0  0  0  0  0  0  0  0  0  0
    4.0764    2.3360    2.4914 N   0  0  0  0  0  0  0  0  0  0  0  0
    3.2848    3.3259    2.4991 O   0  0  0  0  0  0  0  0  0  0  0  0
    2.0463    2.8968    2.5180 C   0  0  0  0  0  0  0  0  0  0  0  0
    2.0573    1.5880    2.5200 N   0  0  0  0  0  0  0  0  0  0  0  0
    0.8618    3.7326    2.5327 C   0  0  0  0  0  0  0  0  0  0  0  0
   -0.3977    3.1914    2.5521 C   0  0  0  0  0  0  0  0  0  0  0  0
   -1.5096    3.9930    2.5664 N   0  0  0  0  0  0  0  0  0  0  0  0
   -2.7668    3.3768    2.5862 C   0  0  0  0  0  0  0  0  0  0  0  0
   -3.1344    2.5287    1.5464 C   0  0  0  0  0  0  0  0  0  0  0  0
   -4.3841    1.9182    1.5697 C   0  0  0  0  0  0  0  0  0  0  0  0
   -5.2554    2.1578    2.6268 C   0  0  0  0  0  0  0  0  0  0  0  0
   -4.8771    3.0072    3.6612 C   0  0  0  0  0  0  0  0  0  0  0  0
   -3.6301    3.6233    3.6486 C   0  0  0  0  0  0  0  0  0  0  0  0
   -1.3904    5.3600    2.5616 C   0  0  0  0  0  0  0  0  0  0  0  0
   -2.3675    6.0914    2.5743 O   0  0  0  0  0  0  0  0  0  0  0  0
   -0.0956    5.9445    2.5416 C   0  0  0  0  0  0  0  0  0  0  0  0
    1.0176    5.1448    2.5276 C   0  0  0  0  0  0  0  0  0  0  0  0
    6.6996   -4.3483    2.4581 C   0  0  0  0  0  0  0  0  0  0  0  0
  1  2  1  0
  2  3  1  0
  3  4  2  0
  4  5  1  0
  5  6  1  0
  6  7  2  0
  7  8  1  0
  7  9  1  0
  9 10  2  0
 10 11  1  0
 11 12  2  0
 12  6  1  0
 10 13  1  0
 13 14  2  0
 14 15  1  0
 15 16  1  0
 16 17  2  0
 17 13  1  0
 16 18  1  0
 18 19  2  0
 19 20  1  0
 20 21  1  0
 21 22  2  0
 22 23  1  0
 23 24  2  0
 24 25  1  0
 25 26  2  0
 26 21  1  0
 20 27  1  0
 27 28  2  0
 27 29  1  0
 29 30  2  0
 30 18  1  0
  5 31  1  0
  2 31  2  0
M  END
$$$$
m_271722____10195726____10190896
     RDKit          3D

 33 37  0  0  0  0  0  0  0  0999 V2000
    4.2863   -5.4186    2.4619 S   0  0  0  0  0  0  0  0  0  0  0  0
    5.8383   -6.1130    2.4388 C   0  0  0  0  0  0  0  0  0  0  0  0
    6.1111   -7.5372    2.4327 C   0  0  0  0  0  0  0  0  0  0  0  0
    5.0475   -8.4336    2.4465 C   0  0  0  0  0  0  0  0  0  0  0  0
    5.2919   -9.8031    2.4406 C   0  0  0  0  0  0  0  0  0  0  0  0
    6.6061  -10.2574    2.4223 C   0  0  0  0  0  0  0  0  0  0  0  0
    6.8533  -11.5640    2.4164 F   0  0  0  0  0  0  0  0  0  0  0  0
    7.6694   -9.3615    2.4089 C   0  0  0  0  0  0  0  0  0  0  0  0
    7.4257   -7.9924    2.4147 C   0  0  0  0  0  0  0  0  0  0  0  0
    6.7414   -5.0899    2.4334 C   0  0  0  0  0  0  0  0  0  0  0  0
    6.1377   -3.8027    2.4385 C   0  0  0  0  0  0  0  0  0  0  0  0
    4.7754   -3.7915    2.4542 C   0  0  0  0  0  0  0  0  0  0  0  0
    3.9086   -2.6246    2.4684 C   0  0  0  0  0  0  0  0  0  0  0  0
    4.3078   -1.3749    2.4683 O   0  0  0  0  0  0  0  0  0  0  0  0
    3.2280   -0.6288    2.4827 C   0  0  0  0  0  0  0  0  0  0  0  0
    2.1709   -1.4057    2.4914 N   0  0  0  0  0  0  0  0  0  0  0  0
    2.5956   -2.6492    2.4817 N   0  0  0  0  0  0  0  0  0  0  0  0
    3.2062    0.8215    2.4897 C   0  0  0  0  0  0  0  0  0  0  0  0
    1.9856    1.4890    2.5053 C   0  0  0  0  0  0  0  0  0  0  0  0
    1.9769    2.8800    2.5117 C   0  0  0  0  0  0  0  0  0  0  0  0
    0.7417    3.5392    2.5275 N   0  0  0  0  0  0  0  0  0  0  0  0
   -0.2488    3.1179    3.3750 C   0  0  0  0  0  0  0  0  0  0  0  0
    0.0255    2.4498    4.3333 O   0  0  0  0  0  0  0  0  0  0  0  0
   -1.6288    3.4794    3.1140 C   0  0  0  0  0  0  0  0  0  0  0  0
   -2.6559    2.7416    3.6935 C   0  0  0  0  0  0  0  0  0  0  0  0
   -3.9782    3.0913    3.4398 C   0  0  0  0  0  0  0  0  0  0  0  0
   -4.2654    4.1725    2.6131 C   0  0  0  0  0  0  0  0  0  0  0  0
   -3.2314    4.9025    2.0402 C   0  0  0  0  0  0  0  0  0  0  0  0
   -1.9050    4.5625    2.2856 C   0  0  0  0  0  0  0  0  0  0  0  0
    3.1722    3.5930    2.5023 C   0  0  0  0  0  0  0  0  0  0  0  0
    4.3872    2.9146    2.4871 C   0  0  0  0  0  0  0  0  0  0  0  0
    4.4074    1.5237    2.4807 C   0  0  0  0  0  0  0  0  0  0  0  0
    3.1505    5.1125    2.5107 C   0  0  0  0  0  0  0  0  0  0  0  0
  1  2  1  0
  2  3  1  0
  3  4  2  0
  4  5  1  0
  5  6  2  0
  6  7  1  0
  6  8  1  0
  8  9  2  0
  9  3  1  0
  2 10  2  0
 10 11  1  0
 11 12  2  0
 12  1  1  0
 12 13  1  0
 13 14  1  0
 14 15  1  0
 15 16  2  0
 16 17  1  0
 13 17  2  0
 15 18  1  0
 18 19  2  0
 19 20  1  0
 20 21  1  0
 21 22  1  0
 22 23  2  0
 22 24  1  0
 24 25  2  0
 25 26  1  0
 26 27  2  0
 27 28  1  0
 28 29  2  0
 29 24  1  0
 20 30  2  0
 30 31  1  0
 31 32  2  0
 32 18  1  0
 30 33  1  0
M  END
$$$$
s_270196____8770000____16485402
     RDKit          3D

 33 37  0  0  0  0  0  0  0  0999 V2000
    6.7029   10.0216    2.4884 F   0  0  0  0  0  0  0  0  0  0  0  0
    7.4804    8.9425    2.4780 C   0  0  0  0  0  0  0  0  0  0  0  0
    8.8690    9.0510    2.4658 C   0  0  0  0  0  0  0  0  0  0  0  0
    9.4956   10.2716    2.4662 N   0  0  0  0  0  0  0  0  0  0  0  0
   10.8615   10.3823    2.4545 C   0  0  0  0  0  0  0  0  0  0  0  0
   11.3862   11.4614    2.4532 O   0  0  0  0  0  0  0  0  0  0  0  0
   11.6689    9.2136    2.4427 C   0  0  0  0  0  0  0  0  0  0  0  0
   11.0530    7.9894    2.4426 C   0  0  0  0  0  0  0  0  0  0  0  0
    9.6362    7.8903    2.4545 C   0  0  0  0  0  0  0  0  0  0  0  0
    9.0448    6.6318    2.4551 C   0  0  0  0  0  0  0  0  0  0  0  0
    7.6564    6.5516    2.4676 C   0  0  0  0  0  0  0  0  0  0  0  0
    6.8649    7.6954    2.4796 C   0  0  0  0  0  0  0  0  0  0  0  0
    7.0370    5.2416    2.4694 C   0  0  0  0  0  0  0  0  0  0  0  0
    7.6726    4.0952    2.4590 O   0  0  0  0  0  0  0  0  0  0  0  0
    6.8334    3.1452    2.4653 N   0  0  0  0  0  0  0  0  0  0  0  0
    5.6233    3.6529    2.4786 C   0  0  0  0  0  0  0  0  0  0  0  0
    5.7496    5.0058    2.4805 N   0  0  0  0  0  0  0  0  0  0  0  0
    4.3800    2.9062    2.4867 C   0  0  0  0  0  0  0  0  0  0  0  0
    3.1728    3.5972    2.5008 C   0  0  0  0  0  0  0  0  0  0  0  0
    1.9830    2.8768    2.5101 C   0  0  0  0  0  0  0  0  0  0  0  0
    0.7008    3.5955    2.5256 N   0  0  0  0  0  0  0  0  0  0  0  0
   -0.4768    2.8955    2.5349 C   0  0  0  0  0  0  0  0  0  0  0  0
   -0.4616    1.6956    2.5303 O   0  0  0  0  0  0  0  0  0  0  0  0
   -1.7418    3.6046    2.5502 C   0  0  0  0  0  0  0  0  0  0  0  0
   -2.9381    2.8934    2.5596 C   0  0  0  0  0  0  0  0  0  0  0  0
   -2.9216    1.5635    2.5540 F   0  0  0  0  0  0  0  0  0  0  0  0
   -4.1511    3.5737    2.5737 C   0  0  0  0  0  0  0  0  0  0  0  0
   -4.1685    4.9643    2.5796 C   0  0  0  0  0  0  0  0  0  0  0  0
   -2.9725    5.6751    2.5703 C   0  0  0  0  0  0  0  0  0  0  0  0
   -1.7593    4.9949    2.5564 C   0  0  0  0  0  0  0  0  0  0  0  0
    1.9867    1.4860    2.5051 C   0  0  0  0  0  0  0  0  0  0  0  0
    3.2053    0.8159    2.4905 C   0  0  0  0  0  0  0  0  0  0  0  0
    4.4072    1.5158    2.4809 C   0  0  0  0  0  0  0  0  0  0  0  0
  1  2  1  0
  2  3  2  0
  3  4  1  0
  4  5  1  0
  5  6  2  0
  5  7  1  0
  7  8  2  0
  8  9  1  0
  9  3  1  0
  9 10  2  0
 10 11  1  0
 11 12  2  0
 12  2  1  0
 11 13  1  0
 13 14  1  0
 14 15  1  0
 15 16  2  0
 16 17  1  0
 13 17  2  0
 16 18  1  0
 18 19  2  0
 19 20  1  0
 20 21  1  0
 21 22  1  0
 22 23  2  0
 22 24  1  0
 24 25  2  0
 25 26  1  0
 25 27  1  0
 27 28  2  0
 28 29  1  0
 29 30  2  0
 30 24  1  0
 20 31  2  0
 31 32  1  0
 32 33  2  0
 33 18  1  0
M  END
$$$$
s_51____14653434____77354
     RDKit          3D

 34 38  0  0  0  0  0  0  0  0999 V2000
    4.9152   -1.2721    3.1163 O   0  0  0  0  0  0  0  0  0  0  0  0
    5.7868   -0.5125    2.7477 C   0  0  0  0  0  0  0  0  0  0  0  0
    5.6223    0.8426    2.4641 N   0  0  0  0  0  0  0  0  0  0  0  0
    4.3950    1.5262    2.4798 C   0  0  0  0  0  0  0  0  0  0  0  0
    4.3931    2.9175    2.4829 C   0  0  0  0  0  0  0  0  0  0  0  0
    3.1777    3.5943    2.4980 C   0  0  0  0  0  0  0  0  0  0  0  0
    1.9842    2.8802    2.5097 C   0  0  0  0  0  0  0  0  0  0  0  0
    0.7615    3.5615    2.5249 N   0  0  0  0  0  0  0  0  0  0  0  0
   -0.2941    2.9303    2.5353 N   0  0  0  0  0  0  0  0  0  0  0  0
   -1.5165    3.6129    2.5507 C   0  0  0  0  0  0  0  0  0  0  0  0
   -2.7071    2.8932    2.5621 C   0  0  0  0  0  0  0  0  0  0  0  0
   -3.9195    3.5748    2.5777 C   0  0  0  0  0  0  0  0  0  0  0  0
   -3.9354    4.9655    2.5815 C   0  0  0  0  0  0  0  0  0  0  0  0
   -2.7390    5.6747    2.5706 C   0  0  0  0  0  0  0  0  0  0  0  0
   -1.5206    5.0039    2.5549 C   0  0  0  0  0  0  0  0  0  0  0  0
    1.9859    1.4888    2.5066 C   0  0  0  0  0  0  0  0  0  0  0  0
    3.2013    0.8121    2.4917 C   0  0  0  0  0  0  0  0  0  0  0  0
    6.8461    1.4240    2.1543 C   0  0  0  0  0  0  0  0  0  0  0  0
    7.0044    2.5710    1.7909 O   0  0  0  0  0  0  0  0  0  0  0  0
    7.9644    0.4242    2.3344 C   0  0  0  0  0  0  0  0  0  0  0  0
    7.2415   -0.8902    2.5291 C   0  0  0  0  0  0  0  0  0  0  0  0
    7.7673   -1.6496    3.6699 N   0  0  0  0  0  0  0  0  0  0  0  0
    7.8267   -3.0476    3.6128 C   0  0  0  0  0  0  0  0  0  0  0  0
    8.3267   -3.7575    4.6993 C   0  0  0  0  0  0  0  0  0  0  0  0
    8.3803   -5.1459    4.6314 C   0  0  0  0  0  0  0  0  0  0  0  0
    8.8989   -5.8902    5.7616 C   0  0  0  0  0  0  0  0  0  0  0  0
    8.9637   -7.2794    5.7201 C   0  0  0  0  0  0  0  0  0  0  0  0
    9.4470   -7.9465    6.7786 N   0  0  0  0  0  0  0  0  0  0  0  0
    9.8695   -7.3036    7.8770 C   0  0  0  0  0  0  0  0  0  0  0  0
    9.8135   -5.9646    7.9336 N   0  0  0  0  0  0  0  0  0  0  0  0
    9.3408   -5.2399    6.9085 C   0  0  0  0  0  0  0  0  0  0  0  0
    7.9437   -5.8230    3.4978 C   0  0  0  0  0  0  0  0  0  0  0  0
    7.4474   -5.0927    2.4231 C   0  0  0  0  0  0  0  0  0  0  0  0
    7.3841   -3.7041    2.4693 C   0  0  0  0  0  0  0  0  0  0  0  0
  1  2  2  0
  2  3  1  0
  3  4  1  0
  4  5  2  0
  5  6  1  0
  6  7  2  0
  7  8  1  0
  8  9  2  0
  9 10  1  0
 10 11  2  0
 11 12  1  0
 12 13  2  0
 13 14  1  0
 14 15  2  0
 15 10  1  0
  7 16  1  0
 16 17  2  0
 17  4  1  0
  3 18  1  0
 18 19  2  0
 18 20  1  0
 20 21  1  0
 21  2  1  0
 21 22  1  0
 22 23  1  0
 23 24  2  0
 24 25  1  0
 25 26  1  0
 26 27  2  0
 27 28  1  0
 28 29  2  0
 29 30  1  0
 30 31  2  0
 31 26  1  0
 25 32  2  0
 32 33  1  0
 33 34  2  0
 34 23  1  0
M  END
$$$$
s_270196____16887988____10226258
     RDKit          3D

 34 38  0  0  0  0  0  0  0  0999 V2000
    5.6907   -4.5007    2.4777 Br  0  0  0  0  0  0  0  0  0  0  0  0
    4.9452   -2.6881    2.4859 C   0  0  0  0  0  0  0  0  0  0  0  0
    3.5652   -2.5140    2.5063 C   0  0  0  0  0  0  0  0  0  0  0  0
    3.0420   -1.2251    2.5122 C   0  0  0  0  0  0  0  0  0  0  0  0
    1.6310   -1.0667    2.5331 O   0  0  0  0  0  0  0  0  0  0  0  0
    0.7884   -2.2096    2.5474 C   0  0  0  0  0  0  0  0  0  0  0  0
    0.5091   -2.6153    3.9857 C   0  0  0  0  0  0  0  0  0  0  0  0
   -0.5899   -2.0820    4.6511 C   0  0  0  0  0  0  0  0  0  0  0  0
   -0.8414   -2.4552    5.9674 C   0  0  0  0  0  0  0  0  0  0  0  0
    0.0025   -3.3563    6.6081 C   0  0  0  0  0  0  0  0  0  0  0  0
    1.0971   -3.8830    5.9335 C   0  0  0  0  0  0  0  0  0  0  0  0
    1.3596   -3.5172    4.6173 C   0  0  0  0  0  0  0  0  0  0  0  0
    3.8901   -0.1220    2.4978 C   0  0  0  0  0  0  0  0  0  0  0  0
    5.2691   -0.3050    2.4775 C   0  0  0  0  0  0  0  0  0  0  0  0
    5.8002   -1.5908    2.4716 C   0  0  0  0  0  0  0  0  0  0  0  0
    3.3683    1.2311    2.5037 C   0  0  0  0  0  0  0  0  0  0  0  0
    4.0764    2.3360    2.4914 N   0  0  0  0  0  0  0  0  0  0  0  0
    3.2848    3.3259    2.4991 O   0  0  0  0  0  0  0  0  0  0  0  0
    2.0463    2.8968    2.5180 C   0  0  0  0  0  0  0  0  0  0  0  0
    2.0573    1.5880    2.5200 N   0  0  0  0  0  0  0  0  0  0  0  0
    0.8616    3.7327    2.5327 C   0  0  0  0  0  0  0  0  0  0  0  0
   -0.2182    3.3665    3.3295 C   0  0  0  0  0  0  0  0  0  0  0  0
   -1.3530    4.1706    3.3392 C   0  0  0  0  0  0  0  0  0  0  0  0
   -2.4465    3.8117    4.1369 N   0  0  0  0  0  0  0  0  0  0  0  0
   -3.3123    4.6521    4.6546 N   0  0  0  0  0  0  0  0  0  0  0  0
   -4.2188    4.0136    5.3529 C   0  0  0  0  0  0  0  0  0  0  0  0
   -3.8871    2.6458    5.2636 C   0  0  0  0  0  0  0  0  0  0  0  0
   -4.6434    1.4992    5.9131 C   0  0  0  0  0  0  0  0  0  0  0  0
   -5.2109    0.6390    6.4004 N   0  0  0  0  0  0  0  0  0  0  0  0
   -2.7730    2.5394    4.4938 C   0  0  0  0  0  0  0  0  0  0  0  0
   -2.0913    1.3723    4.1397 N   0  0  0  0  0  0  0  0  0  0  0  0
   -1.4197    5.3264    2.5685 C   0  0  0  0  0  0  0  0  0  0  0  0
   -0.3281    5.6736    1.7797 C   0  0  0  0  0  0  0  0  0  0  0  0
    0.8170    4.8844    1.7546 C   0  0  0  0  0  0  0  0  0  0  0  0
  1  2  1  0
  2  3  2  0
  3  4  1  0
  4  5  1  0
  5  6  1  0
  6  7  1  0
  7  8  2  0
  8  9  1  0
  9 10  2  0
 10 11  1  0
 11 12  2  0
 12  7  1  0
  4 13  2  0
 13 14  1  0
 14 15  2  0
 15  2  1  0
 13 16  1  0
 16 17  2  0
 17 18  1  0
 18 19  1  0
 19 20  2  0
 20 16  1  0
 19 21  1  0
 21 22  2  0
 22 23  1  0
 23 24  1  0
 24 25  1  0
 25 26  2  0
 26 27  1  0
 27 28  1  0
 28 29  3  0
 27 30  2  0
 30 24  1  0
 30 31  1  0
 23 32  2  0
 32 33  1  0
 33 34  2  0
 34 21  1  0
M  END
$$$$
s_274090____12936412____16948036
     RDKit          3D

 37 41  0  0  0  0  0  0  0  0999 V2000
   -2.3063    6.1142   -3.4400 Cl  0  0  0  0  0  0  0  0  0  0  0  0
   -1.5530    4.6646   -2.7343 C   0  0  0  0  0  0  0  0  0  0  0  0
   -1.3681    4.5940   -1.3578 C   0  0  0  0  0  0  0  0  0  0  0  0
   -0.7780    3.4575   -0.8149 C   0  0  0  0  0  0  0  0  0  0  0  0
   -0.5853    3.3752    0.5696 N   0  0  0  0  0  0  0  0  0  0  0  0
    0.4147    4.0971    1.1661 C   0  0  0  0  0  0  0  0  0  0  0  0
    0.9463    4.9923    0.5694 O   0  0  0  0  0  0  0  0  0  0  0  0
    0.8508    3.7642    2.5836 C   0  0  0  0  0  0  0  0  0  0  0  0
    2.0449    2.9079    2.5406 N   0  0  0  0  0  0  0  0  0  0  0  0
    3.2864    3.3264    2.5304 N   0  0  0  0  0  0  0  0  0  0  0  0
    4.0997    2.3609    2.4928 N   0  0  0  0  0  0  0  0  0  0  0  0
    3.3679    1.2133    2.4745 C   0  0  0  0  0  0  0  0  0  0  0  0
    3.8997   -0.1356    2.4323 C   0  0  0  0  0  0  0  0  0  0  0  0
    5.2658   -0.3318    2.2583 C   0  0  0  0  0  0  0  0  0  0  0  0
    5.7636   -1.6300    2.2191 C   0  0  0  0  0  0  0  0  0  0  0  0
    4.9061   -2.7181    2.3524 C   0  0  0  0  0  0  0  0  0  0  0  0
    3.5417   -2.5112    2.5259 C   0  0  0  0  0  0  0  0  0  0  0  0
    3.0342   -1.2165    2.5663 C   0  0  0  0  0  0  0  0  0  0  0  0
    5.4241   -4.1470    2.3130 C   0  0  0  0  0  0  0  0  0  0  0  0
    7.1906   -1.8140    2.0368 C   0  0  0  0  0  0  0  0  0  0  0  0
    7.8331   -2.3879    2.8722 O   0  0  0  0  0  0  0  0  0  0  0  0
    7.8051   -1.3328    0.9109 N   0  0  0  0  0  0  0  0  0  0  0  0
    9.1441   -0.9271    0.9632 C   0  0  0  0  0  0  0  0  0  0  0  0
   10.0858   -1.5539    0.1533 C   0  0  0  0  0  0  0  0  0  0  0  0
   11.4151   -1.1479    0.2079 C   0  0  0  0  0  0  0  0  0  0  0  0
   11.7943   -0.1228    1.0677 C   0  0  0  0  0  0  0  0  0  0  0  0
   10.8442    0.4972    1.8725 C   0  0  0  0  0  0  0  0  0  0  0  0
    9.5121    0.0996    1.8266 C   0  0  0  0  0  0  0  0  0  0  0  0
    2.0495    1.5504    2.5067 C   0  0  0  0  0  0  0  0  0  0  0  0
   -0.3816    2.4109   -1.6414 C   0  0  0  0  0  0  0  0  0  0  0  0
    0.2080    1.2777   -1.0751 N   0  0  0  0  0  0  0  0  0  0  0  0
    1.4144    0.8181   -1.3348 N   0  0  0  0  0  0  0  0  0  0  0  0
    1.6285   -0.2627   -0.6195 C   0  0  0  0  0  0  0  0  0  0  0  0
    0.4973   -0.4918    0.1121 N   0  0  0  0  0  0  0  0  0  0  0  0
   -0.3815    0.4528   -0.1601 C   0  0  0  0  0  0  0  0  0  0  0  0
   -0.5683    2.4835   -3.0176 C   0  0  0  0  0  0  0  0  0  0  0  0
   -1.1583    3.6195   -3.5632 C   0  0  0  0  0  0  0  0  0  0  0  0
  1  2  1  0
  2  3  2  0
  3  4  1  0
  4  5  1  0
  5  6  1  0
  6  7  2  0
  6  8  1  0
  8  9  1  0
  9 10  1  0
 10 11  2  0
 11 12  1  0
 12 13  1  0
 13 14  2  0
 14 15  1  0
 15 16  2  0
 16 17  1  0
 17 18  2  0
 18 13  1  0
 16 19  1  0
 15 20  1  0
 20 21  2  0
 20 22  1  0
 22 23  1  0
 23 24  2  0
 24 25  1  0
 25 26  2  0
 26 27  1  0
 27 28  2  0
 28 23  1  0
 12 29  2  0
 29  9  1  0
  4 30  2  0
 30 31  1  0
 31 32  1  0
 32 33  2  0
 33 34  1  0
 34 35  2  0
 35 31  1  0
 30 36  1  0
 36 37  2  0
 37  2  1  0
M  END
$$$$
s_270196____16763672____17512658
     RDKit          3D

 30 34  0  0  0  0  0  0  0  0999 V2000
   -2.3675    6.0914    2.5743 O   0  0  0  0  0  0  0  0  0  0  0  0
   -1.3904    5.3600    2.5616 C   0  0  0  0  0  0  0  0  0  0  0  0
   -1.5096    3.9930    2.5664 N   0  0  0  0  0  0  0  0  0  0  0  0
   -2.7668    3.3768    2.5862 C   0  0  0  0  0  0  0  0  0  0  0  0
   -3.1344    2.5287    1.5464 C   0  0  0  0  0  0  0  0  0  0  0  0
   -4.3841    1.9182    1.5697 C   0  0  0  0  0  0  0  0  0  0  0  0
   -5.2554    2.1578    2.6268 C   0  0  0  0  0  0  0  0  0  0  0  0
   -4.8771    3.0072    3.6612 C   0  0  0  0  0  0  0  0  0  0  0  0
   -3.6301    3.6233    3.6486 C   0  0  0  0  0  0  0  0  0  0  0  0
   -0.3977    3.1914    2.5521 C   0  0  0  0  0  0  0  0  0  0  0  0
    0.8618    3.7326    2.5327 C   0  0  0  0  0  0  0  0  0  0  0  0
    2.0463    2.8968    2.5180 C   0  0  0  0  0  0  0  0  0  0  0  0
    3.2848    3.3259    2.4991 O   0  0  0  0  0  0  0  0  0  0  0  0
    4.0764    2.3360    2.4914 N   0  0  0  0  0  0  0  0  0  0  0  0
    3.3683    1.2311    2.5037 C   0  0  0  0  0  0  0  0  0  0  0  0
    2.0573    1.5880    2.5200 N   0  0  0  0  0  0  0  0  0  0  0  0
    3.8900   -0.1219    2.4978 C   0  0  0  0  0  0  0  0  0  0  0  0
    3.0012   -1.1921    2.5128 C   0  0  0  0  0  0  0  0  0  0  0  0
    3.4921   -2.4936    2.5073 C   0  0  0  0  0  0  0  0  0  0  0  0
    4.8663   -2.7091    2.4878 C   0  0  0  0  0  0  0  0  0  0  0  0
    5.3696   -4.0160    2.4823 N   0  0  0  0  0  0  0  0  0  0  0  0
    6.2937   -4.4854    3.2831 N   0  0  0  0  0  0  0  0  0  0  0  0
    6.5064   -5.7501    2.9921 C   0  0  0  0  0  0  0  0  0  0  0  0
    5.6773   -6.0891    1.9621 N   0  0  0  0  0  0  0  0  0  0  0  0
    4.9820   -5.0223    1.6531 C   0  0  0  0  0  0  0  0  0  0  0  0
    4.0124   -4.9350    0.6473 N   0  0  0  0  0  0  0  0  0  0  0  0
    5.7548   -1.6382    2.4729 C   0  0  0  0  0  0  0  0  0  0  0  0
    5.2638   -0.3367    2.4782 C   0  0  0  0  0  0  0  0  0  0  0  0
    1.0176    5.1448    2.5276 C   0  0  0  0  0  0  0  0  0  0  0  0
   -0.0956    5.9445    2.5416 C   0  0  0  0  0  0  0  0  0  0  0  0
  1  2  2  0
  2  3  1  0
  3  4  1  0
  4  5  2  0
  5  6  1  0
  6  7  2  0
  7  8  1  0
  8  9  2  0
  9  4  1  0
  3 10  1  0
 10 11  2  0
 11 12  1  0
 12 13  1  0
 13 14  1  0
 14 15  2  0
 15 16  1  0
 12 16  2  0
 15 17  1  0
 17 18  2  0
 18 19  1  0
 19 20  2  0
 20 21  1  0
 21 22  1  0
 22 23  2  0
 23 24  1  0
 24 25  2  0
 25 21  1  0
 25 26  1  0
 20 27  1  0
 27 28  2  0
 28 17  1  0
 11 29  1  0
 29 30  2  0
 30  2  1  0
M  END
$$$$
s_270196____16887988____16485402
     RDKit          3D

 32 36  0  0  0  0  0  0  0  0999 V2000
    0.2728    3.8349    2.5310 Br  0  0  0  0  0  0  0  0  0  0  0  0
    1.9835    2.8781    2.5099 C   0  0  0  0  0  0  0  0  0  0  0  0
    3.1729    3.5995    2.5004 C   0  0  0  0  0  0  0  0  0  0  0  0
    4.3838    2.9149    2.4856 C   0  0  0  0  0  0  0  0  0  0  0  0
    5.5286    3.6308    2.4766 O   0  0  0  0  0  0  0  0  0  0  0  0
    5.4785    5.0499    2.4824 C   0  0  0  0  0  0  0  0  0  0  0  0
    6.8931    5.6069    2.4700 C   0  0  0  0  0  0  0  0  0  0  0  0
    7.5219    5.8639    1.2561 C   0  0  0  0  0  0  0  0  0  0  0  0
    8.8165    6.3727    1.2494 C   0  0  0  0  0  0  0  0  0  0  0  0
    9.4722    6.6221    2.4505 C   0  0  0  0  0  0  0  0  0  0  0  0
    8.8340    6.3621    3.6570 C   0  0  0  0  0  0  0  0  0  0  0  0
    7.5398    5.8526    3.6771 C   0  0  0  0  0  0  0  0  0  0  0  0
    4.4048    1.5235    2.4803 C   0  0  0  0  0  0  0  0  0  0  0  0
    3.2106    0.8098    2.4898 C   0  0  0  0  0  0  0  0  0  0  0  0
    1.9954    1.4870    2.5047 C   0  0  0  0  0  0  0  0  0  0  0  0
    5.6545    0.7878    2.4650 C   0  0  0  0  0  0  0  0  0  0  0  0
    5.7863   -0.5180    2.4590 N   0  0  0  0  0  0  0  0  0  0  0  0
    7.0216   -0.8015    2.4426 O   0  0  0  0  0  0  0  0  0  0  0  0
    7.7253    0.3044    2.4390 C   0  0  0  0  0  0  0  0  0  0  0  0
    6.9034    1.3230    2.4513 N   0  0  0  0  0  0  0  0  0  0  0  0
    9.1714    0.3858    2.4228 C   0  0  0  0  0  0  0  0  0  0  0  0
    9.7981    1.6277    2.4206 C   0  0  0  0  0  0  0  0  0  0  0  0
   11.1879    1.6815    2.4050 C   0  0  0  0  0  0  0  0  0  0  0  0
   11.7627    2.8819    2.4029 F   0  0  0  0  0  0  0  0  0  0  0  0
   11.9502    0.5172    2.3918 C   0  0  0  0  0  0  0  0  0  0  0  0
   13.3212    0.5542    2.3777 N   0  0  0  0  0  0  0  0  0  0  0  0
   14.0686   -0.5945    2.3663 C   0  0  0  0  0  0  0  0  0  0  0  0
   15.2858   -0.5458    2.3545 O   0  0  0  0  0  0  0  0  0  0  0  0
   13.4286   -1.8624    2.3679 C   0  0  0  0  0  0  0  0  0  0  0  0
   12.0591   -1.9080    2.3813 C   0  0  0  0  0  0  0  0  0  0  0  0
   11.2945   -0.7112    2.3931 C   0  0  0  0  0  0  0  0  0  0  0  0
    9.9067   -0.7938    2.4093 C   0  0  0  0  0  0  0  0  0  0  0  0
  1  2  1  0
  2  3  2  0
  3  4  1  0
  4  5  1  0
  5  6  1  0
  6  7  1  0
  7  8  2  0
  8  9  1  0
  9 10  2  0
 10 11  1  0
 11 12  2  0
 12  7  1  0
  4 13  2  0
 13 14  1  0
 14 15  2  0
 15  2  1  0
 13 16  1  0
 16 17  2  0
 17 18  1  0
 18 19  1  0
 19 20  2  0
 20 16  1  0
 19 21  1  0
 21 22  2  0
 22 23  1  0
 23 24  1  0
 23 25  2  0
 25 26  1  0
 26 27  1  0
 27 28  2  0
 27 29  1  0
 29 30  2  0
 30 31  1  0
 31 25  1  0
 31 32  2  0
 32 21  1  0
M  END
$$$$
s_40____4556050____6361044
     RDKit          3D

 34 38  0  0  0  0  0  0  0  0999 V2000
    5.0167   -4.7753    3.5117 Br  0  0  0  0  0  0  0  0  0  0  0  0
    6.7618   -3.9405    3.8295 C   0  0  0  0  0  0  0  0  0  0  0  0
    6.8777   -2.7461    4.5330 C   0  0  0  0  0  0  0  0  0  0  0  0
    5.4338   -1.9856    5.1376 S   0  0  0  0  0  0  0  0  0  0  0  0
    5.7933   -0.9076    6.0220 O   0  0  0  0  0  0  0  0  0  0  0  0
    4.6462   -2.9537    5.8561 O   0  0  0  0  0  0  0  0  0  0  0  0
    4.4961   -1.3506    3.7891 N   0  0  0  0  0  0  0  0  0  0  0  0
    5.3091   -0.3643    3.0634 C   0  0  0  0  0  0  0  0  0  0  0  0
    4.5174    0.3332    1.9714 C   0  0  0  0  0  0  0  0  0  0  0  0
    3.1215    0.3162    1.9776 C   0  0  0  0  0  0  0  0  0  0  0  0
    2.3984    1.0000    1.0000 C   0  0  0  0  0  0  0  0  0  0  0  0
    1.0000    1.0000    1.0000 N   0  0  0  0  0  0  0  0  0  0  0  0
    0.3150    2.1820    1.1028 C   0  0  0  0  0  0  0  0  0  0  0  0
    0.7944    3.1029    1.7045 O   0  0  0  0  0  0  0  0  0  0  0  0
   -0.9173    2.3126    0.5187 N   0  0  0  0  0  0  0  0  0  0  0  0
   -1.4336    3.5862    0.2506 C   0  0  0  0  0  0  0  0  0  0  0  0
   -2.6802    3.9439    0.7541 C   0  0  0  0  0  0  0  0  0  0  0  0
   -3.1897    5.2102    0.4858 C   0  0  0  0  0  0  0  0  0  0  0  0
   -2.4540    6.1076   -0.2806 C   0  0  0  0  0  0  0  0  0  0  0  0
   -1.2085    5.7394   -0.7783 C   0  0  0  0  0  0  0  0  0  0  0  0
   -0.6890    4.4759   -0.5167 C   0  0  0  0  0  0  0  0  0  0  0  0
    3.0780    1.6871    0.0040 C   0  0  0  0  0  0  0  0  0  0  0  0
    4.4683    1.6914   -0.0114 C   0  0  0  0  0  0  0  0  0  0  0  0
    5.1923    1.0175    0.9658 C   0  0  0  0  0  0  0  0  0  0  0  0
    2.3718   -0.4589    3.0477 C   0  0  0  0  0  0  0  0  0  0  0  0
    3.2540   -0.7172    4.2610 C   0  0  0  0  0  0  0  0  0  0  0  0
    8.1363   -2.1878    4.7356 C   0  0  0  0  0  0  0  0  0  0  0  0
    9.2899   -2.7967    4.2504 C   0  0  0  0  0  0  0  0  0  0  0  0
   10.6159   -2.4858    4.3010 N   0  0  0  0  0  0  0  0  0  0  0  0
   11.2865   -3.4703    3.6392 C   0  0  0  0  0  0  0  0  0  0  0  0
   12.4952   -3.5188    3.4840 O   0  0  0  0  0  0  0  0  0  0  0  0
   10.3954   -4.3928    3.1773 N   0  0  0  0  0  0  0  0  0  0  0  0
    9.1538   -3.9763    3.5570 C   0  0  0  0  0  0  0  0  0  0  0  0
    7.9086   -4.5556    3.3403 C   0  0  0  0  0  0  0  0  0  0  0  0
  1  2  1  0
  2  3  2  0
  3  4  1  0
  4  5  2  0
  4  6  2  0
  4  7  1  0
  7  8  1  0
  8  9  1  0
  9 10  2  0
 10 11  1  0
 11 12  1  0
 12 13  1  0
 13 14  2  0
 13 15  1  0
 15 16  1  0
 16 17  2  0
 17 18  1  0
 18 19  2  0
 19 20  1  0
 20 21  2  0
 21 16  1  0
 11 22  2  0
 22 23  1  0
 23 24  2  0
 24  9  1  0
 10 25  1  0
 25 26  1  0
 26  7  1  0
  3 27  1  0
 27 28  2  0
 28 29  1  0
 29 30  1  0
 30 31  2  0
 30 32  1  0
 32 33  1  0
 33 28  1  0
 33 34  2  0
 34  2  1  0
M  END
$$$$
s_40____4556050____6166886
     RDKit          3D

 35 39  0  0  0  0  0  0  0  0999 V2000
   13.0365   -4.7312    2.7074 Cl  0  0  0  0  0  0  0  0  0  0  0  0
   11.5428   -3.9749    3.3131 C   0  0  0  0  0  0  0  0  0  0  0  0
   10.3332   -4.5233    3.1112 N   0  0  0  0  0  0  0  0  0  0  0  0
    9.2040   -3.9570    3.5676 C   0  0  0  0  0  0  0  0  0  0  0  0
    9.2609   -2.7607    4.2775 C   0  0  0  0  0  0  0  0  0  0  0  0
    8.1114   -2.1464    4.7641 C   0  0  0  0  0  0  0  0  0  0  0  0
    6.8776   -2.7460    4.5330 C   0  0  0  0  0  0  0  0  0  0  0  0
    5.4338   -1.9856    5.1376 S   0  0  0  0  0  0  0  0  0  0  0  0
    5.7933   -0.9076    6.0220 O   0  0  0  0  0  0  0  0  0  0  0  0
    4.6462   -2.9537    5.8561 O   0  0  0  0  0  0  0  0  0  0  0  0
    4.4961   -1.3506    3.7891 N   0  0  0  0  0  0  0  0  0  0  0  0
    5.3091   -0.3643    3.0634 C   0  0  0  0  0  0  0  0  0  0  0  0
    4.5174    0.3332    1.9714 C   0  0  0  0  0  0  0  0  0  0  0  0
    3.1215    0.3162    1.9776 C   0  0  0  0  0  0  0  0  0  0  0  0
    2.3984    1.0000    1.0000 C   0  0  0  0  0  0  0  0  0  0  0  0
    1.0000    1.0000    1.0000 N   0  0  0  0  0  0  0  0  0  0  0  0
    0.3150    2.1820    1.1028 C   0  0  0  0  0  0  0  0  0  0  0  0
    0.7944    3.1029    1.7045 O   0  0  0  0  0  0  0  0  0  0  0  0
   -0.9173    2.3126    0.5187 N   0  0  0  0  0  0  0  0  0  0  0  0
   -1.4336    3.5862    0.2506 C   0  0  0  0  0  0  0  0  0  0  0  0
   -2.6802    3.9439    0.7541 C   0  0  0  0  0  0  0  0  0  0  0  0
   -3.1897    5.2102    0.4858 C   0  0  0  0  0  0  0  0  0  0  0  0
   -2.4540    6.1076   -0.2806 C   0  0  0  0  0  0  0  0  0  0  0  0
   -1.2085    5.7394   -0.7783 C   0  0  0  0  0  0  0  0  0  0  0  0
   -0.6890    4.4759   -0.5167 C   0  0  0  0  0  0  0  0  0  0  0  0
    3.0780    1.6871    0.0040 C   0  0  0  0  0  0  0  0  0  0  0  0
    4.4683    1.6914   -0.0114 C   0  0  0  0  0  0  0  0  0  0  0  0
    5.1923    1.0175    0.9658 C   0  0  0  0  0  0  0  0  0  0  0  0
    2.3718   -0.4589    3.0477 C   0  0  0  0  0  0  0  0  0  0  0  0
    3.2540   -0.7172    4.2610 C   0  0  0  0  0  0  0  0  0  0  0  0
    6.8018   -3.9411    3.8250 C   0  0  0  0  0  0  0  0  0  0  0  0
    5.6115   -4.4944    3.6170 F   0  0  0  0  0  0  0  0  0  0  0  0
    7.9613   -4.5413    3.3459 C   0  0  0  0  0  0  0  0  0  0  0  0
   10.5019   -2.1726    4.5001 C   0  0  0  0  0  0  0  0  0  0  0  0
   11.6562   -2.7801    4.0168 C   0  0  0  0  0  0  0  0  0  0  0  0
  1  2  1  0
  2  3  2  0
  3  4  1  0
  4  5  2  0
  5  6  1  0
  6  7  2  0
  7  8  1  0
  8  9  2  0
  8 10  2  0
  8 11  1  0
 11 12  1  0
 12 13  1  0
 13 14  2  0
 14 15  1  0
 15 16  1  0
 16 17  1  0
 17 18  2  0
 17 19  1  0
 19 20  1  0
 20 21  2  0
 21 22  1  0
 22 23  2  0
 23 24  1  0
 24 25  2  0
 25 20  1  0
 15 26  2  0
 26 27  1  0
 27 28  2  0
 28 13  1  0
 14 29  1  0
 29 30  1  0
 30 11  1  0
  7 31  1  0
 31 32  1  0
 31 33  2  0
 33  4  1  0
  5 34  1  0
 34 35  2  0
 35  2  1  0
M  END
$$$$
s_272212____12527328____14936570
     RDKit          3D

 34 38  0  0  0  0  0  0  0  0999 V2000
    0.4463    3.7459    4.8127 O   0  0  0  0  0  0  0  0  0  0  0  0
    0.0682    3.9495    3.6711 C   0  0  0  0  0  0  0  0  0  0  0  0
    0.7615    3.5615    2.5249 N   0  0  0  0  0  0  0  0  0  0  0  0
    1.9869    2.8842    2.5109 C   0  0  0  0  0  0  0  0  0  0  0  0
    3.1774    3.6042    2.4996 C   0  0  0  0  0  0  0  0  0  0  0  0
    4.3870    2.9175    2.4860 C   0  0  0  0  0  0  0  0  0  0  0  0
    4.4032    1.5256    2.4835 C   0  0  0  0  0  0  0  0  0  0  0  0
    3.2070    0.8157    2.4951 C   0  0  0  0  0  0  0  0  0  0  0  0
    1.9918    1.4929    2.5088 C   0  0  0  0  0  0  0  0  0  0  0  0
    5.7085    0.7463    2.4684 C   0  0  0  0  0  0  0  0  0  0  0  0
    5.6161    3.6874    2.4743 C   0  0  0  0  0  0  0  0  0  0  0  0
    5.9257    4.3087    1.4955 O   0  0  0  0  0  0  0  0  0  0  0  0
    6.4710    3.7063    3.6457 C   0  0  0  0  0  0  0  0  0  0  0  0
    7.8532    3.7103    3.4901 C   0  0  0  0  0  0  0  0  0  0  0  0
    8.6695    3.7276    4.6164 C   0  0  0  0  0  0  0  0  0  0  0  0
    8.1023    3.7422    5.8863 C   0  0  0  0  0  0  0  0  0  0  0  0
    6.7203    3.7386    6.0297 C   0  0  0  0  0  0  0  0  0  0  0  0
    5.8933    3.7206    4.9114 C   0  0  0  0  0  0  0  0  0  0  0  0
    0.0476    3.9555    1.3958 C   0  0  0  0  0  0  0  0  0  0  0  0
    0.3855    3.7823    0.2352 O   0  0  0  0  0  0  0  0  0  0  0  0
   -1.2175    4.6447    1.8669 C   0  0  0  0  0  0  0  0  0  0  0  0
   -1.1144    4.6048    3.3281 N   0  0  0  0  0  0  0  0  0  0  0  0
   -2.4458    3.8412    1.4706 C   0  0  0  0  0  0  0  0  0  0  0  0
   -3.2654    4.3051    0.4465 C   0  0  0  0  0  0  0  0  0  0  0  0
   -4.3896    3.5735    0.0789 C   0  0  0  0  0  0  0  0  0  0  0  0
   -4.6793    2.3848    0.7409 C   0  0  0  0  0  0  0  0  0  0  0  0
   -5.8497    1.6172    0.3612 C   0  0  0  0  0  0  0  0  0  0  0  0
   -6.1391    0.4287    1.0234 C   0  0  0  0  0  0  0  0  0  0  0  0
   -7.2623   -0.3049    0.6554 C   0  0  0  0  0  0  0  0  0  0  0  0
   -8.0872    0.1522   -0.3670 C   0  0  0  0  0  0  0  0  0  0  0  0
   -7.7886    1.3411   -1.0212 C   0  0  0  0  0  0  0  0  0  0  0  0
   -6.6681    2.0834   -0.6629 C   0  0  0  0  0  0  0  0  0  0  0  0
   -3.8613    1.9207    1.7654 C   0  0  0  0  0  0  0  0  0  0  0  0
   -2.7377    2.6532    2.1339 C   0  0  0  0  0  0  0  0  0  0  0  0
  1  2  2  0
  2  3  1  0
  3  4  1  0
  4  5  2  0
  5  6  1  0
  6  7  2  0
  7  8  1  0
  8  9  2  0
  9  4  1  0
  7 10  1  0
  6 11  1  0
 11 12  2  0
 11 13  1  0
 13 14  2  0
 14 15  1  0
 15 16  2  0
 16 17  1  0
 17 18  2  0
 18 13  1  0
  3 19  1  0
 19 20  2  0
 19 21  1  0
 21 22  1  0
 22  2  1  0
 21 23  1  0
 23 24  2  0
 24 25  1  0
 25 26  2  0
 26 27  1  0
 27 28  2  0
 28 29  1  0
 29 30  2  0
 30 31  1  0
 31 32  2  0
 32 27  1  0
 26 33  1  0
 33 34  2  0
 34 23  1  0
M  END
$$$$
s_270196____8771308____10224814
     RDKit          3D

 31 35  0  0  0  0  0  0  0  0999 V2000
    6.1905   -2.5854    4.1789 F   0  0  0  0  0  0  0  0  0  0  0  0
    5.6800   -3.7771    3.8799 C   0  0  0  0  0  0  0  0  0  0  0  0
    4.4767   -3.8644    3.1872 C   0  0  0  0  0  0  0  0  0  0  0  0
    3.9436   -5.1106    2.8740 C   0  0  0  0  0  0  0  0  0  0  0  0
    4.6099   -6.2713    3.2525 C   0  0  0  0  0  0  0  0  0  0  0  0
    5.8120   -6.1703    3.9457 C   0  0  0  0  0  0  0  0  0  0  0  0
    6.5075   -7.3788    4.3408 C   0  0  0  0  0  0  0  0  0  0  0  0
    5.9797   -8.6283    4.0312 C   0  0  0  0  0  0  0  0  0  0  0  0
    6.6412   -9.7327    4.4080 N   0  0  0  0  0  0  0  0  0  0  0  0
    7.8011   -9.6590    5.0771 C   0  0  0  0  0  0  0  0  0  0  0  0
    8.3234   -8.4623    5.3840 N   0  0  0  0  0  0  0  0  0  0  0  0
    7.7107   -7.3210    5.0355 C   0  0  0  0  0  0  0  0  0  0  0  0
    6.3562   -4.9304    4.2647 C   0  0  0  0  0  0  0  0  0  0  0  0
    3.7786   -2.6565    2.7907 C   0  0  0  0  0  0  0  0  0  0  0  0
    2.6430   -2.6090    2.1375 O   0  0  0  0  0  0  0  0  0  0  0  0
    2.3106   -1.4000    1.9525 N   0  0  0  0  0  0  0  0  0  0  0  0
    3.2280   -0.6256    2.4827 C   0  0  0  0  0  0  0  0  0  0  0  0
    4.1781   -1.4322    3.0242 N   0  0  0  0  0  0  0  0  0  0  0  0
    3.2284    0.8247    2.4868 C   0  0  0  0  0  0  0  0  0  0  0  0
    4.3631    1.5445    2.4874 N   0  0  0  0  0  0  0  0  0  0  0  0
    4.3576    2.8853    2.4941 C   0  0  0  0  0  0  0  0  0  0  0  0
    3.1504    3.5764    2.5007 C   0  0  0  0  0  0  0  0  0  0  0  0
    3.1541    4.9309    2.5094 O   0  0  0  0  0  0  0  0  0  0  0  0
    4.3252    5.6027    2.5118 C   0  0  0  0  0  0  0  0  0  0  0  0
    4.9252    5.9380    3.7210 C   0  0  0  0  0  0  0  0  0  0  0  0
    6.1319    6.6314    3.7175 C   0  0  0  0  0  0  0  0  0  0  0  0
    6.7294    6.9830    2.5112 C   0  0  0  0  0  0  0  0  0  0  0  0
    6.1232    6.6454    1.3057 C   0  0  0  0  0  0  0  0  0  0  0  0
    4.9168    5.9524    1.3021 C   0  0  0  0  0  0  0  0  0  0  0  0
    2.0157    2.8568    2.4979 N   0  0  0  0  0  0  0  0  0  0  0  0
    2.0210    1.5156    2.4922 C   0  0  0  0  0  0  0  0  0  0  0  0
  1  2  1  0
  2  3  2  0
  3  4  1  0
  4  5  2  0
  5  6  1  0
  6  7  1  0
  7  8  2  0
  8  9  1  0
  9 10  2  0
 10 11  1  0
 11 12  2  0
 12  7  1  0
  6 13  2  0
 13  2  1  0
  3 14  1  0
 14 15  1  0
 15 16  1  0
 16 17  2  0
 17 18  1  0
 14 18  2  0
 17 19  1  0
 19 20  2  0
 20 21  1  0
 21 22  2  0
 22 23  1  0
 23 24  1  0
 24 25  2  0
 25 26  1  0
 26 27  2  0
 27 28  1  0
 28 29  2  0
 29 24  1  0
 22 30  1  0
 30 31  2  0
 31 19  1  0
M  END
$$$$
s_708____1107374____4971534
     RDKit          3D

 32 36  0  0  0  0  0  0  0  0999 V2000
    0.5725   10.9490    4.3574 Cl  0  0  0  0  0  0  0  0  0  0  0  0
    2.0944   11.8704    4.2898 C   0  0  0  0  0  0  0  0  0  0  0  0
    3.2200   11.3115    3.6933 C   0  0  0  0  0  0  0  0  0  0  0  0
    4.4085   12.0323    3.6395 C   0  0  0  0  0  0  0  0  0  0  0  0
    4.4719   13.3105    4.1839 C   0  0  0  0  0  0  0  0  0  0  0  0
    3.3462   13.8688    4.7810 C   0  0  0  0  0  0  0  0  0  0  0  0
    2.1579   13.1487    4.8335 C   0  0  0  0  0  0  0  0  0  0  0  0
    3.1541    9.9789    3.1257 C   0  0  0  0  0  0  0  0  0  0  0  0
    3.1942    9.6918    1.4503 S   0  0  0  0  0  0  0  0  0  0  0  0
    3.0792    7.9996    1.5777 C   0  0  0  0  0  0  0  0  0  0  0  0
    3.0653    7.1185    0.4748 C   0  0  0  0  0  0  0  0  0  0  0  0
    3.1338    7.4950   -0.6844 O   0  0  0  0  0  0  0  0  0  0  0  0
    2.9652    5.8063    0.8089 N   0  0  0  0  0  0  0  0  0  0  0  0
    2.8891    5.4487    2.1299 C   0  0  0  0  0  0  0  0  0  0  0  0
    2.9094    6.3337    3.1126 N   0  0  0  0  0  0  0  0  0  0  0  0
    3.0095    7.6813    2.9008 C   0  0  0  0  0  0  0  0  0  0  0  0
    3.0539    8.7937    3.7940 C   0  0  0  0  0  0  0  0  0  0  0  0
    2.7797    4.0334    2.4079 C   0  0  0  0  0  0  0  0  0  0  0  0
    1.9748    3.2373    1.6000 C   0  0  0  0  0  0  0  0  0  0  0  0
    1.8778    1.8778    1.8778 C   0  0  0  0  0  0  0  0  0  0  0  0
    2.5709    1.3128    2.9434 C   0  0  0  0  0  0  0  0  0  0  0  0
    3.3699    2.1290    3.7370 C   0  0  0  0  0  0  0  0  0  0  0  0
    3.4820    3.4912    3.4791 C   0  0  0  0  0  0  0  0  0  0  0  0
    1.0000    1.0000    1.0000 C   0  0  0  0  0  0  0  0  0  0  0  0
    1.7699    0.4879   -0.0777 O   0  0  0  0  0  0  0  0  0  0  0  0
    1.1957   -0.3226   -0.9924 C   0  0  0  0  0  0  0  0  0  0  0  0
   -0.1515   -0.6440   -0.8613 C   0  0  0  0  0  0  0  0  0  0  0  0
   -0.7410   -1.4789   -1.8048 C   0  0  0  0  0  0  0  0  0  0  0  0
   -2.0284   -1.7938   -1.6903 F   0  0  0  0  0  0  0  0  0  0  0  0
   -0.0037   -1.9896   -2.8674 C   0  0  0  0  0  0  0  0  0  0  0  0
    1.3417   -1.6561   -2.9807 C   0  0  0  0  0  0  0  0  0  0  0  0
    1.9503   -0.8230   -2.0480 C   0  0  0  0  0  0  0  0  0  0  0  0
  1  2  1  0
  2  3  2  0
  3  4  1  0
  4  5  2  0
  5  6  1  0
  6  7  2  0
  7  2  1  0
  3  8  1  0
  8  9  1  0
  9 10  1  0
 10 11  1  0
 11 12  2  0
 11 13  1  0
 13 14  1  0
 14 15  2  0
 15 16  1  0
 10 16  2  0
 16 17  1  0
  8 17  2  0
 14 18  1  0
 18 19  2  0
 19 20  1  0
 20 21  2  0
 21 22  1  0
 22 23  2  0
 23 18  1  0
 20 24  1  0
 24 25  1  0
 25 26  1  0
 26 27  2  0
 27 28  1  0
 28 29  1  0
 28 30  2  0
 30 31  1  0
 31 32  2  0
 32 26  1  0
M  END
$$$$
s_232682____3004976____14417988
     RDKit          3D

 35 39  0  0  0  0  0  0  0  0999 V2000
   10.3541    1.8320   -1.0236 Cl  0  0  0  0  0  0  0  0  0  0  0  0
    8.8984    0.8245   -1.2069 C   0  0  0  0  0  0  0  0  0  0  0  0
    8.6044    0.1971   -2.3557 N   0  0  0  0  0  0  0  0  0  0  0  0
    7.5027   -0.5585   -2.4800 C   0  0  0  0  0  0  0  0  0  0  0  0
    6.6226   -0.7177   -1.4151 C   0  0  0  0  0  0  0  0  0  0  0  0
    6.8994   -0.0805   -0.2094 C   0  0  0  0  0  0  0  0  0  0  0  0
    6.0347   -0.2246    0.8731 C   0  0  0  0  0  0  0  0  0  0  0  0
    6.3218    0.5459    2.4077 S   0  0  0  0  0  0  0  0  0  0  0  0
    7.7396    0.6893    2.6151 O   0  0  0  0  0  0  0  0  0  0  0  0
    5.7616   -0.2598    3.4616 O   0  0  0  0  0  0  0  0  0  0  0  0
    5.6199    2.0170    2.4168 N   0  0  0  0  0  0  0  0  0  0  0  0
    4.2262    2.1265    2.4440 C   0  0  0  0  0  0  0  0  0  0  0  0
    3.3287    3.5724    2.4687 S   0  0  0  0  0  0  0  0  0  0  0  0
    1.7793    2.8660    2.4982 C   0  0  0  0  0  0  0  0  0  0  0  0
    2.0377    1.5325    2.4911 C   0  0  0  0  0  0  0  0  0  0  0  0
    3.3528    1.1511    2.4644 N   0  0  0  0  0  0  0  0  0  0  0  0
    0.9124    0.6182    2.5170 C   0  0  0  0  0  0  0  0  0  0  0  0
   -0.3789    1.1337    2.5429 C   0  0  0  0  0  0  0  0  0  0  0  0
   -1.4650    0.2647    2.5690 C   0  0  0  0  0  0  0  0  0  0  0  0
   -1.2459   -1.1089    2.5680 C   0  0  0  0  0  0  0  0  0  0  0  0
   -2.2936   -1.9599    2.5917 O   0  0  0  0  0  0  0  0  0  0  0  0
   -2.0694   -3.3621    2.5907 C   0  0  0  0  0  0  0  0  0  0  0  0
   -3.4045   -4.0888    2.6199 C   0  0  0  0  0  0  0  0  0  0  0  0
   -4.0343   -4.4212    1.4250 C   0  0  0  0  0  0  0  0  0  0  0  0
   -5.2562   -5.0853    1.4562 C   0  0  0  0  0  0  0  0  0  0  0  0
   -5.8387   -5.4133    2.6760 C   0  0  0  0  0  0  0  0  0  0  0  0
   -5.2002   -5.0766    3.8633 C   0  0  0  0  0  0  0  0  0  0  0  0
   -3.9783   -4.4119    3.8454 C   0  0  0  0  0  0  0  0  0  0  0  0
    0.0460   -1.6240    2.5423 C   0  0  0  0  0  0  0  0  0  0  0  0
    1.1321   -0.7554    2.5166 C   0  0  0  0  0  0  0  0  0  0  0  0
    4.8941   -1.0089    0.7404 C   0  0  0  0  0  0  0  0  0  0  0  0
    4.0674   -1.1467    1.7736 F   0  0  0  0  0  0  0  0  0  0  0  0
    4.6151   -1.6468   -0.4631 C   0  0  0  0  0  0  0  0  0  0  0  0
    5.4803   -1.5010   -1.5416 C   0  0  0  0  0  0  0  0  0  0  0  0
    8.0501    0.6960   -0.1141 C   0  0  0  0  0  0  0  0  0  0  0  0
  1  2  1  0
  2  3  2  0
  3  4  1  0
  4  5  2  0
  5  6  1  0
  6  7  1  0
  7  8  1  0
  8  9  2  0
  8 10  2  0
  8 11  1  0
 11 12  1  0
 12 13  1  0
 13 14  1  0
 14 15  2  0
 15 16  1  0
 12 16  2  0
 15 17  1  0
 17 18  2  0
 18 19  1  0
 19 20  2  0
 20 21  1  0
 21 22  1  0
 22 23  1  0
 23 24  2  0
 24 25  1  0
 25 26  2  0
 26 27  1  0
 27 28  2  0
 28 23  1  0
 20 29  1  0
 29 30  2  0
 30 17  1  0
  7 31  2  0
 31 32  1  0
 31 33  1  0
 33 34  2  0
 34  5  1  0
  6 35  2  0
 35  2  1  0
M  END
$$$$
s_708____5532596____16887946
     RDKit          3D

 32 36  0  0  0  0  0  0  0  0999 V2000
    4.3215    7.0050    2.5064 F   0  0  0  0  0  0  0  0  0  0  0  0
    4.3185    5.6753    2.4998 C   0  0  0  0  0  0  0  0  0  0  0  0
    5.5404    5.0157    2.4862 C   0  0  0  0  0  0  0  0  0  0  0  0
    6.7065    5.6918    2.4783 O   0  0  0  0  0  0  0  0  0  0  0  0
    7.8768    5.0190    2.4649 C   0  0  0  0  0  0  0  0  0  0  0  0
    8.4830    4.6718    3.6678 C   0  0  0  0  0  0  0  0  0  0  0  0
    9.6888    3.9776    3.6574 C   0  0  0  0  0  0  0  0  0  0  0  0
   10.2725    3.6396    2.4407 C   0  0  0  0  0  0  0  0  0  0  0  0
   11.4253    2.9760    2.4253 F   0  0  0  0  0  0  0  0  0  0  0  0
    9.6714    3.9837    1.2344 C   0  0  0  0  0  0  0  0  0  0  0  0
    8.4660    4.6780    1.2518 C   0  0  0  0  0  0  0  0  0  0  0  0
    5.5582    3.6276    2.4803 C   0  0  0  0  0  0  0  0  0  0  0  0
    4.3754    2.8953    2.4872 C   0  0  0  0  0  0  0  0  0  0  0  0
    3.1515    3.5537    2.4994 C   0  0  0  0  0  0  0  0  0  0  0  0
    1.9856    2.8332    2.5055 N   0  0  0  0  0  0  0  0  0  0  0  0
    1.9950    1.5120    2.4994 C   0  0  0  0  0  0  0  0  0  0  0  0
    3.1744    0.8148    2.4866 N   0  0  0  0  0  0  0  0  0  0  0  0
    4.3746    1.4730    2.4804 C   0  0  0  0  0  0  0  0  0  0  0  0
    5.4001    0.8098    2.4689 O   0  0  0  0  0  0  0  0  0  0  0  0
    0.7579    0.7547    2.5057 C   0  0  0  0  0  0  0  0  0  0  0  0
    0.7705   -0.5867    2.4992 N   0  0  0  0  0  0  0  0  0  0  0  0
   -0.3637   -1.3009    2.5059 C   0  0  0  0  0  0  0  0  0  0  0  0
   -1.5979   -0.6598    2.5192 C   0  0  0  0  0  0  0  0  0  0  0  0
   -2.8385   -1.4108    2.5241 C   0  0  0  0  0  0  0  0  0  0  0  0
   -4.0537   -0.7340    2.5375 C   0  0  0  0  0  0  0  0  0  0  0  0
   -5.2414   -1.4583    2.5430 C   0  0  0  0  0  0  0  0  0  0  0  0
   -5.2081   -2.8488    2.5339 C   0  0  0  0  0  0  0  0  0  0  0  0
   -3.9884   -3.5142    2.5200 C   0  0  0  0  0  0  0  0  0  0  0  0
   -2.7939   -2.8014    2.5150 C   0  0  0  0  0  0  0  0  0  0  0  0
   -1.5859    0.7310    2.5254 C   0  0  0  0  0  0  0  0  0  0  0  0
   -0.4209    1.3953    2.5194 N   0  0  0  0  0  0  0  0  0  0  0  0
    3.1343    4.9446    2.5055 C   0  0  0  0  0  0  0  0  0  0  0  0
  1  2  1  0
  2  3  2  0
  3  4  1  0
  4  5  1  0
  5  6  2  0
  6  7  1  0
  7  8  2  0
  8  9  1  0
  8 10  1  0
 10 11  2  0
 11  5  1  0
  3 12  1  0
 12 13  2  0
 13 14  1  0
 14 15  1  0
 15 16  2  0
 16 17  1  0
 17 18  1  0
 18 13  1  0
 18 19  2  0
 16 20  1  0
 20 21  2  0
 21 22  1  0
 22 23  2  0
 23 24  1  0
 24 25  2  0
 25 26  1  0
 26 27  2  0
 27 28  1  0
 28 29  2  0
 29 24  1  0
 23 30  1  0
 30 31  2  0
 31 20  1  0
 14 32  2  0
 32  2  1  0
M  END
$$$$
s_270196____10638500____8776126
     RDKit          3D

 36 40  0  0  0  0  0  0  0  0999 V2000
   -5.5773    6.2427    3.6403 Br  0  0  0  0  0  0  0  0  0  0  0  0
   -3.8493    5.3181    3.6177 C   0  0  0  0  0  0  0  0  0  0  0  0
   -3.3276    4.8026    4.8000 C   0  0  0  0  0  0  0  0  0  0  0  0
   -2.1005    4.1480    4.7803 C   0  0  0  0  0  0  0  0  0  0  0  0
   -1.4100    4.0164    3.5796 C   0  0  0  0  0  0  0  0  0  0  0  0
   -1.9355    4.5332    2.4005 C   0  0  0  0  0  0  0  0  0  0  0  0
   -3.1624    5.1894    2.4144 C   0  0  0  0  0  0  0  0  0  0  0  0
   -0.1311    3.3339    3.5633 C   0  0  0  0  0  0  0  0  0  0  0  0
    0.1629    2.5890    4.4570 O   0  0  0  0  0  0  0  0  0  0  0  0
    0.7417    3.5392    2.5275 N   0  0  0  0  0  0  0  0  0  0  0  0
    1.9769    2.8800    2.5117 C   0  0  0  0  0  0  0  0  0  0  0  0
    3.1722    3.5930    2.5023 C   0  0  0  0  0  0  0  0  0  0  0  0
    4.3872    2.9146    2.4871 C   0  0  0  0  0  0  0  0  0  0  0  0
    4.4074    1.5237    2.4807 C   0  0  0  0  0  0  0  0  0  0  0  0
    3.2062    0.8215    2.4897 C   0  0  0  0  0  0  0  0  0  0  0  0
    1.9856    1.4890    2.5053 C   0  0  0  0  0  0  0  0  0  0  0  0
    3.2280   -0.6287    2.4827 C   0  0  0  0  0  0  0  0  0  0  0  0
    4.3041   -1.3773    2.4683 O   0  0  0  0  0  0  0  0  0  0  0  0
    3.9699   -2.6000    2.4670 N   0  0  0  0  0  0  0  0  0  0  0  0
    2.6599   -2.6780    2.4792 C   0  0  0  0  0  0  0  0  0  0  0  0
    2.1766   -1.4082    2.4886 N   0  0  0  0  0  0  0  0  0  0  0  0
    1.8736   -3.8963    2.4796 C   0  0  0  0  0  0  0  0  0  0  0  0
    2.5132   -5.1220    2.6242 C   0  0  0  0  0  0  0  0  0  0  0  0
    1.7442   -6.2803    2.6233 C   0  0  0  0  0  0  0  0  0  0  0  0
    2.3723   -7.5235    2.7664 N   0  0  0  0  0  0  0  0  0  0  0  0
    3.1696   -7.7034    3.6722 O   0  0  0  0  0  0  0  0  0  0  0  0
    2.1245   -8.4194    1.9918 O   0  0  0  0  0  0  0  0  0  0  0  0
    0.3620   -6.2109    2.4812 C   0  0  0  0  0  0  0  0  0  0  0  0
   -0.3908   -7.3881    2.4834 N   0  0  0  0  0  0  0  0  0  0  0  0
   -0.4553   -8.2668    3.4620 N   0  0  0  0  0  0  0  0  0  0  0  0
   -1.2590   -9.2452    3.1123 C   0  0  0  0  0  0  0  0  0  0  0  0
   -1.7075   -8.9667    1.8519 N   0  0  0  0  0  0  0  0  0  0  0  0
   -1.1802   -7.8242    1.4577 C   0  0  0  0  0  0  0  0  0  0  0  0
   -0.2726   -4.9816    2.3366 C   0  0  0  0  0  0  0  0  0  0  0  0
    0.4921   -3.8196    2.3365 C   0  0  0  0  0  0  0  0  0  0  0  0
    3.1505    5.1125    2.5107 C   0  0  0  0  0  0  0  0  0  0  0  0
  1  2  1  0
  2  3  2  0
  3  4  1  0
  4  5  2  0
  5  6  1  0
  6  7  2  0
  7  2  1  0
  5  8  1  0
  8  9  2  0
  8 10  1  0
 10 11  1  0
 11 12  2  0
 12 13  1  0
 13 14  2  0
 14 15  1  0
 15 16  2  0
 16 11  1  0
 15 17  1  0
 17 18  1  0
 18 19  1  0
 19 20  2  0
 20 21  1  0
 17 21  2  0
 20 22  1  0
 22 23  2  0
 23 24  1  0
 24 25  1  0
 25 26  1  0
 25 27  2  0
 24 28  2  0
 28 29  1  0
 29 30  1  0
 30 31  2  0
 31 32  1  0
 32 33  2  0
 33 29  1  0
 28 34  1  0
 34 35  2  0
 35 22  1  0
 12 36  1  0
M  CHG  2  25   1  26  -1
M  END
$$$$
s_1____86438____16529706____4065724
     RDKit          3D

 38 42  0  0  0  0  0  0  0  0999 V2000
    3.2928   -0.3460    0.7918 S   0  0  0  0  0  0  0  0  0  0  0  0
    2.2690    1.0000    1.0000 C   0  0  0  0  0  0  0  0  0  0  0  0
    1.0000    1.0000    1.0000 N   0  0  0  0  0  0  0  0  0  0  0  0
    0.2650    2.2581    1.1946 C   0  0  0  0  0  0  0  0  0  0  0  0
   -1.0631    2.1880    0.4587 C   0  0  0  0  0  0  0  0  0  0  0  0
   -0.8265    1.9876   -0.9270 O   0  0  0  0  0  0  0  0  0  0  0  0
   -0.7144    3.2462   -1.5749 C   0  0  0  0  0  0  0  0  0  0  0  0
    3.0944    2.0680    1.1686 N   0  0  0  0  0  0  0  0  0  0  0  0
    2.5988    3.3085    1.3590 N   0  0  0  0  0  0  0  0  0  0  0  0
    2.8761    4.2229    0.5531 C   0  0  0  0  0  0  0  0  0  0  0  0
    2.3434    5.5563    0.7578 C   0  0  0  0  0  0  0  0  0  0  0  0
    2.6617    6.5624   -0.1483 C   0  0  0  0  0  0  0  0  0  0  0  0
    2.1466    7.8386    0.0548 C   0  0  0  0  0  0  0  0  0  0  0  0
    2.4721    8.8965   -0.8809 C   0  0  0  0  0  0  0  0  0  0  0  0
    2.5380   10.2189   -0.4537 C   0  0  0  0  0  0  0  0  0  0  0  0
    2.8405   11.1808   -1.3382 N   0  0  0  0  0  0  0  0  0  0  0  0
    3.0810   10.8958   -2.6264 C   0  0  0  0  0  0  0  0  0  0  0  0
    3.0211    9.6261   -3.0548 N   0  0  0  0  0  0  0  0  0  0  0  0
    2.7239    8.6190   -2.2201 C   0  0  0  0  0  0  0  0  0  0  0  0
    1.3254    8.1166    1.1423 C   0  0  0  0  0  0  0  0  0  0  0  0
    1.0206    7.0944    2.0346 C   0  0  0  0  0  0  0  0  0  0  0  0
    1.5236    5.8105    1.8524 C   0  0  0  0  0  0  0  0  0  0  0  0
    4.4314    1.7629    1.1289 C   0  0  0  0  0  0  0  0  0  0  0  0
    5.4991    2.7319    1.2834 C   0  0  0  0  0  0  0  0  0  0  0  0
    6.5309    2.7573    0.3515 C   0  0  0  0  0  0  0  0  0  0  0  0
    7.5605    3.6824    0.4916 C   0  0  0  0  0  0  0  0  0  0  0  0
    7.5447    4.5710    1.5617 C   0  0  0  0  0  0  0  0  0  0  0  0
    8.5385    5.4732    1.7052 O   0  0  0  0  0  0  0  0  0  0  0  0
    8.5222    6.3802    2.7977 C   0  0  0  0  0  0  0  0  0  0  0  0
    9.7446    7.2814    2.7264 C   0  0  0  0  0  0  0  0  0  0  0  0
    9.6757    8.4819    2.0272 C   0  0  0  0  0  0  0  0  0  0  0  0
   10.7968    9.3031    1.9638 C   0  0  0  0  0  0  0  0  0  0  0  0
   11.9748    8.9222    2.5978 C   0  0  0  0  0  0  0  0  0  0  0  0
   12.0318    7.7210    3.2938 C   0  0  0  0  0  0  0  0  0  0  0  0
   10.9179    6.8908    3.3640 C   0  0  0  0  0  0  0  0  0  0  0  0
    6.5124    4.5449    2.4938 C   0  0  0  0  0  0  0  0  0  0  0  0
    5.4831    3.6198    2.3541 C   0  0  0  0  0  0  0  0  0  0  0  0
    4.7831    0.4641    0.9311 C   0  0  0  0  0  0  0  0  0  0  0  0
  1  2  1  0
  2  3  2  0
  3  4  1  0
  4  5  1  0
  5  6  1  0
  6  7  1  0
  2  8  1  0
  8  9  1  0
  9 10  2  0
 10 11  1  0
 11 12  2  0
 12 13  1  0
 13 14  1  0
 14 15  2  0
 15 16  1  0
 16 17  2  0
 17 18  1  0
 18 19  2  0
 19 14  1  0
 13 20  2  0
 20 21  1  0
 21 22  2  0
 22 11  1  0
  8 23  1  0
 23 24  1  0
 24 25  2  0
 25 26  1  0
 26 27  2  0
 27 28  1  0
 28 29  1  0
 29 30  1  0
 30 31  2  0
 31 32  1  0
 32 33  2  0
 33 34  1  0
 34 35  2  0
 35 30  1  0
 27 36  1  0
 36 37  2  0
 37 24  1  0
 23 38  2  0
 38  1  1  0
M  END
$$$$
s_270196____8769662____10858100
     RDKit          3D

 34 38  0  0  0  0  0  0  0  0999 V2000
    9.3758   -4.8342   -4.3780 F   0  0  0  0  0  0  0  0  0  0  0  0
    9.2717   -3.6983   -3.6926 C   0  0  0  0  0  0  0  0  0  0  0  0
   10.3613   -2.8376   -3.6025 C   0  0  0  0  0  0  0  0  0  0  0  0
   11.6183   -3.1589   -4.2517 C   0  0  0  0  0  0  0  0  0  0  0  0
   12.8050   -3.0881   -3.5312 C   0  0  0  0  0  0  0  0  0  0  0  0
   13.9954   -3.4019   -4.1782 C   0  0  0  0  0  0  0  0  0  0  0  0
   13.9986   -3.7657   -5.4695 N   0  0  0  0  0  0  0  0  0  0  0  0
   12.8635   -3.8396   -6.1801 C   0  0  0  0  0  0  0  0  0  0  0  0
   11.6408   -3.5376   -5.5893 C   0  0  0  0  0  0  0  0  0  0  0  0
   10.2530   -1.6504   -2.8857 C   0  0  0  0  0  0  0  0  0  0  0  0
    9.0555   -1.3234   -2.2581 C   0  0  0  0  0  0  0  0  0  0  0  0
    7.9707   -2.1890   -2.3530 C   0  0  0  0  0  0  0  0  0  0  0  0
    8.0705   -3.3779   -3.0677 C   0  0  0  0  0  0  0  0  0  0  0  0
    6.7179   -1.8565   -1.7015 C   0  0  0  0  0  0  0  0  0  0  0  0
    5.6300   -2.5877   -1.7174 O   0  0  0  0  0  0  0  0  0  0  0  0
    4.7205   -2.0089   -1.0509 N   0  0  0  0  0  0  0  0  0  0  0  0
    5.1963   -0.8788   -0.5829 C   0  0  0  0  0  0  0  0  0  0  0  0
    6.4850   -0.7757   -1.0010 N   0  0  0  0  0  0  0  0  0  0  0  0
    4.4770    0.0837    0.2287 C   0  0  0  0  0  0  0  0  0  0  0  0
    3.0860    0.0738    0.2211 C   0  0  0  0  0  0  0  0  0  0  0  0
    2.4004    1.0000    1.0000 C   0  0  0  0  0  0  0  0  0  0  0  0
    1.0000    1.0000    1.0000 N   0  0  0  0  0  0  0  0  0  0  0  0
    0.3150   -0.1865    0.9987 C   0  0  0  0  0  0  0  0  0  0  0  0
    0.8607   -1.1947    1.3531 O   0  0  0  0  0  0  0  0  0  0  0  0
   -0.9930   -0.2218    0.5929 N   0  0  0  0  0  0  0  0  0  0  0  0
   -1.5684   -1.4329    0.1894 C   0  0  0  0  0  0  0  0  0  0  0  0
   -0.8269   -2.3257   -0.5778 C   0  0  0  0  0  0  0  0  0  0  0  0
   -1.4018   -3.5279   -0.9766 C   0  0  0  0  0  0  0  0  0  0  0  0
   -2.7085   -3.8297   -0.6083 C   0  0  0  0  0  0  0  0  0  0  0  0
   -3.4402   -2.9298    0.1593 C   0  0  0  0  0  0  0  0  0  0  0  0
   -2.8759   -1.7246    0.5638 C   0  0  0  0  0  0  0  0  0  0  0  0
    3.0836    1.9273    1.7795 C   0  0  0  0  0  0  0  0  0  0  0  0
    4.4744    1.9187    1.7721 C   0  0  0  0  0  0  0  0  0  0  0  0
    5.1807    1.0015    1.0010 C   0  0  0  0  0  0  0  0  0  0  0  0
  1  2  1  0
  2  3  2  0
  3  4  1  0
  4  5  2  0
  5  6  1  0
  6  7  2  0
  7  8  1  0
  8  9  2  0
  9  4  1  0
  3 10  1  0
 10 11  2  0
 11 12  1  0
 12 13  2  0
 13  2  1  0
 12 14  1  0
 14 15  1  0
 15 16  1  0
 16 17  2  0
 17 18  1  0
 14 18  2  0
 17 19  1  0
 19 20  2  0
 20 21  1  0
 21 22  1  0
 22 23  1  0
 23 24  2  0
 23 25  1  0
 25 26  1  0
 26 27  2  0
 27 28  1  0
 28 29  2  0
 29 30  1  0
 30 31  2  0
 31 26  1  0
 21 32  2  0
 32 33  1  0
 33 34  2  0
 34 19  1  0
M  END
$$$$
s_270196____8769514____8776130
     RDKit          3D

 33 37  0  0  0  0  0  0  0  0999 V2000
   -2.0474   -4.8481    2.5169 Cl  0  0  0  0  0  0  0  0  0  0  0  0
   -0.2733   -4.9953    2.5062 C   0  0  0  0  0  0  0  0  0  0  0  0
    0.3681   -6.2310    2.5113 C   0  0  0  0  0  0  0  0  0  0  0  0
   -0.4041   -7.3433    2.5220 O   0  0  0  0  0  0  0  0  0  0  0  0
   -0.0307   -8.5391    1.8501 C   0  0  0  0  0  0  0  0  0  0  0  0
    0.9346   -9.3564    2.6959 C   0  0  0  0  0  0  0  0  0  0  0  0
    1.9704   -8.4793    3.3833 C   0  0  0  0  0  0  0  0  0  0  0  0
    2.4546   -7.4435    2.5372 O   0  0  0  0  0  0  0  0  0  0  0  0
    1.7622   -6.2861    2.5047 C   0  0  0  0  0  0  0  0  0  0  0  0
    2.5230   -5.1248    2.4744 C   0  0  0  0  0  0  0  0  0  0  0  0
    1.8735   -3.8964    2.4796 C   0  0  0  0  0  0  0  0  0  0  0  0
    0.4841   -3.8284    2.4935 C   0  0  0  0  0  0  0  0  0  0  0  0
    2.6599   -2.6781    2.4792 C   0  0  0  0  0  0  0  0  0  0  0  0
    3.9699   -2.6000    2.4670 N   0  0  0  0  0  0  0  0  0  0  0  0
    4.3041   -1.3773    2.4683 O   0  0  0  0  0  0  0  0  0  0  0  0
    3.2280   -0.6288    2.4827 C   0  0  0  0  0  0  0  0  0  0  0  0
    2.1766   -1.4082    2.4886 N   0  0  0  0  0  0  0  0  0  0  0  0
    3.2062    0.8215    2.4897 C   0  0  0  0  0  0  0  0  0  0  0  0
    1.9856    1.4890    2.5053 C   0  0  0  0  0  0  0  0  0  0  0  0
    1.9769    2.8800    2.5117 C   0  0  0  0  0  0  0  0  0  0  0  0
    0.7417    3.5392    2.5275 N   0  0  0  0  0  0  0  0  0  0  0  0
   -0.2488    3.1179    3.3750 C   0  0  0  0  0  0  0  0  0  0  0  0
    0.0255    2.4498    4.3333 O   0  0  0  0  0  0  0  0  0  0  0  0
   -1.6288    3.4794    3.1140 C   0  0  0  0  0  0  0  0  0  0  0  0
   -2.6559    2.7416    3.6935 C   0  0  0  0  0  0  0  0  0  0  0  0
   -3.9782    3.0913    3.4398 C   0  0  0  0  0  0  0  0  0  0  0  0
   -4.2654    4.1725    2.6131 C   0  0  0  0  0  0  0  0  0  0  0  0
   -3.2314    4.9025    2.0402 C   0  0  0  0  0  0  0  0  0  0  0  0
   -1.9050    4.5625    2.2856 C   0  0  0  0  0  0  0  0  0  0  0  0
    3.1722    3.5930    2.5023 C   0  0  0  0  0  0  0  0  0  0  0  0
    4.3872    2.9146    2.4871 C   0  0  0  0  0  0  0  0  0  0  0  0
    4.4074    1.5237    2.4807 C   0  0  0  0  0  0  0  0  0  0  0  0
    3.1505    5.1125    2.5107 C   0  0  0  0  0  0  0  0  0  0  0  0
  1  2  1  0
  2  3  2  0
  3  4  1  0
  4  5  1  0
  5  6  1  0
  6  7  1  0
  7  8  1  0
  8  9  1  0
  9  3  1  0
  9 10  2  0
 10 11  1  0
 11 12  2  0
 12  2  1  0
 11 13  1  0
 13 14  2  0
 14 15  1  0
 15 16  1  0
 16 17  2  0
 17 13  1  0
 16 18  1  0
 18 19  2  0
 19 20  1  0
 20 21  1  0
 21 22  1  0
 22 23  2  0
 22 24  1  0
 24 25  2  0
 25 26  1  0
 26 27  2  0
 27 28  1  0
 28 29  2  0
 29 24  1  0
 20 30  2  0
 30 31  1  0
 31 32  2  0
 32 18  1  0
 30 33  1  0
M  END
$$$$
m_276010a____17281768____17259588____17280774
     RDKit          3D

 33 38  0  0  0  0  0  0  0  0999 V2000
   -2.2793    6.5478   -1.3736 Br  0  0  0  0  0  0  0  0  0  0  0  0
   -2.3220    5.9213    0.4833 C   0  0  0  0  0  0  0  0  0  0  0  0
   -3.5036    5.9270    1.2204 C   0  0  0  0  0  0  0  0  0  0  0  0
   -4.6634    6.3585    0.6994 N   0  0  0  0  0  0  0  0  0  0  0  0
   -5.8041    6.3666    1.4055 C   0  0  0  0  0  0  0  0  0  0  0  0
   -5.7854    5.9123    2.7205 C   0  0  0  0  0  0  0  0  0  0  0  0
   -4.6272    5.4806    3.2406 N   0  0  0  0  0  0  0  0  0  0  0  0
   -3.4845    5.4719    2.5363 C   0  0  0  0  0  0  0  0  0  0  0  0
   -2.2938    5.0190    3.0965 C   0  0  0  0  0  0  0  0  0  0  0  0
   -1.1174    5.0153    2.3547 C   0  0  0  0  0  0  0  0  0  0  0  0
   -1.1297    5.4689    1.0393 C   0  0  0  0  0  0  0  0  0  0  0  0
    0.1173    4.5411    2.9461 C   0  0  0  0  0  0  0  0  0  0  0  0
    0.7034    5.2240    3.7399 O   0  0  0  0  0  0  0  0  0  0  0  0
    0.6272    3.2845    2.5910 N   0  0  0  0  0  0  0  0  0  0  0  0
    1.9715    2.9006    2.5596 C   0  0  0  0  0  0  0  0  0  0  0  0
    3.1777    3.5871    2.4587 C   0  0  0  0  0  0  0  0  0  0  0  0
    4.3946    2.9141    2.4355 C   0  0  0  0  0  0  0  0  0  0  0  0
    4.4011    1.5252    2.4996 C   0  0  0  0  0  0  0  0  0  0  0  0
    3.2116    0.8148    2.6018 C   0  0  0  0  0  0  0  0  0  0  0  0
    2.0278    1.5265    2.6544 C   0  0  0  0  0  0  0  0  0  0  0  0
    0.6103    1.0204    2.8245 C   0  0  0  0  0  0  0  0  0  0  0  0
   -0.2127    2.1443    2.2323 C   0  0  0  0  0  0  0  0  0  0  0  0
    3.2424    5.0335    2.3688 C   0  0  0  0  0  0  0  0  0  0  0  0
    3.7074    5.8784    3.3311 N   0  0  0  0  0  0  0  0  0  0  0  0
    3.6063    7.0583    2.8933 N   0  0  0  0  0  0  0  0  0  0  0  0
    3.1033    7.0678    1.6830 N   0  0  0  0  0  0  0  0  0  0  0  0
    2.8623    8.2101    0.9092 C   0  0  0  0  0  0  0  0  0  0  0  0
    2.2013    8.0898   -0.3091 C   0  0  0  0  0  0  0  0  0  0  0  0
    1.9634    9.2265   -1.0747 C   0  0  0  0  0  0  0  0  0  0  0  0
    2.3857   10.4714   -0.6208 C   0  0  0  0  0  0  0  0  0  0  0  0
    3.0452   10.5800    0.5990 C   0  0  0  0  0  0  0  0  0  0  0  0
    3.2886    9.4502    1.3731 C   0  0  0  0  0  0  0  0  0  0  0  0
    2.8548    5.7853    1.3059 C   0  0  0  0  0  0  0  0  0  0  0  0
  1  2  1  0
  2  3  2  0
  3  4  1  0
  4  5  2  0
  5  6  1  0
  6  7  2  0
  7  8  1  0
  8  3  1  0
  8  9  2  0
  9 10  1  0
 10 11  2  0
 11  2  1  0
 10 12  1  0
 12 13  2  0
 12 14  1  0
 14 15  1  0
 15 16  1  0
 16 17  2  0
 17 18  1  0
 18 19  2  0
 19 20  1  0
 20 15  2  0
 20 21  1  0
 21 22  1  0
 22 14  1  0
 16 23  1  0
 23 24  1  0
 24 25  2  0
 25 26  1  0
 26 27  1  0
 27 28  2  0
 28 29  1  0
 29 30  2  0
 30 31  1  0
 31 32  2  0
 32 27  1  0
 26 33  1  0
 23 33  2  0
M  END
$$$$
s_527a____14653446____156520
     RDKit          3D

 37 41  0  0  0  0  0  0  0  0999 V2000
    7.0410    5.8908    2.4755 S   0  0  0  0  0  0  0  0  0  0  0  0
    6.8904    7.1461    3.1648 O   0  0  0  0  0  0  0  0  0  0  0  0
    8.0429    5.0965    3.1381 O   0  0  0  0  0  0  0  0  0  0  0  0
    7.4982    6.1678    0.9357 N   0  0  0  0  0  0  0  0  0  0  0  0
    7.9107    5.1030    0.1254 C   0  0  0  0  0  0  0  0  0  0  0  0
    7.2119    4.8301   -1.0459 C   0  0  0  0  0  0  0  0  0  0  0  0
    7.6089    3.7765   -1.8613 C   0  0  0  0  0  0  0  0  0  0  0  0
    8.7055    3.0051   -1.4901 C   0  0  0  0  0  0  0  0  0  0  0  0
    9.0949    1.9949   -2.2626 F   0  0  0  0  0  0  0  0  0  0  0  0
    9.4050    3.2762   -0.3189 C   0  0  0  0  0  0  0  0  0  0  0  0
    9.0070    4.3309    0.4958 C   0  0  0  0  0  0  0  0  0  0  0  0
    5.5247    5.0380    2.4858 C   0  0  0  0  0  0  0  0  0  0  0  0
    5.5412    3.6483    2.4759 C   0  0  0  0  0  0  0  0  0  0  0  0
    4.3664    2.9017    2.4842 C   0  0  0  0  0  0  0  0  0  0  0  0
    3.1568    3.5912    2.5013 C   0  0  0  0  0  0  0  0  0  0  0  0
    1.9885    2.8739    2.5089 N   0  0  0  0  0  0  0  0  0  0  0  0
    1.9943    1.5026    2.5002 C   0  0  0  0  0  0  0  0  0  0  0  0
    0.9528    0.8712    2.5067 O   0  0  0  0  0  0  0  0  0  0  0  0
    3.2129    0.7745    2.4835 C   0  0  0  0  0  0  0  0  0  0  0  0
    4.3883    1.4779    2.4758 C   0  0  0  0  0  0  0  0  0  0  0  0
    5.6231    0.7147    2.4582 C   0  0  0  0  0  0  0  0  0  0  0  0
    6.1445    0.3932    3.4901 O   0  0  0  0  0  0  0  0  0  0  0  0
    6.1930    0.3613    1.2636 N   0  0  0  0  0  0  0  0  0  0  0  0
    7.1118   -0.6942    1.2111 C   0  0  0  0  0  0  0  0  0  0  0  0
    8.4741   -0.4162    1.1733 C   0  0  0  0  0  0  0  0  0  0  0  0
    9.3773   -1.4729    1.1220 C   0  0  0  0  0  0  0  0  0  0  0  0
   10.7986   -1.1882    1.0840 C   0  0  0  0  0  0  0  0  0  0  0  0
   11.7028   -2.1686    0.6879 C   0  0  0  0  0  0  0  0  0  0  0  0
   13.0129   -1.8819    0.6614 N   0  0  0  0  0  0  0  0  0  0  0  0
   13.4708   -0.6701    1.0086 C   0  0  0  0  0  0  0  0  0  0  0  0
   12.6125    0.2861    1.3934 N   0  0  0  0  0  0  0  0  0  0  0  0
   11.2907    0.0624    1.4411 C   0  0  0  0  0  0  0  0  0  0  0  0
    8.9345   -2.7911    1.1072 C   0  0  0  0  0  0  0  0  0  0  0  0
    7.5676   -3.0458    1.1458 C   0  0  0  0  0  0  0  0  0  0  0  0
    6.6466   -2.0049    1.1979 C   0  0  0  0  0  0  0  0  0  0  0  0
    3.1296    4.9820    2.5110 C   0  0  0  0  0  0  0  0  0  0  0  0
    4.3107    5.7163    2.5031 C   0  0  0  0  0  0  0  0  0  0  0  0
  1  2  2  0
  1  3  2  0
  1  4  1  0
  4  5  1  0
  5  6  2  0
  6  7  1  0
  7  8  2  0
  8  9  1  0
  8 10  1  0
 10 11  2  0
 11  5  1  0
  1 12  1  0
 12 13  2  0
 13 14  1  0
 14 15  2  0
 15 16  1  0
 16 17  1  0
 17 18  2  0
 17 19  1  0
 19 20  2  0
 20 14  1  0
 20 21  1  0
 21 22  2  0
 21 23  1  0
 23 24  1  0
 24 25  2  0
 25 26  1  0
 26 27  1  0
 27 28  2  0
 28 29  1  0
 29 30  2  0
 30 31  1  0
 31 32  2  0
 32 27  1  0
 26 33  2  0
 33 34  1  0
 34 35  2  0
 35 24  1  0
 15 36  1  0
 36 37  2  0
 37 12  1  0
M  END
$$$$
s_708____1107296____2161432
     RDKit          3D

 35 39  0  0  0  0  0  0  0  0999 V2000
    8.6705    4.9618   -4.9472 Cl  0  0  0  0  0  0  0  0  0  0  0  0
    9.8809    5.9416   -4.0846 C   0  0  0  0  0  0  0  0  0  0  0  0
    9.7375    6.2234   -2.7298 C   0  0  0  0  0  0  0  0  0  0  0  0
   10.6892    6.9899   -2.0649 C   0  0  0  0  0  0  0  0  0  0  0  0
   11.7884    7.4744   -2.7663 C   0  0  0  0  0  0  0  0  0  0  0  0
   11.9295    7.1910   -4.1208 C   0  0  0  0  0  0  0  0  0  0  0  0
   13.3384    7.8148   -5.0128 Cl  0  0  0  0  0  0  0  0  0  0  0  0
   10.9792    6.4250   -4.7887 C   0  0  0  0  0  0  0  0  0  0  0  0
    8.5991    5.7270   -1.9816 C   0  0  0  0  0  0  0  0  0  0  0  0
    7.4829    6.7389   -1.1892 S   0  0  0  0  0  0  0  0  0  0  0  0
    6.5080    5.4844   -0.5865 C   0  0  0  0  0  0  0  0  0  0  0  0
    5.3486    5.6625    0.2001 C   0  0  0  0  0  0  0  0  0  0  0  0
    4.9308    6.7615    0.5288 O   0  0  0  0  0  0  0  0  0  0  0  0
    4.7296    4.5095    0.5676 N   0  0  0  0  0  0  0  0  0  0  0  0
    5.2444    3.3052    0.1663 C   0  0  0  0  0  0  0  0  0  0  0  0
    6.3380    3.2076   -0.5737 N   0  0  0  0  0  0  0  0  0  0  0  0
    7.0443    4.3064   -0.9980 C   0  0  0  0  0  0  0  0  0  0  0  0
    8.2263    4.4332   -1.7865 C   0  0  0  0  0  0  0  0  0  0  0  0
    4.5254    2.1265    0.5937 C   0  0  0  0  0  0  0  0  0  0  0  0
    3.1346    2.1385    0.5874 C   0  0  0  0  0  0  0  0  0  0  0  0
    2.4499    1.0000    1.0000 C   0  0  0  0  0  0  0  0  0  0  0  0
    3.1336   -0.1382    1.4141 C   0  0  0  0  0  0  0  0  0  0  0  0
    4.5242   -0.1268    1.4114 C   0  0  0  0  0  0  0  0  0  0  0  0
    5.2307    0.9996    1.0032 C   0  0  0  0  0  0  0  0  0  0  0  0
    1.0000    1.0000    1.0000 C   0  0  0  0  0  0  0  0  0  0  0  0
    0.4000    2.0392    1.0014 O   0  0  0  0  0  0  0  0  0  0  0  0
    0.3150   -0.1865    0.9984 N   0  0  0  0  0  0  0  0  0  0  0  0
   -1.1550   -0.1865    0.9984 C   0  0  0  0  0  0  0  0  0  0  0  0
   -1.6617   -0.1845   -0.4348 C   0  0  0  0  0  0  0  0  0  0  0  0
   -1.8915   -1.3918   -1.0865 C   0  0  0  0  0  0  0  0  0  0  0  0
   -2.3542   -1.3843   -2.3980 C   0  0  0  0  0  0  0  0  0  0  0  0
   -2.5824   -0.1719   -3.0413 C   0  0  0  0  0  0  0  0  0  0  0  0
   -2.3546    1.0354   -2.3878 C   0  0  0  0  0  0  0  0  0  0  0  0
   -1.8904    1.0279   -1.0766 C   0  0  0  0  0  0  0  0  0  0  0  0
   -3.0868   -0.1702   -4.4755 C   0  0  0  0  0  0  0  0  0  0  0  0
  1  2  1  0
  2  3  2  0
  3  4  1  0
  4  5  2  0
  5  6  1  0
  6  7  1  0
  6  8  2  0
  8  2  1  0
  3  9  1  0
  9 10  1  0
 10 11  1  0
 11 12  1  0
 12 13  2  0
 12 14  1  0
 14 15  1  0
 15 16  2  0
 16 17  1  0
 11 17  2  0
 17 18  1  0
  9 18  2  0
 15 19  1  0
 19 20  2  0
 20 21  1  0
 21 22  2  0
 22 23  1  0
 23 24  2  0
 24 19  1  0
 21 25  1  0
 25 26  2  0
 25 27  1  0
 27 28  1  0
 28 29  1  0
 29 30  2  0
 30 31  1  0
 31 32  2  0
 32 33  1  0
 33 34  2  0
 34 29  1  0
 32 35  1  0
M  END
$$$$
s_270196____9437302____8784464
     RDKit          3D

 33 37  0  0  0  0  0  0  0  0999 V2000
   16.7354    2.7366    2.3782 Cl  0  0  0  0  0  0  0  0  0  0  0  0
   15.3542    1.6153    2.3847 C   0  0  0  0  0  0  0  0  0  0  0  0
   15.4174    0.2014    2.3750 C   0  0  0  0  0  0  0  0  0  0  0  0
   14.1799   -0.2361    2.3848 N   0  0  0  0  0  0  0  0  0  0  0  0
   13.3359    0.7739    2.3968 N   0  0  0  0  0  0  0  0  0  0  0  0
   11.9365    0.6738    2.4079 C   0  0  0  0  0  0  0  0  0  0  0  0
   11.3367   -0.5803    2.4066 C   0  0  0  0  0  0  0  0  0  0  0  0
   12.0891   -1.6767    2.3937 F   0  0  0  0  0  0  0  0  0  0  0  0
    9.9507   -0.6965    2.4179 C   0  0  0  0  0  0  0  0  0  0  0  0
    9.1802    0.4613    2.4304 C   0  0  0  0  0  0  0  0  0  0  0  0
    9.7766    1.7177    2.4309 C   0  0  0  0  0  0  0  0  0  0  0  0
   11.1633    1.8298    2.4194 C   0  0  0  0  0  0  0  0  0  0  0  0
    7.7347    0.3477    2.4413 C   0  0  0  0  0  0  0  0  0  0  0  0
    7.0439   -0.7682    2.4407 N   0  0  0  0  0  0  0  0  0  0  0  0
    5.8093   -0.4818    2.4549 O   0  0  0  0  0  0  0  0  0  0  0  0
    5.6615    0.8207    2.4636 C   0  0  0  0  0  0  0  0  0  0  0  0
    6.8467    1.3760    2.4569 N   0  0  0  0  0  0  0  0  0  0  0  0
    4.3956    1.5285    2.4795 C   0  0  0  0  0  0  0  0  0  0  0  0
    4.3891    2.9197    2.4874 C   0  0  0  0  0  0  0  0  0  0  0  0
    3.1713    3.5924    2.5033 C   0  0  0  0  0  0  0  0  0  0  0  0
    1.9748    2.8823    2.5111 C   0  0  0  0  0  0  0  0  0  0  0  0
    0.7544    3.5676    2.5257 N   0  0  0  0  0  0  0  0  0  0  0  0
   -0.1428    3.3904    1.5056 C   0  0  0  0  0  0  0  0  0  0  0  0
    0.1176    2.6478    0.5997 O   0  0  0  0  0  0  0  0  0  0  0  0
   -1.4092    4.1014    1.5207 C   0  0  0  0  0  0  0  0  0  0  0  0
   -2.6199    3.9835    0.3276 S   0  0  0  0  0  0  0  0  0  0  0  0
   -3.7409    5.0631    1.0233 C   0  0  0  0  0  0  0  0  0  0  0  0
   -3.1531    5.4969    2.1770 C   0  0  0  0  0  0  0  0  0  0  0  0
   -1.8594    4.9732    2.4647 C   0  0  0  0  0  0  0  0  0  0  0  0
    1.9916    1.4909    2.5023 C   0  0  0  0  0  0  0  0  0  0  0  0
    3.2044    0.8097    2.4867 C   0  0  0  0  0  0  0  0  0  0  0  0
    3.1797    5.1126    2.5113 C   0  0  0  0  0  0  0  0  0  0  0  0
   14.0331    1.9468    2.3961 C   0  0  0  0  0  0  0  0  0  0  0  0
  1  2  1  0
  2  3  1  0
  3  4  2  0
  4  5  1  0
  5  6  1  0
  6  7  2  0
  7  8  1  0
  7  9  1  0
  9 10  2  0
 10 11  1  0
 11 12  2  0
 12  6  1  0
 10 13  1  0
 13 14  2  0
 14 15  1  0
 15 16  1  0
 16 17  2  0
 17 13  1  0
 16 18  1  0
 18 19  2  0
 19 20  1  0
 20 21  2  0
 21 22  1  0
 22 23  1  0
 23 24  2  0
 23 25  1  0
 25 26  1  0
 26 27  1  0
 27 28  2  0
 28 29  1  0
 25 29  2  0
 21 30  1  0
 30 31  2  0
 31 18  1  0
 20 32  1  0
  5 33  1  0
  2 33  2  0
M  END
$$$$
m_275030____14114142____12658456____14148596
     RDKit          3D

 33 37  0  0  0  0  0  0  0  0999 V2000
    8.0697    1.9066    0.4395 F   0  0  0  0  0  0  0  0  0  0  0  0
    8.3979    0.6268    0.5818 C   0  0  0  0  0  0  0  0  0  0  0  0
    8.0589   -0.0500    1.7475 C   0  0  0  0  0  0  0  0  0  0  0  0
    8.3949   -1.3895    1.9110 C   0  0  0  0  0  0  0  0  0  0  0  0
    9.0770   -2.0486    0.8933 C   0  0  0  0  0  0  0  0  0  0  0  0
    9.4147   -1.3681   -0.2714 C   0  0  0  0  0  0  0  0  0  0  0  0
    9.0796   -0.0285   -0.4382 C   0  0  0  0  0  0  0  0  0  0  0  0
   10.1250   -2.0602   -1.3286 C   0  0  0  0  0  0  0  0  0  0  0  0
   10.9131   -1.5009   -2.2290 O   0  0  0  0  0  0  0  0  0  0  0  0
   11.3873   -2.4367   -3.0275 C   0  0  0  0  0  0  0  0  0  0  0  0
   10.8684   -3.6286   -2.6049 C   0  0  0  0  0  0  0  0  0  0  0  0
   10.0721   -3.3605   -1.5305 N   0  0  0  0  0  0  0  0  0  0  0  0
    7.3133    0.6755    2.8553 C   0  0  0  0  0  0  0  0  0  0  0  0
    5.9778    1.0606    2.3765 N   0  0  0  0  0  0  0  0  0  0  0  0
    5.4184    2.0571    3.3075 C   0  0  0  0  0  0  0  0  0  0  0  0
    3.9806    2.4121    2.9644 C   0  0  0  0  0  0  0  0  0  0  0  0
    3.2104    1.5828    2.1542 C   0  0  0  0  0  0  0  0  0  0  0  0
    1.8790    1.8790    1.8790 C   0  0  0  0  0  0  0  0  0  0  0  0
    1.3182    3.0347    2.4102 C   0  0  0  0  0  0  0  0  0  0  0  0
    2.0830    3.8768    3.2098 C   0  0  0  0  0  0  0  0  0  0  0  0
    3.4104    3.5657    3.4848 C   0  0  0  0  0  0  0  0  0  0  0  0
    1.0000    1.0000    1.0000 C   0  0  0  0  0  0  0  0  0  0  0  0
    0.1050    0.1988    1.8474 N   0  0  0  0  0  0  0  0  0  0  0  0
   -1.1268    0.6867    2.1959 C   0  0  0  0  0  0  0  0  0  0  0  0
   -1.4752    1.7680    1.8094 O   0  0  0  0  0  0  0  0  0  0  0  0
   -2.0098   -0.1037    3.0320 C   0  0  0  0  0  0  0  0  0  0  0  0
   -3.3732    0.1714    3.0476 C   0  0  0  0  0  0  0  0  0  0  0  0
   -4.2164   -0.5886    3.8516 C   0  0  0  0  0  0  0  0  0  0  0  0
   -3.6948   -1.6158    4.6311 C   0  0  0  0  0  0  0  0  0  0  0  0
   -2.3313   -1.8819    4.6072 C   0  0  0  0  0  0  0  0  0  0  0  0
   -1.4776   -1.1287    3.8079 C   0  0  0  0  0  0  0  0  0  0  0  0
    3.8355    0.3318    1.5590 C   0  0  0  0  0  0  0  0  0  0  0  0
    5.0840   -0.1021    2.3039 C   0  0  0  0  0  0  0  0  0  0  0  0
  1  2  1  0
  2  3  2  0
  3  4  1  0
  4  5  2  0
  5  6  1  0
  6  7  2  0
  7  2  1  0
  6  8  1  0
  8  9  1  0
  9 10  1  0
 10 11  2  0
 11 12  1  0
  8 12  2  0
  3 13  1  0
 13 14  1  0
 14 15  1  0
 15 16  1  0
 16 17  2  0
 17 18  1  0
 18 19  2  0
 19 20  1  0
 20 21  2  0
 21 16  1  0
 18 22  1  0
 22 23  1  0
 23 24  1  0
 24 25  2  0
 24 26  1  0
 26 27  2  0
 27 28  1  0
 28 29  2  0
 29 30  1  0
 30 31  2  0
 31 26  1  0
 17 32  1  0
 32 33  1  0
 33 14  1  0
M  CHG  1  14   1
M  END
$$$$
s_270196____8770352____10227710
     RDKit          3D

 33 37  0  0  0  0  0  0  0  0999 V2000
    5.6039    4.8526    2.4818 O   0  0  0  0  0  0  0  0  0  0  0  0
    5.6230    3.6528    2.4786 C   0  0  0  0  0  0  0  0  0  0  0  0
    6.8201    2.9867    2.4659 N   0  0  0  0  0  0  0  0  0  0  0  0
    7.9820    3.6432    2.0420 C   0  0  0  0  0  0  0  0  0  0  0  0
    9.1801    3.4259    2.7150 C   0  0  0  0  0  0  0  0  0  0  0  0
   10.3323    4.0797    2.2909 C   0  0  0  0  0  0  0  0  0  0  0  0
   10.2810    4.9431    1.2018 C   0  0  0  0  0  0  0  0  0  0  0  0
    9.0778    5.1523    0.5362 C   0  0  0  0  0  0  0  0  0  0  0  0
    7.9192    4.5041    0.9513 C   0  0  0  0  0  0  0  0  0  0  0  0
    4.3787    2.9077    2.4882 C   0  0  0  0  0  0  0  0  0  0  0  0
    3.1719    3.5991    2.5011 C   0  0  0  0  0  0  0  0  0  0  0  0
    1.9827    2.8773    2.5101 C   0  0  0  0  0  0  0  0  0  0  0  0
    1.9872    1.4865    2.5060 C   0  0  0  0  0  0  0  0  0  0  0  0
    3.2061    0.8170    2.4926 C   0  0  0  0  0  0  0  0  0  0  0  0
    4.4079    1.5169    2.4834 C   0  0  0  0  0  0  0  0  0  0  0  0
    0.7174    3.5862    2.5254 C   0  0  0  0  0  0  0  0  0  0  0  0
    0.5707    4.8888    2.5321 O   0  0  0  0  0  0  0  0  0  0  0  0
   -0.6638    5.1762    2.5445 N   0  0  0  0  0  0  0  0  0  0  0  0
   -1.3554    4.0609    2.5477 C   0  0  0  0  0  0  0  0  0  0  0  0
   -0.4682    3.0318    2.5363 N   0  0  0  0  0  0  0  0  0  0  0  0
   -2.8010    3.9484    2.5636 C   0  0  0  0  0  0  0  0  0  0  0  0
   -3.3904    2.6885    2.5651 C   0  0  0  0  0  0  0  0  0  0  0  0
   -4.7769    2.5766    2.5811 C   0  0  0  0  0  0  0  0  0  0  0  0
   -5.5564    3.7291    2.5958 C   0  0  0  0  0  0  0  0  0  0  0  0
   -7.0089    3.6149    2.6132 C   0  0  0  0  0  0  0  0  0  0  0  0
   -7.6376    2.4266    2.6157 N   0  0  0  0  0  0  0  0  0  0  0  0
   -8.9763    2.3131    2.6298 C   0  0  0  0  0  0  0  0  0  0  0  0
   -9.6960    3.4488    2.6419 N   0  0  0  0  0  0  0  0  0  0  0  0
   -9.1538    4.6250    2.6400 N   0  0  0  0  0  0  0  0  0  0  0  0
   -7.8175    4.7465    2.6262 C   0  0  0  0  0  0  0  0  0  0  0  0
   -9.5999    1.0546    2.6312 N   0  0  0  0  0  0  0  0  0  0  0  0
   -4.9673    4.9895    2.5944 C   0  0  0  0  0  0  0  0  0  0  0  0
   -3.5804    5.1005    2.5782 C   0  0  0  0  0  0  0  0  0  0  0  0
  1  2  2  0
  2  3  1  0
  3  4  1  0
  4  5  2  0
  5  6  1  0
  6  7  2  0
  7  8  1  0
  8  9  2  0
  9  4  1  0
  2 10  1  0
 10 11  2  0
 11 12  1  0
 12 13  2  0
 13 14  1  0
 14 15  2  0
 15 10  1  0
 12 16  1  0
 16 17  1  0
 17 18  1  0
 18 19  2  0
 19 20  1  0
 16 20  2  0
 19 21  1  0
 21 22  2  0
 22 23  1  0
 23 24  2  0
 24 25  1  0
 25 26  2  0
 26 27  1  0
 27 28  2  0
 28 29  1  0
 29 30  2  0
 30 25  1  0
 27 31  1  0
 24 32  1  0
 32 33  2  0
 33 21  1  0
M  END
$$$$
m_274860b____15234900____17203280____17179884
     RDKit          3D

 36 40  0  0  0  0  0  0  0  0999 V2000
   -4.4850   -0.1303   -6.3447 Br  0  0  0  0  0  0  0  0  0  0  0  0
   -3.5378   -1.6086   -5.4736 C   0  0  0  0  0  0  0  0  0  0  0  0
   -2.5629   -1.3734   -4.5202 C   0  0  0  0  0  0  0  0  0  0  0  0
   -2.0602    0.1576   -3.9808 S   0  0  0  0  0  0  0  0  0  0  0  0
   -0.8872   -0.3721   -2.8642 C   0  0  0  0  0  0  0  0  0  0  0  0
   -0.0494    0.4657   -2.0264 C   0  0  0  0  0  0  0  0  0  0  0  0
   -0.1485    1.6603   -2.0827 O   0  0  0  0  0  0  0  0  0  0  0  0
    0.8546   -0.1072   -1.1712 N   0  0  0  0  0  0  0  0  0  0  0  0
    1.7033    0.7415   -0.3225 C   0  0  0  0  0  0  0  0  0  0  0  0
    1.0000    1.0000    1.0000 C   0  0  0  0  0  0  0  0  0  0  0  0
    1.8486    1.8486    1.8486 N   0  0  0  0  0  0  0  0  0  0  0  0
    1.8344    3.1585    1.8782 N   0  0  0  0  0  0  0  0  0  0  0  0
    2.6732    3.6115    2.7067 N   0  0  0  0  0  0  0  0  0  0  0  0
    3.2991    2.5453    3.2760 C   0  0  0  0  0  0  0  0  0  0  0  0
    4.3382    2.6072    4.2862 C   0  0  0  0  0  0  0  0  0  0  0  0
    4.7795    1.4356    4.8926 C   0  0  0  0  0  0  0  0  0  0  0  0
    5.7762    1.5081    5.8601 C   0  0  0  0  0  0  0  0  0  0  0  0
    6.3246    2.7367    6.2166 C   0  0  0  0  0  0  0  0  0  0  0  0
    5.8763    3.9022    5.6043 C   0  0  0  0  0  0  0  0  0  0  0  0
    4.8798    3.8401    4.6355 C   0  0  0  0  0  0  0  0  0  0  0  0
    7.4147    2.8438    7.2709 C   0  0  0  0  0  0  0  0  0  0  0  0
    6.2228    0.2758    6.4809 C   0  0  0  0  0  0  0  0  0  0  0  0
    6.1173    0.1290    7.6672 O   0  0  0  0  0  0  0  0  0  0  0  0
    6.7652   -0.7207    5.7129 N   0  0  0  0  0  0  0  0  0  0  0  0
    7.0997   -1.9495    6.2948 C   0  0  0  0  0  0  0  0  0  0  0  0
    8.3884   -2.1551    6.7769 C   0  0  0  0  0  0  0  0  0  0  0  0
    8.7169   -3.3772    7.3545 C   0  0  0  0  0  0  0  0  0  0  0  0
    7.7602   -4.3824    7.4464 C   0  0  0  0  0  0  0  0  0  0  0  0
    6.4747   -4.1655    6.9615 C   0  0  0  0  0  0  0  0  0  0  0  0
    6.1348   -2.9477    6.3819 C   0  0  0  0  0  0  0  0  0  0  0  0
    2.7783    1.4096    2.7359 C   0  0  0  0  0  0  0  0  0  0  0  0
   -0.8914   -1.7286   -2.9142 C   0  0  0  0  0  0  0  0  0  0  0  0
   -1.8201   -2.3049   -3.8305 C   0  0  0  0  0  0  0  0  0  0  0  0
   -2.1522   -3.6089   -4.1942 C   0  0  0  0  0  0  0  0  0  0  0  0
   -3.0925   -3.8923   -5.1128 N   0  0  0  0  0  0  0  0  0  0  0  0
   -3.7892   -2.9412   -5.7594 C   0  0  0  0  0  0  0  0  0  0  0  0
  1  2  1  0
  2  3  2  0
  3  4  1  0
  4  5  1  0
  5  6  1  0
  6  7  2  0
  6  8  1  0
  8  9  1  0
  9 10  1  0
 10 11  1  0
 11 12  1  0
 12 13  2  0
 13 14  1  0
 14 15  1  0
 15 16  2  0
 16 17  1  0
 17 18  2  0
 18 19  1  0
 19 20  2  0
 20 15  1  0
 18 21  1  0
 17 22  1  0
 22 23  2  0
 22 24  1  0
 24 25  1  0
 25 26  2  0
 26 27  1  0
 27 28  2  0
 28 29  1  0
 29 30  2  0
 30 25  1  0
 14 31  2  0
 31 11  1  0
  5 32  2  0
 32 33  1  0
 33  3  1  0
 33 34  2  0
 34 35  1  0
 35 36  2  0
 36  2  1  0
M  END
$$$$
s_265764____5183258____4562750
     RDKit          3D

 34 37  0  0  0  0  0  0  0  0999 V2000
    4.4126   -1.2819   10.0225 Cl  0  0  0  0  0  0  0  0  0  0  0  0
    3.5838   -1.5560    8.4713 C   0  0  0  0  0  0  0  0  0  0  0  0
    4.0157   -0.8842    7.3327 C   0  0  0  0  0  0  0  0  0  0  0  0
    3.3582   -1.1078    6.1273 C   0  0  0  0  0  0  0  0  0  0  0  0
    2.2835   -1.9878    6.0524 C   0  0  0  0  0  0  0  0  0  0  0  0
    1.8674   -2.6499    7.2028 C   0  0  0  0  0  0  0  0  0  0  0  0
    2.5114   -2.4408    8.4179 C   0  0  0  0  0  0  0  0  0  0  0  0
    3.8062   -0.4091    4.9382 C   0  0  0  0  0  0  0  0  0  0  0  0
    4.4646    0.5888    5.0409 O   0  0  0  0  0  0  0  0  0  0  0  0
    3.4776   -0.8883    3.6975 N   0  0  0  0  0  0  0  0  0  0  0  0
    3.9317   -0.1800    2.4921 C   0  0  0  0  0  0  0  0  0  0  0  0
    3.3784    1.2345    2.4974 C   0  0  0  0  0  0  0  0  0  0  0  0
    4.0828    2.3380    2.4895 N   0  0  0  0  0  0  0  0  0  0  0  0
    3.2897    3.3251    2.4953 O   0  0  0  0  0  0  0  0  0  0  0  0
    2.0505    2.8931    2.5095 C   0  0  0  0  0  0  0  0  0  0  0  0
    2.0616    1.5822    2.5110 N   0  0  0  0  0  0  0  0  0  0  0  0
    0.8643    3.7277    2.5208 C   0  0  0  0  0  0  0  0  0  0  0  0
   -0.3931    3.1322    2.5354 C   0  0  0  0  0  0  0  0  0  0  0  0
   -1.5236    3.9425    2.5460 C   0  0  0  0  0  0  0  0  0  0  0  0
   -2.7829    3.3304    2.5609 N   0  0  0  0  0  0  0  0  0  0  0  0
   -3.1286    2.4997    3.5940 C   0  0  0  0  0  0  0  0  0  0  0  0
   -2.3522    2.2967    4.4862 O   0  0  0  0  0  0  0  0  0  0  0  0
   -4.4329    1.8657    3.6094 C   0  0  0  0  0  0  0  0  0  0  0  0
   -4.6396    0.7337    4.3908 C   0  0  0  0  0  0  0  0  0  0  0  0
   -5.8920    0.1282    4.4020 C   0  0  0  0  0  0  0  0  0  0  0  0
   -6.9265    0.6559    3.6364 C   0  0  0  0  0  0  0  0  0  0  0  0
   -6.7085    1.7873    2.8600 C   0  0  0  0  0  0  0  0  0  0  0  0
   -5.4607    2.4016    2.8398 C   0  0  0  0  0  0  0  0  0  0  0  0
   -1.3982    5.3287    2.5416 C   0  0  0  0  0  0  0  0  0  0  0  0
   -0.1354    5.9132    2.5273 C   0  0  0  0  0  0  0  0  0  0  0  0
    1.0019    5.1122    2.5167 C   0  0  0  0  0  0  0  0  0  0  0  0
   -2.6405    6.2040    2.5545 C   0  0  0  0  0  0  0  0  0  0  0  0
    3.4358   -0.9134    1.2565 C   0  0  0  0  0  0  0  0  0  0  0  0
    5.4508   -0.1298    2.4759 C   0  0  0  0  0  0  0  0  0  0  0  0
  1  2  1  0
  2  3  2  0
  3  4  1  0
  4  5  2  0
  5  6  1  0
  6  7  2  0
  7  2  1  0
  4  8  1  0
  8  9  2  0
  8 10  1  0
 10 11  1  0
 11 12  1  0
 12 13  2  0
 13 14  1  0
 14 15  1  0
 15 16  2  0
 16 12  1  0
 15 17  1  0
 17 18  2  0
 18 19  1  0
 19 20  1  0
 20 21  1  0
 21 22  2  0
 21 23  1  0
 23 24  2  0
 24 25  1  0
 25 26  2  0
 26 27  1  0
 27 28  2  0
 28 23  1  0
 19 29  2  0
 29 30  1  0
 30 31  2  0
 31 17  1  0
 29 32  1  0
 11 33  1  0
 11 34  1  0
M  END
$$$$
s_270196____8770012____10226310
     RDKit          3D

 34 38  0  0  0  0  0  0  0  0999 V2000
    0.4000    2.0392    1.0014 O   0  0  0  0  0  0  0  0  0  0  0  0
    1.0000    1.0000    1.0000 C   0  0  0  0  0  0  0  0  0  0  0  0
    0.3150   -0.1865    0.9984 N   0  0  0  0  0  0  0  0  0  0  0  0
   -1.1550   -0.1865    0.9984 C   0  0  0  0  0  0  0  0  0  0  0  0
   -1.6617   -0.1845   -0.4348 C   0  0  0  0  0  0  0  0  0  0  0  0
   -1.8915   -1.3918   -1.0865 C   0  0  0  0  0  0  0  0  0  0  0  0
   -2.3542   -1.3843   -2.3980 C   0  0  0  0  0  0  0  0  0  0  0  0
   -2.5824   -0.1719   -3.0413 C   0  0  0  0  0  0  0  0  0  0  0  0
   -2.3546    1.0354   -2.3878 C   0  0  0  0  0  0  0  0  0  0  0  0
   -1.8904    1.0279   -1.0766 C   0  0  0  0  0  0  0  0  0  0  0  0
   -3.0868   -0.1702   -4.4755 C   0  0  0  0  0  0  0  0  0  0  0  0
    2.4499    1.0000    1.0000 C   0  0  0  0  0  0  0  0  0  0  0  0
    3.1346    2.1385    0.5874 C   0  0  0  0  0  0  0  0  0  0  0  0
    4.5254    2.1265    0.5937 C   0  0  0  0  0  0  0  0  0  0  0  0
    5.2307    0.9996    1.0032 C   0  0  0  0  0  0  0  0  0  0  0  0
    4.5242   -0.1268    1.4114 C   0  0  0  0  0  0  0  0  0  0  0  0
    3.1336   -0.1382    1.4141 C   0  0  0  0  0  0  0  0  0  0  0  0
    5.2469    3.3093    0.1648 C   0  0  0  0  0  0  0  0  0  0  0  0
    6.5501    3.4311    0.0687 N   0  0  0  0  0  0  0  0  0  0  0  0
    6.8198    4.6004   -0.3395 O   0  0  0  0  0  0  0  0  0  0  0  0
    5.7071    5.2699   -0.5184 C   0  0  0  0  0  0  0  0  0  0  0  0
    4.6984    4.4933   -0.2139 N   0  0  0  0  0  0  0  0  0  0  0  0
    5.6098    6.6418   -0.9783 C   0  0  0  0  0  0  0  0  0  0  0  0
    6.5608    7.1933   -1.8321 C   0  0  0  0  0  0  0  0  0  0  0  0
    7.6948    6.4233   -2.3028 C   0  0  0  0  0  0  0  0  0  0  0  0
    8.8859    6.4125   -1.5838 C   0  0  0  0  0  0  0  0  0  0  0  0
    9.9219    5.6928   -2.0397 N   0  0  0  0  0  0  0  0  0  0  0  0
    9.8351    4.9828   -3.1741 C   0  0  0  0  0  0  0  0  0  0  0  0
    8.6942    4.9829   -3.8795 N   0  0  0  0  0  0  0  0  0  0  0  0
    7.6224    5.6819   -3.4770 C   0  0  0  0  0  0  0  0  0  0  0  0
    6.4364    8.5128   -2.2523 C   0  0  0  0  0  0  0  0  0  0  0  0
    5.3598    9.2814   -1.8210 C   0  0  0  0  0  0  0  0  0  0  0  0
    4.4086    8.7306   -0.9683 C   0  0  0  0  0  0  0  0  0  0  0  0
    4.5338    7.4110   -0.5468 C   0  0  0  0  0  0  0  0  0  0  0  0
  1  2  2  0
  2  3  1  0
  3  4  1  0
  4  5  1  0
  5  6  2  0
  6  7  1  0
  7  8  2  0
  8  9  1  0
  9 10  2  0
 10  5  1  0
  8 11  1  0
  2 12  1  0
 12 13  2  0
 13 14  1  0
 14 15  2  0
 15 16  1  0
 16 17  2  0
 17 12  1  0
 14 18  1  0
 18 19  2  0
 19 20  1  0
 20 21  1  0
 21 22  2  0
 22 18  1  0
 21 23  1  0
 23 24  1  0
 24 25  1  0
 25 26  2  0
 26 27  1  0
 27 28  2  0
 28 29  1  0
 29 30  2  0
 30 25  1  0
 24 31  2  0
 31 32  1  0
 32 33  2  0
 33 34  1  0
 34 23  2  0
M  END
$$$$
s_22____13608224____12417762
     RDKit          3D

 34 38  0  0  0  0  0  0  0  0999 V2000
    3.4065   -0.2152    0.3650 S   0  0  0  0  0  0  0  0  0  0  0  0
    2.3983    1.0000    1.0000 C   0  0  0  0  0  0  0  0  0  0  0  0
    3.1928    1.9183    1.4899 N   0  0  0  0  0  0  0  0  0  0  0  0
    4.5340    1.6728    1.3612 C   0  0  0  0  0  0  0  0  0  0  0  0
    5.5784    2.5492    1.8295 C   0  0  0  0  0  0  0  0  0  0  0  0
    6.9064    2.1841    1.6371 C   0  0  0  0  0  0  0  0  0  0  0  0
    7.9214    3.0226    2.0866 C   0  0  0  0  0  0  0  0  0  0  0  0
    7.5955    4.2162    2.7221 C   0  0  0  0  0  0  0  0  0  0  0  0
    8.5735    5.0371    3.1602 O   0  0  0  0  0  0  0  0  0  0  0  0
    9.0617    4.8979    4.4113 C   0  0  0  0  0  0  0  0  0  0  0  0
   10.0694    5.7470    4.8565 C   0  0  0  0  0  0  0  0  0  0  0  0
   10.5695    5.5983    6.1468 C   0  0  0  0  0  0  0  0  0  0  0  0
   10.0612    4.6073    6.9807 C   0  0  0  0  0  0  0  0  0  0  0  0
    9.0542    3.7611    6.5284 C   0  0  0  0  0  0  0  0  0  0  0  0
    8.5499    3.9042    5.2396 C   0  0  0  0  0  0  0  0  0  0  0  0
    6.2669    4.5810    2.9144 C   0  0  0  0  0  0  0  0  0  0  0  0
    5.2519    3.7426    2.4656 C   0  0  0  0  0  0  0  0  0  0  0  0
    4.8961    0.5148    0.7506 C   0  0  0  0  0  0  0  0  0  0  0  0
    1.0000    1.0000    1.0000 N   0  0  0  0  0  0  0  0  0  0  0  0
    0.3150    2.0515    1.5495 C   0  0  0  0  0  0  0  0  0  0  0  0
    0.8607    3.1094    1.7013 O   0  0  0  0  0  0  0  0  0  0  0  0
   -1.0639    1.8868    1.9461 C   0  0  0  0  0  0  0  0  0  0  0  0
   -1.8160    3.0448    2.0857 C   0  0  0  0  0  0  0  0  0  0  0  0
   -3.1385    2.8966    2.4804 C   0  0  0  0  0  0  0  0  0  0  0  0
   -3.7551    4.1534    2.5585 N   0  0  0  0  0  0  0  0  0  0  0  0
   -5.2138    4.3019    2.4500 C   0  0  0  0  0  0  0  0  0  0  0  0
   -5.8267    3.1308    1.6987 C   0  0  0  0  0  0  0  0  0  0  0  0
   -6.0860    2.0433    2.7227 C   0  0  0  0  0  0  0  0  0  0  0  0
   -7.2092    1.8102    3.1436 O   0  0  0  0  0  0  0  0  0  0  0  0
   -4.9716    1.3224    3.1750 N   0  0  0  0  0  0  0  0  0  0  0  0
   -3.6714    1.6104    2.7335 C   0  0  0  0  0  0  0  0  0  0  0  0
   -2.9085    0.4676    2.5743 C   0  0  0  0  0  0  0  0  0  0  0  0
   -1.5844    0.6185    2.1755 C   0  0  0  0  0  0  0  0  0  0  0  0
   -5.4924    5.6054    1.7191 C   0  0  0  0  0  0  0  0  0  0  0  0
  1  2  1  0
  2  3  2  0
  3  4  1  0
  4  5  1  0
  5  6  2  0
  6  7  1  0
  7  8  2  0
  8  9  1  0
  9 10  1  0
 10 11  2  0
 11 12  1  0
 12 13  2  0
 13 14  1  0
 14 15  2  0
 15 10  1  0
  8 16  1  0
 16 17  2  0
 17  5  1  0
  4 18  2  0
 18  1  1  0
  2 19  1  0
 19 20  1  0
 20 21  2  0
 20 22  1  0
 22 23  2  0
 23 24  1  0
 24 25  1  0
 25 26  1  0
 26 27  1  0
 27 28  1  0
 28 29  2  0
 28 30  1  0
 30 31  1  0
 31 24  2  0
 31 32  1  0
 32 33  2  0
 33 22  1  0
 26 34  1  0
M  END
$$$$
s_270196____8771044____8778218
     RDKit          3D

 33 37  0  0  0  0  0  0  0  0999 V2000
   -3.3382   -1.3221    2.5402 Cl  0  0  0  0  0  0  0  0  0  0  0  0
   -2.2679    0.1005    2.5345 C   0  0  0  0  0  0  0  0  0  0  0  0
   -1.8665    0.6578    1.3247 C   0  0  0  0  0  0  0  0  0  0  0  0
   -1.0298    1.7687    1.3290 C   0  0  0  0  0  0  0  0  0  0  0  0
   -0.6055    2.3091    2.5385 C   0  0  0  0  0  0  0  0  0  0  0  0
    0.4406    3.6997    2.5340 S   0  0  0  0  0  0  0  0  0  0  0  0
    1.9779    2.8839    2.5130 C   0  0  0  0  0  0  0  0  0  0  0  0
    3.1753    3.5938    2.5035 C   0  0  0  0  0  0  0  0  0  0  0  0
    4.3913    2.9189    2.4880 C   0  0  0  0  0  0  0  0  0  0  0  0
    4.4147    1.5277    2.4812 C   0  0  0  0  0  0  0  0  0  0  0  0
    3.2158    0.8216    2.4897 C   0  0  0  0  0  0  0  0  0  0  0  0
    1.9973    1.4929    2.5059 C   0  0  0  0  0  0  0  0  0  0  0  0
    3.2290   -0.6987    2.4825 C   0  0  0  0  0  0  0  0  0  0  0  0
    3.1884    5.0440    2.5106 C   0  0  0  0  0  0  0  0  0  0  0  0
    3.7336    5.8107    3.4257 N   0  0  0  0  0  0  0  0  0  0  0  0
    3.5524    7.0225    3.1011 O   0  0  0  0  0  0  0  0  0  0  0  0
    2.8869    7.0794    1.9731 C   0  0  0  0  0  0  0  0  0  0  0  0
    2.6414    5.8584    1.5706 N   0  0  0  0  0  0  0  0  0  0  0  0
    2.4901    8.2930    1.2852 C   0  0  0  0  0  0  0  0  0  0  0  0
    1.7673    8.2533    0.0616 C   0  0  0  0  0  0  0  0  0  0  0  0
    1.4662    7.1798   -0.4346 O   0  0  0  0  0  0  0  0  0  0  0  0
    1.4191    9.4328   -0.5443 N   0  0  0  0  0  0  0  0  0  0  0  0
    1.7533   10.6435    0.0055 C   0  0  0  0  0  0  0  0  0  0  0  0
    1.3751   11.8799   -0.6526 C   0  0  0  0  0  0  0  0  0  0  0  0
    1.7215   13.0993   -0.0822 C   0  0  0  0  0  0  0  0  0  0  0  0
    1.3467   14.2689   -0.7346 C   0  0  0  0  0  0  0  0  0  0  0  0
    0.6659   14.2217   -1.8897 N   0  0  0  0  0  0  0  0  0  0  0  0
    0.3233   13.0544   -2.4546 C   0  0  0  0  0  0  0  0  0  0  0  0
    0.6693   11.8501   -1.8502 C   0  0  0  0  0  0  0  0  0  0  0  0
    2.4496   10.7088    1.1848 C   0  0  0  0  0  0  0  0  0  0  0  0
    2.8246    9.5029    1.8366 C   0  0  0  0  0  0  0  0  0  0  0  0
   -1.0053    1.7535    3.7492 C   0  0  0  0  0  0  0  0  0  0  0  0
   -1.8421    0.6424    3.7424 C   0  0  0  0  0  0  0  0  0  0  0  0
  1  2  1  0
  2  3  2  0
  3  4  1  0
  4  5  2  0
  5  6  1  0
  6  7  1  0
  7  8  1  0
  8  9  2  0
  9 10  1  0
 10 11  2  0
 11 12  1  0
 12  7  2  0
 11 13  1  0
  8 14  1  0
 14 15  2  0
 15 16  1  0
 16 17  1  0
 17 18  2  0
 18 14  1  0
 17 19  1  0
 19 20  1  0
 20 21  2  0
 20 22  1  0
 22 23  1  0
 23 24  1  0
 24 25  2  0
 25 26  1  0
 26 27  2  0
 27 28  1  0
 28 29  2  0
 29 24  1  0
 23 30  2  0
 30 31  1  0
 19 31  2  0
  5 32  1  0
 32 33  2  0
 33  2  1  0
M  END
$$$$
s_270196____8771036____8773914
     RDKit          3D

 31 35  0  0  0  0  0  0  0  0999 V2000
    0.4406    3.6997    2.5340 S   0  0  0  0  0  0  0  0  0  0  0  0
    1.9779    2.8839    2.5130 C   0  0  0  0  0  0  0  0  0  0  0  0
    3.1753    3.5938    2.5035 C   0  0  0  0  0  0  0  0  0  0  0  0
    4.3913    2.9189    2.4880 C   0  0  0  0  0  0  0  0  0  0  0  0
    4.4147    1.5277    2.4812 C   0  0  0  0  0  0  0  0  0  0  0  0
    3.2158    0.8216    2.4897 C   0  0  0  0  0  0  0  0  0  0  0  0
    1.9973    1.4929    2.5059 C   0  0  0  0  0  0  0  0  0  0  0  0
    3.2290   -0.6987    2.4825 C   0  0  0  0  0  0  0  0  0  0  0  0
    3.1884    5.0440    2.5106 C   0  0  0  0  0  0  0  0  0  0  0  0
    4.1934    5.8093    2.8665 N   0  0  0  0  0  0  0  0  0  0  0  0
    3.8447    7.0216    2.7427 O   0  0  0  0  0  0  0  0  0  0  0  0
    2.6098    7.0802    2.3068 C   0  0  0  0  0  0  0  0  0  0  0  0
    2.1642    5.8599    2.1477 N   0  0  0  0  0  0  0  0  0  0  0  0
    1.8623    8.2949    2.0432 C   0  0  0  0  0  0  0  0  0  0  0  0
    0.4784    8.2371    1.9229 C   0  0  0  0  0  0  0  0  0  0  0  0
   -0.2123    9.4174    1.6758 C   0  0  0  0  0  0  0  0  0  0  0  0
   -1.6057    9.4677    1.5387 N   0  0  0  0  0  0  0  0  0  0  0  0
   -2.2022    9.9850    0.3831 C   0  0  0  0  0  0  0  0  0  0  0  0
   -3.4175   10.0521    0.2752 O   0  0  0  0  0  0  0  0  0  0  0  0
   -1.2769   10.4665   -0.7230 C   0  0  0  0  0  0  0  0  0  0  0  0
   -0.8973   11.9135   -0.4712 C   0  0  0  0  0  0  0  0  0  0  0  0
   -0.4220   11.9741    1.2702 S   0  0  0  0  0  0  0  0  0  0  0  0
    0.5436   10.5698    1.5726 C   0  0  0  0  0  0  0  0  0  0  0  0
    1.9219   10.6593    1.6860 C   0  0  0  0  0  0  0  0  0  0  0  0
    2.5901    9.4702    1.9296 C   0  0  0  0  0  0  0  0  0  0  0  0
   -0.6005    2.3144    2.6883 C   0  0  0  0  0  0  0  0  0  0  0  0
   -1.0772    1.6764    1.5477 C   0  0  0  0  0  0  0  0  0  0  0  0
   -1.9089    0.5695    1.6855 C   0  0  0  0  0  0  0  0  0  0  0  0
   -2.2610    0.1062    2.9488 C   0  0  0  0  0  0  0  0  0  0  0  0
   -1.7795    0.7520    4.0828 C   0  0  0  0  0  0  0  0  0  0  0  0
   -0.9472    1.8593    3.9567 C   0  0  0  0  0  0  0  0  0  0  0  0
  1  2  1  0
  2  3  1  0
  3  4  2  0
  4  5  1  0
  5  6  2  0
  6  7  1  0
  7  2  2  0
  6  8  1  0
  3  9  1  0
  9 10  2  0
 10 11  1  0
 11 12  1  0
 12 13  2  0
 13  9  1  0
 12 14  1  0
 14 15  2  0
 15 16  1  0
 16 17  1  0
 17 18  1  0
 18 19  2  0
 18 20  1  0
 20 21  1  0
 21 22  1  0
 22 23  1  0
 23 16  2  0
 23 24  1  0
 24 25  2  0
 25 14  1  0
  1 26  1  0
 26 27  2  0
 27 28  1  0
 28 29  2  0
 29 30  1  0
 30 31  2  0
 31 26  1  0
M  END
$$$$
m_271722____10195448____11367582
     RDKit          3D

 34 38  0  0  0  0  0  0  0  0999 V2000
   -2.0637   -4.5382   -1.2685 Cl  0  0  0  0  0  0  0  0  0  0  0  0
   -1.1293   -3.2691   -0.4405 C   0  0  0  0  0  0  0  0  0  0  0  0
   -0.3635   -3.5862    0.6766 C   0  0  0  0  0  0  0  0  0  0  0  0
    0.3710   -2.6032    1.3313 C   0  0  0  0  0  0  0  0  0  0  0  0
    0.3272   -1.2983    0.8520 C   0  0  0  0  0  0  0  0  0  0  0  0
    1.0365   -0.3360    1.4797 O   0  0  0  0  0  0  0  0  0  0  0  0
    1.0000    1.0000    1.0000 C   0  0  0  0  0  0  0  0  0  0  0  0
    1.8778    1.8778    1.8778 C   0  0  0  0  0  0  0  0  0  0  0  0
    3.2214    2.0410    1.5554 C   0  0  0  0  0  0  0  0  0  0  0  0
    4.0287    2.8439    2.3540 C   0  0  0  0  0  0  0  0  0  0  0  0
    3.4804    3.4749    3.4660 C   0  0  0  0  0  0  0  0  0  0  0  0
    2.1378    3.3115    3.7896 C   0  0  0  0  0  0  0  0  0  0  0  0
    1.3307    2.5074    2.9916 C   0  0  0  0  0  0  0  0  0  0  0  0
    4.3171    4.3138    4.3015 C   0  0  0  0  0  0  0  0  0  0  0  0
    5.5932    4.5519    4.1122 O   0  0  0  0  0  0  0  0  0  0  0  0
    5.9800    5.3526    5.0776 C   0  0  0  0  0  0  0  0  0  0  0  0
    4.9562    5.6091    5.8570 N   0  0  0  0  0  0  0  0  0  0  0  0
    3.9202    4.9621    5.3724 N   0  0  0  0  0  0  0  0  0  0  0  0
    7.3232    5.8698    5.2558 C   0  0  0  0  0  0  0  0  0  0  0  0
    8.3276    5.5217    4.3585 C   0  0  0  0  0  0  0  0  0  0  0  0
    8.0561    4.7144    3.3364 F   0  0  0  0  0  0  0  0  0  0  0  0
    9.6188    6.0136    4.5214 C   0  0  0  0  0  0  0  0  0  0  0  0
    9.8897    6.8565    5.5944 C   0  0  0  0  0  0  0  0  0  0  0  0
   11.2311    7.3749    5.7747 C   0  0  0  0  0  0  0  0  0  0  0  0
   11.7088    7.6644    7.0489 C   0  0  0  0  0  0  0  0  0  0  0  0
   12.9535    8.1438    7.1907 N   0  0  0  0  0  0  0  0  0  0  0  0
   13.7483    8.3504    6.1306 C   0  0  0  0  0  0  0  0  0  0  0  0
   13.3031    8.0770    4.8951 N   0  0  0  0  0  0  0  0  0  0  0  0
   12.0685    7.5956    4.6867 C   0  0  0  0  0  0  0  0  0  0  0  0
    8.8945    7.2115    6.4994 C   0  0  0  0  0  0  0  0  0  0  0  0
    7.6077    6.7133    6.3249 C   0  0  0  0  0  0  0  0  0  0  0  0
   -0.4355   -0.9682   -0.2642 C   0  0  0  0  0  0  0  0  0  0  0  0
   -1.1657   -1.9605   -0.9107 C   0  0  0  0  0  0  0  0  0  0  0  0
   -0.3150   -5.0118    1.2018 C   0  0  0  0  0  0  0  0  0  0  0  0
  1  2  1  0
  2  3  2  0
  3  4  1  0
  4  5  2  0
  5  6  1  0
  6  7  1  0
  7  8  1  0
  8  9  2  0
  9 10  1  0
 10 11  2  0
 11 12  1  0
 12 13  2  0
 13  8  1  0
 11 14  1  0
 14 15  1  0
 15 16  1  0
 16 17  2  0
 17 18  1  0
 14 18  2  0
 16 19  1  0
 19 20  2  0
 20 21  1  0
 20 22  1  0
 22 23  2  0
 23 24  1  0
 24 25  2  0
 25 26  1  0
 26 27  2  0
 27 28  1  0
 28 29  2  0
 29 24  1  0
 23 30  1  0
 30 31  2  0
 31 19  1  0
  5 32  1  0
 32 33  2  0
 33  2  1  0
  3 34  1  0
M  END
$$$$
m_276010b____17281670____17259588____13624808
     RDKit          3D

 31 35  0  0  0  0  0  0  0  0999 V2000
   -3.7219    5.0929    2.9701 Br  0  0  0  0  0  0  0  0  0  0  0  0
   -2.9697    3.3945    2.3439 C   0  0  0  0  0  0  0  0  0  0  0  0
   -3.7380    2.2335    2.3090 C   0  0  0  0  0  0  0  0  0  0  0  0
   -5.0225    2.2202    2.6994 N   0  0  0  0  0  0  0  0  0  0  0  0
   -5.7668    1.1044    2.6682 C   0  0  0  0  0  0  0  0  0  0  0  0
   -5.1892   -0.0778    2.2159 C   0  0  0  0  0  0  0  0  0  0  0  0
   -3.9063   -0.0645    1.8253 N   0  0  0  0  0  0  0  0  0  0  0  0
   -3.1596    1.0506    1.8559 C   0  0  0  0  0  0  0  0  0  0  0  0
   -1.8300    1.0413    1.4453 C   0  0  0  0  0  0  0  0  0  0  0  0
   -1.0684    2.2044    1.4821 C   0  0  0  0  0  0  0  0  0  0  0  0
   -1.6403    3.3897    1.9339 C   0  0  0  0  0  0  0  0  0  0  0  0
    0.3150    2.1853    1.0517 C   0  0  0  0  0  0  0  0  0  0  0  0
    0.8607    3.2077    0.7405 O   0  0  0  0  0  0  0  0  0  0  0  0
    1.0000    1.0000    1.0000 N   0  0  0  0  0  0  0  0  0  0  0  0
    2.4006    1.0000    1.0000 C   0  0  0  0  0  0  0  0  0  0  0  0
    3.1015    0.1140    0.1883 C   0  0  0  0  0  0  0  0  0  0  0  0
    4.4921    0.1379    0.2108 C   0  0  0  0  0  0  0  0  0  0  0  0
    5.1443    1.0019    1.0029 N   0  0  0  0  0  0  0  0  0  0  0  0
    4.4864    1.8640    1.7920 C   0  0  0  0  0  0  0  0  0  0  0  0
    3.0960    1.8882    1.8141 C   0  0  0  0  0  0  0  0  0  0  0  0
    5.1832   -0.7594   -0.6116 N   0  0  0  0  0  0  0  0  0  0  0  0
    4.6911   -1.8628   -1.1197 N   0  0  0  0  0  0  0  0  0  0  0  0
    5.5552   -2.4632   -1.8175 N   0  0  0  0  0  0  0  0  0  0  0  0
    6.7009   -1.7267   -1.7901 C   0  0  0  0  0  0  0  0  0  0  0  0
    7.9444   -2.0537   -2.4610 C   0  0  0  0  0  0  0  0  0  0  0  0
    9.0369   -1.2011   -2.3414 C   0  0  0  0  0  0  0  0  0  0  0  0
   10.2275   -1.5182   -2.9874 C   0  0  0  0  0  0  0  0  0  0  0  0
   10.3195   -2.6812   -3.7448 C   0  0  0  0  0  0  0  0  0  0  0  0
    9.2218   -3.5256   -3.8568 C   0  0  0  0  0  0  0  0  0  0  0  0
    8.0256   -3.2194   -3.2163 C   0  0  0  0  0  0  0  0  0  0  0  0
    6.4748   -0.6328   -1.0171 C   0  0  0  0  0  0  0  0  0  0  0  0
  1  2  1  0
  2  3  2  0
  3  4  1  0
  4  5  2  0
  5  6  1  0
  6  7  2  0
  7  8  1  0
  8  3  1  0
  8  9  2  0
  9 10  1  0
 10 11  2  0
 11  2  1  0
 10 12  1  0
 12 13  2  0
 12 14  1  0
 14 15  1  0
 15 16  2  0
 16 17  1  0
 17 18  2  0
 18 19  1  0
 19 20  2  0
 20 15  1  0
 17 21  1  0
 21 22  1  0
 22 23  2  0
 23 24  1  0
 24 25  1  0
 25 26  2  0
 26 27  1  0
 27 28  2  0
 28 29  1  0
 29 30  2  0
 30 25  1  0
 24 31  2  0
 31 21  1  0
M  END
$$$$
m_276096____15506918____13711158
     RDKit          3D

 34 38  0  0  0  0  0  0  0  0999 V2000
    3.3287    3.5724    2.4687 S   0  0  0  0  0  0  0  0  0  0  0  0
    4.2262    2.1265    2.4440 C   0  0  0  0  0  0  0  0  0  0  0  0
    3.3528    1.1511    2.4644 N   0  0  0  0  0  0  0  0  0  0  0  0
    2.0377    1.5325    2.4911 C   0  0  0  0  0  0  0  0  0  0  0  0
    0.9124    0.6182    2.5170 C   0  0  0  0  0  0  0  0  0  0  0  0
    1.0361   -0.6275    1.9099 C   0  0  0  0  0  0  0  0  0  0  0  0
   -0.0378   -1.5114    1.9295 C   0  0  0  0  0  0  0  0  0  0  0  0
   -1.2229   -1.1384    2.5553 C   0  0  0  0  0  0  0  0  0  0  0  0
   -2.3085   -2.0211    2.5796 N   0  0  0  0  0  0  0  0  0  0  0  0
   -2.1813   -3.2493    3.1732 C   0  0  0  0  0  0  0  0  0  0  0  0
   -1.4252   -3.3954    4.0935 O   0  0  0  0  0  0  0  0  0  0  0  0
   -2.9604   -4.3728    2.6894 C   0  0  0  0  0  0  0  0  0  0  0  0
   -3.1595   -5.4778    3.5104 C   0  0  0  0  0  0  0  0  0  0  0  0
   -3.9067   -6.5537    3.0420 C   0  0  0  0  0  0  0  0  0  0  0  0
   -4.4495   -6.5187    1.7618 C   0  0  0  0  0  0  0  0  0  0  0  0
   -4.2445   -5.4093    0.9507 C   0  0  0  0  0  0  0  0  0  0  0  0
   -3.4986   -4.3275    1.4072 C   0  0  0  0  0  0  0  0  0  0  0  0
   -1.3459    0.1077    3.1622 C   0  0  0  0  0  0  0  0  0  0  0  0
   -0.2719    0.9916    3.1428 C   0  0  0  0  0  0  0  0  0  0  0  0
    1.7793    2.8660    2.4982 C   0  0  0  0  0  0  0  0  0  0  0  0
    5.6199    2.0170    2.4168 N   0  0  0  0  0  0  0  0  0  0  0  0
    6.4523    3.2286    2.4073 C   0  0  0  0  0  0  0  0  0  0  0  0
    7.8870    2.8603    2.7491 C   0  0  0  0  0  0  0  0  0  0  0  0
    8.9089    3.8039    2.7102 C   0  0  0  0  0  0  0  0  0  0  0  0
    8.6527    5.1828    2.3416 C   0  0  0  0  0  0  0  0  0  0  0  0
    8.3217    5.5352    1.0370 C   0  0  0  0  0  0  0  0  0  0  0  0
    8.0859    6.8134    0.7066 N   0  0  0  0  0  0  0  0  0  0  0  0
    8.1612    7.7930    1.6197 C   0  0  0  0  0  0  0  0  0  0  0  0
    8.4878    7.5061    2.9410 C   0  0  0  0  0  0  0  0  0  0  0  0
    8.7352    6.1858    3.3016 C   0  0  0  0  0  0  0  0  0  0  0  0
   10.2107    3.4329    3.0295 C   0  0  0  0  0  0  0  0  0  0  0  0
   10.4911    2.1177    3.3877 C   0  0  0  0  0  0  0  0  0  0  0  0
    9.4698    1.1741    3.4250 C   0  0  0  0  0  0  0  0  0  0  0  0
    8.1677    1.5454    3.1061 C   0  0  0  0  0  0  0  0  0  0  0  0
  1  2  1  0
  2  3  2  0
  3  4  1  0
  4  5  1  0
  5  6  2  0
  6  7  1  0
  7  8  2  0
  8  9  1  0
  9 10  1  0
 10 11  2  0
 10 12  1  0
 12 13  2  0
 13 14  1  0
 14 15  2  0
 15 16  1  0
 16 17  2  0
 17 12  1  0
  8 18  1  0
 18 19  2  0
 19  5  1  0
  4 20  2  0
 20  1  1  0
  2 21  1  0
 21 22  1  0
 22 23  1  0
 23 24  1  0
 24 25  1  0
 25 26  2  0
 26 27  1  0
 27 28  2  0
 28 29  1  0
 29 30  2  0
 30 25  1  0
 24 31  2  0
 31 32  1  0
 32 33  2  0
 33 34  1  0
 34 23  2  0
M  END
$$$$
s_270196____10804396____8776130
     RDKit          3D

 34 38  0  0  0  0  0  0  0  0999 V2000
   -1.9215   -5.0183    2.5052 S   0  0  0  0  0  0  0  0  0  0  0  0
   -0.2226   -4.9376    2.4961 C   0  0  0  0  0  0  0  0  0  0  0  0
    0.2280   -6.2395    2.4843 C   0  0  0  0  0  0  0  0  0  0  0  0
   -0.7729   -7.1833    2.4904 N   0  0  0  0  0  0  0  0  0  0  0  0
   -1.9979   -6.7195    2.5020 C   0  0  0  0  0  0  0  0  0  0  0  0
   -3.2878   -7.5261    2.5119 C   0  0  0  0  0  0  0  0  0  0  0  0
   -3.6751   -7.7583    1.2609 F   0  0  0  0  0  0  0  0  0  0  0  0
   -3.0822   -8.6833    3.1344 F   0  0  0  0  0  0  0  0  0  0  0  0
   -4.2337   -6.8419    3.1490 F   0  0  0  0  0  0  0  0  0  0  0  0
    1.6181   -6.3130    2.4683 C   0  0  0  0  0  0  0  0  0  0  0  0
    2.4219   -5.1757    2.4659 C   0  0  0  0  0  0  0  0  0  0  0  0
    1.8739   -3.8958    2.4796 C   0  0  0  0  0  0  0  0  0  0  0  0
    0.4972   -3.7550    2.4938 C   0  0  0  0  0  0  0  0  0  0  0  0
    2.6599   -2.6781    2.4792 C   0  0  0  0  0  0  0  0  0  0  0  0
    3.9699   -2.6000    2.4670 N   0  0  0  0  0  0  0  0  0  0  0  0
    4.3041   -1.3773    2.4683 O   0  0  0  0  0  0  0  0  0  0  0  0
    3.2280   -0.6288    2.4827 C   0  0  0  0  0  0  0  0  0  0  0  0
    2.1766   -1.4082    2.4886 N   0  0  0  0  0  0  0  0  0  0  0  0
    3.2062    0.8215    2.4897 C   0  0  0  0  0  0  0  0  0  0  0  0
    1.9856    1.4890    2.5053 C   0  0  0  0  0  0  0  0  0  0  0  0
    1.9769    2.8800    2.5117 C   0  0  0  0  0  0  0  0  0  0  0  0
    0.7417    3.5392    2.5275 N   0  0  0  0  0  0  0  0  0  0  0  0
   -0.2488    3.1179    3.3750 C   0  0  0  0  0  0  0  0  0  0  0  0
    0.0255    2.4498    4.3333 O   0  0  0  0  0  0  0  0  0  0  0  0
   -1.6288    3.4794    3.1140 C   0  0  0  0  0  0  0  0  0  0  0  0
   -2.6559    2.7416    3.6935 C   0  0  0  0  0  0  0  0  0  0  0  0
   -3.9782    3.0913    3.4398 C   0  0  0  0  0  0  0  0  0  0  0  0
   -4.2654    4.1725    2.6131 C   0  0  0  0  0  0  0  0  0  0  0  0
   -3.2314    4.9025    2.0402 C   0  0  0  0  0  0  0  0  0  0  0  0
   -1.9050    4.5625    2.2856 C   0  0  0  0  0  0  0  0  0  0  0  0
    3.1722    3.5930    2.5023 C   0  0  0  0  0  0  0  0  0  0  0  0
    4.3872    2.9146    2.4871 C   0  0  0  0  0  0  0  0  0  0  0  0
    4.4074    1.5237    2.4807 C   0  0  0  0  0  0  0  0  0  0  0  0
    3.1505    5.1125    2.5107 C   0  0  0  0  0  0  0  0  0  0  0  0
  1  2  1  0
  2  3  2  0
  3  4  1  0
  4  5  2  0
  5  1  1  0
  5  6  1  0
  6  7  1  0
  6  8  1  0
  6  9  1  0
  3 10  1  0
 10 11  2  0
 11 12  1  0
 12 13  2  0
 13  2  1  0
 12 14  1  0
 14 15  2  0
 15 16  1  0
 16 17  1  0
 17 18  2  0
 18 14  1  0
 17 19  1  0
 19 20  2  0
 20 21  1  0
 21 22  1  0
 22 23  1  0
 23 24  2  0
 23 25  1  0
 25 26  2  0
 26 27  1  0
 27 28  2  0
 28 29  1  0
 29 30  2  0
 30 25  1  0
 21 31  2  0
 31 32  1  0
 32 33  2  0
 33 19  1  0
 31 34  1  0
M  END
$$$$
s_270196____9420446____8776130
     RDKit          3D

 33 37  0  0  0  0  0  0  0  0999 V2000
   -1.4880   -7.2425    0.5029 O   0  0  0  0  0  0  0  0  0  0  0  0
   -2.0269   -6.1628    0.6903 C   0  0  0  0  0  0  0  0  0  0  0  0
   -1.4005   -5.0726    1.2948 N   0  0  0  0  0  0  0  0  0  0  0  0
   -0.1352   -5.0638    1.8890 C   0  0  0  0  0  0  0  0  0  0  0  0
    0.6161   -3.8932    1.8848 C   0  0  0  0  0  0  0  0  0  0  0  0
    1.8736   -3.8963    2.4796 C   0  0  0  0  0  0  0  0  0  0  0  0
    2.3811   -5.0479    3.0713 C   0  0  0  0  0  0  0  0  0  0  0  0
    1.6124   -6.2071    3.0639 C   0  0  0  0  0  0  0  0  0  0  0  0
    0.3523   -6.2268    2.4754 C   0  0  0  0  0  0  0  0  0  0  0  0
    2.6599   -2.6781    2.4792 C   0  0  0  0  0  0  0  0  0  0  0  0
    3.9699   -2.6000    2.4670 N   0  0  0  0  0  0  0  0  0  0  0  0
    4.3041   -1.3773    2.4683 O   0  0  0  0  0  0  0  0  0  0  0  0
    3.2280   -0.6288    2.4827 C   0  0  0  0  0  0  0  0  0  0  0  0
    2.1766   -1.4082    2.4886 N   0  0  0  0  0  0  0  0  0  0  0  0
    3.2062    0.8215    2.4897 C   0  0  0  0  0  0  0  0  0  0  0  0
    1.9856    1.4890    2.5053 C   0  0  0  0  0  0  0  0  0  0  0  0
    1.9769    2.8800    2.5117 C   0  0  0  0  0  0  0  0  0  0  0  0
    0.7417    3.5392    2.5275 N   0  0  0  0  0  0  0  0  0  0  0  0
   -0.3989    2.8493    2.8435 C   0  0  0  0  0  0  0  0  0  0  0  0
   -0.3263    1.8120    3.4425 O   0  0  0  0  0  0  0  0  0  0  0  0
   -1.6943    3.3726    2.4542 C   0  0  0  0  0  0  0  0  0  0  0  0
   -2.8484    2.6670    2.7783 C   0  0  0  0  0  0  0  0  0  0  0  0
   -4.0887    3.1721    2.4022 C   0  0  0  0  0  0  0  0  0  0  0  0
   -4.1685    4.3751    1.7084 C   0  0  0  0  0  0  0  0  0  0  0  0
   -3.0090    5.0716    1.3905 C   0  0  0  0  0  0  0  0  0  0  0  0
   -1.7627    4.5767    1.7604 C   0  0  0  0  0  0  0  0  0  0  0  0
    3.1722    3.5930    2.5023 C   0  0  0  0  0  0  0  0  0  0  0  0
    4.3872    2.9146    2.4871 C   0  0  0  0  0  0  0  0  0  0  0  0
    4.4074    1.5237    2.4807 C   0  0  0  0  0  0  0  0  0  0  0  0
    3.1505    5.1125    2.5107 C   0  0  0  0  0  0  0  0  0  0  0  0
   -2.3045   -3.9323    1.2017 C   0  0  0  0  0  0  0  0  0  0  0  0
   -3.6551   -4.5608    0.9409 C   0  0  0  0  0  0  0  0  0  0  0  0
   -3.3447   -5.8599    0.3384 N   0  0  0  0  0  0  0  0  0  0  0  0
  1  2  2  0
  2  3  1  0
  3  4  1  0
  4  5  2  0
  5  6  1  0
  6  7  2  0
  7  8  1  0
  8  9  2  0
  9  4  1  0
  6 10  1  0
 10 11  2  0
 11 12  1  0
 12 13  1  0
 13 14  2  0
 14 10  1  0
 13 15  1  0
 15 16  2  0
 16 17  1  0
 17 18  1  0
 18 19  1  0
 19 20  2  0
 19 21  1  0
 21 22  2  0
 22 23  1  0
 23 24  2  0
 24 25  1  0
 25 26  2  0
 26 21  1  0
 17 27  2  0
 27 28  1  0
 28 29  2  0
 29 15  1  0
 27 30  1  0
  3 31  1  0
 31 32  1  0
 32 33  1  0
 33  2  1  0
M  END
$$$$
s_270196____16763670____8776130
     RDKit          3D

 35 39  0  0  0  0  0  0  0  0999 V2000
   -2.4050    2.2964    0.6559 O   0  0  0  0  0  0  0  0  0  0  0  0
   -3.1587    2.5052    1.5661 C   0  0  0  0  0  0  0  0  0  0  0  0
   -2.7863    3.3408    2.5859 N   0  0  0  0  0  0  0  0  0  0  0  0
   -1.5262    3.9512    2.5662 C   0  0  0  0  0  0  0  0  0  0  0  0
   -1.3989    5.3371    2.5602 C   0  0  0  0  0  0  0  0  0  0  0  0
   -0.1353    5.9199    2.5409 C   0  0  0  0  0  0  0  0  0  0  0  0
    1.0008    5.1174    2.5270 C   0  0  0  0  0  0  0  0  0  0  0  0
    0.8613    3.7330    2.5327 C   0  0  0  0  0  0  0  0  0  0  0  0
   -0.3968    3.1393    2.5523 C   0  0  0  0  0  0  0  0  0  0  0  0
    2.0463    2.8968    2.5180 C   0  0  0  0  0  0  0  0  0  0  0  0
    3.2848    3.3259    2.4991 O   0  0  0  0  0  0  0  0  0  0  0  0
    4.0764    2.3360    2.4914 N   0  0  0  0  0  0  0  0  0  0  0  0
    3.3683    1.2311    2.5037 C   0  0  0  0  0  0  0  0  0  0  0  0
    2.0573    1.5880    2.5200 N   0  0  0  0  0  0  0  0  0  0  0  0
    3.8900   -0.1219    2.4978 C   0  0  0  0  0  0  0  0  0  0  0  0
    3.0012   -1.1921    2.5128 C   0  0  0  0  0  0  0  0  0  0  0  0
    3.4921   -2.4936    2.5073 C   0  0  0  0  0  0  0  0  0  0  0  0
    4.8663   -2.7091    2.4878 C   0  0  0  0  0  0  0  0  0  0  0  0
    5.3706   -4.0188    2.4823 N   0  0  0  0  0  0  0  0  0  0  0  0
    6.2996   -4.4866    3.2890 N   0  0  0  0  0  0  0  0  0  0  0  0
    6.5441   -5.7463    3.0160 C   0  0  0  0  0  0  0  0  0  0  0  0
    5.6891   -6.0950    1.9549 C   0  0  0  0  0  0  0  0  0  0  0  0
    4.9590   -4.9968    1.6291 C   0  0  0  0  0  0  0  0  0  0  0  0
    3.9910   -4.8988    0.6237 N   0  0  0  0  0  0  0  0  0  0  0  0
    5.6027   -7.4566    1.2877 C   0  0  0  0  0  0  0  0  0  0  0  0
    7.5448   -6.6507    3.7173 C   0  0  0  0  0  0  0  0  0  0  0  0
    5.7548   -1.6382    2.4729 C   0  0  0  0  0  0  0  0  0  0  0  0
    5.2638   -0.3367    2.4782 C   0  0  0  0  0  0  0  0  0  0  0  0
   -2.6399    6.2142    2.5767 C   0  0  0  0  0  0  0  0  0  0  0  0
   -4.4638    1.8730    1.5866 C   0  0  0  0  0  0  0  0  0  0  0  0
   -5.0093    1.3802    0.4057 C   0  0  0  0  0  0  0  0  0  0  0  0
   -6.2618    0.7753    0.4297 C   0  0  0  0  0  0  0  0  0  0  0  0
   -6.9584    0.6656    1.6286 C   0  0  0  0  0  0  0  0  0  0  0  0
   -6.4034    1.1611    2.8021 C   0  0  0  0  0  0  0  0  0  0  0  0
   -5.1521    1.7686    2.7912 C   0  0  0  0  0  0  0  0  0  0  0  0
  1  2  2  0
  2  3  1  0
  3  4  1  0
  4  5  2  0
  5  6  1  0
  6  7  2  0
  7  8  1  0
  8  9  2  0
  9  4  1  0
  8 10  1  0
 10 11  1  0
 11 12  1  0
 12 13  2  0
 13 14  1  0
 10 14  2  0
 13 15  1  0
 15 16  2  0
 16 17  1  0
 17 18  2  0
 18 19  1  0
 19 20  1  0
 20 21  2  0
 21 22  1  0
 22 23  2  0
 23 19  1  0
 23 24  1  0
 22 25  1  0
 21 26  1  0
 18 27  1  0
 27 28  2  0
 28 15  1  0
  5 29  1  0
  2 30  1  0
 30 31  2  0
 31 32  1  0
 32 33  2  0
 33 34  1  0
 34 35  2  0
 35 30  1  0
M  END
$$$$
s_270196____8770372____15614002
     RDKit          3D

 32 36  0  0  0  0  0  0  0  0999 V2000
    2.3839   -3.9007    4.7856 O   0  0  0  0  0  0  0  0  0  0  0  0
    2.1301   -4.1978    3.6304 C   0  0  0  0  0  0  0  0  0  0  0  0
    2.6224   -3.5743    2.5242 N   0  0  0  0  0  0  0  0  0  0  0  0
    3.5071   -2.4883    2.5086 C   0  0  0  0  0  0  0  0  0  0  0  0
    3.0019   -1.1924    2.5128 C   0  0  0  0  0  0  0  0  0  0  0  0
    3.8900   -0.1218    2.4978 C   0  0  0  0  0  0  0  0  0  0  0  0
    5.2642   -0.3339    2.4780 C   0  0  0  0  0  0  0  0  0  0  0  0
    5.7472   -1.6383    2.4743 C   0  0  0  0  0  0  0  0  0  0  0  0
    4.8777   -2.7237    2.4895 C   0  0  0  0  0  0  0  0  0  0  0  0
    3.3683    1.2311    2.5037 C   0  0  0  0  0  0  0  0  0  0  0  0
    4.0764    2.3360    2.4914 N   0  0  0  0  0  0  0  0  0  0  0  0
    3.2848    3.3259    2.4991 O   0  0  0  0  0  0  0  0  0  0  0  0
    2.0463    2.8968    2.5180 C   0  0  0  0  0  0  0  0  0  0  0  0
    2.0573    1.5880    2.5200 N   0  0  0  0  0  0  0  0  0  0  0  0
    0.8617    3.7327    2.5327 C   0  0  0  0  0  0  0  0  0  0  0  0
    0.9866    5.1013    2.3170 C   0  0  0  0  0  0  0  0  0  0  0  0
   -0.1575    5.8920    2.3318 C   0  0  0  0  0  0  0  0  0  0  0  0
   -1.4115    5.3342    2.5584 C   0  0  0  0  0  0  0  0  0  0  0  0
   -1.5114    3.9634    2.7715 C   0  0  0  0  0  0  0  0  0  0  0  0
   -0.3816    3.1525    2.7608 C   0  0  0  0  0  0  0  0  0  0  0  0
   -0.0359    7.3198    2.1079 C   0  0  0  0  0  0  0  0  0  0  0  0
    1.0098    7.8721    2.3115 O   0  0  0  0  0  0  0  0  0  0  0  0
   -1.1780    8.0801    1.6381 C   0  0  0  0  0  0  0  0  0  0  0  0
   -1.7663    7.7577    0.4195 C   0  0  0  0  0  0  0  0  0  0  0  0
   -2.8612    8.4901   -0.0278 C   0  0  0  0  0  0  0  0  0  0  0  0
   -3.3606    9.5351    0.7424 C   0  0  0  0  0  0  0  0  0  0  0  0
   -2.7652    9.8478    1.9582 C   0  0  0  0  0  0  0  0  0  0  0  0
   -1.6695    9.1235    2.4163 C   0  0  0  0  0  0  0  0  0  0  0  0
    2.0959   -4.2038    1.4366 C   0  0  0  0  0  0  0  0  0  0  0  0
    1.2876   -5.2081    1.8718 C   0  0  0  0  0  0  0  0  0  0  0  0
    1.3035   -5.2057    3.2353 N   0  0  0  0  0  0  0  0  0  0  0  0
    2.3744   -3.8470   -0.0137 C   0  0  0  0  0  0  0  0  0  0  0  0
  1  2  2  0
  2  3  1  0
  3  4  1  0
  4  5  2  0
  5  6  1  0
  6  7  2  0
  7  8  1  0
  8  9  2  0
  9  4  1  0
  6 10  1  0
 10 11  2  0
 11 12  1  0
 12 13  1  0
 13 14  2  0
 14 10  1  0
 13 15  1  0
 15 16  2  0
 16 17  1  0
 17 18  2  0
 18 19  1  0
 19 20  2  0
 20 15  1  0
 17 21  1  0
 21 22  2  0
 21 23  1  0
 23 24  2  0
 24 25  1  0
 25 26  2  0
 26 27  1  0
 27 28  2  0
 28 23  1  0
  3 29  1  0
 29 30  2  0
 30 31  1  0
 31  2  1  0
 29 32  1  0
M  END
$$$$
s_270196____16887988____8774738
     RDKit          3D

 33 37  0  0  0  0  0  0  0  0999 V2000
    5.6907   -4.5007    2.4777 Br  0  0  0  0  0  0  0  0  0  0  0  0
    4.9452   -2.6881    2.4859 C   0  0  0  0  0  0  0  0  0  0  0  0
    3.5652   -2.5140    2.5063 C   0  0  0  0  0  0  0  0  0  0  0  0
    3.0420   -1.2251    2.5122 C   0  0  0  0  0  0  0  0  0  0  0  0
    1.6310   -1.0667    2.5331 O   0  0  0  0  0  0  0  0  0  0  0  0
    0.7884   -2.2096    2.5474 C   0  0  0  0  0  0  0  0  0  0  0  0
    0.5091   -2.6153    3.9857 C   0  0  0  0  0  0  0  0  0  0  0  0
   -0.5899   -2.0820    4.6511 C   0  0  0  0  0  0  0  0  0  0  0  0
   -0.8414   -2.4552    5.9674 C   0  0  0  0  0  0  0  0  0  0  0  0
    0.0025   -3.3563    6.6081 C   0  0  0  0  0  0  0  0  0  0  0  0
    1.0971   -3.8830    5.9335 C   0  0  0  0  0  0  0  0  0  0  0  0
    1.3596   -3.5172    4.6173 C   0  0  0  0  0  0  0  0  0  0  0  0
    3.8901   -0.1220    2.4978 C   0  0  0  0  0  0  0  0  0  0  0  0
    5.2691   -0.3050    2.4775 C   0  0  0  0  0  0  0  0  0  0  0  0
    5.8002   -1.5908    2.4716 C   0  0  0  0  0  0  0  0  0  0  0  0
    3.3683    1.2311    2.5037 C   0  0  0  0  0  0  0  0  0  0  0  0
    4.0764    2.3360    2.4914 N   0  0  0  0  0  0  0  0  0  0  0  0
    3.2848    3.3259    2.4991 O   0  0  0  0  0  0  0  0  0  0  0  0
    2.0463    2.8968    2.5180 C   0  0  0  0  0  0  0  0  0  0  0  0
    2.0573    1.5880    2.5200 N   0  0  0  0  0  0  0  0  0  0  0  0
    0.8616    3.7328    2.5327 C   0  0  0  0  0  0  0  0  0  0  0  0
   -0.3920    3.1310    2.5522 C   0  0  0  0  0  0  0  0  0  0  0  0
   -1.5347    3.9245    2.5653 C   0  0  0  0  0  0  0  0  0  0  0  0
   -1.4092    5.3098    2.5594 C   0  0  0  0  0  0  0  0  0  0  0  0
   -2.5695    6.1283    2.5743 O   0  0  0  0  0  0  0  0  0  0  0  0
   -2.4409    7.5424    2.5683 C   0  0  0  0  0  0  0  0  0  0  0  0
   -2.4164    8.0403    1.1409 C   0  0  0  0  0  0  0  0  0  0  0  0
   -3.5734    8.3768    0.4978 N   0  0  0  0  0  0  0  0  0  0  0  0
   -3.4572    8.7977   -0.7372 C   0  0  0  0  0  0  0  0  0  0  0  0
   -1.7841    8.7585   -1.0590 S   0  0  0  0  0  0  0  0  0  0  0  0
   -1.2493    8.1723    0.4486 C   0  0  0  0  0  0  0  0  0  0  0  0
   -0.1550    5.9112    2.5397 C   0  0  0  0  0  0  0  0  0  0  0  0
    0.9876    5.1181    2.5262 C   0  0  0  0  0  0  0  0  0  0  0  0
  1  2  1  0
  2  3  2  0
  3  4  1  0
  4  5  1  0
  5  6  1  0
  6  7  1  0
  7  8  2  0
  8  9  1  0
  9 10  2  0
 10 11  1  0
 11 12  2  0
 12  7  1  0
  4 13  2  0
 13 14  1  0
 14 15  2  0
 15  2  1  0
 13 16  1  0
 16 17  2  0
 17 18  1  0
 18 19  1  0
 19 20  2  0
 20 16  1  0
 19 21  1  0
 21 22  2  0
 22 23  1  0
 23 24  2  0
 24 25  1  0
 25 26  1  0
 26 27  1  0
 27 28  1  0
 28 29  2  0
 29 30  1  0
 30 31  1  0
 27 31  2  0
 24 32  1  0
 32 33  2  0
 33 21  1  0
M  END
$$$$
s_708____1723544____9610922
     RDKit          3D

 31 35  0  0  0  0  0  0  0  0999 V2000
    5.4006    0.8180    2.4825 O   0  0  0  0  0  0  0  0  0  0  0  0
    4.3734    1.4806    2.4887 C   0  0  0  0  0  0  0  0  0  0  0  0
    3.1736    0.8213    2.4950 N   0  0  0  0  0  0  0  0  0  0  0  0
    1.9918    1.5154    2.5004 C   0  0  0  0  0  0  0  0  0  0  0  0
    1.9876    2.8376    2.4997 N   0  0  0  0  0  0  0  0  0  0  0  0
    3.1519    3.5620    2.4935 C   0  0  0  0  0  0  0  0  0  0  0  0
    4.3765    2.9028    2.4881 C   0  0  0  0  0  0  0  0  0  0  0  0
    5.5573    3.6412    2.4820 C   0  0  0  0  0  0  0  0  0  0  0  0
    5.5311    5.0293    2.4817 C   0  0  0  0  0  0  0  0  0  0  0  0
    6.7060    5.6912    2.4778 O   0  0  0  0  0  0  0  0  0  0  0  0
    6.7202    7.0413    2.4774 C   0  0  0  0  0  0  0  0  0  0  0  0
    6.7236    7.7303    1.2692 C   0  0  0  0  0  0  0  0  0  0  0  0
    6.7392    9.1220    1.2748 C   0  0  0  0  0  0  0  0  0  0  0  0
    6.7503    9.8133    2.4821 C   0  0  0  0  0  0  0  0  0  0  0  0
    6.7479    9.1177    3.6866 C   0  0  0  0  0  0  0  0  0  0  0  0
    6.7324    7.7265    3.6881 C   0  0  0  0  0  0  0  0  0  0  0  0
    4.3087    5.6938    2.4879 C   0  0  0  0  0  0  0  0  0  0  0  0
    3.1313    4.9536    2.4934 C   0  0  0  0  0  0  0  0  0  0  0  0
    0.6979    0.7188    2.5068 C   0  0  0  0  0  0  0  0  0  0  0  0
    0.2598    0.4524    1.0759 C   0  0  0  0  0  0  0  0  0  0  0  0
   -0.3051    1.3079    0.4523 O   0  0  0  0  0  0  0  0  0  0  0  0
    0.5245   -0.8358    0.4643 C   0  0  0  0  0  0  0  0  0  0  0  0
    0.1175   -1.0647   -0.8459 C   0  0  0  0  0  0  0  0  0  0  0  0
    0.3772   -2.3034   -1.4221 C   0  0  0  0  0  0  0  0  0  0  0  0
    1.0310   -3.3089   -0.7148 C   0  0  0  0  0  0  0  0  0  0  0  0
    1.2655   -4.4949   -1.2971 N   0  0  0  0  0  0  0  0  0  0  0  0
    0.8850   -4.7465   -2.5585 C   0  0  0  0  0  0  0  0  0  0  0  0
    0.2289   -3.7787   -3.3114 C   0  0  0  0  0  0  0  0  0  0  0  0
   -0.0273   -2.5407   -2.7314 C   0  0  0  0  0  0  0  0  0  0  0  0
    1.4270   -3.0542    0.5940 C   0  0  0  0  0  0  0  0  0  0  0  0
    1.1799   -1.8234    1.1921 C   0  0  0  0  0  0  0  0  0  0  0  0
  1  2  2  0
  2  3  1  0
  3  4  1  0
  4  5  2  0
  5  6  1  0
  6  7  2  0
  7  2  1  0
  7  8  1  0
  8  9  2  0
  9 10  1  0
 10 11  1  0
 11 12  2  0
 12 13  1  0
 13 14  2  0
 14 15  1  0
 15 16  2  0
 16 11  1  0
  9 17  1  0
 17 18  2  0
 18  6  1  0
  4 19  1  0
 19 20  1  0
 20 21  2  0
 20 22  1  0
 22 23  2  0
 23 24  1  0
 24 25  2  0
 25 26  1  0
 26 27  2  0
 27 28  1  0
 28 29  2  0
 29 24  1  0
 25 30  1  0
 30 31  2  0
 31 22  1  0
M  END
$$$$
s_527a____154924____13263490
     RDKit          3D

 34 37  0  0  0  0  0  0  0  0999 V2000
   -6.2155    1.9989    6.1149 Br  0  0  0  0  0  0  0  0  0  0  0  0
   -5.2889    1.4077    4.4919 C   0  0  0  0  0  0  0  0  0  0  0  0
   -5.9968    0.9988    3.3645 C   0  0  0  0  0  0  0  0  0  0  0  0
   -7.3390    0.9896    3.3335 N   0  0  0  0  0  0  0  0  0  0  0  0
   -8.0256    0.5960    2.2502 C   0  0  0  0  0  0  0  0  0  0  0  0
   -7.3242    0.1846    1.1212 C   0  0  0  0  0  0  0  0  0  0  0  0
   -5.9835    0.1944    1.1518 N   0  0  0  0  0  0  0  0  0  0  0  0
   -5.2944    0.5874    2.2346 C   0  0  0  0  0  0  0  0  0  0  0  0
   -3.9028    0.5898    2.2439 C   0  0  0  0  0  0  0  0  0  0  0  0
   -3.2019    1.0000    3.3729 C   0  0  0  0  0  0  0  0  0  0  0  0
   -3.8978    1.4121    4.5052 C   0  0  0  0  0  0  0  0  0  0  0  0
   -1.7530    1.0000    3.3729 C   0  0  0  0  0  0  0  0  0  0  0  0
   -1.1530    1.0000    4.4121 O   0  0  0  0  0  0  0  0  0  0  0  0
   -1.0680    1.0000    2.1865 N   0  0  0  0  0  0  0  0  0  0  0  0
    0.3150    1.0000    2.1865 N   0  0  0  0  0  0  0  0  0  0  0  0
    1.0000    1.0000    1.0000 C   0  0  0  0  0  0  0  0  0  0  0  0
    0.4000    1.0000   -0.0392 O   0  0  0  0  0  0  0  0  0  0  0  0
    2.5200    1.0000    1.0000 C   0  0  0  0  0  0  0  0  0  0  0  0
    2.9933    1.0000   -0.3388 O   0  0  0  0  0  0  0  0  0  0  0  0
    3.7694   -0.0124   -0.7803 C   0  0  0  0  0  0  0  0  0  0  0  0
    4.3611    0.0612   -2.0370 C   0  0  0  0  0  0  0  0  0  0  0  0
    5.1580   -0.9880   -2.4838 C   0  0  0  0  0  0  0  0  0  0  0  0
    5.3537   -2.0971   -1.6681 C   0  0  0  0  0  0  0  0  0  0  0  0
    4.7627   -2.1711   -0.4110 C   0  0  0  0  0  0  0  0  0  0  0  0
    3.9657   -1.1221    0.0353 C   0  0  0  0  0  0  0  0  0  0  0  0
    6.1870   -3.1848   -2.1427 C   0  0  0  0  0  0  0  0  0  0  0  0
    7.3371   -2.9830   -2.4194 O   0  0  0  0  0  0  0  0  0  0  0  0
    5.6305   -4.5167   -2.2830 C   0  0  0  0  0  0  0  0  0  0  0  0
    5.6252   -5.1336   -3.5297 C   0  0  0  0  0  0  0  0  0  0  0  0
    5.0896   -6.4109   -3.6599 C   0  0  0  0  0  0  0  0  0  0  0  0
    4.5657   -7.0620   -2.5481 C   0  0  0  0  0  0  0  0  0  0  0  0
    4.5767   -6.4363   -1.3076 C   0  0  0  0  0  0  0  0  0  0  0  0
    5.1089   -5.1590   -1.1644 C   0  0  0  0  0  0  0  0  0  0  0  0
    3.0267    2.2411    1.7165 C   0  0  0  0  0  0  0  0  0  0  0  0
  1  2  1  0
  2  3  2  0
  3  4  1  0
  4  5  2  0
  5  6  1  0
  6  7  2  0
  7  8  1  0
  8  3  1  0
  8  9  2  0
  9 10  1  0
 10 11  2  0
 11  2  1  0
 10 12  1  0
 12 13  2  0
 12 14  1  0
 14 15  1  0
 15 16  1  0
 16 17  2  0
 16 18  1  0
 18 19  1  0
 19 20  1  0
 20 21  2  0
 21 22  1  0
 22 23  2  0
 23 24  1  0
 24 25  2  0
 25 20  1  0
 23 26  1  0
 26 27  2  0
 26 28  1  0
 28 29  2  0
 29 30  1  0
 30 31  2  0
 31 32  1  0
 32 33  2  0
 33 28  1  0
 18 34  1  0
M  END
$$$$
s_270196____16763672____8784464
     RDKit          3D

 32 36  0  0  0  0  0  0  0  0999 V2000
   -6.5717    5.7404    2.3855 S   0  0  0  0  0  0  0  0  0  0  0  0
   -4.9694    6.3123    2.2917 C   0  0  0  0  0  0  0  0  0  0  0  0
   -3.7883    5.5728    2.7012 C   0  0  0  0  0  0  0  0  0  0  0  0
   -3.8992    4.4647    3.1481 O   0  0  0  0  0  0  0  0  0  0  0  0
   -2.5476    6.1404    2.5771 N   0  0  0  0  0  0  0  0  0  0  0  0
   -1.4054    5.3316    2.5620 C   0  0  0  0  0  0  0  0  0  0  0  0
   -0.2924    5.6851    3.3185 C   0  0  0  0  0  0  0  0  0  0  0  0
    0.8478    4.8878    3.3084 C   0  0  0  0  0  0  0  0  0  0  0  0
    0.8613    3.7330    2.5327 C   0  0  0  0  0  0  0  0  0  0  0  0
   -0.2464    3.3715    1.7725 C   0  0  0  0  0  0  0  0  0  0  0  0
   -1.3820    4.1750    1.7886 C   0  0  0  0  0  0  0  0  0  0  0  0
    2.0463    2.8968    2.5180 C   0  0  0  0  0  0  0  0  0  0  0  0
    3.2848    3.3259    2.4991 O   0  0  0  0  0  0  0  0  0  0  0  0
    4.0764    2.3360    2.4914 N   0  0  0  0  0  0  0  0  0  0  0  0
    3.3683    1.2311    2.5037 C   0  0  0  0  0  0  0  0  0  0  0  0
    2.0573    1.5880    2.5200 N   0  0  0  0  0  0  0  0  0  0  0  0
    3.8900   -0.1219    2.4978 C   0  0  0  0  0  0  0  0  0  0  0  0
    3.0012   -1.1921    2.5128 C   0  0  0  0  0  0  0  0  0  0  0  0
    3.4921   -2.4936    2.5073 C   0  0  0  0  0  0  0  0  0  0  0  0
    4.8663   -2.7091    2.4878 C   0  0  0  0  0  0  0  0  0  0  0  0
    5.3696   -4.0160    2.4823 N   0  0  0  0  0  0  0  0  0  0  0  0
    6.2702   -4.4876    1.6566 N   0  0  0  0  0  0  0  0  0  0  0  0
    6.5012   -5.7478    1.9535 C   0  0  0  0  0  0  0  0  0  0  0  0
    5.7093   -6.0811    3.0142 N   0  0  0  0  0  0  0  0  0  0  0  0
    5.0172   -5.0158    3.3350 C   0  0  0  0  0  0  0  0  0  0  0  0
    4.0813   -4.9240    4.3718 N   0  0  0  0  0  0  0  0  0  0  0  0
    5.7548   -1.6382    2.4729 C   0  0  0  0  0  0  0  0  0  0  0  0
    5.2638   -0.3367    2.4782 C   0  0  0  0  0  0  0  0  0  0  0  0
   -0.2926    6.9442    4.1704 C   0  0  0  0  0  0  0  0  0  0  0  0
   -5.0214    7.5689    1.7701 C   0  0  0  0  0  0  0  0  0  0  0  0
   -6.3466    8.0026    1.4759 C   0  0  0  0  0  0  0  0  0  0  0  0
   -7.3499    7.1175    1.7494 C   0  0  0  0  0  0  0  0  0  0  0  0
  1  2  1  0
  2  3  1  0
  3  4  2  0
  3  5  1  0
  5  6  1  0
  6  7  2  0
  7  8  1  0
  8  9  2  0
  9 10  1  0
 10 11  2  0
 11  6  1  0
  9 12  1  0
 12 13  1  0
 13 14  1  0
 14 15  2  0
 15 16  1  0
 12 16  2  0
 15 17  1  0
 17 18  2  0
 18 19  1  0
 19 20  2  0
 20 21  1  0
 21 22  1  0
 22 23  2  0
 23 24  1  0
 24 25  2  0
 25 21  1  0
 25 26  1  0
 20 27  1  0
 27 28  2  0
 28 17  1  0
  7 29  1  0
  2 30  2  0
 30 31  1  0
 31 32  2  0
 32  1  1  0
M  END
$$$$
s_270196____8769606____13780776
     RDKit          3D

 31 35  0  0  0  0  0  0  0  0999 V2000
   -5.5132    7.2185    3.2818 Cl  0  0  0  0  0  0  0  0  0  0  0  0
   -3.9209    6.8655    3.9953 C   0  0  0  0  0  0  0  0  0  0  0  0
   -3.5227    7.4408    5.1995 C   0  0  0  0  0  0  0  0  0  0  0  0
   -4.3171    8.2852    5.8781 N   0  0  0  0  0  0  0  0  0  0  0  0
   -3.9497    8.8488    7.0404 C   0  0  0  0  0  0  0  0  0  0  0  0
   -2.7031    8.5650    7.5878 C   0  0  0  0  0  0  0  0  0  0  0  0
   -1.8638    7.6930    6.9036 C   0  0  0  0  0  0  0  0  0  0  0  0
   -2.2640    7.1198    5.7000 C   0  0  0  0  0  0  0  0  0  0  0  0
   -1.4119    6.2467    5.0270 C   0  0  0  0  0  0  0  0  0  0  0  0
   -0.2051    5.9281    5.4905 F   0  0  0  0  0  0  0  0  0  0  0  0
   -1.8280    5.6829    3.8260 C   0  0  0  0  0  0  0  0  0  0  0  0
   -3.0829    5.9921    3.3100 C   0  0  0  0  0  0  0  0  0  0  0  0
   -0.9545    4.7721    3.1113 C   0  0  0  0  0  0  0  0  0  0  0  0
   -1.2320    4.1794    1.9755 O   0  0  0  0  0  0  0  0  0  0  0  0
   -0.2539    3.4528    1.6263 N   0  0  0  0  0  0  0  0  0  0  0  0
    0.6899    3.5540    2.5326 C   0  0  0  0  0  0  0  0  0  0  0  0
    0.2420    4.4038    3.4935 N   0  0  0  0  0  0  0  0  0  0  0  0
    1.9738    2.8798    2.5128 C   0  0  0  0  0  0  0  0  0  0  0  0
    3.1687    3.5925    2.5033 C   0  0  0  0  0  0  0  0  0  0  0  0
    4.3831    2.9141    2.4852 C   0  0  0  0  0  0  0  0  0  0  0  0
    4.4028    1.5233    2.4757 C   0  0  0  0  0  0  0  0  0  0  0  0
    3.2081    0.8106    2.4835 C   0  0  0  0  0  0  0  0  0  0  0  0
    1.9932    1.4891    2.5027 C   0  0  0  0  0  0  0  0  0  0  0  0
    3.1872    5.1125    2.5132 C   0  0  0  0  0  0  0  0  0  0  0  0
    3.2088    5.5769    3.8550 O   0  0  0  0  0  0  0  0  0  0  0  0
    3.2279    6.9026    4.1103 C   0  0  0  0  0  0  0  0  0  0  0  0
    3.2262    7.8080    3.0545 C   0  0  0  0  0  0  0  0  0  0  0  0
    3.2469    9.1734    3.3236 C   0  0  0  0  0  0  0  0  0  0  0  0
    3.2680    9.6235    4.6399 C   0  0  0  0  0  0  0  0  0  0  0  0
    3.2706    8.7122    5.6908 C   0  0  0  0  0  0  0  0  0  0  0  0
    3.2501    7.3459    5.4287 C   0  0  0  0  0  0  0  0  0  0  0  0
  1  2  1  0
  2  3  2  0
  3  4  1  0
  4  5  2  0
  5  6  1  0
  6  7  2  0
  7  8  1  0
  8  3  1  0
  8  9  2  0
  9 10  1  0
  9 11  1  0
 11 12  2  0
 12  2  1  0
 11 13  1  0
 13 14  1  0
 14 15  1  0
 15 16  2  0
 16 17  1  0
 13 17  2  0
 16 18  1  0
 18 19  1  0
 19 20  2  0
 20 21  1  0
 21 22  2  0
 22 23  1  0
 23 18  2  0
 19 24  1  0
 24 25  1  0
 25 26  1  0
 26 27  2  0
 27 28  1  0
 28 29  2  0
 29 30  1  0
 30 31  2  0
 31 26  1  0
M  END
$$$$
s_270196____8769658____8777122
     RDKit          3D

 34 38  0  0  0  0  0  0  0  0999 V2000
    6.2173    3.9923    4.1807 S   0  0  0  0  0  0  0  0  0  0  0  0
    5.2082    4.7521    4.8721 O   0  0  0  0  0  0  0  0  0  0  0  0
    6.4159    2.7345    4.8531 O   0  0  0  0  0  0  0  0  0  0  0  0
    7.7100    4.8858    4.1695 C   0  0  0  0  0  0  0  0  0  0  0  0
    7.6842    6.2767    4.1748 C   0  0  0  0  0  0  0  0  0  0  0  0
    8.8853    6.9789    4.1659 C   0  0  0  0  0  0  0  0  0  0  0  0
   10.0985    6.2986    4.1508 C   0  0  0  0  0  0  0  0  0  0  0  0
   10.1131    4.9078    4.1448 C   0  0  0  0  0  0  0  0  0  0  0  0
    8.9182    4.1958    4.1538 C   0  0  0  0  0  0  0  0  0  0  0  0
    5.6831    3.6886    2.4782 C   0  0  0  0  0  0  0  0  0  0  0  0
    4.3786    2.9076    2.4880 C   0  0  0  0  0  0  0  0  0  0  0  0
    3.1717    3.5990    2.5022 C   0  0  0  0  0  0  0  0  0  0  0  0
    1.9829    2.8772    2.5108 C   0  0  0  0  0  0  0  0  0  0  0  0
    1.9869    1.4864    2.5061 C   0  0  0  0  0  0  0  0  0  0  0  0
    3.2061    0.8170    2.4926 C   0  0  0  0  0  0  0  0  0  0  0  0
    4.4079    1.5169    2.4834 C   0  0  0  0  0  0  0  0  0  0  0  0
    0.7176    3.5861    2.5254 C   0  0  0  0  0  0  0  0  0  0  0  0
   -0.4699    3.0309    2.5347 O   0  0  0  0  0  0  0  0  0  0  0  0
   -1.3597    3.9335    2.5474 N   0  0  0  0  0  0  0  0  0  0  0  0
   -0.7698    5.1058    2.5454 C   0  0  0  0  0  0  0  0  0  0  0  0
    0.5711    4.8867    2.5303 N   0  0  0  0  0  0  0  0  0  0  0  0
   -1.4290    6.3974    2.5544 C   0  0  0  0  0  0  0  0  0  0  0  0
   -0.6553    7.5529    2.5507 C   0  0  0  0  0  0  0  0  0  0  0  0
   -1.2784    8.7968    2.5605 C   0  0  0  0  0  0  0  0  0  0  0  0
   -2.6674    8.8692    2.5730 C   0  0  0  0  0  0  0  0  0  0  0  0
   -3.2809   10.0717    2.5810 O   0  0  0  0  0  0  0  0  0  0  0  0
   -4.6280   10.1414    2.5931 C   0  0  0  0  0  0  0  0  0  0  0  0
   -5.3082   10.1785    1.4368 N   0  0  0  0  0  0  0  0  0  0  0  0
   -6.6472   10.2468    1.4168 C   0  0  0  0  0  0  0  0  0  0  0  0
   -7.3466   10.2789    2.6187 C   0  0  0  0  0  0  0  0  0  0  0  0
   -6.6261   10.2390    3.8071 C   0  0  0  0  0  0  0  0  0  0  0  0
   -5.2877   10.1710    3.7605 N   0  0  0  0  0  0  0  0  0  0  0  0
   -3.4408    7.7130    2.5769 C   0  0  0  0  0  0  0  0  0  0  0  0
   -2.8182    6.4693    2.5676 C   0  0  0  0  0  0  0  0  0  0  0  0
  1  2  2  0
  1  3  2  0
  1  4  1  0
  4  5  2  0
  5  6  1  0
  6  7  2  0
  7  8  1  0
  8  9  2  0
  9  4  1  0
  1 10  1  0
 10 11  1  0
 11 12  2  0
 12 13  1  0
 13 14  2  0
 14 15  1  0
 15 16  2  0
 16 11  1  0
 13 17  1  0
 17 18  1  0
 18 19  1  0
 19 20  2  0
 20 21  1  0
 17 21  2  0
 20 22  1  0
 22 23  2  0
 23 24  1  0
 24 25  2  0
 25 26  1  0
 26 27  1  0
 27 28  2  0
 28 29  1  0
 29 30  2  0
 30 31  1  0
 31 32  2  0
 32 27  1  0
 25 33  1  0
 33 34  2  0
 34 22  1  0
M  END
$$$$
s_708____5904736____1322132
     RDKit          3D

 32 36  0  0  0  0  0  0  0  0999 V2000
    9.2893    7.1541    7.5704 Cl  0  0  0  0  0  0  0  0  0  0  0  0
    8.5087    6.7142    6.0327 C   0  0  0  0  0  0  0  0  0  0  0  0
    7.6130    7.5966    5.4382 C   0  0  0  0  0  0  0  0  0  0  0  0
    7.0057    7.2470    4.2370 C   0  0  0  0  0  0  0  0  0  0  0  0
    7.2995    6.0237    3.6441 C   0  0  0  0  0  0  0  0  0  0  0  0
    6.7060    5.6912    2.4778 O   0  0  0  0  0  0  0  0  0  0  0  0
    5.5301    5.0284    2.4838 C   0  0  0  0  0  0  0  0  0  0  0  0
    5.5511    3.6390    2.4849 C   0  0  0  0  0  0  0  0  0  0  0  0
    4.3714    2.9007    2.4900 C   0  0  0  0  0  0  0  0  0  0  0  0
    3.1479    3.5642    2.4955 C   0  0  0  0  0  0  0  0  0  0  0  0
    1.9860    2.8354    2.5006 N   0  0  0  0  0  0  0  0  0  0  0  0
    1.9928    1.5131    2.5007 C   0  0  0  0  0  0  0  0  0  0  0  0
    3.1736    0.8184    2.4956 N   0  0  0  0  0  0  0  0  0  0  0  0
    4.3730    1.4784    2.4906 C   0  0  0  0  0  0  0  0  0  0  0  0
    5.4013    0.8177    2.4878 O   0  0  0  0  0  0  0  0  0  0  0  0
    0.7573    0.7542    2.5065 C   0  0  0  0  0  0  0  0  0  0  0  0
    0.8140   -0.6358    2.5067 C   0  0  0  0  0  0  0  0  0  0  0  0
   -0.3737   -1.3595    2.5107 C   0  0  0  0  0  0  0  0  0  0  0  0
   -0.3292   -2.7597    2.5104 N   0  0  0  0  0  0  0  0  0  0  0  0
   -0.3088   -3.5657    1.4127 C   0  0  0  0  0  0  0  0  0  0  0  0
   -0.3227   -3.1878    0.2533 O   0  0  0  0  0  0  0  0  0  0  0  0
   -0.2657   -4.8642    1.8219 N   0  0  0  0  0  0  0  0  0  0  0  0
   -0.2635   -4.8612    3.1855 C   0  0  0  0  0  0  0  0  0  0  0  0
   -0.2996   -3.5679    3.6068 C   0  0  0  0  0  0  0  0  0  0  0  0
   -0.3140   -3.0999    5.0522 C   0  0  0  0  0  0  0  0  0  0  0  0
   -1.6063   -0.7152    2.5150 C   0  0  0  0  0  0  0  0  0  0  0  0
   -1.6392    0.6752    2.5152 C   0  0  0  0  0  0  0  0  0  0  0  0
   -0.4640    1.4192    2.5113 C   0  0  0  0  0  0  0  0  0  0  0  0
    3.1292    4.9557    2.4948 C   0  0  0  0  0  0  0  0  0  0  0  0
    4.3085    5.6938    2.4888 C   0  0  0  0  0  0  0  0  0  0  0  0
    8.1956    5.1460    4.2438 C   0  0  0  0  0  0  0  0  0  0  0  0
    8.8063    5.4892    5.4452 C   0  0  0  0  0  0  0  0  0  0  0  0
  1  2  1  0
  2  3  2  0
  3  4  1  0
  4  5  2  0
  5  6  1  0
  6  7  1  0
  7  8  2  0
  8  9  1  0
  9 10  2  0
 10 11  1  0
 11 12  2  0
 12 13  1  0
 13 14  1  0
 14  9  1  0
 14 15  2  0
 12 16  1  0
 16 17  2  0
 17 18  1  0
 18 19  1  0
 19 20  1  0
 20 21  2  0
 20 22  1  0
 22 23  1  0
 23 24  2  0
 24 19  1  0
 24 25  1  0
 18 26  2  0
 26 27  1  0
 27 28  2  0
 28 16  1  0
 10 29  1  0
 29 30  2  0
 30  7  1  0
  5 31  1  0
 31 32  2  0
 32  2  1  0
M  END
$$$$
s_22____1028592____13263488
     RDKit          3D

 33 36  0  0  0  0  0  0  0  0999 V2000
    7.2065   -5.4109    3.5898 Br  0  0  0  0  0  0  0  0  0  0  0  0
    7.4333   -3.6108    2.8479 C   0  0  0  0  0  0  0  0  0  0  0  0
    8.4336   -3.3329    1.9196 C   0  0  0  0  0  0  0  0  0  0  0  0
    9.2858   -4.2774    1.4900 N   0  0  0  0  0  0  0  0  0  0  0  0
   10.2514   -4.0147    0.5965 C   0  0  0  0  0  0  0  0  0  0  0  0
   10.3738   -2.7216    0.0979 C   0  0  0  0  0  0  0  0  0  0  0  0
    9.5222   -1.7783    0.5263 N   0  0  0  0  0  0  0  0  0  0  0  0
    8.5555   -2.0386    1.4205 C   0  0  0  0  0  0  0  0  0  0  0  0
    7.6825   -1.0441    1.8510 C   0  0  0  0  0  0  0  0  0  0  0  0
    6.6852   -1.3283    2.7776 C   0  0  0  0  0  0  0  0  0  0  0  0
    6.5581   -2.6196    3.2804 C   0  0  0  0  0  0  0  0  0  0  0  0
    5.7802   -0.2865    3.2192 C   0  0  0  0  0  0  0  0  0  0  0  0
    5.1730   -0.4149    4.2462 O   0  0  0  0  0  0  0  0  0  0  0  0
    5.6179    0.8451    2.4642 N   0  0  0  0  0  0  0  0  0  0  0  0
    4.3954    1.5284    2.4806 C   0  0  0  0  0  0  0  0  0  0  0  0
    4.3871    2.9196    2.4880 C   0  0  0  0  0  0  0  0  0  0  0  0
    3.1705    3.5938    2.5039 C   0  0  0  0  0  0  0  0  0  0  0  0
    1.9762    2.8803    2.5120 C   0  0  0  0  0  0  0  0  0  0  0  0
    0.4106    3.7272    2.5319 Cl  0  0  0  0  0  0  0  0  0  0  0  0
    1.9925    1.4892    2.5044 C   0  0  0  0  0  0  0  0  0  0  0  0
    3.2053    0.8080    2.4886 C   0  0  0  0  0  0  0  0  0  0  0  0
    3.1754    5.0435    2.5111 C   0  0  0  0  0  0  0  0  0  0  0  0
    3.1674    5.6487    1.4749 O   0  0  0  0  0  0  0  0  0  0  0  0
    3.1892    5.7226    3.7008 N   0  0  0  0  0  0  0  0  0  0  0  0
    3.1942    7.1926    3.7081 C   0  0  0  0  0  0  0  0  0  0  0  0
    1.7868    7.7028    3.9732 C   0  0  0  0  0  0  0  0  0  0  0  0
    1.3703    7.9275    5.2812 C   0  0  0  0  0  0  0  0  0  0  0  0
    0.0814    8.3935    5.5194 C   0  0  0  0  0  0  0  0  0  0  0  0
   -0.7798    8.6327    4.4536 C   0  0  0  0  0  0  0  0  0  0  0  0
   -0.3527    8.4052    3.1511 C   0  0  0  0  0  0  0  0  0  0  0  0
    0.9335    7.9386    2.8999 C   0  0  0  0  0  0  0  0  0  0  0  0
    3.1991    4.9813    4.9702 C   0  0  0  0  0  0  0  0  0  0  0  0
    4.6355    4.7211    5.3938 C   0  0  0  0  0  0  0  0  0  0  0  0
  1  2  1  0
  2  3  2  0
  3  4  1  0
  4  5  2  0
  5  6  1  0
  6  7  2  0
  7  8  1  0
  8  3  1  0
  8  9  2  0
  9 10  1  0
 10 11  2  0
 11  2  1  0
 10 12  1  0
 12 13  2  0
 12 14  1  0
 14 15  1  0
 15 16  2  0
 16 17  1  0
 17 18  2  0
 18 19  1  0
 18 20  1  0
 20 21  2  0
 21 15  1  0
 17 22  1  0
 22 23  2  0
 22 24  1  0
 24 25  1  0
 25 26  1  0
 26 27  2  0
 27 28  1  0
 28 29  2  0
 29 30  1  0
 30 31  2  0
 31 26  1  0
 24 32  1  0
 32 33  1  0
M  END
$$$$
s_22____4146966____13263488
     RDKit          3D

 34 37  0  0  0  0  0  0  0  0999 V2000
    4.3521    6.8612   10.3357 Br  0  0  0  0  0  0  0  0  0  0  0  0
    4.7728    6.7385    8.4253 C   0  0  0  0  0  0  0  0  0  0  0  0
    5.5547    7.7029    7.7945 C   0  0  0  0  0  0  0  0  0  0  0  0
    6.0557    8.7566    8.4590 N   0  0  0  0  0  0  0  0  0  0  0  0
    6.8089    9.6886    7.8559 C   0  0  0  0  0  0  0  0  0  0  0  0
    7.0809    9.5592    6.4976 C   0  0  0  0  0  0  0  0  0  0  0  0
    6.5812    8.5063    5.8339 N   0  0  0  0  0  0  0  0  0  0  0  0
    5.8270    7.5727    6.4351 C   0  0  0  0  0  0  0  0  0  0  0  0
    5.3190    6.4880    5.7266 C   0  0  0  0  0  0  0  0  0  0  0  0
    4.5393    5.5280    6.3627 C   0  0  0  0  0  0  0  0  0  0  0  0
    4.2635    5.6523    7.7209 C   0  0  0  0  0  0  0  0  0  0  0  0
    4.0155    4.4015    5.6170 C   0  0  0  0  0  0  0  0  0  0  0  0
    3.3437    3.5756    6.1707 O   0  0  0  0  0  0  0  0  0  0  0  0
    4.2872    4.2793    4.2798 N   0  0  0  0  0  0  0  0  0  0  0  0
    3.4780    3.4708    3.4722 C   0  0  0  0  0  0  0  0  0  0  0  0
    3.9802    2.2782    2.9622 C   0  0  0  0  0  0  0  0  0  0  0  0
    3.1787    1.4732    2.1589 C   0  0  0  0  0  0  0  0  0  0  0  0
    1.8776    1.8776    1.8776 C   0  0  0  0  0  0  0  0  0  0  0  0
    1.3729    3.0698    2.3861 C   0  0  0  0  0  0  0  0  0  0  0  0
    2.1768    3.8725    3.1888 C   0  0  0  0  0  0  0  0  0  0  0  0
    1.0000    1.0000    1.0000 C   0  0  0  0  0  0  0  0  0  0  0  0
    1.0376   -0.3830    1.4967 N   0  0  0  0  0  0  0  0  0  0  0  0
    0.1261   -0.8006    2.4303 C   0  0  0  0  0  0  0  0  0  0  0  0
   -0.7030   -0.0374    2.8426 O   0  0  0  0  0  0  0  0  0  0  0  0
    0.1633   -2.1649    2.9203 C   0  0  0  0  0  0  0  0  0  0  0  0
   -0.7652   -2.5826    3.8683 C   0  0  0  0  0  0  0  0  0  0  0  0
   -0.7245   -3.8919    4.3354 C   0  0  0  0  0  0  0  0  0  0  0  0
    0.2417   -4.7673    3.8495 C   0  0  0  0  0  0  0  0  0  0  0  0
    1.1685   -4.3493    2.8994 C   0  0  0  0  0  0  0  0  0  0  0  0
    1.1287   -3.0393    2.4332 C   0  0  0  0  0  0  0  0  0  0  0  0
    0.2820   -6.1966    4.3650 C   0  0  0  0  0  0  0  0  0  0  0  0
   -0.4864   -6.9660    3.5992 F   0  0  0  0  0  0  0  0  0  0  0  0
    1.5335   -6.6454    4.3301 F   0  0  0  0  0  0  0  0  0  0  0  0
   -0.1658   -6.2291    5.6170 F   0  0  0  0  0  0  0  0  0  0  0  0
  1  2  1  0
  2  3  2  0
  3  4  1  0
  4  5  2  0
  5  6  1  0
  6  7  2  0
  7  8  1  0
  8  3  1  0
  8  9  2  0
  9 10  1  0
 10 11  2  0
 11  2  1  0
 10 12  1  0
 12 13  2  0
 12 14  1  0
 14 15  1  0
 15 16  2  0
 16 17  1  0
 17 18  2  0
 18 19  1  0
 19 20  2  0
 20 15  1  0
 18 21  1  0
 21 22  1  0
 22 23  1  0
 23 24  2  0
 23 25  1  0
 25 26  2  0
 26 27  1  0
 27 28  2  0
 28 29  1  0
 29 30  2  0
 30 25  1  0
 28 31  1  0
 31 32  1  0
 31 33  1  0
 31 34  1  0
M  END
$$$$
s_22____8765756____736388
     RDKit          3D

 33 36  0  0  0  0  0  0  0  0999 V2000
    7.3151   -2.3658    2.6843 F   0  0  0  0  0  0  0  0  0  0  0  0
    6.8645   -3.5617    2.3156 C   0  0  0  0  0  0  0  0  0  0  0  0
    5.7199   -3.6627    1.5302 C   0  0  0  0  0  0  0  0  0  0  0  0
    5.2489   -4.9129    1.1450 C   0  0  0  0  0  0  0  0  0  0  0  0
    5.9226   -6.0629    1.5433 C   0  0  0  0  0  0  0  0  0  0  0  0
    7.0669   -5.9621    2.3283 C   0  0  0  0  0  0  0  0  0  0  0  0
    7.5379   -4.7116    2.7138 C   0  0  0  0  0  0  0  0  0  0  0  0
    5.0179   -2.4638    1.1142 C   0  0  0  0  0  0  0  0  0  0  0  0
    4.2730   -2.5004    0.1741 O   0  0  0  0  0  0  0  0  0  0  0  0
    5.2051   -1.2895    1.7946 N   0  0  0  0  0  0  0  0  0  0  0  0
    4.5272   -0.1320    1.3929 C   0  0  0  0  0  0  0  0  0  0  0  0
    5.2222    1.0074    0.9980 C   0  0  0  0  0  0  0  0  0  0  0  0
    4.5255    2.1454    0.6027 C   0  0  0  0  0  0  0  0  0  0  0  0
    3.1345    2.1447    0.6027 C   0  0  0  0  0  0  0  0  0  0  0  0
    2.4504    1.0000    1.0000 C   0  0  0  0  0  0  0  0  0  0  0  0
    3.1363   -0.1436    1.3969 C   0  0  0  0  0  0  0  0  0  0  0  0
    1.0000    1.0000    1.0000 C   0  0  0  0  0  0  0  0  0  0  0  0
    0.4000    2.0391    1.0156 O   0  0  0  0  0  0  0  0  0  0  0  0
    0.3150   -0.1863    0.9822 N   0  0  0  0  0  0  0  0  0  0  0  0
   -1.0229   -0.2291    1.3967 C   0  0  0  0  0  0  0  0  0  0  0  0
   -1.4731    0.4981    2.4943 C   0  0  0  0  0  0  0  0  0  0  0  0
   -2.7579    0.4453    2.8778 N   0  0  0  0  0  0  0  0  0  0  0  0
   -3.6560   -0.3063    2.2219 C   0  0  0  0  0  0  0  0  0  0  0  0
   -4.9952   -0.3587    2.6256 N   0  0  0  0  0  0  0  0  0  0  0  0
   -5.6113   -1.5709    2.8010 C   0  0  0  0  0  0  0  0  0  0  0  0
   -6.9219   -1.6475    3.1964 C   0  0  0  0  0  0  0  0  0  0  0  0
   -7.6461   -0.4464    3.4255 C   0  0  0  0  0  0  0  0  0  0  0  0
   -8.8137   -0.4954    3.7777 O   0  0  0  0  0  0  0  0  0  0  0  0
   -6.9912    0.8007    3.2386 C   0  0  0  0  0  0  0  0  0  0  0  0
   -5.6785    0.8105    2.8424 C   0  0  0  0  0  0  0  0  0  0  0  0
   -3.2682   -1.0572    1.1166 C   0  0  0  0  0  0  0  0  0  0  0  0
   -1.9398   -1.0146    0.7058 C   0  0  0  0  0  0  0  0  0  0  0  0
    6.7418    1.0082    0.9966 C   0  0  0  0  0  0  0  0  0  0  0  0
  1  2  1  0
  2  3  2  0
  3  4  1  0
  4  5  2  0
  5  6  1  0
  6  7  2  0
  7  2  1  0
  3  8  1  0
  8  9  2  0
  8 10  1  0
 10 11  1  0
 11 12  2  0
 12 13  1  0
 13 14  2  0
 14 15  1  0
 15 16  2  0
 16 11  1  0
 15 17  1  0
 17 18  2  0
 17 19  1  0
 19 20  1  0
 20 21  2  0
 21 22  1  0
 22 23  2  0
 23 24  1  0
 24 25  1  0
 25 26  2  0
 26 27  1  0
 27 28  2  0
 27 29  1  0
 29 30  2  0
 30 24  1  0
 23 31  1  0
 31 32  2  0
 32 20  1  0
 12 33  1  0
M  END
$$$$
s_40____14935132____6361044
     RDKit          3D

 33 37  0  0  0  0  0  0  0  0999 V2000
    6.2526    0.9970   -0.6662 Br  0  0  0  0  0  0  0  0  0  0  0  0
    7.4401    2.0216    0.5100 C   0  0  0  0  0  0  0  0  0  0  0  0
    7.2926    1.9939    1.8929 C   0  0  0  0  0  0  0  0  0  0  0  0
    6.0209    1.0256    2.5812 S   0  0  0  0  0  0  0  0  0  0  0  0
    6.1923    0.9530    4.0092 O   0  0  0  0  0  0  0  0  0  0  0  0
    6.0723   -0.3010    2.0236 O   0  0  0  0  0  0  0  0  0  0  0  0
    4.4627    1.7564    2.2138 N   0  0  0  0  0  0  0  0  0  0  0  0
    4.4183    3.1079    2.7854 C   0  0  0  0  0  0  0  0  0  0  0  0
    3.0382    3.7407    2.6331 C   0  0  0  0  0  0  0  0  0  0  0  0
    1.9131    2.9753    2.3685 C   0  0  0  0  0  0  0  0  0  0  0  0
    0.6539    3.5478    2.2621 C   0  0  0  0  0  0  0  0  0  0  0  0
    0.5461    4.9255    2.4113 C   0  0  0  0  0  0  0  0  0  0  0  0
   -0.6670    5.5053    2.3105 O   0  0  0  0  0  0  0  0  0  0  0  0
   -0.7965    6.9114    2.4600 C   0  0  0  0  0  0  0  0  0  0  0  0
   -2.2559    7.3053    2.3025 C   0  0  0  0  0  0  0  0  0  0  0  0
   -3.0786    7.3403    3.4234 C   0  0  0  0  0  0  0  0  0  0  0  0
   -4.4152    7.7003    3.2855 C   0  0  0  0  0  0  0  0  0  0  0  0
   -4.9120    8.0213    2.0264 C   0  0  0  0  0  0  0  0  0  0  0  0
   -6.1889    8.3673    1.8873 F   0  0  0  0  0  0  0  0  0  0  0  0
   -4.0936    7.9870    0.9021 C   0  0  0  0  0  0  0  0  0  0  0  0
   -2.7580    7.6267    1.0460 C   0  0  0  0  0  0  0  0  0  0  0  0
    1.6655    5.7115    2.6605 C   0  0  0  0  0  0  0  0  0  0  0  0
    2.9191    5.1189    2.7725 C   0  0  0  0  0  0  0  0  0  0  0  0
    2.0545    1.4779    2.1719 C   0  0  0  0  0  0  0  0  0  0  0  0
    3.3559    0.9608    2.7659 C   0  0  0  0  0  0  0  0  0  0  0  0
    8.1577    2.7369    2.6907 C   0  0  0  0  0  0  0  0  0  0  0  0
    9.1734    3.5116    2.1384 C   0  0  0  0  0  0  0  0  0  0  0  0
   10.1412    4.3152    2.6631 N   0  0  0  0  0  0  0  0  0  0  0  0
   10.8562    4.8200    1.6187 C   0  0  0  0  0  0  0  0  0  0  0  0
   11.8034    5.5822    1.7154 O   0  0  0  0  0  0  0  0  0  0  0  0
   10.3475    4.3403    0.4484 N   0  0  0  0  0  0  0  0  0  0  0  0
    9.3020    3.5261    0.7695 C   0  0  0  0  0  0  0  0  0  0  0  0
    8.4514    2.7934   -0.0508 C   0  0  0  0  0  0  0  0  0  0  0  0
  1  2  1  0
  2  3  2  0
  3  4  1  0
  4  5  2  0
  4  6  2  0
  4  7  1  0
  7  8  1  0
  8  9  1  0
  9 10  2  0
 10 11  1  0
 11 12  2  0
 12 13  1  0
 13 14  1  0
 14 15  1  0
 15 16  2  0
 16 17  1  0
 17 18  2  0
 18 19  1  0
 18 20  1  0
 20 21  2  0
 21 15  1  0
 12 22  1  0
 22 23  2  0
 23  9  1  0
 10 24  1  0
 24 25  1  0
 25  7  1  0
  3 26  1  0
 26 27  2  0
 27 28  1  0
 28 29  1  0
 29 30  2  0
 29 31  1  0
 31 32  1  0
 32 27  1  0
 32 33  2  0
 33  2  1  0
M  END
$$$$
s_51____14059366____77354
     RDKit          3D

 37 41  0  0  0  0  0  0  0  0999 V2000
   13.2798   -2.7918    4.7904 F   0  0  0  0  0  0  0  0  0  0  0  0
   12.1531   -2.0909    4.6995 C   0  0  0  0  0  0  0  0  0  0  0  0
   11.3698   -2.1786    3.5534 C   0  0  0  0  0  0  0  0  0  0  0  0
   11.7551   -2.9661    2.5532 F   0  0  0  0  0  0  0  0  0  0  0  0
   10.1895   -1.4519    3.4442 C   0  0  0  0  0  0  0  0  0  0  0  0
    9.8076   -0.6353    4.5034 C   0  0  0  0  0  0  0  0  0  0  0  0
    8.5797    0.1259    4.4024 C   0  0  0  0  0  0  0  0  0  0  0  0
    8.1983    0.9425    5.4623 C   0  0  0  0  0  0  0  0  0  0  0  0
    7.0206    1.6776    5.3747 C   0  0  0  0  0  0  0  0  0  0  0  0
    6.2380    1.5864    4.2283 C   0  0  0  0  0  0  0  0  0  0  0  0
    5.0515    2.3221    4.1315 N   0  0  0  0  0  0  0  0  0  0  0  0
    4.2252    2.2263    2.9221 C   0  0  0  0  0  0  0  0  0  0  0  0
    3.2014    1.1115    3.0465 C   0  0  0  0  0  0  0  0  0  0  0  0
    3.4403   -0.0186    3.4185 O   0  0  0  0  0  0  0  0  0  0  0  0
    1.9504    1.6004    2.6725 N   0  0  0  0  0  0  0  0  0  0  0  0
    0.7816    0.8348    2.5870 C   0  0  0  0  0  0  0  0  0  0  0  0
   -0.4467    1.4424    2.8271 C   0  0  0  0  0  0  0  0  0  0  0  0
   -1.6083    0.6816    2.7418 C   0  0  0  0  0  0  0  0  0  0  0  0
   -1.5325   -0.6694    2.4197 C   0  0  0  0  0  0  0  0  0  0  0  0
   -2.7015   -1.4347    2.3339 N   0  0  0  0  0  0  0  0  0  0  0  0
   -2.6712   -2.6353    2.5992 N   0  0  0  0  0  0  0  0  0  0  0  0
   -3.8404   -3.4010    2.5133 C   0  0  0  0  0  0  0  0  0  0  0  0
   -3.7983   -4.7585    2.8150 C   0  0  0  0  0  0  0  0  0  0  0  0
   -4.9619   -5.5158    2.7287 C   0  0  0  0  0  0  0  0  0  0  0  0
   -6.1555   -4.9151    2.3430 C   0  0  0  0  0  0  0  0  0  0  0  0
   -6.1859   -3.5570    2.0443 C   0  0  0  0  0  0  0  0  0  0  0  0
   -5.0287   -2.7898    2.1270 C   0  0  0  0  0  0  0  0  0  0  0  0
   -0.3043   -1.2772    2.1795 C   0  0  0  0  0  0  0  0  0  0  0  0
    0.8573   -0.5163    2.2651 C   0  0  0  0  0  0  0  0  0  0  0  0
    2.0275    2.9584    2.3870 C   0  0  0  0  0  0  0  0  0  0  0  0
    1.1159    3.6374    1.9619 O   0  0  0  0  0  0  0  0  0  0  0  0
    3.4143    3.4805    2.6821 C   0  0  0  0  0  0  0  0  0  0  0  0
    6.6200    0.7694    3.1686 C   0  0  0  0  0  0  0  0  0  0  0  0
    7.7978    0.0345    3.2561 C   0  0  0  0  0  0  0  0  0  0  0  0
   10.5740   -0.5305    5.6586 C   0  0  0  0  0  0  0  0  0  0  0  0
   11.7505   -1.2668    5.7448 C   0  0  0  0  0  0  0  0  0  0  0  0
   12.5050   -1.1885    6.8372 F   0  0  0  0  0  0  0  0  0  0  0  0
  1  2  1  0
  2  3  2  0
  3  4  1  0
  3  5  1  0
  5  6  2  0
  6  7  1  0
  7  8  2  0
  8  9  1  0
  9 10  2  0
 10 11  1  0
 11 12  1  0
 12 13  1  0
 13 14  2  0
 13 15  1  0
 15 16  1  0
 16 17  2  0
 17 18  1  0
 18 19  2  0
 19 20  1  0
 20 21  2  0
 21 22  1  0
 22 23  2  0
 23 24  1  0
 24 25  2  0
 25 26  1  0
 26 27  2  0
 27 22  1  0
 19 28  1  0
 28 29  2  0
 29 16  1  0
 15 30  1  0
 30 31  2  0
 30 32  1  0
 32 12  1  0
 10 33  1  0
 33 34  2  0
 34  7  1  0
  6 35  1  0
 35 36  2  0
 36  2  1  0
 36 37  1  0
M  END
$$$$
m_274860b____17144820____12656616____17179884
     RDKit          3D

 38 42  0  0  0  0  0  0  0  0999 V2000
   -1.0343   11.1269    2.5773 O   0  0  0  0  0  0  0  0  0  0  0  0
   -0.4953   10.0549    2.5687 C   0  0  0  0  0  0  0  0  0  0  0  0
    0.8724    9.9759    2.5604 N   0  0  0  0  0  0  0  0  0  0  0  0
    1.6413   11.1461    2.5618 C   0  0  0  0  0  0  0  0  0  0  0  0
    3.0297   11.0579    2.5533 C   0  0  0  0  0  0  0  0  0  0  0  0
    3.7901   12.2226    2.5545 C   0  0  0  0  0  0  0  0  0  0  0  0
    3.1617   13.4632    2.5644 C   0  0  0  0  0  0  0  0  0  0  0  0
    1.7730   13.5394    2.5723 C   0  0  0  0  0  0  0  0  0  0  0  0
    1.0023   12.3816    2.5713 C   0  0  0  0  0  0  0  0  0  0  0  0
   -1.3299    8.7845    2.5671 C   0  0  0  0  0  0  0  0  0  0  0  0
   -2.7209    8.8340    2.5755 C   0  0  0  0  0  0  0  0  0  0  0  0
   -3.4587    7.6550    2.5740 C   0  0  0  0  0  0  0  0  0  0  0  0
   -2.8064    6.4263    2.5641 C   0  0  0  0  0  0  0  0  0  0  0  0
   -1.4158    6.3876    2.5557 C   0  0  0  0  0  0  0  0  0  0  0  0
   -0.6685    7.5609    2.5572 C   0  0  0  0  0  0  0  0  0  0  0  0
   -0.7382    5.1051    2.5458 C   0  0  0  0  0  0  0  0  0  0  0  0
   -1.3355    3.8807    2.5432 N   0  0  0  0  0  0  0  0  0  0  0  0
   -0.4258    3.0052    2.5344 N   0  0  0  0  0  0  0  0  0  0  0  0
    0.7606    3.5620    2.5249 N   0  0  0  0  0  0  0  0  0  0  0  0
    1.9825    2.8774    2.5113 C   0  0  0  0  0  0  0  0  0  0  0  0
    3.1724    3.5978    2.5023 C   0  0  0  0  0  0  0  0  0  0  0  0
    4.3794    2.9069    2.4885 C   0  0  0  0  0  0  0  0  0  0  0  0
    4.4073    1.5164    2.4834 C   0  0  0  0  0  0  0  0  0  0  0  0
    3.2044    0.8172    2.4929 C   0  0  0  0  0  0  0  0  0  0  0  0
    1.9858    1.4868    2.5068 C   0  0  0  0  0  0  0  0  0  0  0  0
    5.6830    3.6885    2.4782 C   0  0  0  0  0  0  0  0  0  0  0  0
    6.1167    3.9364    3.8607 N   0  0  0  0  0  0  0  0  0  0  0  0
    6.9288    3.0343    4.4961 C   0  0  0  0  0  0  0  0  0  0  0  0
    7.2861    2.0418    3.9240 O   0  0  0  0  0  0  0  0  0  0  0  0
    7.3568    3.2789    5.8604 C   0  0  0  0  0  0  0  0  0  0  0  0
    8.1578    2.4751    6.6100 C   0  0  0  0  0  0  0  0  0  0  0  0
    8.2935    3.0903    7.8155 N   0  0  0  0  0  0  0  0  0  0  0  0
    7.6114    4.2109    7.8102 N   0  0  0  0  0  0  0  0  0  0  0  0
    7.0145    4.3945    6.6581 C   0  0  0  0  0  0  0  0  0  0  0  0
    9.0799    2.5799    8.9477 C   0  0  0  0  0  0  0  0  0  0  0  0
    8.7602    1.1991    6.1983 N   0  0  0  0  0  0  0  0  0  0  0  0
    0.6065    4.9129    2.5312 C   0  0  0  0  0  0  0  0  0  0  0  0
   -3.4682   10.1576    2.5866 C   0  0  0  0  0  0  0  0  0  0  0  0
  1  2  2  0
  2  3  1  0
  3  4  1  0
  4  5  2  0
  5  6  1  0
  6  7  2  0
  7  8  1  0
  8  9  2  0
  9  4  1  0
  2 10  1  0
 10 11  2  0
 11 12  1  0
 12 13  2  0
 13 14  1  0
 14 15  2  0
 15 10  1  0
 14 16  1  0
 16 17  1  0
 17 18  2  0
 18 19  1  0
 19 20  1  0
 20 21  2  0
 21 22  1  0
 22 23  2  0
 23 24  1  0
 24 25  2  0
 25 20  1  0
 22 26  1  0
 26 27  1  0
 27 28  1  0
 28 29  2  0
 28 30  1  0
 30 31  2  0
 31 32  1  0
 32 33  1  0
 33 34  2  0
 34 30  1  0
 32 35  1  0
 31 36  1  0
 19 37  1  0
 16 37  2  0
 11 38  1  0
M  END
$$$$
m_274860a____15212420____17209716____17180102
     RDKit          3D

 39 43  0  0  0  0  0  0  0  0999 V2000
    2.6245    5.3395    4.5475 O   0  0  0  0  0  0  0  0  0  0  0  0
    1.6163    4.7005    4.6710 C   0  0  0  0  0  0  0  0  0  0  0  0
    1.3534    4.0572    5.8517 N   0  0  0  0  0  0  0  0  0  0  0  0
    0.1771    3.3115    5.9959 C   0  0  0  0  0  0  0  0  0  0  0  0
    0.1716    1.9618    5.6588 C   0  0  0  0  0  0  0  0  0  0  0  0
   -0.9989    1.2243    5.8036 C   0  0  0  0  0  0  0  0  0  0  0  0
   -2.1521    1.8370    6.2820 C   0  0  0  0  0  0  0  0  0  0  0  0
   -2.1349    3.1869    6.6165 C   0  0  0  0  0  0  0  0  0  0  0  0
   -0.9703    3.9344    6.4757 C   0  0  0  0  0  0  0  0  0  0  0  0
    2.3063    4.1497    6.9672 C   0  0  0  0  0  0  0  0  0  0  0  0
    0.6762    4.6091    3.5705 C   0  0  0  0  0  0  0  0  0  0  0  0
    0.9124    3.7211    2.5251 C   0  0  0  0  0  0  0  0  0  0  0  0
    2.0497    2.9042    2.5096 N   0  0  0  0  0  0  0  0  0  0  0  0
    3.2911    3.3246    2.5132 N   0  0  0  0  0  0  0  0  0  0  0  0
    4.0969    2.3529    2.4937 N   0  0  0  0  0  0  0  0  0  0  0  0
    3.3663    1.2031    2.4818 C   0  0  0  0  0  0  0  0  0  0  0  0
    3.8959   -0.1468    2.4591 C   0  0  0  0  0  0  0  0  0  0  0  0
    4.1683   -0.8387    3.6359 C   0  0  0  0  0  0  0  0  0  0  0  0
    4.6757   -2.1328    3.5807 C   0  0  0  0  0  0  0  0  0  0  0  0
    4.9129   -2.7394    2.3514 C   0  0  0  0  0  0  0  0  0  0  0  0
    4.6373   -2.0389    1.1813 C   0  0  0  0  0  0  0  0  0  0  0  0
    4.8774   -2.6534   -0.0537 N   0  0  0  0  0  0  0  0  0  0  0  0
    5.1178   -1.8692   -1.1930 C   0  0  0  0  0  0  0  0  0  0  0  0
    4.1326   -1.4487   -2.0047 N   0  0  0  0  0  0  0  0  0  0  0  0
    4.3628   -0.6975   -3.0952 C   0  0  0  0  0  0  0  0  0  0  0  0
    3.3623   -0.2814   -3.9036 O   0  0  0  0  0  0  0  0  0  0  0  0
    3.5339   -0.3001   -5.3130 C   0  0  0  0  0  0  0  0  0  0  0  0
    5.6237   -0.3487   -3.3939 N   0  0  0  0  0  0  0  0  0  0  0  0
    6.6562   -0.7328   -2.6293 C   0  0  0  0  0  0  0  0  0  0  0  0
    6.4265   -1.5101   -1.4988 C   0  0  0  0  0  0  0  0  0  0  0  0
    4.8777   -4.1198   -0.1573 C   0  0  0  0  0  0  0  0  0  0  0  0
    4.1294   -0.7443    1.2248 C   0  0  0  0  0  0  0  0  0  0  0  0
    3.9243   -0.2134    4.9999 C   0  0  0  0  0  0  0  0  0  0  0  0
    2.0516    1.5447    2.4890 C   0  0  0  0  0  0  0  0  0  0  0  0
    0.0149    3.6276    1.4660 C   0  0  0  0  0  0  0  0  0  0  0  0
   -1.1211    4.4306    1.4639 C   0  0  0  0  0  0  0  0  0  0  0  0
   -1.3652    5.3206    2.5048 C   0  0  0  0  0  0  0  0  0  0  0  0
   -0.4628    5.4088    3.5601 C   0  0  0  0  0  0  0  0  0  0  0  0
   -2.1071    4.3350    0.3105 C   0  0  0  0  0  0  0  0  0  0  0  0
  1  2  2  0
  2  3  1  0
  3  4  1  0
  4  5  2  0
  5  6  1  0
  6  7  2  0
  7  8  1  0
  8  9  2  0
  9  4  1  0
  3 10  1  0
  2 11  1  0
 11 12  1  0
 12 13  1  0
 13 14  1  0
 14 15  2  0
 15 16  1  0
 16 17  1  0
 17 18  2  0
 18 19  1  0
 19 20  2  0
 20 21  1  0
 21 22  1  0
 22 23  1  0
 23 24  2  0
 24 25  1  0
 25 26  1  0
 26 27  1  0
 25 28  2  0
 28 29  1  0
 29 30  2  0
 30 23  1  0
 22 31  1  0
 21 32  2  0
 32 17  1  0
 18 33  1  0
 16 34  2  0
 34 13  1  0
 12 35  2  0
 35 36  1  0
 36 37  2  0
 37 38  1  0
 38 11  2  0
 36 39  1  0
M  END
$$$$
s_270192____7716210____17111728
     RDKit          3D

 36 40  0  0  0  0  0  0  0  0999 V2000
    6.1098    9.1647   14.2514 Cl  0  0  0  0  0  0  0  0  0  0  0  0
    5.2505    8.5715   12.8103 C   0  0  0  0  0  0  0  0  0  0  0  0
    5.1389    7.2027   12.5902 C   0  0  0  0  0  0  0  0  0  0  0  0
    4.4667    6.7452   11.4619 C   0  0  0  0  0  0  0  0  0  0  0  0
    3.9146    7.6572   10.5689 C   0  0  0  0  0  0  0  0  0  0  0  0
    3.2634    7.2055    9.4757 O   0  0  0  0  0  0  0  0  0  0  0  0
    3.9389    6.9957    8.3269 C   0  0  0  0  0  0  0  0  0  0  0  0
    3.2332    6.5308    7.2252 C   0  0  0  0  0  0  0  0  0  0  0  0
    3.8694    6.2933    6.0108 C   0  0  0  0  0  0  0  0  0  0  0  0
    5.2366    6.5297    5.9122 C   0  0  0  0  0  0  0  0  0  0  0  0
    5.8852    6.3035    4.7276 N   0  0  0  0  0  0  0  0  0  0  0  0
    5.2060    5.8442    3.6283 C   0  0  0  0  0  0  0  0  0  0  0  0
    5.8294    5.6579    2.5957 O   0  0  0  0  0  0  0  0  0  0  0  0
    3.8572    5.6056    3.7057 N   0  0  0  0  0  0  0  0  0  0  0  0
    3.1661    5.8174    4.8700 C   0  0  0  0  0  0  0  0  0  0  0  0
    1.9653    5.5897    4.8900 O   0  0  0  0  0  0  0  0  0  0  0  0
    3.1529    5.1134    2.5113 C   0  0  0  0  0  0  0  0  0  0  0  0
    3.1723    3.5933    2.5020 C   0  0  0  0  0  0  0  0  0  0  0  0
    1.9763    2.8820    2.5148 C   0  0  0  0  0  0  0  0  0  0  0  0
    1.9943    1.4909    2.5068 C   0  0  0  0  0  0  0  0  0  0  0  0
    3.2077    0.8109    2.4862 C   0  0  0  0  0  0  0  0  0  0  0  0
    4.4034    1.5219    2.4726 C   0  0  0  0  0  0  0  0  0  0  0  0
    4.3857    2.9133    2.4809 C   0  0  0  0  0  0  0  0  0  0  0  0
    0.6311    3.5899    2.5377 C   0  0  0  0  0  0  0  0  0  0  0  0
    0.1935    3.8179    1.2062 O   0  0  0  0  0  0  0  0  0  0  0  0
   -1.0629    4.4792    1.2276 C   0  0  0  0  0  0  0  0  0  0  0  0
   -1.5315    4.7233   -0.1980 C   0  0  0  0  0  0  0  0  0  0  0  0
   -2.3066    3.7646   -0.8423 C   0  0  0  0  0  0  0  0  0  0  0  0
   -2.7324    3.9916   -2.1470 C   0  0  0  0  0  0  0  0  0  0  0  0
   -2.3840    5.1708   -2.7971 C   0  0  0  0  0  0  0  0  0  0  0  0
   -1.6098    6.1215   -2.1435 C   0  0  0  0  0  0  0  0  0  0  0  0
   -1.1772    5.9061   -0.8391 C   0  0  0  0  0  0  0  0  0  0  0  0
    5.9452    6.9955    7.0151 C   0  0  0  0  0  0  0  0  0  0  0  0
    5.3060    7.2316    8.2278 C   0  0  0  0  0  0  0  0  0  0  0  0
    4.0300    9.0243   10.7946 C   0  0  0  0  0  0  0  0  0  0  0  0
    4.7010    9.4886   11.9208 C   0  0  0  0  0  0  0  0  0  0  0  0
  1  2  1  0
  2  3  2  0
  3  4  1  0
  4  5  2  0
  5  6  1  0
  6  7  1  0
  7  8  2  0
  8  9  1  0
  9 10  2  0
 10 11  1  0
 11 12  1  0
 12 13  2  0
 12 14  1  0
 14 15  1  0
 15  9  1  0
 15 16  2  0
 14 17  1  0
 17 18  1  0
 18 19  1  0
 19 20  2  0
 20 21  1  0
 21 22  2  0
 22 23  1  0
 23 18  2  0
 19 24  1  0
 24 25  1  0
 25 26  1  0
 26 27  1  0
 27 28  2  0
 28 29  1  0
 29 30  2  0
 30 31  1  0
 31 32  2  0
 32 27  1  0
 10 33  1  0
 33 34  2  0
 34  7  1  0
  5 35  1  0
 35 36  2  0
 36  2  1  0
M  END
$$$$
s_708____1723544____238409
     RDKit          3D

 30 34  0  0  0  0  0  0  0  0999 V2000
   -0.2816   -3.1448    2.5075 Cl  0  0  0  0  0  0  0  0  0  0  0  0
   -0.3893   -1.3678    2.5001 C   0  0  0  0  0  0  0  0  0  0  0  0
   -1.6103   -0.6992    2.4867 C   0  0  0  0  0  0  0  0  0  0  0  0
   -2.7396   -1.4465    2.4822 O   0  0  0  0  0  0  0  0  0  0  0  0
   -3.9276   -1.0397    3.1486 C   0  0  0  0  0  0  0  0  0  0  0  0
   -4.7221   -0.0651    2.2920 C   0  0  0  0  0  0  0  0  0  0  0  0
   -3.8213    0.9439    1.5953 C   0  0  0  0  0  0  0  0  0  0  0  0
   -2.7760    1.4134    2.4379 O   0  0  0  0  0  0  0  0  0  0  0  0
   -1.6343    0.6959    2.4792 C   0  0  0  0  0  0  0  0  0  0  0  0
   -0.4564    1.4308    2.5034 C   0  0  0  0  0  0  0  0  0  0  0  0
    0.7572    0.7541    2.5065 C   0  0  0  0  0  0  0  0  0  0  0  0
    0.7942   -0.6365    2.5068 C   0  0  0  0  0  0  0  0  0  0  0  0
    1.9928    1.5131    2.5007 C   0  0  0  0  0  0  0  0  0  0  0  0
    1.9860    2.8354    2.5006 N   0  0  0  0  0  0  0  0  0  0  0  0
    3.1479    3.5642    2.4955 C   0  0  0  0  0  0  0  0  0  0  0  0
    4.3714    2.9007    2.4900 C   0  0  0  0  0  0  0  0  0  0  0  0
    5.5511    3.6390    2.4849 C   0  0  0  0  0  0  0  0  0  0  0  0
    5.5301    5.0284    2.4838 C   0  0  0  0  0  0  0  0  0  0  0  0
    6.7060    5.6912    2.4778 O   0  0  0  0  0  0  0  0  0  0  0  0
    7.2994    6.0237    3.6441 C   0  0  0  0  0  0  0  0  0  0  0  0
    8.5111    6.7066    3.6309 C   0  0  0  0  0  0  0  0  0  0  0  0
    9.1188    7.0459    4.8361 C   0  0  0  0  0  0  0  0  0  0  0  0
    8.5143    6.7032    6.0415 C   0  0  0  0  0  0  0  0  0  0  0  0
    7.3031    6.0193    6.0471 C   0  0  0  0  0  0  0  0  0  0  0  0
    6.6903    5.6770    4.8458 C   0  0  0  0  0  0  0  0  0  0  0  0
    4.3085    5.6938    2.4888 C   0  0  0  0  0  0  0  0  0  0  0  0
    3.1292    4.9557    2.4948 C   0  0  0  0  0  0  0  0  0  0  0  0
    4.3730    1.4784    2.4906 C   0  0  0  0  0  0  0  0  0  0  0  0
    5.4013    0.8177    2.4878 O   0  0  0  0  0  0  0  0  0  0  0  0
    3.1736    0.8184    2.4956 N   0  0  0  0  0  0  0  0  0  0  0  0
  1  2  1  0
  2  3  2  0
  3  4  1  0
  4  5  1  0
  5  6  1  0
  6  7  1  0
  7  8  1  0
  8  9  1  0
  9  3  1  0
  9 10  2  0
 10 11  1  0
 11 12  2  0
 12  2  1  0
 11 13  1  0
 13 14  2  0
 14 15  1  0
 15 16  2  0
 16 17  1  0
 17 18  2  0
 18 19  1  0
 19 20  1  0
 20 21  2  0
 21 22  1  0
 22 23  2  0
 23 24  1  0
 24 25  2  0
 25 20  1  0
 18 26  1  0
 26 27  2  0
 27 15  1  0
 16 28  1  0
 28 29  2  0
 28 30  1  0
 30 13  1  0
M  END
$$$$
s_40____14935132____6166886
     RDKit          3D

 34 38  0  0  0  0  0  0  0  0999 V2000
   12.0011   -7.6042   -1.7743 Cl  0  0  0  0  0  0  0  0  0  0  0  0
   11.3020   -6.1336   -1.0553 C   0  0  0  0  0  0  0  0  0  0  0  0
   11.1528   -4.9986   -1.7580 N   0  0  0  0  0  0  0  0  0  0  0  0
   10.6257   -3.8862   -1.2206 C   0  0  0  0  0  0  0  0  0  0  0  0
   10.2121   -3.8836    0.1091 C   0  0  0  0  0  0  0  0  0  0  0  0
    9.6614   -2.7526    0.7023 C   0  0  0  0  0  0  0  0  0  0  0  0
    9.5236   -1.5961   -0.0588 C   0  0  0  0  0  0  0  0  0  0  0  0
    8.8373   -0.1688    0.6620 S   0  0  0  0  0  0  0  0  0  0  0  0
    9.3977    1.0013    0.0372 O   0  0  0  0  0  0  0  0  0  0  0  0
    9.1368   -0.1509    2.0704 O   0  0  0  0  0  0  0  0  0  0  0  0
    7.2212   -0.1766    0.4501 N   0  0  0  0  0  0  0  0  0  0  0  0
    6.6345    1.0307    1.0590 C   0  0  0  0  0  0  0  0  0  0  0  0
    5.1177    1.0326    1.0223 C   0  0  0  0  0  0  0  0  0  0  0  0
    4.4268   -0.1605    0.8284 C   0  0  0  0  0  0  0  0  0  0  0  0
    3.0367   -0.1930    0.8201 C   0  0  0  0  0  0  0  0  0  0  0  0
    2.3471    1.0000    1.0000 C   0  0  0  0  0  0  0  0  0  0  0  0
    1.0000    1.0000    1.0000 O   0  0  0  0  0  0  0  0  0  0  0  0
    0.2900    2.2160    1.1834 C   0  0  0  0  0  0  0  0  0  0  0  0
    0.0367    2.8635   -0.1681 C   0  0  0  0  0  0  0  0  0  0  0  0
   -1.1264    2.5554   -0.8657 C   0  0  0  0  0  0  0  0  0  0  0  0
   -1.3639    3.1450   -2.1031 C   0  0  0  0  0  0  0  0  0  0  0  0
   -0.4334    4.0366   -2.6270 C   0  0  0  0  0  0  0  0  0  0  0  0
   -0.6543    4.6048   -3.8091 F   0  0  0  0  0  0  0  0  0  0  0  0
    0.7319    4.3475   -1.9338 C   0  0  0  0  0  0  0  0  0  0  0  0
    0.9637    3.7551   -0.6969 C   0  0  0  0  0  0  0  0  0  0  0  0
    3.0325    2.1942    1.1798 C   0  0  0  0  0  0  0  0  0  0  0  0
    4.4208    2.2177    1.1884 C   0  0  0  0  0  0  0  0  0  0  0  0
    5.1735   -1.4618    0.5972 C   0  0  0  0  0  0  0  0  0  0  0  0
    6.6142   -1.3660    1.0702 C   0  0  0  0  0  0  0  0  0  0  0  0
    9.9319   -1.5773   -1.3884 C   0  0  0  0  0  0  0  0  0  0  0  0
    9.7936   -0.4629   -2.1010 F   0  0  0  0  0  0  0  0  0  0  0  0
   10.4795   -2.7193   -1.9635 C   0  0  0  0  0  0  0  0  0  0  0  0
   10.3555   -5.0463    0.8580 C   0  0  0  0  0  0  0  0  0  0  0  0
   10.9049   -6.1842    0.2770 C   0  0  0  0  0  0  0  0  0  0  0  0
  1  2  1  0
  2  3  2  0
  3  4  1  0
  4  5  2  0
  5  6  1  0
  6  7  2  0
  7  8  1  0
  8  9  2  0
  8 10  2  0
  8 11  1  0
 11 12  1  0
 12 13  1  0
 13 14  2  0
 14 15  1  0
 15 16  2  0
 16 17  1  0
 17 18  1  0
 18 19  1  0
 19 20  2  0
 20 21  1  0
 21 22  2  0
 22 23  1  0
 22 24  1  0
 24 25  2  0
 25 19  1  0
 16 26  1  0
 26 27  2  0
 27 13  1  0
 14 28  1  0
 28 29  1  0
 29 11  1  0
  7 30  1  0
 30 31  1  0
 30 32  2  0
 32  4  1  0
  5 33  1  0
 33 34  2  0
 34  2  1  0
M  END
$$$$
s_708____10973714____9437332
     RDKit          3D

 34 38  0  0  0  0  0  0  0  0999 V2000
   -4.8755   -4.7625    2.5197 Cl  0  0  0  0  0  0  0  0  0  0  0  0
   -4.1775   -3.1261    2.5176 C   0  0  0  0  0  0  0  0  0  0  0  0
   -4.8934   -1.9052    2.5111 C   0  0  0  0  0  0  0  0  0  0  0  0
   -4.0032   -0.9406    2.5121 N   0  0  0  0  0  0  0  0  0  0  0  0
   -2.7853   -1.4398    2.5157 N   0  0  0  0  0  0  0  0  0  0  0  0
   -1.5944   -0.6980    2.5161 C   0  0  0  0  0  0  0  0  0  0  0  0
   -0.5223   -1.1180    1.7371 C   0  0  0  0  0  0  0  0  0  0  0  0
   -0.6289   -2.2181    0.9978 F   0  0  0  0  0  0  0  0  0  0  0  0
    0.6649   -0.3934    1.7262 C   0  0  0  0  0  0  0  0  0  0  0  0
    0.7581    0.7541    2.5064 C   0  0  0  0  0  0  0  0  0  0  0  0
   -0.3120    1.1770    3.2877 C   0  0  0  0  0  0  0  0  0  0  0  0
   -1.4979    0.4495    3.2961 C   0  0  0  0  0  0  0  0  0  0  0  0
    1.9931    1.5138    2.5006 C   0  0  0  0  0  0  0  0  0  0  0  0
    1.9875    2.8361    2.5009 N   0  0  0  0  0  0  0  0  0  0  0  0
    3.1498    3.5633    2.4948 C   0  0  0  0  0  0  0  0  0  0  0  0
    4.3728    2.8982    2.4892 C   0  0  0  0  0  0  0  0  0  0  0  0
    5.5522    3.6395    2.4842 C   0  0  0  0  0  0  0  0  0  0  0  0
    5.5304    5.0278    2.4845 C   0  0  0  0  0  0  0  0  0  0  0  0
    6.7921    5.7425    2.4792 C   0  0  0  0  0  0  0  0  0  0  0  0
    6.7909    7.1333    2.4793 C   0  0  0  0  0  0  0  0  0  0  0  0
    8.0077    7.8072    2.4740 C   0  0  0  0  0  0  0  0  0  0  0  0
    9.2123    7.1116    2.4696 C   0  0  0  0  0  0  0  0  0  0  0  0
    9.1880    5.7209    2.4698 C   0  0  0  0  0  0  0  0  0  0  0  0
    7.9837    5.0251    2.4744 C   0  0  0  0  0  0  0  0  0  0  0  0
    8.0159    9.3276    2.4739 C   0  0  0  0  0  0  0  0  0  0  0  0
    8.0237    9.7710    3.7278 F   0  0  0  0  0  0  0  0  0  0  0  0
    9.1015    9.7650    1.8422 F   0  0  0  0  0  0  0  0  0  0  0  0
    6.9297    9.7768    1.8516 F   0  0  0  0  0  0  0  0  0  0  0  0
    4.3097    5.6944    2.4910 C   0  0  0  0  0  0  0  0  0  0  0  0
    3.1319    4.9545    2.4962 C   0  0  0  0  0  0  0  0  0  0  0  0
    4.3737    1.4760    2.4890 C   0  0  0  0  0  0  0  0  0  0  0  0
    5.4008    0.8149    2.4834 O   0  0  0  0  0  0  0  0  0  0  0  0
    3.1731    0.8178    2.4952 N   0  0  0  0  0  0  0  0  0  0  0  0
   -2.8543   -2.8026    2.5182 C   0  0  0  0  0  0  0  0  0  0  0  0
  1  2  1  0
  2  3  1  0
  3  4  2  0
  4  5  1  0
  5  6  1  0
  6  7  2  0
  7  8  1  0
  7  9  1  0
  9 10  2  0
 10 11  1  0
 11 12  2  0
 12  6  1  0
 10 13  1  0
 13 14  2  0
 14 15  1  0
 15 16  2  0
 16 17  1  0
 17 18  2  0
 18 19  1  0
 19 20  2  0
 20 21  1  0
 21 22  2  0
 22 23  1  0
 23 24  2  0
 24 19  1  0
 21 25  1  0
 25 26  1  0
 25 27  1  0
 25 28  1  0
 18 29  1  0
 29 30  2  0
 30 15  1  0
 16 31  1  0
 31 32  2  0
 31 33  1  0
 33 13  1  0
  5 34  1  0
  2 34  2  0
M  END
$$$$
s_274090____12940278____16948036
     RDKit          3D

 34 38  0  0  0  0  0  0  0  0999 V2000
   -0.3875   -3.1471    3.9505 F   0  0  0  0  0  0  0  0  0  0  0  0
    0.4748   -3.9476    4.5706 C   0  0  0  0  0  0  0  0  0  0  0  0
    1.6147   -4.3854    3.9066 C   0  0  0  0  0  0  0  0  0  0  0  0
    2.5260   -5.2222    4.5416 C   0  0  0  0  0  0  0  0  0  0  0  0
    2.2850   -5.6196    5.8529 C   0  0  0  0  0  0  0  0  0  0  0  0
    1.1433   -5.1798    6.5138 C   0  0  0  0  0  0  0  0  0  0  0  0
    0.2302   -4.3424    5.8816 C   0  0  0  0  0  0  0  0  0  0  0  0
    0.8976   -5.5970    7.8806 C   0  0  0  0  0  0  0  0  0  0  0  0
    1.6733   -6.3856    8.6023 O   0  0  0  0  0  0  0  0  0  0  0  0
    1.1359   -6.5437    9.7958 C   0  0  0  0  0  0  0  0  0  0  0  0
   -0.0256   -5.8231    9.8140 C   0  0  0  0  0  0  0  0  0  0  0  0
   -0.1523   -5.2364    8.5892 N   0  0  0  0  0  0  0  0  0  0  0  0
    1.8725   -3.9472    2.4744 C   0  0  0  0  0  0  0  0  0  0  0  0
    2.6504   -2.6999    2.4761 N   0  0  0  0  0  0  0  0  0  0  0  0
    3.9578   -2.6135    2.4673 N   0  0  0  0  0  0  0  0  0  0  0  0
    4.3419   -1.4103    2.4698 N   0  0  0  0  0  0  0  0  0  0  0  0
    3.2280   -0.6279    2.4827 C   0  0  0  0  0  0  0  0  0  0  0  0
    3.2059    0.8216    2.4889 C   0  0  0  0  0  0  0  0  0  0  0  0
    1.9867    1.4913    2.5023 C   0  0  0  0  0  0  0  0  0  0  0  0
    1.9786    2.8822    2.5077 C   0  0  0  0  0  0  0  0  0  0  0  0
    3.1745    3.5942    2.4999 C   0  0  0  0  0  0  0  0  0  0  0  0
    4.3882    2.9150    2.4865 C   0  0  0  0  0  0  0  0  0  0  0  0
    4.4067    1.5240    2.4809 C   0  0  0  0  0  0  0  0  0  0  0  0
    3.1938    5.1141    2.5055 C   0  0  0  0  0  0  0  0  0  0  0  0
    0.6362    3.5950    2.5223 C   0  0  0  0  0  0  0  0  0  0  0  0
    0.5937    4.7943    2.5272 O   0  0  0  0  0  0  0  0  0  0  0  0
   -0.5252    2.8684    2.5297 N   0  0  0  0  0  0  0  0  0  0  0  0
   -1.7618    3.5250    2.5431 C   0  0  0  0  0  0  0  0  0  0  0  0
   -2.9369    2.7803    2.5506 C   0  0  0  0  0  0  0  0  0  0  0  0
   -4.1635    3.4361    2.5642 C   0  0  0  0  0  0  0  0  0  0  0  0
   -4.2087    4.8261    2.5699 C   0  0  0  0  0  0  0  0  0  0  0  0
   -3.0275    5.5605    2.5628 C   0  0  0  0  0  0  0  0  0  0  0  0
   -1.7952    4.9155    2.5492 C   0  0  0  0  0  0  0  0  0  0  0  0
    2.1375   -1.4425    2.4850 C   0  0  0  0  0  0  0  0  0  0  0  0
  1  2  1  0
  2  3  2  0
  3  4  1  0
  4  5  2  0
  5  6  1  0
  6  7  2  0
  7  2  1  0
  6  8  1  0
  8  9  1  0
  9 10  1  0
 10 11  2  0
 11 12  1  0
  8 12  2  0
  3 13  1  0
 13 14  1  0
 14 15  1  0
 15 16  2  0
 16 17  1  0
 17 18  1  0
 18 19  2  0
 19 20  1  0
 20 21  2  0
 21 22  1  0
 22 23  2  0
 23 18  1  0
 21 24  1  0
 20 25  1  0
 25 26  2  0
 25 27  1  0
 27 28  1  0
 28 29  2  0
 29 30  1  0
 30 31  2  0
 31 32  1  0
 32 33  2  0
 33 28  1  0
 17 34  2  0
 34 14  1  0
M  END
$$$$
s_22____2007866____13263488
     RDKit          3D

 34 37  0  0  0  0  0  0  0  0999 V2000
    6.7362   -7.3260   -0.2412 Br  0  0  0  0  0  0  0  0  0  0  0  0
    6.5492   -5.8656    1.0529 C   0  0  0  0  0  0  0  0  0  0  0  0
    7.0750   -5.9680    2.3384 C   0  0  0  0  0  0  0  0  0  0  0  0
    7.7313   -7.0639    2.7519 N   0  0  0  0  0  0  0  0  0  0  0  0
    8.2391   -7.1677    3.9893 C   0  0  0  0  0  0  0  0  0  0  0  0
    8.0813   -6.1049    4.8733 C   0  0  0  0  0  0  0  0  0  0  0  0
    7.4264   -5.0099    4.4602 N   0  0  0  0  0  0  0  0  0  0  0  0
    6.9172   -4.9039    3.2227 C   0  0  0  0  0  0  0  0  0  0  0  0
    6.2413   -3.7577    2.8153 C   0  0  0  0  0  0  0  0  0  0  0  0
    5.7192   -3.6615    1.5298 C   0  0  0  0  0  0  0  0  0  0  0  0
    5.8734   -4.7213    0.6414 C   0  0  0  0  0  0  0  0  0  0  0  0
    5.0179   -2.4638    1.1142 C   0  0  0  0  0  0  0  0  0  0  0  0
    4.2730   -2.5004    0.1741 O   0  0  0  0  0  0  0  0  0  0  0  0
    5.2051   -1.2895    1.7946 N   0  0  0  0  0  0  0  0  0  0  0  0
    4.5272   -0.1320    1.3929 C   0  0  0  0  0  0  0  0  0  0  0  0
    5.2222    1.0074    0.9980 C   0  0  0  0  0  0  0  0  0  0  0  0
    4.5255    2.1454    0.6027 C   0  0  0  0  0  0  0  0  0  0  0  0
    3.1345    2.1447    0.6027 C   0  0  0  0  0  0  0  0  0  0  0  0
    2.4504    1.0000    1.0000 C   0  0  0  0  0  0  0  0  0  0  0  0
    3.1363   -0.1436    1.3969 C   0  0  0  0  0  0  0  0  0  0  0  0
    1.0000    1.0000    1.0000 C   0  0  0  0  0  0  0  0  0  0  0  0
    0.4000    2.0391    1.0156 O   0  0  0  0  0  0  0  0  0  0  0  0
    0.3150   -0.1863    0.9822 N   0  0  0  0  0  0  0  0  0  0  0  0
   -1.0214   -0.2166    0.5671 C   0  0  0  0  0  0  0  0  0  0  0  0
   -1.3501    0.2015   -0.7181 C   0  0  0  0  0  0  0  0  0  0  0  0
   -2.6814    0.1670   -1.1191 C   0  0  0  0  0  0  0  0  0  0  0  0
   -3.6770   -0.2769   -0.2553 C   0  0  0  0  0  0  0  0  0  0  0  0
   -3.3242   -0.6905    1.0254 C   0  0  0  0  0  0  0  0  0  0  0  0
   -1.9997   -0.6647    1.4480 C   0  0  0  0  0  0  0  0  0  0  0  0
   -3.0471    0.6230   -2.5224 C   0  0  0  0  0  0  0  0  0  0  0  0
   -2.5765   -0.2496   -3.4089 F   0  0  0  0  0  0  0  0  0  0  0  0
   -4.3703    0.6979   -2.6335 F   0  0  0  0  0  0  0  0  0  0  0  0
   -2.5144    1.8198   -2.7525 F   0  0  0  0  0  0  0  0  0  0  0  0
    6.7418    1.0082    0.9966 C   0  0  0  0  0  0  0  0  0  0  0  0
  1  2  1  0
  2  3  2  0
  3  4  1  0
  4  5  2  0
  5  6  1  0
  6  7  2  0
  7  8  1  0
  8  3  1  0
  8  9  2  0
  9 10  1  0
 10 11  2  0
 11  2  1  0
 10 12  1  0
 12 13  2  0
 12 14  1  0
 14 15  1  0
 15 16  2  0
 16 17  1  0
 17 18  2  0
 18 19  1  0
 19 20  2  0
 20 15  1  0
 19 21  1  0
 21 22  2  0
 21 23  1  0
 23 24  1  0
 24 25  2  0
 25 26  1  0
 26 27  2  0
 27 28  1  0
 28 29  2  0
 29 24  1  0
 26 30  1  0
 30 31  1  0
 30 32  1  0
 30 33  1  0
 16 34  1  0
M  END
$$$$
s_22____14935126____8992344
     RDKit          3D

 34 38  0  0  0  0  0  0  0  0999 V2000
    2.6960    2.4199    6.6165 F   0  0  0  0  0  0  0  0  0  0  0  0
    3.7427    3.1395    6.2206 C   0  0  0  0  0  0  0  0  0  0  0  0
    3.6981    3.8249    5.0109 C   0  0  0  0  0  0  0  0  0  0  0  0
    4.7924    4.5779    4.5976 C   0  0  0  0  0  0  0  0  0  0  0  0
    5.9331    4.6472    5.3904 C   0  0  0  0  0  0  0  0  0  0  0  0
    5.9653    3.9563    6.5976 C   0  0  0  0  0  0  0  0  0  0  0  0
    7.1532    4.0273    7.4248 C   0  0  0  0  0  0  0  0  0  0  0  0
    7.9572    5.1626    7.4065 C   0  0  0  0  0  0  0  0  0  0  0  0
    9.0520    5.2049    8.1804 N   0  0  0  0  0  0  0  0  0  0  0  0
    9.3890    4.1763    8.9721 C   0  0  0  0  0  0  0  0  0  0  0  0
    8.6250    3.0741    9.0012 N   0  0  0  0  0  0  0  0  0  0  0  0
    7.5178    2.9700    8.2511 C   0  0  0  0  0  0  0  0  0  0  0  0
    4.8778    3.2001    7.0227 C   0  0  0  0  0  0  0  0  0  0  0  0
    2.5106    3.7554    4.1810 C   0  0  0  0  0  0  0  0  0  0  0  0
    1.6310    4.5591    4.3237 O   0  0  0  0  0  0  0  0  0  0  0  0
    2.3904    2.7501    3.2131 N   0  0  0  0  0  0  0  0  0  0  0  0
    1.1615    2.7356    2.4051 C   0  0  0  0  0  0  0  0  0  0  0  0
    0.6466    1.3111    2.4514 C   0  0  0  0  0  0  0  0  0  0  0  0
    1.5191    0.2307    2.4962 C   0  0  0  0  0  0  0  0  0  0  0  0
    0.9765   -1.0453    2.6347 C   0  0  0  0  0  0  0  0  0  0  0  0
   -0.4025   -1.2197    2.7097 C   0  0  0  0  0  0  0  0  0  0  0  0
   -0.9180   -2.4534    2.8951 O   0  0  0  0  0  0  0  0  0  0  0  0
   -2.3244   -2.6470    2.8654 C   0  0  0  0  0  0  0  0  0  0  0  0
   -2.7886   -2.7698    1.4235 C   0  0  0  0  0  0  0  0  0  0  0  0
   -2.2841   -3.7933    0.6284 C   0  0  0  0  0  0  0  0  0  0  0  0
   -2.7053   -3.9109   -0.6922 C   0  0  0  0  0  0  0  0  0  0  0  0
   -3.6273   -3.0017   -1.2007 C   0  0  0  0  0  0  0  0  0  0  0  0
   -4.0352   -3.1085   -2.4624 F   0  0  0  0  0  0  0  0  0  0  0  0
   -4.1343   -1.9756   -0.4100 C   0  0  0  0  0  0  0  0  0  0  0  0
   -3.7097   -1.8633    0.9097 C   0  0  0  0  0  0  0  0  0  0  0  0
   -1.2619   -0.1302    2.6156 C   0  0  0  0  0  0  0  0  0  0  0  0
   -0.7327    1.1518    2.4789 C   0  0  0  0  0  0  0  0  0  0  0  0
    3.0237    0.4489    2.4079 C   0  0  0  0  0  0  0  0  0  0  0  0
    3.4702    1.7595    3.0467 C   0  0  0  0  0  0  0  0  0  0  0  0
  1  2  1  0
  2  3  2  0
  3  4  1  0
  4  5  2  0
  5  6  1  0
  6  7  1  0
  7  8  2  0
  8  9  1  0
  9 10  2  0
 10 11  1  0
 11 12  2  0
 12  7  1  0
  6 13  2  0
 13  2  1  0
  3 14  1  0
 14 15  2  0
 14 16  1  0
 16 17  1  0
 17 18  1  0
 18 19  2  0
 19 20  1  0
 20 21  2  0
 21 22  1  0
 22 23  1  0
 23 24  1  0
 24 25  2  0
 25 26  1  0
 26 27  2  0
 27 28  1  0
 27 29  1  0
 29 30  2  0
 30 24  1  0
 21 31  1  0
 31 32  2  0
 32 18  1  0
 19 33  1  0
 33 34  1  0
 34 16  1  0
M  END
$$$$
s_270196____16887988____12307614
     RDKit          3D

 34 38  0  0  0  0  0  0  0  0999 V2000
    0.2730    3.8348    2.5310 Br  0  0  0  0  0  0  0  0  0  0  0  0
    1.9835    2.8781    2.5099 C   0  0  0  0  0  0  0  0  0  0  0  0
    3.1729    3.5995    2.5004 C   0  0  0  0  0  0  0  0  0  0  0  0
    4.3838    2.9149    2.4856 C   0  0  0  0  0  0  0  0  0  0  0  0
    5.5877    3.6678    2.4762 O   0  0  0  0  0  0  0  0  0  0  0  0
    5.5377    5.0869    2.4819 C   0  0  0  0  0  0  0  0  0  0  0  0
    5.5344    5.5880    3.9173 C   0  0  0  0  0  0  0  0  0  0  0  0
    6.7405    5.8578    4.5557 C   0  0  0  0  0  0  0  0  0  0  0  0
    6.7330    6.3154    5.8693 C   0  0  0  0  0  0  0  0  0  0  0  0
    5.5256    6.5013    6.5342 C   0  0  0  0  0  0  0  0  0  0  0  0
    4.3269    6.2290    5.8864 C   0  0  0  0  0  0  0  0  0  0  0  0
    4.3211    5.7704    4.5732 C   0  0  0  0  0  0  0  0  0  0  0  0
    4.4048    1.5235    2.4803 C   0  0  0  0  0  0  0  0  0  0  0  0
    3.2106    0.8098    2.4898 C   0  0  0  0  0  0  0  0  0  0  0  0
    1.9954    1.4870    2.5047 C   0  0  0  0  0  0  0  0  0  0  0  0
    5.6545    0.7878    2.4650 C   0  0  0  0  0  0  0  0  0  0  0  0
    5.7863   -0.5180    2.4588 N   0  0  0  0  0  0  0  0  0  0  0  0
    7.0216   -0.8015    2.4425 O   0  0  0  0  0  0  0  0  0  0  0  0
    7.7253    0.3044    2.4391 C   0  0  0  0  0  0  0  0  0  0  0  0
    6.9034    1.3230    2.4515 N   0  0  0  0  0  0  0  0  0  0  0  0
    9.1733    0.3859    2.4230 C   0  0  0  0  0  0  0  0  0  0  0  0
    9.8490    1.6367    2.4205 C   0  0  0  0  0  0  0  0  0  0  0  0
    9.2199    2.6585    2.4318 O   0  0  0  0  0  0  0  0  0  0  0  0
   11.2198    1.6527    2.4045 N   0  0  0  0  0  0  0  0  0  0  0  0
   11.9470    0.4905    2.3912 C   0  0  0  0  0  0  0  0  0  0  0  0
   13.3965    0.5301    2.3741 C   0  0  0  0  0  0  0  0  0  0  0  0
   14.1070   -0.6659    2.3608 C   0  0  0  0  0  0  0  0  0  0  0  0
   15.4970   -0.6245    2.3445 C   0  0  0  0  0  0  0  0  0  0  0  0
   16.4227   -2.1448    2.3268 Cl  0  0  0  0  0  0  0  0  0  0  0  0
   16.1779    0.5888    2.3415 C   0  0  0  0  0  0  0  0  0  0  0  0
   15.4487    1.7733    2.3546 C   0  0  0  0  0  0  0  0  0  0  0  0
   14.0579    1.7539    2.3706 C   0  0  0  0  0  0  0  0  0  0  0  0
   11.3192   -0.7285    2.3936 C   0  0  0  0  0  0  0  0  0  0  0  0
    9.8990   -0.7773    2.4101 C   0  0  0  0  0  0  0  0  0  0  0  0
  1  2  1  0
  2  3  2  0
  3  4  1  0
  4  5  1  0
  5  6  1  0
  6  7  1  0
  7  8  2  0
  8  9  1  0
  9 10  2  0
 10 11  1  0
 11 12  2  0
 12  7  1  0
  4 13  2  0
 13 14  1  0
 14 15  2  0
 15  2  1  0
 13 16  1  0
 16 17  2  0
 17 18  1  0
 18 19  1  0
 19 20  2  0
 20 16  1  0
 19 21  1  0
 21 22  1  0
 22 23  2  0
 22 24  1  0
 24 25  1  0
 25 26  1  0
 26 27  2  0
 27 28  1  0
 28 29  1  0
 28 30  2  0
 30 31  1  0
 31 32  2  0
 32 26  1  0
 25 33  2  0
 33 34  1  0
 21 34  2  0
M  END
$$$$
s_265764____4558010____4565806
     RDKit          3D

 35 39  0  0  0  0  0  0  0  0999 V2000
    0.8248    7.9434    2.6652 O   0  0  0  0  0  0  0  0  0  0  0  0
   -0.0359    7.3198    2.1079 C   0  0  0  0  0  0  0  0  0  0  0  0
   -0.9035    7.9567    1.2603 N   0  0  0  0  0  0  0  0  0  0  0  0
   -1.4564    7.2655    0.1754 C   0  0  0  0  0  0  0  0  0  0  0  0
   -0.6471    6.9090   -0.8987 C   0  0  0  0  0  0  0  0  0  0  0  0
   -1.1999    6.2222   -1.9746 C   0  0  0  0  0  0  0  0  0  0  0  0
   -2.5521    5.8972   -1.9713 C   0  0  0  0  0  0  0  0  0  0  0  0
   -3.3516    6.2581   -0.8919 C   0  0  0  0  0  0  0  0  0  0  0  0
   -2.8099    6.9452    0.1894 C   0  0  0  0  0  0  0  0  0  0  0  0
   -1.2541    9.3657    1.4898 C   0  0  0  0  0  0  0  0  0  0  0  0
   -0.1575    5.8920    2.3318 C   0  0  0  0  0  0  0  0  0  0  0  0
    0.9866    5.1013    2.3170 C   0  0  0  0  0  0  0  0  0  0  0  0
    0.8617    3.7327    2.5327 C   0  0  0  0  0  0  0  0  0  0  0  0
   -0.3816    3.1525    2.7608 C   0  0  0  0  0  0  0  0  0  0  0  0
   -1.5114    3.9634    2.7715 C   0  0  0  0  0  0  0  0  0  0  0  0
   -1.4115    5.3342    2.5584 C   0  0  0  0  0  0  0  0  0  0  0  0
    2.0463    2.8968    2.5180 C   0  0  0  0  0  0  0  0  0  0  0  0
    3.2848    3.3259    2.4991 O   0  0  0  0  0  0  0  0  0  0  0  0
    4.0764    2.3360    2.4914 N   0  0  0  0  0  0  0  0  0  0  0  0
    3.3683    1.2311    2.5037 C   0  0  0  0  0  0  0  0  0  0  0  0
    2.0573    1.5880    2.5200 N   0  0  0  0  0  0  0  0  0  0  0  0
    3.8899   -0.1215    2.4978 C   0  0  0  0  0  0  0  0  0  0  0  0
    2.9989   -1.1895    2.5128 C   0  0  0  0  0  0  0  0  0  0  0  0
    3.5039   -2.4849    2.5073 C   0  0  0  0  0  0  0  0  0  0  0  0
    2.6548   -3.5353    2.5203 O   0  0  0  0  0  0  0  0  0  0  0  0
    1.2522   -3.3142    2.5394 C   0  0  0  0  0  0  0  0  0  0  0  0
    0.5285   -4.6514    2.5509 C   0  0  0  0  0  0  0  0  0  0  0  0
    0.2004   -5.2866    3.7438 C   0  0  0  0  0  0  0  0  0  0  0  0
   -0.4382   -6.4659    3.7401 N   0  0  0  0  0  0  0  0  0  0  0  0
   -0.7811   -7.0727    2.5946 C   0  0  0  0  0  0  0  0  0  0  0  0
   -0.4817   -6.4886    1.3677 C   0  0  0  0  0  0  0  0  0  0  0  0
    0.1801   -5.2652    1.3529 C   0  0  0  0  0  0  0  0  0  0  0  0
    4.8755   -2.7153    2.4886 C   0  0  0  0  0  0  0  0  0  0  0  0
    5.7565   -1.6387    2.4741 C   0  0  0  0  0  0  0  0  0  0  0  0
    5.2642   -0.3383    2.4787 C   0  0  0  0  0  0  0  0  0  0  0  0
  1  2  2  0
  2  3  1  0
  3  4  1  0
  4  5  2  0
  5  6  1  0
  6  7  2  0
  7  8  1  0
  8  9  2  0
  9  4  1  0
  3 10  1  0
  2 11  1  0
 11 12  2  0
 12 13  1  0
 13 14  2  0
 14 15  1  0
 15 16  2  0
 16 11  1  0
 13 17  1  0
 17 18  1  0
 18 19  1  0
 19 20  2  0
 20 21  1  0
 17 21  2  0
 20 22  1  0
 22 23  2  0
 23 24  1  0
 24 25  1  0
 25 26  1  0
 26 27  1  0
 27 28  2  0
 28 29  1  0
 29 30  2  0
 30 31  1  0
 31 32  2  0
 32 27  1  0
 24 33  2  0
 33 34  1  0
 34 35  2  0
 35 22  1  0
M  END
$$$$
m_274860a____15212420____17209716____12655638
     RDKit          3D

 34 38  0  0  0  0  0  0  0  0999 V2000
    2.9767    5.6390    3.5398 O   0  0  0  0  0  0  0  0  0  0  0  0
    3.1550    5.0462    2.5117 C   0  0  0  0  0  0  0  0  0  0  0  0
    3.3402    5.7394    1.3446 N   0  0  0  0  0  0  0  0  0  0  0  0
    3.5483    5.0478    0.1451 C   0  0  0  0  0  0  0  0  0  0  0  0
    2.4583    4.6925   -0.6430 C   0  0  0  0  0  0  0  0  0  0  0  0
    2.6691    4.0057   -1.8341 C   0  0  0  0  0  0  0  0  0  0  0  0
    3.9619    3.6791   -2.2291 C   0  0  0  0  0  0  0  0  0  0  0  0
    5.0443    4.0398   -1.4335 C   0  0  0  0  0  0  0  0  0  0  0  0
    4.8457    4.7267   -0.2403 C   0  0  0  0  0  0  0  0  0  0  0  0
    3.3204    7.2092    1.3517 C   0  0  0  0  0  0  0  0  0  0  0  0
    3.1746    3.5961    2.5048 C   0  0  0  0  0  0  0  0  0  0  0  0
    1.9788    2.8838    2.5133 C   0  0  0  0  0  0  0  0  0  0  0  0
    0.7421    3.5413    2.5292 N   0  0  0  0  0  0  0  0  0  0  0  0
    0.4964    4.7171    2.0048 N   0  0  0  0  0  0  0  0  0  0  0  0
   -0.7097    5.0467    2.1804 N   0  0  0  0  0  0  0  0  0  0  0  0
   -1.3252    4.0376    2.8578 C   0  0  0  0  0  0  0  0  0  0  0  0
   -2.7169    4.0053    3.2659 C   0  0  0  0  0  0  0  0  0  0  0  0
   -3.1417    4.5934    4.4539 C   0  0  0  0  0  0  0  0  0  0  0  0
   -2.2135    5.2669    5.3417 C   0  0  0  0  0  0  0  0  0  0  0  0
   -1.1495    4.5596    5.8917 C   0  0  0  0  0  0  0  0  0  0  0  0
   -0.2621    5.2093    6.7434 C   0  0  0  0  0  0  0  0  0  0  0  0
   -0.4415    6.5567    7.0384 C   0  0  0  0  0  0  0  0  0  0  0  0
   -1.5076    7.2533    6.4828 C   0  0  0  0  0  0  0  0  0  0  0  0
   -2.4022    6.6148    5.6302 C   0  0  0  0  0  0  0  0  0  0  0  0
   -4.4836    4.5423    4.8143 C   0  0  0  0  0  0  0  0  0  0  0  0
   -5.4023    3.9051    3.9861 C   0  0  0  0  0  0  0  0  0  0  0  0
   -4.9784    3.3178    2.7984 C   0  0  0  0  0  0  0  0  0  0  0  0
   -3.6358    3.3677    2.4386 C   0  0  0  0  0  0  0  0  0  0  0  0
   -0.4027    3.0678    3.0895 C   0  0  0  0  0  0  0  0  0  0  0  0
    1.9895    1.4925    2.5064 C   0  0  0  0  0  0  0  0  0  0  0  0
    3.2081    0.8214    2.4901 C   0  0  0  0  0  0  0  0  0  0  0  0
    4.4078    1.5254    2.4811 C   0  0  0  0  0  0  0  0  0  0  0  0
    4.3891    2.9166    2.4886 C   0  0  0  0  0  0  0  0  0  0  0  0
    3.2290   -0.6987    2.4825 C   0  0  0  0  0  0  0  0  0  0  0  0
  1  2  2  0
  2  3  1  0
  3  4  1  0
  4  5  2  0
  5  6  1  0
  6  7  2  0
  7  8  1  0
  8  9  2  0
  9  4  1  0
  3 10  1  0
  2 11  1  0
 11 12  1  0
 12 13  1  0
 13 14  1  0
 14 15  2  0
 15 16  1  0
 16 17  1  0
 17 18  1  0
 18 19  1  0
 19 20  2  0
 20 21  1  0
 21 22  2  0
 22 23  1  0
 23 24  2  0
 24 19  1  0
 18 25  2  0
 25 26  1  0
 26 27  2  0
 27 28  1  0
 28 17  2  0
 16 29  2  0
 29 13  1  0
 12 30  2  0
 30 31  1  0
 31 32  2  0
 32 33  1  0
 33 11  2  0
 31 34  1  0
M  END
$$$$
s_270196____8770750____12307614
     RDKit          3D

 35 39  0  0  0  0  0  0  0  0999 V2000
   16.0213    4.0152    2.3621 Cl  0  0  0  0  0  0  0  0  0  0  0  0
   15.3139    2.3819    2.3622 C   0  0  0  0  0  0  0  0  0  0  0  0
   13.9313    2.2313    2.3768 C   0  0  0  0  0  0  0  0  0  0  0  0
   13.3923    0.9488    2.3771 C   0  0  0  0  0  0  0  0  0  0  0  0
   14.2159   -0.1721    2.3638 C   0  0  0  0  0  0  0  0  0  0  0  0
   15.5961    0.0003    2.3491 C   0  0  0  0  0  0  0  0  0  0  0  0
   16.1553    1.2740    2.3481 C   0  0  0  0  0  0  0  0  0  0  0  0
   11.9511    0.7884    2.3921 C   0  0  0  0  0  0  0  0  0  0  0  0
   11.3909   -0.4630    2.3928 N   0  0  0  0  0  0  0  0  0  0  0  0
   10.0309   -0.6361    2.4072 C   0  0  0  0  0  0  0  0  0  0  0  0
    9.5403   -1.7535    2.4080 O   0  0  0  0  0  0  0  0  0  0  0  0
    9.1894    0.5097    2.4218 C   0  0  0  0  0  0  0  0  0  0  0  0
    7.7441    0.3909    2.4378 C   0  0  0  0  0  0  0  0  0  0  0  0
    7.0691   -0.7329    2.4406 O   0  0  0  0  0  0  0  0  0  0  0  0
    5.8269   -0.4812    2.4568 N   0  0  0  0  0  0  0  0  0  0  0  0
    5.6615    0.8207    2.4636 C   0  0  0  0  0  0  0  0  0  0  0  0
    6.8961    1.3879    2.4505 N   0  0  0  0  0  0  0  0  0  0  0  0
    4.3934    1.5238    2.4792 C   0  0  0  0  0  0  0  0  0  0  0  0
    4.3889    2.9151    2.4847 C   0  0  0  0  0  0  0  0  0  0  0  0
    3.1774    3.5986    2.4996 C   0  0  0  0  0  0  0  0  0  0  0  0
    1.9850    2.8822    2.5096 C   0  0  0  0  0  0  0  0  0  0  0  0
    0.7615    3.5615    2.5249 N   0  0  0  0  0  0  0  0  0  0  0  0
    0.2750    4.0700    3.7003 C   0  0  0  0  0  0  0  0  0  0  0  0
   -0.5211    4.9677    3.6817 O   0  0  0  0  0  0  0  0  0  0  0  0
    0.7222    3.5232    4.9675 C   0  0  0  0  0  0  0  0  0  0  0  0
    0.2470    2.2878    5.3922 C   0  0  0  0  0  0  0  0  0  0  0  0
    0.6927    1.7872    6.6108 C   0  0  0  0  0  0  0  0  0  0  0  0
    1.5628    2.4811    7.3601 N   0  0  0  0  0  0  0  0  0  0  0  0
    2.0318    3.6743    6.9662 C   0  0  0  0  0  0  0  0  0  0  0  0
    1.6234    4.2284    5.7572 C   0  0  0  0  0  0  0  0  0  0  0  0
   -0.0015    3.7293    1.2797 C   0  0  0  0  0  0  0  0  0  0  0  0
    1.9902    1.4907    2.5042 C   0  0  0  0  0  0  0  0  0  0  0  0
    3.2017    0.8073    2.4891 C   0  0  0  0  0  0  0  0  0  0  0  0
    9.7481    1.7618    2.4207 C   0  0  0  0  0  0  0  0  0  0  0  0
   11.1615    1.9092    2.4057 C   0  0  0  0  0  0  0  0  0  0  0  0
  1  2  1  0
  2  3  2  0
  3  4  1  0
  4  5  2  0
  5  6  1  0
  6  7  2  0
  7  2  1  0
  4  8  1  0
  8  9  1  0
  9 10  1  0
 10 11  2  0
 10 12  1  0
 12 13  1  0
 13 14  1  0
 14 15  1  0
 15 16  2  0
 16 17  1  0
 13 17  2  0
 16 18  1  0
 18 19  2  0
 19 20  1  0
 20 21  2  0
 21 22  1  0
 22 23  1  0
 23 24  2  0
 23 25  1  0
 25 26  2  0
 26 27  1  0
 27 28  2  0
 28 29  1  0
 29 30  2  0
 30 25  1  0
 22 31  1  0
 21 32  1  0
 32 33  2  0
 33 18  1  0
 12 34  2  0
 34 35  1  0
  8 35  2  0
M  END
$$$$
m_276010b____17281670____13624100____17280862
     RDKit          3D

 37 41  0  0  0  0  0  0  0  0999 V2000
   -2.0745    7.7069    2.5950 O   0  0  0  0  0  0  0  0  0  0  0  0
   -0.9774    8.1929    2.5996 C   0  0  0  0  0  0  0  0  0  0  0  0
    0.1295    7.3858    2.5842 N   0  0  0  0  0  0  0  0  0  0  0  0
   -0.0268    5.9243    2.5620 C   0  0  0  0  0  0  0  0  0  0  0  0
    1.0934    5.0998    2.5464 C   0  0  0  0  0  0  0  0  0  0  0  0
    0.9129    3.7207    2.5251 C   0  0  0  0  0  0  0  0  0  0  0  0
   -0.3219    3.1969    2.5198 N   0  0  0  0  0  0  0  0  0  0  0  0
   -1.4141    3.9752    2.5352 C   0  0  0  0  0  0  0  0  0  0  0  0
   -1.2988    5.3610    2.5564 C   0  0  0  0  0  0  0  0  0  0  0  0
    2.0497    2.9042    2.5096 N   0  0  0  0  0  0  0  0  0  0  0  0
    3.2911    3.3246    2.5132 N   0  0  0  0  0  0  0  0  0  0  0  0
    4.0969    2.3529    2.4937 N   0  0  0  0  0  0  0  0  0  0  0  0
    3.3663    1.2031    2.4818 C   0  0  0  0  0  0  0  0  0  0  0  0
    3.8960   -0.1470    2.4591 C   0  0  0  0  0  0  0  0  0  0  0  0
    3.0220   -1.2293    2.4492 C   0  0  0  0  0  0  0  0  0  0  0  0
    3.5422   -2.5191    2.4277 C   0  0  0  0  0  0  0  0  0  0  0  0
    4.9188   -2.7240    2.4163 C   0  0  0  0  0  0  0  0  0  0  0  0
    5.7841   -1.6351    2.4264 C   0  0  0  0  0  0  0  0  0  0  0  0
    5.2735   -0.3411    2.4480 C   0  0  0  0  0  0  0  0  0  0  0  0
    5.5133   -4.1227    2.3930 C   0  0  0  0  0  0  0  0  0  0  0  0
    2.5706   -3.6879    2.4173 C   0  0  0  0  0  0  0  0  0  0  0  0
    2.9861   -4.8135    2.3989 O   0  0  0  0  0  0  0  0  0  0  0  0
    1.2203   -3.4564    2.4290 N   0  0  0  0  0  0  0  0  0  0  0  0
    0.3253   -4.5330    2.4194 C   0  0  0  0  0  0  0  0  0  0  0  0
   -1.0445   -4.2900    2.4313 C   0  0  0  0  0  0  0  0  0  0  0  0
   -1.9306   -5.3622    2.4215 C   0  0  0  0  0  0  0  0  0  0  0  0
   -1.4452   -6.6653    2.4001 C   0  0  0  0  0  0  0  0  0  0  0  0
   -0.0737   -6.8964    2.3878 C   0  0  0  0  0  0  0  0  0  0  0  0
    0.8219   -5.8322    2.3976 C   0  0  0  0  0  0  0  0  0  0  0  0
    2.0516    1.5447    2.4890 C   0  0  0  0  0  0  0  0  0  0  0  0
   -0.8232    9.6347    2.6215 C   0  0  0  0  0  0  0  0  0  0  0  0
   -1.9073   10.4252    2.6366 N   0  0  0  0  0  0  0  0  0  0  0  0
   -1.8112   11.7633    2.6563 C   0  0  0  0  0  0  0  0  0  0  0  0
   -0.5499   12.3505    2.6616 C   0  0  0  0  0  0  0  0  0  0  0  0
    0.5350   11.5615    2.6468 N   0  0  0  0  0  0  0  0  0  0  0  0
    0.4380   10.2232    2.6275 C   0  0  0  0  0  0  0  0  0  0  0  0
    1.6424    9.3806    2.6117 N   0  0  0  0  0  0  0  0  0  0  0  0
  1  2  2  0
  2  3  1  0
  3  4  1  0
  4  5  2  0
  5  6  1  0
  6  7  2  0
  7  8  1  0
  8  9  2  0
  9  4  1  0
  6 10  1  0
 10 11  1  0
 11 12  2  0
 12 13  1  0
 13 14  1  0
 14 15  2  0
 15 16  1  0
 16 17  2  0
 17 18  1  0
 18 19  2  0
 19 14  1  0
 17 20  1  0
 16 21  1  0
 21 22  2  0
 21 23  1  0
 23 24  1  0
 24 25  2  0
 25 26  1  0
 26 27  2  0
 27 28  1  0
 28 29  2  0
 29 24  1  0
 13 30  2  0
 30 10  1  0
  2 31  1  0
 31 32  2  0
 32 33  1  0
 33 34  2  0
 34 35  1  0
 35 36  2  0
 36 31  1  0
 36 37  1  0
M  END
$$$$
s_274090____15432746____16948036
     RDKit          3D

 34 38  0  0  0  0  0  0  0  0999 V2000
    0.5937    4.7943    2.5272 O   0  0  0  0  0  0  0  0  0  0  0  0
    0.6362    3.5950    2.5223 C   0  0  0  0  0  0  0  0  0  0  0  0
   -0.5252    2.8684    2.5297 N   0  0  0  0  0  0  0  0  0  0  0  0
   -1.7618    3.5250    2.5431 C   0  0  0  0  0  0  0  0  0  0  0  0
   -2.9369    2.7803    2.5506 C   0  0  0  0  0  0  0  0  0  0  0  0
   -4.1635    3.4361    2.5642 C   0  0  0  0  0  0  0  0  0  0  0  0
   -4.2087    4.8261    2.5699 C   0  0  0  0  0  0  0  0  0  0  0  0
   -3.0275    5.5605    2.5628 C   0  0  0  0  0  0  0  0  0  0  0  0
   -1.7952    4.9155    2.5492 C   0  0  0  0  0  0  0  0  0  0  0  0
    1.9786    2.8822    2.5077 C   0  0  0  0  0  0  0  0  0  0  0  0
    3.1745    3.5942    2.4999 C   0  0  0  0  0  0  0  0  0  0  0  0
    4.3882    2.9150    2.4865 C   0  0  0  0  0  0  0  0  0  0  0  0
    4.4067    1.5240    2.4809 C   0  0  0  0  0  0  0  0  0  0  0  0
    3.2059    0.8216    2.4889 C   0  0  0  0  0  0  0  0  0  0  0  0
    1.9867    1.4913    2.5023 C   0  0  0  0  0  0  0  0  0  0  0  0
    3.2280   -0.6279    2.4827 C   0  0  0  0  0  0  0  0  0  0  0  0
    4.3419   -1.4103    2.4698 N   0  0  0  0  0  0  0  0  0  0  0  0
    3.9578   -2.6135    2.4673 N   0  0  0  0  0  0  0  0  0  0  0  0
    2.6504   -2.6999    2.4761 N   0  0  0  0  0  0  0  0  0  0  0  0
    2.1375   -1.4425    2.4850 C   0  0  0  0  0  0  0  0  0  0  0  0
    1.8725   -3.9472    2.4744 C   0  0  0  0  0  0  0  0  0  0  0  0
    1.6142   -4.3862    3.9094 C   0  0  0  0  0  0  0  0  0  0  0  0
    0.4819   -3.9640    4.5990 C   0  0  0  0  0  0  0  0  0  0  0  0
    0.2756   -4.3670    5.8622 N   0  0  0  0  0  0  0  0  0  0  0  0
    1.1380   -5.1775    6.4953 C   0  0  0  0  0  0  0  0  0  0  0  0
    2.2357   -5.5959    5.8474 N   0  0  0  0  0  0  0  0  0  0  0  0
    2.4958   -5.2259    4.5842 C   0  0  0  0  0  0  0  0  0  0  0  0
    0.8945   -5.6007    7.8599 C   0  0  0  0  0  0  0  0  0  0  0  0
    1.7944   -6.4410    8.5077 C   0  0  0  0  0  0  0  0  0  0  0  0
    1.5474   -6.8198    9.7705 N   0  0  0  0  0  0  0  0  0  0  0  0
    0.4512   -6.4060   10.4230 C   0  0  0  0  0  0  0  0  0  0  0  0
   -0.4267   -5.5961    9.8128 N   0  0  0  0  0  0  0  0  0  0  0  0
   -0.2370   -5.1818    8.5512 C   0  0  0  0  0  0  0  0  0  0  0  0
    3.1938    5.1141    2.5055 C   0  0  0  0  0  0  0  0  0  0  0  0
  1  2  2  0
  2  3  1  0
  3  4  1  0
  4  5  2  0
  5  6  1  0
  6  7  2  0
  7  8  1  0
  8  9  2  0
  9  4  1  0
  2 10  1  0
 10 11  2  0
 11 12  1  0
 12 13  2  0
 13 14  1  0
 14 15  2  0
 15 10  1  0
 14 16  1  0
 16 17  1  0
 17 18  2  0
 18 19  1  0
 19 20  1  0
 16 20  2  0
 19 21  1  0
 21 22  1  0
 22 23  2  0
 23 24  1  0
 24 25  2  0
 25 26  1  0
 26 27  2  0
 27 22  1  0
 25 28  1  0
 28 29  2  0
 29 30  1  0
 30 31  2  0
 31 32  1  0
 32 33  2  0
 33 28  1  0
 11 34  1  0
M  END
$$$$
s_270196____13456122____8776128
     RDKit          3D

 34 38  0  0  0  0  0  0  0  0999 V2000
    5.6164   -5.7377   -3.2753 Cl  0  0  0  0  0  0  0  0  0  0  0  0
    5.3988   -5.1596   -1.6053 C   0  0  0  0  0  0  0  0  0  0  0  0
    6.1642   -4.1326   -1.0569 C   0  0  0  0  0  0  0  0  0  0  0  0
    5.9678   -3.7038    0.2548 C   0  0  0  0  0  0  0  0  0  0  0  0
    6.7238   -2.7112    0.7539 N   0  0  0  0  0  0  0  0  0  0  0  0
    7.6770   -2.0944    0.0393 C   0  0  0  0  0  0  0  0  0  0  0  0
    7.9185   -2.4774   -1.2765 C   0  0  0  0  0  0  0  0  0  0  0  0
    7.1490   -3.5053   -1.8119 C   0  0  0  0  0  0  0  0  0  0  0  0
    4.9822   -4.3265    1.0176 C   0  0  0  0  0  0  0  0  0  0  0  0
    4.2071   -5.3543    0.4905 C   0  0  0  0  0  0  0  0  0  0  0  0
    4.4219   -5.7644   -0.8214 C   0  0  0  0  0  0  0  0  0  0  0  0
    4.7088   -3.9138    2.4553 C   0  0  0  0  0  0  0  0  0  0  0  0
    3.8512   -2.6602    2.4678 C   0  0  0  0  0  0  0  0  0  0  0  0
    2.5427   -2.6213    2.4796 N   0  0  0  0  0  0  0  0  0  0  0  0
    2.1734   -1.4101    2.4899 O   0  0  0  0  0  0  0  0  0  0  0  0
    3.2281   -0.6290    2.4827 C   0  0  0  0  0  0  0  0  0  0  0  0
    4.3052   -1.3761    2.4691 N   0  0  0  0  0  0  0  0  0  0  0  0
    3.2062    0.8215    2.4897 C   0  0  0  0  0  0  0  0  0  0  0  0
    1.9856    1.4890    2.5053 C   0  0  0  0  0  0  0  0  0  0  0  0
    1.9769    2.8800    2.5117 C   0  0  0  0  0  0  0  0  0  0  0  0
    0.7417    3.5392    2.5275 N   0  0  0  0  0  0  0  0  0  0  0  0
   -0.1526    3.3428    1.5084 C   0  0  0  0  0  0  0  0  0  0  0  0
    0.1226    2.6058    0.6023 O   0  0  0  0  0  0  0  0  0  0  0  0
   -1.4320    4.0256    1.5248 C   0  0  0  0  0  0  0  0  0  0  0  0
   -1.9349    4.5327    2.7194 C   0  0  0  0  0  0  0  0  0  0  0  0
   -1.2427    4.3908    3.8463 F   0  0  0  0  0  0  0  0  0  0  0  0
   -3.1621    5.1870    2.7348 C   0  0  0  0  0  0  0  0  0  0  0  0
   -3.8860    5.3354    1.5567 C   0  0  0  0  0  0  0  0  0  0  0  0
   -3.3831    4.8285    0.3625 C   0  0  0  0  0  0  0  0  0  0  0  0
   -2.1556    4.1743    0.3469 C   0  0  0  0  0  0  0  0  0  0  0  0
    3.1722    3.5930    2.5023 C   0  0  0  0  0  0  0  0  0  0  0  0
    4.3872    2.9146    2.4871 C   0  0  0  0  0  0  0  0  0  0  0  0
    4.4074    1.5237    2.4807 C   0  0  0  0  0  0  0  0  0  0  0  0
    3.1505    5.1125    2.5107 C   0  0  0  0  0  0  0  0  0  0  0  0
  1  2  1  0
  2  3  2  0
  3  4  1  0
  4  5  1  0
  5  6  2  0
  6  7  1  0
  7  8  2  0
  8  3  1  0
  4  9  2  0
  9 10  1  0
 10 11  2  0
 11  2  1  0
  9 12  1  0
 12 13  1  0
 13 14  2  0
 14 15  1  0
 15 16  1  0
 16 17  2  0
 17 13  1  0
 16 18  1  0
 18 19  2  0
 19 20  1  0
 20 21  1  0
 21 22  1  0
 22 23  2  0
 22 24  1  0
 24 25  2  0
 25 26  1  0
 25 27  1  0
 27 28  2  0
 28 29  1  0
 29 30  2  0
 30 24  1  0
 20 31  2  0
 31 32  1  0
 32 33  2  0
 33 18  1  0
 31 34  1  0
M  END
$$$$
s_708____5904736____8252306
     RDKit          3D

 33 37  0  0  0  0  0  0  0  0999 V2000
   -7.1646    3.1479    2.5540 Cl  0  0  0  0  0  0  0  0  0  0  0  0
   -6.0049    1.7971    2.5502 C   0  0  0  0  0  0  0  0  0  0  0  0
   -5.5497    1.2745    3.7564 C   0  0  0  0  0  0  0  0  0  0  0  0
   -4.6434    0.2196    3.7446 C   0  0  0  0  0  0  0  0  0  0  0  0
   -4.2041   -0.3001    2.5314 C   0  0  0  0  0  0  0  0  0  0  0  0
   -3.0707   -1.6205    2.5267 S   0  0  0  0  0  0  0  0  0  0  0  0
   -1.5895   -0.7078    2.5187 C   0  0  0  0  0  0  0  0  0  0  0  0
   -0.3696   -1.3762    2.5130 C   0  0  0  0  0  0  0  0  0  0  0  0
    0.8085   -0.6363    2.5067 C   0  0  0  0  0  0  0  0  0  0  0  0
    0.7573    0.7541    2.5065 C   0  0  0  0  0  0  0  0  0  0  0  0
   -0.4653    1.4179    2.5118 C   0  0  0  0  0  0  0  0  0  0  0  0
   -1.6460    0.6822    2.5182 C   0  0  0  0  0  0  0  0  0  0  0  0
    1.9928    1.5131    2.5007 C   0  0  0  0  0  0  0  0  0  0  0  0
    1.9860    2.8354    2.5006 N   0  0  0  0  0  0  0  0  0  0  0  0
    3.1479    3.5642    2.4955 C   0  0  0  0  0  0  0  0  0  0  0  0
    4.3714    2.9007    2.4900 C   0  0  0  0  0  0  0  0  0  0  0  0
    5.5511    3.6390    2.4849 C   0  0  0  0  0  0  0  0  0  0  0  0
    5.5301    5.0284    2.4838 C   0  0  0  0  0  0  0  0  0  0  0  0
    6.7060    5.6912    2.4778 O   0  0  0  0  0  0  0  0  0  0  0  0
    7.2995    6.0237    3.6441 C   0  0  0  0  0  0  0  0  0  0  0  0
    7.0057    7.2470    4.2370 C   0  0  0  0  0  0  0  0  0  0  0  0
    7.6130    7.5966    5.4382 C   0  0  0  0  0  0  0  0  0  0  0  0
    8.5087    6.7142    6.0327 C   0  0  0  0  0  0  0  0  0  0  0  0
    9.2893    7.1541    7.5704 Cl  0  0  0  0  0  0  0  0  0  0  0  0
    8.8063    5.4892    5.4452 C   0  0  0  0  0  0  0  0  0  0  0  0
    8.1956    5.1460    4.2438 C   0  0  0  0  0  0  0  0  0  0  0  0
    4.3085    5.6938    2.4888 C   0  0  0  0  0  0  0  0  0  0  0  0
    3.1292    4.9557    2.4948 C   0  0  0  0  0  0  0  0  0  0  0  0
    4.3730    1.4784    2.4906 C   0  0  0  0  0  0  0  0  0  0  0  0
    5.4013    0.8177    2.4878 O   0  0  0  0  0  0  0  0  0  0  0  0
    3.1736    0.8184    2.4956 N   0  0  0  0  0  0  0  0  0  0  0  0
   -4.6577    0.2209    1.3243 C   0  0  0  0  0  0  0  0  0  0  0  0
   -5.5641    1.2760    1.3385 C   0  0  0  0  0  0  0  0  0  0  0  0
  1  2  1  0
  2  3  2  0
  3  4  1  0
  4  5  2  0
  5  6  1  0
  6  7  1  0
  7  8  2  0
  8  9  1  0
  9 10  2  0
 10 11  1  0
 11 12  2  0
 12  7  1  0
 10 13  1  0
 13 14  2  0
 14 15  1  0
 15 16  2  0
 16 17  1  0
 17 18  2  0
 18 19  1  0
 19 20  1  0
 20 21  2  0
 21 22  1  0
 22 23  2  0
 23 24  1  0
 23 25  1  0
 25 26  2  0
 26 20  1  0
 18 27  1  0
 27 28  2  0
 28 15  1  0
 16 29  1  0
 29 30  2  0
 29 31  1  0
 31 13  1  0
  5 32  1  0
 32 33  2  0
 33  2  1  0
M  END
$$$$
s_51____503310____77354
     RDKit          3D

 36 39  0  0  0  0  0  0  0  0999 V2000
   -2.6421   -2.7431   -4.6867 F   0  0  0  0  0  0  0  0  0  0  0  0
   -1.3996   -2.3781   -4.3861 C   0  0  0  0  0  0  0  0  0  0  0  0
   -1.1805   -1.2581   -3.5907 C   0  0  0  0  0  0  0  0  0  0  0  0
   -2.2160   -0.5587   -3.1363 F   0  0  0  0  0  0  0  0  0  0  0  0
    0.1215   -0.8810   -3.2787 C   0  0  0  0  0  0  0  0  0  0  0  0
    0.3268    0.2486   -2.4775 N   0  0  0  0  0  0  0  0  0  0  0  0
    0.9835    0.1296   -1.2810 C   0  0  0  0  0  0  0  0  0  0  0  0
    1.3826   -0.9428   -0.9197 O   0  0  0  0  0  0  0  0  0  0  0  0
    1.2064    1.3561   -0.4112 C   0  0  0  0  0  0  0  0  0  0  0  0
    1.0000    1.0000    1.0000 N   0  0  0  0  0  0  0  0  0  0  0  0
    1.8474    1.8474    1.8474 C   0  0  0  0  0  0  0  0  0  0  0  0
    3.3165    1.6627    1.5098 C   0  0  0  0  0  0  0  0  0  0  0  0
    3.8758    0.5932    1.3839 O   0  0  0  0  0  0  0  0  0  0  0  0
    3.9092    2.9161    1.3620 N   0  0  0  0  0  0  0  0  0  0  0  0
    5.2712    3.1378    1.1265 C   0  0  0  0  0  0  0  0  0  0  0  0
    6.1309    3.2921    2.2094 C   0  0  0  0  0  0  0  0  0  0  0  0
    7.4845    3.5121    1.9753 C   0  0  0  0  0  0  0  0  0  0  0  0
    7.9632    3.5753    0.6709 C   0  0  0  0  0  0  0  0  0  0  0  0
    9.3252    3.7966    0.4356 N   0  0  0  0  0  0  0  0  0  0  0  0
    9.7490    3.8525   -0.7177 N   0  0  0  0  0  0  0  0  0  0  0  0
   11.1114    4.0739   -0.9530 C   0  0  0  0  0  0  0  0  0  0  0  0
   11.5832    4.1359   -2.2603 C   0  0  0  0  0  0  0  0  0  0  0  0
   12.9373    4.3562   -2.4902 C   0  0  0  0  0  0  0  0  0  0  0  0
   13.8083    4.5124   -1.4172 C   0  0  0  0  0  0  0  0  0  0  0  0
   13.3253    4.4491   -0.1144 C   0  0  0  0  0  0  0  0  0  0  0  0
   11.9734    4.2292    0.1275 C   0  0  0  0  0  0  0  0  0  0  0  0
    7.1037    3.4209   -0.4123 C   0  0  0  0  0  0  0  0  0  0  0  0
    5.7501    3.2012   -0.1780 C   0  0  0  0  0  0  0  0  0  0  0  0
    2.9564    3.9198    1.4899 C   0  0  0  0  0  0  0  0  0  0  0  0
    3.1890    5.1108    1.4850 O   0  0  0  0  0  0  0  0  0  0  0  0
    1.5771    3.3206    1.6361 C   0  0  0  0  0  0  0  0  0  0  0  0
   -0.4112    1.2064    1.3561 C   0  0  0  0  0  0  0  0  0  0  0  0
    1.2043   -1.6134   -3.7548 C   0  0  0  0  0  0  0  0  0  0  0  0
    0.9903   -2.7340   -4.5505 C   0  0  0  0  0  0  0  0  0  0  0  0
   -0.3135   -3.1070   -4.8599 C   0  0  0  0  0  0  0  0  0  0  0  0
   -0.5363   -4.1760   -5.6190 F   0  0  0  0  0  0  0  0  0  0  0  0
  1  2  1  0
  2  3  2  0
  3  4  1  0
  3  5  1  0
  5  6  1  0
  6  7  1  0
  7  8  2  0
  7  9  1  0
  9 10  1  0
 10 11  1  0
 11 12  1  0
 12 13  2  0
 12 14  1  0
 14 15  1  0
 15 16  2  0
 16 17  1  0
 17 18  2  0
 18 19  1  0
 19 20  2  0
 20 21  1  0
 21 22  2  0
 22 23  1  0
 23 24  2  0
 24 25  1  0
 25 26  2  0
 26 21  1  0
 18 27  1  0
 27 28  2  0
 28 15  1  0
 14 29  1  0
 29 30  2  0
 29 31  1  0
 31 11  1  0
 10 32  1  0
  5 33  2  0
 33 34  1  0
 34 35  2  0
 35  2  1  0
 35 36  1  0
M  CHG  1  10   1
M  END
$$$$
s_22____2335082____736388
     RDKit          3D

 33 36  0  0  0  0  0  0  0  0999 V2000
    6.1419   -3.5690    1.2219 F   0  0  0  0  0  0  0  0  0  0  0  0
    6.3008   -3.8332    2.5158 C   0  0  0  0  0  0  0  0  0  0  0  0
    5.7732   -2.9708    3.4725 C   0  0  0  0  0  0  0  0  0  0  0  0
    5.9395   -3.2470    4.8250 C   0  0  0  0  0  0  0  0  0  0  0  0
    6.6320   -4.3861    5.2221 C   0  0  0  0  0  0  0  0  0  0  0  0
    7.1594   -5.2484    4.2660 C   0  0  0  0  0  0  0  0  0  0  0  0
    6.9933   -4.9720    2.9132 C   0  0  0  0  0  0  0  0  0  0  0  0
    5.0504   -1.7835    3.0585 C   0  0  0  0  0  0  0  0  0  0  0  0
    4.3014   -1.2402    3.8225 O   0  0  0  0  0  0  0  0  0  0  0  0
    5.2229   -1.2823    1.7952 N   0  0  0  0  0  0  0  0  0  0  0  0
    4.5252   -0.1360    1.3956 C   0  0  0  0  0  0  0  0  0  0  0  0
    5.2230    1.0001    0.9988 C   0  0  0  0  0  0  0  0  0  0  0  0
    4.5297    2.1386    0.6017 C   0  0  0  0  0  0  0  0  0  0  0  0
    3.1384    2.1416    0.6012 C   0  0  0  0  0  0  0  0  0  0  0  0
    2.4504    1.0000    1.0000 C   0  0  0  0  0  0  0  0  0  0  0  0
    3.1344   -0.1437    1.3987 C   0  0  0  0  0  0  0  0  0  0  0  0
    1.0000    1.0000    1.0000 C   0  0  0  0  0  0  0  0  0  0  0  0
    0.4000    2.0391    1.0141 O   0  0  0  0  0  0  0  0  0  0  0  0
    0.3150   -0.1863    0.9839 N   0  0  0  0  0  0  0  0  0  0  0  0
   -1.0680   -0.1863    0.9839 N   0  0  0  0  0  0  0  0  0  0  0  0
   -1.7530   -0.2025    2.1702 C   0  0  0  0  0  0  0  0  0  0  0  0
   -1.1530   -0.2166    3.2093 O   0  0  0  0  0  0  0  0  0  0  0  0
   -3.2033   -0.2025    2.1702 C   0  0  0  0  0  0  0  0  0  0  0  0
   -3.9352   -0.2186    3.3559 C   0  0  0  0  0  0  0  0  0  0  0  0
   -3.3479   -0.2319    4.5671 N   0  0  0  0  0  0  0  0  0  0  0  0
   -4.0477   -0.2495    5.7115 C   0  0  0  0  0  0  0  0  0  0  0  0
   -5.4386   -0.2512    5.6773 C   0  0  0  0  0  0  0  0  0  0  0  0
   -6.0759   -0.2365    4.4410 C   0  0  0  0  0  0  0  0  0  0  0  0
   -5.3241   -0.2196    3.2718 C   0  0  0  0  0  0  0  0  0  0  0  0
   -5.9791   -0.2054    2.0447 C   0  0  0  0  0  0  0  0  0  0  0  0
   -5.2304   -0.1896    0.8728 C   0  0  0  0  0  0  0  0  0  0  0  0
   -3.8409   -0.1882    0.9352 C   0  0  0  0  0  0  0  0  0  0  0  0
    6.7432    1.0197    0.9902 C   0  0  0  0  0  0  0  0  0  0  0  0
  1  2  1  0
  2  3  2  0
  3  4  1  0
  4  5  2  0
  5  6  1  0
  6  7  2  0
  7  2  1  0
  3  8  1  0
  8  9  2  0
  8 10  1  0
 10 11  1  0
 11 12  2  0
 12 13  1  0
 13 14  2  0
 14 15  1  0
 15 16  2  0
 16 11  1  0
 15 17  1  0
 17 18  2  0
 17 19  1  0
 19 20  1  0
 20 21  1  0
 21 22  2  0
 21 23  1  0
 23 24  1  0
 24 25  2  0
 25 26  1  0
 26 27  2  0
 27 28  1  0
 28 29  2  0
 29 24  1  0
 29 30  1  0
 30 31  2  0
 31 32  1  0
 32 23  2  0
 12 33  1  0
M  END
$$$$
s_22____4556042____10858084
     RDKit          3D

 35 39  0  0  0  0  0  0  0  0999 V2000
    4.8882   -2.9742    8.8555 F   0  0  0  0  0  0  0  0  0  0  0  0
    4.3609   -1.8181    8.4602 C   0  0  0  0  0  0  0  0  0  0  0  0
    3.3018   -1.2581    9.1680 C   0  0  0  0  0  0  0  0  0  0  0  0
    2.7607   -1.9173   10.3416 C   0  0  0  0  0  0  0  0  0  0  0  0
    2.3002   -1.1563   11.4099 C   0  0  0  0  0  0  0  0  0  0  0  0
    1.7860   -1.8142   12.5221 C   0  0  0  0  0  0  0  0  0  0  0  0
    1.7350   -3.1542   12.5631 N   0  0  0  0  0  0  0  0  0  0  0  0
    2.1745   -3.9044   11.5419 C   0  0  0  0  0  0  0  0  0  0  0  0
    2.7001   -3.3051   10.4018 C   0  0  0  0  0  0  0  0  0  0  0  0
    2.7500   -0.0499    8.7548 C   0  0  0  0  0  0  0  0  0  0  0  0
    3.2563    0.5987    7.6332 C   0  0  0  0  0  0  0  0  0  0  0  0
    4.3153    0.0325    6.9310 C   0  0  0  0  0  0  0  0  0  0  0  0
    4.8728   -1.1751    7.3375 C   0  0  0  0  0  0  0  0  0  0  0  0
    4.8497    0.7016    5.7601 C   0  0  0  0  0  0  0  0  0  0  0  0
    5.5430    1.6727    5.8881 O   0  0  0  0  0  0  0  0  0  0  0  0
    4.5562    0.2135    4.4782 N   0  0  0  0  0  0  0  0  0  0  0  0
    5.4284    0.4553    3.3173 C   0  0  0  0  0  0  0  0  0  0  0  0
    4.5400    0.7218    2.1222 C   0  0  0  0  0  0  0  0  0  0  0  0
    3.1477    0.7089    2.1429 C   0  0  0  0  0  0  0  0  0  0  0  0
    2.4010    1.0000    1.0000 C   0  0  0  0  0  0  0  0  0  0  0  0
    1.0000    1.0000    1.0000 N   0  0  0  0  0  0  0  0  0  0  0  0
    0.3150    0.0984    0.2288 C   0  0  0  0  0  0  0  0  0  0  0  0
    0.8607   -0.8986   -0.1562 O   0  0  0  0  0  0  0  0  0  0  0  0
   -0.9930    0.3350   -0.1028 N   0  0  0  0  0  0  0  0  0  0  0  0
   -1.5093   -0.1553   -1.3085 C   0  0  0  0  0  0  0  0  0  0  0  0
   -0.8283    0.0849   -2.4976 C   0  0  0  0  0  0  0  0  0  0  0  0
   -1.3441   -0.4040   -3.6933 C   0  0  0  0  0  0  0  0  0  0  0  0
   -2.5323   -1.1267   -3.6941 C   0  0  0  0  0  0  0  0  0  0  0  0
   -3.2044   -1.3613   -2.4992 C   0  0  0  0  0  0  0  0  0  0  0  0
   -2.6982   -0.8773   -1.2974 C   0  0  0  0  0  0  0  0  0  0  0  0
    3.0555    1.3053   -0.1900 C   0  0  0  0  0  0  0  0  0  0  0  0
    4.4458    1.3109   -0.2280 C   0  0  0  0  0  0  0  0  0  0  0  0
    5.1750    1.0172    0.9213 C   0  0  0  0  0  0  0  0  0  0  0  0
    2.4370    0.3845    3.4426 C   0  0  0  0  0  0  0  0  0  0  0  0
    3.3551   -0.5741    4.1744 C   0  0  0  0  0  0  0  0  0  0  0  0
  1  2  1  0
  2  3  2  0
  3  4  1  0
  4  5  2  0
  5  6  1  0
  6  7  2  0
  7  8  1  0
  8  9  2  0
  9  4  1  0
  3 10  1  0
 10 11  2  0
 11 12  1  0
 12 13  2  0
 13  2  1  0
 12 14  1  0
 14 15  2  0
 14 16  1  0
 16 17  1  0
 17 18  1  0
 18 19  2  0
 19 20  1  0
 20 21  1  0
 21 22  1  0
 22 23  2  0
 22 24  1  0
 24 25  1  0
 25 26  2  0
 26 27  1  0
 27 28  2  0
 28 29  1  0
 29 30  2  0
 30 25  1  0
 20 31  2  0
 31 32  1  0
 32 33  2  0
 33 18  1  0
 19 34  1  0
 34 35  1  0
 35 16  1  0
M  END
$$$$
s_270196____8770012____8781142
     RDKit          3D

 35 39  0  0  0  0  0  0  0  0999 V2000
    0.4000    2.0392    1.0014 O   0  0  0  0  0  0  0  0  0  0  0  0
    1.0000    1.0000    1.0000 C   0  0  0  0  0  0  0  0  0  0  0  0
    0.3150   -0.1865    0.9984 N   0  0  0  0  0  0  0  0  0  0  0  0
   -1.1550   -0.1865    0.9984 C   0  0  0  0  0  0  0  0  0  0  0  0
   -1.6617   -0.1845   -0.4348 C   0  0  0  0  0  0  0  0  0  0  0  0
   -1.8915   -1.3918   -1.0865 C   0  0  0  0  0  0  0  0  0  0  0  0
   -2.3542   -1.3843   -2.3980 C   0  0  0  0  0  0  0  0  0  0  0  0
   -2.5824   -0.1719   -3.0413 C   0  0  0  0  0  0  0  0  0  0  0  0
   -2.3546    1.0354   -2.3878 C   0  0  0  0  0  0  0  0  0  0  0  0
   -1.8904    1.0279   -1.0766 C   0  0  0  0  0  0  0  0  0  0  0  0
   -3.0867   -0.1702   -4.4752 C   0  0  0  0  0  0  0  0  0  0  0  0
    2.4499    1.0000    1.0000 C   0  0  0  0  0  0  0  0  0  0  0  0
    3.1346    2.2109    1.0017 C   0  0  0  0  0  0  0  0  0  0  0  0
    4.5254    2.1975    1.0035 C   0  0  0  0  0  0  0  0  0  0  0  0
    5.2307    0.9985    1.0028 C   0  0  0  0  0  0  0  0  0  0  0  0
    4.5242   -0.1995    1.0012 C   0  0  0  0  0  0  0  0  0  0  0  0
    3.1336   -0.2112    0.9999 C   0  0  0  0  0  0  0  0  0  0  0  0
    5.2469    3.4557    1.0050 C   0  0  0  0  0  0  0  0  0  0  0  0
    6.5511    3.6024    1.0068 N   0  0  0  0  0  0  0  0  0  0  0  0
    6.8206    4.8410    1.0049 O   0  0  0  0  0  0  0  0  0  0  0  0
    5.7066    5.5320    1.0034 C   0  0  0  0  0  0  0  0  0  0  0  0
    4.6975    4.6984    1.0019 N   0  0  0  0  0  0  0  0  0  0  0  0
    5.6086    6.9790    1.0020 C   0  0  0  0  0  0  0  0  0  0  0  0
    4.3502    7.6404    1.0004 C   0  0  0  0  0  0  0  0  0  0  0  0
    3.3356    6.9997    1.0000 O   0  0  0  0  0  0  0  0  0  0  0  0
    4.3186    9.0111    0.9988 N   0  0  0  0  0  0  0  0  0  0  0  0
    5.4725    9.7516    0.9989 C   0  0  0  0  0  0  0  0  0  0  0  0
    5.4164   11.2002    0.9968 C   0  0  0  0  0  0  0  0  0  0  0  0
    6.5322   11.9457    0.9969 N   0  0  0  0  0  0  0  0  0  0  0  0
    6.4860   13.2853    0.9946 C   0  0  0  0  0  0  0  0  0  0  0  0
    5.2665   13.9532    0.9924 C   0  0  0  0  0  0  0  0  0  0  0  0
    4.0974   13.1994    0.9926 C   0  0  0  0  0  0  0  0  0  0  0  0
    4.1658   11.8105    0.9945 C   0  0  0  0  0  0  0  0  0  0  0  0
    6.6986    9.1378    1.0008 C   0  0  0  0  0  0  0  0  0  0  0  0
    6.7635    7.7181    1.0026 C   0  0  0  0  0  0  0  0  0  0  0  0
  1  2  2  0
  2  3  1  0
  3  4  1  0
  4  5  1  0
  5  6  2  0
  6  7  1  0
  7  8  2  0
  8  9  1  0
  9 10  2  0
 10  5  1  0
  8 11  1  0
  2 12  1  0
 12 13  2  0
 13 14  1  0
 14 15  2  0
 15 16  1  0
 16 17  2  0
 17 12  1  0
 14 18  1  0
 18 19  2  0
 19 20  1  0
 20 21  1  0
 21 22  2  0
 22 18  1  0
 21 23  1  0
 23 24  1  0
 24 25  2  0
 24 26  1  0
 26 27  1  0
 27 28  1  0
 28 29  2  0
 29 30  1  0
 30 31  2  0
 31 32  1  0
 32 33  2  0
 33 28  1  0
 27 34  2  0
 34 35  1  0
 23 35  2  0
M  END
$$$$
s_22____4601938____13263488
     RDKit          3D

 34 37  0  0  0  0  0  0  0  0999 V2000
    0.2827   -8.4535    2.4219 Br  0  0  0  0  0  0  0  0  0  0  0  0
   -0.7499   -6.7875    2.4235 C   0  0  0  0  0  0  0  0  0  0  0  0
   -2.1424   -6.8009    2.4249 C   0  0  0  0  0  0  0  0  0  0  0  0
   -2.8415   -7.9472    2.4254 N   0  0  0  0  0  0  0  0  0  0  0  0
   -4.1829   -7.9656    2.4260 C   0  0  0  0  0  0  0  0  0  0  0  0
   -4.8729   -6.7573    2.4271 C   0  0  0  0  0  0  0  0  0  0  0  0
   -4.1747   -5.6122    2.4273 N   0  0  0  0  0  0  0  0  0  0  0  0
   -2.8326   -5.5914    2.4262 C   0  0  0  0  0  0  0  0  0  0  0  0
   -2.1285   -4.3910    2.4269 C   0  0  0  0  0  0  0  0  0  0  0  0
   -0.7378   -4.3846    2.4262 C   0  0  0  0  0  0  0  0  0  0  0  0
   -0.0422   -5.5898    2.4247 C   0  0  0  0  0  0  0  0  0  0  0  0
   -0.0133   -3.1299    2.4278 C   0  0  0  0  0  0  0  0  0  0  0  0
    1.1867   -3.1299    2.4278 O   0  0  0  0  0  0  0  0  0  0  0  0
   -0.6983   -1.9434    2.4293 N   0  0  0  0  0  0  0  0  0  0  0  0
    0.0367   -0.6704    2.4309 C   0  0  0  0  0  0  0  0  0  0  0  0
    0.2900   -0.2298    0.9984 C   0  0  0  0  0  0  0  0  0  0  0  0
    1.0000    1.0000    1.0000 O   0  0  0  0  0  0  0  0  0  0  0  0
    2.3509    1.0000    1.0000 C   0  0  0  0  0  0  0  0  0  0  0  0
    3.0400    2.1347    1.4146 C   0  0  0  0  0  0  0  0  0  0  0  0
    4.4310    2.1149    1.4060 C   0  0  0  0  0  0  0  0  0  0  0  0
    5.1297    3.2540    1.8214 N   0  0  0  0  0  0  0  0  0  0  0  0
    6.2600    3.1238    2.5846 C   0  0  0  0  0  0  0  0  0  0  0  0
    6.4593    2.1091    3.1934 O   0  0  0  0  0  0  0  0  0  0  0  0
    7.2154    4.2123    2.6569 C   0  0  0  0  0  0  0  0  0  0  0  0
    8.3566    4.0613    3.4370 C   0  0  0  0  0  0  0  0  0  0  0  0
    9.2787    5.1003    3.5137 C   0  0  0  0  0  0  0  0  0  0  0  0
    9.0480    6.2769    2.8086 C   0  0  0  0  0  0  0  0  0  0  0  0
    9.9838    7.3425    2.8790 O   0  0  0  0  0  0  0  0  0  0  0  0
    9.7479    8.5435    2.1590 C   0  0  0  0  0  0  0  0  0  0  0  0
    7.9060    6.4274    2.0285 C   0  0  0  0  0  0  0  0  0  0  0  0
    6.9838    5.3890    1.9520 C   0  0  0  0  0  0  0  0  0  0  0  0
    5.1275    0.9845    0.9913 C   0  0  0  0  0  0  0  0  0  0  0  0
    4.4256   -0.1417    0.5767 C   0  0  0  0  0  0  0  0  0  0  0  0
    3.0352   -0.1354    0.5815 C   0  0  0  0  0  0  0  0  0  0  0  0
  1  2  1  0
  2  3  2  0
  3  4  1  0
  4  5  2  0
  5  6  1  0
  6  7  2  0
  7  8  1  0
  8  3  1  0
  8  9  2  0
  9 10  1  0
 10 11  2  0
 11  2  1  0
 10 12  1  0
 12 13  2  0
 12 14  1  0
 14 15  1  0
 15 16  1  0
 16 17  1  0
 17 18  1  0
 18 19  2  0
 19 20  1  0
 20 21  1  0
 21 22  1  0
 22 23  2  0
 22 24  1  0
 24 25  2  0
 25 26  1  0
 26 27  2  0
 27 28  1  0
 28 29  1  0
 27 30  1  0
 30 31  2  0
 31 24  1  0
 20 32  2  0
 32 33  1  0
 33 34  2  0
 34 18  1  0
M  END
$$$$
s_270196____13074376____10226198
     RDKit          3D

 34 38  0  0  0  0  0  0  0  0999 V2000
   10.6548    9.2117   -0.9227 Br  0  0  0  0  0  0  0  0  0  0  0  0
    9.5842    7.8521   -0.0021 C   0  0  0  0  0  0  0  0  0  0  0  0
   10.1693    7.0703    0.9884 C   0  0  0  0  0  0  0  0  0  0  0  0
    9.4009    6.1081    1.6358 C   0  0  0  0  0  0  0  0  0  0  0  0
   10.0045    5.3309    2.6279 N   0  0  0  0  0  0  0  0  0  0  0  0
   10.1247    4.0197    2.6214 N   0  0  0  0  0  0  0  0  0  0  0  0
   10.7443    3.6369    3.7147 C   0  0  0  0  0  0  0  0  0  0  0  0
   11.0128    4.7632    4.4405 N   0  0  0  0  0  0  0  0  0  0  0  0
   10.5631    5.8109    3.7781 C   0  0  0  0  0  0  0  0  0  0  0  0
    8.0629    5.9305    1.2966 C   0  0  0  0  0  0  0  0  0  0  0  0
    7.4865    6.7176    0.3045 C   0  0  0  0  0  0  0  0  0  0  0  0
    8.2475    7.6823   -0.3478 C   0  0  0  0  0  0  0  0  0  0  0  0
    7.2429    4.9336    1.9576 C   0  0  0  0  0  0  0  0  0  0  0  0
    7.5808    4.2501    3.0239 O   0  0  0  0  0  0  0  0  0  0  0  0
    6.6369    3.4661    3.3417 N   0  0  0  0  0  0  0  0  0  0  0  0
    5.6556    3.6198    2.4839 C   0  0  0  0  0  0  0  0  0  0  0  0
    6.0425    4.5653    1.5881 N   0  0  0  0  0  0  0  0  0  0  0  0
    4.3919    2.9082    2.4900 C   0  0  0  0  0  0  0  0  0  0  0  0
    3.1488    3.5978    2.5045 C   0  0  0  0  0  0  0  0  0  0  0  0
    3.1279    4.8179    2.5122 O   0  0  0  0  0  0  0  0  0  0  0  0
    1.9853    2.8725    2.5102 N   0  0  0  0  0  0  0  0  0  0  0  0
    1.9988    1.5016    2.5019 C   0  0  0  0  0  0  0  0  0  0  0  0
    0.7564    0.7539    2.5084 C   0  0  0  0  0  0  0  0  0  0  0  0
   -0.4543    1.4383    2.5231 C   0  0  0  0  0  0  0  0  0  0  0  0
   -1.6391    0.7097    2.5293 C   0  0  0  0  0  0  0  0  0  0  0  0
   -1.6253   -0.6813    2.5201 C   0  0  0  0  0  0  0  0  0  0  0  0
   -0.4023   -1.3434    2.5052 C   0  0  0  0  0  0  0  0  0  0  0  0
    0.7956   -0.6364    2.4994 C   0  0  0  0  0  0  0  0  0  0  0  0
   -2.9673    1.4496    2.5456 C   0  0  0  0  0  0  0  0  0  0  0  0
   -3.3658    1.6729    1.2965 F   0  0  0  0  0  0  0  0  0  0  0  0
   -3.8774    0.7129    3.1763 F   0  0  0  0  0  0  0  0  0  0  0  0
   -2.8204    2.6103    3.1782 F   0  0  0  0  0  0  0  0  0  0  0  0
    3.1844    0.8129    2.4875 C   0  0  0  0  0  0  0  0  0  0  0  0
    4.4071    1.5372    2.4813 C   0  0  0  0  0  0  0  0  0  0  0  0
  1  2  1  0
  2  3  2  0
  3  4  1  0
  4  5  1  0
  5  6  1  0
  6  7  2  0
  7  8  1  0
  8  9  2  0
  9  5  1  0
  4 10  2  0
 10 11  1  0
 11 12  2  0
 12  2  1  0
 10 13  1  0
 13 14  1  0
 14 15  1  0
 15 16  2  0
 16 17  1  0
 13 17  2  0
 16 18  1  0
 18 19  1  0
 19 20  2  0
 19 21  1  0
 21 22  1  0
 22 23  1  0
 23 24  2  0
 24 25  1  0
 25 26  2  0
 26 27  1  0
 27 28  2  0
 28 23  1  0
 25 29  1  0
 29 30  1  0
 29 31  1  0
 29 32  1  0
 22 33  2  0
 33 34  1  0
 18 34  2  0
M  END
$$$$
s_527a____1723392____626840
     RDKit          3D

 34 38  0  0  0  0  0  0  0  0999 V2000
    5.4042   -8.4867    1.7443 S   0  0  0  0  0  0  0  0  0  0  0  0
    5.4760   -7.0820    2.5265 C   0  0  0  0  0  0  0  0  0  0  0  0
    5.0245   -5.9327    1.9328 N   0  0  0  0  0  0  0  0  0  0  0  0
    5.0825   -4.7334    2.5929 C   0  0  0  0  0  0  0  0  0  0  0  0
    5.6046   -4.6730    3.8819 C   0  0  0  0  0  0  0  0  0  0  0  0
    5.6565   -3.4456    4.5392 C   0  0  0  0  0  0  0  0  0  0  0  0
    5.2007   -2.2776    3.9413 C   0  0  0  0  0  0  0  0  0  0  0  0
    4.6843   -2.3663    2.6545 C   0  0  0  0  0  0  0  0  0  0  0  0
    4.6198   -3.5772    1.9731 C   0  0  0  0  0  0  0  0  0  0  0  0
    4.2080   -1.1501    2.0294 C   0  0  0  0  0  0  0  0  0  0  0  0
    4.0944   -1.0935    0.8362 O   0  0  0  0  0  0  0  0  0  0  0  0
    3.8868   -0.0641    2.8003 N   0  0  0  0  0  0  0  0  0  0  0  0
    3.4030    1.1711    2.1655 C   0  0  0  0  0  0  0  0  0  0  0  0
    2.0188    1.4945    2.6784 C   0  0  0  0  0  0  0  0  0  0  0  0
    1.9385    2.9493    2.5336 N   0  0  0  0  0  0  0  0  0  0  0  0
    0.7589    3.6950    2.4239 C   0  0  0  0  0  0  0  0  0  0  0  0
    0.1505    4.1764    3.5787 C   0  0  0  0  0  0  0  0  0  0  0  0
   -1.0217    4.9177    3.4695 C   0  0  0  0  0  0  0  0  0  0  0  0
   -1.5711    5.1694    2.2168 C   0  0  0  0  0  0  0  0  0  0  0  0
   -2.7084    5.8887    2.1112 O   0  0  0  0  0  0  0  0  0  0  0  0
   -3.2424    6.1335    0.8955 C   0  0  0  0  0  0  0  0  0  0  0  0
   -2.8654    7.2738    0.1939 C   0  0  0  0  0  0  0  0  0  0  0  0
   -3.4199    7.5216   -1.0585 C   0  0  0  0  0  0  0  0  0  0  0  0
   -4.3426    6.6321   -1.5998 C   0  0  0  0  0  0  0  0  0  0  0  0
   -4.7158    5.4942   -0.8920 C   0  0  0  0  0  0  0  0  0  0  0  0
   -4.1654    5.2407    0.3604 C   0  0  0  0  0  0  0  0  0  0  0  0
   -0.9629    4.6881    1.0618 C   0  0  0  0  0  0  0  0  0  0  0  0
    0.2092    3.9466    1.1710 C   0  0  0  0  0  0  0  0  0  0  0  0
    3.2236    3.4872    2.5190 C   0  0  0  0  0  0  0  0  0  0  0  0
    3.5114    4.6662    2.3942 O   0  0  0  0  0  0  0  0  0  0  0  0
    4.2041    2.3444    2.6836 C   0  0  0  0  0  0  0  0  0  0  0  0
    6.0717   -5.8722    4.4898 C   0  0  0  0  0  0  0  0  0  0  0  0
    6.5434   -5.8990    5.6168 O   0  0  0  0  0  0  0  0  0  0  0  0
    5.9948   -7.0500    3.7943 N   0  0  0  0  0  0  0  0  0  0  0  0
  1  2  2  0
  2  3  1  0
  3  4  1  0
  4  5  2  0
  5  6  1  0
  6  7  2  0
  7  8  1  0
  8  9  2  0
  9  4  1  0
  8 10  1  0
 10 11  2  0
 10 12  1  0
 12 13  1  0
 13 14  1  0
 14 15  1  0
 15 16  1  0
 16 17  2  0
 17 18  1  0
 18 19  2  0
 19 20  1  0
 20 21  1  0
 21 22  2  0
 22 23  1  0
 23 24  2  0
 24 25  1  0
 25 26  2  0
 26 21  1  0
 19 27  1  0
 27 28  2  0
 28 16  1  0
 15 29  1  0
 29 30  2  0
 29 31  1  0
 31 13  1  0
  5 32  1  0
 32 33  2  0
 32 34  1  0
 34  2  1  0
M  END
$$$$
s_270196____8770750____8783888
     RDKit          3D

 33 37  0  0  0  0  0  0  0  0999 V2000
    9.4217   -1.8519    2.4025 F   0  0  0  0  0  0  0  0  0  0  0  0
    9.9724   -0.6404    2.4078 C   0  0  0  0  0  0  0  0  0  0  0  0
    9.1893    0.5097    2.4218 C   0  0  0  0  0  0  0  0  0  0  0  0
    9.8043    1.7579    2.4212 C   0  0  0  0  0  0  0  0  0  0  0  0
   11.1904    1.8772    2.4108 C   0  0  0  0  0  0  0  0  0  0  0  0
   11.9587    0.7167    2.4053 C   0  0  0  0  0  0  0  0  0  0  0  0
   13.3557    0.8042    2.4090 N   0  0  0  0  0  0  0  0  0  0  0  0
   14.0125    1.9810    2.0275 C   0  0  0  0  0  0  0  0  0  0  0  0
   15.2338    1.9991    2.0045 O   0  0  0  0  0  0  0  0  0  0  0  0
   13.1841    3.1971    1.6419 C   0  0  0  0  0  0  0  0  0  0  0  0
   11.8686    3.2388    2.4047 C   0  0  0  0  0  0  0  0  0  0  0  0
   11.3591   -0.5380    2.3999 C   0  0  0  0  0  0  0  0  0  0  0  0
    7.7441    0.3909    2.4378 C   0  0  0  0  0  0  0  0  0  0  0  0
    7.0691   -0.7329    2.4406 O   0  0  0  0  0  0  0  0  0  0  0  0
    5.8269   -0.4812    2.4568 N   0  0  0  0  0  0  0  0  0  0  0  0
    5.6615    0.8207    2.4636 C   0  0  0  0  0  0  0  0  0  0  0  0
    6.8961    1.3879    2.4505 N   0  0  0  0  0  0  0  0  0  0  0  0
    4.3934    1.5238    2.4792 C   0  0  0  0  0  0  0  0  0  0  0  0
    4.3889    2.9151    2.4847 C   0  0  0  0  0  0  0  0  0  0  0  0
    3.1774    3.5986    2.4996 C   0  0  0  0  0  0  0  0  0  0  0  0
    1.9850    2.8822    2.5096 C   0  0  0  0  0  0  0  0  0  0  0  0
    0.7615    3.5615    2.5249 N   0  0  0  0  0  0  0  0  0  0  0  0
    0.2750    4.0700    3.7003 C   0  0  0  0  0  0  0  0  0  0  0  0
   -0.4147    5.0520    3.6893 O   0  0  0  0  0  0  0  0  0  0  0  0
    0.5935    3.4214    4.9583 C   0  0  0  0  0  0  0  0  0  0  0  0
    1.5269    3.9953    5.8138 C   0  0  0  0  0  0  0  0  0  0  0  0
    1.8128    3.3525    7.0135 C   0  0  0  0  0  0  0  0  0  0  0  0
    1.2009    2.2036    7.3385 N   0  0  0  0  0  0  0  0  0  0  0  0
    0.2979    1.6356    6.5256 C   0  0  0  0  0  0  0  0  0  0  0  0
   -0.0306    2.2302    5.3116 C   0  0  0  0  0  0  0  0  0  0  0  0
   -0.0015    3.7293    1.2797 C   0  0  0  0  0  0  0  0  0  0  0  0
    1.9902    1.4907    2.5042 C   0  0  0  0  0  0  0  0  0  0  0  0
    3.2017    0.8073    2.4891 C   0  0  0  0  0  0  0  0  0  0  0  0
  1  2  1  0
  2  3  2  0
  3  4  1  0
  4  5  2  0
  5  6  1  0
  6  7  1  0
  7  8  1  0
  8  9  2  0
  8 10  1  0
 10 11  1  0
 11  5  1  0
  6 12  2  0
 12  2  1  0
  3 13  1  0
 13 14  1  0
 14 15  1  0
 15 16  2  0
 16 17  1  0
 13 17  2  0
 16 18  1  0
 18 19  2  0
 19 20  1  0
 20 21  2  0
 21 22  1  0
 22 23  1  0
 23 24  2  0
 23 25  1  0
 25 26  2  0
 26 27  1  0
 27 28  2  0
 28 29  1  0
 29 30  2  0
 30 25  1  0
 22 31  1  0
 21 32  1  0
 32 33  2  0
 33 18  1  0
M  END
$$$$
m_274860a____15212420____17209716____17176702
     RDKit          3D

 35 39  0  0  0  0  0  0  0  0999 V2000
    2.6245    5.3395    4.5475 O   0  0  0  0  0  0  0  0  0  0  0  0
    1.6163    4.7005    4.6710 C   0  0  0  0  0  0  0  0  0  0  0  0
    1.3534    4.0572    5.8517 N   0  0  0  0  0  0  0  0  0  0  0  0
    0.1771    3.3115    5.9959 C   0  0  0  0  0  0  0  0  0  0  0  0
    0.1716    1.9618    5.6588 C   0  0  0  0  0  0  0  0  0  0  0  0
   -0.9989    1.2243    5.8036 C   0  0  0  0  0  0  0  0  0  0  0  0
   -2.1521    1.8370    6.2820 C   0  0  0  0  0  0  0  0  0  0  0  0
   -2.1349    3.1869    6.6165 C   0  0  0  0  0  0  0  0  0  0  0  0
   -0.9703    3.9344    6.4757 C   0  0  0  0  0  0  0  0  0  0  0  0
    2.3063    4.1497    6.9672 C   0  0  0  0  0  0  0  0  0  0  0  0
    0.6762    4.6091    3.5705 C   0  0  0  0  0  0  0  0  0  0  0  0
    0.9124    3.7211    2.5251 C   0  0  0  0  0  0  0  0  0  0  0  0
    2.0497    2.9042    2.5096 N   0  0  0  0  0  0  0  0  0  0  0  0
    3.2911    3.3246    2.5132 N   0  0  0  0  0  0  0  0  0  0  0  0
    4.0969    2.3529    2.4937 N   0  0  0  0  0  0  0  0  0  0  0  0
    3.3663    1.2031    2.4818 C   0  0  0  0  0  0  0  0  0  0  0  0
    3.8960   -0.1472    2.4591 C   0  0  0  0  0  0  0  0  0  0  0  0
    5.2742   -0.3360    2.4477 C   0  0  0  0  0  0  0  0  0  0  0  0
    5.7775   -1.6324    2.4243 C   0  0  0  0  0  0  0  0  0  0  0  0
    7.1631   -1.8349    2.4120 N   0  0  0  0  0  0  0  0  0  0  0  0
    7.7061   -3.2007    2.3873 C   0  0  0  0  0  0  0  0  0  0  0  0
    9.2284   -3.1419    2.3781 C   0  0  0  0  0  0  0  0  0  0  0  0
   10.0096   -3.1283    3.4343 O   0  0  0  0  0  0  0  0  0  0  0  0
   11.2738   -3.0726    3.0753 C   0  0  0  0  0  0  0  0  0  0  0  0
   11.3240   -3.0431    1.7140 C   0  0  0  0  0  0  0  0  0  0  0  0
    9.9885   -3.0865    1.2509 C   0  0  0  0  0  0  0  0  0  0  0  0
    4.9261   -2.7322    2.4128 C   0  0  0  0  0  0  0  0  0  0  0  0
    3.5517   -2.5199    2.4251 C   0  0  0  0  0  0  0  0  0  0  0  0
    3.0263   -1.2322    2.4486 C   0  0  0  0  0  0  0  0  0  0  0  0
    2.0516    1.5447    2.4890 C   0  0  0  0  0  0  0  0  0  0  0  0
    0.0149    3.6276    1.4660 C   0  0  0  0  0  0  0  0  0  0  0  0
   -1.1211    4.4306    1.4639 C   0  0  0  0  0  0  0  0  0  0  0  0
   -1.3652    5.3206    2.5048 C   0  0  0  0  0  0  0  0  0  0  0  0
   -0.4628    5.4088    3.5601 C   0  0  0  0  0  0  0  0  0  0  0  0
   -2.1071    4.3350    0.3105 C   0  0  0  0  0  0  0  0  0  0  0  0
  1  2  2  0
  2  3  1  0
  3  4  1  0
  4  5  2  0
  5  6  1  0
  6  7  2  0
  7  8  1  0
  8  9  2  0
  9  4  1  0
  3 10  1  0
  2 11  1  0
 11 12  1  0
 12 13  1  0
 13 14  1  0
 14 15  2  0
 15 16  1  0
 16 17  1  0
 17 18  2  0
 18 19  1  0
 19 20  1  0
 20 21  1  0
 21 22  1  0
 22 23  1  0
 23 24  1  0
 24 25  2  0
 25 26  1  0
 22 26  2  0
 19 27  2  0
 27 28  1  0
 28 29  2  0
 29 17  1  0
 16 30  2  0
 30 13  1  0
 12 31  2  0
 31 32  1  0
 32 33  2  0
 33 34  1  0
 34 11  2  0
 32 35  1  0
M  END
$$$$
s_7a____1027186____5444
     RDKit          3D

 35 39  0  0  0  0  0  0  0  0999 V2000
    1.0000    1.0000    1.0000 S   0  0  0  0  0  0  0  0  0  0  0  0
    1.0000    2.2303    2.2303 C   0  0  0  0  0  0  0  0  0  0  0  0
    0.2614    2.2260    3.3132 N   0  0  0  0  0  0  0  0  0  0  0  0
    0.5347    3.3494    4.0368 C   0  0  0  0  0  0  0  0  0  0  0  0
    1.4789    4.0577    3.3554 C   0  0  0  0  0  0  0  0  0  0  0  0
    1.7649    3.3562    2.2259 N   0  0  0  0  0  0  0  0  0  0  0  0
    2.6845    3.7239    1.2358 C   0  0  0  0  0  0  0  0  0  0  0  0
    2.5091    4.9196    0.5473 C   0  0  0  0  0  0  0  0  0  0  0  0
    3.4293    5.2748   -0.4336 C   0  0  0  0  0  0  0  0  0  0  0  0
    4.5112    4.4527   -0.7294 C   0  0  0  0  0  0  0  0  0  0  0  0
    4.6670    3.2616   -0.0282 C   0  0  0  0  0  0  0  0  0  0  0  0
    3.7595    2.8867    0.9569 C   0  0  0  0  0  0  0  0  0  0  0  0
    3.2516    6.5212   -1.1530 C   0  0  0  0  0  0  0  0  0  0  0  0
    2.6409    7.4229   -0.6492 O   0  0  0  0  0  0  0  0  0  0  0  0
    3.7810    6.6692   -2.4079 N   0  0  0  0  0  0  0  0  0  0  0  0
    3.9875    7.9503   -2.9340 C   0  0  0  0  0  0  0  0  0  0  0  0
    4.8348    8.8364   -2.2764 C   0  0  0  0  0  0  0  0  0  0  0  0
    5.0376   10.1081   -2.8022 C   0  0  0  0  0  0  0  0  0  0  0  0
    4.3954   10.4855   -3.9766 C   0  0  0  0  0  0  0  0  0  0  0  0
    3.5509    9.5912   -4.6258 C   0  0  0  0  0  0  0  0  0  0  0  0
    3.3404    8.3169   -4.1094 C   0  0  0  0  0  0  0  0  0  0  0  0
   -0.2385   -0.1118    1.7114 C   0  0  0  0  0  0  0  0  0  0  0  0
   -0.4299   -1.3096    0.7953 C   0  0  0  0  0  0  0  0  0  0  0  0
    0.4016   -2.1738    0.7561 O   0  0  0  0  0  0  0  0  0  0  0  0
   -1.5518   -1.4024    0.0145 N   0  0  0  0  0  0  0  0  0  0  0  0
   -1.9475   -2.6438   -0.4975 C   0  0  0  0  0  0  0  0  0  0  0  0
   -2.4316   -2.7012   -1.7997 C   0  0  0  0  0  0  0  0  0  0  0  0
   -2.8331   -3.9224   -2.3293 C   0  0  0  0  0  0  0  0  0  0  0  0
   -3.3359   -4.2259   -3.5594 N   0  0  0  0  0  0  0  0  0  0  0  0
   -3.5726   -5.5674   -3.5771 C   0  0  0  0  0  0  0  0  0  0  0  0
   -4.0255   -6.1903   -4.5248 O   0  0  0  0  0  0  0  0  0  0  0  0
   -3.2226   -6.1036   -2.3737 N   0  0  0  0  0  0  0  0  0  0  0  0
   -2.7614   -5.0833   -1.5959 C   0  0  0  0  0  0  0  0  0  0  0  0
   -2.2761   -5.0177   -0.2936 C   0  0  0  0  0  0  0  0  0  0  0  0
   -1.8690   -3.8080    0.2602 C   0  0  0  0  0  0  0  0  0  0  0  0
  1  2  1  0
  2  3  2  0
  3  4  1  0
  4  5  2  0
  5  6  1  0
  6  2  1  0
  6  7  1  0
  7  8  2  0
  8  9  1  0
  9 10  2  0
 10 11  1  0
 11 12  2  0
 12  7  1  0
  9 13  1  0
 13 14  2  0
 13 15  1  0
 15 16  1  0
 16 17  2  0
 17 18  1  0
 18 19  2  0
 19 20  1  0
 20 21  2  0
 21 16  1  0
  1 22  1  0
 22 23  1  0
 23 24  2  0
 23 25  1  0
 25 26  1  0
 26 27  2  0
 27 28  1  0
 28 29  1  0
 29 30  1  0
 30 31  2  0
 30 32  1  0
 32 33  1  0
 33 28  2  0
 33 34  1  0
 34 35  2  0
 35 26  1  0
M  END
$$$$
s_270196____9437302____10226442
     RDKit          3D

 33 38  0  0  0  0  0  0  0  0999 V2000
    5.6258   -7.6879    1.1142 Cl  0  0  0  0  0  0  0  0  0  0  0  0
    5.7049   -6.1043    1.9211 C   0  0  0  0  0  0  0  0  0  0  0  0
    6.5135   -5.7647    3.0319 C   0  0  0  0  0  0  0  0  0  0  0  0
    6.2702   -4.5052    3.3103 N   0  0  0  0  0  0  0  0  0  0  0  0
    5.3768   -4.0151    2.4772 N   0  0  0  0  0  0  0  0  0  0  0  0
    4.8811   -2.7026    2.4845 C   0  0  0  0  0  0  0  0  0  0  0  0
    3.5152   -2.4826    2.3484 C   0  0  0  0  0  0  0  0  0  0  0  0
    2.6866   -3.5135    2.2112 F   0  0  0  0  0  0  0  0  0  0  0  0
    3.0080   -1.1874    2.3541 C   0  0  0  0  0  0  0  0  0  0  0  0
    3.8900   -0.1218    2.4978 C   0  0  0  0  0  0  0  0  0  0  0  0
    5.2572   -0.3378    2.6334 C   0  0  0  0  0  0  0  0  0  0  0  0
    5.7608   -1.6348    2.6271 C   0  0  0  0  0  0  0  0  0  0  0  0
    3.3683    1.2311    2.5037 C   0  0  0  0  0  0  0  0  0  0  0  0
    4.0764    2.3360    2.4914 N   0  0  0  0  0  0  0  0  0  0  0  0
    3.2848    3.3259    2.4991 O   0  0  0  0  0  0  0  0  0  0  0  0
    2.0463    2.8968    2.5180 C   0  0  0  0  0  0  0  0  0  0  0  0
    2.0573    1.5880    2.5200 N   0  0  0  0  0  0  0  0  0  0  0  0
    0.8598    3.7340    2.5327 C   0  0  0  0  0  0  0  0  0  0  0  0
    0.9710    5.1206    2.5274 C   0  0  0  0  0  0  0  0  0  0  0  0
   -0.1585    5.9310    2.5415 C   0  0  0  0  0  0  0  0  0  0  0  0
   -0.2943    7.2389    2.5438 O   0  0  0  0  0  0  0  0  0  0  0  0
   -1.5723    7.5365    2.5638 C   0  0  0  0  0  0  0  0  0  0  0  0
   -2.2908    6.4369    2.5754 N   0  0  0  0  0  0  0  0  0  0  0  0
   -1.4181    5.3874    2.5618 C   0  0  0  0  0  0  0  0  0  0  0  0
   -1.5467    4.0030    2.5670 C   0  0  0  0  0  0  0  0  0  0  0  0
   -0.4196    3.1884    2.5522 C   0  0  0  0  0  0  0  0  0  0  0  0
   -2.1122    8.8825    2.5723 C   0  0  0  0  0  0  0  0  0  0  0  0
   -3.4901    9.0722    2.5940 C   0  0  0  0  0  0  0  0  0  0  0  0
   -4.0037   10.3650    2.6012 C   0  0  0  0  0  0  0  0  0  0  0  0
   -3.1413   11.4561    2.5882 C   0  0  0  0  0  0  0  0  0  0  0  0
   -1.7667   11.2546    2.5671 C   0  0  0  0  0  0  0  0  0  0  0  0
   -1.2407    9.9669    2.5590 C   0  0  0  0  0  0  0  0  0  0  0  0
    4.9995   -4.9855    1.5953 C   0  0  0  0  0  0  0  0  0  0  0  0
  1  2  1  0
  2  3  1  0
  3  4  2  0
  4  5  1  0
  5  6  1  0
  6  7  2  0
  7  8  1  0
  7  9  1  0
  9 10  2  0
 10 11  1  0
 11 12  2  0
 12  6  1  0
 10 13  1  0
 13 14  2  0
 14 15  1  0
 15 16  1  0
 16 17  2  0
 17 13  1  0
 16 18  1  0
 18 19  2  0
 19 20  1  0
 20 21  1  0
 21 22  1  0
 22 23  2  0
 23 24  1  0
 24 20  2  0
 24 25  1  0
 25 26  2  0
 26 18  1  0
 22 27  1  0
 27 28  2  0
 28 29  1  0
 29 30  2  0
 30 31  1  0
 31 32  2  0
 32 27  1  0
  5 33  1  0
  2 33  2  0
M  END
$$$$
s_270196____16763702____8785504
     RDKit          3D

 35 39  0  0  0  0  0  0  0  0999 V2000
   -4.4638   12.5129    2.5771 Br  0  0  0  0  0  0  0  0  0  0  0  0
   -4.6513   10.5619    2.5876 C   0  0  0  0  0  0  0  0  0  0  0  0
   -3.5148    9.7603    2.5746 C   0  0  0  0  0  0  0  0  0  0  0  0
   -3.6638    8.3772    2.5816 C   0  0  0  0  0  0  0  0  0  0  0  0
   -4.9270    7.7953    2.6008 C   0  0  0  0  0  0  0  0  0  0  0  0
   -6.0511    8.6142    2.6134 C   0  0  0  0  0  0  0  0  0  0  0  0
   -5.9234    9.9992    2.6071 C   0  0  0  0  0  0  0  0  0  0  0  0
   -2.4807    7.5400    2.5673 C   0  0  0  0  0  0  0  0  0  0  0  0
   -1.3908    8.0418    2.5497 O   0  0  0  0  0  0  0  0  0  0  0  0
   -2.6067    6.1758    2.5740 N   0  0  0  0  0  0  0  0  0  0  0  0
   -1.4068    5.3267    2.5595 C   0  0  0  0  0  0  0  0  0  0  0  0
   -1.5442    3.9423    2.5663 C   0  0  0  0  0  0  0  0  0  0  0  0
   -0.4017    3.1486    2.5523 C   0  0  0  0  0  0  0  0  0  0  0  0
   -0.5577    1.7372    2.5589 O   0  0  0  0  0  0  0  0  0  0  0  0
    0.8618    3.7326    2.5327 C   0  0  0  0  0  0  0  0  0  0  0  0
    0.9881    5.1182    2.5269 C   0  0  0  0  0  0  0  0  0  0  0  0
   -0.1486    5.9202    2.5407 C   0  0  0  0  0  0  0  0  0  0  0  0
    2.0463    2.8968    2.5180 C   0  0  0  0  0  0  0  0  0  0  0  0
    3.2848    3.3259    2.4991 O   0  0  0  0  0  0  0  0  0  0  0  0
    4.0764    2.3360    2.4914 N   0  0  0  0  0  0  0  0  0  0  0  0
    3.3683    1.2311    2.5037 C   0  0  0  0  0  0  0  0  0  0  0  0
    2.0573    1.5880    2.5200 N   0  0  0  0  0  0  0  0  0  0  0  0
    3.8901   -0.1219    2.4978 C   0  0  0  0  0  0  0  0  0  0  0  0
    3.0110   -1.2000    2.5126 C   0  0  0  0  0  0  0  0  0  0  0  0
    3.5169   -2.4955    2.5078 C   0  0  0  0  0  0  0  0  0  0  0  0
    4.8933   -2.6978    2.4873 C   0  0  0  0  0  0  0  0  0  0  0  0
    5.7718   -1.6187    2.4700 C   0  0  0  0  0  0  0  0  0  0  0  0
    5.2659   -0.3230    2.4763 C   0  0  0  0  0  0  0  0  0  0  0  0
    5.4400   -4.1160    2.4836 C   0  0  0  0  0  0  0  0  0  0  0  0
    5.5950   -4.5781    1.0962 N   0  0  0  0  0  0  0  0  0  0  0  0
    6.6747   -4.4306    0.3647 N   0  0  0  0  0  0  0  0  0  0  0  0
    6.4232   -4.9691   -0.8049 C   0  0  0  0  0  0  0  0  0  0  0  0
    5.1555   -5.4692   -0.8112 N   0  0  0  0  0  0  0  0  0  0  0  0
    4.6404   -5.2264    0.3707 C   0  0  0  0  0  0  0  0  0  0  0  0
    7.3644   -5.0241   -1.9327 N   0  0  0  0  0  0  0  0  0  0  0  0
  1  2  1  0
  2  3  2  0
  3  4  1  0
  4  5  2  0
  5  6  1  0
  6  7  2  0
  7  2  1  0
  4  8  1  0
  8  9  2  0
  8 10  1  0
 10 11  1  0
 11 12  2  0
 12 13  1  0
 13 14  1  0
 13 15  2  0
 15 16  1  0
 16 17  2  0
 17 11  1  0
 15 18  1  0
 18 19  1  0
 19 20  1  0
 20 21  2  0
 21 22  1  0
 18 22  2  0
 21 23  1  0
 23 24  2  0
 24 25  1  0
 25 26  2  0
 26 27  1  0
 27 28  2  0
 28 23  1  0
 26 29  1  0
 29 30  1  0
 30 31  1  0
 31 32  2  0
 32 33  1  0
 33 34  2  0
 34 30  1  0
 32 35  1  0
M  END
$$$$
s_2740a____3042536____13263494
     RDKit          3D

 33 36  0  0  0  0  0  0  0  0999 V2000
   -2.0318    3.4066   -4.9570 Br  0  0  0  0  0  0  0  0  0  0  0  0
   -1.5759    4.4590   -3.3676 C   0  0  0  0  0  0  0  0  0  0  0  0
   -1.8164    5.8297   -3.3155 C   0  0  0  0  0  0  0  0  0  0  0  0
   -2.3687    6.4932   -4.3439 N   0  0  0  0  0  0  0  0  0  0  0  0
   -2.6019    7.8136   -4.2990 C   0  0  0  0  0  0  0  0  0  0  0  0
   -2.2611    8.5189   -3.1490 C   0  0  0  0  0  0  0  0  0  0  0  0
   -1.7102    7.8561   -2.1215 N   0  0  0  0  0  0  0  0  0  0  0  0
   -1.4755    6.5351   -2.1643 C   0  0  0  0  0  0  0  0  0  0  0  0
   -0.9029    5.8676   -1.0858 C   0  0  0  0  0  0  0  0  0  0  0  0
   -0.6660    4.4984   -1.1440 C   0  0  0  0  0  0  0  0  0  0  0  0
   -1.0041    3.7878   -2.2915 C   0  0  0  0  0  0  0  0  0  0  0  0
   -0.0702    3.8119   -0.0157 C   0  0  0  0  0  0  0  0  0  0  0  0
    0.1316    2.6303   -0.0708 O   0  0  0  0  0  0  0  0  0  0  0  0
    0.2627    4.5117    1.1140 N   0  0  0  0  0  0  0  0  0  0  0  0
    0.4648    3.7275    2.5286 S   0  0  0  0  0  0  0  0  0  0  0  0
   -0.6075    2.7840    2.7119 O   0  0  0  0  0  0  0  0  0  0  0  0
    0.4575    4.6784    3.6099 O   0  0  0  0  0  0  0  0  0  0  0  0
    1.9853    2.8812    2.5106 C   0  0  0  0  0  0  0  0  0  0  0  0
    3.1754    3.6010    2.5025 C   0  0  0  0  0  0  0  0  0  0  0  0
    4.3801    2.9063    2.4876 C   0  0  0  0  0  0  0  0  0  0  0  0
    5.5801    3.6272    2.4789 N   0  0  0  0  0  0  0  0  0  0  0  0
    6.6427    3.1975    3.2292 C   0  0  0  0  0  0  0  0  0  0  0  0
    6.4523    2.5957    4.2499 O   0  0  0  0  0  0  0  0  0  0  0  0
    7.9980    3.4699    2.7900 C   0  0  0  0  0  0  0  0  0  0  0  0
    9.0675    3.0277    3.5617 C   0  0  0  0  0  0  0  0  0  0  0  0
   10.3718    3.2813    3.1522 C   0  0  0  0  0  0  0  0  0  0  0  0
   10.5877    3.9788    1.9682 C   0  0  0  0  0  0  0  0  0  0  0  0
   12.2524    4.3110    1.4329 Cl  0  0  0  0  0  0  0  0  0  0  0  0
    9.5222    4.4235    1.1917 C   0  0  0  0  0  0  0  0  0  0  0  0
    8.2199    4.1667    1.6074 C   0  0  0  0  0  0  0  0  0  0  0  0
    4.4015    1.5153    2.4807 C   0  0  0  0  0  0  0  0  0  0  0  0
    3.2041    0.8073    2.4887 C   0  0  0  0  0  0  0  0  0  0  0  0
    1.9922    1.4901    2.5036 C   0  0  0  0  0  0  0  0  0  0  0  0
  1  2  1  0
  2  3  2  0
  3  4  1  0
  4  5  2  0
  5  6  1  0
  6  7  2  0
  7  8  1  0
  8  3  1  0
  8  9  2  0
  9 10  1  0
 10 11  2  0
 11  2  1  0
 10 12  1  0
 12 13  2  0
 12 14  1  0
 14 15  1  0
 15 16  2  0
 15 17  2  0
 15 18  1  0
 18 19  2  0
 19 20  1  0
 20 21  1  0
 21 22  1  0
 22 23  2  0
 22 24  1  0
 24 25  2  0
 25 26  1  0
 26 27  2  0
 27 28  1  0
 27 29  1  0
 29 30  2  0
 30 24  1  0
 20 31  2  0
 31 32  1  0
 32 33  2  0
 33 18  1  0
M  END
$$$$
s_22____16608454____13263488
     RDKit          3D

 34 37  0  0  0  0  0  0  0  0999 V2000
   12.2117    7.1978   -3.8894 Br  0  0  0  0  0  0  0  0  0  0  0  0
   11.7578    5.8574   -2.5331 C   0  0  0  0  0  0  0  0  0  0  0  0
   12.4677    4.6636   -2.4314 C   0  0  0  0  0  0  0  0  0  0  0  0
   13.4908    4.3739   -3.2513 N   0  0  0  0  0  0  0  0  0  0  0  0
   14.1774    3.2252   -3.1579 C   0  0  0  0  0  0  0  0  0  0  0  0
   13.8184    2.3038   -2.1791 C   0  0  0  0  0  0  0  0  0  0  0  0
   12.7971    2.5933   -1.3597 N   0  0  0  0  0  0  0  0  0  0  0  0
   12.1083    3.7419   -1.4515 C   0  0  0  0  0  0  0  0  0  0  0  0
   11.0518    4.0216   -0.5900 C   0  0  0  0  0  0  0  0  0  0  0  0
   10.3473    5.2161   -0.6964 C   0  0  0  0  0  0  0  0  0  0  0  0
   10.7013    6.1413   -1.6736 C   0  0  0  0  0  0  0  0  0  0  0  0
    9.2493    5.4990    0.2056 C   0  0  0  0  0  0  0  0  0  0  0  0
    8.8803    6.6296    0.3655 O   0  0  0  0  0  0  0  0  0  0  0  0
    8.6324    4.4758    0.8759 N   0  0  0  0  0  0  0  0  0  0  0  0
    7.5178    4.7631    1.7916 C   0  0  0  0  0  0  0  0  0  0  0  0
    6.2654    4.0487    1.3415 C   0  0  0  0  0  0  0  0  0  0  0  0
    5.9208    3.8551    0.1862 O   0  0  0  0  0  0  0  0  0  0  0  0
    5.5814    3.6279    2.4789 N   0  0  0  0  0  0  0  0  0  0  0  0
    4.3785    2.9098    2.4867 C   0  0  0  0  0  0  0  0  0  0  0  0
    3.1725    3.6018    2.5019 C   0  0  0  0  0  0  0  0  0  0  0  0
    1.9839    2.8796    2.5108 C   0  0  0  0  0  0  0  0  0  0  0  0
    0.2728    3.8349    2.5310 Br  0  0  0  0  0  0  0  0  0  0  0  0
    1.9887    1.4888    2.5046 C   0  0  0  0  0  0  0  0  0  0  0  0
    3.2086    0.8209    2.4892 C   0  0  0  0  0  0  0  0  0  0  0  0
    4.4110    1.5195    2.4801 C   0  0  0  0  0  0  0  0  0  0  0  0
    3.2280   -0.6288    2.4827 C   0  0  0  0  0  0  0  0  0  0  0  0
    2.1970   -1.2427    2.4907 O   0  0  0  0  0  0  0  0  0  0  0  0
    4.3712   -1.2684    2.4682 O   0  0  0  0  0  0  0  0  0  0  0  0
    4.3903   -2.6883    2.4619 C   0  0  0  0  0  0  0  0  0  0  0  0
    3.6679   -3.1992    1.2259 C   0  0  0  0  0  0  0  0  0  0  0  0
    5.8299   -3.1756    2.4450 C   0  0  0  0  0  0  0  0  0  0  0  0
    3.6934   -3.2099    3.7079 C   0  0  0  0  0  0  0  0  0  0  0  0
    6.3222    4.0482    3.6660 C   0  0  0  0  0  0  0  0  0  0  0  0
    7.7403    4.1197    3.1376 C   0  0  0  0  0  0  0  0  0  0  0  0
  1  2  1  0
  2  3  2  0
  3  4  1  0
  4  5  2  0
  5  6  1  0
  6  7  2  0
  7  8  1  0
  8  3  1  0
  8  9  2  0
  9 10  1  0
 10 11  2  0
 11  2  1  0
 10 12  1  0
 12 13  2  0
 12 14  1  0
 14 15  1  0
 15 16  1  0
 16 17  2  0
 16 18  1  0
 18 19  1  0
 19 20  2  0
 20 21  1  0
 21 22  1  0
 21 23  2  0
 23 24  1  0
 24 25  2  0
 25 19  1  0
 24 26  1  0
 26 27  2  0
 26 28  1  0
 28 29  1  0
 29 30  1  0
 29 31  1  0
 29 32  1  0
 18 33  1  0
 33 34  1  0
 34 15  1  0
M  END
$$$$
s_270196____8771036____8776074
     RDKit          3D

 32 36  0  0  0  0  0  0  0  0999 V2000
   -2.6578   -0.1736   -1.6100 Cl  0  0  0  0  0  0  0  0  0  0  0  0
   -1.7425    1.1261   -0.8078 C   0  0  0  0  0  0  0  0  0  0  0  0
   -1.4439    2.3300   -1.4427 C   0  0  0  0  0  0  0  0  0  0  0  0
   -0.7252    3.3318   -0.7929 C   0  0  0  0  0  0  0  0  0  0  0  0
   -0.4503    4.4839   -1.4279 N   0  0  0  0  0  0  0  0  0  0  0  0
   -0.8420    4.7282   -2.6877 C   0  0  0  0  0  0  0  0  0  0  0  0
   -1.5611    3.7681   -3.3899 C   0  0  0  0  0  0  0  0  0  0  0  0
   -1.8540    2.5703   -2.7492 C   0  0  0  0  0  0  0  0  0  0  0  0
   -0.3082    3.1020    0.5164 C   0  0  0  0  0  0  0  0  0  0  0  0
    0.3916    4.0304    1.2040 O   0  0  0  0  0  0  0  0  0  0  0  0
    0.8024    3.7661    2.5373 C   0  0  0  0  0  0  0  0  0  0  0  0
    2.0477    2.8949    2.5205 C   0  0  0  0  0  0  0  0  0  0  0  0
    3.2835    3.3234    2.4970 O   0  0  0  0  0  0  0  0  0  0  0  0
    4.0809    2.3403    2.4912 N   0  0  0  0  0  0  0  0  0  0  0  0
    3.3747    1.2362    2.5070 C   0  0  0  0  0  0  0  0  0  0  0  0
    2.0607    1.5841    2.5273 N   0  0  0  0  0  0  0  0  0  0  0  0
    3.9020   -0.1148    2.5061 C   0  0  0  0  0  0  0  0  0  0  0  0
    3.6252   -0.9970    3.5468 C   0  0  0  0  0  0  0  0  0  0  0  0
    2.6349   -0.5234    4.8973 S   0  0  0  0  0  0  0  0  0  0  0  0
    2.6763   -2.0102    5.7998 C   0  0  0  0  0  0  0  0  0  0  0  0
    1.7101   -2.9850    5.5726 C   0  0  0  0  0  0  0  0  0  0  0  0
    1.7551   -4.1695    6.3011 C   0  0  0  0  0  0  0  0  0  0  0  0
    2.7539   -4.3770    7.2468 C   0  0  0  0  0  0  0  0  0  0  0  0
    3.7146   -3.3955    7.4667 C   0  0  0  0  0  0  0  0  0  0  0  0
    3.6793   -2.2077    6.7439 C   0  0  0  0  0  0  0  0  0  0  0  0
    4.1453   -2.2870    3.5181 C   0  0  0  0  0  0  0  0  0  0  0  0
    4.9398   -2.6851    2.4476 C   0  0  0  0  0  0  0  0  0  0  0  0
    5.2196   -1.8058    1.4062 C   0  0  0  0  0  0  0  0  0  0  0  0
    4.6972   -0.5165    1.4381 C   0  0  0  0  0  0  0  0  0  0  0  0
    5.5051   -4.0963    2.4235 C   0  0  0  0  0  0  0  0  0  0  0  0
   -0.6000    1.9046    1.1620 C   0  0  0  0  0  0  0  0  0  0  0  0
   -1.3178    0.9145    0.4996 C   0  0  0  0  0  0  0  0  0  0  0  0
  1  2  1  0
  2  3  2  0
  3  4  1  0
  4  5  1  0
  5  6  2  0
  6  7  1  0
  7  8  2  0
  8  3  1  0
  4  9  2  0
  9 10  1  0
 10 11  1  0
 11 12  1  0
 12 13  1  0
 13 14  1  0
 14 15  2  0
 15 16  1  0
 12 16  2  0
 15 17  1  0
 17 18  1  0
 18 19  1  0
 19 20  1  0
 20 21  2  0
 21 22  1  0
 22 23  2  0
 23 24  1  0
 24 25  2  0
 25 20  1  0
 18 26  2  0
 26 27  1  0
 27 28  2  0
 28 29  1  0
 29 17  2  0
 27 30  1  0
  9 31  1  0
 31 32  2  0
 32  2  1  0
M  END
$$$$
s_22____4556042____1127500
     RDKit          3D

 33 37  0  0  0  0  0  0  0  0999 V2000
    0.6190    4.6498    6.6913 S   0  0  0  0  0  0  0  0  0  0  0  0
    1.4245    3.3224    7.1179 C   0  0  0  0  0  0  0  0  0  0  0  0
    2.5134    2.8168    6.4728 N   0  0  0  0  0  0  0  0  0  0  0  0
    2.9007    1.6920    7.1407 C   0  0  0  0  0  0  0  0  0  0  0  0
    2.0435    1.5082    8.1999 C   0  0  0  0  0  0  0  0  0  0  0  0
    1.1308    2.5226    8.1827 N   0  0  0  0  0  0  0  0  0  0  0  0
    2.2575    0.4039    9.0217 C   0  0  0  0  0  0  0  0  0  0  0  0
    3.2969   -0.4973    8.8013 C   0  0  0  0  0  0  0  0  0  0  0  0
    3.5093   -1.5569    9.5813 F   0  0  0  0  0  0  0  0  0  0  0  0
    4.1466   -0.2821    7.7218 C   0  0  0  0  0  0  0  0  0  0  0  0
    3.9490    0.8136    6.8888 C   0  0  0  0  0  0  0  0  0  0  0  0
    4.8497    1.0136    5.7694 C   0  0  0  0  0  0  0  0  0  0  0  0
    5.8460    1.6675    5.9104 O   0  0  0  0  0  0  0  0  0  0  0  0
    4.5562    0.4427    4.5222 N   0  0  0  0  0  0  0  0  0  0  0  0
    5.4284    0.6080    3.3480 C   0  0  0  0  0  0  0  0  0  0  0  0
    4.5400    0.7958    2.1379 C   0  0  0  0  0  0  0  0  0  0  0  0
    3.1477    0.7842    2.1594 C   0  0  0  0  0  0  0  0  0  0  0  0
    2.4010    1.0000    1.0000 C   0  0  0  0  0  0  0  0  0  0  0  0
    1.0000    1.0000    1.0000 N   0  0  0  0  0  0  0  0  0  0  0  0
    0.3150    0.0984    0.2288 C   0  0  0  0  0  0  0  0  0  0  0  0
    0.7944   -0.9762   -0.0066 O   0  0  0  0  0  0  0  0  0  0  0  0
   -0.9173    0.4236   -0.2737 N   0  0  0  0  0  0  0  0  0  0  0  0
   -1.3455   -0.1261   -1.4882 C   0  0  0  0  0  0  0  0  0  0  0  0
   -0.6048    0.0976   -2.6444 C   0  0  0  0  0  0  0  0  0  0  0  0
   -1.0332   -0.4503   -3.8491 C   0  0  0  0  0  0  0  0  0  0  0  0
   -2.1941   -1.2149   -3.8914 C   0  0  0  0  0  0  0  0  0  0  0  0
   -2.9263   -1.4325   -2.7291 C   0  0  0  0  0  0  0  0  0  0  0  0
   -2.5078   -0.8896   -1.5188 C   0  0  0  0  0  0  0  0  0  0  0  0
    3.0555    1.2268   -0.2074 C   0  0  0  0  0  0  0  0  0  0  0  0
    4.4458    1.2299   -0.2457 C   0  0  0  0  0  0  0  0  0  0  0  0
    5.1750    1.0120    0.9203 C   0  0  0  0  0  0  0  0  0  0  0  0
    2.4370    0.5456    3.4776 C   0  0  0  0  0  0  0  0  0  0  0  0
    3.3551   -0.3631    4.2706 C   0  0  0  0  0  0  0  0  0  0  0  0
  1  2  2  0
  2  3  1  0
  3  4  1  0
  4  5  2  0
  5  6  1  0
  6  2  1  0
  5  7  1  0
  7  8  2  0
  8  9  1  0
  8 10  1  0
 10 11  2  0
 11  4  1  0
 11 12  1  0
 12 13  2  0
 12 14  1  0
 14 15  1  0
 15 16  1  0
 16 17  2  0
 17 18  1  0
 18 19  1  0
 19 20  1  0
 20 21  2  0
 20 22  1  0
 22 23  1  0
 23 24  2  0
 24 25  1  0
 25 26  2  0
 26 27  1  0
 27 28  2  0
 28 23  1  0
 18 29  2  0
 29 30  1  0
 30 31  2  0
 31 16  1  0
 17 32  1  0
 32 33  1  0
 33 14  1  0
M  END
$$$$
s_232682____3004976____12905748
     RDKit          3D

 36 40  0  0  0  0  0  0  0  0999 V2000
    7.8801    1.7744   -0.1649 Br  0  0  0  0  0  0  0  0  0  0  0  0
    6.6549    0.2470   -0.2773 C   0  0  0  0  0  0  0  0  0  0  0  0
    6.0350   -0.2240    0.8744 C   0  0  0  0  0  0  0  0  0  0  0  0
    6.3218    0.5459    2.4077 S   0  0  0  0  0  0  0  0  0  0  0  0
    7.7396    0.6893    2.6151 O   0  0  0  0  0  0  0  0  0  0  0  0
    5.7616   -0.2598    3.4616 O   0  0  0  0  0  0  0  0  0  0  0  0
    5.6199    2.0170    2.4168 N   0  0  0  0  0  0  0  0  0  0  0  0
    4.2262    2.1265    2.4440 C   0  0  0  0  0  0  0  0  0  0  0  0
    3.3287    3.5724    2.4687 S   0  0  0  0  0  0  0  0  0  0  0  0
    1.7793    2.8660    2.4982 C   0  0  0  0  0  0  0  0  0  0  0  0
    2.0377    1.5325    2.4911 C   0  0  0  0  0  0  0  0  0  0  0  0
    3.3528    1.1511    2.4644 N   0  0  0  0  0  0  0  0  0  0  0  0
    0.9124    0.6182    2.5170 C   0  0  0  0  0  0  0  0  0  0  0  0
   -0.3789    1.1337    2.5429 C   0  0  0  0  0  0  0  0  0  0  0  0
   -1.4650    0.2647    2.5690 C   0  0  0  0  0  0  0  0  0  0  0  0
   -1.2459   -1.1089    2.5680 C   0  0  0  0  0  0  0  0  0  0  0  0
   -2.2936   -1.9599    2.5917 O   0  0  0  0  0  0  0  0  0  0  0  0
   -2.0694   -3.3621    2.5907 C   0  0  0  0  0  0  0  0  0  0  0  0
   -3.4045   -4.0888    2.6199 C   0  0  0  0  0  0  0  0  0  0  0  0
   -4.0343   -4.4212    1.4250 C   0  0  0  0  0  0  0  0  0  0  0  0
   -5.2562   -5.0853    1.4562 C   0  0  0  0  0  0  0  0  0  0  0  0
   -5.8387   -5.4133    2.6760 C   0  0  0  0  0  0  0  0  0  0  0  0
   -5.2002   -5.0766    3.8633 C   0  0  0  0  0  0  0  0  0  0  0  0
   -3.9783   -4.4119    3.8454 C   0  0  0  0  0  0  0  0  0  0  0  0
    0.0460   -1.6240    2.5423 C   0  0  0  0  0  0  0  0  0  0  0  0
    1.1321   -0.7554    2.5166 C   0  0  0  0  0  0  0  0  0  0  0  0
    5.1812   -1.3187    0.7982 C   0  0  0  0  0  0  0  0  0  0  0  0
    4.9299   -1.9388   -0.4230 C   0  0  0  0  0  0  0  0  0  0  0  0
    4.0879   -3.0487   -0.5449 N   0  0  0  0  0  0  0  0  0  0  0  0
    4.5501   -4.1991   -1.2003 C   0  0  0  0  0  0  0  0  0  0  0  0
    3.8360   -5.1763   -1.3584 O   0  0  0  0  0  0  0  0  0  0  0  0
    5.9874   -4.1369   -1.7032 C   0  0  0  0  0  0  0  0  0  0  0  0
    5.9926   -3.4112   -3.0376 C   0  0  0  0  0  0  0  0  0  0  0  0
    5.1434   -2.1651   -2.8444 C   0  0  0  0  0  0  0  0  0  0  0  0
    5.5337   -1.4428   -1.5655 C   0  0  0  0  0  0  0  0  0  0  0  0
    6.4043   -0.3578   -1.5049 C   0  0  0  0  0  0  0  0  0  0  0  0
  1  2  1  0
  2  3  2  0
  3  4  1  0
  4  5  2  0
  4  6  2  0
  4  7  1  0
  7  8  1  0
  8  9  1  0
  9 10  1  0
 10 11  2  0
 11 12  1  0
  8 12  2  0
 11 13  1  0
 13 14  2  0
 14 15  1  0
 15 16  2  0
 16 17  1  0
 17 18  1  0
 18 19  1  0
 19 20  2  0
 20 21  1  0
 21 22  2  0
 22 23  1  0
 23 24  2  0
 24 19  1  0
 16 25  1  0
 25 26  2  0
 26 13  1  0
  3 27  1  0
 27 28  2  0
 28 29  1  0
 29 30  1  0
 30 31  2  0
 30 32  1  0
 32 33  1  0
 33 34  1  0
 34 35  1  0
 35 28  1  0
 35 36  2  0
 36  2  1  0
M  END
$$$$
