s_22____4786910____903526
          04022017343D 1   1.00000     0.00000     0
            
 47 50  0  0  0  0            999 V2000
    2.2631   -0.3662   -1.4054 Cl  0  0  0  0  0  0  0  0  0  0  0  0
    3.1318    0.4010   -0.0543 C   0  0  0  0  0  0  0  0  0  0  0  0
    2.4502    1.0000    1.0000 C   0  0  0  0  0  0  0  0  0  0  0  0
    3.1404    1.5679    1.9997 N   0  0  0  0  0  0  0  0  0  0  0  0
    4.4817    1.5731    2.0077 C   0  0  0  0  0  0  0  0  0  0  0  0
    5.1608    1.0011    1.0022 N   0  0  0  0  0  0  0  0  0  0  0  0
    4.5213    0.4191   -0.0224 C   0  0  0  0  0  0  0  0  0  0  0  0
    5.1937    2.1683    3.0550 N   0  0  0  0  0  0  0  0  0  0  0  0
    6.6636    2.1614    3.0416 C   0  0  0  0  0  0  0  0  0  0  0  0
    7.1708    3.4080    2.3275 C   0  0  0  0  0  0  0  0  0  0  0  0
    7.4178    3.5179    1.0419 O   0  0  0  0  0  0  0  0  0  0  0  0
    7.8446    4.7283    0.7536 C   0  0  0  0  0  0  0  0  0  0  0  0
    7.8843    5.4473    1.9101 C   0  0  0  0  0  0  0  0  0  0  0  0
    7.4460    4.5888    2.9450 C   0  0  0  0  0  0  0  0  0  0  0  0
    1.0000    1.0000    1.0000 C   0  0  0  0  0  0  0  0  0  0  0  0
    0.4000    2.0392    1.0073 O   0  0  0  0  0  0  0  0  0  0  0  0
    0.3150   -0.1864    0.9917 N   0  0  0  0  0  0  0  0  0  0  0  0
   -0.9441   -0.2634    0.3851 C   0  0  0  0  0  0  0  0  0  0  0  0
   -1.8423    0.7872    0.5386 C   0  0  0  0  0  0  0  0  0  0  0  0
   -3.0890    0.6951   -0.0710 C   0  0  0  0  0  0  0  0  0  0  0  0
   -3.9587    1.6907    0.0664 F   0  0  0  0  0  0  0  0  0  0  0  0
   -3.4285   -0.4263   -0.8199 C   0  0  0  0  0  0  0  0  0  0  0  0
   -4.6873   -0.4988   -1.4260 N   0  0  0  0  0  0  0  0  0  0  0  0
   -5.8986   -0.5577   -0.7438 C   0  0  0  0  0  0  0  0  0  0  0  0
   -6.0444   -0.5611    0.4667 O   0  0  0  0  0  0  0  0  0  0  0  0
   -7.0005   -0.6288   -1.7812 C   0  0  0  0  0  0  0  0  0  0  0  0
   -6.2684   -1.2078   -2.9746 C   0  0  0  0  0  0  0  0  0  0  0  0
   -4.9198   -0.5285   -2.8708 C   0  0  0  0  0  0  0  0  0  0  0  0
   -2.5194   -1.4690   -0.9650 C   0  0  0  0  0  0  0  0  0  0  0  0
   -1.2690   -1.3912   -0.3606 C   0  0  0  0  0  0  0  0  0  0  0  0
    5.0439   -0.0019   -0.7638 H   0  0  0  0  0  0  0  0  0  0  0  0
    4.7026    2.5984    3.8125 H   0  0  0  0  0  0  0  0  0  0  0  0
    6.9888    1.3468    2.5614 H   0  0  0  0  0  0  0  0  0  0  0  0
    7.0055    2.1532    3.9813 H   0  0  0  0  0  0  0  0  0  0  0  0
    8.0959    5.0620   -0.1550 H   0  0  0  0  0  0  0  0  0  0  0  0
    8.1690    6.4009    2.0086 H   0  0  0  0  0  0  0  0  0  0  0  0
    7.3577    4.8028    3.9178 H   0  0  0  0  0  0  0  0  0  0  0  0
    0.7145   -0.9974    1.4190 H   0  0  0  0  0  0  0  0  0  0  0  0
   -1.5966    1.5933    1.0770 H   0  0  0  0  0  0  0  0  0  0  0  0
   -7.3676    0.2788   -1.9848 H   0  0  0  0  0  0  0  0  0  0  0  0
   -7.7425   -1.2293   -1.4832 H   0  0  0  0  0  0  0  0  0  0  0  0
   -6.1820   -2.2014   -2.9017 H   0  0  0  0  0  0  0  0  0  0  0  0
   -6.7281   -0.9751   -3.8316 H   0  0  0  0  0  0  0  0  0  0  0  0
   -4.2122   -1.0575   -3.3394 H   0  0  0  0  0  0  0  0  0  0  0  0
   -4.9511    0.3960   -3.2505 H   0  0  0  0  0  0  0  0  0  0  0  0
   -2.7648   -2.2748   -1.5039 H   0  0  0  0  0  0  0  0  0  0  0  0
   -0.6113   -2.1378   -0.4611 H   0  0  0  0  0  0  0  0  0  0  0  0
  1  2  1  0  0  0  0
  2  3  1  0  0  0  0
  3  4  2  0  0  0  0
  4  5  1  0  0  0  0
  5  6  2  0  0  0  0
  6  7  1  0  0  0  0
  7  2  2  0  0  0  0
  5  8  1  0  0  0  0
  8  9  1  0  0  0  0
  9 10  1  0  0  0  0
 10 11  1  0  0  0  0
 11 12  1  0  0  0  0
 12 13  2  0  0  0  0
 13 14  1  0  0  0  0
 10 14  2  0  0  0  0
  3 15  1  0  0  0  0
 15 16  2  0  0  0  0
 15 17  1  0  0  0  0
 17 18  1  0  0  0  0
 18 19  1  0  0  0  0
 19 20  2  0  0  0  0
 20 21  1  0  0  0  0
 20 22  1  0  0  0  0
 22 23  1  0  0  0  0
 23 24  1  0  0  0  0
 24 25  2  0  0  0  0
 24 26  1  0  0  0  0
 26 27  1  0  0  0  0
 27 28  1  0  0  0  0
 28 23  1  0  0  0  0
 22 29  2  0  0  0  0
 29 30  1  0  0  0  0
 30 18  2  0  0  0  0
  7 31  1  0  0  0  0
  8 32  1  0  0  0  0
  9 33  1  0  0  0  0
  9 34  1  0  0  0  0
 12 35  1  0  0  0  0
 13 36  1  0  0  0  0
 14 37  1  0  0  0  0
 17 38  1  0  0  0  0
 19 39  1  0  0  0  0
 26 40  1  0  0  0  0
 26 41  1  0  0  0  0
 27 42  1  0  0  0  0
 27 43  1  0  0  0  0
 28 44  1  0  0  0  0
 28 45  1  0  0  0  0
 29 46  1  0  0  0  0
 30 47  1  0  0  0  0
M  END
>  <result-rank>
1

>  <similarity>
0.943

>  <query-name>


>  <query-smiles>
Fc1c(F)ccc(NC(=O)c2nc(cnc2Nc3cncnc3)C4CC4)c1C(=O)N5CCC5

>  <source>
REALspace_2019-12

>  <similarity-descriptor>
0.0;0.998;0.964;0.957;0.880;1.000;1.000;1.000;0.998;0.0

>  <similarity-descriptor-smiles>
;N1CCCC1=O;c1cccc(c1)F;Clc1cncnc1;CC1=CC=CO1;N;C=O;N;N1CCCC1=O;

>  <reaction-name>
s_22

>  <reagent1-name>
4786910

>  <reagent1-smiles>
[R1*]Nc1cc(F)c(N2C(=O)CCC2)cc1

>  <reagent2-name>
903526

>  <reagent2-smiles>
[R1*]C(=O)c1nc(ncc1Cl)NCC=2OC=CC2

$$$$
s_527a____4786924____12218672
          04022017343D 1   1.00000     0.00000     0
            
 51 54  0  0  0  0            999 V2000
    2.6841   -3.7246    0.5266 F   0  0  0  0  0  0  0  0  0  0  0  0
    3.2118   -2.5169    0.3546 C   0  0  0  0  0  0  0  0  0  0  0  0
    4.4618   -2.3825   -0.2395 C   0  0  0  0  0  0  0  0  0  0  0  0
    5.1574   -3.5233   -0.6540 N   0  0  0  0  0  0  0  0  0  0  0  0
    5.7263   -4.4642    0.1988 C   0  0  0  0  0  0  0  0  0  0  0  0
    5.7103   -4.4347    1.4177 O   0  0  0  0  0  0  0  0  0  0  0  0
    6.3785   -5.5241   -0.6653 C   0  0  0  0  0  0  0  0  0  0  0  0
    6.6325   -4.7648   -1.9515 C   0  0  0  0  0  0  0  0  0  0  0  0
    5.3963   -3.8968   -2.0489 C   0  0  0  0  0  0  0  0  0  0  0  0
    5.0153   -1.1193   -0.4205 C   0  0  0  0  0  0  0  0  0  0  0  0
    4.3188    0.0114   -0.0070 C   0  0  0  0  0  0  0  0  0  0  0  0
    3.0698   -0.1391    0.5854 C   0  0  0  0  0  0  0  0  0  0  0  0
    2.3700    1.0000    1.0000 N   0  0  0  0  0  0  0  0  0  0  0  0
    1.0000    1.0000    1.0000 C   0  0  0  0  0  0  0  0  0  0  0  0
    0.4000   -0.0392    1.0000 O   0  0  0  0  0  0  0  0  0  0  0  0
    0.2745    2.2566    1.0000 C   0  0  0  0  0  0  0  0  0  0  0  0
    0.9250    3.4451    1.4213 C   0  0  0  0  0  0  0  0  0  0  0  0
    2.0911    3.3091    1.7644 O   0  0  0  0  0  0  0  0  0  0  0  0
    0.2424    4.7014    1.4345 C   0  0  0  0  0  0  0  0  0  0  0  0
    0.8200    5.9150    1.8365 C   0  0  0  0  0  0  0  0  0  0  0  0
    2.0991    6.0364    2.2580 O   0  0  0  0  0  0  0  0  0  0  0  0
    2.6527    7.3243    2.4847 C   0  0  0  0  0  0  0  0  0  0  0  0
    0.1078    7.1061    1.8301 C   0  0  0  0  0  0  0  0  0  0  0  0
   -1.2137    7.0590    1.4070 C   0  0  0  0  0  0  0  0  0  0  0  0
   -1.8960    8.2175    1.4052 O   0  0  0  0  0  0  0  0  0  0  0  0
   -3.3160    8.2052    1.4051 C   0  0  0  0  0  0  0  0  0  0  0  0
   -1.8230    5.8766    1.0002 C   0  0  0  0  0  0  0  0  0  0  0  0
   -1.0858    4.6973    1.0161 C   0  0  0  0  0  0  0  0  0  0  0  0
   -1.7003    3.5399    0.6125 N   0  0  0  0  0  0  0  0  0  0  0  0
   -1.0351    2.3413    0.6034 C   0  0  0  0  0  0  0  0  0  0  0  0
    2.5034   -1.3954    0.7726 C   0  0  0  0  0  0  0  0  0  0  0  0
    5.7649   -6.2993   -0.8155 H   0  0  0  0  0  0  0  0  0  0  0  0
    7.2329   -5.8489   -0.2598 H   0  0  0  0  0  0  0  0  0  0  0  0
    7.4624   -4.2105   -1.8892 H   0  0  0  0  0  0  0  0  0  0  0  0
    6.7040   -5.3853   -2.7324 H   0  0  0  0  0  0  0  0  0  0  0  0
    5.5655   -3.0899   -2.6148 H   0  0  0  0  0  0  0  0  0  0  0  0
    4.6236   -4.4099   -2.4226 H   0  0  0  0  0  0  0  0  0  0  0  0
    5.9143   -1.0241   -0.8480 H   0  0  0  0  0  0  0  0  0  0  0  0
    4.7118    0.9222   -0.1342 H   0  0  0  0  0  0  0  0  0  0  0  0
    2.8700    1.8138    1.2962 H   0  0  0  0  0  0  0  0  0  0  0  0
    3.6002    7.2307    2.7904 H   0  0  0  0  0  0  0  0  0  0  0  0
    2.6269    7.8524    1.6359 H   0  0  0  0  0  0  0  0  0  0  0  0
    2.1208    7.7967    3.1875 H   0  0  0  0  0  0  0  0  0  0  0  0
    0.5302    7.9652    2.1192 H   0  0  0  0  0  0  0  0  0  0  0  0
   -3.6574    9.1451    1.4037 H   0  0  0  0  0  0  0  0  0  0  0  0
   -3.6451    7.7298    0.5893 H   0  0  0  0  0  0  0  0  0  0  0  0
   -3.6453    7.7322    2.2222 H   0  0  0  0  0  0  0  0  0  0  0  0
   -2.7771    5.8745    0.7006 H   0  0  0  0  0  0  0  0  0  0  0  0
   -2.6555    3.5709    0.3180 H   0  0  0  0  0  0  0  0  0  0  0  0
   -1.5127    1.5158    0.3028 H   0  0  0  0  0  0  0  0  0  0  0  0
    1.6041   -1.4905    1.1994 H   0  0  0  0  0  0  0  0  0  0  0  0
  1  2  1  0  0  0  0
  2  3  1  0  0  0  0
  3  4  1  0  0  0  0
  4  5  1  0  0  0  0
  5  6  2  0  0  0  0
  5  7  1  0  0  0  0
  7  8  1  0  0  0  0
  8  9  1  0  0  0  0
  9  4  1  0  0  0  0
  3 10  2  0  0  0  0
 10 11  1  0  0  0  0
 11 12  2  0  0  0  0
 12 13  1  0  0  0  0
 13 14  1  0  0  0  0
 14 15  2  0  0  0  0
 14 16  1  0  0  0  0
 16 17  1  0  0  0  0
 17 18  2  0  0  0  0
 17 19  1  0  0  0  0
 19 20  1  0  0  0  0
 20 21  1  0  0  0  0
 21 22  1  0  0  0  0
 20 23  2  0  0  0  0
 23 24  1  0  0  0  0
 24 25  1  0  0  0  0
 25 26  1  0  0  0  0
 24 27  2  0  0  0  0
 27 28  1  0  0  0  0
 28 19  2  0  0  0  0
 28 29  1  0  0  0  0
 29 30  1  0  0  0  0
 16 30  2  0  0  0  0
 12 31  1  0  0  0  0
 31  2  2  0  0  0  0
  7 32  1  0  0  0  0
  7 33  1  0  0  0  0
  8 34  1  0  0  0  0
  8 35  1  0  0  0  0
  9 36  1  0  0  0  0
  9 37  1  0  0  0  0
 10 38  1  0  0  0  0
 11 39  1  0  0  0  0
 13 40  1  0  0  0  0
 22 41  1  0  0  0  0
 22 42  1  0  0  0  0
 22 43  1  0  0  0  0
 23 44  1  0  0  0  0
 26 45  1  0  0  0  0
 26 46  1  0  0  0  0
 26 47  1  0  0  0  0
 27 48  1  0  0  0  0
 29 49  1  0  0  0  0
 30 50  1  0  0  0  0
 31 51  1  0  0  0  0
M  END
>  <result-rank>
2

>  <similarity>
0.942

>  <query-name>


>  <query-smiles>
Fc1c(F)ccc(NC(=O)c2nc(cnc2Nc3cncnc3)C4CC4)c1C(=O)N5CCC5

>  <source>
REALspace_2019-12

>  <similarity-descriptor>
0.0;0.998;0.964;0.962;0.927;1.000;0.999;0.962;0.998;0.200

>  <similarity-descriptor-smiles>
;N1CCCC1=O;Fc1ccccc1;C1=CNccC1=O;c1ccc(cc1O)O;N;C=O;C1=CNccC1=O;N1CCCC1=O;C.C

>  <reaction-name>
s_527a

>  <reagent1-name>
4786924

>  <reagent1-smiles>
[R1*]Nc1cc(F)c(N2C(=O)CCC2)cc1

>  <reagent2-name>
12218672

>  <reagent2-smiles>
[R1*]C(=O)C=1C(=O)c2c(OC)cc(OC)cc2NC1

$$$$
s_22____4786910____2787412
          04022017343D 1   1.00000     0.00000     0
            
 50 53  0  0  0  0            999 V2000
    5.9950   -2.0429    1.4951 F   0  0  0  0  0  0  0  0  0  0  0  0
    4.8986   -1.6603    0.8484 C   0  0  0  0  0  0  0  0  0  0  0  0
    4.4434   -2.3928   -0.2423 C   0  0  0  0  0  0  0  0  0  0  0  0
    5.1443   -3.5308   -0.6524 N   0  0  0  0  0  0  0  0  0  0  0  0
    4.9826   -4.8034   -0.1146 C   0  0  0  0  0  0  0  0  0  0  0  0
    4.2245   -5.1146    0.7895 O   0  0  0  0  0  0  0  0  0  0  0  0
    5.9164   -5.7360   -0.8529 C   0  0  0  0  0  0  0  0  0  0  0  0
    6.9823   -4.7944   -1.3675 C   0  0  0  0  0  0  0  0  0  0  0  0
    6.1576   -3.5718   -1.7089 C   0  0  0  0  0  0  0  0  0  0  0  0
    3.2960   -1.9939   -0.9200 C   0  0  0  0  0  0  0  0  0  0  0  0
    2.6024   -0.8611   -0.5071 C   0  0  0  0  0  0  0  0  0  0  0  0
    3.0698   -0.1391    0.5854 C   0  0  0  0  0  0  0  0  0  0  0  0
    2.3700    1.0000    1.0000 N   0  0  0  0  0  0  0  0  0  0  0  0
    1.0000    1.0000    1.0000 C   0  0  0  0  0  0  0  0  0  0  0  0
    0.4000   -0.0392    1.0000 O   0  0  0  0  0  0  0  0  0  0  0  0
    0.2400    2.3164    1.0000 C   0  0  0  0  0  0  0  0  0  0  0  0
   -0.0134    2.7552   -0.4334 C   0  0  0  0  0  0  0  0  0  0  0  0
   -1.1970    2.3452   -1.1030 C   0  0  0  0  0  0  0  0  0  0  0  0
   -2.0059    1.6524   -0.5500 O   0  0  0  0  0  0  0  0  0  0  0  0
   -1.3965    2.7571   -2.3950 N   0  0  0  0  0  0  0  0  0  0  0  0
   -0.4783    3.5483   -3.0352 C   0  0  0  0  0  0  0  0  0  0  0  0
    0.6216    3.9267   -2.4078 N   0  0  0  0  0  0  0  0  0  0  0  0
    0.8759    3.5462   -1.1156 C   0  0  0  0  0  0  0  0  0  0  0  0
    2.1520    4.0015   -0.4265 C   0  0  0  0  0  0  0  0  0  0  0  0
   -0.7421    3.9528   -4.4024 C   0  0  0  0  0  0  0  0  0  0  0  0
   -1.8633    3.5604   -5.0256 N   0  0  0  0  0  0  0  0  0  0  0  0
   -2.1232    3.9256   -6.2894 C   0  0  0  0  0  0  0  0  0  0  0  0
   -1.2132    4.7274   -6.9704 C   0  0  0  0  0  0  0  0  0  0  0  0
   -0.0571    5.1252   -6.3075 C   0  0  0  0  0  0  0  0  0  0  0  0
    0.1464    4.7274   -5.0430 N   0  0  0  0  0  0  0  0  0  0  0  0
    4.2152   -0.5258    1.2731 C   0  0  0  0  0  0  0  0  0  0  0  0
    5.4463   -6.1957   -1.6064 H   0  0  0  0  0  0  0  0  0  0  0  0
    6.3059   -6.4199   -0.2361 H   0  0  0  0  0  0  0  0  0  0  0  0
    7.6630   -4.5921   -0.6635 H   0  0  0  0  0  0  0  0  0  0  0  0
    7.4392   -5.1654   -2.1761 H   0  0  0  0  0  0  0  0  0  0  0  0
    6.7214   -2.7460   -1.6946 H   0  0  0  0  0  0  0  0  0  0  0  0
    5.7314   -3.6689   -2.6083 H   0  0  0  0  0  0  0  0  0  0  0  0
    2.9696   -2.5217   -1.7041 H   0  0  0  0  0  0  0  0  0  0  0  0
    1.7770   -0.5693   -0.9905 H   0  0  0  0  0  0  0  0  0  0  0  0
    2.8700    1.8138    1.2962 H   0  0  0  0  0  0  0  0  0  0  0  0
    0.7804    3.0133    1.4714 H   0  0  0  0  0  0  0  0  0  0  0  0
   -0.6338    2.1968    1.4714 H   0  0  0  0  0  0  0  0  0  0  0  0
   -2.2255    2.4758   -2.8784 H   0  0  0  0  0  0  0  0  0  0  0  0
    2.1768    3.6362    0.5041 H   0  0  0  0  0  0  0  0  0  0  0  0
    2.9441    3.6671   -0.9371 H   0  0  0  0  0  0  0  0  0  0  0  0
    2.1745    5.0007   -0.3931 H   0  0  0  0  0  0  0  0  0  0  0  0
   -2.9642    3.6240   -6.7385 H   0  0  0  0  0  0  0  0  0  0  0  0
   -1.3860    5.0109   -7.9137 H   0  0  0  0  0  0  0  0  0  0  0  0
    0.6161    5.7025   -6.7694 H   0  0  0  0  0  0  0  0  0  0  0  0
    4.5410    0.0016    2.0577 H   0  0  0  0  0  0  0  0  0  0  0  0
  1  2  1  0  0  0  0
  2  3  1  0  0  0  0
  3  4  1  0  0  0  0
  4  5  1  0  0  0  0
  5  6  2  0  0  0  0
  5  7  1  0  0  0  0
  7  8  1  0  0  0  0
  8  9  1  0  0  0  0
  9  4  1  0  0  0  0
  3 10  2  0  0  0  0
 10 11  1  0  0  0  0
 11 12  2  0  0  0  0
 12 13  1  0  0  0  0
 13 14  1  0  0  0  0
 14 15  2  0  0  0  0
 14 16  1  0  0  0  0
 16 17  1  0  0  0  0
 17 18  1  0  0  0  0
 18 19  2  0  0  0  0
 18 20  1  0  0  0  0
 20 21  1  0  0  0  0
 21 22  2  0  0  0  0
 22 23  1  0  0  0  0
 17 23  2  0  0  0  0
 23 24  1  0  0  0  0
 21 25  1  0  0  0  0
 25 26  1  0  0  0  0
 26 27  2  0  0  0  0
 27 28  1  0  0  0  0
 28 29  2  0  0  0  0
 29 30  1  0  0  0  0
 30 25  2  0  0  0  0
 12 31  1  0  0  0  0
 31  2  2  0  0  0  0
  7 32  1  0  0  0  0
  7 33  1  0  0  0  0
  8 34  1  0  0  0  0
  8 35  1  0  0  0  0
  9 36  1  0  0  0  0
  9 37  1  0  0  0  0
 10 38  1  0  0  0  0
 11 39  1  0  0  0  0
 13 40  1  0  0  0  0
 16 41  1  0  0  0  0
 16 42  1  0  0  0  0
 20 43  1  0  0  0  0
 24 44  1  0  0  0  0
 24 45  1  0  0  0  0
 24 46  1  0  0  0  0
 27 47  1  0  0  0  0
 28 48  1  0  0  0  0
 29 49  1  0  0  0  0
 31 50  1  0  0  0  0
M  END
>  <result-rank>
3

>  <similarity>
0.939

>  <query-name>


>  <query-smiles>
Fc1c(F)ccc(NC(=O)c2nc(cnc2Nc3cncnc3)C4CC4)c1C(=O)N5CCC5

>  <source>
REALspace_2019-12

>  <similarity-descriptor>
0.0;0.998;0.964;0.910;0.998;1.000;0.861;0.910;0.998;0.125

>  <similarity-descriptor-smiles>
;N1CCCC1=O;Fc1ccccc1;C1=CN=CNC1=O;c1ncccn1;N;C(=O)C;C1=CN=CNC1=O;N1CCCC1=O;C

>  <reaction-name>
s_22

>  <reagent1-name>
4786910

>  <reagent1-smiles>
[R1*]Nc1cc(F)c(N2C(=O)CCC2)cc1

>  <reagent2-name>
2787412

>  <reagent2-smiles>
[R1*]C(=O)CC=1C(=O)N=C(NC1C)c2ncccn2

$$$$
s_22____7639468____9963370
          04022017343D 1   1.00000     0.00000     0
            
 44 47  0  0  0  0            999 V2000
    7.9838   -1.8228    0.6375 S   0  0  0  0  0  0  0  0  0  0  0  0
    8.2106   -1.7574   -1.0865 C   0  0  0  0  0  0  0  0  0  0  0  0
    7.6299   -2.6656   -1.8859 N   0  0  0  0  0  0  0  0  0  0  0  0
    7.7889   -2.6370   -3.2177 C   0  0  0  0  0  0  0  0  0  0  0  0
    8.5753   -1.6415   -3.7876 C   0  0  0  0  0  0  0  0  0  0  0  0
    9.1701   -0.7074   -2.9465 C   0  0  0  0  0  0  0  0  0  0  0  0
    8.9711   -0.7912   -1.6229 N   0  0  0  0  0  0  0  0  0  0  0  0
    6.5657   -0.8226    0.7636 C   0  0  0  0  0  0  0  0  0  0  0  0
    6.5560    0.4901    0.9344 O   0  0  0  0  0  0  0  0  0  0  0  0
    5.3144    0.9181    0.9999 C   0  0  0  0  0  0  0  0  0  0  0  0
    4.5195   -0.1763    0.8451 C   0  0  0  0  0  0  0  0  0  0  0  0
    5.3268   -1.2678    0.7014 N   0  0  0  0  0  0  0  0  0  0  0  0
    3.0680   -0.1763    0.8451 C   0  0  0  0  0  0  0  0  0  0  0  0
    2.4680   -1.2066    0.7095 O   0  0  0  0  0  0  0  0  0  0  0  0
    2.3830    1.0000    1.0000 N   0  0  0  0  0  0  0  0  0  0  0  0
    1.0000    1.0000    1.0000 N   0  0  0  0  0  0  0  0  0  0  0  0
    0.3004    2.2117    1.0000 C   0  0  0  0  0  0  0  0  0  0  0  0
   -0.6484    2.4819    1.9806 C   0  0  0  0  0  0  0  0  0  0  0  0
   -0.8828    1.5719    2.9206 F   0  0  0  0  0  0  0  0  0  0  0  0
   -1.3483    3.6834    1.9873 C   0  0  0  0  0  0  0  0  0  0  0  0
   -1.0792    4.6143    0.9900 C   0  0  0  0  0  0  0  0  0  0  0  0
   -0.1351    4.3678   -0.0009 C   0  0  0  0  0  0  0  0  0  0  0  0
    0.5518    3.1587    0.0136 C   0  0  0  0  0  0  0  0  0  0  0  0
    1.4582    2.9084   -0.9270 F   0  0  0  0  0  0  0  0  0  0  0  0
   -1.8028    5.8697    0.9857 C   0  0  0  0  0  0  0  0  0  0  0  0
   -2.9476    5.9005    0.6272 O   0  0  0  0  0  0  0  0  0  0  0  0
   -1.1802    7.0213    1.3895 N   0  0  0  0  0  0  0  0  0  0  0  0
   -1.9137    8.2933    1.3836 C   0  0  0  0  0  0  0  0  0  0  0  0
   -1.2608    9.3034    0.4847 C   0  0  0  0  0  0  0  0  0  0  0  0
   -1.1043    9.4116    1.9747 C   0  0  0  0  0  0  0  0  0  0  0  0
    7.3467   -3.3239   -3.7944 H   0  0  0  0  0  0  0  0  0  0  0  0
    8.7098   -1.5985   -4.7775 H   0  0  0  0  0  0  0  0  0  0  0  0
    9.7413    0.0208   -3.3255 H   0  0  0  0  0  0  0  0  0  0  0  0
    5.0133    1.8619    1.1366 H   0  0  0  0  0  0  0  0  0  0  0  0
    2.8830    1.8586    1.1130 H   0  0  0  0  0  0  0  0  0  0  0  0
    0.5000    0.1340    1.0000 H   0  0  0  0  0  0  0  0  0  0  0  0
   -2.0299    3.8738    2.6937 H   0  0  0  0  0  0  0  0  0  0  0  0
    0.0467    5.0479   -0.7111 H   0  0  0  0  0  0  0  0  0  0  0  0
   -0.2262    6.9956    1.6882 H   0  0  0  0  0  0  0  0  0  0  0  0
   -2.9082    8.2924    1.4881 H   0  0  0  0  0  0  0  0  0  0  0  0
   -1.8204    9.9691   -0.0090 H   0  0  0  0  0  0  0  0  0  0  0  0
   -0.4808    9.0381   -0.0821 H   0  0  0  0  0  0  0  0  0  0  0  0
   -0.2201    9.2183    2.4000 H   0  0  0  0  0  0  0  0  0  0  0  0
   -1.5598   10.1493    2.4731 H   0  0  0  0  0  0  0  0  0  0  0  0
  1  2  1  0  0  0  0
  2  3  1  0  0  0  0
  3  4  2  0  0  0  0
  4  5  1  0  0  0  0
  5  6  2  0  0  0  0
  6  7  1  0  0  0  0
  7  2  2  0  0  0  0
  1  8  1  0  0  0  0
  8  9  1  0  0  0  0
  9 10  1  0  0  0  0
 10 11  2  0  0  0  0
 11 12  1  0  0  0  0
  8 12  2  0  0  0  0
 11 13  1  0  0  0  0
 13 14  2  0  0  0  0
 13 15  1  0  0  0  0
 15 16  1  0  0  0  0
 16 17  1  0  0  0  0
 17 18  1  0  0  0  0
 18 19  1  0  0  0  0
 18 20  2  0  0  0  0
 20 21  1  0  0  0  0
 21 22  2  0  0  0  0
 22 23  1  0  0  0  0
 23 17  2  0  0  0  0
 23 24  1  0  0  0  0
 21 25  1  0  0  0  0
 25 26  2  0  0  0  0
 25 27  1  0  0  0  0
 27 28  1  0  0  0  0
 28 29  1  0  0  0  0
 29 30  1  0  0  0  0
 30 28  1  0  0  0  0
  4 31  1  0  0  0  0
  5 32  1  0  0  0  0
  6 33  1  0  0  0  0
 10 34  1  0  0  0  0
 15 35  1  0  0  0  0
 16 36  1  0  0  0  0
 20 37  1  0  0  0  0
 22 38  1  0  0  0  0
 27 39  1  0  0  0  0
 28 40  1  0  0  0  0
 29 41  1  0  0  0  0
 29 42  1  0  0  0  0
 30 43  1  0  0  0  0
 30 44  1  0  0  0  0
M  END
>  <result-rank>
4

>  <similarity>
0.935

>  <query-name>


>  <query-smiles>
Fc1c(F)ccc(NC(=O)c2nc(cnc2Nc3cncnc3)C4CC4)c1C(=O)N5CCC5

>  <source>
REALspace_2019-12

>  <similarity-descriptor>
0.0;0.969;1.000;0.981;0.920;0.975;0.848;0.920;0.852;0.0

>  <similarity-descriptor-smiles>
;C1CC1;c1c(cccc1F)F;SC1=NC=CO1;c1ncccn1;N;C(=O)N;c1ncccn1;C(=O)N;

>  <reaction-name>
s_22

>  <reagent1-name>
7639468

>  <reagent1-smiles>
[R1*]NNc1c(F)cc(cc1F)C(=O)NC2CC2

>  <reagent2-name>
9963370

>  <reagent2-smiles>
[R1*]C(=O)C=1N=C(Sc2ncccn2)OC1

$$$$
s_22____1041906____537790
          04022017343D 1   1.00000     0.00000     0
            
 52 56  0  0  0  0            999 V2000
    2.4236   -1.2678    1.6179 F   0  0  0  0  0  0  0  0  0  0  0  0
    3.0970   -0.1616    1.3164 C   0  0  0  0  0  0  0  0  0  0  0  0
    2.4002    1.0000    1.0000 C   0  0  0  0  0  0  0  0  0  0  0  0
    1.0000    1.0000    1.0000 N   0  0  0  0  0  0  0  0  0  0  0  0
    0.3150    2.1864    0.9951 C   0  0  0  0  0  0  0  0  0  0  0  0
    0.8607    3.1958    1.3464 O   0  0  0  0  0  0  0  0  0  0  0  0
   -1.0714    2.2226    0.5649 C   0  0  0  0  0  0  0  0  0  0  0  0
   -2.1522    2.6415    1.3541 C   0  0  0  0  0  0  0  0  0  0  0  0
   -3.4259    2.6180    0.7873 C   0  0  0  0  0  0  0  0  0  0  0  0
   -3.5619    2.2001   -0.4849 N   0  0  0  0  0  0  0  0  0  0  0  0
   -2.5328    1.7967   -1.2491 C   0  0  0  0  0  0  0  0  0  0  0  0
   -1.2403    1.7952   -0.7442 C   0  0  0  0  0  0  0  0  0  0  0  0
   -2.7121    1.3257   -2.6831 C   0  0  0  0  0  0  0  0  0  0  0  0
   -2.2728    2.3820   -3.6546 C   0  0  0  0  0  0  0  0  0  0  0  0
   -3.7364    2.1326   -3.4280 C   0  0  0  0  0  0  0  0  0  0  0  0
   -4.5115    3.0187    1.5289 N   0  0  0  0  0  0  0  0  0  0  0  0
   -4.3687    3.4431    2.8269 C   0  0  0  0  0  0  0  0  0  0  0  0
   -5.3322    3.7982    3.4873 O   0  0  0  0  0  0  0  0  0  0  0  0
   -3.1331    3.4793    3.4193 N   0  0  0  0  0  0  0  0  0  0  0  0
   -2.0374    3.0893    2.7081 C   0  0  0  0  0  0  0  0  0  0  0  0
   -0.9850    3.1648    3.3296 O   0  0  0  0  0  0  0  0  0  0  0  0
   -5.8702    3.0097    0.9642 C   0  0  0  0  0  0  0  0  0  0  0  0
    3.0828    2.1685    0.6814 C   0  0  0  0  0  0  0  0  0  0  0  0
    4.4730    2.1524    0.6851 C   0  0  0  0  0  0  0  0  0  0  0  0
    5.1752    3.3182    0.3655 N   0  0  0  0  0  0  0  0  0  0  0  0
    6.5464    3.4912    0.5228 C   0  0  0  0  0  0  0  0  0  0  0  0
    7.3320    2.6696    0.9661 O   0  0  0  0  0  0  0  0  0  0  0  0
    6.8914    4.8836    0.0441 C   0  0  0  0  0  0  0  0  0  0  0  0
    5.5793    5.6195    0.2002 C   0  0  0  0  0  0  0  0  0  0  0  0
    4.5880    4.5420   -0.1843 C   0  0  0  0  0  0  0  0  0  0  0  0
    5.1758    0.9948    1.0008 C   0  0  0  0  0  0  0  0  0  0  0  0
    4.4880   -0.1715    1.3187 C   0  0  0  0  0  0  0  0  0  0  0  0
    0.5000    0.1340    1.0036 H   0  0  0  0  0  0  0  0  0  0  0  0
   -0.4637    1.4987   -1.3002 H   0  0  0  0  0  0  0  0  0  0  0  0
   -2.5822    0.3600   -2.9080 H   0  0  0  0  0  0  0  0  0  0  0  0
   -1.8492    2.1189   -4.5214 H   0  0  0  0  0  0  0  0  0  0  0  0
   -1.8516    3.2249   -3.3200 H   0  0  0  0  0  0  0  0  0  0  0  0
   -4.2896    2.8094   -2.9423 H   0  0  0  0  0  0  0  0  0  0  0  0
   -4.2872    1.7034   -4.1437 H   0  0  0  0  0  0  0  0  0  0  0  0
   -3.0363    3.7892    4.3651 H   0  0  0  0  0  0  0  0  0  0  0  0
   -6.5195    3.3331    1.6526 H   0  0  0  0  0  0  0  0  0  0  0  0
   -5.9035    3.6113    0.1660 H   0  0  0  0  0  0  0  0  0  0  0  0
   -6.1111    2.0787    0.6901 H   0  0  0  0  0  0  0  0  0  0  0  0
    2.5835    3.0045    0.4538 H   0  0  0  0  0  0  0  0  0  0  0  0
    7.1887    4.8740   -0.9106 H   0  0  0  0  0  0  0  0  0  0  0  0
    7.6053    5.2940    0.6115 H   0  0  0  0  0  0  0  0  0  0  0  0
    5.4407    5.9252    1.1421 H   0  0  0  0  0  0  0  0  0  0  0  0
    5.5242    6.4046   -0.4167 H   0  0  0  0  0  0  0  0  0  0  0  0
    3.6917    4.7209    0.2212 H   0  0  0  0  0  0  0  0  0  0  0  0
    4.4976    4.4788   -1.1782 H   0  0  0  0  0  0  0  0  0  0  0  0
    6.1758    1.0010    0.9992 H   0  0  0  0  0  0  0  0  0  0  0  0
    4.9876   -1.0073    1.5463 H   0  0  0  0  0  0  0  0  0  0  0  0
  1  2  1  0  0  0  0
  2  3  1  0  0  0  0
  3  4  1  0  0  0  0
  4  5  1  0  0  0  0
  5  6  2  0  0  0  0
  5  7  1  0  0  0  0
  7  8  1  0  0  0  0
  8  9  2  0  0  0  0
  9 10  1  0  0  0  0
 10 11  2  0  0  0  0
 11 12  1  0  0  0  0
 12  7  2  0  0  0  0
 11 13  1  0  0  0  0
 13 14  1  0  0  0  0
 14 15  1  0  0  0  0
 15 13  1  0  0  0  0
  9 16  1  0  0  0  0
 16 17  1  0  0  0  0
 17 18  2  0  0  0  0
 17 19  1  0  0  0  0
 19 20  1  0  0  0  0
 20  8  1  0  0  0  0
 20 21  2  0  0  0  0
 16 22  1  0  0  0  0
  3 23  2  0  0  0  0
 23 24  1  0  0  0  0
 24 25  1  0  0  0  0
 25 26  1  0  0  0  0
 26 27  2  0  0  0  0
 26 28  1  0  0  0  0
 28 29  1  0  0  0  0
 29 30  1  0  0  0  0
 30 25  1  0  0  0  0
 24 31  2  0  0  0  0
 31 32  1  0  0  0  0
 32  2  2  0  0  0  0
  4 33  1  0  0  0  0
 12 34  1  0  0  0  0
 13 35  1  0  0  0  0
 14 36  1  0  0  0  0
 14 37  1  0  0  0  0
 15 38  1  0  0  0  0
 15 39  1  0  0  0  0
 19 40  1  0  0  0  0
 22 41  1  0  0  0  0
 22 42  1  0  0  0  0
 22 43  1  0  0  0  0
 23 44  1  0  0  0  0
 28 45  1  0  0  0  0
 28 46  1  0  0  0  0
 29 47  1  0  0  0  0
 29 48  1  0  0  0  0
 30 49  1  0  0  0  0
 30 50  1  0  0  0  0
 31 51  1  0  0  0  0
 32 52  1  0  0  0  0
M  END
>  <result-rank>
5

>  <similarity>
0.928

>  <query-name>


>  <query-smiles>
Fc1c(F)ccc(NC(=O)c2nc(cnc2Nc3cncnc3)C4CC4)c1C(=O)N5CCC5

>  <source>
REALspace_2019-12

>  <similarity-descriptor>
1.000;0.998;0.964;0.855;0.846;1.000;1.000;0.846;0.998;0.125

>  <similarity-descriptor-smiles>
C1CC1;N1CCCC1=O;Fc1ccccc1;c1ccncc1;c1C(NC(Nc1)=O)=O;N;C=O;c1C(NC(Nc1)=O)=O;N1CCCC1=O;C

>  <reaction-name>
s_22

>  <reagent1-name>
1041906

>  <reagent1-smiles>
[R1*]Nc1c(F)ccc(N2C(=O)CCC2)c1

>  <reagent2-name>
537790

>  <reagent2-smiles>
[R1*]C(=O)c1c2c(nc(c1)C3CC3)N(C(=O)NC2=O)C

$$$$
s_22____4786910____14391792
          04022017343D 1   1.00000     0.00000     0
            
 43 46  0  0  0  0            999 V2000
    5.1421   -1.2125    1.7694 F   0  0  0  0  0  0  0  0  0  0  0  0
    4.4741   -0.1273    1.3918 C   0  0  0  0  0  0  0  0  0  0  0  0
    5.1657    1.0116    0.9942 C   0  0  0  0  0  0  0  0  0  0  0  0
    6.5647    1.0071    0.9941 N   0  0  0  0  0  0  0  0  0  0  0  0
    7.3634    0.9890    2.1333 C   0  0  0  0  0  0  0  0  0  0  0  0
    6.9716    0.9801    3.2879 O   0  0  0  0  0  0  0  0  0  0  0  0
    8.8075    0.9943    1.6750 C   0  0  0  0  0  0  0  0  0  0  0  0
    8.6960    1.6208    0.3001 C   0  0  0  0  0  0  0  0  0  0  0  0
    7.4000    1.0263   -0.2078 C   0  0  0  0  0  0  0  0  0  0  0  0
    4.4681    2.1481    0.5983 C   0  0  0  0  0  0  0  0  0  0  0  0
    3.0772    2.1465    0.5999 C   0  0  0  0  0  0  0  0  0  0  0  0
    2.3997    1.0000    1.0000 C   0  0  0  0  0  0  0  0  0  0  0  0
    1.0000    1.0000    1.0000 N   0  0  0  0  0  0  0  0  0  0  0  0
    0.3150   -0.1863    0.9831 C   0  0  0  0  0  0  0  0  0  0  0  0
    0.8607   -1.1891    0.6133 O   0  0  0  0  0  0  0  0  0  0  0  0
   -1.0700   -0.2303    1.4122 C   0  0  0  0  0  0  0  0  0  0  0  0
   -1.8628   -1.3369    1.4450 C   0  0  0  0  0  0  0  0  0  0  0  0
   -3.0667   -0.9093    1.9064 N   0  0  0  0  0  0  0  0  0  0  0  0
   -3.0184    0.3870    2.1512 N   0  0  0  0  0  0  0  0  0  0  0  0
   -1.8316    0.8663    1.8753 C   0  0  0  0  0  0  0  0  0  0  0  0
   -4.0750   -1.8320    2.0388 C   0  0  0  0  0  0  0  0  0  0  0  0
   -5.1729   -1.4950    2.4549 O   0  0  0  0  0  0  0  0  0  0  0  0
   -3.8859   -3.1994    1.7014 C   0  0  0  0  0  0  0  0  0  0  0  0
   -2.6616   -3.6038    1.2325 C   0  0  0  0  0  0  0  0  0  0  0  0
   -1.6725   -2.6564    1.1155 N   0  0  0  0  0  0  0  0  0  0  0  0
   -2.4627   -5.0702    0.8679 C   0  0  0  0  0  0  0  0  0  0  0  0
    3.0834   -0.1439    1.3980 C   0  0  0  0  0  0  0  0  0  0  0  0
    9.1762    0.0662    1.6231 H   0  0  0  0  0  0  0  0  0  0  0  0
    9.3795    1.5468    2.2813 H   0  0  0  0  0  0  0  0  0  0  0  0
    8.6412    2.6177    0.3576 H   0  0  0  0  0  0  0  0  0  0  0  0
    9.4674    1.3624   -0.2813 H   0  0  0  0  0  0  0  0  0  0  0  0
    6.9946    1.5994   -0.9200 H   0  0  0  0  0  0  0  0  0  0  0  0
    7.5416    0.1026   -0.5637 H   0  0  0  0  0  0  0  0  0  0  0  0
    4.9667    2.9664    0.3125 H   0  0  0  0  0  0  0  0  0  0  0  0
    2.5702    2.9606    0.3166 H   0  0  0  0  0  0  0  0  0  0  0  0
    0.5000    1.8659    1.0124 H   0  0  0  0  0  0  0  0  0  0  0  0
   -1.5267    1.8137    1.9725 H   0  0  0  0  0  0  0  0  0  0  0  0
   -4.6330   -3.8562    1.8041 H   0  0  0  0  0  0  0  0  0  0  0  0
   -0.7758   -2.9402    0.7758 H   0  0  0  0  0  0  0  0  0  0  0  0
   -3.3116   -5.5726    1.0322 H   0  0  0  0  0  0  0  0  0  0  0  0
   -2.2141   -5.1427   -0.0980 H   0  0  0  0  0  0  0  0  0  0  0  0
   -1.7320   -5.4573    1.4301 H   0  0  0  0  0  0  0  0  0  0  0  0
    2.5847   -0.9624    1.6830 H   0  0  0  0  0  0  0  0  0  0  0  0
  1  2  1  0  0  0  0
  2  3  1  0  0  0  0
  3  4  1  0  0  0  0
  4  5  1  0  0  0  0
  5  6  2  0  0  0  0
  5  7  1  0  0  0  0
  7  8  1  0  0  0  0
  8  9  1  0  0  0  0
  9  4  1  0  0  0  0
  3 10  2  0  0  0  0
 10 11  1  0  0  0  0
 11 12  2  0  0  0  0
 12 13  1  0  0  0  0
 13 14  1  0  0  0  0
 14 15  2  0  0  0  0
 14 16  1  0  0  0  0
 16 17  2  0  0  0  0
 17 18  1  0  0  0  0
 18 19  1  0  0  0  0
 19 20  2  0  0  0  0
 20 16  1  0  0  0  0
 18 21  1  0  0  0  0
 21 22  2  0  0  0  0
 21 23  1  0  0  0  0
 23 24  2  0  0  0  0
 24 25  1  0  0  0  0
 25 17  1  0  0  0  0
 24 26  1  0  0  0  0
 12 27  1  0  0  0  0
 27  2  2  0  0  0  0
  7 28  1  0  0  0  0
  7 29  1  0  0  0  0
  8 30  1  0  0  0  0
  8 31  1  0  0  0  0
  9 32  1  0  0  0  0
  9 33  1  0  0  0  0
 10 34  1  0  0  0  0
 11 35  1  0  0  0  0
 13 36  1  0  0  0  0
 20 37  1  0  0  0  0
 23 38  1  0  0  0  0
 25 39  1  0  0  0  0
 26 40  1  0  0  0  0
 26 41  1  0  0  0  0
 26 42  1  0  0  0  0
 27 43  1  0  0  0  0
M  END
>  <result-rank>
6

>  <similarity>
0.927

>  <query-name>


>  <query-smiles>
Fc1c(F)ccc(NC(=O)c2nc(cnc2Nc3cncnc3)C4CC4)c1C(=O)N5CCC5

>  <source>
REALspace_2019-12

>  <similarity-descriptor>
0.0;0.998;0.964;0.817;0.954;1.000;0.999;0.954;0.998;0.143

>  <similarity-descriptor-smiles>
;N1CCCC1=O;Fc1ccccc1;C=1C=NNC1;C1NC=CC(N1)=O;N;C=O;C1NC=CC(N1)=O;N1CCCC1=O;C

>  <reaction-name>
s_22

>  <reagent1-name>
4786910

>  <reagent1-smiles>
[R1*]Nc1cc(F)c(N2C(=O)CCC2)cc1

>  <reagent2-name>
14391792

>  <reagent2-smiles>
[R1*]C(=O)C1=C2N=C(C=C(O)N2N=C1)C

$$$$
s_274090____12937272____13778724
          04022017343D 1   1.00000     0.00000     0
            
 44 47  0  0  0  0            999 V2000
    7.6907   -1.5855    1.1238 O   0  0  0  0  0  0  0  0  0  0  0  0
    7.3637   -1.5825    2.2984 C   0  0  0  0  0  0  0  0  0  0  0  0
    6.0631   -1.5265    2.7896 N   0  0  0  0  0  0  0  0  0  0  0  0
    4.9091   -1.4568    1.9996 C   0  0  0  0  0  0  0  0  0  0  0  0
    4.2141   -0.2565    1.8951 C   0  0  0  0  0  0  0  0  0  0  0  0
    3.0698   -0.2074    1.1056 C   0  0  0  0  0  0  0  0  0  0  0  0
    2.3700    1.0000    1.0000 N   0  0  0  0  0  0  0  0  0  0  0  0
    1.0000    1.0000    1.0000 C   0  0  0  0  0  0  0  0  0  0  0  0
    0.4000   -0.0392    1.0000 O   0  0  0  0  0  0  0  0  0  0  0  0
    0.2400    2.3164    1.0000 C   0  0  0  0  0  0  0  0  0  0  0  0
   -0.0050    2.7407   -0.3858 N   0  0  0  0  0  0  0  0  0  0  0  0
   -1.0536    2.4297   -1.1072 N   0  0  0  0  0  0  0  0  0  0  0  0
   -0.9894    2.9399   -2.2607 N   0  0  0  0  0  0  0  0  0  0  0  0
    0.1755    3.6407   -2.3311 C   0  0  0  0  0  0  0  0  0  0  0  0
    0.6527    4.3885   -3.4808 C   0  0  0  0  0  0  0  0  0  0  0  0
    1.8159    5.0584   -3.4665 N   0  0  0  0  0  0  0  0  0  0  0  0
    2.2560    5.7514   -4.5278 C   0  0  0  0  0  0  0  0  0  0  0  0
    1.4845    5.7790   -5.6850 C   0  0  0  0  0  0  0  0  0  0  0  0
    0.3210    5.1118   -5.7071 N   0  0  0  0  0  0  0  0  0  0  0  0
   -0.1132    4.4215   -4.6419 C   0  0  0  0  0  0  0  0  0  0  0  0
    0.8146    3.5223   -1.1351 C   0  0  0  0  0  0  0  0  0  0  0  0
    2.6179   -1.3332    0.4252 C   0  0  0  0  0  0  0  0  0  0  0  0
    3.3287   -2.5226    0.5444 C   0  0  0  0  0  0  0  0  0  0  0  0
    4.4750   -2.5953    1.3282 C   0  0  0  0  0  0  0  0  0  0  0  0
    6.0746   -1.5559    4.2530 C   0  0  0  0  0  0  0  0  0  0  0  0
    7.3936   -2.2320    4.5595 C   0  0  0  0  0  0  0  0  0  0  0  0
    8.2963   -1.6512    3.4903 C   0  0  0  0  0  0  0  0  0  0  0  0
    4.5320    0.5583    2.3798 H   0  0  0  0  0  0  0  0  0  0  0  0
    2.8700    1.8627    0.9245 H   0  0  0  0  0  0  0  0  0  0  0  0
   -0.6338    2.1968    1.4714 H   0  0  0  0  0  0  0  0  0  0  0  0
    0.7804    3.0133    1.4714 H   0  0  0  0  0  0  0  0  0  0  0  0
    3.1267    6.2414   -4.4875 H   0  0  0  0  0  0  0  0  0  0  0  0
    1.7927    6.2886   -6.4883 H   0  0  0  0  0  0  0  0  0  0  0  0
   -0.9844    3.9323   -4.6823 H   0  0  0  0  0  0  0  0  0  0  0  0
    1.6917    3.9216   -0.8680 H   0  0  0  0  0  0  0  0  0  0  0  0
    1.7948   -1.2880   -0.1409 H   0  0  0  0  0  0  0  0  0  0  0  0
    3.0108   -3.3374    0.0596 H   0  0  0  0  0  0  0  0  0  0  0  0
    4.9806   -3.4544    1.4082 H   0  0  0  0  0  0  0  0  0  0  0  0
    5.3056   -2.0866    4.6094 H   0  0  0  0  0  0  0  0  0  0  0  0
    6.0460   -0.6313    4.6329 H   0  0  0  0  0  0  0  0  0  0  0  0
    7.3216   -3.2258    4.4746 H   0  0  0  0  0  0  0  0  0  0  0  0
    7.7180   -1.9984    5.4761 H   0  0  0  0  0  0  0  0  0  0  0  0
    8.6263   -0.7428    3.7469 H   0  0  0  0  0  0  0  0  0  0  0  0
    9.0763   -2.2499    3.3080 H   0  0  0  0  0  0  0  0  0  0  0  0
  1  2  2  0  0  0  0
  2  3  1  0  0  0  0
  3  4  1  0  0  0  0
  4  5  1  0  0  0  0
  5  6  2  0  0  0  0
  6  7  1  0  0  0  0
  7  8  1  0  0  0  0
  8  9  2  0  0  0  0
  8 10  1  0  0  0  0
 10 11  1  0  0  0  0
 11 12  1  0  0  0  0
 12 13  2  0  0  0  0
 13 14  1  0  0  0  0
 14 15  1  0  0  0  0
 15 16  1  0  0  0  0
 16 17  2  0  0  0  0
 17 18  1  0  0  0  0
 18 19  2  0  0  0  0
 19 20  1  0  0  0  0
 20 15  2  0  0  0  0
 14 21  2  0  0  0  0
 21 11  1  0  0  0  0
  6 22  1  0  0  0  0
 22 23  2  0  0  0  0
 23 24  1  0  0  0  0
 24  4  2  0  0  0  0
  3 25  1  0  0  0  0
 25 26  1  0  0  0  0
 26 27  1  0  0  0  0
 27  2  1  0  0  0  0
  5 28  1  0  0  0  0
  7 29  1  0  0  0  0
 10 30  1  0  0  0  0
 10 31  1  0  0  0  0
 17 32  1  0  0  0  0
 18 33  1  0  0  0  0
 20 34  1  0  0  0  0
 21 35  1  0  0  0  0
 22 36  1  0  0  0  0
 23 37  1  0  0  0  0
 24 38  1  0  0  0  0
 25 39  1  0  0  0  0
 25 40  1  0  0  0  0
 26 41  1  0  0  0  0
 26 42  1  0  0  0  0
 27 43  1  0  0  0  0
 27 44  1  0  0  0  0
M  END
>  <result-rank>
7

>  <similarity>
0.926

>  <query-name>


>  <query-smiles>
Fc1c(F)ccc(NC(=O)c2nc(cnc2Nc3cncnc3)C4CC4)c1C(=O)N5CCC5

>  <source>
REALspace_2019-12

>  <similarity-descriptor>
0.0;0.998;0.928;0.891;0.919;1.000;1.000;0.919;0.998;0.0

>  <similarity-descriptor-smiles>
;O=C1CCCN1;c1ccccc1;CN1C=CN=N1;c1cnccn1;N;C=O;c1cnccn1;O=C1CCCN1;

>  <reaction-name>
s_274090

>  <reagent1-name>
12937272

>  <reagent1-smiles>
[R1*]N=NN([R2*])CC(=O)Nc1cc(N2C(=O)CCC2)ccc1

>  <reagent2-name>
13778724

>  <reagent2-smiles>
[R1*]C(c1nccnc1)=C[R2*]

$$$$
s_22____1041906____12335826
          04022017343D 1   1.00000     0.00000     0
            
 56 59  0  0  0  0            999 V2000
   -1.1086    3.3228    3.0798 F   0  0  0  0  0  0  0  0  0  0  0  0
   -1.7820    2.7685    2.0762 C   0  0  0  0  0  0  0  0  0  0  0  0
   -1.0852    2.1862    1.0223 C   0  0  0  0  0  0  0  0  0  0  0  0
    0.3150    2.1862    1.0223 N   0  0  0  0  0  0  0  0  0  0  0  0
    1.0000    1.0000    1.0000 C   0  0  0  0  0  0  0  0  0  0  0  0
    0.4000   -0.0390    0.9804 O   0  0  0  0  0  0  0  0  0  0  0  0
    2.4507    1.0000    1.0000 C   0  0  0  0  0  0  0  0  0  0  0  0
    3.2456    1.5713    0.0522 N   0  0  0  0  0  0  0  0  0  0  0  0
    4.5025    1.3799    0.3742 N   0  0  0  0  0  0  0  0  0  0  0  0
    5.6072    1.8311   -0.3674 C   0  0  0  0  0  0  0  0  0  0  0  0
    5.4419    2.5215   -1.5100 N   0  0  0  0  0  0  0  0  0  0  0  0
    6.4714    2.9687   -2.2506 C   0  0  0  0  0  0  0  0  0  0  0  0
    7.7611    2.6994   -1.8036 C   0  0  0  0  0  0  0  0  0  0  0  0
    7.9534    1.9874   -0.6229 C   0  0  0  0  0  0  0  0  0  0  0  0
    6.8618    1.5805    0.0491 N   0  0  0  0  0  0  0  0  0  0  0  0
    9.3758    1.7046   -0.1511 C   0  0  0  0  0  0  0  0  0  0  0  0
    6.2834    3.7502   -3.5458 C   0  0  0  0  0  0  0  0  0  0  0  0
    4.5746    0.6762    1.5368 C   0  0  0  0  0  0  0  0  0  0  0  0
    5.5892    0.3274    2.1185 O   0  0  0  0  0  0  0  0  0  0  0  0
    3.2489    0.4327    1.9428 C   0  0  0  0  0  0  0  0  0  0  0  0
    2.7968   -0.3180    3.1849 C   0  0  0  0  0  0  0  0  0  0  0  0
    2.6481    0.6579    4.3407 C   0  0  0  0  0  0  0  0  0  0  0  0
    3.8967    1.2846    4.5947 O   0  0  0  0  0  0  0  0  0  0  0  0
   -1.7678    1.6009   -0.0379 C   0  0  0  0  0  0  0  0  0  0  0  0
   -3.1580    1.6094   -0.0237 C   0  0  0  0  0  0  0  0  0  0  0  0
   -3.8599    1.0268   -1.0824 N   0  0  0  0  0  0  0  0  0  0  0  0
   -4.2600    1.6931   -2.2365 C   0  0  0  0  0  0  0  0  0  0  0  0
   -4.0672    2.8695   -2.4928 O   0  0  0  0  0  0  0  0  0  0  0  0
   -4.9887    0.6917   -3.1091 C   0  0  0  0  0  0  0  0  0  0  0  0
   -5.4580   -0.3265   -2.0901 C   0  0  0  0  0  0  0  0  0  0  0  0
   -4.2850   -0.3729   -1.1347 C   0  0  0  0  0  0  0  0  0  0  0  0
   -3.8608    2.1893    1.0266 C   0  0  0  0  0  0  0  0  0  0  0  0
   -3.1730    2.7737    2.0848 C   0  0  0  0  0  0  0  0  0  0  0  0
    0.8150    3.0521    1.0387 H   0  0  0  0  0  0  0  0  0  0  0  0
    2.9225    2.0585   -0.7591 H   0  0  0  0  0  0  0  0  0  0  0  0
    8.5496    3.0173   -2.3301 H   0  0  0  0  0  0  0  0  0  0  0  0
   10.0267    2.0974   -0.8007 H   0  0  0  0  0  0  0  0  0  0  0  0
    9.5157    2.1147    0.7501 H   0  0  0  0  0  0  0  0  0  0  0  0
    9.5176    0.7164   -0.0934 H   0  0  0  0  0  0  0  0  0  0  0  0
    7.1779    3.9814   -3.9284 H   0  0  0  0  0  0  0  0  0  0  0  0
    5.7748    3.1918   -4.2012 H   0  0  0  0  0  0  0  0  0  0  0  0
    5.7742    4.5900   -3.3575 H   0  0  0  0  0  0  0  0  0  0  0  0
    3.4766   -1.0126    3.4205 H   0  0  0  0  0  0  0  0  0  0  0  0
    1.9175   -0.7594    3.0061 H   0  0  0  0  0  0  0  0  0  0  0  0
    1.9683    1.3525    4.1051 H   0  0  0  0  0  0  0  0  0  0  0  0
    2.3506    0.1641    5.1578 H   0  0  0  0  0  0  0  0  0  0  0  0
    3.7989    1.9267    5.3550 H   0  0  0  0  0  0  0  0  0  0  0  0
   -1.2685    1.1818   -0.7962 H   0  0  0  0  0  0  0  0  0  0  0  0
   -4.3732    0.2779   -3.7799 H   0  0  0  0  0  0  0  0  0  0  0  0
   -5.7610    1.1155   -3.5823 H   0  0  0  0  0  0  0  0  0  0  0  0
   -6.2914   -0.0221   -1.6287 H   0  0  0  0  0  0  0  0  0  0  0  0
   -5.6181   -1.2181   -2.5135 H   0  0  0  0  0  0  0  0  0  0  0  0
   -4.5672   -0.6984   -0.2322 H   0  0  0  0  0  0  0  0  0  0  0  0
   -3.5553   -0.9588   -1.4872 H   0  0  0  0  0  0  0  0  0  0  0  0
   -4.8608    2.1862    1.0211 H   0  0  0  0  0  0  0  0  0  0  0  0
   -3.6726    3.1926    2.8430 H   0  0  0  0  0  0  0  0  0  0  0  0
  1  2  1  0  0  0  0
  2  3  1  0  0  0  0
  3  4  1  0  0  0  0
  4  5  1  0  0  0  0
  5  6  2  0  0  0  0
  5  7  1  0  0  0  0
  7  8  1  0  0  0  0
  8  9  1  0  0  0  0
  9 10  1  0  0  0  0
 10 11  1  0  0  0  0
 11 12  2  0  0  0  0
 12 13  1  0  0  0  0
 13 14  2  0  0  0  0
 14 15  1  0  0  0  0
 15 10  2  0  0  0  0
 14 16  1  0  0  0  0
 12 17  1  0  0  0  0
  9 18  1  0  0  0  0
 18 19  2  0  0  0  0
 18 20  1  0  0  0  0
  7 20  2  0  0  0  0
 20 21  1  0  0  0  0
 21 22  1  0  0  0  0
 22 23  1  0  0  0  0
  3 24  2  0  0  0  0
 24 25  1  0  0  0  0
 25 26  1  0  0  0  0
 26 27  1  0  0  0  0
 27 28  2  0  0  0  0
 27 29  1  0  0  0  0
 29 30  1  0  0  0  0
 30 31  1  0  0  0  0
 31 26  1  0  0  0  0
 25 32  2  0  0  0  0
 32 33  1  0  0  0  0
 33  2  2  0  0  0  0
  4 34  1  0  0  0  0
  8 35  1  0  0  0  0
 13 36  1  0  0  0  0
 16 37  1  0  0  0  0
 16 38  1  0  0  0  0
 16 39  1  0  0  0  0
 17 40  1  0  0  0  0
 17 41  1  0  0  0  0
 17 42  1  0  0  0  0
 21 43  1  0  0  0  0
 21 44  1  0  0  0  0
 22 45  1  0  0  0  0
 22 46  1  0  0  0  0
 23 47  1  0  0  0  0
 24 48  1  0  0  0  0
 29 49  1  0  0  0  0
 29 50  1  0  0  0  0
 30 51  1  0  0  0  0
 30 52  1  0  0  0  0
 31 53  1  0  0  0  0
 31 54  1  0  0  0  0
 32 55  1  0  0  0  0
 33 56  1  0  0  0  0
M  END
>  <result-rank>
8

>  <similarity>
0.925

>  <query-name>


>  <query-smiles>
Fc1c(F)ccc(NC(=O)c2nc(cnc2Nc3cncnc3)C4CC4)c1C(=O)N5CCC5

>  <source>
REALspace_2019-12

>  <similarity-descriptor>
0.736;0.998;0.964;0.916;0.902;1.000;0.999;0.916;0.998;0.182

>  <similarity-descriptor-smiles>
CC;N1CCCC1=O;Fc1ccccc1;C1=CC(NN1)=O;c1nccc(n1)C;N;C=O;C1=CC(NN1)=O;N1CCCC1=O;C.O

>  <reaction-name>
s_22

>  <reagent1-name>
1041906

>  <reagent1-smiles>
[R1*]Nc1c(F)ccc(N2C(=O)CCC2)c1

>  <reagent2-name>
12335826

>  <reagent2-smiles>
[R1*]C(=O)C=1NN(c2nc(cc(n2)C)C)C(=O)C1CCO

$$$$
s_22____1041906____13472610
          04022017343D 1   1.00000     0.00000     0
            
 54 58  0  0  0  0            999 V2000
   -1.7779    8.2881    0.9819 F   0  0  0  0  0  0  0  0  0  0  0  0
   -1.1137    7.1352    0.9849 C   0  0  0  0  0  0  0  0  0  0  0  0
    0.2736    7.1003    0.9774 C   0  0  0  0  0  0  0  0  0  0  0  0
    0.9366    8.2505    0.9705 F   0  0  0  0  0  0  0  0  0  0  0  0
    0.9662    5.8965    0.9790 C   0  0  0  0  0  0  0  0  0  0  0  0
    0.2585    4.6974    0.9889 C   0  0  0  0  0  0  0  0  0  0  0  0
   -1.1373    4.6830    1.0001 C   0  0  0  0  0  0  0  0  0  0  0  0
   -1.7776    3.4555    1.0080 N   0  0  0  0  0  0  0  0  0  0  0  0
   -1.0947    2.2675    1.0084 C   0  0  0  0  0  0  0  0  0  0  0  0
    0.2750    2.2557    1.0000 C   0  0  0  0  0  0  0  0  0  0  0  0
    1.0000    1.0000    1.0000 C   0  0  0  0  0  0  0  0  0  0  0  0
    0.4000   -0.0392    1.0000 O   0  0  0  0  0  0  0  0  0  0  0  0
    2.3700    1.0000    1.0000 N   0  0  0  0  0  0  0  0  0  0  0  0
    3.0701   -0.1395    1.4147 C   0  0  0  0  0  0  0  0  0  0  0  0
    3.9398   -0.7803    0.5384 C   0  0  0  0  0  0  0  0  0  0  0  0
    4.0995   -0.3027   -0.6922 F   0  0  0  0  0  0  0  0  0  0  0  0
    4.6400   -1.9127    0.9415 C   0  0  0  0  0  0  0  0  0  0  0  0
    4.4606   -2.3982    2.2324 C   0  0  0  0  0  0  0  0  0  0  0  0
    3.5899   -1.7526    3.1033 C   0  0  0  0  0  0  0  0  0  0  0  0
    3.4192   -2.2486    4.3986 N   0  0  0  0  0  0  0  0  0  0  0  0
    4.1774   -1.8724    5.5030 C   0  0  0  0  0  0  0  0  0  0  0  0
    5.0954   -1.0699    5.5072 O   0  0  0  0  0  0  0  0  0  0  0  0
    3.6603   -2.6516    6.6950 C   0  0  0  0  0  0  0  0  0  0  0  0
    3.0301   -3.8579    6.0293 C   0  0  0  0  0  0  0  0  0  0  0  0
    2.4189   -3.2436    4.7883 C   0  0  0  0  0  0  0  0  0  0  0  0
    2.8873   -0.6205    2.7062 C   0  0  0  0  0  0  0  0  0  0  0  0
    0.9953    3.4794    0.9900 C   0  0  0  0  0  0  0  0  0  0  0  0
    2.2195    3.4388    0.9814 O   0  0  0  0  0  0  0  0  0  0  0  0
   -3.2325    3.2571    1.0218 C   0  0  0  0  0  0  0  0  0  0  0  0
   -3.6548    2.3422    2.1349 C   0  0  0  0  0  0  0  0  0  0  0  0
   -3.6087    1.8347    0.7219 C   0  0  0  0  0  0  0  0  0  0  0  0
   -1.7938    5.9255    0.9967 C   0  0  0  0  0  0  0  0  0  0  0  0
   -3.1373    6.0734    1.0046 O   0  0  0  0  0  0  0  0  0  0  0  0
   -3.8005    6.4747    2.1944 C   0  0  0  0  0  0  0  0  0  0  0  0
    1.9661    5.8909    0.9729 H   0  0  0  0  0  0  0  0  0  0  0  0
   -1.5992    1.4041    1.0149 H   0  0  0  0  0  0  0  0  0  0  0  0
    2.8700    1.8138    0.7038 H   0  0  0  0  0  0  0  0  0  0  0  0
    5.2649   -2.3724    0.3105 H   0  0  0  0  0  0  0  0  0  0  0  0
    4.9578   -3.2117    2.5343 H   0  0  0  0  0  0  0  0  0  0  0  0
    2.9834   -2.1243    7.2085 H   0  0  0  0  0  0  0  0  0  0  0  0
    4.4058   -2.9207    7.3048 H   0  0  0  0  0  0  0  0  0  0  0  0
    3.7178   -4.5448    5.7946 H   0  0  0  0  0  0  0  0  0  0  0  0
    2.3311   -4.2717    6.6126 H   0  0  0  0  0  0  0  0  0  0  0  0
    2.2929   -3.9289    4.0710 H   0  0  0  0  0  0  0  0  0  0  0  0
    1.5410   -2.8114    4.9943 H   0  0  0  0  0  0  0  0  0  0  0  0
    2.2623   -0.1612    3.3374 H   0  0  0  0  0  0  0  0  0  0  0  0
   -3.8368    4.0005    0.7352 H   0  0  0  0  0  0  0  0  0  0  0  0
   -4.5354    2.4797    2.5884 H   0  0  0  0  0  0  0  0  0  0  0  0
   -2.9821    2.0237    2.8028 H   0  0  0  0  0  0  0  0  0  0  0  0
   -2.9053    1.1783    0.4490 H   0  0  0  0  0  0  0  0  0  0  0  0
   -4.4586    1.6343    0.2345 H   0  0  0  0  0  0  0  0  0  0  0  0
   -4.7840    6.5342    2.0239 H   0  0  0  0  0  0  0  0  0  0  0  0
   -3.6271    5.8036    2.9152 H   0  0  0  0  0  0  0  0  0  0  0  0
   -3.4573    7.3689    2.4819 H   0  0  0  0  0  0  0  0  0  0  0  0
  1  2  1  0  0  0  0
  2  3  1  0  0  0  0
  3  4  1  0  0  0  0
  3  5  2  0  0  0  0
  5  6  1  0  0  0  0
  6  7  2  0  0  0  0
  7  8  1  0  0  0  0
  8  9  1  0  0  0  0
  9 10  2  0  0  0  0
 10 11  1  0  0  0  0
 11 12  2  0  0  0  0
 11 13  1  0  0  0  0
 13 14  1  0  0  0  0
 14 15  1  0  0  0  0
 15 16  1  0  0  0  0
 15 17  2  0  0  0  0
 17 18  1  0  0  0  0
 18 19  2  0  0  0  0
 19 20  1  0  0  0  0
 20 21  1  0  0  0  0
 21 22  2  0  0  0  0
 21 23  1  0  0  0  0
 23 24  1  0  0  0  0
 24 25  1  0  0  0  0
 25 20  1  0  0  0  0
 19 26  1  0  0  0  0
 26 14  2  0  0  0  0
 10 27  1  0  0  0  0
 27  6  1  0  0  0  0
 27 28  2  0  0  0  0
  8 29  1  0  0  0  0
 29 30  1  0  0  0  0
 30 31  1  0  0  0  0
 31 29  1  0  0  0  0
  7 32  1  0  0  0  0
 32  2  2  0  0  0  0
 32 33  1  0  0  0  0
 33 34  1  0  0  0  0
  5 35  1  0  0  0  0
  9 36  1  0  0  0  0
 13 37  1  0  0  0  0
 17 38  1  0  0  0  0
 18 39  1  0  0  0  0
 23 40  1  0  0  0  0
 23 41  1  0  0  0  0
 24 42  1  0  0  0  0
 24 43  1  0  0  0  0
 25 44  1  0  0  0  0
 25 45  1  0  0  0  0
 26 46  1  0  0  0  0
 29 47  1  0  0  0  0
 30 48  1  0  0  0  0
 30 49  1  0  0  0  0
 31 50  1  0  0  0  0
 31 51  1  0  0  0  0
 34 52  1  0  0  0  0
 34 53  1  0  0  0  0
 34 54  1  0  0  0  0
M  END
>  <result-rank>
9

>  <similarity>
0.924

>  <query-name>


>  <query-smiles>
Fc1c(F)ccc(NC(=O)c2nc(cnc2Nc3cncnc3)C4CC4)c1C(=O)N5CCC5

>  <source>
REALspace_2019-12

>  <similarity-descriptor>
0.997;0.998;0.964;0.881;0.814;1.000;0.999;0.881;0.998;0.111

>  <similarity-descriptor-smiles>
C1CC1;N1CCCC1=O;c1ccccc1F;c1C(C=CNc1)=O;Fc1c(cccc1F)O;N;C=O;c1C(C=CNc1)=O;N1CCCC1=O;C

>  <reaction-name>
s_22

>  <reagent1-name>
1041906

>  <reagent1-smiles>
[R1*]Nc1c(F)ccc(N2C(=O)CCC2)c1

>  <reagent2-name>
13472610

>  <reagent2-smiles>
[R1*]C(=O)C=1C(=O)c2c(N(C1)C3CC3)c(OC)c(F)c(F)c2

$$$$
s_22____4786910____138341
          04022017343D 1   1.00000     0.00000     0
            
 47 50  0  0  0  0            999 V2000
    3.7829   -2.6772    1.0905 S   0  0  0  0  0  0  0  0  0  0  0  0
    3.7034   -2.1438   -0.5209 C   0  0  0  0  0  0  0  0  0  0  0  0
    3.2738   -0.9015   -0.4934 N   0  0  0  0  0  0  0  0  0  0  0  0
    3.0238   -0.4032    0.7526 C   0  0  0  0  0  0  0  0  0  0  0  0
    3.2437   -1.2285    1.8105 C   0  0  0  0  0  0  0  0  0  0  0  0
    2.5200    1.0000    1.0000 C   0  0  0  0  0  0  0  0  0  0  0  0
    1.0000    1.0000    1.0000 C   0  0  0  0  0  0  0  0  0  0  0  0
    0.4000    1.0000   -0.0392 O   0  0  0  0  0  0  0  0  0  0  0  0
    0.3150    1.0000    2.1865 N   0  0  0  0  0  0  0  0  0  0  0  0
   -1.0214    0.5854    2.2230 C   0  0  0  0  0  0  0  0  0  0  0  0
   -1.8261    0.7726    1.1043 C   0  0  0  0  0  0  0  0  0  0  0  0
   -3.1516    0.3546    1.1570 C   0  0  0  0  0  0  0  0  0  0  0  0
   -3.9337    0.5266    0.0962 F   0  0  0  0  0  0  0  0  0  0  0  0
   -3.6602   -0.2395    2.3067 C   0  0  0  0  0  0  0  0  0  0  0  0
   -4.9960   -0.6540    2.3388 N   0  0  0  0  0  0  0  0  0  0  0  0
   -6.0953    0.1988    2.3610 C   0  0  0  0  0  0  0  0  0  0  0  0
   -6.0617    1.4177    2.3619 O   0  0  0  0  0  0  0  0  0  0  0  0
   -7.3392   -0.6653    2.3959 C   0  0  0  0  0  0  0  0  0  0  0  0
   -6.8087   -1.9515    2.9955 C   0  0  0  0  0  0  0  0  0  0  0  0
   -5.4389   -2.0489    2.3589 C   0  0  0  0  0  0  0  0  0  0  0  0
   -2.8430   -0.4205    3.4177 C   0  0  0  0  0  0  0  0  0  0  0  0
   -1.5155   -0.0070    3.3799 C   0  0  0  0  0  0  0  0  0  0  0  0
    4.0401   -2.9237   -1.6257 N   0  0  0  0  0  0  0  0  0  0  0  0
    3.9422   -2.4014   -2.8884 C   0  0  0  0  0  0  0  0  0  0  0  0
    3.5666   -1.2722   -3.0431 O   0  0  0  0  0  0  0  0  0  0  0  0
    4.2931   -3.2142   -4.0397 C   0  0  0  0  0  0  0  0  0  0  0  0
    4.2226   -2.7046   -5.6641 S   0  0  0  0  0  0  0  0  0  0  0  0
    4.7628   -4.1508   -6.3874 C   0  0  0  0  0  0  0  0  0  0  0  0
    4.9916   -5.0078   -5.3491 C   0  0  0  0  0  0  0  0  0  0  0  0
    4.7338   -4.5024   -4.0419 C   0  0  0  0  0  0  0  0  0  0  0  0
    3.1186   -1.0319    2.7830 H   0  0  0  0  0  0  0  0  0  0  0  0
    2.8533    1.3225    1.8860 H   0  0  0  0  0  0  0  0  0  0  0  0
    2.8533    1.6060    0.2778 H   0  0  0  0  0  0  0  0  0  0  0  0
    0.7698    1.2962    3.0264 H   0  0  0  0  0  0  0  0  0  0  0  0
   -1.4589    1.1994    0.2779 H   0  0  0  0  0  0  0  0  0  0  0  0
   -7.7038   -0.8155    1.4769 H   0  0  0  0  0  0  0  0  0  0  0  0
   -8.0478   -0.2598    2.9734 H   0  0  0  0  0  0  0  0  0  0  0  0
   -6.7436   -1.8892    3.9914 H   0  0  0  0  0  0  0  0  0  0  0  0
   -7.3818   -2.7324    2.7471 H   0  0  0  0  0  0  0  0  0  0  0  0
   -4.8247   -2.6148    2.9089 H   0  0  0  0  0  0  0  0  0  0  0  0
   -5.4969   -2.4226    1.4331 H   0  0  0  0  0  0  0  0  0  0  0  0
   -3.2101   -0.8480    4.2439 H   0  0  0  0  0  0  0  0  0  0  0  0
   -0.9233   -0.1342    4.1756 H   0  0  0  0  0  0  0  0  0  0  0  0
    4.3531   -3.8647   -1.4967 H   0  0  0  0  0  0  0  0  0  0  0  0
    4.8858   -4.3325   -7.3630 H   0  0  0  0  0  0  0  0  0  0  0  0
    5.3222   -5.9397   -5.4981 H   0  0  0  0  0  0  0  0  0  0  0  0
    4.8638   -5.0404   -3.2090 H   0  0  0  0  0  0  0  0  0  0  0  0
  1  2  1  0  0  0  0
  2  3  2  0  0  0  0
  3  4  1  0  0  0  0
  4  5  2  0  0  0  0
  5  1  1  0  0  0  0
  4  6  1  0  0  0  0
  6  7  1  0  0  0  0
  7  8  2  0  0  0  0
  7  9  1  0  0  0  0
  9 10  1  0  0  0  0
 10 11  1  0  0  0  0
 11 12  2  0  0  0  0
 12 13  1  0  0  0  0
 12 14  1  0  0  0  0
 14 15  1  0  0  0  0
 15 16  1  0  0  0  0
 16 17  2  0  0  0  0
 16 18  1  0  0  0  0
 18 19  1  0  0  0  0
 19 20  1  0  0  0  0
 20 15  1  0  0  0  0
 14 21  2  0  0  0  0
 21 22  1  0  0  0  0
 22 10  2  0  0  0  0
  2 23  1  0  0  0  0
 23 24  1  0  0  0  0
 24 25  2  0  0  0  0
 24 26  1  0  0  0  0
 26 27  1  0  0  0  0
 27 28  1  0  0  0  0
 28 29  2  0  0  0  0
 29 30  1  0  0  0  0
 26 30  2  0  0  0  0
  5 31  1  0  0  0  0
  6 32  1  0  0  0  0
  6 33  1  0  0  0  0
  9 34  1  0  0  0  0
 11 35  1  0  0  0  0
 18 36  1  0  0  0  0
 18 37  1  0  0  0  0
 19 38  1  0  0  0  0
 19 39  1  0  0  0  0
 20 40  1  0  0  0  0
 20 41  1  0  0  0  0
 21 42  1  0  0  0  0
 22 43  1  0  0  0  0
 23 44  1  0  0  0  0
 28 45  1  0  0  0  0
 29 46  1  0  0  0  0
 30 47  1  0  0  0  0
M  END
>  <result-rank>
10

>  <similarity>
0.923

>  <query-name>


>  <query-smiles>
Fc1c(F)ccc(NC(=O)c2nc(cnc2Nc3cncnc3)C4CC4)c1C(=O)N5CCC5

>  <source>
REALspace_2019-12

>  <similarity-descriptor>
0.0;0.998;0.964;0.907;0.885;1.000;0.861;0.990;0.998;0.0

>  <similarity-descriptor-smiles>
;N1CCCC1=O;c1cccc(c1)F;S1C=CN=C1;C(=O)C1=CC=CS1;N;CC=O;N;N1CCCC1=O;

>  <reaction-name>
s_22

>  <reagent1-name>
4786910

>  <reagent1-smiles>
[R1*]Nc1cc(F)c(N2C(=O)CCC2)cc1

>  <reagent2-name>
138341

>  <reagent2-smiles>
[R1*]C(=O)CC=1N=C(SC1)NC(=O)C=2SC=CC2

$$$$
s_22____12904808____5728682
          04022017343D 1   1.00000     0.00000     0
            
 45 48  0  0  0  0            999 V2000
    3.1256   -0.3098   -1.3556 F   0  0  0  0  0  0  0  0  0  0  0  0
    3.4509   -0.8722   -0.1951 C   0  0  0  0  0  0  0  0  0  0  0  0
    3.0952   -0.2561    1.0000 C   0  0  0  0  0  0  0  0  0  0  0  0
    3.4307   -0.8375    2.2188 C   0  0  0  0  0  0  0  0  0  0  0  0
    4.1264   -2.0419    2.2277 C   0  0  0  0  0  0  0  0  0  0  0  0
    4.4690   -2.6335    3.4466 N   0  0  0  0  0  0  0  0  0  0  0  0
    5.6519   -2.4007    4.1414 C   0  0  0  0  0  0  0  0  0  0  0  0
    6.5576   -1.6615    3.7948 O   0  0  0  0  0  0  0  0  0  0  0  0
    5.6121   -3.2431    5.4000 C   0  0  0  0  0  0  0  0  0  0  0  0
    4.6512   -4.3464    5.0065 C   0  0  0  0  0  0  0  0  0  0  0  0
    3.6363   -3.5921    4.1746 C   0  0  0  0  0  0  0  0  0  0  0  0
    4.4861   -2.6655    1.0371 C   0  0  0  0  0  0  0  0  0  0  0  0
    4.1460   -2.0771   -0.1767 C   0  0  0  0  0  0  0  0  0  0  0  0
    2.3700    1.0000    1.0000 C   0  0  0  0  0  0  0  0  0  0  0  0
    2.9700    2.0392    1.0000 O   0  0  0  0  0  0  0  0  0  0  0  0
    1.0000    1.0000    1.0000 N   0  0  0  0  0  0  0  0  0  0  0  0
    0.2650    2.2731    1.0000 C   0  0  0  0  0  0  0  0  0  0  0  0
    0.0116    2.7120   -0.4335 C   0  0  0  0  0  0  0  0  0  0  0  0
   -1.0437    2.3940   -1.1471 N   0  0  0  0  0  0  0  0  0  0  0  0
   -0.9160    2.9543   -2.3306 N   0  0  0  0  0  0  0  0  0  0  0  0
    0.2154    3.6291   -2.3895 C   0  0  0  0  0  0  0  0  0  0  0  0
    0.8326    3.4958   -1.1867 N   0  0  0  0  0  0  0  0  0  0  0  0
    2.0459    4.1197   -1.0247 C   0  0  0  0  0  0  0  0  0  0  0  0
    2.6241    4.8572   -2.0270 C   0  0  0  0  0  0  0  0  0  0  0  0
    2.0134    5.0071   -3.2459 N   0  0  0  0  0  0  0  0  0  0  0  0
    0.8032    4.3919   -3.4378 C   0  0  0  0  0  0  0  0  0  0  0  0
    0.2527    4.5193   -4.5196 O   0  0  0  0  0  0  0  0  0  0  0  0
    0.2650   -0.2731    1.0000 C   0  0  0  0  0  0  0  0  0  0  0  0
    3.1747   -0.3947    3.0781 H   0  0  0  0  0  0  0  0  0  0  0  0
    5.2653   -2.7189    6.1778 H   0  0  0  0  0  0  0  0  0  0  0  0
    6.5159   -3.6095    5.6213 H   0  0  0  0  0  0  0  0  0  0  0  0
    5.1097   -5.0535    4.4682 H   0  0  0  0  0  0  0  0  0  0  0  0
    4.2260   -4.7625    5.8102 H   0  0  0  0  0  0  0  0  0  0  0  0
    3.1578   -4.2051    3.5459 H   0  0  0  0  0  0  0  0  0  0  0  0
    2.9703   -3.1238    4.7552 H   0  0  0  0  0  0  0  0  0  0  0  0
    4.9860   -3.5313    1.0538 H   0  0  0  0  0  0  0  0  0  0  0  0
    4.4011   -2.5203   -1.0360 H   0  0  0  0  0  0  0  0  0  0  0  0
    0.8054    2.9700    1.4714 H   0  0  0  0  0  0  0  0  0  0  0  0
   -0.6088    2.1535    1.4714 H   0  0  0  0  0  0  0  0  0  0  0  0
    2.5221    4.0338   -0.1496 H   0  0  0  0  0  0  0  0  0  0  0  0
    3.5089    5.2944   -1.8654 H   0  0  0  0  0  0  0  0  0  0  0  0
    2.4376    5.5481   -3.9721 H   0  0  0  0  0  0  0  0  0  0  0  0
   -0.7182   -0.0903    1.0000 H   0  0  0  0  0  0  0  0  0  0  0  0
    0.5066   -0.7974    0.1835 H   0  0  0  0  0  0  0  0  0  0  0  0
    0.5066   -0.7974    1.8165 H   0  0  0  0  0  0  0  0  0  0  0  0
  1  2  1  0  0  0  0
  2  3  1  0  0  0  0
  3  4  2  0  0  0  0
  4  5  1  0  0  0  0
  5  6  1  0  0  0  0
  6  7  1  0  0  0  0
  7  8  2  0  0  0  0
  7  9  1  0  0  0  0
  9 10  1  0  0  0  0
 10 11  1  0  0  0  0
 11  6  1  0  0  0  0
  5 12  2  0  0  0  0
 12 13  1  0  0  0  0
 13  2  2  0  0  0  0
  3 14  1  0  0  0  0
 14 15  2  0  0  0  0
 14 16  1  0  0  0  0
 16 17  1  0  0  0  0
 17 18  1  0  0  0  0
 18 19  2  0  0  0  0
 19 20  1  0  0  0  0
 20 21  2  0  0  0  0
 21 22  1  0  0  0  0
 22 18  1  0  0  0  0
 22 23  1  0  0  0  0
 23 24  2  0  0  0  0
 24 25  1  0  0  0  0
 25 26  1  0  0  0  0
 26 21  1  0  0  0  0
 26 27  2  0  0  0  0
 16 28  1  0  0  0  0
  4 29  1  0  0  0  0
  9 30  1  0  0  0  0
  9 31  1  0  0  0  0
 10 32  1  0  0  0  0
 10 33  1  0  0  0  0
 11 34  1  0  0  0  0
 11 35  1  0  0  0  0
 12 36  1  0  0  0  0
 13 37  1  0  0  0  0
 17 38  1  0  0  0  0
 17 39  1  0  0  0  0
 23 40  1  0  0  0  0
 24 41  1  0  0  0  0
 25 42  1  0  0  0  0
 28 43  1  0  0  0  0
 28 44  1  0  0  0  0
 28 45  1  0  0  0  0
M  END
>  <result-rank>
11

>  <similarity>
0.922

>  <query-name>


>  <query-smiles>
Fc1c(F)ccc(NC(=O)c2nc(cnc2Nc3cncnc3)C4CC4)c1C(=O)N5CCC5

>  <source>
REALspace_2019-12

>  <similarity-descriptor>
0.0;0.998;0.962;0.882;0.954;0.852;0.852;0.954;0.998;0.125

>  <similarity-descriptor-smiles>
;N1CCCC1=O;Fc1ccccc1;NCC=1NC=NN1;C1C(NC=CN1)=O;C=O;C=O;C1C(NC=CN1)=O;N1CCCC1=O;C

>  <reaction-name>
s_22

>  <reagent1-name>
12904808

>  <reagent1-smiles>
[R1*]N(CC1=NN=C2N1C=CNC2=O)C

>  <reagent2-name>
5728682

>  <reagent2-smiles>
[R1*]C(=O)c1c(F)ccc(N2C(=O)CCC2)c1

$$$$
s_22____1041906____216552
          04022017343D 1   1.00000     0.00000     0
            
 48 52  0  0  0  0            999 V2000
    2.4236   -1.2678    1.6179 F   0  0  0  0  0  0  0  0  0  0  0  0
    3.0970   -0.1616    1.3164 C   0  0  0  0  0  0  0  0  0  0  0  0
    2.4002    1.0000    1.0000 C   0  0  0  0  0  0  0  0  0  0  0  0
    1.0000    1.0000    1.0000 N   0  0  0  0  0  0  0  0  0  0  0  0
    0.3150    2.1864    0.9951 C   0  0  0  0  0  0  0  0  0  0  0  0
    0.8607    3.1958    1.3464 O   0  0  0  0  0  0  0  0  0  0  0  0
   -1.0709    2.2226    0.5650 C   0  0  0  0  0  0  0  0  0  0  0  0
   -2.1018    2.6515    1.4022 C   0  0  0  0  0  0  0  0  0  0  0  0
   -3.3838    2.6554    0.9185 C   0  0  0  0  0  0  0  0  0  0  0  0
   -4.1309    3.1086    1.9164 O   0  0  0  0  0  0  0  0  0  0  0  0
   -3.4763    3.3699    2.9627 N   0  0  0  0  0  0  0  0  0  0  0  0
   -2.2111    3.1202    2.7315 C   0  0  0  0  0  0  0  0  0  0  0  0
   -1.0870    3.3102    3.7401 C   0  0  0  0  0  0  0  0  0  0  0  0
   -3.6133    2.2455   -0.3449 N   0  0  0  0  0  0  0  0  0  0  0  0
   -2.6470    1.8237   -1.1813 C   0  0  0  0  0  0  0  0  0  0  0  0
   -1.3319    1.8049   -0.7350 C   0  0  0  0  0  0  0  0  0  0  0  0
   -2.9108    1.3593   -2.6064 C   0  0  0  0  0  0  0  0  0  0  0  0
   -2.4103    2.3658   -3.6009 C   0  0  0  0  0  0  0  0  0  0  0  0
   -3.8825    2.2478   -3.3284 C   0  0  0  0  0  0  0  0  0  0  0  0
    3.0828    2.1685    0.6814 C   0  0  0  0  0  0  0  0  0  0  0  0
    4.4730    2.1524    0.6851 C   0  0  0  0  0  0  0  0  0  0  0  0
    5.1752    3.3182    0.3655 N   0  0  0  0  0  0  0  0  0  0  0  0
    6.5464    3.4912    0.5228 C   0  0  0  0  0  0  0  0  0  0  0  0
    7.3320    2.6696    0.9661 O   0  0  0  0  0  0  0  0  0  0  0  0
    6.8914    4.8836    0.0441 C   0  0  0  0  0  0  0  0  0  0  0  0
    5.5793    5.6195    0.2002 C   0  0  0  0  0  0  0  0  0  0  0  0
    4.5880    4.5420   -0.1843 C   0  0  0  0  0  0  0  0  0  0  0  0
    5.1758    0.9948    1.0008 C   0  0  0  0  0  0  0  0  0  0  0  0
    4.4880   -0.1715    1.3187 C   0  0  0  0  0  0  0  0  0  0  0  0
    0.5000    0.1340    1.0036 H   0  0  0  0  0  0  0  0  0  0  0  0
   -0.2165    3.0505    3.3220 H   0  0  0  0  0  0  0  0  0  0  0  0
   -1.0491    4.2694    4.0202 H   0  0  0  0  0  0  0  0  0  0  0  0
   -1.2568    2.7356    4.5407 H   0  0  0  0  0  0  0  0  0  0  0  0
   -0.5917    1.4987   -1.3336 H   0  0  0  0  0  0  0  0  0  0  0  0
   -2.8729    0.3844   -2.8254 H   0  0  0  0  0  0  0  0  0  0  0  0
   -2.0380    2.0602   -4.4772 H   0  0  0  0  0  0  0  0  0  0  0  0
   -1.9068    3.1708   -3.2873 H   0  0  0  0  0  0  0  0  0  0  0  0
   -4.3593    2.9741   -2.8332 H   0  0  0  0  0  0  0  0  0  0  0  0
   -4.4905    1.8635   -4.0232 H   0  0  0  0  0  0  0  0  0  0  0  0
    2.5835    3.0045    0.4538 H   0  0  0  0  0  0  0  0  0  0  0  0
    7.1887    4.8740   -0.9106 H   0  0  0  0  0  0  0  0  0  0  0  0
    7.6053    5.2940    0.6115 H   0  0  0  0  0  0  0  0  0  0  0  0
    5.4407    5.9252    1.1421 H   0  0  0  0  0  0  0  0  0  0  0  0
    5.5242    6.4046   -0.4167 H   0  0  0  0  0  0  0  0  0  0  0  0
    3.6917    4.7209    0.2212 H   0  0  0  0  0  0  0  0  0  0  0  0
    4.4976    4.4788   -1.1782 H   0  0  0  0  0  0  0  0  0  0  0  0
    6.1758    1.0010    0.9992 H   0  0  0  0  0  0  0  0  0  0  0  0
    4.9876   -1.0073    1.5463 H   0  0  0  0  0  0  0  0  0  0  0  0
  1  2  1  0  0  0  0
  2  3  1  0  0  0  0
  3  4  1  0  0  0  0
  4  5  1  0  0  0  0
  5  6  2  0  0  0  0
  5  7  1  0  0  0  0
  7  8  1  0  0  0  0
  8  9  2  0  0  0  0
  9 10  1  0  0  0  0
 10 11  1  0  0  0  0
 11 12  2  0  0  0  0
 12  8  1  0  0  0  0
 12 13  1  0  0  0  0
  9 14  1  0  0  0  0
 14 15  2  0  0  0  0
 15 16  1  0  0  0  0
 16  7  2  0  0  0  0
 15 17  1  0  0  0  0
 17 18  1  0  0  0  0
 18 19  1  0  0  0  0
 19 17  1  0  0  0  0
  3 20  2  0  0  0  0
 20 21  1  0  0  0  0
 21 22  1  0  0  0  0
 22 23  1  0  0  0  0
 23 24  2  0  0  0  0
 23 25  1  0  0  0  0
 25 26  1  0  0  0  0
 26 27  1  0  0  0  0
 27 22  1  0  0  0  0
 21 28  2  0  0  0  0
 28 29  1  0  0  0  0
 29  2  2  0  0  0  0
  4 30  1  0  0  0  0
 13 31  1  0  0  0  0
 13 32  1  0  0  0  0
 13 33  1  0  0  0  0
 16 34  1  0  0  0  0
 17 35  1  0  0  0  0
 18 36  1  0  0  0  0
 18 37  1  0  0  0  0
 19 38  1  0  0  0  0
 19 39  1  0  0  0  0
 20 40  1  0  0  0  0
 25 41  1  0  0  0  0
 25 42  1  0  0  0  0
 26 43  1  0  0  0  0
 26 44  1  0  0  0  0
 27 45  1  0  0  0  0
 27 46  1  0  0  0  0
 28 47  1  0  0  0  0
 29 48  1  0  0  0  0
M  END
>  <result-rank>
12

>  <similarity>
0.919

>  <query-name>


>  <query-smiles>
Fc1c(F)ccc(NC(=O)c2nc(cnc2Nc3cncnc3)C4CC4)c1C(=O)N5CCC5

>  <source>
REALspace_2019-12

>  <similarity-descriptor>
1.000;0.998;0.964;0.771;0.845;1.000;1.000;0.771;0.998;0.0

>  <similarity-descriptor-smiles>
C1CC1;N1CCCC1=O;Fc1ccccc1;c1ccncc1;c1C(=NOc1)C;N;C=O;c1ccncc1;N1CCCC1=O;

>  <reaction-name>
s_22

>  <reagent1-name>
1041906

>  <reagent1-smiles>
[R1*]Nc1c(F)ccc(N2C(=O)CCC2)c1

>  <reagent2-name>
216552

>  <reagent2-smiles>
[R1*]C(=O)c1c2c(ON=C2C)nc(c1)C3CC3

$$$$
s_22____1041906____3217104
          04022017343D 1   1.00000     0.00000     0
            
 51 55  0  0  0  0            999 V2000
    9.2560    2.7881   -0.9641 S   0  0  0  0  0  0  0  0  0  0  0  0
    8.0755    2.4321    0.2118 C   0  0  0  0  0  0  0  0  0  0  0  0
    6.8917    1.6191   -0.0057 C   0  0  0  0  0  0  0  0  0  0  0  0
    6.8548    0.3105   -0.0167 N   0  0  0  0  0  0  0  0  0  0  0  0
    5.6111   -0.0447   -0.2467 N   0  0  0  0  0  0  0  0  0  0  0  0
    4.8340    1.0000   -0.3903 C   0  0  0  0  0  0  0  0  0  0  0  0
    3.1233    1.0000   -0.7065 S   0  0  0  0  0  0  0  0  0  0  0  0
    2.5200    1.0000    1.0000 C   0  0  0  0  0  0  0  0  0  0  0  0
    1.0000    1.0000    1.0000 C   0  0  0  0  0  0  0  0  0  0  0  0
    0.4000    1.0000   -0.0392 O   0  0  0  0  0  0  0  0  0  0  0  0
    0.3150    1.0000    2.1865 N   0  0  0  0  0  0  0  0  0  0  0  0
   -1.0852    1.0000    2.1865 C   0  0  0  0  0  0  0  0  0  0  0  0
   -1.7820   -0.0427    2.7884 C   0  0  0  0  0  0  0  0  0  0  0  0
   -1.1086   -1.0357    3.3615 F   0  0  0  0  0  0  0  0  0  0  0  0
   -3.1730   -0.0512    2.7938 C   0  0  0  0  0  0  0  0  0  0  0  0
   -3.8608    0.9958    2.1896 C   0  0  0  0  0  0  0  0  0  0  0  0
   -3.1580    2.0350    1.5900 C   0  0  0  0  0  0  0  0  0  0  0  0
   -3.8599    3.0825    0.9875 N   0  0  0  0  0  0  0  0  0  0  0  0
   -4.2600    4.2490    1.6320 C   0  0  0  0  0  0  0  0  0  0  0  0
   -4.0672    4.5274    2.8034 O   0  0  0  0  0  0  0  0  0  0  0  0
   -4.9887    5.1026    0.6143 C   0  0  0  0  0  0  0  0  0  0  0  0
   -5.4580    4.0645   -0.3844 C   0  0  0  0  0  0  0  0  0  0  0  0
   -4.2850    3.1084   -0.4129 C   0  0  0  0  0  0  0  0  0  0  0  0
   -1.7678    2.0491    1.5812 C   0  0  0  0  0  0  0  0  0  0  0  0
    5.6343    2.0853   -0.2385 N   0  0  0  0  0  0  0  0  0  0  0  0
    5.2207    3.4921   -0.3151 C   0  0  0  0  0  0  0  0  0  0  0  0
    4.6316    3.8226   -1.6560 C   0  0  0  0  0  0  0  0  0  0  0  0
    6.0284    4.2616   -1.3203 C   0  0  0  0  0  0  0  0  0  0  0  0
    8.4576    3.0487    1.3639 C   0  0  0  0  0  0  0  0  0  0  0  0
    9.6776    3.7742    1.2370 C   0  0  0  0  0  0  0  0  0  0  0  0
   10.2760    3.7459    0.0098 C   0  0  0  0  0  0  0  0  0  0  0  0
    2.8533    1.8165    1.4714 H   0  0  0  0  0  0  0  0  0  0  0  0
    2.8533    0.1835    1.4714 H   0  0  0  0  0  0  0  0  0  0  0  0
    0.8150    1.0000    3.0525 H   0  0  0  0  0  0  0  0  0  0  0  0
   -3.6726   -0.8014    3.2270 H   0  0  0  0  0  0  0  0  0  0  0  0
   -4.8608    1.0013    2.1864 H   0  0  0  0  0  0  0  0  0  0  0  0
   -4.3732    5.7655    0.1880 H   0  0  0  0  0  0  0  0  0  0  0  0
   -5.7610    5.5837    1.0292 H   0  0  0  0  0  0  0  0  0  0  0  0
   -6.2914    3.6090   -0.0715 H   0  0  0  0  0  0  0  0  0  0  0  0
   -5.6181    4.4711   -1.2839 H   0  0  0  0  0  0  0  0  0  0  0  0
   -4.5672    2.2000   -0.7213 H   0  0  0  0  0  0  0  0  0  0  0  0
   -3.5553    3.4498   -1.0053 H   0  0  0  0  0  0  0  0  0  0  0  0
   -1.2685    2.7993    1.1479 H   0  0  0  0  0  0  0  0  0  0  0  0
    4.8788    3.9534    0.5037 H   0  0  0  0  0  0  0  0  0  0  0  0
    3.8984    4.4989   -1.7272 H   0  0  0  0  0  0  0  0  0  0  0  0
    4.4834    3.0982   -2.3293 H   0  0  0  0  0  0  0  0  0  0  0  0
    6.8100    3.8294   -1.7699 H   0  0  0  0  0  0  0  0  0  0  0  0
    6.2251    5.2301   -1.1678 H   0  0  0  0  0  0  0  0  0  0  0  0
    7.9343    2.9976    2.2145 H   0  0  0  0  0  0  0  0  0  0  0  0
   10.0741    4.2770    2.0052 H   0  0  0  0  0  0  0  0  0  0  0  0
   11.1297    4.1915   -0.2597 H   0  0  0  0  0  0  0  0  0  0  0  0
  1  2  1  0  0  0  0
  2  3  1  0  0  0  0
  3  4  2  0  0  0  0
  4  5  1  0  0  0  0
  5  6  2  0  0  0  0
  6  7  1  0  0  0  0
  7  8  1  0  0  0  0
  8  9  1  0  0  0  0
  9 10  2  0  0  0  0
  9 11  1  0  0  0  0
 11 12  1  0  0  0  0
 12 13  1  0  0  0  0
 13 14  1  0  0  0  0
 13 15  2  0  0  0  0
 15 16  1  0  0  0  0
 16 17  2  0  0  0  0
 17 18  1  0  0  0  0
 18 19  1  0  0  0  0
 19 20  2  0  0  0  0
 19 21  1  0  0  0  0
 21 22  1  0  0  0  0
 22 23  1  0  0  0  0
 23 18  1  0  0  0  0
 17 24  1  0  0  0  0
 24 12  2  0  0  0  0
  6 25  1  0  0  0  0
 25  3  1  0  0  0  0
 25 26  1  0  0  0  0
 26 27  1  0  0  0  0
 27 28  1  0  0  0  0
 28 26  1  0  0  0  0
  2 29  2  0  0  0  0
 29 30  1  0  0  0  0
 30 31  2  0  0  0  0
 31  1  1  0  0  0  0
  8 32  1  0  0  0  0
  8 33  1  0  0  0  0
 11 34  1  0  0  0  0
 15 35  1  0  0  0  0
 16 36  1  0  0  0  0
 21 37  1  0  0  0  0
 21 38  1  0  0  0  0
 22 39  1  0  0  0  0
 22 40  1  0  0  0  0
 23 41  1  0  0  0  0
 23 42  1  0  0  0  0
 24 43  1  0  0  0  0
 26 44  1  0  0  0  0
 27 45  1  0  0  0  0
 27 46  1  0  0  0  0
 28 47  1  0  0  0  0
 28 48  1  0  0  0  0
 29 49  1  0  0  0  0
 30 50  1  0  0  0  0
 31 51  1  0  0  0  0
M  END
>  <result-rank>
13

>  <similarity>
0.919

>  <query-name>


>  <query-smiles>
Fc1c(F)ccc(NC(=O)c2nc(cnc2Nc3cncnc3)C4CC4)c1C(=O)N5CCC5

>  <source>
REALspace_2019-12

>  <similarity-descriptor>
0.997;0.998;0.964;0.941;0.732;1.000;0.860;0.732;0.998;0.0

>  <similarity-descriptor-smiles>
C1CC1;N1CCCC1=O;c1ccccc1F;C=1NC(=NN1)S;S1C=CC=C1;N;CC=O;S1C=CC=C1;N1CCCC1=O;

>  <reaction-name>
s_22

>  <reagent1-name>
1041906

>  <reagent1-smiles>
[R1*]Nc1c(F)ccc(N2C(=O)CCC2)c1

>  <reagent2-name>
3217104

>  <reagent2-smiles>
[R1*]C(=O)CSC1=NN=C(N1C2CC2)C=3SC=CC3

$$$$
s_11a____15138556____7914494
          04022017343D 1   1.00000     0.00000     0
            
 43 46  0  0  0  0            999 V2000
    2.3256    2.3683   -1.3975 Cl  0  0  0  0  0  0  0  0  0  0  0  0
    3.1672    1.5911   -0.0351 C   0  0  0  0  0  0  0  0  0  0  0  0
    2.4498    1.0000    1.0000 C   0  0  0  0  0  0  0  0  0  0  0  0
    3.1199    0.3962    2.0589 C   0  0  0  0  0  0  0  0  0  0  0  0
    4.5111    0.3902    2.0704 C   0  0  0  0  0  0  0  0  0  0  0  0
    5.1889   -0.2148    3.1322 N   0  0  0  0  0  0  0  0  0  0  0  0
    5.5752    0.4305    4.3028 C   0  0  0  0  0  0  0  0  0  0  0  0
    5.3894    1.6048    4.5733 O   0  0  0  0  0  0  0  0  0  0  0  0
    6.2789   -0.5908    5.1729 C   0  0  0  0  0  0  0  0  0  0  0  0
    6.7560   -1.5985    4.1471 C   0  0  0  0  0  0  0  0  0  0  0  0
    5.5994   -1.6192    3.1710 C   0  0  0  0  0  0  0  0  0  0  0  0
    5.2355    0.9791    1.0390 C   0  0  0  0  0  0  0  0  0  0  0  0
    4.5583    1.5811   -0.0166 C   0  0  0  0  0  0  0  0  0  0  0  0
    1.0000    1.0000    1.0000 C   0  0  0  0  0  0  0  0  0  0  0  0
    0.4000   -0.0392    1.0049 O   0  0  0  0  0  0  0  0  0  0  0  0
    0.3150    2.1864    0.9944 N   0  0  0  0  0  0  0  0  0  0  0  0
   -1.0251    2.2251    1.4099 C   0  0  0  0  0  0  0  0  0  0  0  0
   -1.3906    1.8398    2.6959 C   0  0  0  0  0  0  0  0  0  0  0  0
   -2.6787    1.8869    3.0700 N   0  0  0  0  0  0  0  0  0  0  0  0
   -3.6447    2.2986    2.2336 C   0  0  0  0  0  0  0  0  0  0  0  0
   -3.3115    2.6744    0.9892 N   0  0  0  0  0  0  0  0  0  0  0  0
   -2.0408    2.6500    0.5584 C   0  0  0  0  0  0  0  0  0  0  0  0
   -5.0319    2.3429    2.6569 C   0  0  0  0  0  0  0  0  0  0  0  0
   -5.7169    1.2093    2.8691 N   0  0  0  0  0  0  0  0  0  0  0  0
   -6.9991    1.2321    3.2608 C   0  0  0  0  0  0  0  0  0  0  0  0
   -7.6343    2.4548    3.4515 C   0  0  0  0  0  0  0  0  0  0  0  0
   -6.9075    3.6192    3.2278 C   0  0  0  0  0  0  0  0  0  0  0  0
   -5.6276    3.5314    2.8371 N   0  0  0  0  0  0  0  0  0  0  0  0
    2.6069   -0.0292    2.8044 H   0  0  0  0  0  0  0  0  0  0  0  0
    5.6478   -1.0083    5.8268 H   0  0  0  0  0  0  0  0  0  0  0  0
    7.0469   -0.1817    5.6656 H   0  0  0  0  0  0  0  0  0  0  0  0
    7.6002   -1.2957    3.7047 H   0  0  0  0  0  0  0  0  0  0  0  0
    6.9001   -2.4979    4.5599 H   0  0  0  0  0  0  0  0  0  0  0  0
    5.8941   -1.9342    2.2688 H   0  0  0  0  0  0  0  0  0  0  0  0
    4.8581   -2.2030    3.5021 H   0  0  0  0  0  0  0  0  0  0  0  0
    6.2353    0.9696    1.0562 H   0  0  0  0  0  0  0  0  0  0  0  0
    5.0713    2.0067   -0.7620 H   0  0  0  0  0  0  0  0  0  0  0  0
    0.7698    3.0249    0.6942 H   0  0  0  0  0  0  0  0  0  0  0  0
   -0.6936    1.5278    3.3415 H   0  0  0  0  0  0  0  0  0  0  0  0
   -1.8236    2.9370   -0.3746 H   0  0  0  0  0  0  0  0  0  0  0  0
   -7.4946    0.3772    3.4146 H   0  0  0  0  0  0  0  0  0  0  0  0
   -8.5902    2.4955    3.7424 H   0  0  0  0  0  0  0  0  0  0  0  0
   -7.3354    4.5138    3.3571 H   0  0  0  0  0  0  0  0  0  0  0  0
  1  2  1  0  0  0  0
  2  3  1  0  0  0  0
  3  4  2  0  0  0  0
  4  5  1  0  0  0  0
  5  6  1  0  0  0  0
  6  7  1  0  0  0  0
  7  8  2  0  0  0  0
  7  9  1  0  0  0  0
  9 10  1  0  0  0  0
 10 11  1  0  0  0  0
 11  6  1  0  0  0  0
  5 12  2  0  0  0  0
 12 13  1  0  0  0  0
 13  2  2  0  0  0  0
  3 14  1  0  0  0  0
 14 15  2  0  0  0  0
 14 16  1  0  0  0  0
 16 17  1  0  0  0  0
 17 18  1  0  0  0  0
 18 19  2  0  0  0  0
 19 20  1  0  0  0  0
 20 21  2  0  0  0  0
 21 22  1  0  0  0  0
 22 17  2  0  0  0  0
 20 23  1  0  0  0  0
 23 24  1  0  0  0  0
 24 25  2  0  0  0  0
 25 26  1  0  0  0  0
 26 27  2  0  0  0  0
 27 28  1  0  0  0  0
 28 23  2  0  0  0  0
  4 29  1  0  0  0  0
  9 30  1  0  0  0  0
  9 31  1  0  0  0  0
 10 32  1  0  0  0  0
 10 33  1  0  0  0  0
 11 34  1  0  0  0  0
 11 35  1  0  0  0  0
 12 36  1  0  0  0  0
 13 37  1  0  0  0  0
 16 38  1  0  0  0  0
 18 39  1  0  0  0  0
 22 40  1  0  0  0  0
 25 41  1  0  0  0  0
 26 42  1  0  0  0  0
 27 43  1  0  0  0  0
M  END
>  <result-rank>
14

>  <similarity>
0.918

>  <query-name>


>  <query-smiles>
Fc1c(F)ccc(NC(=O)c2nc(cnc2Nc3cncnc3)C4CC4)c1C(=O)N5CCC5

>  <source>
REALspace_2019-12

>  <similarity-descriptor>
0.0;0.998;0.882;0.906;0.998;0.882;0.852;0.906;0.998;0.0

>  <similarity-descriptor-smiles>
;N1CCCC1=O;Clc1ccccc1;c1cncnc1;c1ncccn1;Clc1ccccc1;C(=O)N;c1cncnc1;N1CCCC1=O;

>  <reaction-name>
s_11a

>  <reagent1-name>
15138556

>  <reagent1-smiles>
[R1*]Nc1cnc(nc1)c2ncccn2

>  <reagent2-name>
7914494

>  <reagent2-smiles>
[R1*]C(=O)c1c(Cl)ccc(N2C(=O)CCC2)c1

$$$$
s_22____4786910____4639480
          04022017343D 1   1.00000     0.00000     0
            
 45 48  0  0  0  0            999 V2000
    0.8353    5.6878    1.8009 F   0  0  0  0  0  0  0  0  0  0  0  0
    0.2343    4.5695    1.4078 C   0  0  0  0  0  0  0  0  0  0  0  0
   -1.0928    4.6019    0.9940 C   0  0  0  0  0  0  0  0  0  0  0  0
   -1.7884    5.8156    0.9940 N   0  0  0  0  0  0  0  0  0  0  0  0
   -2.1862    6.5083    2.1333 C   0  0  0  0  0  0  0  0  0  0  0  0
   -1.9969    6.1652    3.2879 O   0  0  0  0  0  0  0  0  0  0  0  0
   -2.9072    7.7595    1.6750 C   0  0  0  0  0  0  0  0  0  0  0  0
   -3.3769    7.3595    0.2913 C   0  0  0  0  0  0  0  0  0  0  0  0
   -2.2079    6.5380   -0.2080 C   0  0  0  0  0  0  0  0  0  0  0  0
   -1.7232    3.4324    0.5820 C   0  0  0  0  0  0  0  0  0  0  0  0
   -1.0265    2.2285    0.5836 C   0  0  0  0  0  0  0  0  0  0  0  0
    0.3002    2.2122    1.0000 C   0  0  0  0  0  0  0  0  0  0  0  0
    1.0000    1.0000    1.0000 N   0  0  0  0  0  0  0  0  0  0  0  0
    2.3700    1.0000    1.0000 C   0  0  0  0  0  0  0  0  0  0  0  0
    2.9700    1.9766    0.6446 O   0  0  0  0  0  0  0  0  0  0  0  0
    3.0954   -0.1807    1.4297 C   0  0  0  0  0  0  0  0  0  0  0  0
    3.9975   -0.1640    2.5310 C   0  0  0  0  0  0  0  0  0  0  0  0
    4.6649   -1.3299    2.8965 C   0  0  0  0  0  0  0  0  0  0  0  0
    4.4446   -2.4844    2.1902 N   0  0  0  0  0  0  0  0  0  0  0  0
    3.5774   -2.5065    1.1282 C   0  0  0  0  0  0  0  0  0  0  0  0
    3.3818   -3.5307    0.4994 O   0  0  0  0  0  0  0  0  0  0  0  0
    2.8796   -1.3367    0.7274 C   0  0  0  0  0  0  0  0  0  0  0  0
    5.5491   -1.3297    3.9702 C   0  0  0  0  0  0  0  0  0  0  0  0
    5.7842   -0.1688    4.6988 C   0  0  0  0  0  0  0  0  0  0  0  0
    5.1200    0.9983    4.3374 C   0  0  0  0  0  0  0  0  0  0  0  0
    5.3150    2.1967    5.0310 N   0  3  0  0  0  0  0  0  0  0  0  0
    6.4286    2.4973    5.4283 O   0  5  0  0  0  0  0  0  0  0  0  0
    4.3792    2.9356    5.2372 O   0  0  0  0  0  0  0  0  0  0  0  0
    4.2380    0.9947    3.2654 C   0  0  0  0  0  0  0  0  0  0  0  0
    0.9439    3.3733    1.4142 C   0  0  0  0  0  0  0  0  0  0  0  0
   -2.2872    8.5432    1.6364 H   0  0  0  0  0  0  0  0  0  0  0  0
   -3.6791    7.9743    2.2733 H   0  0  0  0  0  0  0  0  0  0  0  0
   -4.2135    6.8133    0.3346 H   0  0  0  0  0  0  0  0  0  0  0  0
   -3.5317    8.1610   -0.2864 H   0  0  0  0  0  0  0  0  0  0  0  0
   -2.4926    5.9055   -0.9283 H   0  0  0  0  0  0  0  0  0  0  0  0
   -1.4744    7.1250   -0.5507 H   0  0  0  0  0  0  0  0  0  0  0  0
   -2.6777    3.4571    0.2846 H   0  0  0  0  0  0  0  0  0  0  0  0
   -1.4744    1.3845    0.2887 H   0  0  0  0  0  0  0  0  0  0  0  0
    0.5000    0.1340    1.0000 H   0  0  0  0  0  0  0  0  0  0  0  0
    4.9233   -3.3221    2.4532 H   0  0  0  0  0  0  0  0  0  0  0  0
    2.2474   -1.3562   -0.0471 H   0  0  0  0  0  0  0  0  0  0  0  0
    6.0215   -2.1746    4.2213 H   0  0  0  0  0  0  0  0  0  0  0  0
    6.4206   -0.1732    5.4701 H   0  0  0  0  0  0  0  0  0  0  0  0
    3.7662    1.8404    3.0156 H   0  0  0  0  0  0  0  0  0  0  0  0
    1.8986    3.3486    1.7110 H   0  0  0  0  0  0  0  0  0  0  0  0
  1  2  1  0  0  0  0
  2  3  1  0  0  0  0
  3  4  1  0  0  0  0
  4  5  1  0  0  0  0
  5  6  2  0  0  0  0
  5  7  1  0  0  0  0
  7  8  1  0  0  0  0
  8  9  1  0  0  0  0
  9  4  1  0  0  0  0
  3 10  2  0  0  0  0
 10 11  1  0  0  0  0
 11 12  2  0  0  0  0
 12 13  1  0  0  0  0
 13 14  1  0  0  0  0
 14 15  2  0  0  0  0
 14 16  1  0  0  0  0
 16 17  1  0  0  0  0
 17 18  1  0  0  0  0
 18 19  1  0  0  0  0
 19 20  1  0  0  0  0
 20 21  2  0  0  0  0
 20 22  1  0  0  0  0
 16 22  2  0  0  0  0
 18 23  2  0  0  0  0
 23 24  1  0  0  0  0
 24 25  2  0  0  0  0
 25 26  1  0  0  0  0
 26 27  1  0  0  0  0
 26 28  2  0  0  0  0
 25 29  1  0  0  0  0
 29 17  2  0  0  0  0
 12 30  1  0  0  0  0
 30  2  2  0  0  0  0
  7 31  1  0  0  0  0
  7 32  1  0  0  0  0
  8 33  1  0  0  0  0
  8 34  1  0  0  0  0
  9 35  1  0  0  0  0
  9 36  1  0  0  0  0
 10 37  1  0  0  0  0
 11 38  1  0  0  0  0
 13 39  1  0  0  0  0
 19 40  1  0  0  0  0
 22 41  1  0  0  0  0
 23 42  1  0  0  0  0
 24 43  1  0  0  0  0
 29 44  1  0  0  0  0
 30 45  1  0  0  0  0
M  CHG  2  26   1  27  -1
M  END
>  <result-rank>
15

>  <similarity>
0.918

>  <query-name>


>  <query-smiles>
Fc1c(F)ccc(NC(=O)c2nc(cnc2Nc3cncnc3)C4CC4)c1C(=O)N5CCC5

>  <source>
REALspace_2019-12

>  <similarity-descriptor>
0.0;0.998;0.964;0.924;0.820;1.000;0.999;0.924;0.998;0.0

>  <similarity-descriptor-smiles>
;N1CCCC1=O;Fc1ccccc1;C1=CC(Ncc1)=O;c1cc(ccc1)[N+]([O-])=O;N;C=O;C1=CC(Ncc1)=O;N1CCCC1=O;

>  <reaction-name>
s_22

>  <reagent1-name>
4786910

>  <reagent1-smiles>
[R1*]Nc1cc(F)c(N2C(=O)CCC2)cc1

>  <reagent2-name>
4639480

>  <reagent2-smiles>
[R1*]C(=O)C=1c2c(NC(=O)C1)ccc([N+]([O-])=O)c2

$$$$
s_22____4786910____5357344
          04022017343D 1   1.00000     0.00000     0
            
 49 52  0  0  0  0            999 V2000
    3.3287    3.5724    2.4687 S   0  0  0  0  0  0  0  0  0  0  0  0
    4.2262    2.1265    2.4440 C   0  0  0  0  0  0  0  0  0  0  0  0
    3.3528    1.1511    2.4644 N   0  0  0  0  0  0  0  0  0  0  0  0
    2.0377    1.5325    2.4911 C   0  0  0  0  0  0  0  0  0  0  0  0
    0.9190    0.6236    2.5168 C   0  0  0  0  0  0  0  0  0  0  0  0
    0.9412   -0.3742    1.8506 O   0  0  0  0  0  0  0  0  0  0  0  0
   -0.1695    0.8990    3.3019 N   0  0  0  0  0  0  0  0  0  0  0  0
   -1.3983    0.2843    3.0350 C   0  0  0  0  0  0  0  0  0  0  0  0
   -1.7172   -0.0677    1.7278 C   0  0  0  0  0  0  0  0  0  0  0  0
   -2.9421   -0.6780    1.4799 C   0  0  0  0  0  0  0  0  0  0  0  0
   -3.2616   -1.0203    0.2360 F   0  0  0  0  0  0  0  0  0  0  0  0
   -3.8290   -0.9314    2.5204 C   0  0  0  0  0  0  0  0  0  0  0  0
   -5.0556   -1.5474    2.2498 N   0  0  0  0  0  0  0  0  0  0  0  0
   -6.1128   -0.9536    1.5672 C   0  0  0  0  0  0  0  0  0  0  0  0
   -6.1326    0.1779    1.1135 O   0  0  0  0  0  0  0  0  0  0  0  0
   -7.2372   -1.9669    1.5023 C   0  0  0  0  0  0  0  0  0  0  0  0
   -6.9260   -2.8545    2.6901 C   0  0  0  0  0  0  0  0  0  0  0  0
   -5.4140   -2.9093    2.6490 C   0  0  0  0  0  0  0  0  0  0  0  0
   -3.4960   -0.5741    3.8228 C   0  0  0  0  0  0  0  0  0  0  0  0
   -2.2748    0.0376    4.0860 C   0  0  0  0  0  0  0  0  0  0  0  0
    1.7793    2.8660    2.4982 C   0  0  0  0  0  0  0  0  0  0  0  0
    5.6199    2.0170    2.4168 N   0  0  0  0  0  0  0  0  0  0  0  0
    6.2225    0.7536    2.3987 C   0  0  0  0  0  0  0  0  0  0  0  0
    7.3691    0.5377    3.1565 C   0  0  0  0  0  0  0  0  0  0  0  0
    7.9677   -0.7180    3.1387 C   0  0  0  0  0  0  0  0  0  0  0  0
    7.4192   -1.7389    2.3696 C   0  0  0  0  0  0  0  0  0  0  0  0
    8.0002   -2.9572    2.3525 O   0  0  0  0  0  0  0  0  0  0  0  0
    9.4156   -3.0682    2.3249 C   0  0  0  0  0  0  0  0  0  0  0  0
    6.2726   -1.5232    1.6117 C   0  0  0  0  0  0  0  0  0  0  0  0
    5.6742   -0.2674    1.6294 C   0  0  0  0  0  0  0  0  0  0  0  0
   -0.0860    1.5392    4.0655 H   0  0  0  0  0  0  0  0  0  0  0  0
   -1.0781    0.1146    0.9806 H   0  0  0  0  0  0  0  0  0  0  0  0
   -7.2129   -2.4831    0.6462 H   0  0  0  0  0  0  0  0  0  0  0  0
   -8.1297   -1.5268    1.6010 H   0  0  0  0  0  0  0  0  0  0  0  0
   -7.2524   -2.4481    3.5436 H   0  0  0  0  0  0  0  0  0  0  0  0
   -7.3263   -3.7641    2.5796 H   0  0  0  0  0  0  0  0  0  0  0  0
   -5.0363   -3.1333    3.5474 H   0  0  0  0  0  0  0  0  0  0  0  0
   -5.0952   -3.5780    1.9773 H   0  0  0  0  0  0  0  0  0  0  0  0
   -4.1348   -0.7570    4.5702 H   0  0  0  0  0  0  0  0  0  0  0  0
   -2.0300    0.2970    5.0202 H   0  0  0  0  0  0  0  0  0  0  0  0
    0.8906    3.3240    2.5164 H   0  0  0  0  0  0  0  0  0  0  0  0
    6.1861    2.8412    2.4104 H   0  0  0  0  0  0  0  0  0  0  0  0
    7.7582    1.2761    3.7074 H   0  0  0  0  0  0  0  0  0  0  0  0
    8.7923   -0.8866    3.6788 H   0  0  0  0  0  0  0  0  0  0  0  0
    9.6741   -4.0342    2.3152 H   0  0  0  0  0  0  0  0  0  0  0  0
    9.7691   -2.6203    1.5037 H   0  0  0  0  0  0  0  0  0  0  0  0
    9.8003   -2.6283    3.1364 H   0  0  0  0  0  0  0  0  0  0  0  0
    5.8834   -2.2617    1.0611 H   0  0  0  0  0  0  0  0  0  0  0  0
    4.8498   -0.0987    1.0891 H   0  0  0  0  0  0  0  0  0  0  0  0
  1  2  1  0  0  0  0
  2  3  2  0  0  0  0
  3  4  1  0  0  0  0
  4  5  1  0  0  0  0
  5  6  2  0  0  0  0
  5  7  1  0  0  0  0
  7  8  1  0  0  0  0
  8  9  1  0  0  0  0
  9 10  2  0  0  0  0
 10 11  1  0  0  0  0
 10 12  1  0  0  0  0
 12 13  1  0  0  0  0
 13 14  1  0  0  0  0
 14 15  2  0  0  0  0
 14 16  1  0  0  0  0
 16 17  1  0  0  0  0
 17 18  1  0  0  0  0
 18 13  1  0  0  0  0
 12 19  2  0  0  0  0
 19 20  1  0  0  0  0
 20  8  2  0  0  0  0
  4 21  2  0  0  0  0
 21  1  1  0  0  0  0
  2 22  1  0  0  0  0
 22 23  1  0  0  0  0
 23 24  1  0  0  0  0
 24 25  2  0  0  0  0
 25 26  1  0  0  0  0
 26 27  1  0  0  0  0
 27 28  1  0  0  0  0
 26 29  2  0  0  0  0
 29 30  1  0  0  0  0
 30 23  2  0  0  0  0
  7 31  1  0  0  0  0
  9 32  1  0  0  0  0
 16 33  1  0  0  0  0
 16 34  1  0  0  0  0
 17 35  1  0  0  0  0
 17 36  1  0  0  0  0
 18 37  1  0  0  0  0
 18 38  1  0  0  0  0
 19 39  1  0  0  0  0
 20 40  1  0  0  0  0
 21 41  1  0  0  0  0
 22 42  1  0  0  0  0
 24 43  1  0  0  0  0
 25 44  1  0  0  0  0
 28 45  1  0  0  0  0
 28 46  1  0  0  0  0
 28 47  1  0  0  0  0
 29 48  1  0  0  0  0
 30 49  1  0  0  0  0
M  END
>  <result-rank>
16

>  <similarity>
0.918

>  <query-name>


>  <query-smiles>
Fc1c(F)ccc(NC(=O)c2nc(cnc2Nc3cncnc3)C4CC4)c1C(=O)N5CCC5

>  <source>
REALspace_2019-12

>  <similarity-descriptor>
0.0;0.998;0.964;0.907;0.836;1.000;0.999;1.000;0.998;0.111

>  <similarity-descriptor-smiles>
;N1CCCC1=O;c1cccc(c1)F;S1C=CN=C1;c1ccc(cc1)O;N;C=O;N;N1CCCC1=O;C

>  <reaction-name>
s_22

>  <reagent1-name>
4786910

>  <reagent1-smiles>
[R1*]Nc1cc(F)c(N2C(=O)CCC2)cc1

>  <reagent2-name>
5357344

>  <reagent2-smiles>
[R1*]C(=O)C=1N=C(SC1)Nc2ccc(OC)cc2

$$$$
s_22____736750____2517390
          04022017343D 1   1.00000     0.00000     0
            
 44 47  0  0  0  0            999 V2000
   -2.1507    1.0000    3.5490 S   0  0  0  0  0  0  0  0  0  0  0  0
   -3.6042    1.0004    2.6646 C   0  0  0  0  0  0  0  0  0  0  0  0
   -3.2954    1.0036    1.3885 N   0  0  0  0  0  0  0  0  0  0  0  0
   -1.9561    0.9998    1.1070 C   0  0  0  0  0  0  0  0  0  0  0  0
   -1.1332    1.0000    2.1865 C   0  0  0  0  0  0  0  0  0  0  0  0
    0.3150    1.0000    2.1865 C   0  0  0  0  0  0  0  0  0  0  0  0
    0.9150    1.0000    3.2257 O   0  0  0  0  0  0  0  0  0  0  0  0
    1.0000    1.0000    1.0000 N   0  0  0  0  0  0  0  0  0  0  0  0
    2.4700    1.0000    1.0000 C   0  0  0  0  0  0  0  0  0  0  0  0
    2.9767   -0.4332    1.0000 C   0  0  0  0  0  0  0  0  0  0  0  0
    3.2034   -1.0744   -0.2132 C   0  0  0  0  0  0  0  0  0  0  0  0
    3.6674   -2.3856   -0.2072 C   0  0  0  0  0  0  0  0  0  0  0  0
    3.8991   -3.0403   -1.4199 N   0  0  0  0  0  0  0  0  0  0  0  0
    2.9564   -3.7942   -2.1120 C   0  0  0  0  0  0  0  0  0  0  0  0
    1.8049   -4.0000   -1.7679 O   0  0  0  0  0  0  0  0  0  0  0  0
    3.6274   -4.3213   -3.3639 C   0  0  0  0  0  0  0  0  0  0  0  0
    5.0889   -4.3040   -2.9652 C   0  0  0  0  0  0  0  0  0  0  0  0
    5.1715   -3.0357   -2.1434 C   0  0  0  0  0  0  0  0  0  0  0  0
    3.9052   -3.0570    0.9872 C   0  0  0  0  0  0  0  0  0  0  0  0
    3.6716   -2.3961    2.1881 C   0  0  0  0  0  0  0  0  0  0  0  0
    3.2078   -1.0845    2.2070 C   0  0  0  0  0  0  0  0  0  0  0  0
   -4.9294    1.0050    3.2528 C   0  0  0  0  0  0  0  0  0  0  0  0
   -5.0843    1.0023    4.5853 N   0  0  0  0  0  0  0  0  0  0  0  0
   -6.3024    1.0069    5.1458 C   0  0  0  0  0  0  0  0  0  0  0  0
   -7.4300    1.0144    4.3315 C   0  0  0  0  0  0  0  0  0  0  0  0
   -7.2495    1.0184    2.9525 C   0  0  0  0  0  0  0  0  0  0  0  0
   -6.0054    1.0136    2.4516 N   0  0  0  0  0  0  0  0  0  0  0  0
   -1.6075    0.9972    0.1697 H   0  0  0  0  0  0  0  0  0  0  0  0
    0.5000    1.0000    0.1340 H   0  0  0  0  0  0  0  0  0  0  0  0
    2.8033    1.4714    1.8165 H   0  0  0  0  0  0  0  0  0  0  0  0
    2.8033    1.4714    0.1835 H   0  0  0  0  0  0  0  0  0  0  0  0
    3.0353   -0.5997   -1.0772 H   0  0  0  0  0  0  0  0  0  0  0  0
    3.4568   -3.7236   -4.1472 H   0  0  0  0  0  0  0  0  0  0  0  0
    3.3198   -5.2483   -3.5787 H   0  0  0  0  0  0  0  0  0  0  0  0
    5.3269   -5.1075   -2.4194 H   0  0  0  0  0  0  0  0  0  0  0  0
    5.6845   -4.2575   -3.7672 H   0  0  0  0  0  0  0  0  0  0  0  0
    5.9461   -3.0647   -1.5116 H   0  0  0  0  0  0  0  0  0  0  0  0
    5.2501   -2.2298   -2.7302 H   0  0  0  0  0  0  0  0  0  0  0  0
    4.2387   -3.9997    0.9825 H   0  0  0  0  0  0  0  0  0  0  0  0
    3.8396   -2.8711    3.0519 H   0  0  0  0  0  0  0  0  0  0  0  0
    3.0430   -0.6169    3.0755 H   0  0  0  0  0  0  0  0  0  0  0  0
   -6.3994    1.0049    6.1411 H   0  0  0  0  0  0  0  0  0  0  0  0
   -8.3481    1.0170    4.7279 H   0  0  0  0  0  0  0  0  0  0  0  0
   -8.0400    1.0248    2.3401 H   0  0  0  0  0  0  0  0  0  0  0  0
  1  2  1  0  0  0  0
  2  3  2  0  0  0  0
  3  4  1  0  0  0  0
  4  5  2  0  0  0  0
  5  1  1  0  0  0  0
  5  6  1  0  0  0  0
  6  7  2  0  0  0  0
  6  8  1  0  0  0  0
  8  9  1  0  0  0  0
  9 10  1  0  0  0  0
 10 11  1  0  0  0  0
 11 12  2  0  0  0  0
 12 13  1  0  0  0  0
 13 14  1  0  0  0  0
 14 15  2  0  0  0  0
 14 16  1  0  0  0  0
 16 17  1  0  0  0  0
 17 18  1  0  0  0  0
 18 13  1  0  0  0  0
 12 19  1  0  0  0  0
 19 20  2  0  0  0  0
 20 21  1  0  0  0  0
 21 10  2  0  0  0  0
  2 22  1  0  0  0  0
 22 23  1  0  0  0  0
 23 24  2  0  0  0  0
 24 25  1  0  0  0  0
 25 26  2  0  0  0  0
 26 27  1  0  0  0  0
 27 22  2  0  0  0  0
  4 28  1  0  0  0  0
  8 29  1  0  0  0  0
  9 30  1  0  0  0  0
  9 31  1  0  0  0  0
 11 32  1  0  0  0  0
 16 33  1  0  0  0  0
 16 34  1  0  0  0  0
 17 35  1  0  0  0  0
 17 36  1  0  0  0  0
 18 37  1  0  0  0  0
 18 38  1  0  0  0  0
 19 39  1  0  0  0  0
 20 40  1  0  0  0  0
 21 41  1  0  0  0  0
 24 42  1  0  0  0  0
 25 43  1  0  0  0  0
 26 44  1  0  0  0  0
M  END
>  <result-rank>
17

>  <similarity>
0.918

>  <query-name>


>  <query-smiles>
Fc1c(F)ccc(NC(=O)c2nc(cnc2Nc3cncnc3)C4CC4)c1C(=O)N5CCC5

>  <source>
REALspace_2019-12

>  <similarity-descriptor>
0.0;0.998;0.882;0.908;0.919;1.000;0.999;0.919;0.998;0.0

>  <similarity-descriptor-smiles>
;N1CCCC1=O;Cc1ccccc1;S1C=CN=C1;c1ncccn1;N;C=O;c1ncccn1;N1CCCC1=O;

>  <reaction-name>
s_22

>  <reagent1-name>
736750

>  <reagent1-smiles>
[R1*]NCc1cc(N2C(=O)CCC2)ccc1

>  <reagent2-name>
2517390

>  <reagent2-smiles>
[R1*]C(=O)C=1SC(=NC1)c2ncccn2

$$$$
s_22____14942836____6402668
          04022017343D 1   1.00000     0.00000     0
            
 44 47  0  0  0  0            999 V2000
    6.5153   -2.1891    1.8217 Br  0  0  0  0  0  0  0  0  0  0  0  0
    4.9074   -1.6628    0.8333 C   0  0  0  0  0  0  0  0  0  0  0  0
    4.4854   -2.4069   -0.2674 C   0  0  0  0  0  0  0  0  0  0  0  0
    5.0674   -3.5065   -0.7881 O   0  0  0  0  0  0  0  0  0  0  0  0
    5.8425   -3.2934   -1.9582 C   0  0  0  0  0  0  0  0  0  0  0  0
    4.9537   -3.5544   -3.1628 C   0  0  0  0  0  0  0  0  0  0  0  0
    3.7622   -2.6064   -3.1843 C   0  0  0  0  0  0  0  0  0  0  0  0
    3.0097   -2.7816   -1.9941 O   0  0  0  0  0  0  0  0  0  0  0  0
    3.3455   -2.0124   -0.9390 C   0  0  0  0  0  0  0  0  0  0  0  0
    2.6479   -0.8863   -0.5105 C   0  0  0  0  0  0  0  0  0  0  0  0
    3.0710   -0.1409    0.5847 C   0  0  0  0  0  0  0  0  0  0  0  0
    2.3700    1.0000    1.0000 N   0  0  0  0  0  0  0  0  0  0  0  0
    1.0000    1.0000    1.0000 C   0  0  0  0  0  0  0  0  0  0  0  0
    0.4000   -0.0392    1.0000 O   0  0  0  0  0  0  0  0  0  0  0  0
    0.2746    2.2565    1.0000 C   0  0  0  0  0  0  0  0  0  0  0  0
    0.1044    2.9782   -0.2109 C   0  0  0  0  0  0  0  0  0  0  0  0
    0.5575    2.5654   -1.2664 O   0  0  0  0  0  0  0  0  0  0  0  0
   -0.5854    4.1618   -0.1774 N   0  0  0  0  0  0  0  0  0  0  0  0
   -1.1023    4.6443    0.9966 C   0  0  0  0  0  0  0  0  0  0  0  0
   -0.9414    3.9683    2.1204 N   0  0  0  0  0  0  0  0  0  0  0  0
   -0.2608    2.7789    2.1488 C   0  0  0  0  0  0  0  0  0  0  0  0
   -0.1020    2.0392    3.4679 C   0  0  0  0  0  0  0  0  0  0  0  0
   -1.8223    5.9022    0.9721 C   0  0  0  0  0  0  0  0  0  0  0  0
   -2.6866    6.3182    1.8746 O   0  0  0  0  0  0  0  0  0  0  0  0
   -3.1670    7.4963    1.5479 C   0  0  0  0  0  0  0  0  0  0  0  0
   -2.5908    7.8720    0.3716 C   0  0  0  0  0  0  0  0  0  0  0  0
   -1.7095    6.8361   -0.0142 C   0  0  0  0  0  0  0  0  0  0  0  0
    4.2174   -0.5350    1.2666 C   0  0  0  0  0  0  0  0  0  0  0  0
    6.6213   -3.9206   -1.9686 H   0  0  0  0  0  0  0  0  0  0  0  0
    6.1739   -2.3501   -1.9789 H   0  0  0  0  0  0  0  0  0  0  0  0
    4.6203   -4.4964   -3.1240 H   0  0  0  0  0  0  0  0  0  0  0  0
    5.4890   -3.4244   -3.9974 H   0  0  0  0  0  0  0  0  0  0  0  0
    4.0864   -1.6620   -3.2399 H   0  0  0  0  0  0  0  0  0  0  0  0
    3.1873   -2.8087   -3.9771 H   0  0  0  0  0  0  0  0  0  0  0  0
    1.8231   -0.6067   -1.0020 H   0  0  0  0  0  0  0  0  0  0  0  0
    2.8700    1.8138    1.2962 H   0  0  0  0  0  0  0  0  0  0  0  0
   -0.7136    4.6813   -1.0222 H   0  0  0  0  0  0  0  0  0  0  0  0
    0.4149    1.1965    3.3174 H   0  0  0  0  0  0  0  0  0  0  0  0
    0.3883    2.6193    4.1184 H   0  0  0  0  0  0  0  0  0  0  0  0
   -1.0047    1.8155    3.8354 H   0  0  0  0  0  0  0  0  0  0  0  0
   -3.8370    8.0240    2.0700 H   0  0  0  0  0  0  0  0  0  0  0  0
   -2.7599    8.7226   -0.1263 H   0  0  0  0  0  0  0  0  0  0  0  0
   -1.1317    6.7972   -0.8295 H   0  0  0  0  0  0  0  0  0  0  0  0
    4.5412   -0.0152    2.0571 H   0  0  0  0  0  0  0  0  0  0  0  0
  1  2  1  0  0  0  0
  2  3  1  0  0  0  0
  3  4  1  0  0  0  0
  4  5  1  0  0  0  0
  5  6  1  0  0  0  0
  6  7  1  0  0  0  0
  7  8  1  0  0  0  0
  8  9  1  0  0  0  0
  9  3  2  0  0  0  0
  9 10  1  0  0  0  0
 10 11  2  0  0  0  0
 11 12  1  0  0  0  0
 12 13  1  0  0  0  0
 13 14  2  0  0  0  0
 13 15  1  0  0  0  0
 15 16  1  0  0  0  0
 16 17  2  0  0  0  0
 16 18  1  0  0  0  0
 18 19  1  0  0  0  0
 19 20  2  0  0  0  0
 20 21  1  0  0  0  0
 15 21  2  0  0  0  0
 21 22  1  0  0  0  0
 19 23  1  0  0  0  0
 23 24  1  0  0  0  0
 24 25  1  0  0  0  0
 25 26  2  0  0  0  0
 26 27  1  0  0  0  0
 23 27  2  0  0  0  0
 11 28  1  0  0  0  0
 28  2  2  0  0  0  0
  5 29  1  0  0  0  0
  5 30  1  0  0  0  0
  6 31  1  0  0  0  0
  6 32  1  0  0  0  0
  7 33  1  0  0  0  0
  7 34  1  0  0  0  0
 10 35  1  0  0  0  0
 12 36  1  0  0  0  0
 18 37  1  0  0  0  0
 22 38  1  0  0  0  0
 22 39  1  0  0  0  0
 22 40  1  0  0  0  0
 25 41  1  0  0  0  0
 26 42  1  0  0  0  0
 27 43  1  0  0  0  0
 28 44  1  0  0  0  0
M  END
>  <result-rank>
18

>  <similarity>
0.918

>  <query-name>


>  <query-smiles>
Fc1c(F)ccc(NC(=O)c2nc(cnc2Nc3cncnc3)C4CC4)c1C(=O)N5CCC5

>  <source>
REALspace_2019-12

>  <similarity-descriptor>
0.0;0.908;0.994;0.910;0.898;1.000;0.999;0.910;0.908;0.143

>  <similarity-descriptor-smiles>
;c1cOCCCO1;Brc1ccccc1;C1=CN=CNC1=O;C1=CC=CO1;N;C=O;C1=CN=CNC1=O;c1cOCCCO1;C

>  <reaction-name>
s_22

>  <reagent1-name>
14942836

>  <reagent1-smiles>
[R1*]Nc1cc(Br)c2OCCCOc2c1

>  <reagent2-name>
6402668

>  <reagent2-smiles>
[R1*]C(=O)C=1C(=O)NC(=NC1C)C=2OC=CC2

$$$$
s_22____14598544____6402696
          04022017343D 1   1.00000     0.00000     0
            
 47 50  0  0  0  0            999 V2000
   -3.8039    2.6469    4.0881 Cl  0  0  0  0  0  0  0  0  0  0  0  0
   -3.0855    2.3759    2.4814 C   0  0  0  0  0  0  0  0  0  0  0  0
   -3.8938    2.1552    1.3684 C   0  0  0  0  0  0  0  0  0  0  0  0
   -5.2412    2.1323    1.4929 O   0  0  0  0  0  0  0  0  0  0  0  0
   -6.0153    1.3323    0.6100 C   0  0  0  0  0  0  0  0  0  0  0  0
   -6.3660    2.1014   -0.6537 C   0  0  0  0  0  0  0  0  0  0  0  0
   -5.0851    2.6683   -1.2460 C   0  0  0  0  0  0  0  0  0  0  0  0
   -3.9638    1.8258   -1.0188 O   0  0  0  0  0  0  0  0  0  0  0  0
   -3.2737    1.9720    0.1355 C   0  0  0  0  0  0  0  0  0  0  0  0
   -1.8867    1.9778    0.0325 C   0  0  0  0  0  0  0  0  0  0  0  0
   -1.0821    2.1842    1.1483 C   0  0  0  0  0  0  0  0  0  0  0  0
    0.3150    2.1857    1.0425 N   0  0  0  0  0  0  0  0  0  0  0  0
    1.0000    1.0000    1.0000 C   0  0  0  0  0  0  0  0  0  0  0  0
    0.4000   -0.0386    0.9628 O   0  0  0  0  0  0  0  0  0  0  0  0
    2.4505    1.0000    1.0000 C   0  0  0  0  0  0  0  0  0  0  0  0
    3.2331    2.1158    1.0400 N   0  0  0  0  0  0  0  0  0  0  0  0
    4.4882    1.7297    1.0278 N   0  0  0  0  0  0  0  0  0  0  0  0
    5.5964    2.5929    1.0576 C   0  0  0  0  0  0  0  0  0  0  0  0
    6.8526    2.1118    1.0422 N   0  0  0  0  0  0  0  0  0  0  0  0
    7.9398    2.9026    1.0723 C   0  0  0  0  0  0  0  0  0  0  0  0
    7.7432    4.2791    1.1206 C   0  0  0  0  0  0  0  0  0  0  0  0
    6.4510    4.7969    1.1363 C   0  0  0  0  0  0  0  0  0  0  0  0
    5.4261    3.9267    1.1043 N   0  0  0  0  0  0  0  0  0  0  0  0
    6.2589    6.3089    1.1881 C   0  0  0  0  0  0  0  0  0  0  0  0
    9.3630    2.3569    1.0558 C   0  0  0  0  0  0  0  0  0  0  0  0
    4.5554    0.3699    0.9790 C   0  0  0  0  0  0  0  0  0  0  0  0
    5.5729   -0.3033    0.9553 O   0  0  0  0  0  0  0  0  0  0  0  0
    3.2312   -0.1148    0.9601 C   0  0  0  0  0  0  0  0  0  0  0  0
   -1.6974    2.3897    2.3792 C   0  0  0  0  0  0  0  0  0  0  0  0
   -6.8592    1.0585    1.0713 H   0  0  0  0  0  0  0  0  0  0  0  0
   -5.4913    0.5174    0.3623 H   0  0  0  0  0  0  0  0  0  0  0  0
   -6.9935    2.8475   -0.4311 H   0  0  0  0  0  0  0  0  0  0  0  0
   -6.7993    1.4869   -1.3130 H   0  0  0  0  0  0  0  0  0  0  0  0
   -5.2089    2.7790   -2.2321 H   0  0  0  0  0  0  0  0  0  0  0  0
   -4.9063    3.5600   -0.8302 H   0  0  0  0  0  0  0  0  0  0  0  0
   -1.4601    1.8309   -0.8599 H   0  0  0  0  0  0  0  0  0  0  0  0
    0.8121    3.0522    0.9980 H   0  0  0  0  0  0  0  0  0  0  0  0
    2.9086    3.0612    1.0728 H   0  0  0  0  0  0  0  0  0  0  0  0
    8.5297    4.8963    1.1442 H   0  0  0  0  0  0  0  0  0  0  0  0
    7.1522    6.7580    1.2053 H   0  0  0  0  0  0  0  0  0  0  0  0
    5.7508    6.6083    0.3806 H   0  0  0  0  0  0  0  0  0  0  0  0
    5.7478    6.5519    2.0126 H   0  0  0  0  0  0  0  0  0  0  0  0
   10.0119    3.1172    1.0839 H   0  0  0  0  0  0  0  0  0  0  0  0
    9.5037    1.7689    1.8523 H   0  0  0  0  0  0  0  0  0  0  0  0
    9.5069    1.8266    0.2203 H   0  0  0  0  0  0  0  0  0  0  0  0
    2.9313   -1.0682    0.9252 H   0  0  0  0  0  0  0  0  0  0  0  0
   -1.1399    2.5479    3.1941 H   0  0  0  0  0  0  0  0  0  0  0  0
  1  2  1  0  0  0  0
  2  3  1  0  0  0  0
  3  4  1  0  0  0  0
  4  5  1  0  0  0  0
  5  6  1  0  0  0  0
  6  7  1  0  0  0  0
  7  8  1  0  0  0  0
  8  9  1  0  0  0  0
  9  3  2  0  0  0  0
  9 10  1  0  0  0  0
 10 11  2  0  0  0  0
 11 12  1  0  0  0  0
 12 13  1  0  0  0  0
 13 14  2  0  0  0  0
 13 15  1  0  0  0  0
 15 16  1  0  0  0  0
 16 17  1  0  0  0  0
 17 18  1  0  0  0  0
 18 19  1  0  0  0  0
 19 20  2  0  0  0  0
 20 21  1  0  0  0  0
 21 22  2  0  0  0  0
 22 23  1  0  0  0  0
 23 18  2  0  0  0  0
 22 24  1  0  0  0  0
 20 25  1  0  0  0  0
 17 26  1  0  0  0  0
 26 27  2  0  0  0  0
 26 28  1  0  0  0  0
 15 28  2  0  0  0  0
 11 29  1  0  0  0  0
 29  2  2  0  0  0  0
  5 30  1  0  0  0  0
  5 31  1  0  0  0  0
  6 32  1  0  0  0  0
  6 33  1  0  0  0  0
  7 34  1  0  0  0  0
  7 35  1  0  0  0  0
 10 36  1  0  0  0  0
 12 37  1  0  0  0  0
 16 38  1  0  0  0  0
 21 39  1  0  0  0  0
 24 40  1  0  0  0  0
 24 41  1  0  0  0  0
 24 42  1  0  0  0  0
 25 43  1  0  0  0  0
 25 44  1  0  0  0  0
 25 45  1  0  0  0  0
 28 46  1  0  0  0  0
 29 47  1  0  0  0  0
M  END
>  <result-rank>
19

>  <similarity>
0.918

>  <query-name>


>  <query-smiles>
Fc1c(F)ccc(NC(=O)c2nc(cnc2Nc3cncnc3)C4CC4)c1C(=O)N5CCC5

>  <source>
REALspace_2019-12

>  <similarity-descriptor>
0.0;0.908;0.985;0.917;0.902;1.000;0.999;0.917;0.908;0.125

>  <similarity-descriptor-smiles>
;c1cOCCCO1;Clc1ccccc1;C1=CC(NN1)=O;c1nccc(n1)C;N;C=O;C1=CC(NN1)=O;c1cOCCCO1;C

>  <reaction-name>
s_22

>  <reagent1-name>
14598544

>  <reagent1-smiles>
[R1*]Nc1cc(Cl)c2OCCCOc2c1

>  <reagent2-name>
6402696

>  <reagent2-smiles>
[R1*]C(=O)C=1NN(c2nc(cc(n2)C)C)C(=O)C1

$$$$
s_22____127815____1327666
          04022017343D 1   1.00000     0.00000     0
            
 46 49  0  0  0  0            999 V2000
    7.3211   -0.0484   -0.3456 O   0  0  0  0  0  0  0  0  0  0  0  0
    6.5306   -0.8900   -0.7402 C   0  0  0  0  0  0  0  0  0  0  0  0
    5.1602   -0.9081   -0.5026 N   0  0  0  0  0  0  0  0  0  0  0  0
    4.4645    0.0444    0.2478 C   0  0  0  0  0  0  0  0  0  0  0  0
    3.0736    0.0439    0.2473 C   0  0  0  0  0  0  0  0  0  0  0  0
    2.3995    1.0000    1.0000 C   0  0  0  0  0  0  0  0  0  0  0  0
    1.0000    1.0000    1.0000 N   0  0  0  0  0  0  0  0  0  0  0  0
    0.3150    2.1859    0.9630 C   0  0  0  0  0  0  0  0  0  0  0  0
    0.8607    3.1822    0.5763 O   0  0  0  0  0  0  0  0  0  0  0  0
   -1.0697    2.2371    1.3912 C   0  0  0  0  0  0  0  0  0  0  0  0
   -1.8126    3.4490    1.3669 C   0  0  0  0  0  0  0  0  0  0  0  0
   -1.2952    4.4624    0.9857 O   0  0  0  0  0  0  0  0  0  0  0  0
   -3.1186    3.4377    1.7840 N   0  0  0  0  0  0  0  0  0  0  0  0
   -3.7181    2.2849    2.2216 C   0  0  0  0  0  0  0  0  0  0  0  0
   -5.1004    2.2953    2.6585 C   0  0  0  0  0  0  0  0  0  0  0  0
   -5.7081    1.1796    3.0907 N   0  0  0  0  0  0  0  0  0  0  0  0
   -6.9857    1.1837    3.4962 C   0  0  0  0  0  0  0  0  0  0  0  0
   -7.7310    2.3574    3.4816 C   0  0  0  0  0  0  0  0  0  0  0  0
   -7.1203    3.5254    3.0368 C   0  0  0  0  0  0  0  0  0  0  0  0
   -5.7937    3.5012    2.6207 C   0  0  0  0  0  0  0  0  0  0  0  0
   -3.0235    1.1032    2.2543 C   0  0  0  0  0  0  0  0  0  0  0  0
   -1.6680    1.0833    1.8280 C   0  0  0  0  0  0  0  0  0  0  0  0
    3.0934    1.9462    1.7468 C   0  0  0  0  0  0  0  0  0  0  0  0
    4.4840    1.9278    1.7323 C   0  0  0  0  0  0  0  0  0  0  0  0
    5.1791    0.9817    0.9870 C   0  0  0  0  0  0  0  0  0  0  0  0
    4.5659   -2.0752   -1.1581 C   0  0  0  0  0  0  0  0  0  0  0  0
    5.5518   -2.4101   -2.2568 C   0  0  0  0  0  0  0  0  0  0  0  0
    6.8676   -2.1037   -1.5770 C   0  0  0  0  0  0  0  0  0  0  0  0
    2.5662   -0.6331   -0.2858 H   0  0  0  0  0  0  0  0  0  0  0  0
    0.5000    0.1344    1.0270 H   0  0  0  0  0  0  0  0  0  0  0  0
   -3.6448    4.2879    1.7687 H   0  0  0  0  0  0  0  0  0  0  0  0
   -7.4072    0.3338    3.8124 H   0  0  0  0  0  0  0  0  0  0  0  0
   -8.6842    2.3618    3.7839 H   0  0  0  0  0  0  0  0  0  0  0  0
   -7.6352    4.3824    3.0164 H   0  0  0  0  0  0  0  0  0  0  0  0
   -5.3458    4.3358    2.2998 H   0  0  0  0  0  0  0  0  0  0  0  0
   -3.4656    0.2652    2.5742 H   0  0  0  0  0  0  0  0  0  0  0  0
   -1.1504    0.2279    1.8468 H   0  0  0  0  0  0  0  0  0  0  0  0
    2.6002    2.6290    2.2858 H   0  0  0  0  0  0  0  0  0  0  0  0
    4.9914    2.6048    2.2655 H   0  0  0  0  0  0  0  0  0  0  0  0
    6.1790    0.9751    0.9824 H   0  0  0  0  0  0  0  0  0  0  0  0
    3.6690   -1.8517   -1.5397 H   0  0  0  0  0  0  0  0  0  0  0  0
    4.4748   -2.8367   -0.5164 H   0  0  0  0  0  0  0  0  0  0  0  0
    5.4126   -1.8335   -3.0619 H   0  0  0  0  0  0  0  0  0  0  0  0
    5.4918   -3.3725   -2.5217 H   0  0  0  0  0  0  0  0  0  0  0  0
    7.1640   -2.8671   -1.0031 H   0  0  0  0  0  0  0  0  0  0  0  0
    7.5799   -1.8940   -2.2468 H   0  0  0  0  0  0  0  0  0  0  0  0
  1  2  2  0  0  0  0
  2  3  1  0  0  0  0
  3  4  1  0  0  0  0
  4  5  1  0  0  0  0
  5  6  2  0  0  0  0
  6  7  1  0  0  0  0
  7  8  1  0  0  0  0
  8  9  2  0  0  0  0
  8 10  1  0  0  0  0
 10 11  1  0  0  0  0
 11 12  2  0  0  0  0
 11 13  1  0  0  0  0
 13 14  1  0  0  0  0
 14 15  1  0  0  0  0
 15 16  1  0  0  0  0
 16 17  2  0  0  0  0
 17 18  1  0  0  0  0
 18 19  2  0  0  0  0
 19 20  1  0  0  0  0
 20 15  2  0  0  0  0
 14 21  2  0  0  0  0
 21 22  1  0  0  0  0
 10 22  2  0  0  0  0
  6 23  1  0  0  0  0
 23 24  2  0  0  0  0
 24 25  1  0  0  0  0
 25  4  2  0  0  0  0
  3 26  1  0  0  0  0
 26 27  1  0  0  0  0
 27 28  1  0  0  0  0
 28  2  1  0  0  0  0
  5 29  1  0  0  0  0
  7 30  1  0  0  0  0
 13 31  1  0  0  0  0
 17 32  1  0  0  0  0
 18 33  1  0  0  0  0
 19 34  1  0  0  0  0
 20 35  1  0  0  0  0
 21 36  1  0  0  0  0
 22 37  1  0  0  0  0
 23 38  1  0  0  0  0
 24 39  1  0  0  0  0
 25 40  1  0  0  0  0
 26 41  1  0  0  0  0
 26 42  1  0  0  0  0
 27 43  1  0  0  0  0
 27 44  1  0  0  0  0
 28 45  1  0  0  0  0
 28 46  1  0  0  0  0
M  END
>  <result-rank>
20

>  <similarity>
0.917

>  <query-name>


>  <query-smiles>
Fc1c(F)ccc(NC(=O)c2nc(cnc2Nc3cncnc3)C4CC4)c1C(=O)N5CCC5

>  <source>
REALspace_2019-12

>  <similarity-descriptor>
0.0;0.998;0.928;0.903;0.869;1.000;0.999;0.903;0.998;0.0

>  <similarity-descriptor-smiles>
;O=C1CCCN1;c1ccccc1;C1=CC=CNC1=O;c1ccccn1;N;C=O;C1=CC=CNC1=O;O=C1CCCN1;

>  <reaction-name>
s_22

>  <reagent1-name>
127815

>  <reagent1-smiles>
[R1*]Nc1cc(N2C(=O)CCC2)ccc1

>  <reagent2-name>
1327666

>  <reagent2-smiles>
[R1*]C(=O)C=1C(=O)NC(c2ncccc2)=CC1

$$$$
s_527a____13946128____736122
          04022017343D 1   1.00000     0.00000     0
            
 49 52  0  0  0  0            999 V2000
   -3.6971   -0.0444   -0.2452 F   0  0  0  0  0  0  0  0  0  0  0  0
   -3.0292    1.0855   -0.0327 C   0  0  0  0  0  0  0  0  0  0  0  0
   -3.6666    2.3068   -0.2246 C   0  0  0  0  0  0  0  0  0  0  0  0
   -5.0026    2.3446   -0.6377 N   0  0  0  0  0  0  0  0  0  0  0  0
   -5.3092    2.3680   -2.0765 C   0  0  0  0  0  0  0  0  0  0  0  0
   -6.6096    1.6352   -2.3686 C   0  0  0  0  0  0  0  0  0  0  0  0
   -7.6345    2.0109   -1.4575 O   0  0  0  0  0  0  0  0  0  0  0  0
   -7.3031    1.6104   -0.1344 C   0  0  0  0  0  0  0  0  0  0  0  0
   -6.0678    2.3361    0.3765 C   0  0  0  0  0  0  0  0  0  0  0  0
   -2.9643    3.4862   -0.0020 C   0  0  0  0  0  0  0  0  0  0  0  0
   -3.5761    4.6516   -0.1866 F   0  0  0  0  0  0  0  0  0  0  0  0
   -1.6361    3.4590    0.4093 C   0  0  0  0  0  0  0  0  0  0  0  0
   -1.0208    2.2258    0.5940 C   0  0  0  0  0  0  0  0  0  0  0  0
    0.3150    2.1864    1.0081 N   0  0  0  0  0  0  0  0  0  0  0  0
    1.0000    1.0000    1.0000 C   0  0  0  0  0  0  0  0  0  0  0  0
    0.4000   -0.0392    0.9929 O   0  0  0  0  0  0  0  0  0  0  0  0
    2.4506    1.0000    1.0000 C   0  0  0  0  0  0  0  0  0  0  0  0
    3.1617   -0.2304    0.9916 C   0  0  0  0  0  0  0  0  0  0  0  0
    2.5221   -1.2720    0.9845 O   0  0  0  0  0  0  0  0  0  0  0  0
    4.5846   -0.2142    0.9917 C   0  0  0  0  0  0  0  0  0  0  0  0
    5.2463    1.0098    1.0007 C   0  0  0  0  0  0  0  0  0  0  0  0
    4.5278    2.1775    1.0085 N   0  0  0  0  0  0  0  0  0  0  0  0
    3.1566    2.1754    1.0083 C   0  0  0  0  0  0  0  0  0  0  0  0
    6.6360    1.0695    1.0013 C   0  0  0  0  0  0  0  0  0  0  0  0
    7.3585   -0.1189    0.9928 C   0  0  0  0  0  0  0  0  0  0  0  0
    8.7052   -0.0983    0.9932 O   0  0  0  0  0  0  0  0  0  0  0  0
    9.3963    1.1422    1.0023 C   0  0  0  0  0  0  0  0  0  0  0  0
    6.7295   -1.3577    0.9846 C   0  0  0  0  0  0  0  0  0  0  0  0
    5.3402   -1.3842    0.9842 C   0  0  0  0  0  0  0  0  0  0  0  0
   -1.7017    1.0327    0.3779 C   0  0  0  0  0  0  0  0  0  0  0  0
   -4.5650    1.9254   -2.5767 H   0  0  0  0  0  0  0  0  0  0  0  0
   -5.3944    3.3178   -2.3773 H   0  0  0  0  0  0  0  0  0  0  0  0
   -6.9047    1.8548   -3.2985 H   0  0  0  0  0  0  0  0  0  0  0  0
   -6.4520    0.6506   -2.2927 H   0  0  0  0  0  0  0  0  0  0  0  0
   -7.1275    0.6260   -0.1276 H   0  0  0  0  0  0  0  0  0  0  0  0
   -8.0733    1.8158    0.4695 H   0  0  0  0  0  0  0  0  0  0  0  0
   -6.3124    3.2792    0.6014 H   0  0  0  0  0  0  0  0  0  0  0  0
   -5.7334    1.8736    1.1977 H   0  0  0  0  0  0  0  0  0  0  0  0
   -1.1338    4.3088    0.5690 H   0  0  0  0  0  0  0  0  0  0  0  0
    0.7698    3.0243    1.3101 H   0  0  0  0  0  0  0  0  0  0  0  0
    5.0149    3.0508    1.0144 H   0  0  0  0  0  0  0  0  0  0  0  0
    2.6634    3.0453    1.0144 H   0  0  0  0  0  0  0  0  0  0  0  0
    7.1073    1.9515    1.0076 H   0  0  0  0  0  0  0  0  0  0  0  0
   10.3822    0.9745    1.0013 H   0  0  0  0  0  0  0  0  0  0  0  0
    9.1469    1.6687    0.1896 H   0  0  0  0  0  0  0  0  0  0  0  0
    9.1466    1.6569    1.8225 H   0  0  0  0  0  0  0  0  0  0  0  0
    7.2607   -2.2049    0.9792 H   0  0  0  0  0  0  0  0  0  0  0  0
    4.8704   -2.2669    0.9784 H   0  0  0  0  0  0  0  0  0  0  0  0
   -1.2454    0.1535    0.5152 H   0  0  0  0  0  0  0  0  0  0  0  0
  1  2  1  0  0  0  0
  2  3  1  0  0  0  0
  3  4  1  0  0  0  0
  4  5  1  0  0  0  0
  5  6  1  0  0  0  0
  6  7  1  0  0  0  0
  7  8  1  0  0  0  0
  8  9  1  0  0  0  0
  9  4  1  0  0  0  0
  3 10  2  0  0  0  0
 10 11  1  0  0  0  0
 10 12  1  0  0  0  0
 12 13  2  0  0  0  0
 13 14  1  0  0  0  0
 14 15  1  0  0  0  0
 15 16  2  0  0  0  0
 15 17  1  0  0  0  0
 17 18  1  0  0  0  0
 18 19  2  0  0  0  0
 18 20  1  0  0  0  0
 20 21  1  0  0  0  0
 21 22  1  0  0  0  0
 22 23  1  0  0  0  0
 17 23  2  0  0  0  0
 21 24  2  0  0  0  0
 24 25  1  0  0  0  0
 25 26  1  0  0  0  0
 26 27  1  0  0  0  0
 25 28  2  0  0  0  0
 28 29  1  0  0  0  0
 29 20  2  0  0  0  0
 13 30  1  0  0  0  0
 30  2  2  0  0  0  0
  5 31  1  0  0  0  0
  5 32  1  0  0  0  0
  6 33  1  0  0  0  0
  6 34  1  0  0  0  0
  8 35  1  0  0  0  0
  8 36  1  0  0  0  0
  9 37  1  0  0  0  0
  9 38  1  0  0  0  0
 12 39  1  0  0  0  0
 14 40  1  0  0  0  0
 22 41  1  0  0  0  0
 23 42  1  0  0  0  0
 24 43  1  0  0  0  0
 27 44  1  0  0  0  0
 27 45  1  0  0  0  0
 27 46  1  0  0  0  0
 28 47  1  0  0  0  0
 29 48  1  0  0  0  0
 30 49  1  0  0  0  0
M  END
>  <result-rank>
21

>  <similarity>
0.917

>  <query-name>


>  <query-smiles>
Fc1c(F)ccc(NC(=O)c2nc(cnc2Nc3cncnc3)C4CC4)c1C(=O)N5CCC5

>  <source>
REALspace_2019-12

>  <similarity-descriptor>
0.0;0.856;0.998;0.962;0.873;1.000;0.999;0.962;0.856;0.125

>  <similarity-descriptor-smiles>
;N1CCOCC1;Fc1cccc(c1)F;C1=CNccC1=O;c1ccc(cc1)O;N;C=O;C1=CNccC1=O;N1CCOCC1;C

>  <reaction-name>
s_527a

>  <reagent1-name>
13946128

>  <reagent1-smiles>
[R1*]Nc1cc(F)c(N2CCOCC2)c(F)c1

>  <reagent2-name>
736122

>  <reagent2-smiles>
[R1*]C(=O)c1c(O)c2c(nc1)cc(OC)cc2

$$$$
s_7a____244978____204069
          04022017343D 1   1.00000     0.00000     0
            
 59 64  0  0  0  0            999 V2000
    3.1233    1.0000    2.7065 S   0  0  0  0  0  0  0  0  0  0  0  0
    4.8358    1.0000    2.3900 C   0  0  0  0  0  0  0  0  0  0  0  0
    5.2845    2.1540    1.8799 N   0  0  0  0  0  0  0  0  0  0  0  0
    6.5808    2.3155    1.5836 C   0  0  0  0  0  0  0  0  0  0  0  0
    7.4342    1.3037    1.8067 N   0  0  0  0  0  0  0  0  0  0  0  0
    7.0532    0.1186    2.3162 C   0  0  0  0  0  0  0  0  0  0  0  0
    7.9453   -0.9040    2.5378 N   0  0  0  0  0  0  0  0  0  0  0  0
    7.5422   -2.1094    3.0565 C   0  0  0  0  0  0  0  0  0  0  0  0
    8.3398   -3.0129    3.2497 O   0  0  0  0  0  0  0  0  0  0  0  0
    6.2272   -2.3358    3.3735 N   0  0  0  0  0  0  0  0  0  0  0  0
    5.3188   -1.3379    3.1639 C   0  0  0  0  0  0  0  0  0  0  0  0
    4.1755   -1.6305    3.4785 O   0  0  0  0  0  0  0  0  0  0  0  0
    5.7089   -0.0704    2.6266 C   0  0  0  0  0  0  0  0  0  0  0  0
    9.3714   -0.7441    2.2264 C   0  0  0  0  0  0  0  0  0  0  0  0
    9.8123    0.6836    2.3735 C   0  0  0  0  0  0  0  0  0  0  0  0
    9.5886    0.1035    1.0061 C   0  0  0  0  0  0  0  0  0  0  0  0
    7.0255    3.6481    1.0035 C   0  0  0  0  0  0  0  0  0  0  0  0
    8.1679    4.2220    1.7896 C   0  0  0  0  0  0  0  0  0  0  0  0
    6.7874    4.7922    1.9464 C   0  0  0  0  0  0  0  0  0  0  0  0
    2.5200    1.0000    1.0000 C   0  0  0  0  0  0  0  0  0  0  0  0
    1.0000    1.0000    1.0000 C   0  0  0  0  0  0  0  0  0  0  0  0
    0.4000    1.0000   -0.0392 O   0  0  0  0  0  0  0  0  0  0  0  0
    0.3150    1.0000    2.1865 N   0  0  0  0  0  0  0  0  0  0  0  0
   -1.0848    1.0000    2.1865 C   0  0  0  0  0  0  0  0  0  0  0  0
   -1.7711    2.0489    2.7920 C   0  0  0  0  0  0  0  0  0  0  0  0
   -1.0627    3.0924    3.3938 N   0  0  0  0  0  0  0  0  0  0  0  0
   -0.6579    3.1180    4.7248 C   0  0  0  0  0  0  0  0  0  0  0  0
   -0.8618    2.2503    5.5567 O   0  0  0  0  0  0  0  0  0  0  0  0
    0.0713    4.4264    4.9522 C   0  0  0  0  0  0  0  0  0  0  0  0
   -0.5093    5.3009    3.8596 C   0  0  0  0  0  0  0  0  0  0  0  0
   -0.6435    4.3196    2.7150 C   0  0  0  0  0  0  0  0  0  0  0  0
   -3.1618    2.0669    2.8031 C   0  0  0  0  0  0  0  0  0  0  0  0
   -3.8529    1.0220    2.1999 C   0  0  0  0  0  0  0  0  0  0  0  0
   -3.1716   -0.0281    1.5935 C   0  0  0  0  0  0  0  0  0  0  0  0
   -1.7807   -0.0428    1.5846 C   0  0  0  0  0  0  0  0  0  0  0  0
    5.9388   -3.2157    3.7512 H   0  0  0  0  0  0  0  0  0  0  0  0
   10.0104   -1.4842    2.4359 H   0  0  0  0  0  0  0  0  0  0  0  0
   10.7403    0.8909    2.6830 H   0  0  0  0  0  0  0  0  0  0  0  0
    9.1793    1.3675    2.7362 H   0  0  0  0  0  0  0  0  0  0  0  0
    8.8067    0.4013    0.4584 H   0  0  0  0  0  0  0  0  0  0  0  0
   10.3677   -0.0753    0.4052 H   0  0  0  0  0  0  0  0  0  0  0  0
    6.9766    3.8004    0.0163 H   0  0  0  0  0  0  0  0  0  0  0  0
    8.8779    4.7517    1.3256 H   0  0  0  0  0  0  0  0  0  0  0  0
    8.5783    3.6941    2.5332 H   0  0  0  0  0  0  0  0  0  0  0  0
    6.2784    4.6438    2.7943 H   0  0  0  0  0  0  0  0  0  0  0  0
    6.5781    5.7015    1.5867 H   0  0  0  0  0  0  0  0  0  0  0  0
    2.8533    0.1835    0.5286 H   0  0  0  0  0  0  0  0  0  0  0  0
    2.8533    1.8165    0.5286 H   0  0  0  0  0  0  0  0  0  0  0  0
    0.8150    1.0000    3.0525 H   0  0  0  0  0  0  0  0  0  0  0  0
    1.0592    4.3160    4.8434 H   0  0  0  0  0  0  0  0  0  0  0  0
   -0.1246    4.7992    5.8592 H   0  0  0  0  0  0  0  0  0  0  0  0
   -1.3983    5.6736    4.1256 H   0  0  0  0  0  0  0  0  0  0  0  0
    0.1100    6.0504    3.6257 H   0  0  0  0  0  0  0  0  0  0  0  0
   -1.3341    4.6230    2.0586 H   0  0  0  0  0  0  0  0  0  0  0  0
    0.2298    4.1918    2.2449 H   0  0  0  0  0  0  0  0  0  0  0  0
   -3.6567    2.8193    3.2378 H   0  0  0  0  0  0  0  0  0  0  0  0
   -4.8529    1.0255    2.2021 H   0  0  0  0  0  0  0  0  0  0  0  0
   -3.6819   -0.7729    1.1636 H   0  0  0  0  0  0  0  0  0  0  0  0
   -1.2863   -0.7955    1.1499 H   0  0  0  0  0  0  0  0  0  0  0  0
  1  2  1  0  0  0  0
  2  3  1  0  0  0  0
  3  4  2  0  0  0  0
  4  5  1  0  0  0  0
  5  6  2  0  0  0  0
  6  7  1  0  0  0  0
  7  8  1  0  0  0  0
  8  9  2  0  0  0  0
  8 10  1  0  0  0  0
 10 11  1  0  0  0  0
 11 12  2  0  0  0  0
 11 13  1  0  0  0  0
 13  2  2  0  0  0  0
 13  6  1  0  0  0  0
  7 14  1  0  0  0  0
 14 15  1  0  0  0  0
 15 16  1  0  0  0  0
 16 14  1  0  0  0  0
  4 17  1  0  0  0  0
 17 18  1  0  0  0  0
 18 19  1  0  0  0  0
 19 17  1  0  0  0  0
  1 20  1  0  0  0  0
 20 21  1  0  0  0  0
 21 22  2  0  0  0  0
 21 23  1  0  0  0  0
 23 24  1  0  0  0  0
 24 25  1  0  0  0  0
 25 26  1  0  0  0  0
 26 27  1  0  0  0  0
 27 28  2  0  0  0  0
 27 29  1  0  0  0  0
 29 30  1  0  0  0  0
 30 31  1  0  0  0  0
 31 26  1  0  0  0  0
 25 32  2  0  0  0  0
 32 33  1  0  0  0  0
 33 34  2  0  0  0  0
 34 35  1  0  0  0  0
 35 24  2  0  0  0  0
 10 36  1  0  0  0  0
 14 37  1  0  0  0  0
 15 38  1  0  0  0  0
 15 39  1  0  0  0  0
 16 40  1  0  0  0  0
 16 41  1  0  0  0  0
 17 42  1  0  0  0  0
 18 43  1  0  0  0  0
 18 44  1  0  0  0  0
 19 45  1  0  0  0  0
 19 46  1  0  0  0  0
 20 47  1  0  0  0  0
 20 48  1  0  0  0  0
 23 49  1  0  0  0  0
 29 50  1  0  0  0  0
 29 51  1  0  0  0  0
 30 52  1  0  0  0  0
 30 53  1  0  0  0  0
 31 54  1  0  0  0  0
 31 55  1  0  0  0  0
 32 56  1  0  0  0  0
 33 57  1  0  0  0  0
 34 58  1  0  0  0  0
 35 59  1  0  0  0  0
M  END
>  <result-rank>
22

>  <similarity>
0.917

>  <query-name>


>  <query-smiles>
Fc1c(F)ccc(NC(=O)c2nc(cnc2Nc3cncnc3)C4CC4)c1C(=O)N5CCC5

>  <source>
REALspace_2019-12

>  <similarity-descriptor>
1.000;0.998;0.928;0.942;0.846;1.000;0.860;0.846;0.998;0.100

>  <similarity-descriptor-smiles>
C1CC1;N1CCCC1=O;c1ccccc1;Sc1ccncn1;c1cC(NC(N1)=O)=O;N;CC=O;c1cC(NC(N1)=O)=O;N1CCCC1=O;C1CC1

>  <reaction-name>
s_7a

>  <reagent1-name>
244978

>  <reagent1-smiles>
[R1*]Sc1nc(nc2N(C(=O)NC(=O)c12)C3CC3)C4CC4

>  <reagent2-name>
204069

>  <reagent2-smiles>
[R1*]CC(=O)Nc1c(N2C(=O)CCC2)cccc1

$$$$
s_11a____4786906____1136820
          04022017343D 1   1.00000     0.00000     0
            
 52 54  0  0  0  0            999 V2000
    3.2636   -0.9372    2.4822 Cl  0  0  0  0  0  0  0  0  0  0  0  0
    3.2156    0.8425    2.4904 C   0  0  0  0  0  0  0  0  0  0  0  0
    2.0110    1.5375    2.5046 C   0  0  0  0  0  0  0  0  0  0  0  0
    2.0122    2.8782    2.5100 N   0  0  0  0  0  0  0  0  0  0  0  0
    3.1581    3.5753    2.5022 C   0  0  0  0  0  0  0  0  0  0  0  0
    4.3327    2.9278    2.4888 N   0  0  0  0  0  0  0  0  0  0  0  0
    4.3894    1.5880    2.4836 C   0  0  0  0  0  0  0  0  0  0  0  0
    3.1500    4.9753    2.5076 N   0  0  0  0  0  0  0  0  0  0  0  0
    4.4188    5.7176    2.4989 C   0  0  0  0  0  0  0  0  0  0  0  0
    4.7176    6.1936    1.0866 C   0  0  0  0  0  0  0  0  0  0  0  0
    6.0295    6.9612    1.0775 C   0  0  0  0  0  0  0  0  0  0  0  0
    6.3283    7.4372   -0.3347 C   0  0  0  0  0  0  0  0  0  0  0  0
    1.8728    5.7029    2.5220 C   0  0  0  0  0  0  0  0  0  0  0  0
    0.7664    0.7925    2.5128 C   0  0  0  0  0  0  0  0  0  0  0  0
    0.1496    0.6434    1.4943 O   0  0  0  0  0  0  0  0  0  0  0  0
    0.2949    0.2592    3.6834 N   0  0  0  0  0  0  0  0  0  0  0  0
   -0.4718   -0.9115    3.6603 C   0  0  0  0  0  0  0  0  0  0  0  0
   -1.6706   -0.9299    2.9555 C   0  0  0  0  0  0  0  0  0  0  0  0
   -2.4203   -2.1013    2.9423 C   0  0  0  0  0  0  0  0  0  0  0  0
   -3.5683   -2.1349    2.2734 F   0  0  0  0  0  0  0  0  0  0  0  0
   -1.9775   -3.2315    3.6206 C   0  0  0  0  0  0  0  0  0  0  0  0
   -2.7460   -4.4002    3.5938 N   0  0  0  0  0  0  0  0  0  0  0  0
   -4.0053   -4.5399    4.1688 C   0  0  0  0  0  0  0  0  0  0  0  0
   -4.6182   -3.6804    4.7789 O   0  0  0  0  0  0  0  0  0  0  0  0
   -4.4685   -5.9586    3.9076 C   0  0  0  0  0  0  0  0  0  0  0  0
   -3.1533   -6.6851    3.7128 C   0  0  0  0  0  0  0  0  0  0  0  0
   -2.3383   -5.6552    2.9604 C   0  0  0  0  0  0  0  0  0  0  0  0
   -0.7761   -3.1981    4.3209 C   0  0  0  0  0  0  0  0  0  0  0  0
   -0.0160   -2.0335    4.3436 C   0  0  0  0  0  0  0  0  0  0  0  0
    5.2758    1.1251    2.4748 H   0  0  0  0  0  0  0  0  0  0  0  0
    5.1568    5.1200    2.8123 H   0  0  0  0  0  0  0  0  0  0  0  0
    4.3474    6.5070    3.1086 H   0  0  0  0  0  0  0  0  0  0  0  0
    3.9796    6.7912    0.7731 H   0  0  0  0  0  0  0  0  0  0  0  0
    4.7890    5.4042    0.4769 H   0  0  0  0  0  0  0  0  0  0  0  0
    6.7675    6.3636    1.3910 H   0  0  0  0  0  0  0  0  0  0  0  0
    5.9581    7.7506    1.6873 H   0  0  0  0  0  0  0  0  0  0  0  0
    7.1914    7.9422   -0.3407 H   0  0  0  0  0  0  0  0  0  0  0  0
    6.3998    6.6478   -0.9445 H   0  0  0  0  0  0  0  0  0  0  0  0
    5.5903    8.0348   -0.6482 H   0  0  0  0  0  0  0  0  0  0  0  0
    2.0499    6.6871    2.5242 H   0  0  0  0  0  0  0  0  0  0  0  0
    1.3424    5.4614    1.7094 H   0  0  0  0  0  0  0  0  0  0  0  0
    1.3573    5.4552    3.3423 H   0  0  0  0  0  0  0  0  0  0  0  0
    0.4986    0.7064    4.5543 H   0  0  0  0  0  0  0  0  0  0  0  0
   -1.9875   -0.1165    2.4676 H   0  0  0  0  0  0  0  0  0  0  0  0
   -5.0377   -6.0102    3.0871 H   0  0  0  0  0  0  0  0  0  0  0  0
   -4.9747   -6.3256    4.6881 H   0  0  0  0  0  0  0  0  0  0  0  0
   -2.7305   -6.9140    4.5897 H   0  0  0  0  0  0  0  0  0  0  0  0
   -3.2742   -7.5184    3.1734 H   0  0  0  0  0  0  0  0  0  0  0  0
   -1.3581   -5.8161    3.0759 H   0  0  0  0  0  0  0  0  0  0  0  0
   -2.5640   -5.6579    1.9862 H   0  0  0  0  0  0  0  0  0  0  0  0
   -0.4588   -4.0117    4.8082 H   0  0  0  0  0  0  0  0  0  0  0  0
    0.8484   -2.0034    4.8455 H   0  0  0  0  0  0  0  0  0  0  0  0
  1  2  1  0  0  0  0
  2  3  1  0  0  0  0
  3  4  2  0  0  0  0
  4  5  1  0  0  0  0
  5  6  2  0  0  0  0
  6  7  1  0  0  0  0
  7  2  2  0  0  0  0
  5  8  1  0  0  0  0
  8  9  1  0  0  0  0
  9 10  1  0  0  0  0
 10 11  1  0  0  0  0
 11 12  1  0  0  0  0
  8 13  1  0  0  0  0
  3 14  1  0  0  0  0
 14 15  2  0  0  0  0
 14 16  1  0  0  0  0
 16 17  1  0  0  0  0
 17 18  1  0  0  0  0
 18 19  2  0  0  0  0
 19 20  1  0  0  0  0
 19 21  1  0  0  0  0
 21 22  1  0  0  0  0
 22 23  1  0  0  0  0
 23 24  2  0  0  0  0
 23 25  1  0  0  0  0
 25 26  1  0  0  0  0
 26 27  1  0  0  0  0
 27 22  1  0  0  0  0
 21 28  2  0  0  0  0
 28 29  1  0  0  0  0
 29 17  2  0  0  0  0
  7 30  1  0  0  0  0
  9 31  1  0  0  0  0
  9 32  1  0  0  0  0
 10 33  1  0  0  0  0
 10 34  1  0  0  0  0
 11 35  1  0  0  0  0
 11 36  1  0  0  0  0
 12 37  1  0  0  0  0
 12 38  1  0  0  0  0
 12 39  1  0  0  0  0
 13 40  1  0  0  0  0
 13 41  1  0  0  0  0
 13 42  1  0  0  0  0
 16 43  1  0  0  0  0
 18 44  1  0  0  0  0
 25 45  1  0  0  0  0
 25 46  1  0  0  0  0
 26 47  1  0  0  0  0
 26 48  1  0  0  0  0
 27 49  1  0  0  0  0
 27 50  1  0  0  0  0
 28 51  1  0  0  0  0
 29 52  1  0  0  0  0
M  END
>  <result-rank>
23

>  <similarity>
0.916

>  <query-name>


>  <query-smiles>
Fc1c(F)ccc(NC(=O)c2nc(cnc2Nc3cncnc3)C4CC4)c1C(=O)N5CCC5

>  <source>
REALspace_2019-12

>  <similarity-descriptor>
0.878;0.998;0.964;0.957;0.0;1.000;1.000;0.0;0.998;0.182

>  <similarity-descriptor-smiles>
NCCC;N1CCCC1=O;c1cccc(c1)F;Clc1cncnc1;;N;C=O;;N1CCCC1=O;C.C

>  <reaction-name>
s_11a

>  <reagent1-name>
4786906

>  <reagent1-smiles>
[R1*]Nc1cc(F)c(N2C(=O)CCC2)cc1

>  <reagent2-name>
1136820

>  <reagent2-smiles>
[R1*]C(=O)c1nc(ncc1Cl)N(CCCC)C

$$$$
s_2430a____8989258____4862870
          04022017343D 1   1.00000     0.00000     0
            
 56 59  0  0  0  0            999 V2000
    0.4000   -0.0392    1.0000 O   0  0  0  0  0  0  0  0  0  0  0  0
    1.0000    1.0000    1.0000 C   0  0  0  0  0  0  0  0  0  0  0  0
    2.3700    1.0000    1.0000 N   0  0  0  0  0  0  0  0  0  0  0  0
    3.0702   -0.0502    1.6064 C   0  0  0  0  0  0  0  0  0  0  0  0
    2.6110   -1.3554    1.4620 C   0  0  0  0  0  0  0  0  0  0  0  0
    3.3140   -2.3911    2.0687 C   0  0  0  0  0  0  0  0  0  0  0  0
    4.4610   -2.1252    2.8102 C   0  0  0  0  0  0  0  0  0  0  0  0
    5.1613   -3.1749    3.4168 N   0  0  0  0  0  0  0  0  0  0  0  0
    5.2907   -3.3517    4.7931 C   0  0  0  0  0  0  0  0  0  0  0  0
    4.8118   -2.6369    5.6576 O   0  0  0  0  0  0  0  0  0  0  0  0
    6.1240   -4.5916    5.0285 C   0  0  0  0  0  0  0  0  0  0  0  0
    5.8646   -5.3707    3.7586 C   0  0  0  0  0  0  0  0  0  0  0  0
    5.8807   -4.2562    2.7364 C   0  0  0  0  0  0  0  0  0  0  0  0
    4.9122   -0.8163    2.9477 C   0  0  0  0  0  0  0  0  0  0  0  0
    4.2162    0.2265    2.3451 C   0  0  0  0  0  0  0  0  0  0  0  0
    2.7994   -3.8118    1.9017 C   0  0  0  0  0  0  0  0  0  0  0  0
    0.3150    2.1865    1.0000 N   0  0  0  0  0  0  0  0  0  0  0  0
   -1.0840    2.1865    1.0000 C   0  0  0  0  0  0  0  0  0  0  0  0
   -1.8860    2.1865   -0.0972 N   0  0  0  0  0  0  0  0  0  0  0  0
   -3.1407    2.1876    0.2850 N   0  0  0  0  0  0  0  0  0  0  0  0
   -3.1977    2.1896    1.5938 C   0  0  0  0  0  0  0  0  0  0  0  0
   -1.8800    2.1896    2.1014 C   0  0  0  0  0  0  0  0  0  0  0  0
   -4.4687    2.1918    2.4272 C   0  0  0  0  0  0  0  0  0  0  0  0
   -5.4942    1.2686    1.7896 C   0  0  0  0  0  0  0  0  0  0  0  0
   -4.1539    1.7058    3.8326 C   0  0  0  0  0  0  0  0  0  0  0  0
   -1.4436    2.1870   -1.4257 C   0  0  0  0  0  0  0  0  0  0  0  0
   -1.8651    1.2420   -2.2796 N   0  0  0  0  0  0  0  0  0  0  0  0
   -1.4572    1.2200   -3.5570 C   0  0  0  0  0  0  0  0  0  0  0  0
   -0.5780    2.1979   -4.0077 C   0  0  0  0  0  0  0  0  0  0  0  0
   -0.1512    3.1698   -3.1100 C   0  0  0  0  0  0  0  0  0  0  0  0
   -0.5953    3.1375   -1.8452 N   0  0  0  0  0  0  0  0  0  0  0  0
    2.8700    1.7500    0.5670 H   0  0  0  0  0  0  0  0  0  0  0  0
    1.7866   -1.5466    0.9292 H   0  0  0  0  0  0  0  0  0  0  0  0
    5.8129   -5.0936    5.8356 H   0  0  0  0  0  0  0  0  0  0  0  0
    7.0933   -4.3673    5.1286 H   0  0  0  0  0  0  0  0  0  0  0  0
    6.5859   -6.0410    3.5840 H   0  0  0  0  0  0  0  0  0  0  0  0
    4.9786   -5.8336    3.7849 H   0  0  0  0  0  0  0  0  0  0  0  0
    6.8173   -3.9827    2.5174 H   0  0  0  0  0  0  0  0  0  0  0  0
    5.4089   -4.5302    1.8983 H   0  0  0  0  0  0  0  0  0  0  0  0
    5.7370   -0.6252    3.4799 H   0  0  0  0  0  0  0  0  0  0  0  0
    4.5374    1.1686    2.4421 H   0  0  0  0  0  0  0  0  0  0  0  0
    1.9715   -3.8027    1.3409 H   0  0  0  0  0  0  0  0  0  0  0  0
    3.4988   -4.3692    1.4543 H   0  0  0  0  0  0  0  0  0  0  0  0
    2.5894   -4.1981    2.7998 H   0  0  0  0  0  0  0  0  0  0  0  0
    0.8150    3.0525    1.0000 H   0  0  0  0  0  0  0  0  0  0  0  0
   -1.5953    2.1915    3.0600 H   0  0  0  0  0  0  0  0  0  0  0  0
   -4.8374    3.1204    2.4704 H   0  0  0  0  0  0  0  0  0  0  0  0
   -6.3305    1.2701    2.3380 H   0  0  0  0  0  0  0  0  0  0  0  0
   -5.7013    1.5884    0.8651 H   0  0  0  0  0  0  0  0  0  0  0  0
   -5.1255    0.3401    1.7465 H   0  0  0  0  0  0  0  0  0  0  0  0
   -4.9901    1.7072    4.3809 H   0  0  0  0  0  0  0  0  0  0  0  0
   -3.7852    0.7773    3.7894 H   0  0  0  0  0  0  0  0  0  0  0  0
   -3.4792    2.3132    4.2520 H   0  0  0  0  0  0  0  0  0  0  0  0
   -1.7821    0.5075   -4.1789 H   0  0  0  0  0  0  0  0  0  0  0  0
   -0.2599    2.2022   -4.9558 H   0  0  0  0  0  0  0  0  0  0  0  0
    0.4811    3.8863   -3.4048 H   0  0  0  0  0  0  0  0  0  0  0  0
  1  2  2  0  0  0  0
  2  3  1  0  0  0  0
  3  4  1  0  0  0  0
  4  5  1  0  0  0  0
  5  6  2  0  0  0  0
  6  7  1  0  0  0  0
  7  8  1  0  0  0  0
  8  9  1  0  0  0  0
  9 10  2  0  0  0  0
  9 11  1  0  0  0  0
 11 12  1  0  0  0  0
 12 13  1  0  0  0  0
 13  8  1  0  0  0  0
  7 14  2  0  0  0  0
 14 15  1  0  0  0  0
 15  4  2  0  0  0  0
  6 16  1  0  0  0  0
  2 17  1  0  0  0  0
 17 18  1  0  0  0  0
 18 19  1  0  0  0  0
 19 20  1  0  0  0  0
 20 21  2  0  0  0  0
 21 22  1  0  0  0  0
 18 22  2  0  0  0  0
 21 23  1  0  0  0  0
 23 24  1  0  0  0  0
 23 25  1  0  0  0  0
 19 26  1  0  0  0  0
 26 27  1  0  0  0  0
 27 28  2  0  0  0  0
 28 29  1  0  0  0  0
 29 30  2  0  0  0  0
 30 31  1  0  0  0  0
 31 26  2  0  0  0  0
  3 32  1  0  0  0  0
  5 33  1  0  0  0  0
 11 34  1  0  0  0  0
 11 35  1  0  0  0  0
 12 36  1  0  0  0  0
 12 37  1  0  0  0  0
 13 38  1  0  0  0  0
 13 39  1  0  0  0  0
 14 40  1  0  0  0  0
 15 41  1  0  0  0  0
 16 42  1  0  0  0  0
 16 43  1  0  0  0  0
 16 44  1  0  0  0  0
 17 45  1  0  0  0  0
 22 46  1  0  0  0  0
 23 47  1  0  0  0  0
 24 48  1  0  0  0  0
 24 49  1  0  0  0  0
 24 50  1  0  0  0  0
 25 51  1  0  0  0  0
 25 52  1  0  0  0  0
 25 53  1  0  0  0  0
 28 54  1  0  0  0  0
 29 55  1  0  0  0  0
 30 56  1  0  0  0  0
M  END
>  <result-rank>
24

>  <similarity>
0.915

>  <query-name>


>  <query-smiles>
Fc1c(F)ccc(NC(=O)c2nc(cnc2Nc3cncnc3)C4CC4)c1C(=O)N5CCC5

>  <source>
REALspace_2019-12

>  <similarity-descriptor>
0.873;0.998;0.944;0.796;0.921;1.000;0.995;0.921;0.998;0.091

>  <similarity-descriptor-smiles>
C(C)C;N1CCCC1=O;c1ccccc1;NC1=CC=NN1;c1ncccn1;N;O=C;c1ncccn1;N1CCCC1=O;C

>  <reaction-name>
s_2430a

>  <reagent1-name>
8989258

>  <reagent1-smiles>
[R1*]C(=O)NC=1N(N=C(C1)C(C)C)c2ncccn2

>  <reagent2-name>
4862870

>  <reagent2-smiles>
[R1*]Nc1cc(c(N2C(=O)CCC2)cc1)C

$$$$
s_274090____12937272____12354574
          04022017343D 1   1.00000     0.00000     0
            
 43 46  0  0  0  0            999 V2000
    7.6907   -1.5855    1.1238 O   0  0  0  0  0  0  0  0  0  0  0  0
    7.3637   -1.5825    2.2984 C   0  0  0  0  0  0  0  0  0  0  0  0
    6.0631   -1.5265    2.7896 N   0  0  0  0  0  0  0  0  0  0  0  0
    4.9091   -1.4568    1.9996 C   0  0  0  0  0  0  0  0  0  0  0  0
    4.2141   -0.2565    1.8951 C   0  0  0  0  0  0  0  0  0  0  0  0
    3.0698   -0.2074    1.1056 C   0  0  0  0  0  0  0  0  0  0  0  0
    2.3700    1.0000    1.0000 N   0  0  0  0  0  0  0  0  0  0  0  0
    1.0000    1.0000    1.0000 C   0  0  0  0  0  0  0  0  0  0  0  0
    0.4000   -0.0392    1.0000 O   0  0  0  0  0  0  0  0  0  0  0  0
    0.2400    2.3164    1.0000 C   0  0  0  0  0  0  0  0  0  0  0  0
   -0.0050    2.7407   -0.3860 N   0  0  0  0  0  0  0  0  0  0  0  0
   -1.0542    2.4291   -1.1064 N   0  0  0  0  0  0  0  0  0  0  0  0
   -0.9832    2.9424   -2.2585 N   0  0  0  0  0  0  0  0  0  0  0  0
    0.1820    3.6453   -2.3269 C   0  0  0  0  0  0  0  0  0  0  0  0
    0.8184    3.5233   -1.1321 C   0  0  0  0  0  0  0  0  0  0  0  0
    0.6826    4.4317   -3.5282 C   0  0  0  0  0  0  0  0  0  0  0  0
    0.8601    5.8819   -3.1852 C   0  0  0  0  0  0  0  0  0  0  0  0
   -0.3173    5.4440   -4.0082 C   0  0  0  0  0  0  0  0  0  0  0  0
    2.6179   -1.3332    0.4252 C   0  0  0  0  0  0  0  0  0  0  0  0
    3.3287   -2.5226    0.5444 C   0  0  0  0  0  0  0  0  0  0  0  0
    4.4750   -2.5953    1.3282 C   0  0  0  0  0  0  0  0  0  0  0  0
    6.0746   -1.5559    4.2530 C   0  0  0  0  0  0  0  0  0  0  0  0
    7.3936   -2.2320    4.5595 C   0  0  0  0  0  0  0  0  0  0  0  0
    8.2963   -1.6512    3.4903 C   0  0  0  0  0  0  0  0  0  0  0  0
    4.5320    0.5583    2.3798 H   0  0  0  0  0  0  0  0  0  0  0  0
    2.8700    1.8627    0.9245 H   0  0  0  0  0  0  0  0  0  0  0  0
   -0.6338    2.1968    1.4714 H   0  0  0  0  0  0  0  0  0  0  0  0
    0.7804    3.0133    1.4714 H   0  0  0  0  0  0  0  0  0  0  0  0
    1.6957    3.9203   -0.8625 H   0  0  0  0  0  0  0  0  0  0  0  0
    1.3018    3.9973   -4.1824 H   0  0  0  0  0  0  0  0  0  0  0  0
    1.5972    6.4091   -3.6080 H   0  0  0  0  0  0  0  0  0  0  0  0
    0.7245    6.1935   -2.2447 H   0  0  0  0  0  0  0  0  0  0  0  0
   -1.2368    5.4636   -3.6157 H   0  0  0  0  0  0  0  0  0  0  0  0
   -0.3641    5.6793   -4.9790 H   0  0  0  0  0  0  0  0  0  0  0  0
    1.7948   -1.2880   -0.1409 H   0  0  0  0  0  0  0  0  0  0  0  0
    3.0108   -3.3374    0.0596 H   0  0  0  0  0  0  0  0  0  0  0  0
    4.9806   -3.4544    1.4082 H   0  0  0  0  0  0  0  0  0  0  0  0
    5.3056   -2.0866    4.6094 H   0  0  0  0  0  0  0  0  0  0  0  0
    6.0460   -0.6313    4.6329 H   0  0  0  0  0  0  0  0  0  0  0  0
    7.3216   -3.2258    4.4746 H   0  0  0  0  0  0  0  0  0  0  0  0
    7.7180   -1.9984    5.4761 H   0  0  0  0  0  0  0  0  0  0  0  0
    8.6263   -0.7428    3.7469 H   0  0  0  0  0  0  0  0  0  0  0  0
    9.0763   -2.2499    3.3080 H   0  0  0  0  0  0  0  0  0  0  0  0
  1  2  2  0  0  0  0
  2  3  1  0  0  0  0
  3  4  1  0  0  0  0
  4  5  1  0  0  0  0
  5  6  2  0  0  0  0
  6  7  1  0  0  0  0
  7  8  1  0  0  0  0
  8  9  2  0  0  0  0
  8 10  1  0  0  0  0
 10 11  1  0  0  0  0
 11 12  1  0  0  0  0
 12 13  2  0  0  0  0
 13 14  1  0  0  0  0
 14 15  2  0  0  0  0
 15 11  1  0  0  0  0
 14 16  1  0  0  0  0
 16 17  1  0  0  0  0
 17 18  1  0  0  0  0
 18 16  1  0  0  0  0
  6 19  1  0  0  0  0
 19 20  2  0  0  0  0
 20 21  1  0  0  0  0
 21  4  2  0  0  0  0
  3 22  1  0  0  0  0
 22 23  1  0  0  0  0
 23 24  1  0  0  0  0
 24  2  1  0  0  0  0
  5 25  1  0  0  0  0
  7 26  1  0  0  0  0
 10 27  1  0  0  0  0
 10 28  1  0  0  0  0
 15 29  1  0  0  0  0
 16 30  1  0  0  0  0
 17 31  1  0  0  0  0
 17 32  1  0  0  0  0
 18 33  1  0  0  0  0
 18 34  1  0  0  0  0
 19 35  1  0  0  0  0
 20 36  1  0  0  0  0
 21 37  1  0  0  0  0
 22 38  1  0  0  0  0
 22 39  1  0  0  0  0
 23 40  1  0  0  0  0
 23 41  1  0  0  0  0
 24 42  1  0  0  0  0
 24 43  1  0  0  0  0
M  END
>  <result-rank>
25

>  <similarity>
0.915

>  <query-name>


>  <query-smiles>
Fc1c(F)ccc(NC(=O)c2nc(cnc2Nc3cncnc3)C4CC4)c1C(=O)N5CCC5

>  <source>
REALspace_2019-12

>  <similarity-descriptor>
1.000;0.998;0.928;0.891;0.0;1.000;1.000;0.0;0.998;0.0

>  <similarity-descriptor-smiles>
C1CC1;O=C1CCCN1;c1ccccc1;CN1C=CN=N1;;N;C=O;;O=C1CCCN1;

>  <reaction-name>
s_274090

>  <reagent1-name>
12937272

>  <reagent1-smiles>
[R1*]N=NN([R2*])CC(=O)Nc1cc(N2C(=O)CCC2)ccc1

>  <reagent2-name>
12354574

>  <reagent2-smiles>
[R1*]C(=C[R2*])C1CC1

$$$$
s_22____7639468____11678546
          04022017343D 1   1.00000     0.00000     0
            
 44 47  0  0  0  0            999 V2000
    2.4367   -1.1998    1.8109 F   0  0  0  0  0  0  0  0  0  0  0  0
    3.1076   -0.1232    1.4141 C   0  0  0  0  0  0  0  0  0  0  0  0
    2.3992    1.0000    1.0000 C   0  0  0  0  0  0  0  0  0  0  0  0
    1.0000    1.0000    1.0000 N   0  0  0  0  0  0  0  0  0  0  0  0
    0.3085    2.1977    0.9950 N   0  0  0  0  0  0  0  0  0  0  0  0
   -1.0527    2.2034    1.1498 C   0  0  0  0  0  0  0  0  0  0  0  0
   -1.6450    1.1692    1.2898 O   0  0  0  0  0  0  0  0  0  0  0  0
   -1.7780    3.4597    1.1446 C   0  0  0  0  0  0  0  0  0  0  0  0
   -1.1563    4.6401    0.9911 N   0  0  0  0  0  0  0  0  0  0  0  0
   -1.8231    5.8062    0.9855 C   0  0  0  0  0  0  0  0  0  0  0  0
   -3.2055    5.8209    1.1414 C   0  0  0  0  0  0  0  0  0  0  0  0
   -3.8585    4.6044    1.3019 C   0  0  0  0  0  0  0  0  0  0  0  0
   -3.1570    3.4053    1.3063 C   0  0  0  0  0  0  0  0  0  0  0  0
   -3.9216    7.0498    1.1357 C   0  0  0  0  0  0  0  0  0  0  0  0
   -5.1343    7.1119    1.2705 O   0  0  0  0  0  0  0  0  0  0  0  0
   -3.2261    8.2167    0.9751 N   0  0  0  0  0  0  0  0  0  0  0  0
   -1.8640    8.2219    0.8198 C   0  0  0  0  0  0  0  0  0  0  0  0
   -1.1541    7.0487    0.8216 C   0  0  0  0  0  0  0  0  0  0  0  0
    3.0936    2.1300    0.5829 C   0  0  0  0  0  0  0  0  0  0  0  0
    2.4236    3.2076    0.1845 F   0  0  0  0  0  0  0  0  0  0  0  0
    4.4841    2.1464    0.5773 C   0  0  0  0  0  0  0  0  0  0  0  0
    5.1697    1.0114    0.9963 C   0  0  0  0  0  0  0  0  0  0  0  0
    4.4980   -0.1310    1.4176 C   0  0  0  0  0  0  0  0  0  0  0  0
    6.6186    1.0158    0.9963 C   0  0  0  0  0  0  0  0  0  0  0  0
    7.2210    0.0427    1.3571 O   0  0  0  0  0  0  0  0  0  0  0  0
    7.3009    2.1307    0.5859 N   0  0  0  0  0  0  0  0  0  0  0  0
    8.7693    2.1348    0.5875 C   0  0  0  0  0  0  0  0  0  0  0  0
    9.3177    3.2102    1.4803 C   0  0  0  0  0  0  0  0  0  0  0  0
    9.3284    3.3937   -0.0105 C   0  0  0  0  0  0  0  0  0  0  0  0
    0.5000    0.1340    1.0036 H   0  0  0  0  0  0  0  0  0  0  0  0
    0.8021    3.0595    0.8784 H   0  0  0  0  0  0  0  0  0  0  0  0
   -4.8518    4.5922    1.4164 H   0  0  0  0  0  0  0  0  0  0  0  0
   -3.6291    2.5314    1.4220 H   0  0  0  0  0  0  0  0  0  0  0  0
   -3.7221    9.0850    0.9708 H   0  0  0  0  0  0  0  0  0  0  0  0
   -1.3828    9.0908    0.7039 H   0  0  0  0  0  0  0  0  0  0  0  0
   -0.1609    7.0678    0.7069 H   0  0  0  0  0  0  0  0  0  0  0  0
    4.9822    2.9599    0.2772 H   0  0  0  0  0  0  0  0  0  0  0  0
    5.0038   -0.9403    1.7164 H   0  0  0  0  0  0  0  0  0  0  0  0
    6.7989    2.9416    0.2853 H   0  0  0  0  0  0  0  0  0  0  0  0
    9.2674    1.2738    0.4852 H   0  0  0  0  0  0  0  0  0  0  0  0
   10.1758    3.0625    1.9721 H   0  0  0  0  0  0  0  0  0  0  0  0
    8.6984    3.7541    2.0466 H   0  0  0  0  0  0  0  0  0  0  0  0
    8.7162    4.0596   -0.4368 H   0  0  0  0  0  0  0  0  0  0  0  0
   10.1936    3.3680   -0.5113 H   0  0  0  0  0  0  0  0  0  0  0  0
  1  2  1  0  0  0  0
  2  3  1  0  0  0  0
  3  4  1  0  0  0  0
  4  5  1  0  0  0  0
  5  6  1  0  0  0  0
  6  7  2  0  0  0  0
  6  8  1  0  0  0  0
  8  9  1  0  0  0  0
  9 10  2  0  0  0  0
 10 11  1  0  0  0  0
 11 12  2  0  0  0  0
 12 13  1  0  0  0  0
 13  8  2  0  0  0  0
 11 14  1  0  0  0  0
 14 15  2  0  0  0  0
 14 16  1  0  0  0  0
 16 17  1  0  0  0  0
 17 18  2  0  0  0  0
 18 10  1  0  0  0  0
  3 19  2  0  0  0  0
 19 20  1  0  0  0  0
 19 21  1  0  0  0  0
 21 22  2  0  0  0  0
 22 23  1  0  0  0  0
 23  2  2  0  0  0  0
 22 24  1  0  0  0  0
 24 25  2  0  0  0  0
 24 26  1  0  0  0  0
 26 27  1  0  0  0  0
 27 28  1  0  0  0  0
 28 29  1  0  0  0  0
 29 27  1  0  0  0  0
  4 30  1  0  0  0  0
  5 31  1  0  0  0  0
 12 32  1  0  0  0  0
 13 33  1  0  0  0  0
 16 34  1  0  0  0  0
 17 35  1  0  0  0  0
 18 36  1  0  0  0  0
 21 37  1  0  0  0  0
 23 38  1  0  0  0  0
 26 39  1  0  0  0  0
 27 40  1  0  0  0  0
 28 41  1  0  0  0  0
 28 42  1  0  0  0  0
 29 43  1  0  0  0  0
 29 44  1  0  0  0  0
M  END
>  <result-rank>
26

>  <similarity>
0.915

>  <query-name>


>  <query-smiles>
Fc1c(F)ccc(NC(=O)c2nc(cnc2Nc3cncnc3)C4CC4)c1C(=O)N5CCC5

>  <source>
REALspace_2019-12

>  <similarity-descriptor>
0.0;0.969;1.000;0.852;0.937;0.975;0.848;0.937;0.852;0.0

>  <similarity-descriptor-smiles>
;C1CC1;Fc1cccc(c1)F;c1ccccn1;c1C=CNC(c1)=O;N;NC=O;c1C=CNC(c1)=O;C(=O)N;

>  <reaction-name>
s_22

>  <reagent1-name>
7639468

>  <reagent1-smiles>
[R1*]NNc1c(F)cc(cc1F)C(=O)NC2CC2

>  <reagent2-name>
11678546

>  <reagent2-smiles>
[R1*]C(=O)c1nc2c(cc1)C(=O)NC=C2

$$$$
s_527a____4786924____3225118
          04022017343D 1   1.00000     0.00000     0
            
 49 52  0  0  0  0            999 V2000
    2.8869   -3.6364    0.0616 F   0  0  0  0  0  0  0  0  0  0  0  0
    3.3151   -2.3850   -0.0689 C   0  0  0  0  0  0  0  0  0  0  0  0
    4.4604   -2.1157   -0.8099 C   0  0  0  0  0  0  0  0  0  0  0  0
    5.1563   -3.1675   -1.4154 N   0  0  0  0  0  0  0  0  0  0  0  0
    5.8089   -4.1894   -0.7329 C   0  0  0  0  0  0  0  0  0  0  0  0
    5.8774   -4.3182    0.4777 O   0  0  0  0  0  0  0  0  0  0  0  0
    6.4277   -5.1045   -1.7697 C   0  0  0  0  0  0  0  0  0  0  0  0
    6.5702   -4.1768   -2.9590 C   0  0  0  0  0  0  0  0  0  0  0  0
    5.3071   -3.3489   -2.8600 C   0  0  0  0  0  0  0  0  0  0  0  0
    4.9098   -0.8065   -0.9476 C   0  0  0  0  0  0  0  0  0  0  0  0
    4.2136    0.2353   -0.3438 C   0  0  0  0  0  0  0  0  0  0  0  0
    3.0698   -0.0498    0.3939 C   0  0  0  0  0  0  0  0  0  0  0  0
    2.3700    1.0000    1.0000 N   0  0  0  0  0  0  0  0  0  0  0  0
    1.0000    1.0000    1.0000 C   0  0  0  0  0  0  0  0  0  0  0  0
    0.4000   -0.0392    1.0000 O   0  0  0  0  0  0  0  0  0  0  0  0
    0.2400    2.3164    1.0000 C   0  0  0  0  0  0  0  0  0  0  0  0
    1.2282    3.4722    1.0000 C   0  0  0  0  0  0  0  0  0  0  0  0
    1.8643    3.8912    2.1979 C   0  0  0  0  0  0  0  0  0  0  0  0
    2.7181    4.9013    2.1562 N   0  0  0  0  0  0  0  0  0  0  0  0
    3.0073    5.5611    0.9926 C   0  0  0  0  0  0  0  0  0  0  0  0
    2.4225    5.1835   -0.1679 N   0  0  0  0  0  0  0  0  0  0  0  0
    2.8314    5.9247   -1.1722 N   0  0  0  0  0  0  0  0  0  0  0  0
    3.7174    6.8274   -0.6741 C   0  0  0  0  0  0  0  0  0  0  0  0
    4.3040    7.6854   -1.3143 O   0  0  0  0  0  0  0  0  0  0  0  0
    3.8403    6.6058    0.7150 C   0  0  0  0  0  0  0  0  0  0  0  0
    1.5358    4.1441   -0.1534 C   0  0  0  0  0  0  0  0  0  0  0  0
    0.8683    3.7096   -1.4490 C   0  0  0  0  0  0  0  0  0  0  0  0
    1.5293    3.1539    3.4851 C   0  0  0  0  0  0  0  0  0  0  0  0
    2.6082   -1.3535    0.5401 C   0  0  0  0  0  0  0  0  0  0  0  0
    5.8265   -5.8755   -1.9797 H   0  0  0  0  0  0  0  0  0  0  0  0
    7.3169   -5.4479   -1.4675 H   0  0  0  0  0  0  0  0  0  0  0  0
    7.3871   -3.6055   -2.8792 H   0  0  0  0  0  0  0  0  0  0  0  0
    6.6038   -4.6883   -3.8177 H   0  0  0  0  0  0  0  0  0  0  0  0
    5.4142   -2.4700   -3.3249 H   0  0  0  0  0  0  0  0  0  0  0  0
    4.5244   -3.8370   -3.2462 H   0  0  0  0  0  0  0  0  0  0  0  0
    5.7336   -0.6142   -1.4809 H   0  0  0  0  0  0  0  0  0  0  0  0
    4.5319    1.1785   -0.4391 H   0  0  0  0  0  0  0  0  0  0  0  0
    2.8700    1.7500    1.4330 H   0  0  0  0  0  0  0  0  0  0  0  0
   -0.3349    2.3693    1.8165 H   0  0  0  0  0  0  0  0  0  0  0  0
   -0.3349    2.3693    0.1835 H   0  0  0  0  0  0  0  0  0  0  0  0
    2.5442    5.8406   -2.1264 H   0  0  0  0  0  0  0  0  0  0  0  0
    4.4163    7.1084    1.3596 H   0  0  0  0  0  0  0  0  0  0  0  0
    0.2532    2.9427   -1.2661 H   0  0  0  0  0  0  0  0  0  0  0  0
    0.3453    4.4735   -1.8270 H   0  0  0  0  0  0  0  0  0  0  0  0
    1.5674    3.4270   -2.1057 H   0  0  0  0  0  0  0  0  0  0  0  0
    0.8666    2.4303    3.2920 H   0  0  0  0  0  0  0  0  0  0  0  0
    2.3620    2.7506    3.8646 H   0  0  0  0  0  0  0  0  0  0  0  0
    1.1391    3.7958    4.1451 H   0  0  0  0  0  0  0  0  0  0  0  0
    1.7840   -1.5456    1.0728 H   0  0  0  0  0  0  0  0  0  0  0  0
  1  2  1  0  0  0  0
  2  3  1  0  0  0  0
  3  4  1  0  0  0  0
  4  5  1  0  0  0  0
  5  6  2  0  0  0  0
  5  7  1  0  0  0  0
  7  8  1  0  0  0  0
  8  9  1  0  0  0  0
  9  4  1  0  0  0  0
  3 10  2  0  0  0  0
 10 11  1  0  0  0  0
 11 12  2  0  0  0  0
 12 13  1  0  0  0  0
 13 14  1  0  0  0  0
 14 15  2  0  0  0  0
 14 16  1  0  0  0  0
 16 17  1  0  0  0  0
 17 18  1  0  0  0  0
 18 19  2  0  0  0  0
 19 20  1  0  0  0  0
 20 21  1  0  0  0  0
 21 22  1  0  0  0  0
 22 23  1  0  0  0  0
 23 24  2  0  0  0  0
 23 25  1  0  0  0  0
 20 25  2  0  0  0  0
 21 26  1  0  0  0  0
 17 26  2  0  0  0  0
 26 27  1  0  0  0  0
 18 28  1  0  0  0  0
 12 29  1  0  0  0  0
 29  2  2  0  0  0  0
  7 30  1  0  0  0  0
  7 31  1  0  0  0  0
  8 32  1  0  0  0  0
  8 33  1  0  0  0  0
  9 34  1  0  0  0  0
  9 35  1  0  0  0  0
 10 36  1  0  0  0  0
 11 37  1  0  0  0  0
 13 38  1  0  0  0  0
 16 39  1  0  0  0  0
 16 40  1  0  0  0  0
 22 41  1  0  0  0  0
 25 42  1  0  0  0  0
 27 43  1  0  0  0  0
 27 44  1  0  0  0  0
 27 45  1  0  0  0  0
 28 46  1  0  0  0  0
 28 47  1  0  0  0  0
 28 48  1  0  0  0  0
 29 49  1  0  0  0  0
M  END
>  <result-rank>
27

>  <similarity>
0.914

>  <query-name>


>  <query-smiles>
Fc1c(F)ccc(NC(=O)c2nc(cnc2Nc3cncnc3)C4CC4)c1C(=O)N5CCC5

>  <source>
REALspace_2019-12

>  <similarity-descriptor>
0.0;0.998;0.964;0.843;0.913;1.000;1.000;0.913;0.998;0.222

>  <similarity-descriptor-smiles>
;N1CCCC1=O;Fc1ccccc1;CC1=CNCN=C1;C1=CC(NN1)=O;N;C=O;C1=CC(NN1)=O;N1CCCC1=O;C.C

>  <reaction-name>
s_527a

>  <reagent1-name>
4786924

>  <reagent1-smiles>
[R1*]Nc1cc(F)c(N2C(=O)CCC2)cc1

>  <reagent2-name>
3225118

>  <reagent2-smiles>
[R1*]C(=O)CC=1C(=NC=2N(NC(=O)C2)C1C)C

$$$$
s_22____7639468____6402696
          04022017343D 1   1.00000     0.00000     0
            
 51 54  0  0  0  0            999 V2000
    1.9369   -0.9165   -0.9206 F   0  0  0  0  0  0  0  0  0  0  0  0
    2.8422   -1.1685    0.0194 C   0  0  0  0  0  0  0  0  0  0  0  0
    3.0826   -0.2117    1.0000 C   0  0  0  0  0  0  0  0  0  0  0  0
    2.3830    1.0000    1.0000 N   0  0  0  0  0  0  0  0  0  0  0  0
    1.0000    1.0000    1.0000 N   0  0  0  0  0  0  0  0  0  0  0  0
    0.3150    2.1865    1.0000 C   0  0  0  0  0  0  0  0  0  0  0  0
    0.9150    3.2257    1.0000 O   0  0  0  0  0  0  0  0  0  0  0  0
   -1.1355    2.1865    1.0000 C   0  0  0  0  0  0  0  0  0  0  0  0
   -1.9181    3.3030    1.0000 N   0  0  0  0  0  0  0  0  0  0  0  0
   -3.1732    2.9167    0.9984 N   0  0  0  0  0  0  0  0  0  0  0  0
   -4.2814    3.7804    0.9995 C   0  0  0  0  0  0  0  0  0  0  0  0
   -5.5376    3.2991    0.9976 N   0  0  0  0  0  0  0  0  0  0  0  0
   -6.6248    4.0905    0.9959 C   0  0  0  0  0  0  0  0  0  0  0  0
   -6.4282    5.4678    0.9969 C   0  0  0  0  0  0  0  0  0  0  0  0
   -5.1360    5.9858    0.9998 C   0  0  0  0  0  0  0  0  0  0  0  0
   -4.1111    5.1150    1.0006 N   0  0  0  0  0  0  0  0  0  0  0  0
   -4.9439    7.4987    1.0022 C   0  0  0  0  0  0  0  0  0  0  0  0
   -8.0480    3.5445    0.9929 C   0  0  0  0  0  0  0  0  0  0  0  0
   -3.2404    1.5560    0.9984 C   0  0  0  0  0  0  0  0  0  0  0  0
   -4.2579    0.8824    0.9980 O   0  0  0  0  0  0  0  0  0  0  0  0
   -1.9162    1.0709    0.9999 C   0  0  0  0  0  0  0  0  0  0  0  0
    4.0284   -0.4675    1.9864 C   0  0  0  0  0  0  0  0  0  0  0  0
    4.2648    0.4427    2.9270 F   0  0  0  0  0  0  0  0  0  0  0  0
    4.7320   -1.6669    2.0009 C   0  0  0  0  0  0  0  0  0  0  0  0
    4.4735   -2.6078    1.0100 C   0  0  0  0  0  0  0  0  0  0  0  0
    3.5328   -2.3754    0.0127 C   0  0  0  0  0  0  0  0  0  0  0  0
    5.1989   -3.8621    1.0143 C   0  0  0  0  0  0  0  0  0  0  0  0
    6.3443   -3.8916    1.3709 O   0  0  0  0  0  0  0  0  0  0  0  0
    4.5771   -5.0144    0.6113 N   0  0  0  0  0  0  0  0  0  0  0  0
    5.3122   -6.2855    0.6156 C   0  0  0  0  0  0  0  0  0  0  0  0
    5.3802   -6.8891   -0.7575 C   0  0  0  0  0  0  0  0  0  0  0  0
    4.4286   -7.4471    0.2621 C   0  0  0  0  0  0  0  0  0  0  0  0
    2.8830    1.8660    1.0000 H   0  0  0  0  0  0  0  0  0  0  0  0
    0.5000    0.1340    1.0000 H   0  0  0  0  0  0  0  0  0  0  0  0
   -1.5936    4.2489    1.0011 H   0  0  0  0  0  0  0  0  0  0  0  0
   -7.2147    6.0854    0.9955 H   0  0  0  0  0  0  0  0  0  0  0  0
   -5.8372    7.9481    1.0011 H   0  0  0  0  0  0  0  0  0  0  0  0
   -4.4358    7.7689    1.8199 H   0  0  0  0  0  0  0  0  0  0  0  0
   -4.4328    7.7711    0.1869 H   0  0  0  0  0  0  0  0  0  0  0  0
   -8.6969    4.3053    0.9920 H   0  0  0  0  0  0  0  0  0  0  0  0
   -8.1887    2.9853    0.1758 H   0  0  0  0  0  0  0  0  0  0  0  0
   -8.1919    2.9846    1.8088 H   0  0  0  0  0  0  0  0  0  0  0  0
   -1.6163    0.1169    1.0007 H   0  0  0  0  0  0  0  0  0  0  0  0
    5.4119   -1.8495    2.7111 H   0  0  0  0  0  0  0  0  0  0  0  0
    3.3568   -3.0609   -0.6937 H   0  0  0  0  0  0  0  0  0  0  0  0
    3.6225   -4.9899    0.3141 H   0  0  0  0  0  0  0  0  0  0  0  0
    6.0718   -6.4166    1.2527 H   0  0  0  0  0  0  0  0  0  0  0  0
    6.1840   -7.4166   -1.0326 H   0  0  0  0  0  0  0  0  0  0  0  0
    5.0288   -6.3820   -1.5446 H   0  0  0  0  0  0  0  0  0  0  0  0
    3.4438   -7.3114    0.1539 H   0  0  0  0  0  0  0  0  0  0  0  0
    4.5989   -8.3460    0.6658 H   0  0  0  0  0  0  0  0  0  0  0  0
  1  2  1  0  0  0  0
  2  3  1  0  0  0  0
  3  4  1  0  0  0  0
  4  5  1  0  0  0  0
  5  6  1  0  0  0  0
  6  7  2  0  0  0  0
  6  8  1  0  0  0  0
  8  9  1  0  0  0  0
  9 10  1  0  0  0  0
 10 11  1  0  0  0  0
 11 12  1  0  0  0  0
 12 13  2  0  0  0  0
 13 14  1  0  0  0  0
 14 15  2  0  0  0  0
 15 16  1  0  0  0  0
 16 11  2  0  0  0  0
 15 17  1  0  0  0  0
 13 18  1  0  0  0  0
 10 19  1  0  0  0  0
 19 20  2  0  0  0  0
 19 21  1  0  0  0  0
  8 21  2  0  0  0  0
  3 22  2  0  0  0  0
 22 23  1  0  0  0  0
 22 24  1  0  0  0  0
 24 25  2  0  0  0  0
 25 26  1  0  0  0  0
 26  2  2  0  0  0  0
 25 27  1  0  0  0  0
 27 28  2  0  0  0  0
 27 29  1  0  0  0  0
 29 30  1  0  0  0  0
 30 31  1  0  0  0  0
 31 32  1  0  0  0  0
 32 30  1  0  0  0  0
  4 33  1  0  0  0  0
  5 34  1  0  0  0  0
  9 35  1  0  0  0  0
 14 36  1  0  0  0  0
 17 37  1  0  0  0  0
 17 38  1  0  0  0  0
 17 39  1  0  0  0  0
 18 40  1  0  0  0  0
 18 41  1  0  0  0  0
 18 42  1  0  0  0  0
 21 43  1  0  0  0  0
 24 44  1  0  0  0  0
 26 45  1  0  0  0  0
 29 46  1  0  0  0  0
 30 47  1  0  0  0  0
 31 48  1  0  0  0  0
 31 49  1  0  0  0  0
 32 50  1  0  0  0  0
 32 51  1  0  0  0  0
M  END
>  <result-rank>
28

>  <similarity>
0.914

>  <query-name>


>  <query-smiles>
Fc1c(F)ccc(NC(=O)c2nc(cnc2Nc3cncnc3)C4CC4)c1C(=O)N5CCC5

>  <source>
REALspace_2019-12

>  <similarity-descriptor>
0.0;0.969;1.000;0.917;0.902;0.975;0.848;0.917;0.852;0.091

>  <similarity-descriptor-smiles>
;C1CC1;Fc1cccc(c1)F;C1=CC(NN1)=O;c1nccc(n1)C;N;NC=O;C1=CC(NN1)=O;C(=O)N;C

>  <reaction-name>
s_22

>  <reagent1-name>
7639468

>  <reagent1-smiles>
[R1*]NNc1c(F)cc(cc1F)C(=O)NC2CC2

>  <reagent2-name>
6402696

>  <reagent2-smiles>
[R1*]C(=O)C=1NN(c2nc(cc(n2)C)C)C(=O)C1

$$$$
s_22____8686200____903526
          04022017343D 1   1.00000     0.00000     0
            
 46 48  0  0  0  0            999 V2000
    1.8038   -0.7854   -1.3958 Cl  0  0  0  0  0  0  0  0  0  0  0  0
    2.9107   -1.1493   -0.0500 C   0  0  0  0  0  0  0  0  0  0  0  0
    3.0951   -0.2559    1.0000 C   0  0  0  0  0  0  0  0  0  0  0  0
    3.9380   -0.5662    1.9957 N   0  0  0  0  0  0  0  0  0  0  0  0
    4.6133   -1.7252    2.0037 C   0  0  0  0  0  0  0  0  0  0  0  0
    4.4513   -2.6028    1.0022 N   0  0  0  0  0  0  0  0  0  0  0  0
    3.6214   -2.3435   -0.0183 C   0  0  0  0  0  0  0  0  0  0  0  0
    5.4911   -2.0405    3.0468 N   0  0  0  0  0  0  0  0  0  0  0  0
    6.2200   -3.3170    3.0334 C   0  0  0  0  0  0  0  0  0  0  0  0
    7.5488   -3.1354    2.3107 C   0  0  0  0  0  0  0  0  0  0  0  0
    7.7597   -3.2989    1.0243 O   0  0  0  0  0  0  0  0  0  0  0  0
    9.0195   -3.0644    0.7275 C   0  0  0  0  0  0  0  0  0  0  0  0
    9.6691   -2.7351    1.8790 C   0  0  0  0  0  0  0  0  0  0  0  0
    8.7128   -2.7812    2.9198 C   0  0  0  0  0  0  0  0  0  0  0  0
    2.3700    1.0000    1.0000 C   0  0  0  0  0  0  0  0  0  0  0  0
    2.9700    2.0392    1.0000 O   0  0  0  0  0  0  0  0  0  0  0  0
    1.0000    1.0000    1.0000 N   0  0  0  0  0  0  0  0  0  0  0  0
    0.3006    2.2114    1.0000 C   0  0  0  0  0  0  0  0  0  0  0  0
   -1.0899    2.1918    1.0000 C   0  0  0  0  0  0  0  0  0  0  0  0
   -1.7750    3.4014    1.0002 C   0  0  0  0  0  0  0  0  0  0  0  0
   -3.1042    3.4082    0.9993 F   0  0  0  0  0  0  0  0  0  0  0  0
   -1.0865    4.6095    1.0003 C   0  0  0  0  0  0  0  0  0  0  0  0
   -1.7600    5.7782    1.0012 O   0  0  0  0  0  0  0  0  0  0  0  0
   -2.1138    6.3928    2.2315 C   0  0  0  0  0  0  0  0  0  0  0  0
   -1.4748    7.7696    2.3122 C   0  0  0  0  0  0  0  0  0  0  0  0
   -3.6253    6.5302    2.3131 C   0  0  0  0  0  0  0  0  0  0  0  0
    0.3038    4.6044    1.0000 C   0  0  0  0  0  0  0  0  0  0  0  0
    0.9635    5.7586    0.9998 F   0  0  0  0  0  0  0  0  0  0  0  0
    1.0108    3.4068    0.9997 C   0  0  0  0  0  0  0  0  0  0  0  0
    3.5136   -3.0093   -0.7567 H   0  0  0  0  0  0  0  0  0  0  0  0
    5.6225   -1.3976    3.8013 H   0  0  0  0  0  0  0  0  0  0  0  0
    5.6742   -4.0076    2.5590 H   0  0  0  0  0  0  0  0  0  0  0  0
    6.3895   -3.6139    3.9731 H   0  0  0  0  0  0  0  0  0  0  0  0
    9.4287   -3.1183   -0.1834 H   0  0  0  0  0  0  0  0  0  0  0  0
   10.6378   -2.5047    1.9707 H   0  0  0  0  0  0  0  0  0  0  0  0
    8.8598   -2.5944    3.8911 H   0  0  0  0  0  0  0  0  0  0  0  0
    0.5000    0.1340    1.0000 H   0  0  0  0  0  0  0  0  0  0  0  0
   -1.5874    1.3243    0.9998 H   0  0  0  0  0  0  0  0  0  0  0  0
   -1.7888    5.8295    2.9911 H   0  0  0  0  0  0  0  0  0  0  0  0
   -1.7239    8.2025    3.1785 H   0  0  0  0  0  0  0  0  0  0  0  0
   -0.4803    7.6792    2.2585 H   0  0  0  0  0  0  0  0  0  0  0  0
   -1.7998    8.3330    1.5525 H   0  0  0  0  0  0  0  0  0  0  0  0
   -3.8744    6.9630    3.1794 H   0  0  0  0  0  0  0  0  0  0  0  0
   -3.9503    7.0935    1.5534 H   0  0  0  0  0  0  0  0  0  0  0  0
   -4.0457    5.6244    2.2600 H   0  0  0  0  0  0  0  0  0  0  0  0
    2.0108    3.4053    0.9994 H   0  0  0  0  0  0  0  0  0  0  0  0
  1  2  1  0  0  0  0
  2  3  1  0  0  0  0
  3  4  2  0  0  0  0
  4  5  1  0  0  0  0
  5  6  2  0  0  0  0
  6  7  1  0  0  0  0
  7  2  2  0  0  0  0
  5  8  1  0  0  0  0
  8  9  1  0  0  0  0
  9 10  1  0  0  0  0
 10 11  1  0  0  0  0
 11 12  1  0  0  0  0
 12 13  2  0  0  0  0
 13 14  1  0  0  0  0
 10 14  2  0  0  0  0
  3 15  1  0  0  0  0
 15 16  2  0  0  0  0
 15 17  1  0  0  0  0
 17 18  1  0  0  0  0
 18 19  1  0  0  0  0
 19 20  2  0  0  0  0
 20 21  1  0  0  0  0
 20 22  1  0  0  0  0
 22 23  1  0  0  0  0
 23 24  1  0  0  0  0
 24 25  1  0  0  0  0
 24 26  1  0  0  0  0
 22 27  2  0  0  0  0
 27 28  1  0  0  0  0
 27 29  1  0  0  0  0
 29 18  2  0  0  0  0
  7 30  1  0  0  0  0
  8 31  1  0  0  0  0
  9 32  1  0  0  0  0
  9 33  1  0  0  0  0
 12 34  1  0  0  0  0
 13 35  1  0  0  0  0
 14 36  1  0  0  0  0
 17 37  1  0  0  0  0
 19 38  1  0  0  0  0
 24 39  1  0  0  0  0
 25 40  1  0  0  0  0
 25 41  1  0  0  0  0
 25 42  1  0  0  0  0
 26 43  1  0  0  0  0
 26 44  1  0  0  0  0
 26 45  1  0  0  0  0
 29 46  1  0  0  0  0
M  END
>  <result-rank>
29

>  <similarity>
0.914

>  <query-name>


>  <query-smiles>
Fc1c(F)ccc(NC(=O)c2nc(cnc2Nc3cncnc3)C4CC4)c1C(=O)N5CCC5

>  <source>
REALspace_2019-12

>  <similarity-descriptor>
0.0;0.894;0.998;0.957;0.880;1.000;1.000;1.000;0.506;0.0

>  <similarity-descriptor-smiles>
;C(C)C;c1cc(cc(c1)F)F;Clc1cncnc1;CC1=CC=CO1;N;C=O;N;O;

>  <reaction-name>
s_22

>  <reagent1-name>
8686200

>  <reagent1-smiles>
[R1*]Nc1cc(F)c(OC(C)C)c(F)c1

>  <reagent2-name>
903526

>  <reagent2-smiles>
[R1*]C(=O)c1nc(ncc1Cl)NCC=2OC=CC2

$$$$
s_2430a____1041920____14943036
          04022017343D 1   1.00000     0.00000     0
            
 50 54  0  0  0  0            999 V2000
    2.4236   -1.1678    1.9086 F   0  0  0  0  0  0  0  0  0  0  0  0
    3.0970   -0.1104    1.4653 C   0  0  0  0  0  0  0  0  0  0  0  0
    2.4002    1.0000    1.0000 C   0  0  0  0  0  0  0  0  0  0  0  0
    1.0000    1.0000    1.0000 N   0  0  0  0  0  0  0  0  0  0  0  0
    0.3150    2.1864    0.9951 C   0  0  0  0  0  0  0  0  0  0  0  0
    0.7944    3.1582    1.5107 O   0  0  0  0  0  0  0  0  0  0  0  0
   -0.9451    2.2652    0.3882 N   0  0  0  0  0  0  0  0  0  0  0  0
   -1.7915    3.4557    0.3039 C   0  0  0  0  0  0  0  0  0  0  0  0
   -3.2054    2.9327    0.1524 C   0  0  3  0  0  0  0  0  0  0  0  0
   -3.9605    3.2020    1.4339 C   0  0  0  0  0  0  0  0  0  0  0  0
   -4.3824    4.2977    1.7741 O   0  0  0  0  0  0  0  0  0  0  0  0
   -4.1453    2.0209    2.1564 N   0  0  0  0  0  0  0  0  0  0  0  0
   -3.6158    0.9488    1.4322 C   0  0  0  0  0  0  0  0  0  0  0  0
   -3.5623   -0.2075    1.8385 O   0  0  0  0  0  0  0  0  0  0  0  0
   -3.1089    1.4276    0.0940 C   0  0  3  0  0  0  0  0  0  0  0  0
   -1.6606    1.1747   -0.2712 C   0  0  0  0  0  0  0  0  0  0  0  0
   -4.1411    1.0400   -0.9351 C   0  0  0  0  0  0  0  0  0  0  0  0
   -3.9277    2.1155   -1.9783 C   0  0  0  0  0  0  0  0  0  0  0  0
   -3.9057    3.3579   -1.1236 C   0  0  0  0  0  0  0  0  0  0  0  0
    3.0828    2.1169    0.5316 C   0  0  0  0  0  0  0  0  0  0  0  0
    4.4730    2.1014    0.5374 C   0  0  0  0  0  0  0  0  0  0  0  0
    5.1762    3.2171    0.0677 N   0  0  0  0  0  0  0  0  0  0  0  0
    5.3824    3.5229   -1.2739 C   0  0  0  0  0  0  0  0  0  0  0  0
    4.9933    2.8727   -2.2292 O   0  0  0  0  0  0  0  0  0  0  0  0
    6.1887    4.8044   -1.3284 C   0  0  0  0  0  0  0  0  0  0  0  0
    6.8829    4.7935    0.0182 C   0  0  0  0  0  0  0  0  0  0  0  0
    5.8053    4.2285    0.9184 C   0  0  0  0  0  0  0  0  0  0  0  0
    5.1758    0.9950    1.0014 C   0  0  0  0  0  0  0  0  0  0  0  0
    4.4880   -0.1198    1.4689 C   0  0  0  0  0  0  0  0  0  0  0  0
    0.5000    0.1340    1.0036 H   0  0  0  0  0  0  0  0  0  0  0  0
   -1.5370    4.0109   -0.4880 H   0  0  0  0  0  0  0  0  0  0  0  0
   -1.7084    4.0040    1.1360 H   0  0  0  0  0  0  0  0  0  0  0  0
   -4.5869    1.9529    3.0510 H   0  0  0  0  0  0  0  0  0  0  0  0
   -1.3551    0.2871    0.0736 H   0  0  0  0  0  0  0  0  0  0  0  0
   -1.5307    1.2100   -1.2621 H   0  0  0  0  0  0  0  0  0  0  0  0
   -5.0664    1.0732   -0.5575 H   0  0  0  0  0  0  0  0  0  0  0  0
   -3.9650    0.1284   -1.3064 H   0  0  0  0  0  0  0  0  0  0  0  0
   -3.0619    1.9890   -2.4624 H   0  0  0  0  0  0  0  0  0  0  0  0
   -4.6785    2.1388   -2.6385 H   0  0  0  0  0  0  0  0  0  0  0  0
   -3.3977    4.0898   -1.5778 H   0  0  0  0  0  0  0  0  0  0  0  0
   -4.8359    3.6689   -0.9288 H   0  0  0  0  0  0  0  0  0  0  0  0
    2.5835    2.9160    0.1968 H   0  0  0  0  0  0  0  0  0  0  0  0
    5.5955    5.6036   -1.4254 H   0  0  0  0  0  0  0  0  0  0  0  0
    6.8496    4.7868   -2.0787 H   0  0  0  0  0  0  0  0  0  0  0  0
    7.6920    4.2059    0.0058 H   0  0  0  0  0  0  0  0  0  0  0  0
    7.1455    5.7164    0.2998 H   0  0  0  0  0  0  0  0  0  0  0  0
    6.2005    3.8150    1.7388 H   0  0  0  0  0  0  0  0  0  0  0  0
    5.1497    4.9353    1.1841 H   0  0  0  0  0  0  0  0  0  0  0  0
    6.1758    1.0008    0.9990 H   0  0  0  0  0  0  0  0  0  0  0  0
    4.9876   -0.9188    1.8036 H   0  0  0  0  0  0  0  0  0  0  0  0
  1  2  1  0  0  0  0
  2  3  1  0  0  0  0
  3  4  1  0  0  0  0
  4  5  1  0  0  0  0
  5  6  2  0  0  0  0
  5  7  1  0  0  0  0
  7  8  1  0  0  0  0
  8  9  1  0  0  0  0
  9 10  1  0  0  0  0
 10 11  2  0  0  0  0
 10 12  1  0  0  0  0
 12 13  1  0  0  0  0
 13 14  2  0  0  0  0
 13 15  1  0  0  0  0
 15  9  1  0  0  0  0
 15 16  1  0  0  0  0
 16  7  1  0  0  0  0
 15 17  1  0  0  0  0
 17 18  1  0  0  0  0
 18 19  1  0  0  0  0
 19  9  1  0  0  0  0
  3 20  2  0  0  0  0
 20 21  1  0  0  0  0
 21 22  1  0  0  0  0
 22 23  1  0  0  0  0
 23 24  2  0  0  0  0
 23 25  1  0  0  0  0
 25 26  1  0  0  0  0
 26 27  1  0  0  0  0
 27 22  1  0  0  0  0
 21 28  2  0  0  0  0
 28 29  1  0  0  0  0
 29  2  2  0  0  0  0
  4 30  1  0  0  0  0
  8 31  1  0  0  0  0
  8 32  1  0  0  0  0
 12 33  1  0  0  0  0
 16 34  1  0  0  0  0
 16 35  1  0  0  0  0
 17 36  1  0  0  0  0
 17 37  1  0  0  0  0
 18 38  1  0  0  0  0
 18 39  1  0  0  0  0
 19 40  1  0  0  0  0
 19 41  1  0  0  0  0
 20 42  1  0  0  0  0
 25 43  1  0  0  0  0
 25 44  1  0  0  0  0
 26 45  1  0  0  0  0
 26 46  1  0  0  0  0
 27 47  1  0  0  0  0
 27 48  1  0  0  0  0
 28 49  1  0  0  0  0
 29 50  1  0  0  0  0
M  END
>  <result-rank>
30

>  <similarity>
0.914

>  <query-name>


>  <query-smiles>
Fc1c(F)ccc(NC(=O)c2nc(cnc2Nc3cncnc3)C4CC4)c1C(=O)N5CCC5

>  <source>
REALspace_2019-12

>  <similarity-descriptor>
0.836;0.998;0.964;0.836;0.836;1.000;0.995;0.836;0.998;0.0

>  <similarity-descriptor-smiles>
N1CC23C(NC(C2(C1)CCC3)=O)=O;N1CCCC1=O;Fc1ccccc1;N1CC23C(NC(C2(C1)CCC3)=O)=O;N1CC23C(NC(C2(C1)CCC3)=O)=O;N;C=O;N1CC23C(NC(C2(C1)CCC3)=O)=O;N1CCCC1=O;

>  <reaction-name>
s_2430a

>  <reagent1-name>
1041920

>  <reagent1-smiles>
[R1*]C(=O)Nc1c(F)ccc(N2C(=O)CCC2)c1

>  <reagent2-name>
14943036

>  <reagent2-smiles>
[R1*]N1CC23C(=O)NC(=O)C2(C1)CCC3

$$$$
m_274860a____17146992____17212884____15233878
          04022017343D 1   1.00000     0.00000     0
            
 61 64  0  0  0  0            999 V2000
    3.1015   -1.6525    0.9052 F   0  0  0  0  0  0  0  0  0  0  0  0
    3.4368   -0.9493    1.9822 C   0  0  0  0  0  0  0  0  0  0  0  0
    3.0826    0.3941    2.0494 C   0  0  0  0  0  0  0  0  0  0  0  0
    2.3830    1.0000    1.0000 N   0  0  0  0  0  0  0  0  0  0  0  0
    1.0000    1.0000    1.0000 N   0  0  0  0  0  0  0  0  0  0  0  0
    0.3150    2.1865    1.0000 C   0  0  0  0  0  0  0  0  0  0  0  0
    0.7944    3.1561    0.4804 O   0  0  0  0  0  0  0  0  0  0  0  0
   -1.0523    2.2746    1.6582 C   0  0  3  0  0  0  0  0  0  0  0  0
   -1.5734    3.6425    1.5239 N   0  0  0  0  0  0  0  0  0  0  0  0
   -1.8028    4.2664    0.3948 N   0  0  0  0  0  0  0  0  0  0  0  0
   -2.2507    5.4306    0.5924 N   0  0  0  0  0  0  0  0  0  0  0  0
   -2.3302    5.6126    1.9391 C   0  0  0  0  0  0  0  0  0  0  0  0
   -2.7955    6.8109    2.6106 C   0  0  0  0  0  0  0  0  0  0  0  0
   -4.0506    6.8480    3.0813 N   0  0  0  0  0  0  0  0  0  0  0  0
   -4.5382    7.9278    3.7107 C   0  0  0  0  0  0  0  0  0  0  0  0
   -3.7184    9.0393    3.8797 C   0  0  0  0  0  0  0  0  0  0  0  0
   -2.4627    9.0020    3.4089 N   0  0  0  0  0  0  0  0  0  0  0  0
   -1.9757    7.9227    2.7797 C   0  0  0  0  0  0  0  0  0  0  0  0
   -0.5432    7.9482    2.2713 C   0  0  0  0  0  0  0  0  0  0  0  0
   -1.9007    4.4731    2.5472 C   0  0  0  0  0  0  0  0  0  0  0  0
   -2.0039    1.3012    0.9819 C   0  0  0  0  0  0  0  0  0  0  0  0
   -3.3712    1.9487    0.8350 C   0  0  0  0  0  0  0  0  0  0  0  0
   -1.4651    0.9380   -0.3922 C   0  0  0  0  0  0  0  0  0  0  0  0
   -2.1269    0.0435    1.8266 C   0  0  0  0  0  0  0  0  0  0  0  0
    3.4301    1.1367    3.1723 C   0  0  0  0  0  0  0  0  0  0  0  0
    3.0960    2.4221    3.2438 F   0  0  0  0  0  0  0  0  0  0  0  0
    4.1251    0.5495    4.2240 C   0  0  0  0  0  0  0  0  0  0  0  0
    4.4675   -0.7953    4.1334 C   0  0  0  0  0  0  0  0  0  0  0  0
    4.1316   -1.5589    3.0209 C   0  0  0  0  0  0  0  0  0  0  0  0
    5.1906   -1.4195    5.2229 C   0  0  0  0  0  0  0  0  0  0  0  0
    4.5926   -2.0100    6.0795 O   0  0  0  0  0  0  0  0  0  0  0  0
    6.5570   -1.3356    5.2751 N   0  0  0  0  0  0  0  0  0  0  0  0
    7.2898   -1.9682    6.3791 C   0  0  0  0  0  0  0  0  0  0  0  0
    8.0811   -0.9627    7.1648 C   0  0  0  0  0  0  0  0  0  0  0  0
    8.7770   -1.8735    6.1939 C   0  0  0  0  0  0  0  0  0  0  0  0
    2.8830    1.4330    0.2500 H   0  0  0  0  0  0  0  0  0  0  0  0
    0.5000    0.1340    1.0000 H   0  0  0  0  0  0  0  0  0  0  0  0
   -0.9712    2.0425    2.6275 H   0  0  0  0  0  0  0  0  0  0  0  0
   -5.4776    7.9337    4.0537 H   0  0  0  0  0  0  0  0  0  0  0  0
   -4.0606    9.8551    4.3458 H   0  0  0  0  0  0  0  0  0  0  0  0
   -0.3310    7.0769    1.8288 H   0  0  0  0  0  0  0  0  0  0  0  0
   -0.4369    8.6918    1.6112 H   0  0  0  0  0  0  0  0  0  0  0  0
    0.0806    8.0927    3.0394 H   0  0  0  0  0  0  0  0  0  0  0  0
   -1.8397    4.2888    3.5281 H   0  0  0  0  0  0  0  0  0  0  0  0
   -3.9972    1.3083    0.3901 H   0  0  0  0  0  0  0  0  0  0  0  0
   -3.7257    2.1877    1.7391 H   0  0  0  0  0  0  0  0  0  0  0  0
   -3.2902    2.7762    0.2793 H   0  0  0  0  0  0  0  0  0  0  0  0
   -2.0911    0.2976   -0.8371 H   0  0  0  0  0  0  0  0  0  0  0  0
   -1.3841    1.7654   -0.9479 H   0  0  0  0  0  0  0  0  0  0  0  0
   -0.5655    0.5120   -0.2956 H   0  0  0  0  0  0  0  0  0  0  0  0
   -2.7530   -0.5969    1.3817 H   0  0  0  0  0  0  0  0  0  0  0  0
   -1.2274   -0.3825    1.9232 H   0  0  0  0  0  0  0  0  0  0  0  0
   -2.4814    0.2825    2.7306 H   0  0  0  0  0  0  0  0  0  0  0  0
    4.3743    1.0848    5.0311 H   0  0  0  0  0  0  0  0  0  0  0  0
    4.3841   -2.5251    2.9691 H   0  0  0  0  0  0  0  0  0  0  0  0
    7.0553   -0.8435    4.5613 H   0  0  0  0  0  0  0  0  0  0  0  0
    6.8978   -2.7625    6.8434 H   0  0  0  0  0  0  0  0  0  0  0  0
    8.2114   -1.0872    8.1485 H   0  0  0  0  0  0  0  0  0  0  0  0
    7.9934    0.0123    6.9609 H   0  0  0  0  0  0  0  0  0  0  0  0
    9.1525   -1.5049    5.3435 H   0  0  0  0  0  0  0  0  0  0  0  0
    9.3704   -2.6043    6.5311 H   0  0  0  0  0  0  0  0  0  0  0  0
  1  2  1  0  0  0  0
  2  3  1  0  0  0  0
  3  4  1  0  0  0  0
  4  5  1  0  0  0  0
  5  6  1  0  0  0  0
  6  7  2  0  0  0  0
  6  8  1  0  0  0  0
  8  9  1  0  0  0  0
  9 10  1  0  0  0  0
 10 11  2  0  0  0  0
 11 12  1  0  0  0  0
 12 13  1  0  0  0  0
 13 14  1  0  0  0  0
 14 15  2  0  0  0  0
 15 16  1  0  0  0  0
 16 17  2  0  0  0  0
 17 18  1  0  0  0  0
 18 13  2  0  0  0  0
 18 19  1  0  0  0  0
 12 20  2  0  0  0  0
 20  9  1  0  0  0  0
  8 21  1  0  0  0  0
 21 22  1  0  0  0  0
 21 23  1  0  0  0  0
 21 24  1  0  0  0  0
  3 25  2  0  0  0  0
 25 26  1  0  0  0  0
 25 27  1  0  0  0  0
 27 28  2  0  0  0  0
 28 29  1  0  0  0  0
 29  2  2  0  0  0  0
 28 30  1  0  0  0  0
 30 31  2  0  0  0  0
 30 32  1  0  0  0  0
 32 33  1  0  0  0  0
 33 34  1  0  0  0  0
 34 35  1  0  0  0  0
 35 33  1  0  0  0  0
  4 36  1  0  0  0  0
  5 37  1  0  0  0  0
  8 38  1  0  0  0  0
 15 39  1  0  0  0  0
 16 40  1  0  0  0  0
 19 41  1  0  0  0  0
 19 42  1  0  0  0  0
 19 43  1  0  0  0  0
 20 44  1  0  0  0  0
 22 45  1  0  0  0  0
 22 46  1  0  0  0  0
 22 47  1  0  0  0  0
 23 48  1  0  0  0  0
 23 49  1  0  0  0  0
 23 50  1  0  0  0  0
 24 51  1  0  0  0  0
 24 52  1  0  0  0  0
 24 53  1  0  0  0  0
 27 54  1  0  0  0  0
 29 55  1  0  0  0  0
 32 56  1  0  0  0  0
 33 57  1  0  0  0  0
 34 58  1  0  0  0  0
 34 59  1  0  0  0  0
 35 60  1  0  0  0  0
 35 61  1  0  0  0  0
M  END
>  <result-rank>
31

>  <similarity>
0.914

>  <query-name>


>  <query-smiles>
Fc1c(F)ccc(NC(=O)c2nc(cnc2Nc3cncnc3)C4CC4)c1C(=O)N5CCC5

>  <source>
REALspace_2019-12

>  <similarity-descriptor>
0.848;0.969;1.000;0.909;0.879;0.975;0.848;0.879;0.852;0.067

>  <similarity-descriptor-smiles>
C(C)(C)C;C1CC1;Fc1cccc(c1)F;CN1C=CN=N1;c1cnccn1;N;NC=O;c1cnccn1;C(=O)N;C

>  <reaction-name>
m_274860a

>  <reagent1-name>
17146992

>  <reagent1-smiles>
[R3*]NNc1c(F)cc(cc1F)C(=O)NC2CC2

>  <reagent2-name>
17212884

>  <reagent2-smiles>
[R1*]N=NN([R2*])C(C([R3*])=O)C(C)(C)C

>  <reagent3-name>
15233878

>  <reagent3-smiles>
[R1*]C(c1nccnc1C)=C[R2*]

$$$$
s_22____231040____6402704
          04022017343D 1   1.00000     0.00000     0
            
 50 53  0  0  0  0            999 V2000
    8.3502    3.9131    2.0178 F   0  0  0  0  0  0  0  0  0  0  0  0
    7.6854    2.7843    2.2477 C   0  0  0  0  0  0  0  0  0  0  0  0
    6.5874    3.0516    2.9490 F   0  0  0  0  0  0  0  0  0  0  0  0
    8.4574    1.9471    2.9347 F   0  0  0  0  0  0  0  0  0  0  0  0
    7.3236    2.1877    1.0109 O   0  0  0  0  0  0  0  0  0  0  0  0
    6.6367    1.0249    0.9974 C   0  0  0  0  0  0  0  0  0  0  0  0
    5.2434    1.0058    0.9980 C   0  0  0  0  0  0  0  0  0  0  0  0
    4.5177    2.1707    1.0128 N   0  0  0  0  0  0  0  0  0  0  0  0
    3.1458    2.1819    1.0135 C   0  0  0  0  0  0  0  0  0  0  0  0
    2.4505    1.0000    1.0000 C   0  0  0  0  0  0  0  0  0  0  0  0
    1.0000    1.0000    1.0000 C   0  0  0  0  0  0  0  0  0  0  0  0
    0.4000   -0.0392    0.9881 O   0  0  0  0  0  0  0  0  0  0  0  0
    0.3150    2.1864    1.0136 N   0  0  0  0  0  0  0  0  0  0  0  0
   -1.0694    2.1932    1.2243 C   0  0  0  0  0  0  0  0  0  0  0  0
   -1.7721    0.9926    1.2104 C   0  0  0  0  0  0  0  0  0  0  0  0
   -3.1470    1.0110    1.4205 C   0  0  0  0  0  0  0  0  0  0  0  0
   -3.8106    2.2137    1.6415 C   0  0  0  0  0  0  0  0  0  0  0  0
   -5.1948    2.2212    1.8521 N   0  0  0  0  0  0  0  0  0  0  0  0
   -6.1515    2.2388    0.8389 C   0  0  0  0  0  0  0  0  0  0  0  0
   -5.9285    2.2391   -0.3602 O   0  0  0  0  0  0  0  0  0  0  0  0
   -7.5180    2.2499    1.4869 C   0  0  0  0  0  0  0  0  0  0  0  0
   -7.2220    1.5965    2.8182 C   0  0  0  0  0  0  0  0  0  0  0  0
   -5.8837    2.2199    3.1463 C   0  0  0  0  0  0  0  0  0  0  0  0
   -3.0983    3.4088    1.6543 C   0  0  0  0  0  0  0  0  0  0  0  0
   -1.7231    3.4014    1.4450 C   0  0  0  0  0  0  0  0  0  0  0  0
   -3.9007   -0.3092    1.4022 C   0  0  0  0  0  0  0  0  0  0  0  0
    3.1526   -0.2357    0.9858 C   0  0  0  0  0  0  0  0  0  0  0  0
    2.5098   -1.2753    0.9738 O   0  0  0  0  0  0  0  0  0  0  0  0
    4.5752   -0.2167    0.9838 C   0  0  0  0  0  0  0  0  0  0  0  0
    5.3195   -1.3947    0.9698 C   0  0  0  0  0  0  0  0  0  0  0  0
    6.7100   -1.3833    0.9689 C   0  0  0  0  0  0  0  0  0  0  0  0
    7.3685   -0.1584    0.9828 C   0  0  0  0  0  0  0  0  0  0  0  0
    5.0067    3.0429    1.0234 H   0  0  0  0  0  0  0  0  0  0  0  0
    2.6529    3.0519    1.0238 H   0  0  0  0  0  0  0  0  0  0  0  0
    0.8036    3.0475    0.8731 H   0  0  0  0  0  0  0  0  0  0  0  0
   -1.2952    0.1282    1.0514 H   0  0  0  0  0  0  0  0  0  0  0  0
   -8.1784    1.7178    0.9571 H   0  0  0  0  0  0  0  0  0  0  0  0
   -7.8593    3.1824    1.6049 H   0  0  0  0  0  0  0  0  0  0  0  0
   -7.9133    1.8266    3.5032 H   0  0  0  0  0  0  0  0  0  0  0  0
   -7.1544    0.6024    2.7337 H   0  0  0  0  0  0  0  0  0  0  0  0
   -5.9963    3.1506    3.4945 H   0  0  0  0  0  0  0  0  0  0  0  0
   -5.3862    1.6707    3.8178 H   0  0  0  0  0  0  0  0  0  0  0  0
   -3.5750    4.2733    1.8140 H   0  0  0  0  0  0  0  0  0  0  0  0
   -1.2079    4.2584    1.4531 H   0  0  0  0  0  0  0  0  0  0  0  0
   -3.2593   -1.0569    1.2301 H   0  0  0  0  0  0  0  0  0  0  0  0
   -4.3476   -0.4501    2.2856 H   0  0  0  0  0  0  0  0  0  0  0  0
   -4.5909   -0.2890    0.6789 H   0  0  0  0  0  0  0  0  0  0  0  0
    4.8405   -2.2724    0.9600 H   0  0  0  0  0  0  0  0  0  0  0  0
    7.2267   -2.2394    0.9585 H   0  0  0  0  0  0  0  0  0  0  0  0
    8.3680   -0.1281    0.9822 H   0  0  0  0  0  0  0  0  0  0  0  0
  1  2  1  0  0  0  0
  2  3  1  0  0  0  0
  2  4  1  0  0  0  0
  2  5  1  0  0  0  0
  5  6  1  0  0  0  0
  6  7  1  0  0  0  0
  7  8  1  0  0  0  0
  8  9  1  0  0  0  0
  9 10  2  0  0  0  0
 10 11  1  0  0  0  0
 11 12  2  0  0  0  0
 11 13  1  0  0  0  0
 13 14  1  0  0  0  0
 14 15  1  0  0  0  0
 15 16  2  0  0  0  0
 16 17  1  0  0  0  0
 17 18  1  0  0  0  0
 18 19  1  0  0  0  0
 19 20  2  0  0  0  0
 19 21  1  0  0  0  0
 21 22  1  0  0  0  0
 22 23  1  0  0  0  0
 23 18  1  0  0  0  0
 17 24  2  0  0  0  0
 24 25  1  0  0  0  0
 25 14  2  0  0  0  0
 16 26  1  0  0  0  0
 10 27  1  0  0  0  0
 27 28  2  0  0  0  0
 27 29  1  0  0  0  0
 29  7  2  0  0  0  0
 29 30  1  0  0  0  0
 30 31  2  0  0  0  0
 31 32  1  0  0  0  0
 32  6  2  0  0  0  0
  8 33  1  0  0  0  0
  9 34  1  0  0  0  0
 13 35  1  0  0  0  0
 15 36  1  0  0  0  0
 21 37  1  0  0  0  0
 21 38  1  0  0  0  0
 22 39  1  0  0  0  0
 22 40  1  0  0  0  0
 23 41  1  0  0  0  0
 23 42  1  0  0  0  0
 24 43  1  0  0  0  0
 25 44  1  0  0  0  0
 26 45  1  0  0  0  0
 26 46  1  0  0  0  0
 26 47  1  0  0  0  0
 30 48  1  0  0  0  0
 31 49  1  0  0  0  0
 32 50  1  0  0  0  0
M  END
>  <result-rank>
32

>  <similarity>
0.914

>  <query-name>


>  <query-smiles>
Fc1c(F)ccc(NC(=O)c2nc(cnc2Nc3cncnc3)C4CC4)c1C(=O)N5CCC5

>  <source>
REALspace_2019-12

>  <similarity-descriptor>
0.0;0.998;0.944;0.962;0.822;1.000;0.999;0.962;0.998;0.111

>  <similarity-descriptor-smiles>
;N1CCCC1=O;c1ccccc1;c1cC(C=CN1)=O;FC(F)(F)Oc1ccccc1;N;C=O;c1cC(C=CN1)=O;N1CCCC1=O;C

>  <reaction-name>
s_22

>  <reagent1-name>
231040

>  <reagent1-smiles>
[R1*]Nc1cc(c(N2C(=O)CCC2)cc1)C

>  <reagent2-name>
6402704

>  <reagent2-smiles>
[R1*]C(=O)c1c(O)c2c(nc1)c(OC(F)(F)F)ccc2

$$$$
s_22____10904692____903526
          04022017343D 1   1.00000     0.00000     0
            
 52 55  0  0  0  0            999 V2000
    2.2631   -1.6061    1.9278 Cl  0  0  0  0  0  0  0  0  0  0  0  0
    3.1318   -0.1423    1.4068 C   0  0  0  0  0  0  0  0  0  0  0  0
    2.4502    1.0000    1.0000 C   0  0  0  0  0  0  0  0  0  0  0  0
    3.1404    2.0831    0.6143 N   0  0  0  0  0  0  0  0  0  0  0  0
    4.4817    2.0919    0.6106 C   0  0  0  0  0  0  0  0  0  0  0  0
    5.1608    1.0024    0.9993 N   0  0  0  0  0  0  0  0  0  0  0  0
    4.5213   -0.1078    1.3945 C   0  0  0  0  0  0  0  0  0  0  0  0
    5.1937    3.2266    0.2063 N   0  0  0  0  0  0  0  0  0  0  0  0
    6.6460    3.1460   -0.0062 C   0  0  0  0  0  0  0  0  0  0  0  0
    6.9270    2.7667   -1.4548 C   0  0  0  0  0  0  0  0  0  0  0  0
    7.0881    3.6009   -2.4567 O   0  0  0  0  0  0  0  0  0  0  0  0
    7.3146    2.9451   -3.5743 C   0  0  0  0  0  0  0  0  0  0  0  0
    7.2961    1.6125   -3.2915 C   0  0  0  0  0  0  0  0  0  0  0  0
    7.0412    1.4882   -1.9060 C   0  0  0  0  0  0  0  0  0  0  0  0
    1.0000    1.0000    1.0000 C   0  0  0  0  0  0  0  0  0  0  0  0
    0.4000    2.0392    1.0073 O   0  0  0  0  0  0  0  0  0  0  0  0
    0.3150   -0.1864    0.9917 N   0  0  0  0  0  0  0  0  0  0  0  0
   -1.1383   -0.1945    0.7706 C   0  0  0  0  0  0  0  0  0  0  0  0
   -1.4235   -0.3118   -0.7168 C   0  0  0  0  0  0  0  0  0  0  0  0
   -1.5595   -1.5726   -1.2879 C   0  0  0  0  0  0  0  0  0  0  0  0
   -1.8203   -1.6662   -2.6505 C   0  0  0  0  0  0  0  0  0  0  0  0
   -1.9529   -2.8643   -3.2120 F   0  0  0  0  0  0  0  0  0  0  0  0
   -1.9432   -0.5212   -3.4291 C   0  0  0  0  0  0  0  0  0  0  0  0
   -2.2059   -0.6315   -4.7997 N   0  0  0  0  0  0  0  0  0  0  0  0
   -3.6018   -0.6606   -5.2635 C   0  0  0  0  0  0  0  0  0  0  0  0
   -3.7370   -0.0005   -6.6270 C   0  0  0  0  0  0  0  0  0  0  0  0
   -2.7231   -0.4412   -7.5212 O   0  0  0  0  0  0  0  0  0  0  0  0
   -1.4394   -0.0332   -7.0667 C   0  0  0  0  0  0  0  0  0  0  0  0
   -1.0795   -0.6917   -5.7436 C   0  0  0  0  0  0  0  0  0  0  0  0
   -1.8027    0.7287   -2.8354 C   0  0  0  0  0  0  0  0  0  0  0  0
   -1.9210    1.8186   -3.5870 F   0  0  0  0  0  0  0  0  0  0  0  0
   -1.5418    0.8480   -1.4748 C   0  0  0  0  0  0  0  0  0  0  0  0
    5.0439   -0.9110    1.6804 H   0  0  0  0  0  0  0  0  0  0  0  0
    4.7146    4.0924    0.0619 H   0  0  0  0  0  0  0  0  0  0  0  0
    7.0338    2.4526    0.6011 H   0  0  0  0  0  0  0  0  0  0  0  0
    7.0618    4.0334    0.1926 H   0  0  0  0  0  0  0  0  0  0  0  0
    7.4726    3.3530   -4.4735 H   0  0  0  0  0  0  0  0  0  0  0  0
    7.4361    0.8645   -3.9403 H   0  0  0  0  0  0  0  0  0  0  0  0
    6.9622    0.6450   -1.3743 H   0  0  0  0  0  0  0  0  0  0  0  0
    0.8036   -1.0469    1.1361 H   0  0  0  0  0  0  0  0  0  0  0  0
   -1.5333    0.6552    1.1197 H   0  0  0  0  0  0  0  0  0  0  0  0
   -1.5440   -0.9726    1.2501 H   0  0  0  0  0  0  0  0  0  0  0  0
   -1.4713   -2.3969   -0.7287 H   0  0  0  0  0  0  0  0  0  0  0  0
   -4.1753   -0.1725   -4.6055 H   0  0  0  0  0  0  0  0  0  0  0  0
   -3.9049   -1.6113   -5.3289 H   0  0  0  0  0  0  0  0  0  0  0  0
   -4.6314   -0.2290   -7.0115 H   0  0  0  0  0  0  0  0  0  0  0  0
   -3.6649    0.9908   -6.5168 H   0  0  0  0  0  0  0  0  0  0  0  0
   -1.4380    0.9595   -6.9463 H   0  0  0  0  0  0  0  0  0  0  0  0
   -0.7567   -0.2868   -7.7519 H   0  0  0  0  0  0  0  0  0  0  0  0
   -0.8424   -1.6490   -5.9088 H   0  0  0  0  0  0  0  0  0  0  0  0
   -0.2940   -0.2176   -5.3457 H   0  0  0  0  0  0  0  0  0  0  0  0
   -1.4416    1.7481   -1.0507 H   0  0  0  0  0  0  0  0  0  0  0  0
  1  2  1  0  0  0  0
  2  3  1  0  0  0  0
  3  4  2  0  0  0  0
  4  5  1  0  0  0  0
  5  6  2  0  0  0  0
  6  7  1  0  0  0  0
  7  2  2  0  0  0  0
  5  8  1  0  0  0  0
  8  9  1  0  0  0  0
  9 10  1  0  0  0  0
 10 11  1  0  0  0  0
 11 12  1  0  0  0  0
 12 13  2  0  0  0  0
 13 14  1  0  0  0  0
 10 14  2  0  0  0  0
  3 15  1  0  0  0  0
 15 16  2  0  0  0  0
 15 17  1  0  0  0  0
 17 18  1  0  0  0  0
 18 19  1  0  0  0  0
 19 20  1  0  0  0  0
 20 21  2  0  0  0  0
 21 22  1  0  0  0  0
 21 23  1  0  0  0  0
 23 24  1  0  0  0  0
 24 25  1  0  0  0  0
 25 26  1  0  0  0  0
 26 27  1  0  0  0  0
 27 28  1  0  0  0  0
 28 29  1  0  0  0  0
 29 24  1  0  0  0  0
 23 30  2  0  0  0  0
 30 31  1  0  0  0  0
 30 32  1  0  0  0  0
 32 19  2  0  0  0  0
  7 33  1  0  0  0  0
  8 34  1  0  0  0  0
  9 35  1  0  0  0  0
  9 36  1  0  0  0  0
 12 37  1  0  0  0  0
 13 38  1  0  0  0  0
 14 39  1  0  0  0  0
 17 40  1  0  0  0  0
 18 41  1  0  0  0  0
 18 42  1  0  0  0  0
 20 43  1  0  0  0  0
 25 44  1  0  0  0  0
 25 45  1  0  0  0  0
 26 46  1  0  0  0  0
 26 47  1  0  0  0  0
 28 48  1  0  0  0  0
 28 49  1  0  0  0  0
 29 50  1  0  0  0  0
 29 51  1  0  0  0  0
 32 52  1  0  0  0  0
M  END
>  <result-rank>
33

>  <similarity>
0.913

>  <query-name>


>  <query-smiles>
Fc1c(F)ccc(NC(=O)c2nc(cnc2Nc3cncnc3)C4CC4)c1C(=O)N5CCC5

>  <source>
REALspace_2019-12

>  <similarity-descriptor>
0.0;0.856;1.000;0.957;0.880;0.723;1.000;1.000;0.856;0.0

>  <similarity-descriptor-smiles>
;N1CCOCC1;c1cc(cc(c1)F)F;Clc1cncnc1;CC1=CC=CO1;NC;C=O;N;N1CCOCC1;

>  <reaction-name>
s_22

>  <reagent1-name>
10904692

>  <reagent1-smiles>
[R1*]NCc1cc(F)c(N2CCOCC2)c(F)c1

>  <reagent2-name>
903526

>  <reagent2-smiles>
[R1*]C(=O)c1nc(ncc1Cl)NCC=2OC=CC2

$$$$
s_2708____906316____12904828
          04022017343D 1   1.00000     0.00000     0
            
 48 51  0  0  0  0            999 V2000
   -2.6332    4.9529    5.2057 Cl  0  0  0  0  0  0  0  0  0  0  0  0
   -2.3479    3.3828    4.4160 C   0  0  0  0  0  0  0  0  0  0  0  0
   -2.5568    2.1763    5.0783 C   0  0  0  0  0  0  0  0  0  0  0  0
   -2.9917    2.2129    6.3605 O   0  0  0  0  0  0  0  0  0  0  0  0
   -3.8732    1.2342    6.8979 C   0  0  0  0  0  0  0  0  0  0  0  0
   -3.1146   -0.0129    7.3266 C   0  0  0  0  0  0  0  0  0  0  0  0
   -2.0360   -0.3902    6.3217 C   0  0  0  0  0  0  0  0  0  0  0  0
   -2.4644   -0.2329    4.9745 O   0  0  0  0  0  0  0  0  0  0  0  0
   -2.3125    0.9799    4.4024 C   0  0  0  0  0  0  0  0  0  0  0  0
   -1.8813    0.9771    3.0836 C   0  0  0  0  0  0  0  0  0  0  0  0
   -1.6617    2.1865    2.4332 C   0  0  0  0  0  0  0  0  0  0  0  0
   -1.8976    3.3840    3.1004 C   0  0  0  0  0  0  0  0  0  0  0  0
   -1.1550    2.1865    1.0000 C   0  0  0  0  0  0  0  0  0  0  0  0
    0.3150    2.1865    1.0000 N   0  0  0  0  0  0  0  0  0  0  0  0
    1.0000    1.0000    1.0000 C   0  0  0  0  0  0  0  0  0  0  0  0
    0.4000   -0.0392    1.0000 O   0  0  0  0  0  0  0  0  0  0  0  0
    2.3700    1.0000    1.0000 N   0  0  0  0  0  0  0  0  0  0  0  0
    3.1050   -0.2731    1.0000 C   0  0  0  0  0  0  0  0  0  0  0  0
    3.3584   -0.7120   -0.4335 C   0  0  0  0  0  0  0  0  0  0  0  0
    4.4137   -0.3940   -1.1471 N   0  0  0  0  0  0  0  0  0  0  0  0
    4.2860   -0.9543   -2.3306 N   0  0  0  0  0  0  0  0  0  0  0  0
    3.1546   -1.6291   -2.3895 C   0  0  0  0  0  0  0  0  0  0  0  0
    2.5374   -1.4958   -1.1867 N   0  0  0  0  0  0  0  0  0  0  0  0
    1.3241   -2.1197   -1.0247 C   0  0  0  0  0  0  0  0  0  0  0  0
    0.7459   -2.8572   -2.0270 C   0  0  0  0  0  0  0  0  0  0  0  0
    1.3566   -3.0071   -3.2459 N   0  0  0  0  0  0  0  0  0  0  0  0
    2.5668   -2.3919   -3.4378 C   0  0  0  0  0  0  0  0  0  0  0  0
    3.1173   -2.5193   -4.5196 O   0  0  0  0  0  0  0  0  0  0  0  0
    3.1050    2.2731    1.0000 C   0  0  0  0  0  0  0  0  0  0  0  0
   -4.5460    0.9837    6.2018 H   0  0  0  0  0  0  0  0  0  0  0  0
   -4.3431    1.6194    7.6922 H   0  0  0  0  0  0  0  0  0  0  0  0
   -3.7600   -0.7722    7.4093 H   0  0  0  0  0  0  0  0  0  0  0  0
   -2.6854    0.1579    8.2135 H   0  0  0  0  0  0  0  0  0  0  0  0
   -1.2381    0.1929    6.4742 H   0  0  0  0  0  0  0  0  0  0  0  0
   -1.7827   -1.3465    6.4676 H   0  0  0  0  0  0  0  0  0  0  0  0
   -1.7296    0.1124    2.6047 H   0  0  0  0  0  0  0  0  0  0  0  0
   -1.7421    4.2528    2.6302 H   0  0  0  0  0  0  0  0  0  0  0  0
   -1.4883    1.3700    0.5286 H   0  0  0  0  0  0  0  0  0  0  0  0
   -1.4883    3.0030    0.5286 H   0  0  0  0  0  0  0  0  0  0  0  0
    0.8150    3.0525    1.0000 H   0  0  0  0  0  0  0  0  0  0  0  0
    2.5646   -0.9700    1.4714 H   0  0  0  0  0  0  0  0  0  0  0  0
    3.9788   -0.1535    1.4714 H   0  0  0  0  0  0  0  0  0  0  0  0
    0.8479   -2.0338   -0.1496 H   0  0  0  0  0  0  0  0  0  0  0  0
   -0.1389   -3.2944   -1.8654 H   0  0  0  0  0  0  0  0  0  0  0  0
    0.9324   -3.5481   -3.9721 H   0  0  0  0  0  0  0  0  0  0  0  0
    4.0882    2.0903    1.0000 H   0  0  0  0  0  0  0  0  0  0  0  0
    2.8634    2.7974    0.1835 H   0  0  0  0  0  0  0  0  0  0  0  0
    2.8634    2.7974    1.8165 H   0  0  0  0  0  0  0  0  0  0  0  0
  1  2  1  0  0  0  0
  2  3  1  0  0  0  0
  3  4  1  0  0  0  0
  4  5  1  0  0  0  0
  5  6  1  0  0  0  0
  6  7  1  0  0  0  0
  7  8  1  0  0  0  0
  8  9  1  0  0  0  0
  9  3  2  0  0  0  0
  9 10  1  0  0  0  0
 10 11  2  0  0  0  0
 11 12  1  0  0  0  0
 12  2  2  0  0  0  0
 11 13  1  0  0  0  0
 13 14  1  0  0  0  0
 14 15  1  0  0  0  0
 15 16  2  0  0  0  0
 15 17  1  0  0  0  0
 17 18  1  0  0  0  0
 18 19  1  0  0  0  0
 19 20  2  0  0  0  0
 20 21  1  0  0  0  0
 21 22  2  0  0  0  0
 22 23  1  0  0  0  0
 23 19  1  0  0  0  0
 23 24  1  0  0  0  0
 24 25  2  0  0  0  0
 25 26  1  0  0  0  0
 26 27  1  0  0  0  0
 27 22  1  0  0  0  0
 27 28  2  0  0  0  0
 17 29  1  0  0  0  0
  5 30  1  0  0  0  0
  5 31  1  0  0  0  0
  6 32  1  0  0  0  0
  6 33  1  0  0  0  0
  7 34  1  0  0  0  0
  7 35  1  0  0  0  0
 10 36  1  0  0  0  0
 12 37  1  0  0  0  0
 13 38  1  0  0  0  0
 13 39  1  0  0  0  0
 14 40  1  0  0  0  0
 18 41  1  0  0  0  0
 18 42  1  0  0  0  0
 24 43  1  0  0  0  0
 25 44  1  0  0  0  0
 26 45  1  0  0  0  0
 29 46  1  0  0  0  0
 29 47  1  0  0  0  0
 29 48  1  0  0  0  0
M  END
>  <result-rank>
34

>  <similarity>
0.913

>  <query-name>


>  <query-smiles>
Fc1c(F)ccc(NC(=O)c2nc(cnc2Nc3cncnc3)C4CC4)c1C(=O)N5CCC5

>  <source>
REALspace_2019-12

>  <similarity-descriptor>
0.0;0.908;0.946;0.882;0.954;1.000;0.995;0.954;0.908;0.100

>  <similarity-descriptor-smiles>
;c1cOCCCO1;Clc1cc(ccc1)C;NCC=1NC=NN1;C1C(NC=CN1)=O;N;C=O;C1C(NC=CN1)=O;c1cOCCCO1;C

>  <reaction-name>
s_2708

>  <reagent1-name>
906316

>  <reagent1-smiles>
[R1*]C(=O)NCc1cc(Cl)c2OCCCOc2c1

>  <reagent2-name>
12904828

>  <reagent2-smiles>
[R1*]N(CC1=NN=C2N1C=CNC2=O)C

$$$$
s_22____17548538____782382
          04022017343D 1   1.00000     0.00000     0
            
 52 55  0  0  0  0            999 V2000
   -5.0718    3.1001    0.1023 O   0  0  0  0  0  0  0  0  0  0  0  0
   -5.6601    3.0836    1.1721 C   0  0  0  0  0  0  0  0  0  0  0  0
   -4.9958    2.6580    2.3307 N   0  0  0  0  0  0  0  0  0  0  0  0
   -3.6587    2.2429    2.2945 C   0  0  0  0  0  0  0  0  0  0  0  0
   -2.6380    3.1876    2.2770 C   0  0  0  0  0  0  0  0  0  0  0  0
   -1.3096    2.7756    2.2410 C   0  0  0  0  0  0  0  0  0  0  0  0
   -1.0215    1.4146    2.2230 C   0  0  0  0  0  0  0  0  0  0  0  0
    0.3150    1.0000    2.1865 N   0  0  0  0  0  0  0  0  0  0  0  0
    1.0000    1.0000    1.0000 C   0  0  0  0  0  0  0  0  0  0  0  0
    0.4000    1.0000   -0.0392 O   0  0  0  0  0  0  0  0  0  0  0  0
    2.5200    1.0000    1.0000 C   0  0  0  0  0  0  0  0  0  0  0  0
    3.0270   -0.4339    1.0000 C   0  0  0  0  0  0  0  0  0  0  0  0
    3.2678   -1.1152   -0.2239 C   0  0  0  0  0  0  0  0  0  0  0  0
    3.0601   -0.5315   -1.2516 O   0  0  0  0  0  0  0  0  0  0  0  0
    3.7242   -2.4093   -0.2388 N   0  0  0  0  0  0  0  0  0  0  0  0
    3.9999   -3.2200   -1.2409 N   0  0  0  0  0  0  0  0  0  0  0  0
    4.4062   -4.3873   -0.8157 C   0  0  0  0  0  0  0  0  0  0  0  0
    4.3786   -4.3010    0.5934 C   0  0  0  0  0  0  0  0  0  0  0  0
    4.7635   -5.4119    1.5568 C   0  0  0  0  0  0  0  0  0  0  0  0
    5.0522   -6.2451    2.2793 N   0  0  0  0  0  0  0  0  0  0  0  0
    3.9488   -3.0497    0.9310 C   0  0  0  0  0  0  0  0  0  0  0  0
    3.7199   -2.3975    2.1190 N   0  0  0  0  0  0  0  0  0  0  0  0
    3.2631   -1.1038    2.1736 C   0  0  0  0  0  0  0  0  0  0  0  0
    3.0138   -0.3962    3.4956 C   0  0  0  0  0  0  0  0  0  0  0  0
   -2.0425    0.4700    2.2407 C   0  0  0  0  0  0  0  0  0  0  0  0
   -3.3708    0.8818    2.2764 C   0  0  0  0  0  0  0  0  0  0  0  0
   -5.6962    2.6453    3.6239 C   0  0  0  0  0  0  0  0  0  0  0  0
   -6.7931    3.6972    3.6699 C   0  0  0  0  0  0  0  0  0  0  0  0
   -7.7276    3.4693    2.4923 C   0  0  0  0  0  0  0  0  0  0  0  0
   -6.9985    3.4955    1.2154 N   0  0  0  0  0  0  0  0  0  0  0  0
   -7.7066    3.9458    0.0081 C   0  0  0  0  0  0  0  0  0  0  0  0
   -2.8589    4.1628    2.2903 H   0  0  0  0  0  0  0  0  0  0  0  0
   -0.5709    3.4495    2.2282 H   0  0  0  0  0  0  0  0  0  0  0  0
    0.7698    0.7038    3.0264 H   0  0  0  0  0  0  0  0  0  0  0  0
    2.8533    1.4714    1.8165 H   0  0  0  0  0  0  0  0  0  0  0  0
    2.8533    1.4714    0.1835 H   0  0  0  0  0  0  0  0  0  0  0  0
    4.6784   -5.1738   -1.3700 H   0  0  0  0  0  0  0  0  0  0  0  0
    3.8924   -2.8835    2.9758 H   0  0  0  0  0  0  0  0  0  0  0  0
    2.6860    0.5321    3.3201 H   0  0  0  0  0  0  0  0  0  0  0  0
    2.3258   -0.8994    4.0185 H   0  0  0  0  0  0  0  0  0  0  0  0
    3.8657   -0.3558    4.0178 H   0  0  0  0  0  0  0  0  0  0  0  0
   -1.8215   -0.5052    2.2278 H   0  0  0  0  0  0  0  0  0  0  0  0
   -4.1096    0.2080    2.2890 H   0  0  0  0  0  0  0  0  0  0  0  0
   -5.0371    2.8303    4.3528 H   0  0  0  0  0  0  0  0  0  0  0  0
   -6.1041    1.7432    3.7643 H   0  0  0  0  0  0  0  0  0  0  0  0
   -6.3887    4.6097    3.6083 H   0  0  0  0  0  0  0  0  0  0  0  0
   -7.3031    3.6158    4.5263 H   0  0  0  0  0  0  0  0  0  0  0  0
   -8.1703    2.5787    2.5960 H   0  0  0  0  0  0  0  0  0  0  0  0
   -8.4227    4.1882    2.4848 H   0  0  0  0  0  0  0  0  0  0  0  0
   -8.6453    4.1955    0.2458 H   0  0  0  0  0  0  0  0  0  0  0  0
   -7.2375    4.7408   -0.3765 H   0  0  0  0  0  0  0  0  0  0  0  0
   -7.7187    3.2075   -0.6662 H   0  0  0  0  0  0  0  0  0  0  0  0
  1  2  2  0  0  0  0
  2  3  1  0  0  0  0
  3  4  1  0  0  0  0
  4  5  1  0  0  0  0
  5  6  2  0  0  0  0
  6  7  1  0  0  0  0
  7  8  1  0  0  0  0
  8  9  1  0  0  0  0
  9 10  2  0  0  0  0
  9 11  1  0  0  0  0
 11 12  1  0  0  0  0
 12 13  1  0  0  0  0
 13 14  2  0  0  0  0
 13 15  1  0  0  0  0
 15 16  1  0  0  0  0
 16 17  2  0  0  0  0
 17 18  1  0  0  0  0
 18 19  1  0  0  0  0
 19 20  3  0  0  0  0
 18 21  2  0  0  0  0
 21 15  1  0  0  0  0
 21 22  1  0  0  0  0
 22 23  1  0  0  0  0
 12 23  2  0  0  0  0
 23 24  1  0  0  0  0
  7 25  2  0  0  0  0
 25 26  1  0  0  0  0
 26  4  2  0  0  0  0
  3 27  1  0  0  0  0
 27 28  1  0  0  0  0
 28 29  1  0  0  0  0
 29 30  1  0  0  0  0
 30  2  1  0  0  0  0
 30 31  1  0  0  0  0
  5 32  1  0  0  0  0
  6 33  1  0  0  0  0
  8 34  1  0  0  0  0
 11 35  1  0  0  0  0
 11 36  1  0  0  0  0
 17 37  1  0  0  0  0
 22 38  1  0  0  0  0
 24 39  1  0  0  0  0
 24 40  1  0  0  0  0
 24 41  1  0  0  0  0
 25 42  1  0  0  0  0
 26 43  1  0  0  0  0
 27 44  1  0  0  0  0
 27 45  1  0  0  0  0
 28 46  1  0  0  0  0
 28 47  1  0  0  0  0
 29 48  1  0  0  0  0
 29 49  1  0  0  0  0
 31 50  1  0  0  0  0
 31 51  1  0  0  0  0
 31 52  1  0  0  0  0
M  END
>  <result-rank>
35

>  <similarity>
0.913

>  <query-name>


>  <query-smiles>
Fc1c(F)ccc(NC(=O)c2nc(cnc2Nc3cncnc3)C4CC4)c1C(=O)N5CCC5

>  <source>
REALspace_2019-12

>  <similarity-descriptor>
0.0;0.992;0.928;0.943;0.898;1.000;0.861;0.943;0.992;0.200

>  <similarity-descriptor-smiles>
;O=C1NCCCN1;c1ccccc1;C1=CNCNC1=O;N1C=C(C=N1)C#N;N;C(=O)C;C1=CNCNC1=O;O=C1NCCCN1;C.C

>  <reaction-name>
s_22

>  <reagent1-name>
17548538

>  <reagent1-smiles>
[R1*]Nc1ccc(N2C(=O)N(CCC2)C)cc1

>  <reagent2-name>
782382

>  <reagent2-smiles>
[R1*]C(=O)CC1=C(O)N2N=CC(C#N)=C2N=C1C

$$$$
s_22____7639468____9598836
          04022017343D 1   1.00000     0.00000     0
            
 49 52  0  0  0  0            999 V2000
   -6.7083    1.5454    4.2665 F   0  0  0  0  0  0  0  0  0  0  0  0
   -5.5144    1.4573    3.6901 C   0  0  0  0  0  0  0  0  0  0  0  0
   -5.0533    0.1957    3.3355 C   0  0  0  0  0  0  0  0  0  0  0  0
   -5.7813   -0.9161    3.5627 O   0  0  0  0  0  0  0  0  0  0  0  0
   -5.1363   -2.1758    3.6785 C   0  0  0  0  0  0  0  0  0  0  0  0
   -3.8090    0.0744    2.7313 C   0  0  0  0  0  0  0  0  0  0  0  0
   -3.0214    1.1927    2.4780 C   0  0  0  0  0  0  0  0  0  0  0  0
   -3.5018    2.4473    2.8399 C   0  0  0  0  0  0  0  0  0  0  0  0
   -2.7460    3.5651    2.6007 N   0  0  0  0  0  0  0  0  0  0  0  0
   -1.5132    3.4802    2.0062 C   0  0  0  0  0  0  0  0  0  0  0  0
   -0.9895    2.2706    1.6280 C   0  0  0  0  0  0  0  0  0  0  0  0
    0.3150    2.1865    1.0000 C   0  0  0  0  0  0  0  0  0  0  0  0
    0.7944    3.1561    0.4804 O   0  0  0  0  0  0  0  0  0  0  0  0
    1.0000    1.0000    1.0000 N   0  0  0  0  0  0  0  0  0  0  0  0
    2.3830    1.0000    1.0000 N   0  0  0  0  0  0  0  0  0  0  0  0
    3.0826   -0.0494    0.3941 C   0  0  0  0  0  0  0  0  0  0  0  0
    3.4368    0.0178   -0.9493 C   0  0  0  0  0  0  0  0  0  0  0  0
    3.1015    1.0948   -1.6525 F   0  0  0  0  0  0  0  0  0  0  0  0
    4.1316   -1.0209   -1.5589 C   0  0  0  0  0  0  0  0  0  0  0  0
    4.4675   -2.1334   -0.7953 C   0  0  0  0  0  0  0  0  0  0  0  0
    4.1251   -2.2240    0.5495 C   0  0  0  0  0  0  0  0  0  0  0  0
    3.4301   -1.1723    1.1367 C   0  0  0  0  0  0  0  0  0  0  0  0
    3.0960   -1.2438    2.4221 F   0  0  0  0  0  0  0  0  0  0  0  0
    5.1906   -3.2229   -1.4195 C   0  0  0  0  0  0  0  0  0  0  0  0
    4.5925   -4.0799   -2.0093 O   0  0  0  0  0  0  0  0  0  0  0  0
    6.5571   -3.2746   -1.3364 N   0  0  0  0  0  0  0  0  0  0  0  0
    7.2899   -4.3786   -1.9690 C   0  0  0  0  0  0  0  0  0  0  0  0
    8.0821   -5.1636   -0.9637 C   0  0  0  0  0  0  0  0  0  0  0  0
    8.7770   -4.1928   -1.8753 C   0  0  0  0  0  0  0  0  0  0  0  0
   -1.7442    1.0893    1.8605 C   0  0  0  0  0  0  0  0  0  0  0  0
   -1.2680    0.0161    1.5198 O   0  0  0  0  0  0  0  0  0  0  0  0
   -4.7458    2.5908    3.4459 C   0  0  0  0  0  0  0  0  0  0  0  0
   -5.8201   -2.8864    3.8447 H   0  0  0  0  0  0  0  0  0  0  0  0
   -4.6448   -2.3778    2.8313 H   0  0  0  0  0  0  0  0  0  0  0  0
   -4.4898   -2.1504    4.4410 H   0  0  0  0  0  0  0  0  0  0  0  0
   -3.4735   -0.8319    2.4741 H   0  0  0  0  0  0  0  0  0  0  0  0
   -3.1011    4.4617    2.8654 H   0  0  0  0  0  0  0  0  0  0  0  0
   -0.9868    4.3152    1.8457 H   0  0  0  0  0  0  0  0  0  0  0  0
    0.5000    0.1340    1.0000 H   0  0  0  0  0  0  0  0  0  0  0  0
    2.8830    1.7500    1.4330 H   0  0  0  0  0  0  0  0  0  0  0  0
    4.3841   -0.9691   -2.5251 H   0  0  0  0  0  0  0  0  0  0  0  0
    4.3743   -3.0311    1.0848 H   0  0  0  0  0  0  0  0  0  0  0  0
    7.0555   -2.5604   -0.8449 H   0  0  0  0  0  0  0  0  0  0  0  0
    6.8976   -4.8433   -2.7628 H   0  0  0  0  0  0  0  0  0  0  0  0
    8.2126   -6.1473   -1.0878 H   0  0  0  0  0  0  0  0  0  0  0  0
    7.9949   -4.9594    0.0113 H   0  0  0  0  0  0  0  0  0  0  0  0
    9.1525   -3.3422   -1.5072 H   0  0  0  0  0  0  0  0  0  0  0  0
    9.3702   -4.5302   -2.6063 H   0  0  0  0  0  0  0  0  0  0  0  0
   -5.0829    3.4966    3.7025 H   0  0  0  0  0  0  0  0  0  0  0  0
  1  2  1  0  0  0  0
  2  3  1  0  0  0  0
  3  4  1  0  0  0  0
  4  5  1  0  0  0  0
  3  6  2  0  0  0  0
  6  7  1  0  0  0  0
  7  8  2  0  0  0  0
  8  9  1  0  0  0  0
  9 10  1  0  0  0  0
 10 11  2  0  0  0  0
 11 12  1  0  0  0  0
 12 13  2  0  0  0  0
 12 14  1  0  0  0  0
 14 15  1  0  0  0  0
 15 16  1  0  0  0  0
 16 17  1  0  0  0  0
 17 18  1  0  0  0  0
 17 19  2  0  0  0  0
 19 20  1  0  0  0  0
 20 21  2  0  0  0  0
 21 22  1  0  0  0  0
 22 16  2  0  0  0  0
 22 23  1  0  0  0  0
 20 24  1  0  0  0  0
 24 25  2  0  0  0  0
 24 26  1  0  0  0  0
 26 27  1  0  0  0  0
 27 28  1  0  0  0  0
 28 29  1  0  0  0  0
 29 27  1  0  0  0  0
 11 30  1  0  0  0  0
 30  7  1  0  0  0  0
 30 31  2  0  0  0  0
  8 32  1  0  0  0  0
 32  2  2  0  0  0  0
  5 33  1  0  0  0  0
  5 34  1  0  0  0  0
  5 35  1  0  0  0  0
  6 36  1  0  0  0  0
  9 37  1  0  0  0  0
 10 38  1  0  0  0  0
 14 39  1  0  0  0  0
 15 40  1  0  0  0  0
 19 41  1  0  0  0  0
 21 42  1  0  0  0  0
 26 43  1  0  0  0  0
 27 44  1  0  0  0  0
 28 45  1  0  0  0  0
 28 46  1  0  0  0  0
 29 47  1  0  0  0  0
 29 48  1  0  0  0  0
 32 49  1  0  0  0  0
M  END
>  <result-rank>
36

>  <similarity>
0.913

>  <query-name>


>  <query-smiles>
Fc1c(F)ccc(NC(=O)c2nc(cnc2Nc3cncnc3)C4CC4)c1C(=O)N5CCC5

>  <source>
REALspace_2019-12

>  <similarity-descriptor>
0.0;0.969;1.000;0.962;0.849;0.975;0.848;0.962;0.852;0.091

>  <similarity-descriptor-smiles>
;C1CC1;c1c(cccc1F)F;c1C(C=CNc1)=O;Fc1ccccc1O;N;C(=O)N;c1C(C=CNc1)=O;C(=O)N;C

>  <reaction-name>
s_22

>  <reagent1-name>
7639468

>  <reagent1-smiles>
[R1*]NNc1c(F)cc(cc1F)C(=O)NC2CC2

>  <reagent2-name>
9598836

>  <reagent2-smiles>
[R1*]C(=O)C=1C(=O)c2c(NC1)cc(F)c(OC)c2

$$$$
s_274090____12937272____13143872
          04022017343D 1   1.00000     0.00000     0
            
 53 56  0  0  0  0            999 V2000
   -0.9024    2.7054   -4.3269 O   0  0  0  0  0  0  0  0  0  0  0  0
   -2.0942    2.9365   -4.4401 C   0  0  0  0  0  0  0  0  0  0  0  0
   -2.8464    3.7887   -3.6375 N   0  0  0  0  0  0  0  0  0  0  0  0
   -2.3457    4.5201   -2.5536 C   0  0  0  0  0  0  0  0  0  0  0  0
   -1.8560    3.8524   -1.4360 C   0  0  0  0  0  0  0  0  0  0  0  0
   -1.3631    4.5967   -0.3691 C   0  0  0  0  0  0  0  0  0  0  0  0
   -0.8701    3.9255    0.7557 N   0  0  0  0  0  0  0  0  0  0  0  0
    0.4329    4.1003    1.1412 C   0  0  0  0  0  0  0  0  0  0  0  0
    1.2400    4.5166    0.3568 O   0  0  0  0  0  0  0  0  0  0  0  0
    0.8561    3.7670    2.5625 C   0  0  0  0  0  0  0  0  0  0  0  0
    2.0497    2.9093    2.5300 N   0  0  0  0  0  0  0  0  0  0  0  0
    3.2914    3.3277    2.5307 N   0  0  0  0  0  0  0  0  0  0  0  0
    4.0983    2.3562    2.5000 N   0  0  0  0  0  0  0  0  0  0  0  0
    3.3635    1.2089    2.4777 C   0  0  0  0  0  0  0  0  0  0  0  0
    2.0481    1.5507    2.4963 C   0  0  0  0  0  0  0  0  0  0  0  0
    3.9166   -0.2057    2.4415 C   0  0  0  0  0  0  0  0  0  0  0  0
    4.1033   -0.6942    3.8153 N   0  0  0  0  0  0  0  0  0  0  0  0
    4.5952   -1.9541    4.0335 C   0  0  0  0  0  0  0  0  0  0  0  0
    4.8736   -2.6589    3.1031 O   0  0  0  0  0  0  0  0  0  0  0  0
    4.7788   -2.4346    5.3850 C   0  0  0  0  0  0  0  0  0  0  0  0
    3.8098   -2.5723    6.3339 N   0  0  0  0  0  0  0  0  0  0  0  0
    4.3374   -3.0294    7.4503 N   0  0  0  0  0  0  0  0  0  0  0  0
    5.6287   -3.2186    7.2935 C   0  0  0  0  0  0  0  0  0  0  0  0
    5.9428   -2.8411    5.9689 C   0  0  0  0  0  0  0  0  0  0  0  0
    2.3905   -2.2494    6.1229 C   0  0  0  0  0  0  0  0  0  0  0  0
   -1.3531    5.9870   -0.4073 C   0  0  0  0  0  0  0  0  0  0  0  0
   -1.8480    6.6334   -1.5349 C   0  0  0  0  0  0  0  0  0  0  0  0
   -2.3459    5.9100   -2.6131 C   0  0  0  0  0  0  0  0  0  0  0  0
   -4.2372    3.8144   -4.0932 C   0  0  0  0  0  0  0  0  0  0  0  0
   -4.1162    3.4087   -5.5464 C   0  0  0  0  0  0  0  0  0  0  0  0
   -3.0255    2.3589   -5.4862 C   0  0  0  0  0  0  0  0  0  0  0  0
   -1.8581    2.8531   -1.4001 H   0  0  0  0  0  0  0  0  0  0  0  0
   -1.4689    3.3183    1.2779 H   0  0  0  0  0  0  0  0  0  0  0  0
    1.0660    4.6118    3.0546 H   0  0  0  0  0  0  0  0  0  0  0  0
    0.1128    3.2862    3.0276 H   0  0  0  0  0  0  0  0  0  0  0  0
    1.2566    0.9395    2.4873 H   0  0  0  0  0  0  0  0  0  0  0  0
    3.2747   -0.8024    1.9599 H   0  0  0  0  0  0  0  0  0  0  0  0
    4.7956   -0.2078    1.9646 H   0  0  0  0  0  0  0  0  0  0  0  0
    3.8712   -0.1068    4.5907 H   0  0  0  0  0  0  0  0  0  0  0  0
    6.2674   -3.5641    7.9811 H   0  0  0  0  0  0  0  0  0  0  0  0
    6.8461   -2.8670    5.5408 H   0  0  0  0  0  0  0  0  0  0  0  0
    2.2587   -1.9220    5.1872 H   0  0  0  0  0  0  0  0  0  0  0  0
    1.8367   -3.0689    6.2704 H   0  0  0  0  0  0  0  0  0  0  0  0
    2.1111   -1.5378    6.7675 H   0  0  0  0  0  0  0  0  0  0  0  0
   -0.9958    6.5136    0.3641 H   0  0  0  0  0  0  0  0  0  0  0  0
   -1.8457    7.6327   -1.5709 H   0  0  0  0  0  0  0  0  0  0  0  0
   -2.6994    6.3825   -3.4205 H   0  0  0  0  0  0  0  0  0  0  0  0
   -4.6289    4.7303   -4.0056 H   0  0  0  0  0  0  0  0  0  0  0  0
   -4.7967    3.1622   -3.5818 H   0  0  0  0  0  0  0  0  0  0  0  0
   -3.8455    4.1825   -6.1190 H   0  0  0  0  0  0  0  0  0  0  0  0
   -4.9732    3.0239   -5.8894 H   0  0  0  0  0  0  0  0  0  0  0  0
   -3.3891    1.4724   -5.2000 H   0  0  0  0  0  0  0  0  0  0  0  0
   -2.5654    2.2612   -6.3687 H   0  0  0  0  0  0  0  0  0  0  0  0
  1  2  2  0  0  0  0
  2  3  1  0  0  0  0
  3  4  1  0  0  0  0
  4  5  1  0  0  0  0
  5  6  2  0  0  0  0
  6  7  1  0  0  0  0
  7  8  1  0  0  0  0
  8  9  2  0  0  0  0
  8 10  1  0  0  0  0
 10 11  1  0  0  0  0
 11 12  1  0  0  0  0
 12 13  2  0  0  0  0
 13 14  1  0  0  0  0
 14 15  2  0  0  0  0
 15 11  1  0  0  0  0
 14 16  1  0  0  0  0
 16 17  1  0  0  0  0
 17 18  1  0  0  0  0
 18 19  2  0  0  0  0
 18 20  1  0  0  0  0
 20 21  1  0  0  0  0
 21 22  1  0  0  0  0
 22 23  2  0  0  0  0
 23 24  1  0  0  0  0
 20 24  2  0  0  0  0
 21 25  1  0  0  0  0
  6 26  1  0  0  0  0
 26 27  2  0  0  0  0
 27 28  1  0  0  0  0
 28  4  2  0  0  0  0
  3 29  1  0  0  0  0
 29 30  1  0  0  0  0
 30 31  1  0  0  0  0
 31  2  1  0  0  0  0
  5 32  1  0  0  0  0
  7 33  1  0  0  0  0
 10 34  1  0  0  0  0
 10 35  1  0  0  0  0
 15 36  1  0  0  0  0
 16 37  1  0  0  0  0
 16 38  1  0  0  0  0
 17 39  1  0  0  0  0
 23 40  1  0  0  0  0
 24 41  1  0  0  0  0
 25 42  1  0  0  0  0
 25 43  1  0  0  0  0
 25 44  1  0  0  0  0
 26 45  1  0  0  0  0
 27 46  1  0  0  0  0
 28 47  1  0  0  0  0
 29 48  1  0  0  0  0
 29 49  1  0  0  0  0
 30 50  1  0  0  0  0
 30 51  1  0  0  0  0
 31 52  1  0  0  0  0
 31 53  1  0  0  0  0
M  END
>  <result-rank>
37

>  <similarity>
0.913

>  <query-name>


>  <query-smiles>
Fc1c(F)ccc(NC(=O)c2nc(cnc2Nc3cncnc3)C4CC4)c1C(=O)N5CCC5

>  <source>
REALspace_2019-12

>  <similarity-descriptor>
0.0;0.998;0.928;0.891;0.917;1.000;0.858;0.990;0.998;0.091

>  <similarity-descriptor-smiles>
;O=C1CCCN1;c1ccccc1;N1C=C(N=N1)C;C(=O)C1=CC=NN1;N;C(=O)C;N;O=C1CCCN1;C

>  <reaction-name>
s_274090

>  <reagent1-name>
12937272

>  <reagent1-smiles>
[R1*]N=NN([R2*])CC(=O)Nc1cc(N2C(=O)CCC2)ccc1

>  <reagent2-name>
13143872

>  <reagent2-smiles>
[R1*]C(=C[R2*])CNC(=O)C=1N(N=CC1)C

$$$$
s_22____4786910____17596044
          04022017343D 1   1.00000     0.00000     0
            
 48 51  0  0  0  0            999 V2000
    2.8869   -3.6364    0.0616 F   0  0  0  0  0  0  0  0  0  0  0  0
    3.3151   -2.3850   -0.0689 C   0  0  0  0  0  0  0  0  0  0  0  0
    4.4604   -2.1157   -0.8099 C   0  0  0  0  0  0  0  0  0  0  0  0
    5.1563   -3.1675   -1.4154 N   0  0  0  0  0  0  0  0  0  0  0  0
    5.8089   -4.1894   -0.7329 C   0  0  0  0  0  0  0  0  0  0  0  0
    5.8774   -4.3182    0.4777 O   0  0  0  0  0  0  0  0  0  0  0  0
    6.4277   -5.1045   -1.7697 C   0  0  0  0  0  0  0  0  0  0  0  0
    6.5702   -4.1768   -2.9590 C   0  0  0  0  0  0  0  0  0  0  0  0
    5.3071   -3.3489   -2.8600 C   0  0  0  0  0  0  0  0  0  0  0  0
    4.9098   -0.8065   -0.9476 C   0  0  0  0  0  0  0  0  0  0  0  0
    4.2136    0.2353   -0.3438 C   0  0  0  0  0  0  0  0  0  0  0  0
    3.0698   -0.0498    0.3939 C   0  0  0  0  0  0  0  0  0  0  0  0
    2.3700    1.0000    1.0000 N   0  0  0  0  0  0  0  0  0  0  0  0
    1.0000    1.0000    1.0000 C   0  0  0  0  0  0  0  0  0  0  0  0
    0.4000   -0.0392    1.0000 O   0  0  0  0  0  0  0  0  0  0  0  0
    0.2747    2.2562    1.0000 C   0  0  0  0  0  0  0  0  0  0  0  0
   -0.5664    2.5575   -0.0008 N   0  0  0  0  0  0  0  0  0  0  0  0
   -1.2467    3.7136   -0.0206 C   0  0  0  0  0  0  0  0  0  0  0  0
   -1.0938    4.5987    0.9749 N   0  0  0  0  0  0  0  0  0  0  0  0
   -0.2678    4.3503    2.0006 C   0  0  0  0  0  0  0  0  0  0  0  0
    0.4484    3.1597    2.0435 C   0  0  0  0  0  0  0  0  0  0  0  0
    1.3859    2.8779    3.2065 C   0  0  0  0  0  0  0  0  0  0  0  0
   -2.1553    4.0352   -1.1063 C   0  0  0  0  0  0  0  0  0  0  0  0
   -2.8619    5.1355   -1.2140 N   0  0  0  0  0  0  0  0  0  0  0  0
   -3.5677    5.0763   -2.3184 N   0  0  0  0  0  0  0  0  0  0  0  0
   -3.3305    3.9043   -2.9717 C   0  0  0  0  0  0  0  0  0  0  0  0
   -2.4298    3.2150   -2.2194 C   0  0  0  0  0  0  0  0  0  0  0  0
   -4.4855    6.1231   -2.7897 C   0  0  0  0  0  0  0  0  0  0  0  0
    2.6082   -1.3535    0.5401 C   0  0  0  0  0  0  0  0  0  0  0  0
    5.8265   -5.8755   -1.9797 H   0  0  0  0  0  0  0  0  0  0  0  0
    7.3169   -5.4479   -1.4675 H   0  0  0  0  0  0  0  0  0  0  0  0
    7.3871   -3.6055   -2.8792 H   0  0  0  0  0  0  0  0  0  0  0  0
    6.6038   -4.6883   -3.8177 H   0  0  0  0  0  0  0  0  0  0  0  0
    5.4142   -2.4700   -3.3249 H   0  0  0  0  0  0  0  0  0  0  0  0
    4.5244   -3.8370   -3.2462 H   0  0  0  0  0  0  0  0  0  0  0  0
    5.7336   -0.6142   -1.4809 H   0  0  0  0  0  0  0  0  0  0  0  0
    4.5319    1.1785   -0.4391 H   0  0  0  0  0  0  0  0  0  0  0  0
    2.8700    1.7500    1.4330 H   0  0  0  0  0  0  0  0  0  0  0  0
   -0.1667    5.0214    2.7350 H   0  0  0  0  0  0  0  0  0  0  0  0
    1.3665    3.6478    3.8444 H   0  0  0  0  0  0  0  0  0  0  0  0
    1.0915    2.0467    3.6782 H   0  0  0  0  0  0  0  0  0  0  0  0
    2.3165    2.7538    2.8620 H   0  0  0  0  0  0  0  0  0  0  0  0
   -3.7385    3.6085   -3.8354 H   0  0  0  0  0  0  0  0  0  0  0  0
   -2.0431    2.3138   -2.4155 H   0  0  0  0  0  0  0  0  0  0  0  0
   -4.9005    5.8383   -3.6538 H   0  0  0  0  0  0  0  0  0  0  0  0
   -5.2024    6.2696   -2.1080 H   0  0  0  0  0  0  0  0  0  0  0  0
   -3.9782    6.9737   -2.9280 H   0  0  0  0  0  0  0  0  0  0  0  0
    1.7840   -1.5456    1.0728 H   0  0  0  0  0  0  0  0  0  0  0  0
  1  2  1  0  0  0  0
  2  3  1  0  0  0  0
  3  4  1  0  0  0  0
  4  5  1  0  0  0  0
  5  6  2  0  0  0  0
  5  7  1  0  0  0  0
  7  8  1  0  0  0  0
  8  9  1  0  0  0  0
  9  4  1  0  0  0  0
  3 10  2  0  0  0  0
 10 11  1  0  0  0  0
 11 12  2  0  0  0  0
 12 13  1  0  0  0  0
 13 14  1  0  0  0  0
 14 15  2  0  0  0  0
 14 16  1  0  0  0  0
 16 17  1  0  0  0  0
 17 18  2  0  0  0  0
 18 19  1  0  0  0  0
 19 20  2  0  0  0  0
 20 21  1  0  0  0  0
 21 16  2  0  0  0  0
 21 22  1  0  0  0  0
 18 23  1  0  0  0  0
 23 24  2  0  0  0  0
 24 25  1  0  0  0  0
 25 26  1  0  0  0  0
 26 27  2  0  0  0  0
 27 23  1  0  0  0  0
 25 28  1  0  0  0  0
 12 29  1  0  0  0  0
 29  2  2  0  0  0  0
  7 30  1  0  0  0  0
  7 31  1  0  0  0  0
  8 32  1  0  0  0  0
  8 33  1  0  0  0  0
  9 34  1  0  0  0  0
  9 35  1  0  0  0  0
 10 36  1  0  0  0  0
 11 37  1  0  0  0  0
 13 38  1  0  0  0  0
 20 39  1  0  0  0  0
 22 40  1  0  0  0  0
 22 41  1  0  0  0  0
 22 42  1  0  0  0  0
 26 43  1  0  0  0  0
 27 44  1  0  0  0  0
 28 45  1  0  0  0  0
 28 46  1  0  0  0  0
 28 47  1  0  0  0  0
 29 48  1  0  0  0  0
M  END
>  <result-rank>
38

>  <similarity>
0.913

>  <query-name>


>  <query-smiles>
Fc1c(F)ccc(NC(=O)c2nc(cnc2Nc3cncnc3)C4CC4)c1C(=O)N5CCC5

>  <source>
REALspace_2019-12

>  <similarity-descriptor>
0.0;0.998;0.964;0.906;0.818;1.000;1.000;0.906;0.998;0.125

>  <similarity-descriptor-smiles>
;N1CCCC1=O;Fc1ccccc1;c1ccncn1;C=1C=CN(N1)C;N;C=O;c1ccncn1;N1CCCC1=O;C

>  <reaction-name>
s_22

>  <reagent1-name>
4786910

>  <reagent1-smiles>
[R1*]Nc1cc(F)c(N2C(=O)CCC2)cc1

>  <reagent2-name>
17596044

>  <reagent2-smiles>
[R1*]C(=O)c1nc(ncc1C)C2=NN(C=C2)C

$$$$
s_22____15754276____13455094
          04022017343D 1   1.00000     0.00000     0
            
 51 53  0  0  0  0            999 V2000
   -0.8533    1.3084   -1.5292 Br  0  0  0  0  0  0  0  0  0  0  0  0
   -1.8127    0.4346   -0.0600 C   0  0  0  0  0  0  0  0  0  0  0  0
   -1.1352   -0.1863    0.9841 C   0  0  0  0  0  0  0  0  0  0  0  0
   -1.8225   -0.7753    1.9734 N   0  0  0  0  0  0  0  0  0  0  0  0
   -3.1631   -0.7784    1.9809 C   0  0  0  0  0  0  0  0  0  0  0  0
   -3.8412   -0.1863    0.9861 N   0  0  0  0  0  0  0  0  0  0  0  0
   -3.2031    0.4164   -0.0271 C   0  0  0  0  0  0  0  0  0  0  0  0
   -3.8767   -1.3941    3.0157 N   0  0  0  0  0  0  0  0  0  0  0  0
   -3.1564   -2.0504    4.1163 C   0  0  0  0  0  0  0  0  0  0  0  0
   -2.9063   -1.0430    5.2315 C   0  0  0  0  0  0  0  0  0  0  0  0
   -3.7040   -0.7962    6.2458 O   0  0  0  0  0  0  0  0  0  0  0  0
   -3.1902    0.1307    7.0249 C   0  0  0  0  0  0  0  0  0  0  0  0
   -1.9968    0.5149    6.4915 C   0  0  0  0  0  0  0  0  0  0  0  0
   -1.8052   -0.2482    5.3164 C   0  0  0  0  0  0  0  0  0  0  0  0
    0.3150   -0.1863    0.9841 C   0  0  0  0  0  0  0  0  0  0  0  0
    0.9150   -1.2255    0.9703 O   0  0  0  0  0  0  0  0  0  0  0  0
    1.0000    1.0000    1.0000 N   0  0  0  0  0  0  0  0  0  0  0  0
    2.4004    1.0000    1.0000 C   0  0  0  0  0  0  0  0  0  0  0  0
    3.0875   -0.2094    0.9838 C   0  0  0  0  0  0  0  0  0  0  0  0
    4.4784   -0.1962    0.9842 C   0  0  0  0  0  0  0  0  0  0  0  0
    5.3425   -1.7524    0.9636 Cl  0  0  0  0  0  0  0  0  0  0  0  0
    5.1724    1.0101    1.0004 C   0  0  0  0  0  0  0  0  0  0  0  0
    4.4748    2.2139    1.0171 C   0  0  0  0  0  0  0  0  0  0  0  0
    3.0839    2.2117    1.0169 C   0  0  0  0  0  0  0  0  0  0  0  0
    6.6224    1.0124    1.0015 C   0  0  0  0  0  0  0  0  0  0  0  0
    7.2240   -0.0258    0.9885 O   0  0  0  0  0  0  0  0  0  0  0  0
    7.2755    2.1478    1.0168 O   0  0  0  0  0  0  0  0  0  0  0  0
    8.6955    2.1501    1.0179 C   0  0  0  0  0  0  0  0  0  0  0  0
    9.2043    1.4506   -0.2320 C   0  0  0  0  0  0  0  0  0  0  0  0
    9.1999    3.5839    1.0369 C   0  0  0  0  0  0  0  0  0  0  0  0
    9.2024    1.4183    2.2500 C   0  0  0  0  0  0  0  0  0  0  0  0
   -3.7265    0.8526   -0.7591 H   0  0  0  0  0  0  0  0  0  0  0  0
   -4.8767   -1.3875    3.0063 H   0  0  0  0  0  0  0  0  0  0  0  0
   -2.2817   -2.3999    3.7805 H   0  0  0  0  0  0  0  0  0  0  0  0
   -3.7051   -2.8084    4.4687 H   0  0  0  0  0  0  0  0  0  0  0  0
   -3.6030    0.4902    7.8618 H   0  0  0  0  0  0  0  0  0  0  0  0
   -1.3746    1.2053    6.8608 H   0  0  0  0  0  0  0  0  0  0  0  0
   -1.0301   -0.2115    4.6857 H   0  0  0  0  0  0  0  0  0  0  0  0
    0.5000    1.8659    1.0116 H   0  0  0  0  0  0  0  0  0  0  0  0
    2.5886   -1.0760    0.9721 H   0  0  0  0  0  0  0  0  0  0  0  0
    4.9734    3.0806    1.0293 H   0  0  0  0  0  0  0  0  0  0  0  0
    2.5789    3.0747    1.0288 H   0  0  0  0  0  0  0  0  0  0  0  0
   10.2043    1.4522   -0.2312 H   0  0  0  0  0  0  0  0  0  0  0  0
    8.8725    0.5073   -0.2445 H   0  0  0  0  0  0  0  0  0  0  0  0
    8.8708    1.9320   -1.0426 H   0  0  0  0  0  0  0  0  0  0  0  0
   10.1999    3.5855    1.0377 H   0  0  0  0  0  0  0  0  0  0  0  0
    8.8664    4.0653    0.2263 H   0  0  0  0  0  0  0  0  0  0  0  0
    8.8652    4.0441    1.8592 H   0  0  0  0  0  0  0  0  0  0  0  0
   10.2024    1.4199    2.2507 H   0  0  0  0  0  0  0  0  0  0  0  0
    8.8677    1.8785    3.0722 H   0  0  0  0  0  0  0  0  0  0  0  0
    8.8706    0.4750    2.2374 H   0  0  0  0  0  0  0  0  0  0  0  0
  1  2  1  0  0  0  0
  2  3  1  0  0  0  0
  3  4  2  0  0  0  0
  4  5  1  0  0  0  0
  5  6  2  0  0  0  0
  6  7  1  0  0  0  0
  7  2  2  0  0  0  0
  5  8  1  0  0  0  0
  8  9  1  0  0  0  0
  9 10  1  0  0  0  0
 10 11  1  0  0  0  0
 11 12  1  0  0  0  0
 12 13  2  0  0  0  0
 13 14  1  0  0  0  0
 10 14  2  0  0  0  0
  3 15  1  0  0  0  0
 15 16  2  0  0  0  0
 15 17  1  0  0  0  0
 17 18  1  0  0  0  0
 18 19  1  0  0  0  0
 19 20  2  0  0  0  0
 20 21  1  0  0  0  0
 20 22  1  0  0  0  0
 22 23  2  0  0  0  0
 23 24  1  0  0  0  0
 24 18  2  0  0  0  0
 22 25  1  0  0  0  0
 25 26  2  0  0  0  0
 25 27  1  0  0  0  0
 27 28  1  0  0  0  0
 28 29  1  0  0  0  0
 28 30  1  0  0  0  0
 28 31  1  0  0  0  0
  7 32  1  0  0  0  0
  8 33  1  0  0  0  0
  9 34  1  0  0  0  0
  9 35  1  0  0  0  0
 12 36  1  0  0  0  0
 13 37  1  0  0  0  0
 14 38  1  0  0  0  0
 17 39  1  0  0  0  0
 19 40  1  0  0  0  0
 23 41  1  0  0  0  0
 24 42  1  0  0  0  0
 29 43  1  0  0  0  0
 29 44  1  0  0  0  0
 29 45  1  0  0  0  0
 30 46  1  0  0  0  0
 30 47  1  0  0  0  0
 30 48  1  0  0  0  0
 31 49  1  0  0  0  0
 31 50  1  0  0  0  0
 31 51  1  0  0  0  0
M  END
>  <result-rank>
39

>  <similarity>
0.912

>  <query-name>


>  <query-smiles>
Fc1c(F)ccc(NC(=O)c2nc(cnc2Nc3cncnc3)C4CC4)c1C(=O)N5CCC5

>  <source>
REALspace_2019-12

>  <similarity-descriptor>
0.0;0.868;0.955;0.949;0.880;1.000;1.000;1.000;0.855;0.0

>  <similarity-descriptor-smiles>
;C(C)(C)C;c1cccc(c1)Cl;Brc1cncnc1;CC1=CC=CO1;N;C=O;N;C(=O)O;

>  <reaction-name>
s_22

>  <reagent1-name>
15754276

>  <reagent1-smiles>
[R1*]Nc1cc(Cl)c(cc1)C(=O)OC(C)(C)C

>  <reagent2-name>
13455094

>  <reagent2-smiles>
[R1*]C(=O)c1nc(ncc1Br)NCC=2OC=CC2

$$$$
s_11a____4786906____9877408
          04022017343D 1   1.00000     0.00000     0
            
 47 50  0  0  0  0            999 V2000
    2.8869   -3.6364    0.0616 F   0  0  0  0  0  0  0  0  0  0  0  0
    3.3151   -2.3850   -0.0689 C   0  0  0  0  0  0  0  0  0  0  0  0
    4.4604   -2.1157   -0.8099 C   0  0  0  0  0  0  0  0  0  0  0  0
    5.1563   -3.1675   -1.4154 N   0  0  0  0  0  0  0  0  0  0  0  0
    5.8089   -4.1894   -0.7329 C   0  0  0  0  0  0  0  0  0  0  0  0
    5.8774   -4.3182    0.4777 O   0  0  0  0  0  0  0  0  0  0  0  0
    6.4277   -5.1045   -1.7697 C   0  0  0  0  0  0  0  0  0  0  0  0
    6.5702   -4.1768   -2.9590 C   0  0  0  0  0  0  0  0  0  0  0  0
    5.3071   -3.3489   -2.8600 C   0  0  0  0  0  0  0  0  0  0  0  0
    4.9098   -0.8065   -0.9476 C   0  0  0  0  0  0  0  0  0  0  0  0
    4.2136    0.2353   -0.3438 C   0  0  0  0  0  0  0  0  0  0  0  0
    3.0698   -0.0498    0.3939 C   0  0  0  0  0  0  0  0  0  0  0  0
    2.3700    1.0000    1.0000 N   0  0  0  0  0  0  0  0  0  0  0  0
    1.0000    1.0000    1.0000 C   0  0  0  0  0  0  0  0  0  0  0  0
    0.4000   -0.0392    1.0000 O   0  0  0  0  0  0  0  0  0  0  0  0
    0.2400    2.3164    1.0000 C   0  0  0  0  0  0  0  0  0  0  0  0
    0.2478    3.0137    1.9766 O   0  0  0  0  0  0  0  0  0  0  0  0
   -0.4947    2.7296   -0.1804 C   0  0  0  0  0  0  0  0  0  0  0  0
   -0.5181    1.9379   -1.3236 C   0  0  0  0  0  0  0  0  0  0  0  0
   -1.2344    2.3312   -2.4493 C   0  0  0  0  0  0  0  0  0  0  0  0
   -1.9344    3.5336   -2.4032 C   0  0  0  0  0  0  0  0  0  0  0  0
   -2.6865    3.9343   -3.5147 N   0  0  0  0  0  0  0  0  0  0  0  0
   -2.4523    3.3946   -4.7854 C   0  0  0  0  0  0  0  0  0  0  0  0
   -3.1036    3.8104   -5.7300 O   0  0  0  0  0  0  0  0  0  0  0  0
   -1.3885    2.3204   -4.9559 C   0  0  0  0  0  0  0  0  0  0  0  0
   -1.2556    1.4694   -3.7026 C   0  0  0  0  0  0  0  0  0  0  0  0
   -1.9119    4.3435   -1.2721 C   0  0  0  0  0  0  0  0  0  0  0  0
   -1.1887    3.9353   -0.1568 C   0  0  0  0  0  0  0  0  0  0  0  0
    2.6082   -1.3535    0.5401 C   0  0  0  0  0  0  0  0  0  0  0  0
    5.8265   -5.8755   -1.9797 H   0  0  0  0  0  0  0  0  0  0  0  0
    7.3169   -5.4479   -1.4675 H   0  0  0  0  0  0  0  0  0  0  0  0
    7.3871   -3.6055   -2.8792 H   0  0  0  0  0  0  0  0  0  0  0  0
    6.6038   -4.6883   -3.8177 H   0  0  0  0  0  0  0  0  0  0  0  0
    5.4142   -2.4700   -3.3249 H   0  0  0  0  0  0  0  0  0  0  0  0
    4.5244   -3.8370   -3.2462 H   0  0  0  0  0  0  0  0  0  0  0  0
    5.7336   -0.6142   -1.4809 H   0  0  0  0  0  0  0  0  0  0  0  0
    4.5319    1.1785   -0.4391 H   0  0  0  0  0  0  0  0  0  0  0  0
    2.8700    1.7500    1.4330 H   0  0  0  0  0  0  0  0  0  0  0  0
   -0.0134    1.0748   -1.3364 H   0  0  0  0  0  0  0  0  0  0  0  0
   -3.4052    4.6198   -3.3985 H   0  0  0  0  0  0  0  0  0  0  0  0
   -0.5103    2.7592   -5.1462 H   0  0  0  0  0  0  0  0  0  0  0  0
   -1.6404    1.7318   -5.7241 H   0  0  0  0  0  0  0  0  0  0  0  0
   -2.0312    0.8402   -3.6523 H   0  0  0  0  0  0  0  0  0  0  0  0
   -0.4048    0.9463   -3.7528 H   0  0  0  0  0  0  0  0  0  0  0  0
   -2.4107    5.2102   -1.2614 H   0  0  0  0  0  0  0  0  0  0  0  0
   -1.1674    4.5085    0.6624 H   0  0  0  0  0  0  0  0  0  0  0  0
    1.7840   -1.5456    1.0728 H   0  0  0  0  0  0  0  0  0  0  0  0
  1  2  1  0  0  0  0
  2  3  1  0  0  0  0
  3  4  1  0  0  0  0
  4  5  1  0  0  0  0
  5  6  2  0  0  0  0
  5  7  1  0  0  0  0
  7  8  1  0  0  0  0
  8  9  1  0  0  0  0
  9  4  1  0  0  0  0
  3 10  2  0  0  0  0
 10 11  1  0  0  0  0
 11 12  2  0  0  0  0
 12 13  1  0  0  0  0
 13 14  1  0  0  0  0
 14 15  2  0  0  0  0
 14 16  1  0  0  0  0
 16 17  2  0  0  0  0
 16 18  1  0  0  0  0
 18 19  1  0  0  0  0
 19 20  2  0  0  0  0
 20 21  1  0  0  0  0
 21 22  1  0  0  0  0
 22 23  1  0  0  0  0
 23 24  2  0  0  0  0
 23 25  1  0  0  0  0
 25 26  1  0  0  0  0
 26 20  1  0  0  0  0
 21 27  2  0  0  0  0
 27 28  1  0  0  0  0
 28 18  2  0  0  0  0
 12 29  1  0  0  0  0
 29  2  2  0  0  0  0
  7 30  1  0  0  0  0
  7 31  1  0  0  0  0
  8 32  1  0  0  0  0
  8 33  1  0  0  0  0
  9 34  1  0  0  0  0
  9 35  1  0  0  0  0
 10 36  1  0  0  0  0
 11 37  1  0  0  0  0
 13 38  1  0  0  0  0
 19 39  1  0  0  0  0
 22 40  1  0  0  0  0
 25 41  1  0  0  0  0
 25 42  1  0  0  0  0
 26 43  1  0  0  0  0
 26 44  1  0  0  0  0
 27 45  1  0  0  0  0
 28 46  1  0  0  0  0
 29 47  1  0  0  0  0
M  END
>  <result-rank>
40

>  <similarity>
0.911

>  <query-name>


>  <query-smiles>
Fc1c(F)ccc(NC(=O)c2nc(cnc2Nc3cncnc3)C4CC4)c1C(=O)N5CCC5

>  <source>
REALspace_2019-12

>  <similarity-descriptor>
0.0;0.998;0.964;0.838;0.867;1.000;0.999;0.867;0.998;0.0

>  <similarity-descriptor-smiles>
;N1CCCC1=O;Fc1ccccc1;C(=O)c1ccccc1;c1CCC(Nc1)=O;N;C=O;c1CCC(Nc1)=O;N1CCCC1=O;

>  <reaction-name>
s_11a

>  <reagent1-name>
4786906

>  <reagent1-smiles>
[R1*]Nc1cc(F)c(N2C(=O)CCC2)cc1

>  <reagent2-name>
9877408

>  <reagent2-smiles>
[R1*]C(=O)C(=O)c1cc2c(NC(=O)CC2)cc1

$$$$
s_51____4786918____3487126
          04022017343D 1   1.00000     0.00000     0
            
 48 51  0  0  0  0            999 V2000
    8.2165    5.0402    1.8425 F   0  0  0  0  0  0  0  0  0  0  0  0
    7.7696    4.5053    2.9742 C   0  0  0  0  0  0  0  0  0  0  0  0
    8.4292    4.7598    4.1716 C   0  0  0  0  0  0  0  0  0  0  0  0
    9.5623    5.5804    4.1768 N   0  0  0  0  0  0  0  0  0  0  0  0
   10.8224    5.2027    3.7236 C   0  0  0  0  0  0  0  0  0  0  0  0
   11.1273    4.1145    3.2658 O   0  0  0  0  0  0  0  0  0  0  0  0
   11.7472    6.3875    3.9147 C   0  0  0  0  0  0  0  0  0  0  0  0
   11.0520    7.1498    5.0242 C   0  0  0  0  0  0  0  0  0  0  0  0
    9.5940    6.9599    4.6650 C   0  0  0  0  0  0  0  0  0  0  0  0
    7.9627    4.2010    5.3569 C   0  0  0  0  0  0  0  0  0  0  0  0
    6.8353    3.3864    5.3457 C   0  0  0  0  0  0  0  0  0  0  0  0
    6.1864    3.1413    4.1406 C   0  0  0  0  0  0  0  0  0  0  0  0
    5.0515    2.3221    4.1315 N   0  0  0  0  0  0  0  0  0  0  0  0
    4.2252    2.2263    2.9221 C   0  0  3  0  0  0  0  0  0  0  0  0
    3.2014    1.1115    3.0465 C   0  0  0  0  0  0  0  0  0  0  0  0
    3.4403   -0.0186    3.4185 O   0  0  0  0  0  0  0  0  0  0  0  0
    1.9504    1.6004    2.6725 N   0  0  0  0  0  0  0  0  0  0  0  0
    0.7774    0.8321    2.5867 C   0  0  0  0  0  0  0  0  0  0  0  0
    0.4088    0.1873    1.4103 C   0  0  0  0  0  0  0  0  0  0  0  0
   -0.7148   -0.5428    1.3454 N   0  0  0  0  0  0  0  0  0  0  0  0
   -1.5242   -0.6799    2.4062 C   0  0  0  0  0  0  0  0  0  0  0  0
   -2.6542   -1.4150    2.3348 O   0  0  0  0  0  0  0  0  0  0  0  0
   -3.4924   -1.5410    3.4741 C   0  0  0  0  0  0  0  0  0  0  0  0
   -1.2125   -0.0600    3.6120 C   0  0  0  0  0  0  0  0  0  0  0  0
   -0.0509    0.7007    3.6968 C   0  0  0  0  0  0  0  0  0  0  0  0
    2.0275    2.9584    2.3870 C   0  0  0  0  0  0  0  0  0  0  0  0
    1.1159    3.6374    1.9619 O   0  0  0  0  0  0  0  0  0  0  0  0
    3.4143    3.4805    2.6821 C   0  0  0  0  0  0  0  0  0  0  0  0
    6.6408    3.6932    2.9476 C   0  0  0  0  0  0  0  0  0  0  0  0
   11.8122    6.9365    3.0814 H   0  0  0  0  0  0  0  0  0  0  0  0
   12.6618    6.0940    4.1927 H   0  0  0  0  0  0  0  0  0  0  0  0
   11.2600    6.7584    5.9206 H   0  0  0  0  0  0  0  0  0  0  0  0
   11.3059    8.1170    5.0158 H   0  0  0  0  0  0  0  0  0  0  0  0
    9.0071    7.0726    5.4668 H   0  0  0  0  0  0  0  0  0  0  0  0
    9.3113    7.6017    3.9522 H   0  0  0  0  0  0  0  0  0  0  0  0
    8.4379    4.3850    6.2173 H   0  0  0  0  0  0  0  0  0  0  0  0
    6.4953    2.9817    6.1946 H   0  0  0  0  0  0  0  0  0  0  0  0
    4.8036    1.8021    4.9489 H   0  0  0  0  0  0  0  0  0  0  0  0
    4.8118    2.0528    2.1311 H   0  0  0  0  0  0  0  0  0  0  0  0
    0.9902    0.2693    0.6008 H   0  0  0  0  0  0  0  0  0  0  0  0
   -4.2791   -2.1151    3.2472 H   0  0  0  0  0  0  0  0  0  0  0  0
   -2.9779   -1.9609    4.2217 H   0  0  0  0  0  0  0  0  0  0  0  0
   -3.8105   -0.6357    3.7556 H   0  0  0  0  0  0  0  0  0  0  0  0
   -1.8137   -0.1596    4.4048 H   0  0  0  0  0  0  0  0  0  0  0  0
    0.1887    1.1532    4.5558 H   0  0  0  0  0  0  0  0  0  0  0  0
    3.4105    4.0637    3.4944 H   0  0  0  0  0  0  0  0  0  0  0  0
    3.7748    3.9949    1.9040 H   0  0  0  0  0  0  0  0  0  0  0  0
    6.1650    3.5098    2.0874 H   0  0  0  0  0  0  0  0  0  0  0  0
  1  2  1  0  0  0  0
  2  3  1  0  0  0  0
  3  4  1  0  0  0  0
  4  5  1  0  0  0  0
  5  6  2  0  0  0  0
  5  7  1  0  0  0  0
  7  8  1  0  0  0  0
  8  9  1  0  0  0  0
  9  4  1  0  0  0  0
  3 10  2  0  0  0  0
 10 11  1  0  0  0  0
 11 12  2  0  0  0  0
 12 13  1  0  0  0  0
 13 14  1  0  0  0  0
 14 15  1  0  0  0  0
 15 16  2  0  0  0  0
 15 17  1  0  0  0  0
 17 18  1  0  0  0  0
 18 19  1  0  0  0  0
 19 20  2  0  0  0  0
 20 21  1  0  0  0  0
 21 22  1  0  0  0  0
 22 23  1  0  0  0  0
 21 24  2  0  0  0  0
 24 25  1  0  0  0  0
 25 18  2  0  0  0  0
 17 26  1  0  0  0  0
 26 27  2  0  0  0  0
 26 28  1  0  0  0  0
 28 14  1  0  0  0  0
 12 29  1  0  0  0  0
 29  2  2  0  0  0  0
  7 30  1  0  0  0  0
  7 31  1  0  0  0  0
  8 32  1  0  0  0  0
  8 33  1  0  0  0  0
  9 34  1  0  0  0  0
  9 35  1  0  0  0  0
 10 36  1  0  0  0  0
 11 37  1  0  0  0  0
 13 38  1  0  0  0  0
 14 39  1  0  0  0  0
 19 40  1  0  0  0  0
 23 41  1  0  0  0  0
 23 42  1  0  0  0  0
 23 43  1  0  0  0  0
 24 44  1  0  0  0  0
 25 45  1  0  0  0  0
 28 46  1  0  0  0  0
 28 47  1  0  0  0  0
 29 48  1  0  0  0  0
M  END
>  <result-rank>
41

>  <similarity>
0.911

>  <query-name>


>  <query-smiles>
Fc1c(F)ccc(NC(=O)c2nc(cnc2Nc3cncnc3)C4CC4)c1C(=O)N5CCC5

>  <source>
REALspace_2019-12

>  <similarity-descriptor>
0.0;0.998;0.964;0.812;0.964;0.990;0.812;0.812;0.998;0.143

>  <similarity-descriptor-smiles>
;N1CCCC1=O;Fc1ccccc1;C1CC(NC1=O)=O;c1ccc(nc1)O;N;C1CC(NC1=O)=O;C1CC(NC1=O)=O;N1CCCC1=O;C

>  <reaction-name>
s_51

>  <reagent1-name>
4786918

>  <reagent1-smiles>
[R1*]Nc1cc(F)c(N2C(=O)CCC2)cc1

>  <reagent2-name>
3487126

>  <reagent2-smiles>
[R1*]C1C(=O)N(c2cnc(OC)cc2)C(=O)C1

$$$$
s_1____86339____236095____9982796
          04022017343D 1   1.00000     0.00000     0
            
 47 51  0  0  0  0            999 V2000
   -4.0011    4.8609    1.0133 Cl  0  0  0  0  0  0  0  0  0  0  0  0
   -3.1626    3.2904    1.0173 C   0  0  0  0  0  0  0  0  0  0  0  0
   -3.8530    2.0816    1.0333 C   0  0  0  0  0  0  0  0  0  0  0  0
   -5.2063    2.1272    1.0432 O   0  0  0  0  0  0  0  0  0  0  0  0
   -6.0083    1.1588    0.3800 C   0  0  0  0  0  0  0  0  0  0  0  0
   -6.1717   -0.0875    1.2373 C   0  0  0  0  0  0  0  0  0  0  0  0
   -4.8733   -0.4758    1.9287 C   0  0  0  0  0  0  0  0  0  0  0  0
   -3.7402   -0.3287    1.0815 O   0  0  0  0  0  0  0  0  0  0  0  0
   -3.1432    0.8803    1.0379 C   0  0  0  0  0  0  0  0  0  0  0  0
   -1.7550    0.8707    1.0082 C   0  0  0  0  0  0  0  0  0  0  0  0
   -1.0751    2.0825    1.0023 C   0  0  0  0  0  0  0  0  0  0  0  0
   -1.7714    3.2868    1.0049 C   0  0  0  0  0  0  0  0  0  0  0  0
    0.3750    2.0825    1.0023 C   0  0  0  0  0  0  0  0  0  0  0  0
    1.0000    1.0000    1.0000 N   0  0  0  0  0  0  0  0  0  0  0  0
    2.3494    1.0000    1.0000 N   0  0  0  0  0  0  0  0  0  0  0  0
    3.0519    1.5802    2.0100 C   0  0  0  0  0  0  0  0  0  0  0  0
    4.6947    1.3521    1.6198 S   0  0  0  0  0  0  0  0  0  0  0  0
    4.4777    0.5183    0.1521 C   0  0  0  0  0  0  0  0  0  0  0  0
    3.1265    0.4390    0.0184 C   0  0  0  0  0  0  0  0  0  0  0  0
    2.6054   -0.2359   -1.1570 C   0  0  0  0  0  0  0  0  0  0  0  0
    1.2885   -0.3676   -1.3821 N   0  0  0  0  0  0  0  0  0  0  0  0
    0.8067   -0.9932   -2.4669 C   0  0  0  0  0  0  0  0  0  0  0  0
    1.6981   -1.5244   -3.3932 C   0  0  0  0  0  0  0  0  0  0  0  0
    3.0156   -1.3966   -3.1755 N   0  0  0  0  0  0  0  0  0  0  0  0
    3.4903   -0.7705   -2.0882 C   0  0  0  0  0  0  0  0  0  0  0  0
    2.5858    2.1723    3.0311 N   0  0  0  0  0  0  0  0  0  0  0  0
    3.4989    2.7478    4.0267 C   0  0  0  0  0  0  0  0  0  0  0  0
    2.8964    3.9461    4.7015 C   0  0  0  0  0  0  0  0  0  0  0  0
    3.9485    4.1288    3.6451 C   0  0  0  0  0  0  0  0  0  0  0  0
   -5.5715    0.9075   -0.4837 H   0  0  0  0  0  0  0  0  0  0  0  0
   -6.9099    1.5504    0.1960 H   0  0  0  0  0  0  0  0  0  0  0  0
   -6.4661   -0.8446    0.6541 H   0  0  0  0  0  0  0  0  0  0  0  0
   -6.8683    0.0878    1.9329 H   0  0  0  0  0  0  0  0  0  0  0  0
   -4.7509    0.1070    2.7320 H   0  0  0  0  0  0  0  0  0  0  0  0
   -4.9365   -1.4313    2.2167 H   0  0  0  0  0  0  0  0  0  0  0  0
   -1.2529    0.0060    0.9912 H   0  0  0  0  0  0  0  0  0  0  0  0
   -1.2706    4.1523    0.9979 H   0  0  0  0  0  0  0  0  0  0  0  0
    0.8750    2.9486    1.0042 H   0  0  0  0  0  0  0  0  0  0  0  0
    5.1801    0.1682   -0.4677 H   0  0  0  0  0  0  0  0  0  0  0  0
   -0.1798   -1.0764   -2.6075 H   0  0  0  0  0  0  0  0  0  0  0  0
    1.3618   -1.9945   -4.2093 H   0  0  0  0  0  0  0  0  0  0  0  0
    4.4769   -0.6882   -1.9474 H   0  0  0  0  0  0  0  0  0  0  0  0
    4.1158    2.1493    4.5378 H   0  0  0  0  0  0  0  0  0  0  0  0
    3.1099    4.1409    5.6588 H   0  0  0  0  0  0  0  0  0  0  0  0
    1.9484    4.2023    4.5126 H   0  0  0  0  0  0  0  0  0  0  0  0
    3.7011    4.5065    2.7529 H   0  0  0  0  0  0  0  0  0  0  0  0
    4.8625    4.4451    3.8991 H   0  0  0  0  0  0  0  0  0  0  0  0
  1  2  1  0  0  0  0
  2  3  1  0  0  0  0
  3  4  1  0  0  0  0
  4  5  1  0  0  0  0
  5  6  1  0  0  0  0
  6  7  1  0  0  0  0
  7  8  1  0  0  0  0
  8  9  1  0  0  0  0
  9  3  2  0  0  0  0
  9 10  1  0  0  0  0
 10 11  2  0  0  0  0
 11 12  1  0  0  0  0
 12  2  2  0  0  0  0
 11 13  1  0  0  0  0
 13 14  2  0  0  0  0
 14 15  1  0  0  0  0
 15 16  1  0  0  0  0
 16 17  1  0  0  0  0
 17 18  1  0  0  0  0
 18 19  2  0  0  0  0
 19 15  1  0  0  0  0
 19 20  1  0  0  0  0
 20 21  1  0  0  0  0
 21 22  2  0  0  0  0
 22 23  1  0  0  0  0
 23 24  2  0  0  0  0
 24 25  1  0  0  0  0
 25 20  2  0  0  0  0
 16 26  2  0  0  0  0
 26 27  1  0  0  0  0
 27 28  1  0  0  0  0
 28 29  1  0  0  0  0
 29 27  1  0  0  0  0
  5 30  1  0  0  0  0
  5 31  1  0  0  0  0
  6 32  1  0  0  0  0
  6 33  1  0  0  0  0
  7 34  1  0  0  0  0
  7 35  1  0  0  0  0
 10 36  1  0  0  0  0
 12 37  1  0  0  0  0
 13 38  1  0  0  0  0
 18 39  1  0  0  0  0
 22 40  1  0  0  0  0
 23 41  1  0  0  0  0
 25 42  1  0  0  0  0
 27 43  1  0  0  0  0
 28 44  1  0  0  0  0
 28 45  1  0  0  0  0
 29 46  1  0  0  0  0
 29 47  1  0  0  0  0
M  END
>  <result-rank>
42

>  <similarity>
0.911

>  <query-name>


>  <query-smiles>
Fc1c(F)ccc(NC(=O)c2nc(cnc2Nc3cncnc3)C4CC4)c1C(=O)N5CCC5

>  <source>
REALspace_2019-12

>  <similarity-descriptor>
0.997;0.908;0.983;0.892;0.919;0.637;0.637;0.919;0.908;0.0

>  <similarity-descriptor-smiles>
C1CC1;c1cOCCCO1;Clc1ccccc1;N1C=CSC1=N;c1cnccn1;C=N;C=N;c1cnccn1;c1cOCCCO1;

>  <reaction-name>
s_1

>  <reagent1-name>
86339

>  <reagent1-smiles>
[R3*]=NN([R2*])C(S[R1*])=NC1CC1

>  <reagent2-name>
236095

>  <reagent2-smiles>
[R3*]=Cc1cc(Cl)c2OCCCOc2c1

>  <reagent3-name>
9982796

>  <reagent3-smiles>
[R2*]C(c1nccnc1)=C[R1*]

$$$$
s_22____1041906____3218514
          04022017343D 1   1.00000     0.00000     0
            
 54 57  0  0  0  0            999 V2000
   -2.3267    3.7157    4.7817 F   0  0  0  0  0  0  0  0  0  0  0  0
   -2.5230    4.1180    3.5296 C   0  0  0  0  0  0  0  0  0  0  0  0
   -1.5300    3.9073    2.5785 C   0  0  0  0  0  0  0  0  0  0  0  0
   -0.3339    3.2760    2.9413 N   0  0  0  0  0  0  0  0  0  0  0  0
    0.8652    3.7847    2.5168 C   0  0  0  0  0  0  0  0  0  0  0  0
    0.9386    4.9269    2.1561 O   0  0  0  0  0  0  0  0  0  0  0  0
    2.0470    2.9421    2.5033 C   0  0  0  0  0  0  0  0  0  0  0  0
    3.2893    3.3423    2.4844 N   0  0  0  0  0  0  0  0  0  0  0  0
    4.1105    2.3204    2.4788 N   0  0  0  0  0  0  0  0  0  0  0  0
    5.5079    2.4065    2.4603 C   0  0  0  0  0  0  0  0  0  0  0  0
    6.2696    1.2423    2.4561 C   0  0  0  0  0  0  0  0  0  0  0  0
    7.6576    1.3319    2.4375 C   0  0  0  0  0  0  0  0  0  0  0  0
    8.2738    2.5786    2.4233 C   0  0  0  0  0  0  0  0  0  0  0  0
    7.5023    3.7359    2.4270 C   0  0  0  0  0  0  0  0  0  0  0  0
    6.1136    3.6586    2.4458 C   0  0  0  0  0  0  0  0  0  0  0  0
    3.3925    1.1642    2.4952 C   0  0  0  0  0  0  0  0  0  0  0  0
    2.0827    1.5324    2.5090 C   0  0  0  0  0  0  0  0  0  0  0  0
    1.0157    0.7034    2.5284 O   0  0  0  0  0  0  0  0  0  0  0  0
    0.5683    0.0938    1.3264 C   0  0  0  0  0  0  0  0  0  0  0  0
   -0.6372   -0.7837    1.6216 C   0  0  0  0  0  0  0  0  0  0  0  0
   -1.1161   -1.4362    0.3350 C   0  0  0  0  0  0  0  0  0  0  0  0
   -1.7127    4.3194    1.2634 C   0  0  0  0  0  0  0  0  0  0  0  0
   -2.9054    4.9452    0.9189 C   0  0  0  0  0  0  0  0  0  0  0  0
   -3.1052    5.3680   -0.4006 N   0  0  0  0  0  0  0  0  0  0  0  0
   -2.9356    6.6723   -0.8544 C   0  0  0  0  0  0  0  0  0  0  0  0
   -2.5983    7.6313   -0.1812 O   0  0  0  0  0  0  0  0  0  0  0  0
   -3.2585    6.6834   -2.3346 C   0  0  0  0  0  0  0  0  0  0  0  0
   -4.1681    5.4786   -2.4643 C   0  0  0  0  0  0  0  0  0  0  0  0
   -3.5280    4.5014   -1.5019 C   0  0  0  0  0  0  0  0  0  0  0  0
   -3.9023    5.1587    1.8644 C   0  0  0  0  0  0  0  0  0  0  0  0
   -3.7144    4.7445    3.1788 C   0  0  0  0  0  0  0  0  0  0  0  0
   -0.3550    2.4540    3.5103 H   0  0  0  0  0  0  0  0  0  0  0  0
    5.8226    0.3479    2.4665 H   0  0  0  0  0  0  0  0  0  0  0  0
    8.2124    0.4999    2.4343 H   0  0  0  0  0  0  0  0  0  0  0  0
    9.2717    2.6430    2.4104 H   0  0  0  0  0  0  0  0  0  0  0  0
    7.9494    4.6303    2.4162 H   0  0  0  0  0  0  0  0  0  0  0  0
    5.5590    4.4907    2.4488 H   0  0  0  0  0  0  0  0  0  0  0  0
    3.7546    0.2321    2.4968 H   0  0  0  0  0  0  0  0  0  0  0  0
    1.3027   -0.4666    0.9434 H   0  0  0  0  0  0  0  0  0  0  0  0
    0.3119    0.8022    0.6688 H   0  0  0  0  0  0  0  0  0  0  0  0
   -1.3716   -0.2234    2.0045 H   0  0  0  0  0  0  0  0  0  0  0  0
   -0.3809   -1.4921    2.2792 H   0  0  0  0  0  0  0  0  0  0  0  0
   -1.9092   -2.0135    0.5291 H   0  0  0  0  0  0  0  0  0  0  0  0
   -1.3725   -0.7278   -0.3227 H   0  0  0  0  0  0  0  0  0  0  0  0
   -0.3817   -1.9966   -0.0480 H   0  0  0  0  0  0  0  0  0  0  0  0
   -0.9999    4.1686    0.5784 H   0  0  0  0  0  0  0  0  0  0  0  0
   -2.4324    6.5768   -2.8880 H   0  0  0  0  0  0  0  0  0  0  0  0
   -3.7298    7.5251   -2.5979 H   0  0  0  0  0  0  0  0  0  0  0  0
   -5.1045    5.6984   -2.1907 H   0  0  0  0  0  0  0  0  0  0  0  0
   -4.1687    5.1219   -3.3985 H   0  0  0  0  0  0  0  0  0  0  0  0
   -4.1875    3.8174   -1.1902 H   0  0  0  0  0  0  0  0  0  0  0  0
   -2.7447    4.0425   -1.9212 H   0  0  0  0  0  0  0  0  0  0  0  0
   -4.7544    5.6100    1.5994 H   0  0  0  0  0  0  0  0  0  0  0  0
   -4.4273    4.8954    3.8635 H   0  0  0  0  0  0  0  0  0  0  0  0
  1  2  1  0  0  0  0
  2  3  1  0  0  0  0
  3  4  1  0  0  0  0
  4  5  1  0  0  0  0
  5  6  2  0  0  0  0
  5  7  1  0  0  0  0
  7  8  2  0  0  0  0
  8  9  1  0  0  0  0
  9 10  1  0  0  0  0
 10 11  1  0  0  0  0
 11 12  2  0  0  0  0
 12 13  1  0  0  0  0
 13 14  2  0  0  0  0
 14 15  1  0  0  0  0
 15 10  2  0  0  0  0
  9 16  1  0  0  0  0
 16 17  2  0  0  0  0
 17  7  1  0  0  0  0
 17 18  1  0  0  0  0
 18 19  1  0  0  0  0
 19 20  1  0  0  0  0
 20 21  1  0  0  0  0
  3 22  2  0  0  0  0
 22 23  1  0  0  0  0
 23 24  1  0  0  0  0
 24 25  1  0  0  0  0
 25 26  2  0  0  0  0
 25 27  1  0  0  0  0
 27 28  1  0  0  0  0
 28 29  1  0  0  0  0
 29 24  1  0  0  0  0
 23 30  2  0  0  0  0
 30 31  1  0  0  0  0
 31  2  2  0  0  0  0
  4 32  1  0  0  0  0
 11 33  1  0  0  0  0
 12 34  1  0  0  0  0
 13 35  1  0  0  0  0
 14 36  1  0  0  0  0
 15 37  1  0  0  0  0
 16 38  1  0  0  0  0
 19 39  1  0  0  0  0
 19 40  1  0  0  0  0
 20 41  1  0  0  0  0
 20 42  1  0  0  0  0
 21 43  1  0  0  0  0
 21 44  1  0  0  0  0
 21 45  1  0  0  0  0
 22 46  1  0  0  0  0
 27 47  1  0  0  0  0
 27 48  1  0  0  0  0
 28 49  1  0  0  0  0
 28 50  1  0  0  0  0
 29 51  1  0  0  0  0
 29 52  1  0  0  0  0
 30 53  1  0  0  0  0
 31 54  1  0  0  0  0
M  END
>  <result-rank>
43

>  <similarity>
0.910

>  <query-name>


>  <query-smiles>
Fc1c(F)ccc(NC(=O)c2nc(cnc2Nc3cncnc3)C4CC4)c1C(=O)N5CCC5

>  <source>
REALspace_2019-12

>  <similarity-descriptor>
0.872;0.998;0.964;0.961;0.698;1.000;0.999;0.698;0.998;0.0

>  <similarity-descriptor-smiles>
CCC;N1CCCC1=O;Fc1ccccc1;C=1C(=CNN1)O;c1ccccc1;N;C=O;c1ccccc1;N1CCCC1=O;

>  <reaction-name>
s_22

>  <reagent1-name>
1041906

>  <reagent1-smiles>
[R1*]Nc1c(F)ccc(N2C(=O)CCC2)c1

>  <reagent2-name>
3218514

>  <reagent2-smiles>
[R1*]C(=O)C1=NN(c2ccccc2)C=C1OCCC

$$$$
s_22____7639468____13179878
          04022017343D 1   1.00000     0.00000     0
            
 44 47  0  0  0  0            999 V2000
    2.4367   -1.1998    1.8109 F   0  0  0  0  0  0  0  0  0  0  0  0
    3.1076   -0.1232    1.4141 C   0  0  0  0  0  0  0  0  0  0  0  0
    2.3992    1.0000    1.0000 C   0  0  0  0  0  0  0  0  0  0  0  0
    1.0000    1.0000    1.0000 N   0  0  0  0  0  0  0  0  0  0  0  0
    0.3085    2.1977    0.9950 N   0  0  0  0  0  0  0  0  0  0  0  0
   -1.0265    2.2192    1.3020 C   0  0  0  0  0  0  0  0  0  0  0  0
   -1.5958    1.1988    1.5752 O   0  0  0  0  0  0  0  0  0  0  0  0
   -1.7528    3.4772    1.2967 C   0  0  0  0  0  0  0  0  0  0  0  0
   -1.4596    4.5505    2.0812 N   0  0  0  0  0  0  0  0  0  0  0  0
   -2.3039    5.4404    1.7934 N   0  0  0  0  0  0  0  0  0  0  0  0
   -3.1722    5.0728    0.8611 N   0  0  0  0  0  0  0  0  0  0  0  0
   -2.8292    3.8040    0.5248 C   0  0  0  0  0  0  0  0  0  0  0  0
   -3.5916    3.1333   -0.4748 C   0  0  0  0  0  0  0  0  0  0  0  0
   -3.3398    1.9932   -0.8340 O   0  0  0  0  0  0  0  0  0  0  0  0
   -4.6503    3.7584   -1.0784 N   0  0  0  0  0  0  0  0  0  0  0  0
   -4.9981    5.0406   -0.7288 C   0  0  0  0  0  0  0  0  0  0  0  0
   -4.2447    5.6677    0.2371 C   0  0  0  0  0  0  0  0  0  0  0  0
   -6.1862    5.7167   -1.4057 C   0  0  0  0  0  0  0  0  0  0  0  0
    3.0936    2.1300    0.5829 C   0  0  0  0  0  0  0  0  0  0  0  0
    2.4236    3.2076    0.1845 F   0  0  0  0  0  0  0  0  0  0  0  0
    4.4841    2.1464    0.5773 C   0  0  0  0  0  0  0  0  0  0  0  0
    5.1697    1.0114    0.9963 C   0  0  0  0  0  0  0  0  0  0  0  0
    4.4980   -0.1310    1.4176 C   0  0  0  0  0  0  0  0  0  0  0  0
    6.6186    1.0158    0.9963 C   0  0  0  0  0  0  0  0  0  0  0  0
    7.2210    0.0427    1.3571 O   0  0  0  0  0  0  0  0  0  0  0  0
    7.3009    2.1307    0.5859 N   0  0  0  0  0  0  0  0  0  0  0  0
    8.7693    2.1348    0.5875 C   0  0  0  0  0  0  0  0  0  0  0  0
    9.3177    3.2102    1.4803 C   0  0  0  0  0  0  0  0  0  0  0  0
    9.3284    3.3937   -0.0105 C   0  0  0  0  0  0  0  0  0  0  0  0
    0.5000    0.1340    1.0036 H   0  0  0  0  0  0  0  0  0  0  0  0
    0.7829    3.0480    0.7673 H   0  0  0  0  0  0  0  0  0  0  0  0
   -5.1751    3.2768   -1.7803 H   0  0  0  0  0  0  0  0  0  0  0  0
   -4.4887    6.6016    0.4985 H   0  0  0  0  0  0  0  0  0  0  0  0
   -6.2994    6.6392   -1.0367 H   0  0  0  0  0  0  0  0  0  0  0  0
   -6.0228    5.7694   -2.3908 H   0  0  0  0  0  0  0  0  0  0  0  0
   -7.0151    5.1846   -1.2332 H   0  0  0  0  0  0  0  0  0  0  0  0
    4.9822    2.9599    0.2772 H   0  0  0  0  0  0  0  0  0  0  0  0
    5.0038   -0.9403    1.7164 H   0  0  0  0  0  0  0  0  0  0  0  0
    6.7989    2.9416    0.2853 H   0  0  0  0  0  0  0  0  0  0  0  0
    9.2674    1.2738    0.4852 H   0  0  0  0  0  0  0  0  0  0  0  0
   10.1758    3.0625    1.9721 H   0  0  0  0  0  0  0  0  0  0  0  0
    8.6984    3.7541    2.0466 H   0  0  0  0  0  0  0  0  0  0  0  0
    8.7162    4.0596   -0.4368 H   0  0  0  0  0  0  0  0  0  0  0  0
   10.1936    3.3680   -0.5113 H   0  0  0  0  0  0  0  0  0  0  0  0
  1  2  1  0  0  0  0
  2  3  1  0  0  0  0
  3  4  1  0  0  0  0
  4  5  1  0  0  0  0
  5  6  1  0  0  0  0
  6  7  2  0  0  0  0
  6  8  1  0  0  0  0
  8  9  1  0  0  0  0
  9 10  2  0  0  0  0
 10 11  1  0  0  0  0
 11 12  1  0  0  0  0
  8 12  2  0  0  0  0
 12 13  1  0  0  0  0
 13 14  2  0  0  0  0
 13 15  1  0  0  0  0
 15 16  1  0  0  0  0
 16 17  2  0  0  0  0
 17 11  1  0  0  0  0
 16 18  1  0  0  0  0
  3 19  2  0  0  0  0
 19 20  1  0  0  0  0
 19 21  1  0  0  0  0
 21 22  2  0  0  0  0
 22 23  1  0  0  0  0
 23  2  2  0  0  0  0
 22 24  1  0  0  0  0
 24 25  2  0  0  0  0
 24 26  1  0  0  0  0
 26 27  1  0  0  0  0
 27 28  1  0  0  0  0
 28 29  1  0  0  0  0
 29 27  1  0  0  0  0
  4 30  1  0  0  0  0
  5 31  1  0  0  0  0
 15 32  1  0  0  0  0
 17 33  1  0  0  0  0
 18 34  1  0  0  0  0
 18 35  1  0  0  0  0
 18 36  1  0  0  0  0
 21 37  1  0  0  0  0
 23 38  1  0  0  0  0
 26 39  1  0  0  0  0
 27 40  1  0  0  0  0
 28 41  1  0  0  0  0
 28 42  1  0  0  0  0
 29 43  1  0  0  0  0
 29 44  1  0  0  0  0
M  END
>  <result-rank>
44

>  <similarity>
0.910

>  <query-name>


>  <query-smiles>
Fc1c(F)ccc(NC(=O)c2nc(cnc2Nc3cncnc3)C4CC4)c1C(=O)N5CCC5

>  <source>
REALspace_2019-12

>  <similarity-descriptor>
0.0;0.969;1.000;0.824;0.955;0.975;0.848;0.955;0.852;0.100

>  <similarity-descriptor-smiles>
;C1CC1;Fc1cccc(c1)F;C1=CNN=N1;N1C=CNC(C1)=O;N;NC=O;N1C=CNC(C1)=O;C(=O)N;C

>  <reaction-name>
s_22

>  <reagent1-name>
7639468

>  <reagent1-smiles>
[R1*]NNc1c(F)cc(cc1F)C(=O)NC2CC2

>  <reagent2-name>
13179878

>  <reagent2-smiles>
[R1*]C(=O)C=1N=NN2C1C(=O)NC(=C2)C

$$$$
s_22____14942836____6742582
          04022017343D 1   1.00000     0.00000     0
            
 50 53  0  0  0  0            999 V2000
    4.4914   -4.5065    5.9257 Br  0  0  0  0  0  0  0  0  0  0  0  0
    4.1220   -4.1272    4.0382 C   0  0  0  0  0  0  0  0  0  0  0  0
    4.2050   -5.1140    3.0598 C   0  0  0  0  0  0  0  0  0  0  0  0
    4.5492   -6.3668    3.4414 O   0  0  0  0  0  0  0  0  0  0  0  0
    4.0266   -7.5322    2.8138 C   0  0  0  0  0  0  0  0  0  0  0  0
    4.7839   -7.8517    1.5325 C   0  0  0  0  0  0  0  0  0  0  0  0
    5.0980   -6.5970    0.7296 C   0  0  0  0  0  0  0  0  0  0  0  0
    4.0173   -5.6723    0.7171 O   0  0  0  0  0  0  0  0  0  0  0  0
    3.9328   -4.7837    1.7313 C   0  0  0  0  0  0  0  0  0  0  0  0
    3.5645   -3.4909    1.3809 C   0  0  0  0  0  0  0  0  0  0  0  0
    3.4943   -2.5117    2.3655 C   0  0  0  0  0  0  0  0  0  0  0  0
    3.1535   -1.1997    2.0170 N   0  0  0  0  0  0  0  0  0  0  0  0
    3.9322   -0.1546    2.4392 C   0  0  0  0  0  0  0  0  0  0  0  0
    5.0648   -0.3511    2.7837 O   0  0  0  0  0  0  0  0  0  0  0  0
    3.3877    1.1894    2.4697 C   0  0  0  0  0  0  0  0  0  0  0  0
    4.1176    2.3377    2.4884 N   0  0  0  0  0  0  0  0  0  0  0  0
    3.2730    3.3414    2.5117 N   0  0  0  0  0  0  0  0  0  0  0  0
    2.0358    2.9153    2.5097 C   0  0  0  0  0  0  0  0  0  0  0  0
    0.8466    3.7444    2.5274 C   0  0  0  0  0  0  0  0  0  0  0  0
   -0.4053    3.1389    2.5226 C   0  0  0  0  0  0  0  0  0  0  0  0
   -1.5388    3.9443    2.5396 C   0  0  0  0  0  0  0  0  0  0  0  0
   -2.7617    3.3734    2.5346 O   0  0  0  0  0  0  0  0  0  0  0  0
   -2.8849    1.9590    2.5123 C   0  0  0  0  0  0  0  0  0  0  0  0
   -1.4182    5.3296    2.5615 C   0  0  0  0  0  0  0  0  0  0  0  0
   -2.5300    6.0956    2.5783 O   0  0  0  0  0  0  0  0  0  0  0  0
   -2.4168    7.5109    2.6006 C   0  0  0  0  0  0  0  0  0  0  0  0
   -0.1638    5.9309    2.5664 C   0  0  0  0  0  0  0  0  0  0  0  0
    0.9727    5.1292    2.5495 C   0  0  0  0  0  0  0  0  0  0  0  0
    2.0666    1.5070    2.4823 C   0  0  0  0  0  0  0  0  0  0  0  0
    3.7700   -2.8273    3.6917 C   0  0  0  0  0  0  0  0  0  0  0  0
    3.0628   -7.3805    2.5943 H   0  0  0  0  0  0  0  0  0  0  0  0
    4.1075   -8.3057    3.4424 H   0  0  0  0  0  0  0  0  0  0  0  0
    4.2260   -8.4632    0.9713 H   0  0  0  0  0  0  0  0  0  0  0  0
    5.6421   -8.3070    1.7694 H   0  0  0  0  0  0  0  0  0  0  0  0
    5.8971   -6.1506    1.1321 H   0  0  0  0  0  0  0  0  0  0  0  0
    5.3036   -6.8624   -0.2124 H   0  0  0  0  0  0  0  0  0  0  0  0
    3.3519   -3.2667    0.4298 H   0  0  0  0  0  0  0  0  0  0  0  0
    2.3417   -1.0252    1.4598 H   0  0  0  0  0  0  0  0  0  0  0  0
    5.1154    2.4044    2.4851 H   0  0  0  0  0  0  0  0  0  0  0  0
   -0.4889    2.1426    2.5072 H   0  0  0  0  0  0  0  0  0  0  0  0
   -3.8530    1.7087    2.5116 H   0  0  0  0  0  0  0  0  0  0  0  0
   -2.4469    1.5992    1.6884 H   0  0  0  0  0  0  0  0  0  0  0  0
   -2.4414    1.5730    3.3212 H   0  0  0  0  0  0  0  0  0  0  0  0
   -3.3301    7.9182    2.6109 H   0  0  0  0  0  0  0  0  0  0  0  0
   -1.9171    7.7925    3.4197 H   0  0  0  0  0  0  0  0  0  0  0  0
   -1.9237    7.8188    1.7870 H   0  0  0  0  0  0  0  0  0  0  0  0
   -0.0802    6.9273    2.5819 H   0  0  0  0  0  0  0  0  0  0  0  0
    1.8805    5.5486    2.5532 H   0  0  0  0  0  0  0  0  0  0  0  0
    1.2880    0.8795    2.4741 H   0  0  0  0  0  0  0  0  0  0  0  0
    3.7152   -2.1195    4.3960 H   0  0  0  0  0  0  0  0  0  0  0  0
  1  2  1  0  0  0  0
  2  3  1  0  0  0  0
  3  4  1  0  0  0  0
  4  5  1  0  0  0  0
  5  6  1  0  0  0  0
  6  7  1  0  0  0  0
  7  8  1  0  0  0  0
  8  9  1  0  0  0  0
  9  3  2  0  0  0  0
  9 10  1  0  0  0  0
 10 11  2  0  0  0  0
 11 12  1  0  0  0  0
 12 13  1  0  0  0  0
 13 14  2  0  0  0  0
 13 15  1  0  0  0  0
 15 16  1  0  0  0  0
 16 17  1  0  0  0  0
 17 18  2  0  0  0  0
 18 19  1  0  0  0  0
 19 20  1  0  0  0  0
 20 21  2  0  0  0  0
 21 22  1  0  0  0  0
 22 23  1  0  0  0  0
 21 24  1  0  0  0  0
 24 25  1  0  0  0  0
 25 26  1  0  0  0  0
 24 27  2  0  0  0  0
 27 28  1  0  0  0  0
 28 19  2  0  0  0  0
 18 29  1  0  0  0  0
 15 29  2  0  0  0  0
 11 30  1  0  0  0  0
 30  2  2  0  0  0  0
  5 31  1  0  0  0  0
  5 32  1  0  0  0  0
  6 33  1  0  0  0  0
  6 34  1  0  0  0  0
  7 35  1  0  0  0  0
  7 36  1  0  0  0  0
 10 37  1  0  0  0  0
 12 38  1  0  0  0  0
 16 39  1  0  0  0  0
 20 40  1  0  0  0  0
 23 41  1  0  0  0  0
 23 42  1  0  0  0  0
 23 43  1  0  0  0  0
 26 44  1  0  0  0  0
 26 45  1  0  0  0  0
 26 46  1  0  0  0  0
 27 47  1  0  0  0  0
 28 48  1  0  0  0  0
 29 49  1  0  0  0  0
 30 50  1  0  0  0  0
M  END
>  <result-rank>
45

>  <similarity>
0.910

>  <query-name>


>  <query-smiles>
Fc1c(F)ccc(NC(=O)c2nc(cnc2Nc3cncnc3)C4CC4)c1C(=O)N5CCC5

>  <source>
REALspace_2019-12

>  <similarity-descriptor>
0.0;0.908;0.994;0.859;0.933;1.000;0.999;0.859;0.908;0.200

>  <similarity-descriptor-smiles>
;c1cOCCCO1;Brc1ccccc1;C1=CC=NN1;c1ccc(c(c1)O)O;N;C=O;C1=CC=NN1;c1cOCCCO1;C.C

>  <reaction-name>
s_22

>  <reagent1-name>
14942836

>  <reagent1-smiles>
[R1*]Nc1cc(Br)c2OCCCOc2c1

>  <reagent2-name>
6742582

>  <reagent2-smiles>
[R1*]C(=O)C=1NN=C(c2cc(OC)c(OC)cc2)C1

$$$$
s_527a____10178188____736122
          04022017343D 1   1.00000     0.00000     0
            
 49 51  0  0  0  0            999 V2000
    6.2850    3.7267    3.4767 O   0  0  0  0  0  0  0  0  0  0  0  0
    5.6230    3.6528    2.4786 C   0  0  0  0  0  0  0  0  0  0  0  0
    6.0417    4.2737    1.3314 N   0  0  0  0  0  0  0  0  0  0  0  0
    6.9385    5.4358    1.4100 C   0  0  0  0  0  0  0  0  0  0  0  0
    6.1122    6.7087    1.4949 C   0  0  0  0  0  0  0  0  0  0  0  0
    5.5940    3.7779    0.0219 C   0  0  0  0  0  0  0  0  0  0  0  0
    4.3800    2.9062    2.4867 C   0  0  0  0  0  0  0  0  0  0  0  0
    3.1728    3.5972    2.5008 C   0  0  0  0  0  0  0  0  0  0  0  0
    1.9830    2.8768    2.5101 C   0  0  0  0  0  0  0  0  0  0  0  0
    0.7615    3.5615    2.5249 N   0  0  0  0  0  0  0  0  0  0  0  0
    0.4438    4.4177    1.5037 C   0  0  0  0  0  0  0  0  0  0  0  0
    0.8679    4.2177    0.3991 O   0  0  0  0  0  0  0  0  0  0  0  0
   -0.4054    5.5660    1.7577 C   0  0  0  0  0  0  0  0  0  0  0  0
   -1.2427    5.5912    2.9057 C   0  0  0  0  0  0  0  0  0  0  0  0
   -1.2248    4.6296    3.6601 O   0  0  0  0  0  0  0  0  0  0  0  0
   -2.0702    6.7247    3.1413 C   0  0  0  0  0  0  0  0  0  0  0  0
   -2.0391    7.7832    2.2386 C   0  0  0  0  0  0  0  0  0  0  0  0
   -1.2188    7.7248    1.1416 N   0  0  0  0  0  0  0  0  0  0  0  0
   -0.4167    6.6385    0.9034 C   0  0  0  0  0  0  0  0  0  0  0  0
   -2.8323    8.9093    2.4322 C   0  0  0  0  0  0  0  0  0  0  0  0
   -3.6617    8.9620    3.5475 C   0  0  0  0  0  0  0  0  0  0  0  0
   -4.4432   10.0370    3.7660 O   0  0  0  0  0  0  0  0  0  0  0  0
   -5.8383    9.8705    3.9717 C   0  0  0  0  0  0  0  0  0  0  0  0
   -3.7176    7.9226    4.4677 C   0  0  0  0  0  0  0  0  0  0  0  0
   -2.9132    6.8113    4.2466 C   0  0  0  0  0  0  0  0  0  0  0  0
    1.9867    1.4860    2.5051 C   0  0  0  0  0  0  0  0  0  0  0  0
    3.2053    0.8159    2.4905 C   0  0  0  0  0  0  0  0  0  0  0  0
    4.4072    1.5158    2.4809 C   0  0  0  0  0  0  0  0  0  0  0  0
    7.5159    5.4670    0.5941 H   0  0  0  0  0  0  0  0  0  0  0  0
    7.5149    5.3576    2.2234 H   0  0  0  0  0  0  0  0  0  0  0  0
    6.7223    7.4992    1.5483 H   0  0  0  0  0  0  0  0  0  0  0  0
    5.5358    6.7869    0.6815 H   0  0  0  0  0  0  0  0  0  0  0  0
    5.5348    6.6775    2.3108 H   0  0  0  0  0  0  0  0  0  0  0  0
    5.9909    4.3425   -0.7017 H   0  0  0  0  0  0  0  0  0  0  0  0
    5.8902    2.8299   -0.0946 H   0  0  0  0  0  0  0  0  0  0  0  0
    4.5963    3.8241   -0.0287 H   0  0  0  0  0  0  0  0  0  0  0  0
    3.1605    4.5971    2.5042 H   0  0  0  0  0  0  0  0  0  0  0  0
    0.1212    3.4255    3.2809 H   0  0  0  0  0  0  0  0  0  0  0  0
   -1.2051    8.4921    0.5004 H   0  0  0  0  0  0  0  0  0  0  0  0
    0.1696    6.6282    0.0933 H   0  0  0  0  0  0  0  0  0  0  0  0
   -2.8067    9.6677    1.7809 H   0  0  0  0  0  0  0  0  0  0  0  0
   -6.2627   10.7641    4.1178 H   0  0  0  0  0  0  0  0  0  0  0  0
   -6.2443    9.4361    3.1678 H   0  0  0  0  0  0  0  0  0  0  0  0
   -5.9904    9.2941    4.7746 H   0  0  0  0  0  0  0  0  0  0  0  0
   -4.3188    7.9727    5.2652 H   0  0  0  0  0  0  0  0  0  0  0  0
   -2.9404    6.0535    4.8985 H   0  0  0  0  0  0  0  0  0  0  0  0
    1.1266    0.9758    2.5119 H   0  0  0  0  0  0  0  0  0  0  0  0
    3.2176   -0.1840    2.4868 H   0  0  0  0  0  0  0  0  0  0  0  0
    5.2790    1.0260    2.4700 H   0  0  0  0  0  0  0  0  0  0  0  0
  1  2  2  0  0  0  0
  2  3  1  0  0  0  0
  3  4  1  0  0  0  0
  4  5  1  0  0  0  0
  3  6  1  0  0  0  0
  2  7  1  0  0  0  0
  7  8  1  0  0  0  0
  8  9  2  0  0  0  0
  9 10  1  0  0  0  0
 10 11  1  0  0  0  0
 11 12  2  0  0  0  0
 11 13  1  0  0  0  0
 13 14  1  0  0  0  0
 14 15  2  0  0  0  0
 14 16  1  0  0  0  0
 16 17  1  0  0  0  0
 17 18  1  0  0  0  0
 18 19  1  0  0  0  0
 13 19  2  0  0  0  0
 17 20  2  0  0  0  0
 20 21  1  0  0  0  0
 21 22  1  0  0  0  0
 22 23  1  0  0  0  0
 21 24  2  0  0  0  0
 24 25  1  0  0  0  0
 25 16  2  0  0  0  0
  9 26  1  0  0  0  0
 26 27  2  0  0  0  0
 27 28  1  0  0  0  0
 28  7  2  0  0  0  0
  4 29  1  0  0  0  0
  4 30  1  0  0  0  0
  5 31  1  0  0  0  0
  5 32  1  0  0  0  0
  5 33  1  0  0  0  0
  6 34  1  0  0  0  0
  6 35  1  0  0  0  0
  6 36  1  0  0  0  0
  8 37  1  0  0  0  0
 10 38  1  0  0  0  0
 18 39  1  0  0  0  0
 19 40  1  0  0  0  0
 20 41  1  0  0  0  0
 23 42  1  0  0  0  0
 23 43  1  0  0  0  0
 23 44  1  0  0  0  0
 24 45  1  0  0  0  0
 25 46  1  0  0  0  0
 26 47  1  0  0  0  0
 27 48  1  0  0  0  0
 28 49  1  0  0  0  0
M  END
>  <result-rank>
46

>  <similarity>
0.910

>  <query-name>


>  <query-smiles>
Fc1c(F)ccc(NC(=O)c2nc(cnc2Nc3cncnc3)C4CC4)c1C(=O)N5CCC5

>  <source>
REALspace_2019-12

>  <similarity-descriptor>
0.0;0.878;0.926;0.962;0.873;1.000;0.999;0.962;1.000;0.083

>  <similarity-descriptor-smiles>
;N(CC)C;c1ccccc1;C1=CNccC1=O;c1ccc(cc1)O;N;C=O;C1=CNccC1=O;O=C;C

>  <reaction-name>
s_527a

>  <reagent1-name>
10178188

>  <reagent1-smiles>
[R1*]Nc1cc(ccc1)C(=O)N(CC)C

>  <reagent2-name>
736122

>  <reagent2-smiles>
[R1*]C(=O)c1c(O)c2c(nc1)cc(OC)cc2

$$$$
s_22____651700____6402696
          04022017343D 1   1.00000     0.00000     0
            
 54 56  0  0  0  0            999 V2000
    0.4076    3.7203    2.5266 Cl  0  0  0  0  0  0  0  0  0  0  0  0
    1.9772    2.8805    2.5094 C   0  0  0  0  0  0  0  0  0  0  0  0
    3.1726    3.5933    2.5023 C   0  0  0  0  0  0  0  0  0  0  0  0
    4.3872    2.9145    2.4880 C   0  0  0  0  0  0  0  0  0  0  0  0
    4.4066    1.5238    2.4817 C   0  0  0  0  0  0  0  0  0  0  0  0
    3.2056    0.8214    2.4895 C   0  0  0  0  0  0  0  0  0  0  0  0
    3.2274   -0.5788    2.4829 N   0  0  0  0  0  0  0  0  0  0  0  0
    2.3359   -1.2813    3.2501 C   0  0  0  0  0  0  0  0  0  0  0  0
    1.9286   -0.8130    4.2771 O   0  0  0  0  0  0  0  0  0  0  0  0
    1.8843   -2.5912    2.8209 C   0  0  0  0  0  0  0  0  0  0  0  0
    1.0024   -3.3770    3.5021 N   0  0  0  0  0  0  0  0  0  0  0  0
    0.8313   -4.4825    2.8141 N   0  0  0  0  0  0  0  0  0  0  0  0
   -0.0065   -5.5448    3.1928 C   0  0  0  0  0  0  0  0  0  0  0  0
   -0.1239   -6.6444    2.4268 N   0  0  0  0  0  0  0  0  0  0  0  0
   -0.9160   -7.6815    2.7511 C   0  0  0  0  0  0  0  0  0  0  0  0
   -1.6414   -7.6018    3.9356 C   0  0  0  0  0  0  0  0  0  0  0  0
   -1.5331   -6.4728    4.7429 C   0  0  0  0  0  0  0  0  0  0  0  0
   -0.7157   -5.4859    4.3347 N   0  0  0  0  0  0  0  0  0  0  0  0
   -2.3364   -6.4074    6.0375 C   0  0  0  0  0  0  0  0  0  0  0  0
   -1.0492   -8.9268    1.8822 C   0  0  0  0  0  0  0  0  0  0  0  0
    1.5883   -4.4468    1.6820 C   0  0  0  0  0  0  0  0  0  0  0  0
    1.6564   -5.3179    0.8301 O   0  0  0  0  0  0  0  0  0  0  0  0
    2.2790   -3.2173    1.6780 C   0  0  0  0  0  0  0  0  0  0  0  0
    1.9856    1.4896    2.5032 C   0  0  0  0  0  0  0  0  0  0  0  0
    3.1524    5.0431    2.5080 C   0  0  0  0  0  0  0  0  0  0  0  0
    3.1354    5.6470    1.4712 O   0  0  0  0  0  0  0  0  0  0  0  0
    3.1526    5.7235    3.6971 N   0  0  0  0  0  0  0  0  0  0  0  0
    3.1322    7.1933    3.7029 C   0  0  0  0  0  0  0  0  0  0  0  0
    1.6922    7.6799    3.7167 C   0  0  0  0  0  0  0  0  0  0  0  0
    3.1734    4.9837    4.9672 C   0  0  0  0  0  0  0  0  0  0  0  0
    4.6134    4.7487    5.3932 C   0  0  0  0  0  0  0  0  0  0  0  0
    5.2461    3.4265    2.4823 H   0  0  0  0  0  0  0  0  0  0  0  0
    5.2774    1.0323    2.4715 H   0  0  0  0  0  0  0  0  0  0  0  0
    3.8936   -1.0658    1.9182 H   0  0  0  0  0  0  0  0  0  0  0  0
    0.5635   -3.1513    4.3718 H   0  0  0  0  0  0  0  0  0  0  0  0
   -2.2404   -8.3552    4.2071 H   0  0  0  0  0  0  0  0  0  0  0  0
   -2.8722   -7.2455    6.1401 H   0  0  0  0  0  0  0  0  0  0  0  0
   -1.7119   -6.3140    6.8129 H   0  0  0  0  0  0  0  0  0  0  0  0
   -2.9518   -5.6197    6.0085 H   0  0  0  0  0  0  0  0  0  0  0  0
   -1.6869   -9.5663    2.3117 H   0  0  0  0  0  0  0  0  0  0  0  0
   -1.3936   -8.6683    0.9797 H   0  0  0  0  0  0  0  0  0  0  0  0
   -0.1545   -9.3628    1.7852 H   0  0  0  0  0  0  0  0  0  0  0  0
    2.9183   -2.8793    0.9873 H   0  0  0  0  0  0  0  0  0  0  0  0
    1.1268    0.9773    2.5083 H   0  0  0  0  0  0  0  0  0  0  0  0
    3.5921    7.5363    2.8839 H   0  0  0  0  0  0  0  0  0  0  0  0
    3.6056    7.5301    4.5168 H   0  0  0  0  0  0  0  0  0  0  0  0
    1.6783    8.6798    3.7206 H   0  0  0  0  0  0  0  0  0  0  0  0
    1.2188    7.3431    2.9028 H   0  0  0  0  0  0  0  0  0  0  0  0
    1.2323    7.3369    4.5357 H   0  0  0  0  0  0  0  0  0  0  0  0
    2.7132    4.1038    4.8481 H   0  0  0  0  0  0  0  0  0  0  0  0
    2.7003    5.5148    5.6701 H   0  0  0  0  0  0  0  0  0  0  0  0
    4.6275    4.2454    6.2572 H   0  0  0  0  0  0  0  0  0  0  0  0
    5.0865    4.2176    4.6903 H   0  0  0  0  0  0  0  0  0  0  0  0
    5.0736    5.6285    5.5124 H   0  0  0  0  0  0  0  0  0  0  0  0
  1  2  1  0  0  0  0
  2  3  1  0  0  0  0
  3  4  2  0  0  0  0
  4  5  1  0  0  0  0
  5  6  2  0  0  0  0
  6  7  1  0  0  0  0
  7  8  1  0  0  0  0
  8  9  2  0  0  0  0
  8 10  1  0  0  0  0
 10 11  1  0  0  0  0
 11 12  1  0  0  0  0
 12 13  1  0  0  0  0
 13 14  1  0  0  0  0
 14 15  2  0  0  0  0
 15 16  1  0  0  0  0
 16 17  2  0  0  0  0
 17 18  1  0  0  0  0
 18 13  2  0  0  0  0
 17 19  1  0  0  0  0
 15 20  1  0  0  0  0
 12 21  1  0  0  0  0
 21 22  2  0  0  0  0
 21 23  1  0  0  0  0
 10 23  2  0  0  0  0
  6 24  1  0  0  0  0
 24  2  2  0  0  0  0
  3 25  1  0  0  0  0
 25 26  2  0  0  0  0
 25 27  1  0  0  0  0
 27 28  1  0  0  0  0
 28 29  1  0  0  0  0
 27 30  1  0  0  0  0
 30 31  1  0  0  0  0
  4 32  1  0  0  0  0
  5 33  1  0  0  0  0
  7 34  1  0  0  0  0
 11 35  1  0  0  0  0
 16 36  1  0  0  0  0
 19 37  1  0  0  0  0
 19 38  1  0  0  0  0
 19 39  1  0  0  0  0
 20 40  1  0  0  0  0
 20 41  1  0  0  0  0
 20 42  1  0  0  0  0
 23 43  1  0  0  0  0
 24 44  1  0  0  0  0
 28 45  1  0  0  0  0
 28 46  1  0  0  0  0
 29 47  1  0  0  0  0
 29 48  1  0  0  0  0
 29 49  1  0  0  0  0
 30 50  1  0  0  0  0
 30 51  1  0  0  0  0
 31 52  1  0  0  0  0
 31 53  1  0  0  0  0
 31 54  1  0  0  0  0
M  END
>  <result-rank>
47

>  <similarity>
0.910

>  <query-name>


>  <query-smiles>
Fc1c(F)ccc(NC(=O)c2nc(cnc2Nc3cncnc3)C4CC4)c1C(=O)N5CCC5

>  <source>
REALspace_2019-12

>  <similarity-descriptor>
0.0;0.888;0.955;0.917;0.902;1.000;0.999;0.917;1.000;0.154

>  <similarity-descriptor-smiles>
;N(CC)C;Clc1ccccc1;C1=CC(NN1)=O;c1nccc(n1)C;N;C=O;C1=CC(NN1)=O;C=O;C.C

>  <reaction-name>
s_22

>  <reagent1-name>
651700

>  <reagent1-smiles>
[R1*]Nc1cc(Cl)c(cc1)C(=O)N(CC)CC

>  <reagent2-name>
6402696

>  <reagent2-smiles>
[R1*]C(=O)C=1NN(c2nc(cc(n2)C)C)C(=O)C1

$$$$
s_11a____13038172____673990
          04022017343D 1   1.00000     0.00000     0
            
 55 57  0  0  0  0            999 V2000
    6.9276    6.2794    2.0550 Cl  0  0  0  0  0  0  0  0  0  0  0  0
    5.5991    7.4608    2.1437 C   0  0  0  0  0  0  0  0  0  0  0  0
    4.2754    7.0804    1.9485 C   0  0  0  0  0  0  0  0  0  0  0  0
    3.3024    8.0001    2.0231 N   0  0  0  0  0  0  0  0  0  0  0  0
    3.5761    9.2873    2.2825 C   0  0  0  0  0  0  0  0  0  0  0  0
    4.8450    9.6778    2.4750 N   0  0  0  0  0  0  0  0  0  0  0  0
    5.8567    8.8002    2.4116 C   0  0  0  0  0  0  0  0  0  0  0  0
    2.5543   10.2403    2.3583 N   0  0  0  0  0  0  0  0  0  0  0  0
    2.8792   11.6452    2.6439 C   0  0  0  0  0  0  0  0  0  0  0  0
    3.1250   12.3857    1.3353 C   0  0  0  0  0  0  0  0  0  0  0  0
    2.2200   13.0111    0.6173 O   0  0  0  0  0  0  0  0  0  0  0  0
    2.7655   13.5437   -0.4547 C   0  0  0  0  0  0  0  0  0  0  0  0
    4.0954   13.2481   -0.4414 C   0  0  0  0  0  0  0  0  0  0  0  0
    4.3376   12.4887    0.7268 C   0  0  0  0  0  0  0  0  0  0  0  0
    3.9694    5.6912    1.6669 C   0  0  0  0  0  0  0  0  0  0  0  0
    4.4323    5.1598    0.6956 O   0  0  0  0  0  0  0  0  0  0  0  0
    3.1519    4.9853    2.5098 N   0  0  0  0  0  0  0  0  0  0  0  0
    3.1792    3.5864    2.5020 C   0  0  0  0  0  0  0  0  0  0  0  0
    1.9828    2.8757    2.5094 C   0  0  0  0  0  0  0  0  0  0  0  0
    0.4299    3.7470    2.5290 Cl  0  0  0  0  0  0  0  0  0  0  0  0
    1.9858    1.4848    2.5024 C   0  0  0  0  0  0  0  0  0  0  0  0
    3.2015    0.8092    2.4872 C   0  0  0  0  0  0  0  0  0  0  0  0
    4.3941    1.5247    2.4794 C   0  0  0  0  0  0  0  0  0  0  0  0
    4.3966    2.9151    2.4867 C   0  0  0  0  0  0  0  0  0  0  0  0
    5.6615    0.8207    2.4636 C   0  0  0  0  0  0  0  0  0  0  0  0
    6.6568    1.3849    2.1016 O   0  0  0  0  0  0  0  0  0  0  0  0
    5.7228   -0.4887    2.8620 N   0  0  0  0  0  0  0  0  0  0  0  0
    7.0077   -1.2025    2.8460 C   0  0  0  0  0  0  0  0  0  0  0  0
    6.8014   -2.6283    3.3308 C   0  0  0  0  0  0  0  0  0  0  0  0
    8.1300   -3.3663    3.3142 C   0  0  0  0  0  0  0  0  0  0  0  0
    6.2511   -2.6071    4.7475 C   0  0  0  0  0  0  0  0  0  0  0  0
    5.8166   -3.3371    2.4153 C   0  0  0  0  0  0  0  0  0  0  0  0
    6.7965    9.1093    2.5571 H   0  0  0  0  0  0  0  0  0  0  0  0
    1.6030    9.9656    2.2181 H   0  0  0  0  0  0  0  0  0  0  0  0
    3.7017   11.6885    3.2110 H   0  0  0  0  0  0  0  0  0  0  0  0
    2.1163   12.0716    3.1299 H   0  0  0  0  0  0  0  0  0  0  0  0
    2.2879   14.0727   -1.1562 H   0  0  0  0  0  0  0  0  0  0  0  0
    4.7717   13.5169   -1.1272 H   0  0  0  0  0  0  0  0  0  0  0  0
    5.2095   12.1102    1.0376 H   0  0  0  0  0  0  0  0  0  0  0  0
    2.5357    5.4700    3.1306 H   0  0  0  0  0  0  0  0  0  0  0  0
    1.1245    0.9768    2.5084 H   0  0  0  0  0  0  0  0  0  0  0  0
    3.2180   -0.1907    2.4817 H   0  0  0  0  0  0  0  0  0  0  0  0
    5.2581    3.4228    2.4809 H   0  0  0  0  0  0  0  0  0  0  0  0
    4.8933   -0.9588    3.1637 H   0  0  0  0  0  0  0  0  0  0  0  0
    7.6556   -0.7361    3.4483 H   0  0  0  0  0  0  0  0  0  0  0  0
    7.3697   -1.2164    1.9140 H   0  0  0  0  0  0  0  0  0  0  0  0
    7.9943   -4.3044    3.6331 H   0  0  0  0  0  0  0  0  0  0  0  0
    8.4920   -3.3802    2.3821 H   0  0  0  0  0  0  0  0  0  0  0  0
    8.7779   -2.9000    3.9165 H   0  0  0  0  0  0  0  0  0  0  0  0
    6.1154   -3.5452    5.0664 H   0  0  0  0  0  0  0  0  0  0  0  0
    6.8990   -2.1408    5.3498 H   0  0  0  0  0  0  0  0  0  0  0  0
    5.3770   -2.1216    4.7584 H   0  0  0  0  0  0  0  0  0  0  0  0
    5.6808   -4.2751    2.7342 H   0  0  0  0  0  0  0  0  0  0  0  0
    4.9424   -2.8515    2.4262 H   0  0  0  0  0  0  0  0  0  0  0  0
    6.1786   -3.3510    1.4832 H   0  0  0  0  0  0  0  0  0  0  0  0
  1  2  1  0  0  0  0
  2  3  1  0  0  0  0
  3  4  2  0  0  0  0
  4  5  1  0  0  0  0
  5  6  2  0  0  0  0
  6  7  1  0  0  0  0
  7  2  2  0  0  0  0
  5  8  1  0  0  0  0
  8  9  1  0  0  0  0
  9 10  1  0  0  0  0
 10 11  1  0  0  0  0
 11 12  1  0  0  0  0
 12 13  2  0  0  0  0
 13 14  1  0  0  0  0
 10 14  2  0  0  0  0
  3 15  1  0  0  0  0
 15 16  2  0  0  0  0
 15 17  1  0  0  0  0
 17 18  1  0  0  0  0
 18 19  1  0  0  0  0
 19 20  1  0  0  0  0
 19 21  2  0  0  0  0
 21 22  1  0  0  0  0
 22 23  2  0  0  0  0
 23 24  1  0  0  0  0
 24 18  2  0  0  0  0
 23 25  1  0  0  0  0
 25 26  2  0  0  0  0
 25 27  1  0  0  0  0
 27 28  1  0  0  0  0
 28 29  1  0  0  0  0
 29 30  1  0  0  0  0
 29 31  1  0  0  0  0
 29 32  1  0  0  0  0
  7 33  1  0  0  0  0
  8 34  1  0  0  0  0
  9 35  1  0  0  0  0
  9 36  1  0  0  0  0
 12 37  1  0  0  0  0
 13 38  1  0  0  0  0
 14 39  1  0  0  0  0
 17 40  1  0  0  0  0
 21 41  1  0  0  0  0
 22 42  1  0  0  0  0
 24 43  1  0  0  0  0
 27 44  1  0  0  0  0
 28 45  1  0  0  0  0
 28 46  1  0  0  0  0
 30 47  1  0  0  0  0
 30 48  1  0  0  0  0
 30 49  1  0  0  0  0
 31 50  1  0  0  0  0
 31 51  1  0  0  0  0
 31 52  1  0  0  0  0
 32 53  1  0  0  0  0
 32 54  1  0  0  0  0
 32 55  1  0  0  0  0
M  END
>  <result-rank>
48

>  <similarity>
0.910

>  <query-name>


>  <query-smiles>
Fc1c(F)ccc(NC(=O)c2nc(cnc2Nc3cncnc3)C4CC4)c1C(=O)N5CCC5

>  <source>
REALspace_2019-12

>  <similarity-descriptor>
0.0;0.877;0.955;0.957;0.880;1.000;1.000;1.000;0.852;0.071

>  <similarity-descriptor-smiles>
;CC(C)C;c1ccccc1Cl;Clc1cncnc1;CC1=CC=CO1;N;C=O;N;C(=O)N;C

>  <reaction-name>
s_11a

>  <reagent1-name>
13038172

>  <reagent1-smiles>
[R1*]Nc1c(Cl)ccc(c1)C(=O)NCC(C)(C)C

>  <reagent2-name>
673990

>  <reagent2-smiles>
[R1*]C(=O)c1nc(ncc1Cl)NCC=2OC=CC2

$$$$
s_22____8686200____2787412
          04022017343D 1   1.00000     0.00000     0
            
 49 51  0  0  0  0            999 V2000
    5.1377    2.8215   -0.4852 F   0  0  0  0  0  0  0  0  0  0  0  0
    4.4672    1.9323    0.2405 C   0  0  0  0  0  0  0  0  0  0  0  0
    5.1691    1.0019    0.9988 C   0  0  0  0  0  0  0  0  0  0  0  0
    6.5181    1.0017    1.0002 O   0  0  0  0  0  0  0  0  0  0  0  0
    7.2271   -0.2285    0.9826 C   0  0  0  0  0  0  0  0  0  0  0  0
    7.3734   -0.7085   -0.4522 C   0  0  0  0  0  0  0  0  0  0  0  0
    8.6048   -0.0280    1.5927 C   0  0  0  0  0  0  0  0  0  0  0  0
    4.4696    0.0703    1.7576 C   0  0  0  0  0  0  0  0  0  0  0  0
    5.1393   -0.8200    2.4830 F   0  0  0  0  0  0  0  0  0  0  0  0
    3.0789    0.0598    1.7659 C   0  0  0  0  0  0  0  0  0  0  0  0
    2.3988    1.0000    1.0000 C   0  0  0  0  0  0  0  0  0  0  0  0
    1.0000    1.0000    1.0000 N   0  0  0  0  0  0  0  0  0  0  0  0
    0.3150   -0.1863    0.9830 C   0  0  0  0  0  0  0  0  0  0  0  0
    0.8607   -1.1890    0.6131 O   0  0  0  0  0  0  0  0  0  0  0  0
   -1.1362   -0.2325    1.4326 C   0  0  0  0  0  0  0  0  0  0  0  0
   -2.0447    0.0166    0.2392 C   0  0  0  0  0  0  0  0  0  0  0  0
   -2.5012   -1.0755   -0.5460 C   0  0  0  0  0  0  0  0  0  0  0  0
   -2.1780   -2.2000   -0.2795 O   0  0  0  0  0  0  0  0  0  0  0  0
   -3.3188   -0.8184   -1.6156 N   0  0  0  0  0  0  0  0  0  0  0  0
   -3.6932    0.4626   -1.9283 C   0  0  0  0  0  0  0  0  0  0  0  0
   -3.2653    1.4752   -1.1947 N   0  0  0  0  0  0  0  0  0  0  0  0
   -2.4458    1.2802   -0.1132 C   0  0  0  0  0  0  0  0  0  0  0  0
   -1.9741    2.4697    0.7072 C   0  0  0  0  0  0  0  0  0  0  0  0
   -4.5592    0.6744   -3.0718 C   0  0  0  0  0  0  0  0  0  0  0  0
   -4.9851   -0.3639   -3.8066 N   0  0  0  0  0  0  0  0  0  0  0  0
   -5.7865   -0.1860   -4.8668 C   0  0  0  0  0  0  0  0  0  0  0  0
   -6.1857    1.1004   -5.2141 C   0  0  0  0  0  0  0  0  0  0  0  0
   -5.7351    2.1641   -4.4397 C   0  0  0  0  0  0  0  0  0  0  0  0
   -4.9350    1.9221   -3.3909 N   0  0  0  0  0  0  0  0  0  0  0  0
    3.0771    1.9411    0.2331 C   0  0  0  0  0  0  0  0  0  0  0  0
    6.7239   -0.9109    1.5128 H   0  0  0  0  0  0  0  0  0  0  0  0
    7.8727   -1.5748   -0.4646 H   0  0  0  0  0  0  0  0  0  0  0  0
    6.4670   -0.8404   -0.8536 H   0  0  0  0  0  0  0  0  0  0  0  0
    7.8766   -0.0261   -0.9823 H   0  0  0  0  0  0  0  0  0  0  0  0
    9.1041   -0.8943    1.5803 H   0  0  0  0  0  0  0  0  0  0  0  0
    9.1080    0.6544    1.0626 H   0  0  0  0  0  0  0  0  0  0  0  0
    8.5086    0.2878    2.5367 H   0  0  0  0  0  0  0  0  0  0  0  0
    2.5777   -0.6113    2.3123 H   0  0  0  0  0  0  0  0  0  0  0  0
    0.5000    1.8659    1.0124 H   0  0  0  0  0  0  0  0  0  0  0  0
   -1.2936    0.4725    2.1241 H   0  0  0  0  0  0  0  0  0  0  0  0
   -1.3362   -1.1317    1.8218 H   0  0  0  0  0  0  0  0  0  0  0  0
   -3.6475   -1.5778   -2.1770 H   0  0  0  0  0  0  0  0  0  0  0  0
   -1.3888    2.1497    1.4522 H   0  0  0  0  0  0  0  0  0  0  0  0
   -1.4572    3.0944    0.1219 H   0  0  0  0  0  0  0  0  0  0  0  0
   -2.7661    2.9476    1.0872 H   0  0  0  0  0  0  0  0  0  0  0  0
   -6.0947   -0.9716   -5.4033 H   0  0  0  0  0  0  0  0  0  0  0  0
   -6.7822    1.2565   -6.0013 H   0  0  0  0  0  0  0  0  0  0  0  0
   -6.0051    3.1007   -4.6629 H   0  0  0  0  0  0  0  0  0  0  0  0
    2.5746    2.6112   -0.3132 H   0  0  0  0  0  0  0  0  0  0  0  0
  1  2  1  0  0  0  0
  2  3  1  0  0  0  0
  3  4  1  0  0  0  0
  4  5  1  0  0  0  0
  5  6  1  0  0  0  0
  5  7  1  0  0  0  0
  3  8  2  0  0  0  0
  8  9  1  0  0  0  0
  8 10  1  0  0  0  0
 10 11  2  0  0  0  0
 11 12  1  0  0  0  0
 12 13  1  0  0  0  0
 13 14  2  0  0  0  0
 13 15  1  0  0  0  0
 15 16  1  0  0  0  0
 16 17  1  0  0  0  0
 17 18  2  0  0  0  0
 17 19  1  0  0  0  0
 19 20  1  0  0  0  0
 20 21  2  0  0  0  0
 21 22  1  0  0  0  0
 16 22  2  0  0  0  0
 22 23  1  0  0  0  0
 20 24  1  0  0  0  0
 24 25  1  0  0  0  0
 25 26  2  0  0  0  0
 26 27  1  0  0  0  0
 27 28  2  0  0  0  0
 28 29  1  0  0  0  0
 29 24  2  0  0  0  0
 11 30  1  0  0  0  0
 30  2  2  0  0  0  0
  5 31  1  0  0  0  0
  6 32  1  0  0  0  0
  6 33  1  0  0  0  0
  6 34  1  0  0  0  0
  7 35  1  0  0  0  0
  7 36  1  0  0  0  0
  7 37  1  0  0  0  0
 10 38  1  0  0  0  0
 12 39  1  0  0  0  0
 15 40  1  0  0  0  0
 15 41  1  0  0  0  0
 19 42  1  0  0  0  0
 23 43  1  0  0  0  0
 23 44  1  0  0  0  0
 23 45  1  0  0  0  0
 26 46  1  0  0  0  0
 27 47  1  0  0  0  0
 28 48  1  0  0  0  0
 30 49  1  0  0  0  0
M  END
>  <result-rank>
49

>  <similarity>
0.910

>  <query-name>


>  <query-smiles>
Fc1c(F)ccc(NC(=O)c2nc(cnc2Nc3cncnc3)C4CC4)c1C(=O)N5CCC5

>  <source>
REALspace_2019-12

>  <similarity-descriptor>
0.0;0.894;0.998;0.910;0.998;1.000;0.861;0.910;0.506;0.091

>  <similarity-descriptor-smiles>
;C(C)C;Fc1cccc(c1)F;C1=CN=CNC1=O;c1ncccn1;N;C(=O)C;C1=CN=CNC1=O;O;C

>  <reaction-name>
s_22

>  <reagent1-name>
8686200

>  <reagent1-smiles>
[R1*]Nc1cc(F)c(OC(C)C)c(F)c1

>  <reagent2-name>
2787412

>  <reagent2-smiles>
[R1*]C(=O)CC=1C(=O)N=C(NC1C)c2ncccn2

$$$$
s_22____14942836____263080
          04022017343D 1   1.00000     0.00000     0
            
 44 47  0  0  0  0            999 V2000
   -4.5194    4.1905    0.2128 Br  0  0  0  0  0  0  0  0  0  0  0  0
   -3.2598    3.0506    1.1889 C   0  0  0  0  0  0  0  0  0  0  0  0
   -3.6932    2.3012    2.2815 C   0  0  0  0  0  0  0  0  0  0  0  0
   -4.9365    2.2498    2.8017 O   0  0  0  0  0  0  0  0  0  0  0  0
   -5.1394    3.0149    3.9802 C   0  0  0  0  0  0  0  0  0  0  0  0
   -4.9211    2.1017    5.1749 C   0  0  0  0  0  0  0  0  0  0  0  0
   -3.5044    1.5437    5.1904 C   0  0  0  0  0  0  0  0  0  0  0  0
   -3.2798    0.8173    3.9923 O   0  0  0  0  0  0  0  0  0  0  0  0
   -2.7815    1.5041    2.9445 C   0  0  0  0  0  0  0  0  0  0  0  0
   -1.4575    1.4677    2.5157 C   0  0  0  0  0  0  0  0  0  0  0  0
   -1.0235    2.2185    1.4285 C   0  0  0  0  0  0  0  0  0  0  0  0
    0.3150    2.1864    1.0128 N   0  0  0  0  0  0  0  0  0  0  0  0
    1.0000    1.0000    1.0000 C   0  0  0  0  0  0  0  0  0  0  0  0
    0.4000   -0.0392    0.9888 O   0  0  0  0  0  0  0  0  0  0  0  0
    2.4509    1.0000    1.0000 C   0  0  0  0  0  0  0  0  0  0  0  0
    3.2610   -0.0560    1.2708 C   0  0  0  0  0  0  0  0  0  0  0  0
    4.5376    0.4067    1.1500 N   0  0  0  0  0  0  0  0  0  0  0  0
    4.5162    1.6771    0.8246 N   0  0  0  0  0  0  0  0  0  0  0  0
    3.2833    2.1049    0.7140 C   0  0  0  0  0  0  0  0  0  0  0  0
    5.6927   -0.3576    1.3434 C   0  0  0  0  0  0  0  0  0  0  0  0
    6.1372   -0.6612    2.5519 N   0  0  0  0  0  0  0  0  0  0  0  0
    7.2294   -1.3840    2.7379 N   0  0  0  0  0  0  0  0  0  0  0  0
    7.9720   -1.8658    1.6890 C   0  0  0  0  0  0  0  0  0  0  0  0
    8.9827   -2.5346    1.8602 O   0  0  0  0  0  0  0  0  0  0  0  0
    7.5337   -1.5655    0.3714 C   0  0  0  0  0  0  0  0  0  0  0  0
    6.3996   -0.8149    0.1991 C   0  0  0  0  0  0  0  0  0  0  0  0
    2.8494   -1.4740    1.6409 C   0  0  0  0  0  0  0  0  0  0  0  0
   -1.9381    3.0216    0.7552 C   0  0  0  0  0  0  0  0  0  0  0  0
   -6.0720    3.3756    3.9945 H   0  0  0  0  0  0  0  0  0  0  0  0
   -4.4882    3.7733    4.0090 H   0  0  0  0  0  0  0  0  0  0  0  0
   -5.5701    1.3424    5.1280 H   0  0  0  0  0  0  0  0  0  0  0  0
   -5.0761    2.6213    6.0152 H   0  0  0  0  0  0  0  0  0  0  0  0
   -2.8486    2.2959    5.2542 H   0  0  0  0  0  0  0  0  0  0  0  0
   -3.3921    0.9361    5.9767 H   0  0  0  0  0  0  0  0  0  0  0  0
   -0.8030    0.8879    3.0009 H   0  0  0  0  0  0  0  0  0  0  0  0
    0.7698    3.0295    0.7257 H   0  0  0  0  0  0  0  0  0  0  0  0
    2.9894    3.0303    0.4746 H   0  0  0  0  0  0  0  0  0  0  0  0
    7.5232   -1.5858    3.6722 H   0  0  0  0  0  0  0  0  0  0  0  0
    8.0462   -1.8974   -0.4206 H   0  0  0  0  0  0  0  0  0  0  0  0
    6.0742   -0.5922   -0.7198 H   0  0  0  0  0  0  0  0  0  0  0  0
    1.8516   -1.5379    1.6576 H   0  0  0  0  0  0  0  0  0  0  0  0
    3.2132   -2.1141    0.9642 H   0  0  0  0  0  0  0  0  0  0  0  0
    3.2132   -1.7016    2.5442 H   0  0  0  0  0  0  0  0  0  0  0  0
   -1.6497    3.5705   -0.0294 H   0  0  0  0  0  0  0  0  0  0  0  0
  1  2  1  0  0  0  0
  2  3  1  0  0  0  0
  3  4  1  0  0  0  0
  4  5  1  0  0  0  0
  5  6  1  0  0  0  0
  6  7  1  0  0  0  0
  7  8  1  0  0  0  0
  8  9  1  0  0  0  0
  9  3  2  0  0  0  0
  9 10  1  0  0  0  0
 10 11  2  0  0  0  0
 11 12  1  0  0  0  0
 12 13  1  0  0  0  0
 13 14  2  0  0  0  0
 13 15  1  0  0  0  0
 15 16  2  0  0  0  0
 16 17  1  0  0  0  0
 17 18  1  0  0  0  0
 18 19  2  0  0  0  0
 19 15  1  0  0  0  0
 17 20  1  0  0  0  0
 20 21  2  0  0  0  0
 21 22  1  0  0  0  0
 22 23  1  0  0  0  0
 23 24  2  0  0  0  0
 23 25  1  0  0  0  0
 25 26  2  0  0  0  0
 26 20  1  0  0  0  0
 16 27  1  0  0  0  0
 11 28  1  0  0  0  0
 28  2  2  0  0  0  0
  5 29  1  0  0  0  0
  5 30  1  0  0  0  0
  6 31  1  0  0  0  0
  6 32  1  0  0  0  0
  7 33  1  0  0  0  0
  7 34  1  0  0  0  0
 10 35  1  0  0  0  0
 12 36  1  0  0  0  0
 19 37  1  0  0  0  0
 22 38  1  0  0  0  0
 25 39  1  0  0  0  0
 26 40  1  0  0  0  0
 27 41  1  0  0  0  0
 27 42  1  0  0  0  0
 27 43  1  0  0  0  0
 28 44  1  0  0  0  0
M  END
>  <result-rank>
50

>  <similarity>
0.910

>  <query-name>


>  <query-smiles>
Fc1c(F)ccc(NC(=O)c2nc(cnc2Nc3cncnc3)C4CC4)c1C(=O)N5CCC5

>  <source>
REALspace_2019-12

>  <similarity-descriptor>
0.0;0.908;0.994;0.839;0.923;1.000;0.999;0.923;0.908;0.143

>  <similarity-descriptor-smiles>
;c1cOCCCO1;Brc1ccccc1;C=1C=NNC1;C=1C=CC(NN1)=O;N;C=O;C=1C=CC(NN1)=O;c1cOCCCO1;C

>  <reaction-name>
s_22

>  <reagent1-name>
14942836

>  <reagent1-smiles>
[R1*]Nc1cc(Br)c2OCCCOc2c1

>  <reagent2-name>
263080

>  <reagent2-smiles>
[R1*]C(=O)C1=C(N(N=C1)C2=NNC(=O)C=C2)C

$$$$
s_22____4786910____138584
          04022017343D 1   1.00000     0.00000     0
            
 49 53  0  0  0  0            999 V2000
    4.7227    0.5334   -1.5667 S   0  0  0  0  0  0  0  0  0  0  0  0
    5.8724   -0.2627   -1.2234 O   0  0  0  0  0  0  0  0  0  0  0  0
    4.8464    1.9352   -1.2615 O   0  0  0  0  0  0  0  0  0  0  0  0
    3.3750   -0.1617   -0.8978 N   0  0  0  0  0  0  0  0  0  0  0  0
    2.5233   -0.6421   -1.8689 C   0  0  0  0  0  0  0  0  0  0  0  0
    3.0036   -0.4106   -3.1401 C   0  0  0  0  0  0  0  0  0  0  0  0
    4.2138    0.2416   -3.1648 C   0  0  0  0  0  0  0  0  0  0  0  0
    4.8572    0.5701   -4.3486 C   0  0  0  0  0  0  0  0  0  0  0  0
    4.2318    0.2118   -5.5344 C   0  0  0  0  0  0  0  0  0  0  0  0
    3.0082   -0.4499   -5.5241 C   0  0  0  0  0  0  0  0  0  0  0  0
    2.3858   -0.7685   -4.3208 C   0  0  0  0  0  0  0  0  0  0  0  0
    1.1666   -1.4256   -4.2217 C   0  0  0  0  0  0  0  0  0  0  0  0
    0.6298   -1.6901   -2.9661 C   0  0  0  0  0  0  0  0  0  0  0  0
    1.3003   -1.3043   -1.8099 C   0  0  0  0  0  0  0  0  0  0  0  0
    3.1300   -0.2370    0.5498 C   0  0  0  0  0  0  0  0  0  0  0  0
    2.3700    1.0000    1.0000 C   0  0  0  0  0  0  0  0  0  0  0  0
    2.9700    1.9766    1.3554 O   0  0  0  0  0  0  0  0  0  0  0  0
    1.0000    1.0000    1.0000 N   0  0  0  0  0  0  0  0  0  0  0  0
    0.3002    2.2122    1.0000 C   0  0  0  0  0  0  0  0  0  0  0  0
   -0.5661    2.5015    2.0489 C   0  0  0  0  0  0  0  0  0  0  0  0
   -1.2535    3.7105    2.0338 C   0  0  0  0  0  0  0  0  0  0  0  0
   -2.0852    4.0017    3.0288 F   0  0  0  0  0  0  0  0  0  0  0  0
   -1.0760    4.6116    0.9897 C   0  0  0  0  0  0  0  0  0  0  0  0
   -1.7754    5.8214    0.9941 N   0  0  0  0  0  0  0  0  0  0  0  0
   -3.1337    5.9583    0.7254 C   0  0  0  0  0  0  0  0  0  0  0  0
   -3.9068    5.0584    0.4439 O   0  0  0  0  0  0  0  0  0  0  0  0
   -3.4718    7.4311    0.8353 C   0  0  0  0  0  0  0  0  0  0  0  0
   -2.1278    8.0798    0.5744 C   0  0  0  0  0  0  0  0  0  0  0  0
   -1.1826    7.1294    1.2775 C   0  0  0  0  0  0  0  0  0  0  0  0
   -0.2058    4.3085   -0.0523 C   0  0  0  0  0  0  0  0  0  0  0  0
    0.4881    3.1029   -0.0511 C   0  0  0  0  0  0  0  0  0  0  0  0
    5.7367    1.0461   -4.3477 H   0  0  0  0  0  0  0  0  0  0  0  0
    4.6664    0.4321   -6.4077 H   0  0  0  0  0  0  0  0  0  0  0  0
    2.5720   -0.6987   -6.3888 H   0  0  0  0  0  0  0  0  0  0  0  0
    0.6778   -1.7067   -5.0475 H   0  0  0  0  0  0  0  0  0  0  0  0
   -0.2484   -2.1629   -2.8937 H   0  0  0  0  0  0  0  0  0  0  0  0
    0.8956   -1.5069   -0.9182 H   0  0  0  0  0  0  0  0  0  0  0  0
    4.0038   -0.2858    1.0337 H   0  0  0  0  0  0  0  0  0  0  0  0
    2.5896   -1.0531    0.7544 H   0  0  0  0  0  0  0  0  0  0  0  0
    0.5000    0.1340    1.0000 H   0  0  0  0  0  0  0  0  0  0  0  0
   -0.6923    1.8528    2.7994 H   0  0  0  0  0  0  0  0  0  0  0  0
   -3.8149    7.6586    1.7467 H   0  0  0  0  0  0  0  0  0  0  0  0
   -4.1460    7.7019    0.1482 H   0  0  0  0  0  0  0  0  0  0  0  0
   -1.9318    8.1299   -0.4049 H   0  0  0  0  0  0  0  0  0  0  0  0
   -2.0832    8.9969    0.9707 H   0  0  0  0  0  0  0  0  0  0  0  0
   -0.2583    7.1958    0.9018 H   0  0  0  0  0  0  0  0  0  0  0  0
   -1.1563    7.3083    2.2610 H   0  0  0  0  0  0  0  0  0  0  0  0
   -0.0790    4.9574   -0.8024 H   0  0  0  0  0  0  0  0  0  0  0  0
    1.1149    2.8794   -0.7975 H   0  0  0  0  0  0  0  0  0  0  0  0
  1  2  2  0  0  0  0
  1  3  2  0  0  0  0
  1  4  1  0  0  0  0
  4  5  1  0  0  0  0
  5  6  1  0  0  0  0
  6  7  2  0  0  0  0
  7  1  1  0  0  0  0
  7  8  1  0  0  0  0
  8  9  2  0  0  0  0
  9 10  1  0  0  0  0
 10 11  2  0  0  0  0
 11  6  1  0  0  0  0
 11 12  1  0  0  0  0
 12 13  2  0  0  0  0
 13 14  1  0  0  0  0
 14  5  2  0  0  0  0
  4 15  1  0  0  0  0
 15 16  1  0  0  0  0
 16 17  2  0  0  0  0
 16 18  1  0  0  0  0
 18 19  1  0  0  0  0
 19 20  1  0  0  0  0
 20 21  2  0  0  0  0
 21 22  1  0  0  0  0
 21 23  1  0  0  0  0
 23 24  1  0  0  0  0
 24 25  1  0  0  0  0
 25 26  2  0  0  0  0
 25 27  1  0  0  0  0
 27 28  1  0  0  0  0
 28 29  1  0  0  0  0
 29 24  1  0  0  0  0
 23 30  2  0  0  0  0
 30 31  1  0  0  0  0
 31 19  2  0  0  0  0
  8 32  1  0  0  0  0
  9 33  1  0  0  0  0
 10 34  1  0  0  0  0
 12 35  1  0  0  0  0
 13 36  1  0  0  0  0
 14 37  1  0  0  0  0
 15 38  1  0  0  0  0
 15 39  1  0  0  0  0
 18 40  1  0  0  0  0
 20 41  1  0  0  0  0
 27 42  1  0  0  0  0
 27 43  1  0  0  0  0
 28 44  1  0  0  0  0
 28 45  1  0  0  0  0
 29 46  1  0  0  0  0
 29 47  1  0  0  0  0
 30 48  1  0  0  0  0
 31 49  1  0  0  0  0
M  END
>  <result-rank>
51

>  <similarity>
0.910

>  <query-name>


>  <query-smiles>
Fc1c(F)ccc(NC(=O)c2nc(cnc2Nc3cncnc3)C4CC4)c1C(=O)N5CCC5

>  <source>
REALspace_2019-12

>  <similarity-descriptor>
0.850;0.998;0.964;0.850;0.850;1.000;0.858;0.850;0.998;0.0

>  <similarity-descriptor-smiles>
S1(c2c3c(N1)cccc3ccc2)(=O)=O;N1CCCC1=O;c1cccc(c1)F;S1(c2c3c(N1)cccc3ccc2)(=O)=O;S1(c2c3c(N1)cccc3ccc2)(=O)=O;N;CC=O;S1(c2c3c(N1)cccc3ccc2)(=O)=O;N1CCCC1=O;

>  <reaction-name>
s_22

>  <reagent1-name>
4786910

>  <reagent1-smiles>
[R1*]Nc1cc(F)c(N2C(=O)CCC2)cc1

>  <reagent2-name>
138584

>  <reagent2-smiles>
[R1*]C(=O)CN1S(=O)(=O)c2c3c1cccc3ccc2

$$$$
s_1458____13942076____486520
          04022017343D 1   1.00000     0.00000     0
            
 46 49  0  0  0  0            999 V2000
    2.4910    0.8121   -1.1546 O   0  0  0  0  0  0  0  0  0  0  0  0
    1.5270    1.5208   -1.2458 C   0  0  0  0  0  0  0  0  0  0  0  0
    0.7267    1.6734   -0.2199 O   0  0  0  0  0  0  0  0  0  0  0  0
    1.0000    1.0000    1.0000 C   0  0  0  0  0  0  0  0  0  0  0  0
    1.8776    1.8776    1.8776 C   0  0  0  0  0  0  0  0  0  0  0  0
    2.1500    2.9930    1.5289 O   0  0  0  0  0  0  0  0  0  0  0  0
    2.3575    1.3951    3.0666 N   0  0  0  0  0  0  0  0  0  0  0  0
    2.7945    2.2827    4.0569 C   0  0  0  0  0  0  0  0  0  0  0  0
    3.9914    2.0332    4.7225 C   0  0  0  0  0  0  0  0  0  0  0  0
    4.7494    0.9012    4.3994 N   0  0  0  0  0  0  0  0  0  0  0  0
    4.5796   -0.3597    4.9628 C   0  0  0  0  0  0  0  0  0  0  0  0
    3.7618   -0.6641    5.8145 O   0  0  0  0  0  0  0  0  0  0  0  0
    5.6047   -1.2801    4.3326 C   0  0  0  0  0  0  0  0  0  0  0  0
    6.6715   -0.3006    3.8878 C   0  0  0  0  0  0  0  0  0  0  0  0
    5.8392    0.8749    3.4226 C   0  0  0  0  0  0  0  0  0  0  0  0
    4.4424    2.9028    5.7098 C   0  0  0  0  0  0  0  0  0  0  0  0
    3.6792    4.0231    6.0193 C   0  0  0  0  0  0  0  0  0  0  0  0
    2.4827    4.2766    5.3569 C   0  0  0  0  0  0  0  0  0  0  0  0
    2.0347    3.4046    4.3702 C   0  0  0  0  0  0  0  0  0  0  0  0
    1.2479    2.2086   -2.4918 C   0  0  0  0  0  0  0  0  0  0  0  0
    1.9590    2.1468   -3.5898 N   0  0  0  0  0  0  0  0  0  0  0  0
    1.4158    2.9001   -4.5253 N   0  0  0  0  0  0  0  0  0  0  0  0
    0.2948    3.4792   -4.0407 C   0  0  0  0  0  0  0  0  0  0  0  0
   -0.4772    4.3371   -4.8703 C   0  0  0  0  0  0  0  0  0  0  0  0
   -1.4957    4.8664   -4.4532 O   0  0  0  0  0  0  0  0  0  0  0  0
   -0.1028    4.5923   -6.1628 N   0  0  0  0  0  0  0  0  0  0  0  0
    1.0409    3.9895   -6.6229 C   0  0  0  0  0  0  0  0  0  0  0  0
    1.7846    3.1610   -5.8212 C   0  0  0  0  0  0  0  0  0  0  0  0
    0.1550    3.0654   -2.7493 C   0  0  0  0  0  0  0  0  0  0  0  0
    1.4742    0.1409    0.8075 H   0  0  0  0  0  0  0  0  0  0  0  0
    0.1409    0.8075    1.4742 H   0  0  0  0  0  0  0  0  0  0  0  0
    2.3956    0.4088    3.2271 H   0  0  0  0  0  0  0  0  0  0  0  0
    5.2189   -1.7759    3.5545 H   0  0  0  0  0  0  0  0  0  0  0  0
    5.9653   -1.9333    4.9984 H   0  0  0  0  0  0  0  0  0  0  0  0
    7.2702   -0.0449    4.6469 H   0  0  0  0  0  0  0  0  0  0  0  0
    7.2214   -0.6754    3.1413 H   0  0  0  0  0  0  0  0  0  0  0  0
    6.3673    1.7237    3.4480 H   0  0  0  0  0  0  0  0  0  0  0  0
    5.4908    0.7266    2.4970 H   0  0  0  0  0  0  0  0  0  0  0  0
    5.3018    2.7253    6.1893 H   0  0  0  0  0  0  0  0  0  0  0  0
    3.9946    4.6548    6.7274 H   0  0  0  0  0  0  0  0  0  0  0  0
    1.9442    5.0864    5.5902 H   0  0  0  0  0  0  0  0  0  0  0  0
    1.1751    3.5825    3.8912 H   0  0  0  0  0  0  0  0  0  0  0  0
   -0.6429    5.1956   -6.7495 H   0  0  0  0  0  0  0  0  0  0  0  0
    1.3386    4.1578   -7.5626 H   0  0  0  0  0  0  0  0  0  0  0  0
    2.6129    2.7383   -6.1889 H   0  0  0  0  0  0  0  0  0  0  0  0
   -0.5739    3.3177   -2.1129 H   0  0  0  0  0  0  0  0  0  0  0  0
  1  2  2  0  0  0  0
  2  3  1  0  0  0  0
  3  4  1  0  0  0  0
  4  5  1  0  0  0  0
  5  6  2  0  0  0  0
  5  7  1  0  0  0  0
  7  8  1  0  0  0  0
  8  9  1  0  0  0  0
  9 10  1  0  0  0  0
 10 11  1  0  0  0  0
 11 12  2  0  0  0  0
 11 13  1  0  0  0  0
 13 14  1  0  0  0  0
 14 15  1  0  0  0  0
 15 10  1  0  0  0  0
  9 16  2  0  0  0  0
 16 17  1  0  0  0  0
 17 18  2  0  0  0  0
 18 19  1  0  0  0  0
 19  8  2  0  0  0  0
  2 20  1  0  0  0  0
 20 21  2  0  0  0  0
 21 22  1  0  0  0  0
 22 23  1  0  0  0  0
 23 24  1  0  0  0  0
 24 25  2  0  0  0  0
 24 26  1  0  0  0  0
 26 27  1  0  0  0  0
 27 28  2  0  0  0  0
 28 22  1  0  0  0  0
 23 29  2  0  0  0  0
 29 20  1  0  0  0  0
  4 30  1  0  0  0  0
  4 31  1  0  0  0  0
  7 32  1  0  0  0  0
 13 33  1  0  0  0  0
 13 34  1  0  0  0  0
 14 35  1  0  0  0  0
 14 36  1  0  0  0  0
 15 37  1  0  0  0  0
 15 38  1  0  0  0  0
 16 39  1  0  0  0  0
 17 40  1  0  0  0  0
 18 41  1  0  0  0  0
 19 42  1  0  0  0  0
 26 43  1  0  0  0  0
 27 44  1  0  0  0  0
 28 45  1  0  0  0  0
 29 46  1  0  0  0  0
M  END
>  <result-rank>
52

>  <similarity>
0.910

>  <query-name>


>  <query-smiles>
Fc1c(F)ccc(NC(=O)c2nc(cnc2Nc3cncnc3)C4CC4)c1C(=O)N5CCC5

>  <source>
REALspace_2019-12

>  <similarity-descriptor>
0.0;0.998;0.928;0.885;0.954;1.000;0.748;0.954;0.998;0.0

>  <similarity-descriptor-smiles>
;N1CCCC1=O;c1ccccc1;O=CC=1C=CNN1;N1C=CNC(C1)=O;N;OCC=O;N1C=CNC(C1)=O;N1CCCC1=O;

>  <reaction-name>
s_1458

>  <reagent1-name>
13942076

>  <reagent1-smiles>
[R1*]OC(=O)C1=NN2C(C(=O)NC=C2)=C1

>  <reagent2-name>
486520

>  <reagent2-smiles>
[R1*]CC(=O)Nc1c(N2C(=O)CCC2)cccc1

$$$$
s_22____664870____6402668
          04022017343D 1   1.00000     0.00000     0
            
 48 51  0  0  0  0            999 V2000
    5.3613    3.1255   -0.7325 Cl  0  0  0  0  0  0  0  0  0  0  0  0
    4.4713    1.9309    0.2421 C   0  0  0  0  0  0  0  0  0  0  0  0
    5.1646    0.9963    1.0052 C   0  0  0  0  0  0  0  0  0  0  0  0
    6.5647    1.0047    0.9988 N   0  0  0  0  0  0  0  0  0  0  0  0
    7.2775    0.1954   -0.0014 C   0  0  0  0  0  0  0  0  0  0  0  0
    8.6735    0.7579   -0.2172 C   0  0  0  0  0  0  0  0  0  0  0  0
    9.1973    0.7507   -1.3205 O   0  0  0  0  0  0  0  0  0  0  0  0
    9.3472    1.2981    0.8844 N   0  0  0  0  0  0  0  0  0  0  0  0
    8.7103    1.3482    2.2083 C   0  0  0  0  0  0  0  0  0  0  0  0
    7.2818    1.8193    1.9924 C   0  0  0  0  0  0  0  0  0  0  0  0
    4.4801    0.0577    1.7702 C   0  0  0  0  0  0  0  0  0  0  0  0
    3.0884    0.0633    1.7640 C   0  0  0  0  0  0  0  0  0  0  0  0
    2.4001    1.0000    1.0000 C   0  0  0  0  0  0  0  0  0  0  0  0
    1.0000    1.0000    1.0000 N   0  0  0  0  0  0  0  0  0  0  0  0
    0.3150   -0.1863    0.9829 C   0  0  0  0  0  0  0  0  0  0  0  0
    0.7944   -1.1484    0.4494 O   0  0  0  0  0  0  0  0  0  0  0  0
   -0.9901   -0.2795    1.6099 C   0  0  0  0  0  0  0  0  0  0  0  0
   -2.1408    0.1982    0.9289 C   0  0  0  0  0  0  0  0  0  0  0  0
   -2.0617    0.6918   -0.1847 O   0  0  0  0  0  0  0  0  0  0  0  0
   -3.3589    0.0960    1.5483 N   0  0  0  0  0  0  0  0  0  0  0  0
   -3.4708   -0.4543    2.7985 C   0  0  0  0  0  0  0  0  0  0  0  0
   -2.3968   -0.8977    3.4273 N   0  0  0  0  0  0  0  0  0  0  0  0
   -1.1522   -0.8222    2.8582 C   0  0  0  0  0  0  0  0  0  0  0  0
    0.0532   -1.3458    3.6233 C   0  0  0  0  0  0  0  0  0  0  0  0
   -4.7849   -0.5357    3.4051 C   0  0  0  0  0  0  0  0  0  0  0  0
   -5.0945   -1.2047    4.4965 O   0  0  0  0  0  0  0  0  0  0  0  0
   -6.3734   -1.0802    4.7693 C   0  0  0  0  0  0  0  0  0  0  0  0
   -6.9317   -0.2916    3.8084 C   0  0  0  0  0  0  0  0  0  0  0  0
   -5.9013    0.0699    2.9106 C   0  0  0  0  0  0  0  0  0  0  0  0
    3.0806    1.9402    0.2339 C   0  0  0  0  0  0  0  0  0  0  0  0
    6.7740    0.2156   -0.8651 H   0  0  0  0  0  0  0  0  0  0  0  0
    7.3460   -0.7483    0.3225 H   0  0  0  0  0  0  0  0  0  0  0  0
   10.2743    1.6547    0.7692 H   0  0  0  0  0  0  0  0  0  0  0  0
    9.1982    1.9894    2.8007 H   0  0  0  0  0  0  0  0  0  0  0  0
    8.7135    0.4398    2.6262 H   0  0  0  0  0  0  0  0  0  0  0  0
    6.7922    1.7681    2.8629 H   0  0  0  0  0  0  0  0  0  0  0  0
    7.3011    2.7677    1.6761 H   0  0  0  0  0  0  0  0  0  0  0  0
    4.9815   -0.6124    2.3176 H   0  0  0  0  0  0  0  0  0  0  0  0
    2.5833   -0.6061    2.3087 H   0  0  0  0  0  0  0  0  0  0  0  0
    0.5000    1.8659    1.0125 H   0  0  0  0  0  0  0  0  0  0  0  0
   -4.1784    0.4279    1.0811 H   0  0  0  0  0  0  0  0  0  0  0  0
    0.8785   -1.2176    3.0734 H   0  0  0  0  0  0  0  0  0  0  0  0
    0.1450   -0.8450    4.4840 H   0  0  0  0  0  0  0  0  0  0  0  0
   -0.0712   -2.3192    3.8157 H   0  0  0  0  0  0  0  0  0  0  0  0
   -6.8524   -1.4913    5.5449 H   0  0  0  0  0  0  0  0  0  0  0  0
   -7.8921   -0.0193    3.7493 H   0  0  0  0  0  0  0  0  0  0  0  0
   -5.9751    0.6426    2.0941 H   0  0  0  0  0  0  0  0  0  0  0  0
    2.5791    2.6107   -0.3128 H   0  0  0  0  0  0  0  0  0  0  0  0
  1  2  1  0  0  0  0
  2  3  1  0  0  0  0
  3  4  1  0  0  0  0
  4  5  1  0  0  0  0
  5  6  1  0  0  0  0
  6  7  2  0  0  0  0
  6  8  1  0  0  0  0
  8  9  1  0  0  0  0
  9 10  1  0  0  0  0
 10  4  1  0  0  0  0
  3 11  2  0  0  0  0
 11 12  1  0  0  0  0
 12 13  2  0  0  0  0
 13 14  1  0  0  0  0
 14 15  1  0  0  0  0
 15 16  2  0  0  0  0
 15 17  1  0  0  0  0
 17 18  1  0  0  0  0
 18 19  2  0  0  0  0
 18 20  1  0  0  0  0
 20 21  1  0  0  0  0
 21 22  2  0  0  0  0
 22 23  1  0  0  0  0
 17 23  2  0  0  0  0
 23 24  1  0  0  0  0
 21 25  1  0  0  0  0
 25 26  1  0  0  0  0
 26 27  1  0  0  0  0
 27 28  2  0  0  0  0
 28 29  1  0  0  0  0
 25 29  2  0  0  0  0
 13 30  1  0  0  0  0
 30  2  2  0  0  0  0
  5 31  1  0  0  0  0
  5 32  1  0  0  0  0
  8 33  1  0  0  0  0
  9 34  1  0  0  0  0
  9 35  1  0  0  0  0
 10 36  1  0  0  0  0
 10 37  1  0  0  0  0
 11 38  1  0  0  0  0
 12 39  1  0  0  0  0
 14 40  1  0  0  0  0
 20 41  1  0  0  0  0
 24 42  1  0  0  0  0
 24 43  1  0  0  0  0
 24 44  1  0  0  0  0
 27 45  1  0  0  0  0
 28 46  1  0  0  0  0
 29 47  1  0  0  0  0
 30 48  1  0  0  0  0
M  END
>  <result-rank>
53

>  <similarity>
0.909

>  <query-name>


>  <query-smiles>
Fc1c(F)ccc(NC(=O)c2nc(cnc2Nc3cncnc3)C4CC4)c1C(=O)N5CCC5

>  <source>
REALspace_2019-12

>  <similarity-descriptor>
0.0;0.908;0.954;0.910;0.898;1.000;0.999;0.910;0.908;0.143

>  <similarity-descriptor-smiles>
;N1CCNC(C1)=O;Clc1ccccc1;C1=CN=CNC1=O;C1=CC=CO1;N;C=O;C1=CN=CNC1=O;N1CCNC(C1)=O;C

>  <reaction-name>
s_22

>  <reagent1-name>
664870

>  <reagent1-smiles>
[R1*]Nc1cc(Cl)c(N2CC(=O)NCC2)cc1

>  <reagent2-name>
6402668

>  <reagent2-smiles>
[R1*]C(=O)C=1C(=O)NC(=NC1C)C=2OC=CC2

$$$$
s_22____12904808____5825582
          04022017343D 1   1.00000     0.00000     0
            
 47 49  0  0  0  0            999 V2000
    0.8226    3.5273    2.5241 F   0  0  0  0  0  0  0  0  0  0  0  0
    1.9821    2.8763    2.5102 C   0  0  0  0  0  0  0  0  0  0  0  0
    3.1781    3.5854    2.5020 C   0  0  0  0  0  0  0  0  0  0  0  0
    3.1519    4.9853    2.5098 N   0  0  0  0  0  0  0  0  0  0  0  0
    3.7425    5.6758    3.5352 C   0  0  0  0  0  0  0  0  0  0  0  0
    4.2823    5.0808    4.4266 O   0  0  0  0  0  0  0  0  0  0  0  0
    3.7141    7.1955    3.5436 C   0  0  0  0  0  0  0  0  0  0  0  0
    2.2719    7.6752    3.5607 C   0  0  0  0  0  0  0  0  0  0  0  0
    4.4335    7.7088    4.7803 C   0  0  0  0  0  0  0  0  0  0  0  0
    4.3974    2.9172    2.4866 C   0  0  0  0  0  0  0  0  0  0  0  0
    4.4046    1.5262    2.4788 C   0  0  0  0  0  0  0  0  0  0  0  0
    3.2098    0.8152    2.4879 C   0  0  0  0  0  0  0  0  0  0  0  0
    3.2130   -0.5146    2.4812 F   0  0  0  0  0  0  0  0  0  0  0  0
    1.9907    1.4852    2.5037 C   0  0  0  0  0  0  0  0  0  0  0  0
    5.6741    0.8254    2.4611 C   0  0  0  0  0  0  0  0  0  0  0  0
    6.1880    0.5412    1.4146 O   0  0  0  0  0  0  0  0  0  0  0  0
    6.2867    0.4877    3.6391 N   0  0  0  0  0  0  0  0  0  0  0  0
    7.5735   -0.2227    3.6211 C   0  0  0  0  0  0  0  0  0  0  0  0
    8.7100    0.7874    3.6143 C   0  0  0  0  0  0  0  0  0  0  0  0
    9.2640    1.2960    2.5381 N   0  0  0  0  0  0  0  0  0  0  0  0
   10.2054    2.1305    2.9232 N   0  0  0  0  0  0  0  0  0  0  0  0
   10.2673    2.1627    4.2401 C   0  0  0  0  0  0  0  0  0  0  0  0
    9.3184    1.3137    4.7136 N   0  0  0  0  0  0  0  0  0  0  0  0
    9.2082    1.1837    6.0769 C   0  0  0  0  0  0  0  0  0  0  0  0
   10.0141    1.8806    6.9416 C   0  0  0  0  0  0  0  0  0  0  0  0
   10.9740    2.7458    6.4819 N   0  0  0  0  0  0  0  0  0  0  0  0
   11.1096    2.8927    5.1255 C   0  0  0  0  0  0  0  0  0  0  0  0
   11.9616    3.6601    4.7074 O   0  0  0  0  0  0  0  0  0  0  0  0
    5.6571    0.8359    4.9210 C   0  0  0  0  0  0  0  0  0  0  0  0
    2.7021    5.4812    1.7669 H   0  0  0  0  0  0  0  0  0  0  0  0
    4.1709    7.5420    2.7244 H   0  0  0  0  0  0  0  0  0  0  0  0
    2.2532    8.6750    3.5663 H   0  0  0  0  0  0  0  0  0  0  0  0
    1.7986    7.3375    2.7471 H   0  0  0  0  0  0  0  0  0  0  0  0
    1.8150    7.3287    4.3800 H   0  0  0  0  0  0  0  0  0  0  0  0
    4.4148    8.7086    4.7859 H   0  0  0  0  0  0  0  0  0  0  0  0
    3.9766    7.3623    5.5996 H   0  0  0  0  0  0  0  0  0  0  0  0
    5.3823    7.3932    4.7691 H   0  0  0  0  0  0  0  0  0  0  0  0
    5.2565    3.4291    2.4812 H   0  0  0  0  0  0  0  0  0  0  0  0
    1.1316    0.9735    2.5102 H   0  0  0  0  0  0  0  0  0  0  0  0
    7.6285   -0.7919    2.8008 H   0  0  0  0  0  0  0  0  0  0  0  0
    7.6463   -0.8010    4.4337 H   0  0  0  0  0  0  0  0  0  0  0  0
    8.5196    0.5621    6.4504 H   0  0  0  0  0  0  0  0  0  0  0  0
    9.8992    1.7551    7.9270 H   0  0  0  0  0  0  0  0  0  0  0  0
   11.5568    3.2536    7.1163 H   0  0  0  0  0  0  0  0  0  0  0  0
    6.2343    0.5176    5.6731 H   0  0  0  0  0  0  0  0  0  0  0  0
    5.5491    1.8282    4.9807 H   0  0  0  0  0  0  0  0  0  0  0  0
    4.7598    0.3986    4.9814 H   0  0  0  0  0  0  0  0  0  0  0  0
  1  2  1  0  0  0  0
  2  3  1  0  0  0  0
  3  4  1  0  0  0  0
  4  5  1  0  0  0  0
  5  6  2  0  0  0  0
  5  7  1  0  0  0  0
  7  8  1  0  0  0  0
  7  9  1  0  0  0  0
  3 10  2  0  0  0  0
 10 11  1  0  0  0  0
 11 12  2  0  0  0  0
 12 13  1  0  0  0  0
 12 14  1  0  0  0  0
 14  2  2  0  0  0  0
 11 15  1  0  0  0  0
 15 16  2  0  0  0  0
 15 17  1  0  0  0  0
 17 18  1  0  0  0  0
 18 19  1  0  0  0  0
 19 20  2  0  0  0  0
 20 21  1  0  0  0  0
 21 22  2  0  0  0  0
 22 23  1  0  0  0  0
 23 19  1  0  0  0  0
 23 24  1  0  0  0  0
 24 25  2  0  0  0  0
 25 26  1  0  0  0  0
 26 27  1  0  0  0  0
 27 22  1  0  0  0  0
 27 28  2  0  0  0  0
 17 29  1  0  0  0  0
  4 30  1  0  0  0  0
  7 31  1  0  0  0  0
  8 32  1  0  0  0  0
  8 33  1  0  0  0  0
  8 34  1  0  0  0  0
  9 35  1  0  0  0  0
  9 36  1  0  0  0  0
  9 37  1  0  0  0  0
 10 38  1  0  0  0  0
 14 39  1  0  0  0  0
 18 40  1  0  0  0  0
 18 41  1  0  0  0  0
 24 42  1  0  0  0  0
 25 43  1  0  0  0  0
 26 44  1  0  0  0  0
 29 45  1  0  0  0  0
 29 46  1  0  0  0  0
 29 47  1  0  0  0  0
M  END
>  <result-rank>
54

>  <similarity>
0.909

>  <query-name>


>  <query-smiles>
Fc1c(F)ccc(NC(=O)c2nc(cnc2Nc3cncnc3)C4CC4)c1C(=O)N5CCC5

>  <source>
REALspace_2019-12

>  <similarity-descriptor>
0.0;0.896;1.000;0.882;0.954;0.852;0.852;0.954;0.852;0.083

>  <similarity-descriptor-smiles>
;C(C)C;Fc1cc(ccc1)F;NCC=1NC=NN1;C1C(NC=CN1)=O;C=O;C=O;C1C(NC=CN1)=O;NC=O;C

>  <reaction-name>
s_22

>  <reagent1-name>
12904808

>  <reagent1-smiles>
[R1*]N(CC1=NN=C2N1C=CNC2=O)C

>  <reagent2-name>
5825582

>  <reagent2-smiles>
[R1*]C(=O)c1c(F)cc(F)c(NC(=O)C(C)C)c1

$$$$
s_2430a____1041920____12908904
          04022017343D 1   1.00000     0.00000     0
            
 47 50  0  0  0  0            999 V2000
    4.9624    0.4227    0.2944 F   0  0  0  0  0  0  0  0  0  0  0  0
    4.3818   -0.3215    1.2310 C   0  0  0  0  0  0  0  0  0  0  0  0
    3.0701   -0.0502    1.6063 C   0  0  0  0  0  0  0  0  0  0  0  0
    2.3700    1.0000    1.0000 N   0  0  0  0  0  0  0  0  0  0  0  0
    1.0000    1.0000    1.0000 C   0  0  0  0  0  0  0  0  0  0  0  0
    0.4000   -0.0392    1.0000 O   0  0  0  0  0  0  0  0  0  0  0  0
    0.3150    2.1865    1.0000 N   0  0  0  0  0  0  0  0  0  0  0  0
   -1.1550    2.1865    1.0000 C   0  0  0  0  0  0  0  0  0  0  0  0
   -1.6616    2.1865    2.4329 C   0  0  0  0  0  0  0  0  0  0  0  0
   -1.9154    1.1186    3.1506 N   0  0  0  0  0  0  0  0  0  0  0  0
   -2.3322    1.5164    4.3334 N   0  0  0  0  0  0  0  0  0  0  0  0
   -2.3515    2.8328    4.3807 C   0  0  0  0  0  0  0  0  0  0  0  0
   -1.9296    3.2935    3.1815 N   0  0  0  0  0  0  0  0  0  0  0  0
   -1.8696    4.6512    2.9865 C   0  0  0  0  0  0  0  0  0  0  0  0
   -2.2237    5.5352    3.9727 C   0  0  0  0  0  0  0  0  0  0  0  0
   -2.6539    5.0907    5.1968 N   0  0  0  0  0  0  0  0  0  0  0  0
   -2.7212    3.7375    5.4136 C   0  0  0  0  0  0  0  0  0  0  0  0
   -3.0993    3.3102    6.4929 O   0  0  0  0  0  0  0  0  0  0  0  0
   -3.0272    6.0570    6.2400 C   0  0  0  0  0  0  0  0  0  0  0  0
    2.4425   -0.8146    2.5833 C   0  0  0  0  0  0  0  0  0  0  0  0
    3.1510   -1.8535    3.1763 C   0  0  0  0  0  0  0  0  0  0  0  0
    2.5347   -2.6322    4.1630 N   0  0  0  0  0  0  0  0  0  0  0  0
    2.6173   -2.3968    5.5319 C   0  0  0  0  0  0  0  0  0  0  0  0
    3.2342   -1.4942    6.0718 O   0  0  0  0  0  0  0  0  0  0  0  0
    1.8104   -3.4742    6.2271 C   0  0  0  0  0  0  0  0  0  0  0  0
    1.8272   -4.5879    5.2000 C   0  0  0  0  0  0  0  0  0  0  0  0
    1.7137   -3.8158    3.9031 C   0  0  0  0  0  0  0  0  0  0  0  0
    4.4622   -2.1304    2.8057 C   0  0  0  0  0  0  0  0  0  0  0  0
    5.0855   -1.3624    1.8279 C   0  0  0  0  0  0  0  0  0  0  0  0
    2.8700    1.7500    0.5670 H   0  0  0  0  0  0  0  0  0  0  0  0
    0.8150    3.0525    1.0000 H   0  0  0  0  0  0  0  0  0  0  0  0
   -1.4883    1.3700    0.5286 H   0  0  0  0  0  0  0  0  0  0  0  0
   -1.4883    3.0030    0.5286 H   0  0  0  0  0  0  0  0  0  0  0  0
   -1.5601    5.0038    2.1035 H   0  0  0  0  0  0  0  0  0  0  0  0
   -2.1676    6.5181    3.7970 H   0  0  0  0  0  0  0  0  0  0  0  0
   -2.9104    6.9867    5.8905 H   0  0  0  0  0  0  0  0  0  0  0  0
   -3.9828    5.9158    6.4986 H   0  0  0  0  0  0  0  0  0  0  0  0
   -2.4424    5.9260    7.0405 H   0  0  0  0  0  0  0  0  0  0  0  0
    1.4996   -0.6210    2.8542 H   0  0  0  0  0  0  0  0  0  0  0  0
    0.8777   -3.1663    6.4147 H   0  0  0  0  0  0  0  0  0  0  0  0
    2.2451   -3.7603    7.0811 H   0  0  0  0  0  0  0  0  0  0  0  0
    2.6805   -5.1078    5.2407 H   0  0  0  0  0  0  0  0  0  0  0  0
    1.0527   -5.2083    5.3232 H   0  0  0  0  0  0  0  0  0  0  0  0
    2.0756   -4.3446    3.1354 H   0  0  0  0  0  0  0  0  0  0  0  0
    0.7647   -3.5627    3.7155 H   0  0  0  0  0  0  0  0  0  0  0  0
    4.9572   -2.8817    3.2422 H   0  0  0  0  0  0  0  0  0  0  0  0
    6.0284   -1.5563    1.5571 H   0  0  0  0  0  0  0  0  0  0  0  0
  1  2  1  0  0  0  0
  2  3  1  0  0  0  0
  3  4  1  0  0  0  0
  4  5  1  0  0  0  0
  5  6  2  0  0  0  0
  5  7  1  0  0  0  0
  7  8  1  0  0  0  0
  8  9  1  0  0  0  0
  9 10  2  0  0  0  0
 10 11  1  0  0  0  0
 11 12  2  0  0  0  0
 12 13  1  0  0  0  0
 13  9  1  0  0  0  0
 13 14  1  0  0  0  0
 14 15  2  0  0  0  0
 15 16  1  0  0  0  0
 16 17  1  0  0  0  0
 17 12  1  0  0  0  0
 17 18  2  0  0  0  0
 16 19  1  0  0  0  0
  3 20  2  0  0  0  0
 20 21  1  0  0  0  0
 21 22  1  0  0  0  0
 22 23  1  0  0  0  0
 23 24  2  0  0  0  0
 23 25  1  0  0  0  0
 25 26  1  0  0  0  0
 26 27  1  0  0  0  0
 27 22  1  0  0  0  0
 21 28  2  0  0  0  0
 28 29  1  0  0  0  0
 29  2  2  0  0  0  0
  4 30  1  0  0  0  0
  7 31  1  0  0  0  0
  8 32  1  0  0  0  0
  8 33  1  0  0  0  0
 14 34  1  0  0  0  0
 15 35  1  0  0  0  0
 19 36  1  0  0  0  0
 19 37  1  0  0  0  0
 19 38  1  0  0  0  0
 20 39  1  0  0  0  0
 25 40  1  0  0  0  0
 25 41  1  0  0  0  0
 26 42  1  0  0  0  0
 26 43  1  0  0  0  0
 27 44  1  0  0  0  0
 27 45  1  0  0  0  0
 28 46  1  0  0  0  0
 29 47  1  0  0  0  0
M  END
>  <result-rank>
55

>  <similarity>
0.908

>  <query-name>


>  <query-smiles>
Fc1c(F)ccc(NC(=O)c2nc(cnc2Nc3cncnc3)C4CC4)c1C(=O)N5CCC5

>  <source>
REALspace_2019-12

>  <similarity-descriptor>
0.0;0.998;0.964;0.874;0.883;1.000;0.849;0.883;0.998;0.111

>  <similarity-descriptor-smiles>
;N1CCCC1=O;Fc1ccccc1;CC=1NC=NN1;C1C(NC=CN1)=O;N;C(=O)N;C1C(NC=CN1)=O;N1CCCC1=O;C

>  <reaction-name>
s_2430a

>  <reagent1-name>
1041920

>  <reagent1-smiles>
[R1*]C(=O)Nc1c(F)ccc(N2C(=O)CCC2)c1

>  <reagent2-name>
12908904

>  <reagent2-smiles>
[R1*]NCC1=NN=C2N1C=CN(C2=O)C

$$$$
s_22____215840____6741462
          04022017343D 1   1.00000     0.00000     0
            
 49 53  0  0  0  0            999 V2000
    5.3613    3.7070    0.5624 Cl  0  0  0  0  0  0  0  0  0  0  0  0
    4.4713    2.1851    0.8091 C   0  0  0  0  0  0  0  0  0  0  0  0
    5.1646    0.9942    1.0026 C   0  0  0  0  0  0  0  0  0  0  0  0
    6.5647    1.0047    1.0013 N   0  0  0  0  0  0  0  0  0  0  0  0
    7.3586    1.0263   -0.1439 C   0  0  0  0  0  0  0  0  0  0  0  0
    6.9580    1.0499   -1.2956 O   0  0  0  0  0  0  0  0  0  0  0  0
    8.8069    1.0228    0.2915 C   0  0  0  0  0  0  0  0  0  0  0  0
    8.7058    1.6404    1.6683 C   0  0  0  0  0  0  0  0  0  0  0  0
    7.4401    0.9875    2.1773 C   0  0  0  0  0  0  0  0  0  0  0  0
    4.4801   -0.2012    1.1959 C   0  0  0  0  0  0  0  0  0  0  0  0
    3.0884   -0.1932    1.1933 C   0  0  0  0  0  0  0  0  0  0  0  0
    2.4001    1.0000    1.0000 C   0  0  0  0  0  0  0  0  0  0  0  0
    1.0000    1.0000    1.0000 N   0  0  0  0  0  0  0  0  0  0  0  0
    0.3150   -0.1863    0.9829 C   0  0  0  0  0  0  0  0  0  0  0  0
    0.8607   -1.1890    0.6130 O   0  0  0  0  0  0  0  0  0  0  0  0
   -1.0711   -0.2304    1.4123 C   0  0  0  0  0  0  0  0  0  0  0  0
   -2.1091   -0.6418    0.5762 C   0  0  0  0  0  0  0  0  0  0  0  0
   -3.4134   -0.6553    1.0670 C   0  0  0  0  0  0  0  0  0  0  0  0
   -3.6510   -0.2740    2.3324 N   0  0  0  0  0  0  0  0  0  0  0  0
   -2.6678    0.1257    3.1555 C   0  0  0  0  0  0  0  0  0  0  0  0
   -1.3484    0.1585    2.7180 C   0  0  0  0  0  0  0  0  0  0  0  0
   -2.9475    0.5565    4.5862 C   0  0  0  0  0  0  0  0  0  0  0  0
   -1.8990    0.0285    5.5212 C   0  0  0  0  0  0  0  0  0  0  0  0
   -3.2599   -0.6055    5.4845 C   0  0  0  0  0  0  0  0  0  0  0  0
   -4.4544   -1.0641    0.2390 C   0  0  0  0  0  0  0  0  0  0  0  0
   -4.2182   -1.4609   -1.0733 C   0  0  0  0  0  0  0  0  0  0  0  0
   -2.9198   -1.4503   -1.5718 C   0  0  0  0  0  0  0  0  0  0  0  0
   -2.5422   -1.9452   -3.2395 Cl  0  0  0  0  0  0  0  0  0  0  0  0
   -1.8841   -1.0408   -0.7401 C   0  0  0  0  0  0  0  0  0  0  0  0
    3.0806    2.1972    0.8066 C   0  0  0  0  0  0  0  0  0  0  0  0
    9.3733    1.5779   -0.3176 H   0  0  0  0  0  0  0  0  0  0  0  0
    9.1740    0.0936    0.3335 H   0  0  0  0  0  0  0  0  0  0  0  0
    9.4950    1.4060    2.2359 H   0  0  0  0  0  0  0  0  0  0  0  0
    8.6135    2.6349    1.6200 H   0  0  0  0  0  0  0  0  0  0  0  0
    7.6157    0.0511    2.4811 H   0  0  0  0  0  0  0  0  0  0  0  0
    7.0421    1.5128    2.9295 H   0  0  0  0  0  0  0  0  0  0  0  0
    4.9815   -1.0552    1.3349 H   0  0  0  0  0  0  0  0  0  0  0  0
    2.5833   -1.0453    1.3303 H   0  0  0  0  0  0  0  0  0  0  0  0
    0.5000    1.8659    1.0125 H   0  0  0  0  0  0  0  0  0  0  0  0
   -0.6148    0.4554    3.3293 H   0  0  0  0  0  0  0  0  0  0  0  0
   -3.3668    1.4470    4.7631 H   0  0  0  0  0  0  0  0  0  0  0  0
   -1.6200    0.5680    6.3156 H   0  0  0  0  0  0  0  0  0  0  0  0
   -1.1080   -0.4642    5.1585 H   0  0  0  0  0  0  0  0  0  0  0  0
   -3.3752   -1.5202    5.0971 H   0  0  0  0  0  0  0  0  0  0  0  0
   -3.8873   -0.4880    6.2543 H   0  0  0  0  0  0  0  0  0  0  0  0
   -5.3893   -1.0729    0.5937 H   0  0  0  0  0  0  0  0  0  0  0  0
   -4.9778   -1.7521   -1.6549 H   0  0  0  0  0  0  0  0  0  0  0  0
   -0.9499   -1.0322   -1.0968 H   0  0  0  0  0  0  0  0  0  0  0  0
    2.5791    3.0513    0.6684 H   0  0  0  0  0  0  0  0  0  0  0  0
  1  2  1  0  0  0  0
  2  3  1  0  0  0  0
  3  4  1  0  0  0  0
  4  5  1  0  0  0  0
  5  6  2  0  0  0  0
  5  7  1  0  0  0  0
  7  8  1  0  0  0  0
  8  9  1  0  0  0  0
  9  4  1  0  0  0  0
  3 10  2  0  0  0  0
 10 11  1  0  0  0  0
 11 12  2  0  0  0  0
 12 13  1  0  0  0  0
 13 14  1  0  0  0  0
 14 15  2  0  0  0  0
 14 16  1  0  0  0  0
 16 17  1  0  0  0  0
 17 18  2  0  0  0  0
 18 19  1  0  0  0  0
 19 20  2  0  0  0  0
 20 21  1  0  0  0  0
 21 16  2  0  0  0  0
 20 22  1  0  0  0  0
 22 23  1  0  0  0  0
 23 24  1  0  0  0  0
 24 22  1  0  0  0  0
 18 25  1  0  0  0  0
 25 26  2  0  0  0  0
 26 27  1  0  0  0  0
 27 28  1  0  0  0  0
 27 29  2  0  0  0  0
 29 17  1  0  0  0  0
 12 30  1  0  0  0  0
 30  2  2  0  0  0  0
  7 31  1  0  0  0  0
  7 32  1  0  0  0  0
  8 33  1  0  0  0  0
  8 34  1  0  0  0  0
  9 35  1  0  0  0  0
  9 36  1  0  0  0  0
 10 37  1  0  0  0  0
 11 38  1  0  0  0  0
 13 39  1  0  0  0  0
 21 40  1  0  0  0  0
 22 41  1  0  0  0  0
 23 42  1  0  0  0  0
 23 43  1  0  0  0  0
 24 44  1  0  0  0  0
 24 45  1  0  0  0  0
 25 46  1  0  0  0  0
 26 47  1  0  0  0  0
 29 48  1  0  0  0  0
 30 49  1  0  0  0  0
M  END
>  <result-rank>
56

>  <similarity>
0.908

>  <query-name>


>  <query-smiles>
Fc1c(F)ccc(NC(=O)c2nc(cnc2Nc3cncnc3)C4CC4)c1C(=O)N5CCC5

>  <source>
REALspace_2019-12

>  <similarity-descriptor>
1.000;0.998;0.954;0.852;0.734;1.000;1.000;0.734;0.998;0.0

>  <similarity-descriptor-smiles>
C1CC1;N1CCCC1=O;Clc1ccccc1;c1ccncc1;c1cc(ccc1)Cl;N;C=O;c1cc(ccc1)Cl;N1CCCC1=O;

>  <reaction-name>
s_22

>  <reagent1-name>
215840

>  <reagent1-smiles>
[R1*]Nc1cc(Cl)c(N2C(=O)CCC2)cc1

>  <reagent2-name>
6741462

>  <reagent2-smiles>
[R1*]C(=O)c1c2c(nc(c1)C3CC3)ccc(Cl)c2

$$$$
s_22____17548538____872068
          04022017343D 1   1.00000     0.00000     0
            
 55 58  0  0  0  0            999 V2000
    2.6901    3.7193    3.2077 S   0  0  0  0  0  0  0  0  0  0  0  0
    3.7233    2.3774    3.0696 C   0  0  0  0  0  0  0  0  0  0  0  0
    3.1064    1.4935    2.3168 N   0  0  0  0  0  0  0  0  0  0  0  0
    1.8725    1.8725    1.8725 C   0  0  0  0  0  0  0  0  0  0  0  0
    1.4242    3.1002    2.2475 C   0  0  0  0  0  0  0  0  0  0  0  0
    1.0000    1.0000    1.0000 C   0  0  0  0  0  0  0  0  0  0  0  0
    0.1103    0.1347    1.8775 C   0  0  0  0  0  0  0  0  0  0  0  0
    0.5888   -0.4991    2.7771 O   0  0  0  0  0  0  0  0  0  0  0  0
   -1.2381    0.0783    1.6413 N   0  0  0  0  0  0  0  0  0  0  0  0
   -2.0718   -0.6341    2.5113 C   0  0  0  0  0  0  0  0  0  0  0  0
   -2.9124    0.0660    3.3710 C   0  0  0  0  0  0  0  0  0  0  0  0
   -3.7412   -0.6421    4.2353 C   0  0  0  0  0  0  0  0  0  0  0  0
   -3.7228   -2.0328    4.2328 C   0  0  0  0  0  0  0  0  0  0  0  0
   -4.5573   -2.7453    5.1030 N   0  0  0  0  0  0  0  0  0  0  0  0
   -4.2168   -2.9395    6.4485 C   0  0  0  0  0  0  0  0  0  0  0  0
   -3.1760   -2.4863    6.8979 O   0  0  0  0  0  0  0  0  0  0  0  0
   -5.0657   -3.6566    7.3023 N   0  0  0  0  0  0  0  0  0  0  0  0
   -6.3262   -4.2286    6.8052 C   0  0  0  0  0  0  0  0  0  0  0  0
   -6.8782   -3.3912    5.6622 C   0  0  0  0  0  0  0  0  0  0  0  0
   -5.8180   -3.2903    4.5768 C   0  0  0  0  0  0  0  0  0  0  0  0
   -4.7207   -3.8646    8.7164 C   0  0  0  0  0  0  0  0  0  0  0  0
   -2.8824   -2.7331    3.3731 C   0  0  0  0  0  0  0  0  0  0  0  0
   -2.0534   -2.0250    2.5090 C   0  0  0  0  0  0  0  0  0  0  0  0
    5.0471    2.2804    3.7012 N   0  0  0  0  0  0  0  0  0  0  0  0
    5.8070    1.1534    3.5299 C   0  0  0  0  0  0  0  0  0  0  0  0
    5.5854    0.4144    2.6108 O   0  0  0  0  0  0  0  0  0  0  0  0
    6.8810    0.8530    4.4609 C   0  0  0  0  0  0  0  0  0  0  0  0
    8.2012    0.7181    4.1777 C   0  0  0  0  0  0  0  0  0  0  0  0
    8.8514    0.4489    5.2827 O   0  0  0  0  0  0  0  0  0  0  0  0
    8.0308    0.3929    6.3077 C   0  0  0  0  0  0  0  0  0  0  0  0
    6.7704    0.6381    5.8520 C   0  0  0  0  0  0  0  0  0  0  0  0
    8.8223    0.8602    2.7982 C   0  0  0  0  0  0  0  0  0  0  0  0
    0.5555    3.5375    2.0147 H   0  0  0  0  0  0  0  0  0  0  0  0
    0.4307    1.5773    0.4146 H   0  0  0  0  0  0  0  0  0  0  0  0
    1.5773    0.4146    0.4307 H   0  0  0  0  0  0  0  0  0  0  0  0
   -1.6266    0.5460    0.8474 H   0  0  0  0  0  0  0  0  0  0  0  0
   -2.9206    1.0660    3.3676 H   0  0  0  0  0  0  0  0  0  0  0  0
   -4.3501   -0.1511    4.8584 H   0  0  0  0  0  0  0  0  0  0  0  0
   -6.9938   -4.2499    7.5495 H   0  0  0  0  0  0  0  0  0  0  0  0
   -6.1594   -5.1595    6.4802 H   0  0  0  0  0  0  0  0  0  0  0  0
   -7.6988   -3.8264    5.2918 H   0  0  0  0  0  0  0  0  0  0  0  0
   -7.1073   -2.4765    5.9951 H   0  0  0  0  0  0  0  0  0  0  0  0
   -5.6471   -4.2023    4.2039 H   0  0  0  0  0  0  0  0  0  0  0  0
   -6.1530   -2.6905    3.8502 H   0  0  0  0  0  0  0  0  0  0  0  0
   -5.4426   -4.3947    9.1612 H   0  0  0  0  0  0  0  0  0  0  0  0
   -3.8554   -4.3620    8.7788 H   0  0  0  0  0  0  0  0  0  0  0  0
   -4.6294   -2.9786    9.1711 H   0  0  0  0  0  0  0  0  0  0  0  0
   -2.8743   -3.7331    3.3764 H   0  0  0  0  0  0  0  0  0  0  0  0
   -1.4442   -2.5159    1.8862 H   0  0  0  0  0  0  0  0  0  0  0  0
    5.3931    3.0371    4.2560 H   0  0  0  0  0  0  0  0  0  0  0  0
    8.2865    0.2035    7.2557 H   0  0  0  0  0  0  0  0  0  0  0  0
    5.9317    0.6614    6.3960 H   0  0  0  0  0  0  0  0  0  0  0  0
    8.1072    1.0665    2.1303 H   0  0  0  0  0  0  0  0  0  0  0  0
    9.4924    1.6023    2.8091 H   0  0  0  0  0  0  0  0  0  0  0  0
    9.2760    0.0051    2.5473 H   0  0  0  0  0  0  0  0  0  0  0  0
  1  2  1  0  0  0  0
  2  3  2  0  0  0  0
  3  4  1  0  0  0  0
  4  5  2  0  0  0  0
  5  1  1  0  0  0  0
  4  6  1  0  0  0  0
  6  7  1  0  0  0  0
  7  8  2  0  0  0  0
  7  9  1  0  0  0  0
  9 10  1  0  0  0  0
 10 11  1  0  0  0  0
 11 12  2  0  0  0  0
 12 13  1  0  0  0  0
 13 14  1  0  0  0  0
 14 15  1  0  0  0  0
 15 16  2  0  0  0  0
 15 17  1  0  0  0  0
 17 18  1  0  0  0  0
 18 19  1  0  0  0  0
 19 20  1  0  0  0  0
 20 14  1  0  0  0  0
 17 21  1  0  0  0  0
 13 22  2  0  0  0  0
 22 23  1  0  0  0  0
 23 10  2  0  0  0  0
  2 24  1  0  0  0  0
 24 25  1  0  0  0  0
 25 26  2  0  0  0  0
 25 27  1  0  0  0  0
 27 28  2  0  0  0  0
 28 29  1  0  0  0  0
 29 30  1  0  0  0  0
 30 31  2  0  0  0  0
 31 27  1  0  0  0  0
 28 32  1  0  0  0  0
  5 33  1  0  0  0  0
  6 34  1  0  0  0  0
  6 35  1  0  0  0  0
  9 36  1  0  0  0  0
 11 37  1  0  0  0  0
 12 38  1  0  0  0  0
 18 39  1  0  0  0  0
 18 40  1  0  0  0  0
 19 41  1  0  0  0  0
 19 42  1  0  0  0  0
 20 43  1  0  0  0  0
 20 44  1  0  0  0  0
 21 45  1  0  0  0  0
 21 46  1  0  0  0  0
 21 47  1  0  0  0  0
 22 48  1  0  0  0  0
 23 49  1  0  0  0  0
 24 50  1  0  0  0  0
 30 51  1  0  0  0  0
 31 52  1  0  0  0  0
 32 53  1  0  0  0  0
 32 54  1  0  0  0  0
 32 55  1  0  0  0  0
M  END
>  <result-rank>
57

>  <similarity>
0.908

>  <query-name>


>  <query-smiles>
Fc1c(F)ccc(NC(=O)c2nc(cnc2Nc3cncnc3)C4CC4)c1C(=O)N5CCC5

>  <source>
REALspace_2019-12

>  <similarity-descriptor>
0.0;0.992;0.928;0.907;0.898;1.000;0.861;0.990;0.992;0.182

>  <similarity-descriptor-smiles>
;N1CCCNC1=O;c1ccccc1;S1C=CN=C1;C(=O)C=1C=COC1;N;CC=O;N;N1CCCNC1=O;C.C

>  <reaction-name>
s_22

>  <reagent1-name>
17548538

>  <reagent1-smiles>
[R1*]Nc1ccc(N2C(=O)N(CCC2)C)cc1

>  <reagent2-name>
872068

>  <reagent2-smiles>
[R1*]C(=O)CC=1N=C(SC1)NC(=O)C2=C(OC=C2)C

$$$$
s_22____602696____13455094
          04022017343D 1   1.00000     0.00000     0
            
 44 47  0  0  0  0            999 V2000
    3.2645   -1.1197    2.4772 Br  0  0  0  0  0  0  0  0  0  0  0  0
    3.2136    0.8399    2.4876 C   0  0  0  0  0  0  0  0  0  0  0  0
    2.0098    1.5365    2.5047 C   0  0  0  0  0  0  0  0  0  0  0  0
    2.0108    2.8773    2.5108 N   0  0  0  0  0  0  0  0  0  0  0  0
    3.1582    3.5706    2.5023 C   0  0  0  0  0  0  0  0  0  0  0  0
    4.3333    2.9233    2.4861 N   0  0  0  0  0  0  0  0  0  0  0  0
    4.3887    1.5839    2.4789 C   0  0  0  0  0  0  0  0  0  0  0  0
    3.1548    4.9703    2.5090 N   0  0  0  0  0  0  0  0  0  0  0  0
    4.4261    5.7084    2.4994 C   0  0  0  0  0  0  0  0  0  0  0  0
    4.8504    5.9703    1.0599 C   0  0  0  0  0  0  0  0  0  0  0  0
    4.5335    7.0210    0.3377 O   0  0  0  0  0  0  0  0  0  0  0  0
    5.0620    6.9343   -0.8637 C   0  0  0  0  0  0  0  0  0  0  0  0
    5.7568    5.7645   -0.9347 C   0  0  0  0  0  0  0  0  0  0  0  0
    5.6213    5.1274    0.3206 C   0  0  0  0  0  0  0  0  0  0  0  0
    0.7641    0.7940    2.5152 C   0  0  0  0  0  0  0  0  0  0  0  0
    0.5047    0.0446    1.6146 O   0  0  0  0  0  0  0  0  0  0  0  0
   -0.1165    0.9482    3.5533 N   0  0  0  0  0  0  0  0  0  0  0  0
   -1.3186    0.2317    3.5635 C   0  0  0  0  0  0  0  0  0  0  0  0
   -1.6162   -0.6516    4.5961 C   0  0  0  0  0  0  0  0  0  0  0  0
   -0.7390   -0.8159    5.5822 F   0  0  0  0  0  0  0  0  0  0  0  0
   -2.8156   -1.3555    4.5970 C   0  0  0  0  0  0  0  0  0  0  0  0
   -3.7360   -1.1926    3.5671 C   0  0  0  0  0  0  0  0  0  0  0  0
   -3.4312   -0.3136    2.5325 C   0  0  0  0  0  0  0  0  0  0  0  0
   -4.3425   -0.1524    1.4811 N   0  0  0  0  0  0  0  0  0  0  0  0
   -5.6860   -0.5242    1.6165 C   0  0  0  0  0  0  0  0  0  0  0  0
   -6.4505   -0.3211    0.6870 O   0  0  0  0  0  0  0  0  0  0  0  0
   -6.1590   -1.1560    2.9170 C   0  0  0  0  0  0  0  0  0  0  0  0
   -5.0487   -1.9615    3.5743 C   0  0  0  0  0  0  0  0  0  0  0  0
   -2.2348    0.3962    2.5303 C   0  0  0  0  0  0  0  0  0  0  0  0
    5.2744    1.1200    2.4674 H   0  0  0  0  0  0  0  0  0  0  0  0
    2.2877    5.4682    2.5203 H   0  0  0  0  0  0  0  0  0  0  0  0
    5.1291    5.1674    2.9610 H   0  0  0  0  0  0  0  0  0  0  0  0
    4.3093    6.5796    2.9763 H   0  0  0  0  0  0  0  0  0  0  0  0
    4.9699    7.6087   -1.5964 H   0  0  0  0  0  0  0  0  0  0  0  0
    6.2658    5.4217   -1.7242 H   0  0  0  0  0  0  0  0  0  0  0  0
    6.0076    4.2493    0.6030 H   0  0  0  0  0  0  0  0  0  0  0  0
    0.0997    1.5727    4.3038 H   0  0  0  0  0  0  0  0  0  0  0  0
   -3.0185   -1.9857    5.3465 H   0  0  0  0  0  0  0  0  0  0  0  0
   -4.0272    0.2364    0.6155 H   0  0  0  0  0  0  0  0  0  0  0  0
   -6.9305   -1.7620    2.7233 H   0  0  0  0  0  0  0  0  0  0  0  0
   -6.4518   -0.4332    3.5430 H   0  0  0  0  0  0  0  0  0  0  0  0
   -5.3055   -2.1603    4.5201 H   0  0  0  0  0  0  0  0  0  0  0  0
   -4.9276   -2.8191    3.0745 H   0  0  0  0  0  0  0  0  0  0  0  0
   -2.0326    1.0279    1.7820 H   0  0  0  0  0  0  0  0  0  0  0  0
  1  2  1  0  0  0  0
  2  3  1  0  0  0  0
  3  4  2  0  0  0  0
  4  5  1  0  0  0  0
  5  6  2  0  0  0  0
  6  7  1  0  0  0  0
  7  2  2  0  0  0  0
  5  8  1  0  0  0  0
  8  9  1  0  0  0  0
  9 10  1  0  0  0  0
 10 11  1  0  0  0  0
 11 12  1  0  0  0  0
 12 13  2  0  0  0  0
 13 14  1  0  0  0  0
 10 14  2  0  0  0  0
  3 15  1  0  0  0  0
 15 16  2  0  0  0  0
 15 17  1  0  0  0  0
 17 18  1  0  0  0  0
 18 19  1  0  0  0  0
 19 20  1  0  0  0  0
 19 21  2  0  0  0  0
 21 22  1  0  0  0  0
 22 23  2  0  0  0  0
 23 24  1  0  0  0  0
 24 25  1  0  0  0  0
 25 26  2  0  0  0  0
 25 27  1  0  0  0  0
 27 28  1  0  0  0  0
 28 22  1  0  0  0  0
 23 29  1  0  0  0  0
 29 18  2  0  0  0  0
  7 30  1  0  0  0  0
  8 31  1  0  0  0  0
  9 32  1  0  0  0  0
  9 33  1  0  0  0  0
 12 34  1  0  0  0  0
 13 35  1  0  0  0  0
 14 36  1  0  0  0  0
 17 37  1  0  0  0  0
 21 38  1  0  0  0  0
 24 39  1  0  0  0  0
 27 40  1  0  0  0  0
 27 41  1  0  0  0  0
 28 42  1  0  0  0  0
 28 43  1  0  0  0  0
 29 44  1  0  0  0  0
M  END
>  <result-rank>
58

>  <similarity>
0.908

>  <query-name>


>  <query-smiles>
Fc1c(F)ccc(NC(=O)c2nc(cnc2Nc3cncnc3)C4CC4)c1C(=O)N5CCC5

>  <source>
REALspace_2019-12

>  <similarity-descriptor>
0.0;0.831;0.965;0.949;0.880;1.000;1.000;1.000;0.831;0.0

>  <similarity-descriptor-smiles>
;c1CCC(Nc1)=O;c1ccccc1F;Brc1cncnc1;CC1=CC=CO1;N;C=O;N;c1CCC(Nc1)=O;

>  <reaction-name>
s_22

>  <reagent1-name>
602696

>  <reagent1-smiles>
[R1*]Nc1c(F)cc2c(NC(=O)CC2)c1

>  <reagent2-name>
13455094

>  <reagent2-smiles>
[R1*]C(=O)c1nc(ncc1Br)NCC=2OC=CC2

$$$$
s_2718____12904830____1202816
          04022017343D 1   1.00000     0.00000     0
            
 49 52  0  0  0  0            999 V2000
    4.6286    2.1052    3.9154 F   0  0  0  0  0  0  0  0  0  0  0  0
    5.3020    1.3681    3.0372 C   0  0  0  0  0  0  0  0  0  0  0  0
    4.6052    0.5942    2.1149 C   0  0  0  0  0  0  0  0  0  0  0  0
    3.2050    0.5942    2.1149 N   0  0  0  0  0  0  0  0  0  0  0  0
    2.5200    1.0000    1.0000 C   0  0  0  0  0  0  0  0  0  0  0  0
    3.1200    1.3554    0.0234 O   0  0  0  0  0  0  0  0  0  0  0  0
    1.0000    1.0000    1.0000 C   0  0  0  0  0  0  0  0  0  0  0  0
    0.4000   -0.0392    1.0000 O   0  0  0  0  0  0  0  0  0  0  0  0
    0.3150    2.1865    1.0000 N   0  0  0  0  0  0  0  0  0  0  0  0
   -1.1550    2.1865    1.0000 C   0  0  0  0  0  0  0  0  0  0  0  0
   -1.6618    2.1865    2.4335 C   0  0  0  0  0  0  0  0  0  0  0  0
   -1.9141    1.1136    3.1471 N   0  0  0  0  0  0  0  0  0  0  0  0
   -2.3302    1.5043    4.3325 N   0  0  0  0  0  0  0  0  0  0  0  0
   -2.3527    2.8215    4.3900 C   0  0  0  0  0  0  0  0  0  0  0  0
   -1.9266    3.2894    3.1879 N   0  0  0  0  0  0  0  0  0  0  0  0
   -1.8763    4.6520    3.0203 C   0  0  0  0  0  0  0  0  0  0  0  0
   -2.2344    5.5216    4.0195 C   0  0  0  0  0  0  0  0  0  0  0  0
   -2.6621    5.0676    5.2411 N   0  0  0  0  0  0  0  0  0  0  0  0
   -2.7264    3.7120    5.4358 C   0  0  0  0  0  0  0  0  0  0  0  0
   -3.1065    3.2989    6.5196 O   0  0  0  0  0  0  0  0  0  0  0  0
    1.0500    3.4595    1.0000 C   0  0  0  0  0  0  0  0  0  0  0  0
    5.2878   -0.1846    1.1874 C   0  0  0  0  0  0  0  0  0  0  0  0
    6.6780   -0.1744    1.2004 C   0  0  0  0  0  0  0  0  0  0  0  0
    7.3799   -0.9527    0.2760 N   0  0  0  0  0  0  0  0  0  0  0  0
    7.7800   -2.2692    0.4827 C   0  0  0  0  0  0  0  0  0  0  0  0
    7.5872   -2.9315    1.4882 O   0  0  0  0  0  0  0  0  0  0  0  0
    8.5087   -2.7233   -0.7656 C   0  0  0  0  0  0  0  0  0  0  0  0
    8.9780   -1.4062   -1.3491 C   0  0  0  0  0  0  0  0  0  0  0  0
    7.8050   -0.4980   -1.0488 C   0  0  0  0  0  0  0  0  0  0  0  0
    7.3808    0.5971    2.1193 C   0  0  0  0  0  0  0  0  0  0  0  0
    6.6930    1.3743    3.0451 C   0  0  0  0  0  0  0  0  0  0  0  0
    2.7050    0.2980    2.9287 H   0  0  0  0  0  0  0  0  0  0  0  0
   -1.4883    1.3700    0.5286 H   0  0  0  0  0  0  0  0  0  0  0  0
   -1.4883    3.0030    0.5286 H   0  0  0  0  0  0  0  0  0  0  0  0
   -1.5693    5.0215    2.1432 H   0  0  0  0  0  0  0  0  0  0  0  0
   -2.1824    6.5064    3.8538 H   0  0  0  0  0  0  0  0  0  0  0  0
   -2.9191    5.7055    5.9671 H   0  0  0  0  0  0  0  0  0  0  0  0
    0.4002    4.2196    1.0000 H   0  0  0  0  0  0  0  0  0  0  0  0
    1.6249    3.5125    1.8165 H   0  0  0  0  0  0  0  0  0  0  0  0
    1.6249    3.5125    0.1835 H   0  0  0  0  0  0  0  0  0  0  0  0
    4.7885   -0.7414    0.5236 H   0  0  0  0  0  0  0  0  0  0  0  0
    7.8932   -3.2004   -1.3929 H   0  0  0  0  0  0  0  0  0  0  0  0
    9.2810   -3.3172   -0.5403 H   0  0  0  0  0  0  0  0  0  0  0  0
    9.8114   -1.0852   -0.8992 H   0  0  0  0  0  0  0  0  0  0  0  0
    9.1381   -1.4806   -2.3334 H   0  0  0  0  0  0  0  0  0  0  0  0
    8.0872    0.4611   -1.0279 H   0  0  0  0  0  0  0  0  0  0  0  0
    7.0753   -0.6162   -1.7223 H   0  0  0  0  0  0  0  0  0  0  0  0
    8.3808    0.5930    2.1144 H   0  0  0  0  0  0  0  0  0  0  0  0
    7.1926    1.9311    3.7088 H   0  0  0  0  0  0  0  0  0  0  0  0
  1  2  1  0  0  0  0
  2  3  1  0  0  0  0
  3  4  1  0  0  0  0
  4  5  1  0  0  0  0
  5  6  2  0  0  0  0
  5  7  1  0  0  0  0
  7  8  2  0  0  0  0
  7  9  1  0  0  0  0
  9 10  1  0  0  0  0
 10 11  1  0  0  0  0
 11 12  2  0  0  0  0
 12 13  1  0  0  0  0
 13 14  2  0  0  0  0
 14 15  1  0  0  0  0
 15 11  1  0  0  0  0
 15 16  1  0  0  0  0
 16 17  2  0  0  0  0
 17 18  1  0  0  0  0
 18 19  1  0  0  0  0
 19 14  1  0  0  0  0
 19 20  2  0  0  0  0
  9 21  1  0  0  0  0
  3 22  2  0  0  0  0
 22 23  1  0  0  0  0
 23 24  1  0  0  0  0
 24 25  1  0  0  0  0
 25 26  2  0  0  0  0
 25 27  1  0  0  0  0
 27 28  1  0  0  0  0
 28 29  1  0  0  0  0
 29 24  1  0  0  0  0
 23 30  2  0  0  0  0
 30 31  1  0  0  0  0
 31  2  2  0  0  0  0
  4 32  1  0  0  0  0
 10 33  1  0  0  0  0
 10 34  1  0  0  0  0
 16 35  1  0  0  0  0
 17 36  1  0  0  0  0
 18 37  1  0  0  0  0
 21 38  1  0  0  0  0
 21 39  1  0  0  0  0
 21 40  1  0  0  0  0
 22 41  1  0  0  0  0
 27 42  1  0  0  0  0
 27 43  1  0  0  0  0
 28 44  1  0  0  0  0
 28 45  1  0  0  0  0
 29 46  1  0  0  0  0
 29 47  1  0  0  0  0
 30 48  1  0  0  0  0
 31 49  1  0  0  0  0
M  END
>  <result-rank>
59

>  <similarity>
0.908

>  <query-name>


>  <query-smiles>
Fc1c(F)ccc(NC(=O)c2nc(cnc2Nc3cncnc3)C4CC4)c1C(=O)N5CCC5

>  <source>
REALspace_2019-12

>  <similarity-descriptor>
0.0;0.998;0.964;0.765;0.954;1.000;0.999;0.954;0.998;0.100

>  <similarity-descriptor-smiles>
;N1CCCC1=O;Fc1ccccc1;C(=O)NCC=1NC=NN1;C1C(NC=CN1)=O;N;C=O;C1C(NC=CN1)=O;N1CCCC1=O;C

>  <reaction-name>
s_2718

>  <reagent1-name>
12904830

>  <reagent1-smiles>
[R1*]N(CC1=NN=C2N1C=CNC2=O)C

>  <reagent2-name>
1202816

>  <reagent2-smiles>
[R1*]C(=O)C(=O)Nc1c(F)ccc(N2C(=O)CCC2)c1

$$$$
s_272164____17324116____9374480
          04022017343D 1   1.00000     0.00000     0
            
 55 58  0  0  0  0            999 V2000
    0.4000   -0.0392    1.0000 O   0  0  0  0  0  0  0  0  0  0  0  0
    1.0000    1.0000    1.0000 C   0  0  0  0  0  0  0  0  0  0  0  0
    0.2956    2.2201    1.0000 N   0  0  0  0  0  0  0  0  0  0  0  0
    0.8965    3.4810    1.0000 C   0  0  0  0  0  0  0  0  0  0  0  0
    0.9409    4.1206   -0.2381 C   0  0  0  0  0  0  0  0  0  0  0  0
    0.4178    3.5825   -1.4300 N   0  0  0  0  0  0  0  0  0  0  0  0
   -0.7532    2.7911   -1.5414 C   0  0  0  0  0  0  0  0  0  0  0  0
   -1.0001    2.4003   -2.6725 O   0  0  0  0  0  0  0  0  0  0  0  0
   -1.7187    2.3445   -0.4402 C   0  0  3  0  0  0  0  0  0  0  0  0
   -1.1672    2.3418    0.9818 C   0  0  0  0  0  0  0  0  0  0  0  0
   -2.3396    1.0017   -0.7809 C   0  0  0  0  0  0  0  0  0  0  0  0
   -3.2910    0.5870    0.3296 C   0  0  0  0  0  0  0  0  0  0  0  0
    1.5320    5.3772   -0.2602 C   0  0  0  0  0  0  0  0  0  0  0  0
    2.0451    5.9367    0.9041 C   0  0  0  0  0  0  0  0  0  0  0  0
    1.9700    5.2687    2.0653 N   0  0  0  0  0  0  0  0  0  0  0  0
    1.4113    4.0554    2.1555 C   0  0  0  0  0  0  0  0  0  0  0  0
    2.3700    1.0000    1.0000 N   0  0  0  0  0  0  0  0  0  0  0  0
    3.0702   -0.1943    0.7894 C   0  0  0  0  0  0  0  0  0  0  0  0
    2.3818   -1.4032    0.7896 C   0  0  0  0  0  0  0  0  0  0  0  0
    3.0872   -2.5835    0.5797 C   0  0  0  0  0  0  0  0  0  0  0  0
    4.4627   -2.5556    0.3724 C   0  0  0  0  0  0  0  0  0  0  0  0
    5.1634   -3.7494    0.1620 N   0  0  0  0  0  0  0  0  0  0  0  0
    5.6469   -4.5750    1.1753 C   0  0  0  0  0  0  0  0  0  0  0  0
    5.5237   -4.3885    2.3743 O   0  0  0  0  0  0  0  0  0  0  0  0
    6.3462   -5.7491    0.5275 C   0  0  0  0  0  0  0  0  0  0  0  0
    5.6457   -5.8118   -0.8113 C   0  0  0  0  0  0  0  0  0  0  0  0
    5.5196   -4.3392   -1.1322 C   0  0  0  0  0  0  0  0  0  0  0  0
    5.1416   -1.3411    0.3734 C   0  0  0  0  0  0  0  0  0  0  0  0
    4.4455   -0.1551    0.5826 C   0  0  0  0  0  0  0  0  0  0  0  0
    2.3206   -3.8964    0.5828 C   0  0  0  0  0  0  0  0  0  0  0  0
    0.9177    3.7761   -2.2742 H   0  0  0  0  0  0  0  0  0  0  0  0
   -2.4689    3.0056   -0.4449 H   0  0  0  0  0  0  0  0  0  0  0  0
   -1.4264    3.1968    1.4310 H   0  0  0  0  0  0  0  0  0  0  0  0
   -1.5623    1.5703    1.4806 H   0  0  0  0  0  0  0  0  0  0  0  0
   -1.6185    0.3154   -0.8756 H   0  0  0  0  0  0  0  0  0  0  0  0
   -2.8438    1.0763   -1.6413 H   0  0  0  0  0  0  0  0  0  0  0  0
   -3.7001   -0.2974    0.1052 H   0  0  0  0  0  0  0  0  0  0  0  0
   -2.7868    0.5124    1.1899 H   0  0  0  0  0  0  0  0  0  0  0  0
   -4.0122    1.2734    0.4243 H   0  0  0  0  0  0  0  0  0  0  0  0
    1.5890    5.8834   -1.1207 H   0  0  0  0  0  0  0  0  0  0  0  0
    2.4719    6.8406    0.8762 H   0  0  0  0  0  0  0  0  0  0  0  0
    1.3658    3.5752    3.0315 H   0  0  0  0  0  0  0  0  0  0  0  0
    2.8700    1.8529    1.1504 H   0  0  0  0  0  0  0  0  0  0  0  0
    1.3931   -1.4233    0.9386 H   0  0  0  0  0  0  0  0  0  0  0  0
    6.2104   -6.5901    1.0512 H   0  0  0  0  0  0  0  0  0  0  0  0
    7.3256   -5.5778    0.4202 H   0  0  0  0  0  0  0  0  0  0  0  0
    6.1974   -6.2915   -1.4935 H   0  0  0  0  0  0  0  0  0  0  0  0
    4.7502   -6.2508   -0.7381 H   0  0  0  0  0  0  0  0  0  0  0  0
    6.3853   -3.9694   -1.4697 H   0  0  0  0  0  0  0  0  0  0  0  0
    4.8020   -4.1791   -1.8100 H   0  0  0  0  0  0  0  0  0  0  0  0
    6.1301   -1.3209    0.2236 H   0  0  0  0  0  0  0  0  0  0  0  0
    4.9301    0.7196    0.5844 H   0  0  0  0  0  0  0  0  0  0  0  0
    1.3507   -3.7157    0.7463 H   0  0  0  0  0  0  0  0  0  0  0  0
    2.4308   -4.3488   -0.3022 H   0  0  0  0  0  0  0  0  0  0  0  0
    2.6760   -4.4882    1.3063 H   0  0  0  0  0  0  0  0  0  0  0  0
  1  2  2  0  0  0  0
  2  3  1  0  0  0  0
  3  4  1  0  0  0  0
  4  5  1  0  0  0  0
  5  6  1  0  0  0  0
  6  7  1  0  0  0  0
  7  8  2  0  0  0  0
  7  9  1  0  0  0  0
  9 10  1  0  0  0  0
 10  3  1  0  0  0  0
  9 11  1  0  0  0  0
 11 12  1  0  0  0  0
  5 13  2  0  0  0  0
 13 14  1  0  0  0  0
 14 15  2  0  0  0  0
 15 16  1  0  0  0  0
 16  4  2  0  0  0  0
  2 17  1  0  0  0  0
 17 18  1  0  0  0  0
 18 19  1  0  0  0  0
 19 20  2  0  0  0  0
 20 21  1  0  0  0  0
 21 22  1  0  0  0  0
 22 23  1  0  0  0  0
 23 24  2  0  0  0  0
 23 25  1  0  0  0  0
 25 26  1  0  0  0  0
 26 27  1  0  0  0  0
 27 22  1  0  0  0  0
 21 28  2  0  0  0  0
 28 29  1  0  0  0  0
 29 18  2  0  0  0  0
 20 30  1  0  0  0  0
  6 31  1  0  0  0  0
  9 32  1  0  0  0  0
 10 33  1  0  0  0  0
 10 34  1  0  0  0  0
 11 35  1  0  0  0  0
 11 36  1  0  0  0  0
 12 37  1  0  0  0  0
 12 38  1  0  0  0  0
 12 39  1  0  0  0  0
 13 40  1  0  0  0  0
 14 41  1  0  0  0  0
 16 42  1  0  0  0  0
 17 43  1  0  0  0  0
 19 44  1  0  0  0  0
 25 45  1  0  0  0  0
 25 46  1  0  0  0  0
 26 47  1  0  0  0  0
 26 48  1  0  0  0  0
 27 49  1  0  0  0  0
 27 50  1  0  0  0  0
 28 51  1  0  0  0  0
 29 52  1  0  0  0  0
 30 53  1  0  0  0  0
 30 54  1  0  0  0  0
 30 55  1  0  0  0  0
M  END
>  <result-rank>
60

>  <similarity>
0.908

>  <query-name>


>  <query-smiles>
Fc1c(F)ccc(NC(=O)c2nc(cnc2Nc3cncnc3)C4CC4)c1C(=O)N5CCC5

>  <source>
REALspace_2019-12

>  <similarity-descriptor>
0.752;0.998;0.944;0.853;0.880;1.000;0.995;0.853;0.998;0.111

>  <similarity-descriptor-smiles>
CC;N1CCCC1=O;c1ccccc1;N1CCC(Ncc1)=O;c1cnccc1;N;O=C;N1CCC(Ncc1)=O;N1CCCC1=O;C

>  <reaction-name>
s_272164

>  <reagent1-name>
17324116

>  <reagent1-smiles>
[R1*]C(=O)N1c2c(NC(=O)C(C1)CC)ccnc2

>  <reagent2-name>
9374480

>  <reagent2-smiles>
[R1*]Nc1cc(c(N2C(=O)CCC2)cc1)C

$$$$
s_22____14942836____16809432
          04022017343D 1   1.00000     0.00000     0
            
 49 53  0  0  0  0            999 V2000
    6.5153   -2.2833    1.2554 Br  0  0  0  0  0  0  0  0  0  0  0  0
    4.9074   -1.5934    0.3734 C   0  0  0  0  0  0  0  0  0  0  0  0
    4.4854   -2.1351   -0.8397 C   0  0  0  0  0  0  0  0  0  0  0  0
    5.0674   -3.1275   -1.5435 O   0  0  0  0  0  0  0  0  0  0  0  0
    5.8425   -2.7144   -2.6588 C   0  0  0  0  0  0  0  0  0  0  0  0
    4.9537   -2.7624   -3.8904 C   0  0  0  0  0  0  0  0  0  0  0  0
    3.7622   -1.8250   -3.7470 C   0  0  0  0  0  0  0  0  0  0  0  0
    3.0097   -2.2042   -2.6053 O   0  0  0  0  0  0  0  0  0  0  0  0
    3.3455   -1.6299   -1.4326 C   0  0  0  0  0  0  0  0  0  0  0  0
    2.6479   -0.5953   -0.8151 C   0  0  0  0  0  0  0  0  0  0  0  0
    3.0710   -0.0515    0.3929 C   0  0  0  0  0  0  0  0  0  0  0  0
    2.3700    1.0000    1.0000 N   0  0  0  0  0  0  0  0  0  0  0  0
    1.0000    1.0000    1.0000 C   0  0  0  0  0  0  0  0  0  0  0  0
    0.4000   -0.0392    1.0000 O   0  0  0  0  0  0  0  0  0  0  0  0
    0.2757    2.2545    1.0000 C   0  0  0  0  0  0  0  0  0  0  0  0
    0.9366    3.4334    1.4228 C   0  0  0  0  0  0  0  0  0  0  0  0
    2.0797    3.3479    1.8493 O   0  0  0  0  0  0  0  0  0  0  0  0
    0.2435    4.6697    1.3276 C   0  0  0  0  0  0  0  0  0  0  0  0
   -1.0081    4.6929    0.7464 C   0  0  0  0  0  0  0  0  0  0  0  0
   -1.7143    3.5484    0.5140 N   0  0  0  0  0  0  0  0  0  0  0  0
   -1.0292    2.3602    0.5961 C   0  0  0  0  0  0  0  0  0  0  0  0
   -3.1611    3.6171    0.2067 C   0  0  3  0  0  0  0  0  0  0  0  0
   -3.6318    4.9484   -0.3642 C   0  0  0  0  0  0  0  0  0  0  0  0
   -2.6082    5.9417   -0.4088 O   0  0  0  0  0  0  0  0  0  0  0  0
   -1.5375    5.9157    0.4078 C   0  0  0  0  0  0  0  0  0  0  0  0
   -0.9690    7.0907    0.8992 C   0  0  0  0  0  0  0  0  0  0  0  0
   -1.5233    8.2763    0.6584 F   0  0  0  0  0  0  0  0  0  0  0  0
    0.2032    7.0679    1.6411 C   0  0  0  0  0  0  0  0  0  0  0  0
    0.7103    8.1682    2.1913 F   0  0  0  0  0  0  0  0  0  0  0  0
    0.8194    5.8405    1.8073 C   0  0  0  0  0  0  0  0  0  0  0  0
   -3.6375    2.5143   -0.7281 C   0  0  0  0  0  0  0  0  0  0  0  0
    4.2174   -0.5580    0.9960 C   0  0  0  0  0  0  0  0  0  0  0  0
    6.6213   -3.3303   -2.7780 H   0  0  0  0  0  0  0  0  0  0  0  0
    6.1739   -1.7819   -2.5153 H   0  0  0  0  0  0  0  0  0  0  0  0
    4.6203   -3.6968   -4.0158 H   0  0  0  0  0  0  0  0  0  0  0  0
    5.4890   -2.4894   -4.6897 H   0  0  0  0  0  0  0  0  0  0  0  0
    4.0864   -0.8853   -3.6377 H   0  0  0  0  0  0  0  0  0  0  0  0
    3.1873   -1.8866   -4.5629 H   0  0  0  0  0  0  0  0  0  0  0  0
    1.8231   -0.2347   -1.2506 H   0  0  0  0  0  0  0  0  0  0  0  0
    2.8700    1.7500    1.4330 H   0  0  0  0  0  0  0  0  0  0  0  0
   -1.5126    1.5213    0.3457 H   0  0  0  0  0  0  0  0  0  0  0  0
   -3.6449    3.4887    1.0723 H   0  0  0  0  0  0  0  0  0  0  0  0
   -3.9641    4.7942   -1.2947 H   0  0  0  0  0  0  0  0  0  0  0  0
   -4.3800    5.2901    0.2046 H   0  0  0  0  0  0  0  0  0  0  0  0
    1.6979    5.7945    2.2828 H   0  0  0  0  0  0  0  0  0  0  0  0
   -4.6182    2.6183   -0.8938 H   0  0  0  0  0  0  0  0  0  0  0  0
   -3.1444    2.5766   -1.5958 H   0  0  0  0  0  0  0  0  0  0  0  0
   -3.4630    1.6234   -0.3087 H   0  0  0  0  0  0  0  0  0  0  0  0
    4.5412   -0.1833    1.8648 H   0  0  0  0  0  0  0  0  0  0  0  0
  1  2  1  0  0  0  0
  2  3  1  0  0  0  0
  3  4  1  0  0  0  0
  4  5  1  0  0  0  0
  5  6  1  0  0  0  0
  6  7  1  0  0  0  0
  7  8  1  0  0  0  0
  8  9  1  0  0  0  0
  9  3  2  0  0  0  0
  9 10  1  0  0  0  0
 10 11  2  0  0  0  0
 11 12  1  0  0  0  0
 12 13  1  0  0  0  0
 13 14  2  0  0  0  0
 13 15  1  0  0  0  0
 15 16  1  0  0  0  0
 16 17  2  0  0  0  0
 16 18  1  0  0  0  0
 18 19  1  0  0  0  0
 19 20  1  0  0  0  0
 20 21  1  0  0  0  0
 15 21  2  0  0  0  0
 20 22  1  0  0  0  0
 22 23  1  0  0  0  0
 23 24  1  0  0  0  0
 24 25  1  0  0  0  0
 25 19  2  0  0  0  0
 25 26  1  0  0  0  0
 26 27  1  0  0  0  0
 26 28  2  0  0  0  0
 28 29  1  0  0  0  0
 28 30  1  0  0  0  0
 30 18  2  0  0  0  0
 22 31  1  0  0  0  0
 11 32  1  0  0  0  0
 32  2  2  0  0  0  0
  5 33  1  0  0  0  0
  5 34  1  0  0  0  0
  6 35  1  0  0  0  0
  6 36  1  0  0  0  0
  7 37  1  0  0  0  0
  7 38  1  0  0  0  0
 10 39  1  0  0  0  0
 12 40  1  0  0  0  0
 21 41  1  0  0  0  0
 22 42  1  0  0  0  0
 23 43  1  0  0  0  0
 23 44  1  0  0  0  0
 30 45  1  0  0  0  0
 31 46  1  0  0  0  0
 31 47  1  0  0  0  0
 31 48  1  0  0  0  0
 32 49  1  0  0  0  0
M  END
>  <result-rank>
61

>  <similarity>
0.908

>  <query-name>


>  <query-smiles>
Fc1c(F)ccc(NC(=O)c2nc(cnc2Nc3cncnc3)C4CC4)c1C(=O)N5CCC5

>  <source>
REALspace_2019-12

>  <similarity-descriptor>
0.861;0.908;0.994;0.861;0.861;1.000;0.999;0.861;0.908;0.167

>  <similarity-descriptor-smiles>
C1=CN2c3c(C1=O)cc(c(c3OCC2)F)F;c1cOCCCO1;Brc1ccccc1;C1=CN2c3c(C1=O)cc(c(c3OCC2)F)F;C1=CN2c3c(C1=O)cc(c(c3OCC2)F)F;N;C=O;C1=CN2c3c(C1=O)cc(c(c3OCC2)F)F;c1cOCCCO1;C

>  <reaction-name>
s_22

>  <reagent1-name>
14942836

>  <reagent1-smiles>
[R1*]Nc1cc(Br)c2OCCCOc2c1

>  <reagent2-name>
16809432

>  <reagent2-smiles>
[R1*]C(=O)C=1C(=O)c2c3N(C1)C(COc3c(F)c(F)c2)C

$$$$
s_22____17548538____2307488
          04022017343D 1   1.00000     0.00000     0
            
 56 59  0  0  0  0            999 V2000
   -3.8523    2.3918    5.5514 O   0  0  0  0  0  0  0  0  0  0  0  0
   -4.8325    2.4663    4.8272 C   0  0  0  0  0  0  0  0  0  0  0  0
   -4.6901    2.4809    3.4331 N   0  0  0  0  0  0  0  0  0  0  0  0
   -3.4308    2.4090    2.8261 C   0  0  0  0  0  0  0  0  0  0  0  0
   -2.6833    3.5667    2.6369 C   0  0  0  0  0  0  0  0  0  0  0  0
   -1.4318    3.4956    2.0336 C   0  0  0  0  0  0  0  0  0  0  0  0
   -0.9442    2.2579    1.6262 C   0  0  0  0  0  0  0  0  0  0  0  0
    0.3150    2.1863    1.0188 N   0  0  0  0  0  0  0  0  0  0  0  0
    1.0000    1.0000    1.0000 C   0  0  0  0  0  0  0  0  0  0  0  0
    0.4000   -0.0391    0.9835 O   0  0  0  0  0  0  0  0  0  0  0  0
    2.4503    1.0000    1.0000 C   0  0  0  0  0  0  0  0  0  0  0  0
    3.2379    0.4628    1.8973 N   0  0  0  0  0  0  0  0  0  0  0  0
    4.4582    0.6529    1.5902 O   0  0  0  0  0  0  0  0  0  0  0  0
    4.5546    1.3225    0.4689 C   0  0  0  0  0  0  0  0  0  0  0  0
    5.7862    1.7165   -0.1880 C   0  0  0  0  0  0  0  0  0  0  0  0
    7.0270    1.3947    0.3540 C   0  0  0  0  0  0  0  0  0  0  0  0
    7.0992    0.7037    1.5118 O   0  0  0  0  0  0  0  0  0  0  0  0
    8.3652    0.3753    2.0648 C   0  0  0  0  0  0  0  0  0  0  0  0
    8.1931    1.7851   -0.2967 C   0  0  0  0  0  0  0  0  0  0  0  0
    8.1188    2.4971   -1.4897 C   0  0  0  0  0  0  0  0  0  0  0  0
    6.8736    2.8135   -2.0233 C   0  0  0  0  0  0  0  0  0  0  0  0
    6.8014    3.5047   -3.1815 O   0  0  0  0  0  0  0  0  0  0  0  0
    7.9914    3.9032   -3.8459 C   0  0  0  0  0  0  0  0  0  0  0  0
    5.7017    2.4280   -1.3805 C   0  0  0  0  0  0  0  0  0  0  0  0
    3.2930    1.5811    0.0305 C   0  0  0  0  0  0  0  0  0  0  0  0
   -1.6917    1.1002    1.8156 C   0  0  0  0  0  0  0  0  0  0  0  0
   -2.9434    1.1712    2.4186 C   0  0  0  0  0  0  0  0  0  0  0  0
   -5.8790    2.5787    2.5728 C   0  0  0  0  0  0  0  0  0  0  0  0
   -7.0108    3.3194    3.2676 C   0  0  0  0  0  0  0  0  0  0  0  0
   -7.3135    2.6210    4.5840 C   0  0  0  0  0  0  0  0  0  0  0  0
   -6.1027    2.5381    5.4148 N   0  0  0  0  0  0  0  0  0  0  0  0
   -6.2648    2.5264    6.8762 C   0  0  0  0  0  0  0  0  0  0  0  0
   -3.0455    4.4500    2.9346 H   0  0  0  0  0  0  0  0  0  0  0  0
   -0.8892    4.3240    1.8945 H   0  0  0  0  0  0  0  0  0  0  0  0
    0.7145    3.0011    0.5987 H   0  0  0  0  0  0  0  0  0  0  0  0
    8.2354   -0.1330    2.9162 H   0  0  0  0  0  0  0  0  0  0  0  0
    8.8769   -0.1872    1.4154 H   0  0  0  0  0  0  0  0  0  0  0  0
    8.8750    1.2150    2.2524 H   0  0  0  0  0  0  0  0  0  0  0  0
    9.0845    1.5540    0.0931 H   0  0  0  0  0  0  0  0  0  0  0  0
    8.9547    2.7794   -1.9603 H   0  0  0  0  0  0  0  0  0  0  0  0
    7.7564    4.4011   -4.6807 H   0  0  0  0  0  0  0  0  0  0  0  0
    8.5269    4.4956   -3.2440 H   0  0  0  0  0  0  0  0  0  0  0  0
    8.5291    3.0934   -4.0809 H   0  0  0  0  0  0  0  0  0  0  0  0
    4.8104    2.6593   -1.7704 H   0  0  0  0  0  0  0  0  0  0  0  0
    3.0231    2.0743   -0.7965 H   0  0  0  0  0  0  0  0  0  0  0  0
   -1.3294    0.2168    1.5183 H   0  0  0  0  0  0  0  0  0  0  0  0
   -3.4861    0.3428    2.5575 H   0  0  0  0  0  0  0  0  0  0  0  0
   -6.1885    1.6567    2.3404 H   0  0  0  0  0  0  0  0  0  0  0  0
   -5.6351    3.0692    1.7362 H   0  0  0  0  0  0  0  0  0  0  0  0
   -7.8249    3.3110    2.6870 H   0  0  0  0  0  0  0  0  0  0  0  0
   -6.7365    4.2648    3.4434 H   0  0  0  0  0  0  0  0  0  0  0  0
   -8.0153    3.1363    5.0759 H   0  0  0  0  0  0  0  0  0  0  0  0
   -7.6479    1.6973    4.3969 H   0  0  0  0  0  0  0  0  0  0  0  0
   -7.2367    2.5847    7.1042 H   0  0  0  0  0  0  0  0  0  0  0  0
   -5.8857    1.6786    7.2468 H   0  0  0  0  0  0  0  0  0  0  0  0
   -5.7823    3.3081    7.2713 H   0  0  0  0  0  0  0  0  0  0  0  0
  1  2  2  0  0  0  0
  2  3  1  0  0  0  0
  3  4  1  0  0  0  0
  4  5  1  0  0  0  0
  5  6  2  0  0  0  0
  6  7  1  0  0  0  0
  7  8  1  0  0  0  0
  8  9  1  0  0  0  0
  9 10  2  0  0  0  0
  9 11  1  0  0  0  0
 11 12  2  0  0  0  0
 12 13  1  0  0  0  0
 13 14  1  0  0  0  0
 14 15  1  0  0  0  0
 15 16  1  0  0  0  0
 16 17  1  0  0  0  0
 17 18  1  0  0  0  0
 16 19  2  0  0  0  0
 19 20  1  0  0  0  0
 20 21  2  0  0  0  0
 21 22  1  0  0  0  0
 22 23  1  0  0  0  0
 21 24  1  0  0  0  0
 24 15  2  0  0  0  0
 14 25  2  0  0  0  0
 25 11  1  0  0  0  0
  7 26  2  0  0  0  0
 26 27  1  0  0  0  0
 27  4  2  0  0  0  0
  3 28  1  0  0  0  0
 28 29  1  0  0  0  0
 29 30  1  0  0  0  0
 30 31  1  0  0  0  0
 31  2  1  0  0  0  0
 31 32  1  0  0  0  0
  5 33  1  0  0  0  0
  6 34  1  0  0  0  0
  8 35  1  0  0  0  0
 18 36  1  0  0  0  0
 18 37  1  0  0  0  0
 18 38  1  0  0  0  0
 19 39  1  0  0  0  0
 20 40  1  0  0  0  0
 23 41  1  0  0  0  0
 23 42  1  0  0  0  0
 23 43  1  0  0  0  0
 24 44  1  0  0  0  0
 25 45  1  0  0  0  0
 26 46  1  0  0  0  0
 27 47  1  0  0  0  0
 28 48  1  0  0  0  0
 28 49  1  0  0  0  0
 29 50  1  0  0  0  0
 29 51  1  0  0  0  0
 30 52  1  0  0  0  0
 30 53  1  0  0  0  0
 32 54  1  0  0  0  0
 32 55  1  0  0  0  0
 32 56  1  0  0  0  0
M  END
>  <result-rank>
62

>  <similarity>
0.907

>  <query-name>


>  <query-smiles>
Fc1c(F)ccc(NC(=O)c2nc(cnc2Nc3cncnc3)C4CC4)c1C(=O)N5CCC5

>  <source>
REALspace_2019-12

>  <similarity-descriptor>
0.0;0.992;0.928;0.852;0.933;1.000;0.999;0.852;0.992;0.273

>  <similarity-descriptor-smiles>
;O=C1NCCCN1;c1ccccc1;C=1C=CON1;c1cc(ccc1O)O;N;C=O;C=1C=CON1;O=C1NCCCN1;C.C.C

>  <reaction-name>
s_22

>  <reagent1-name>
17548538

>  <reagent1-smiles>
[R1*]Nc1ccc(N2C(=O)N(CCC2)C)cc1

>  <reagent2-name>
2307488

>  <reagent2-smiles>
[R1*]C(=O)C1=NOC(c2c(OC)ccc(OC)c2)=C1

$$$$
s_22____14942836____14559794
          04022017343D 1   1.00000     0.00000     0
            
 45 48  0  0  0  0            999 V2000
   -5.2891   -0.5487    5.2897 Br  0  0  0  0  0  0  0  0  0  0  0  0
   -3.3493   -0.6048    5.0193 C   0  0  0  0  0  0  0  0  0  0  0  0
   -2.5350   -1.2914    5.9185 C   0  0  0  0  0  0  0  0  0  0  0  0
   -2.9155   -1.9619    7.0252 O   0  0  0  0  0  0  0  0  0  0  0  0
   -2.7129   -1.2806    8.2541 C   0  0  0  0  0  0  0  0  0  0  0  0
   -1.3677   -1.7132    8.8132 C   0  0  0  0  0  0  0  0  0  0  0  0
   -0.2344   -1.3552    7.8613 C   0  0  0  0  0  0  0  0  0  0  0  0
   -0.4570   -1.9959    6.6149 O   0  0  0  0  0  0  0  0  0  0  0  0
   -1.1726   -1.3161    5.6965 C   0  0  0  0  0  0  0  0  0  0  0  0
   -0.6423   -0.6568    4.5909 C   0  0  0  0  0  0  0  0  0  0  0  0
   -1.4537    0.0322    3.6959 C   0  0  0  0  0  0  0  0  0  0  0  0
   -0.9090    0.7053    2.5933 N   0  0  0  0  0  0  0  0  0  0  0  0
    0.1103    0.1347    1.8775 C   0  0  0  0  0  0  0  0  0  0  0  0
    0.3006   -1.0483    1.9433 O   0  0  0  0  0  0  0  0  0  0  0  0
    1.0000    1.0000    1.0000 C   0  0  0  0  0  0  0  0  0  0  0  0
    1.8725    1.8725    1.8725 C   0  0  0  0  0  0  0  0  0  0  0  0
    1.5047    3.1176    2.2943 N   0  0  0  0  0  0  0  0  0  0  0  0
    2.3902    3.7362    3.0439 C   0  0  0  0  0  0  0  0  0  0  0  0
    3.7213    2.6921    3.2037 S   0  0  0  0  0  0  0  0  0  0  0  0
    3.0904    1.4144    2.2671 C   0  0  0  0  0  0  0  0  0  0  0  0
    2.3098    5.0027    3.6197 N   0  0  0  0  0  0  0  0  0  0  0  0
    1.1662    5.7877    3.4279 C   0  0  0  0  0  0  0  0  0  0  0  0
    0.1311    5.3496    2.6955 N   0  0  0  0  0  0  0  0  0  0  0  0
   -0.9650    6.0997    2.5110 C   0  0  0  0  0  0  0  0  0  0  0  0
   -1.0675    7.3674    3.0754 C   0  0  0  0  0  0  0  0  0  0  0  0
   -2.5133    8.3812    2.8430 Cl  0  0  0  0  0  0  0  0  0  0  0  0
   -0.0026    7.8379    3.8371 C   0  0  0  0  0  0  0  0  0  0  0  0
    1.1267    7.0466    4.0189 C   0  0  0  0  0  0  0  0  0  0  0  0
   -2.8273    0.0585    3.9133 C   0  0  0  0  0  0  0  0  0  0  0  0
   -3.4403   -1.5179    8.8978 H   0  0  0  0  0  0  0  0  0  0  0  0
   -2.7142   -0.2927    8.0988 H   0  0  0  0  0  0  0  0  0  0  0  0
   -1.3758   -2.7034    8.9529 H   0  0  0  0  0  0  0  0  0  0  0  0
   -1.2156   -1.2543    9.6885 H   0  0  0  0  0  0  0  0  0  0  0  0
   -0.2084   -0.3644    7.7288 H   0  0  0  0  0  0  0  0  0  0  0  0
    0.6359   -1.6631    8.2457 H   0  0  0  0  0  0  0  0  0  0  0  0
    0.3455   -0.6792    4.4367 H   0  0  0  0  0  0  0  0  0  0  0  0
   -1.2645    1.6020    2.3293 H   0  0  0  0  0  0  0  0  0  0  0  0
    0.4307    1.5773    0.4146 H   0  0  0  0  0  0  0  0  0  0  0  0
    1.5773    0.4146    0.4307 H   0  0  0  0  0  0  0  0  0  0  0  0
    3.5163    0.5343    2.0571 H   0  0  0  0  0  0  0  0  0  0  0  0
    3.0688    5.3510    4.1699 H   0  0  0  0  0  0  0  0  0  0  0  0
   -1.7195    5.7430    1.9601 H   0  0  0  0  0  0  0  0  0  0  0  0
   -0.0491    8.7456    4.2541 H   0  0  0  0  0  0  0  0  0  0  0  0
    1.8967    7.3768    4.5649 H   0  0  0  0  0  0  0  0  0  0  0  0
   -3.4311    0.5473    3.2835 H   0  0  0  0  0  0  0  0  0  0  0  0
  1  2  1  0  0  0  0
  2  3  1  0  0  0  0
  3  4  1  0  0  0  0
  4  5  1  0  0  0  0
  5  6  1  0  0  0  0
  6  7  1  0  0  0  0
  7  8  1  0  0  0  0
  8  9  1  0  0  0  0
  9  3  2  0  0  0  0
  9 10  1  0  0  0  0
 10 11  2  0  0  0  0
 11 12  1  0  0  0  0
 12 13  1  0  0  0  0
 13 14  2  0  0  0  0
 13 15  1  0  0  0  0
 15 16  1  0  0  0  0
 16 17  1  0  0  0  0
 17 18  2  0  0  0  0
 18 19  1  0  0  0  0
 19 20  1  0  0  0  0
 16 20  2  0  0  0  0
 18 21  1  0  0  0  0
 21 22  1  0  0  0  0
 22 23  1  0  0  0  0
 23 24  2  0  0  0  0
 24 25  1  0  0  0  0
 25 26  1  0  0  0  0
 25 27  2  0  0  0  0
 27 28  1  0  0  0  0
 28 22  2  0  0  0  0
 11 29  1  0  0  0  0
 29  2  2  0  0  0  0
  5 30  1  0  0  0  0
  5 31  1  0  0  0  0
  6 32  1  0  0  0  0
  6 33  1  0  0  0  0
  7 34  1  0  0  0  0
  7 35  1  0  0  0  0
 10 36  1  0  0  0  0
 12 37  1  0  0  0  0
 15 38  1  0  0  0  0
 15 39  1  0  0  0  0
 20 40  1  0  0  0  0
 21 41  1  0  0  0  0
 24 42  1  0  0  0  0
 27 43  1  0  0  0  0
 28 44  1  0  0  0  0
 29 45  1  0  0  0  0
M  END
>  <result-rank>
63

>  <similarity>
0.907

>  <query-name>


>  <query-smiles>
Fc1c(F)ccc(NC(=O)c2nc(cnc2Nc3cncnc3)C4CC4)c1C(=O)N5CCC5

>  <source>
REALspace_2019-12

>  <similarity-descriptor>
0.0;0.908;0.994;0.907;0.867;1.000;0.861;1.000;0.908;0.0

>  <similarity-descriptor-smiles>
;c1cOCCCO1;Brc1ccccc1;C1=CSC=N1;c1ccc(cn1)Cl;N;C(=O)C;N;c1cOCCCO1;

>  <reaction-name>
s_22

>  <reagent1-name>
14942836

>  <reagent1-smiles>
[R1*]Nc1cc(Br)c2OCCCOc2c1

>  <reagent2-name>
14559794

>  <reagent2-smiles>
[R1*]C(=O)CC=1N=C(SC1)Nc2ncc(Cl)cc2

$$$$
s_274090____12937292____14418166
          04022017343D 1   1.00000     0.00000     0
            
 45 48  0  0  0  0            999 V2000
    0.8770    5.7033    2.3119 Cl  0  0  0  0  0  0  0  0  0  0  0  0
    2.0079    4.9491    3.4610 C   0  0  0  0  0  0  0  0  0  0  0  0
    2.1119    3.5650    3.5650 C   0  0  0  0  0  0  0  0  0  0  0  0
    1.3043    2.7574    2.7574 N   0  0  0  0  0  0  0  0  0  0  0  0
    1.8776    1.8776    1.8776 C   0  0  0  0  0  0  0  0  0  0  0  0
    3.0725    1.7997    1.7997 O   0  0  0  0  0  0  0  0  0  0  0  0
    1.0000    1.0000    1.0000 C   0  0  0  0  0  0  0  0  0  0  0  0
    0.7171    1.6970   -0.2628 N   0  0  0  0  0  0  0  0  0  0  0  0
    1.2589    1.4257   -1.4245 N   0  0  0  0  0  0  0  0  0  0  0  0
    0.8207    2.1903   -2.3292 N   0  0  0  0  0  0  0  0  0  0  0  0
   -0.0738    3.0364   -1.7485 C   0  0  0  0  0  0  0  0  0  0  0  0
   -0.8194    4.0814   -2.4232 C   0  0  0  0  0  0  0  0  0  0  0  0
   -0.6665    5.3524   -2.0237 N   0  0  0  0  0  0  0  0  0  0  0  0
   -1.3288    6.3620   -2.6082 C   0  0  0  0  0  0  0  0  0  0  0  0
   -2.1981    6.0820   -3.6580 C   0  0  0  0  0  0  0  0  0  0  0  0
   -2.3509    4.8106   -4.0578 N   0  0  0  0  0  0  0  0  0  0  0  0
   -1.6889    3.8017   -3.4732 C   0  0  0  0  0  0  0  0  0  0  0  0
   -1.9092    2.3841   -3.9766 C   0  0  0  0  0  0  0  0  0  0  0  0
   -0.1504    2.7292   -0.4247 C   0  0  0  0  0  0  0  0  0  0  0  0
    3.0073    3.0004    4.4666 C   0  0  0  0  0  0  0  0  0  0  0  0
    3.7931    3.8085    5.2813 C   0  0  0  0  0  0  0  0  0  0  0  0
    4.6522    3.2108    6.1410 O   0  0  0  0  0  0  0  0  0  0  0  0
    5.8981    3.7994    6.4970 C   0  0  0  0  0  0  0  0  0  0  0  0
    5.7204    4.8465    7.5867 C   0  0  0  0  0  0  0  0  0  0  0  0
    4.5033    5.7229    7.3328 C   0  0  0  0  0  0  0  0  0  0  0  0
    4.3546    6.0535    5.9577 O   0  0  0  0  0  0  0  0  0  0  0  0
    3.6633    5.1941    5.1785 C   0  0  0  0  0  0  0  0  0  0  0  0
    2.7914    5.7701    4.2643 C   0  0  0  0  0  0  0  0  0  0  0  0
    0.3085    2.8223    2.8223 H   0  0  0  0  0  0  0  0  0  0  0  0
    1.4742    0.1409    0.8075 H   0  0  0  0  0  0  0  0  0  0  0  0
    0.1409    0.8075    1.4742 H   0  0  0  0  0  0  0  0  0  0  0  0
   -1.1997    7.3025   -2.2939 H   0  0  0  0  0  0  0  0  0  0  0  0
   -2.7023    6.8188   -4.1086 H   0  0  0  0  0  0  0  0  0  0  0  0
   -1.3491    1.7502   -3.4433 H   0  0  0  0  0  0  0  0  0  0  0  0
   -2.8741    2.1412   -3.8769 H   0  0  0  0  0  0  0  0  0  0  0  0
   -1.6494    2.3285   -4.9406 H   0  0  0  0  0  0  0  0  0  0  0  0
   -0.7186    3.1659    0.2728 H   0  0  0  0  0  0  0  0  0  0  0  0
    3.0867    2.0056    4.5298 H   0  0  0  0  0  0  0  0  0  0  0  0
    6.2964    4.2337    5.6891 H   0  0  0  0  0  0  0  0  0  0  0  0
    6.5136    3.0846    6.8288 H   0  0  0  0  0  0  0  0  0  0  0  0
    5.6085    4.3834    8.4658 H   0  0  0  0  0  0  0  0  0  0  0  0
    6.5356    5.4250    7.6161 H   0  0  0  0  0  0  0  0  0  0  0  0
    3.6856    5.2337    7.6363 H   0  0  0  0  0  0  0  0  0  0  0  0
    4.6002    6.5682    7.8583 H   0  0  0  0  0  0  0  0  0  0  0  0
    2.7277    6.7649    4.1844 H   0  0  0  0  0  0  0  0  0  0  0  0
  1  2  1  0  0  0  0
  2  3  1  0  0  0  0
  3  4  1  0  0  0  0
  4  5  1  0  0  0  0
  5  6  2  0  0  0  0
  5  7  1  0  0  0  0
  7  8  1  0  0  0  0
  8  9  1  0  0  0  0
  9 10  2  0  0  0  0
 10 11  1  0  0  0  0
 11 12  1  0  0  0  0
 12 13  1  0  0  0  0
 13 14  2  0  0  0  0
 14 15  1  0  0  0  0
 15 16  2  0  0  0  0
 16 17  1  0  0  0  0
 17 12  2  0  0  0  0
 17 18  1  0  0  0  0
 11 19  2  0  0  0  0
 19  8  1  0  0  0  0
  3 20  2  0  0  0  0
 20 21  1  0  0  0  0
 21 22  1  0  0  0  0
 22 23  1  0  0  0  0
 23 24  1  0  0  0  0
 24 25  1  0  0  0  0
 25 26  1  0  0  0  0
 26 27  1  0  0  0  0
 27 21  2  0  0  0  0
 27 28  1  0  0  0  0
 28  2  2  0  0  0  0
  4 29  1  0  0  0  0
  7 30  1  0  0  0  0
  7 31  1  0  0  0  0
 14 32  1  0  0  0  0
 15 33  1  0  0  0  0
 18 34  1  0  0  0  0
 18 35  1  0  0  0  0
 18 36  1  0  0  0  0
 19 37  1  0  0  0  0
 20 38  1  0  0  0  0
 23 39  1  0  0  0  0
 23 40  1  0  0  0  0
 24 41  1  0  0  0  0
 24 42  1  0  0  0  0
 25 43  1  0  0  0  0
 25 44  1  0  0  0  0
 28 45  1  0  0  0  0
M  END
>  <result-rank>
64

>  <similarity>
0.907

>  <query-name>


>  <query-smiles>
Fc1c(F)ccc(NC(=O)c2nc(cnc2Nc3cncnc3)C4CC4)c1C(=O)N5CCC5

>  <source>
REALspace_2019-12

>  <similarity-descriptor>
0.0;0.908;0.985;0.891;0.879;1.000;1.000;0.879;0.908;0.125

>  <similarity-descriptor-smiles>
;c1cOCCCO1;Clc1ccccc1;CN1C=CN=N1;c1cnccn1;N;C=O;c1cnccn1;c1cOCCCO1;C

>  <reaction-name>
s_274090

>  <reagent1-name>
12937292

>  <reagent1-smiles>
[R1*]N=NN([R2*])CC(=O)Nc1c(Cl)cc2OCCCOc2c1

>  <reagent2-name>
14418166

>  <reagent2-smiles>
[R1*]C(c1nccnc1C)=C[R2*]

$$$$
s_22____127815____7873282
          04022017343D 1   1.00000     0.00000     0
            
 53 57  0  0  0  0            999 V2000
    0.4000    2.0392    1.0033 O   0  0  0  0  0  0  0  0  0  0  0  0
    1.0000    1.0000    1.0000 C   0  0  0  0  0  0  0  0  0  0  0  0
    0.3150   -0.1864    0.9962 N   0  0  0  0  0  0  0  0  0  0  0  0
   -1.0805   -0.1891    1.1019 C   0  0  0  0  0  0  0  0  0  0  0  0
   -1.6952   -1.1581    1.8883 C   0  0  0  0  0  0  0  0  0  0  0  0
   -3.0822   -1.1601    1.9927 C   0  0  0  0  0  0  0  0  0  0  0  0
   -3.7195   -2.1271    2.7797 N   0  0  0  0  0  0  0  0  0  0  0  0
   -4.4184   -3.2239    2.2850 C   0  0  0  0  0  0  0  0  0  0  0  0
   -4.5844   -3.5020    1.1095 O   0  0  0  0  0  0  0  0  0  0  0  0
   -4.9442   -4.0011    3.4745 C   0  0  0  0  0  0  0  0  0  0  0  0
   -4.9958   -2.9323    4.5471 C   0  0  0  0  0  0  0  0  0  0  0  0
   -3.7508   -2.1270    4.2431 C   0  0  0  0  0  0  0  0  0  0  0  0
   -3.8511   -0.2129    1.3244 C   0  0  0  0  0  0  0  0  0  0  0  0
   -3.2150    0.7461    0.5436 C   0  0  0  0  0  0  0  0  0  0  0  0
   -1.8295    0.7673    0.4245 C   0  0  0  0  0  0  0  0  0  0  0  0
    2.4502    1.0000    1.0000 C   0  0  0  0  0  0  0  0  0  0  0  0
    3.1559   -0.1424    0.9964 N   0  0  0  0  0  0  0  0  0  0  0  0
    4.4987   -0.1510    0.9963 C   0  0  0  0  0  0  0  0  0  0  0  0
    5.2029    1.0511    0.9994 C   0  0  0  0  0  0  0  0  0  0  0  0
    4.4898    2.2484    1.0032 C   0  0  0  0  0  0  0  0  0  0  0  0
    5.1038    3.4519    1.0066 O   0  0  0  0  0  0  0  0  0  0  0  0
    4.3311    4.6432    1.0104 C   0  0  0  0  0  0  0  0  0  0  0  0
    5.2581    5.8486    1.0138 C   0  0  0  0  0  0  0  0  0  0  0  0
    6.1408    5.8511   -0.2000 C   0  0  0  0  0  0  0  0  0  0  0  0
    6.7034    5.4603    1.1365 C   0  0  0  0  0  0  0  0  0  0  0  0
    3.0992    2.2298    1.0035 C   0  0  0  0  0  0  0  0  0  0  0  0
    6.5959    1.0234    0.9998 C   0  0  0  0  0  0  0  0  0  0  0  0
    7.3075   -0.1710    0.9963 C   0  0  0  0  0  0  0  0  0  0  0  0
    6.5973   -1.3665    0.9924 C   0  0  0  0  0  0  0  0  0  0  0  0
    5.2063   -1.3490    0.9928 C   0  0  0  0  0  0  0  0  0  0  0  0
    0.8121   -1.0506    0.9180 H   0  0  0  0  0  0  0  0  0  0  0  0
   -1.1485   -1.8423    2.3709 H   0  0  0  0  0  0  0  0  0  0  0  0
   -4.3224   -4.7419    3.7287 H   0  0  0  0  0  0  0  0  0  0  0  0
   -5.8527   -4.3766    3.2910 H   0  0  0  0  0  0  0  0  0  0  0  0
   -5.8205   -2.3727    4.4640 H   0  0  0  0  0  0  0  0  0  0  0  0
   -4.9557   -3.3329    5.4624 H   0  0  0  0  0  0  0  0  0  0  0  0
   -3.8259   -1.1968    4.6025 H   0  0  0  0  0  0  0  0  0  0  0  0
   -2.9358   -2.5658    4.6216 H   0  0  0  0  0  0  0  0  0  0  0  0
   -4.8479   -0.2214    1.4043 H   0  0  0  0  0  0  0  0  0  0  0  0
   -3.7617    1.4303    0.0609 H   0  0  0  0  0  0  0  0  0  0  0  0
   -1.3789    1.4593   -0.1395 H   0  0  0  0  0  0  0  0  0  0  0  0
    3.7544    4.6639    1.8271 H   0  0  0  0  0  0  0  0  0  0  0  0
    3.7540    4.6688    0.1941 H   0  0  0  0  0  0  0  0  0  0  0  0
    4.9429    6.7156    1.3997 H   0  0  0  0  0  0  0  0  0  0  0  0
    6.4090    6.7175   -0.6213 H   0  0  0  0  0  0  0  0  0  0  0  0
    6.0150    5.1594   -0.9111 H   0  0  0  0  0  0  0  0  0  0  0  0
    6.9520    4.5083    1.3154 H   0  0  0  0  0  0  0  0  0  0  0  0
    7.3460    6.0664    1.6052 H   0  0  0  0  0  0  0  0  0  0  0  0
    2.5771    3.0827    1.0062 H   0  0  0  0  0  0  0  0  0  0  0  0
    7.0986    1.8879    1.0027 H   0  0  0  0  0  0  0  0  0  0  0  0
    8.3075   -0.1704    0.9966 H   0  0  0  0  0  0  0  0  0  0  0  0
    7.0864   -2.2387    0.9892 H   0  0  0  0  0  0  0  0  0  0  0  0
    4.7051   -2.2143    0.9906 H   0  0  0  0  0  0  0  0  0  0  0  0
  1  2  2  0  0  0  0
  2  3  1  0  0  0  0
  3  4  1  0  0  0  0
  4  5  1  0  0  0  0
  5  6  2  0  0  0  0
  6  7  1  0  0  0  0
  7  8  1  0  0  0  0
  8  9  2  0  0  0  0
  8 10  1  0  0  0  0
 10 11  1  0  0  0  0
 11 12  1  0  0  0  0
 12  7  1  0  0  0  0
  6 13  1  0  0  0  0
 13 14  2  0  0  0  0
 14 15  1  0  0  0  0
 15  4  2  0  0  0  0
  2 16  1  0  0  0  0
 16 17  1  0  0  0  0
 17 18  2  0  0  0  0
 18 19  1  0  0  0  0
 19 20  2  0  0  0  0
 20 21  1  0  0  0  0
 21 22  1  0  0  0  0
 22 23  1  0  0  0  0
 23 24  1  0  0  0  0
 24 25  1  0  0  0  0
 25 23  1  0  0  0  0
 20 26  1  0  0  0  0
 26 16  2  0  0  0  0
 19 27  1  0  0  0  0
 27 28  2  0  0  0  0
 28 29  1  0  0  0  0
 29 30  2  0  0  0  0
 30 18  1  0  0  0  0
  3 31  1  0  0  0  0
  5 32  1  0  0  0  0
 10 33  1  0  0  0  0
 10 34  1  0  0  0  0
 11 35  1  0  0  0  0
 11 36  1  0  0  0  0
 12 37  1  0  0  0  0
 12 38  1  0  0  0  0
 13 39  1  0  0  0  0
 14 40  1  0  0  0  0
 15 41  1  0  0  0  0
 22 42  1  0  0  0  0
 22 43  1  0  0  0  0
 23 44  1  0  0  0  0
 24 45  1  0  0  0  0
 24 46  1  0  0  0  0
 25 47  1  0  0  0  0
 25 48  1  0  0  0  0
 26 49  1  0  0  0  0
 27 50  1  0  0  0  0
 28 51  1  0  0  0  0
 29 52  1  0  0  0  0
 30 53  1  0  0  0  0
M  END
>  <result-rank>
65

>  <similarity>
0.907

>  <query-name>


>  <query-smiles>
Fc1c(F)ccc(NC(=O)c2nc(cnc2Nc3cncnc3)C4CC4)c1C(=O)N5CCC5

>  <source>
REALspace_2019-12

>  <similarity-descriptor>
1.000;0.998;0.928;0.909;0.697;1.000;1.000;0.697;0.998;0.0

>  <similarity-descriptor-smiles>
C1CC1;N1CCCC1=O;c1ccccc1;c1cc(ccn1)OC;c1ccccc1;N;O=C;c1ccccc1;N1CCCC1=O;

>  <reaction-name>
s_22

>  <reagent1-name>
127815

>  <reagent1-smiles>
[R1*]Nc1cc(N2C(=O)CCC2)ccc1

>  <reagent2-name>
7873282

>  <reagent2-smiles>
[R1*]C(=O)c1nc2c(c(OCC3CC3)c1)cccc2

$$$$
s_22____10707108____903526
          04022017343D 1   1.00000     0.00000     0
            
 49 51  0  0  0  0            999 V2000
    1.8038    0.1417   -1.8619 Cl  0  0  0  0  0  0  0  0  0  0  0  0
    2.9107   -0.6606   -0.7218 C   0  0  0  0  0  0  0  0  0  0  0  0
    3.0951   -0.1802    0.5705 C   0  0  0  0  0  0  0  0  0  0  0  0
    3.9380   -0.8123    1.4000 N   0  0  0  0  0  0  0  0  0  0  0  0
    4.6133   -1.9041    1.0111 C   0  0  0  0  0  0  0  0  0  0  0  0
    4.4513   -2.3863   -0.2302 N   0  0  0  0  0  0  0  0  0  0  0  0
    3.6214   -1.7936   -1.1005 C   0  0  0  0  0  0  0  0  0  0  0  0
    5.4911   -2.5572    1.8834 N   0  0  0  0  0  0  0  0  0  0  0  0
    6.2200   -3.7521    1.4343 C   0  0  0  0  0  0  0  0  0  0  0  0
    7.5488   -3.3343    0.8172 C   0  0  0  0  0  0  0  0  0  0  0  0
    7.7597   -3.0480   -0.4475 O   0  0  0  0  0  0  0  0  0  0  0  0
    9.0195   -2.7261   -0.6462 C   0  0  0  0  0  0  0  0  0  0  0  0
    9.6691   -2.8105    0.5485 C   0  0  0  0  0  0  0  0  0  0  0  0
    8.7128   -3.2098    1.5108 C   0  0  0  0  0  0  0  0  0  0  0  0
    2.3700    1.0000    1.0000 C   0  0  0  0  0  0  0  0  0  0  0  0
    2.9700    1.9766    1.3554 O   0  0  0  0  0  0  0  0  0  0  0  0
    1.0000    1.0000    1.0000 N   0  0  0  0  0  0  0  0  0  0  0  0
    0.3002    2.2120    1.0000 C   0  0  0  0  0  0  0  0  0  0  0  0
    0.7640    3.2663    0.2206 C   0  0  0  0  0  0  0  0  0  0  0  0
    0.0585    4.4648    0.2300 C   0  0  0  0  0  0  0  0  0  0  0  0
    0.4863    5.4836   -0.5097 F   0  0  0  0  0  0  0  0  0  0  0  0
   -1.0894    4.6166    1.0009 C   0  0  0  0  0  0  0  0  0  0  0  0
   -1.9503    6.1290    0.9914 S   0  0  0  0  0  0  0  0  0  0  0  0
   -1.3172    6.8250    2.5376 C   0  0  0  0  0  0  0  0  0  0  0  0
   -2.2203    6.4095    3.6875 C   0  0  0  0  0  0  0  0  0  0  0  0
    0.0905    6.3086    2.7868 C   0  0  0  0  0  0  0  0  0  0  0  0
   -1.2902    8.3414    2.4371 C   0  0  0  0  0  0  0  0  0  0  0  0
   -1.5314    3.5469    1.7712 C   0  0  0  0  0  0  0  0  0  0  0  0
   -2.6284    3.6827    2.5111 F   0  0  0  0  0  0  0  0  0  0  0  0
   -0.8445    2.3374    1.7793 C   0  0  0  0  0  0  0  0  0  0  0  0
    3.5136   -2.1666   -2.0220 H   0  0  0  0  0  0  0  0  0  0  0  0
    5.6225   -2.2111    2.8123 H   0  0  0  0  0  0  0  0  0  0  0  0
    5.6742   -4.2388    0.7522 H   0  0  0  0  0  0  0  0  0  0  0  0
    6.3895   -4.3525    2.2158 H   0  0  0  0  0  0  0  0  0  0  0  0
    9.4287   -2.4652   -1.5206 H   0  0  0  0  0  0  0  0  0  0  0  0
   10.6378   -2.6253    0.7135 H   0  0  0  0  0  0  0  0  0  0  0  0
    8.8598   -3.3664    2.4874 H   0  0  0  0  0  0  0  0  0  0  0  0
    0.5000    0.1340    1.0000 H   0  0  0  0  0  0  0  0  0  0  0  0
    1.5888    3.1647   -0.3357 H   0  0  0  0  0  0  0  0  0  0  0  0
   -1.8705    6.7940    4.5418 H   0  0  0  0  0  0  0  0  0  0  0  0
   -3.1464    6.7492    3.5236 H   0  0  0  0  0  0  0  0  0  0  0  0
   -2.2380    5.4118    3.7536 H   0  0  0  0  0  0  0  0  0  0  0  0
    0.4403    6.6931    3.6410 H   0  0  0  0  0  0  0  0  0  0  0  0
    0.0727    5.3110    2.8529 H   0  0  0  0  0  0  0  0  0  0  0  0
    0.6846    6.5820    2.0303 H   0  0  0  0  0  0  0  0  0  0  0  0
   -0.9405    8.7260    3.2913 H   0  0  0  0  0  0  0  0  0  0  0  0
   -0.6961    8.6148    1.6806 H   0  0  0  0  0  0  0  0  0  0  0  0
   -2.2164    8.6812    2.2731 H   0  0  0  0  0  0  0  0  0  0  0  0
   -1.1680    1.5719    2.3355 H   0  0  0  0  0  0  0  0  0  0  0  0
  1  2  1  0  0  0  0
  2  3  1  0  0  0  0
  3  4  2  0  0  0  0
  4  5  1  0  0  0  0
  5  6  2  0  0  0  0
  6  7  1  0  0  0  0
  7  2  2  0  0  0  0
  5  8  1  0  0  0  0
  8  9  1  0  0  0  0
  9 10  1  0  0  0  0
 10 11  1  0  0  0  0
 11 12  1  0  0  0  0
 12 13  2  0  0  0  0
 13 14  1  0  0  0  0
 10 14  2  0  0  0  0
  3 15  1  0  0  0  0
 15 16  2  0  0  0  0
 15 17  1  0  0  0  0
 17 18  1  0  0  0  0
 18 19  1  0  0  0  0
 19 20  2  0  0  0  0
 20 21  1  0  0  0  0
 20 22  1  0  0  0  0
 22 23  1  0  0  0  0
 23 24  1  0  0  0  0
 24 25  1  0  0  0  0
 24 26  1  0  0  0  0
 24 27  1  0  0  0  0
 22 28  2  0  0  0  0
 28 29  1  0  0  0  0
 28 30  1  0  0  0  0
 30 18  2  0  0  0  0
  7 31  1  0  0  0  0
  8 32  1  0  0  0  0
  9 33  1  0  0  0  0
  9 34  1  0  0  0  0
 12 35  1  0  0  0  0
 13 36  1  0  0  0  0
 14 37  1  0  0  0  0
 17 38  1  0  0  0  0
 19 39  1  0  0  0  0
 25 40  1  0  0  0  0
 25 41  1  0  0  0  0
 25 42  1  0  0  0  0
 26 43  1  0  0  0  0
 26 44  1  0  0  0  0
 26 45  1  0  0  0  0
 27 46  1  0  0  0  0
 27 47  1  0  0  0  0
 27 48  1  0  0  0  0
 30 49  1  0  0  0  0
M  END
>  <result-rank>
66

>  <similarity>
0.907

>  <query-name>


>  <query-smiles>
Fc1c(F)ccc(NC(=O)c2nc(cnc2Nc3cncnc3)C4CC4)c1C(=O)N5CCC5

>  <source>
REALspace_2019-12

>  <similarity-descriptor>
0.0;0.869;0.999;0.957;0.880;1.000;1.000;1.000;0.425;0.0

>  <similarity-descriptor-smiles>
;C(C)(C)C;c1cc(cc(c1)F)F;Clc1cncnc1;CC1=CC=CO1;N;C=O;N;S;

>  <reaction-name>
s_22

>  <reagent1-name>
10707108

>  <reagent1-smiles>
[R1*]Nc1cc(F)c(SC(C)(C)C)c(F)c1

>  <reagent2-name>
903526

>  <reagent2-smiles>
[R1*]C(=O)c1nc(ncc1Cl)NCC=2OC=CC2

$$$$
s_2430a____740276____15752898
          04022017343D 1   1.00000     0.00000     0
            
 47 50  0  0  0  0            999 V2000
    5.1601    0.6807   -0.0278 Cl  0  0  0  0  0  0  0  0  0  0  0  0
    4.3809   -0.3145    1.2251 C   0  0  0  0  0  0  0  0  0  0  0  0
    3.0699   -0.0498    1.6061 C   0  0  0  0  0  0  0  0  0  0  0  0
    2.3700    1.0000    1.0000 N   0  0  0  0  0  0  0  0  0  0  0  0
    1.0000    1.0000    1.0000 C   0  0  0  0  0  0  0  0  0  0  0  0
    0.4000   -0.0392    1.0000 O   0  0  0  0  0  0  0  0  0  0  0  0
    0.3150    2.1865    1.0000 N   0  0  0  0  0  0  0  0  0  0  0  0
   -1.1550    2.1865    1.0000 C   0  0  0  0  0  0  0  0  0  0  0  0
   -1.6620    2.1865    2.4341 C   0  0  0  0  0  0  0  0  0  0  0  0
   -1.8987    1.0470    3.1036 N   0  0  0  0  0  0  0  0  0  0  0  0
   -2.3480    1.0238    4.3709 C   0  0  0  0  0  0  0  0  0  0  0  0
   -2.5863   -0.1422    5.0549 N   0  0  0  0  0  0  0  0  0  0  0  0
   -3.0417   -0.1492    6.3508 C   0  0  0  0  0  0  0  0  0  0  0  0
   -3.2512   -1.1880    6.9586 O   0  0  0  0  0  0  0  0  0  0  0  0
   -3.2813    1.0773    7.0270 C   0  0  0  0  0  0  0  0  0  0  0  0
   -3.0494    2.2534    6.3617 C   0  0  0  0  0  0  0  0  0  0  0  0
   -2.5780    2.2314    5.0215 C   0  0  0  0  0  0  0  0  0  0  0  0
   -2.3467    3.4364    4.3671 C   0  0  0  0  0  0  0  0  0  0  0  0
   -1.8838    3.4112    3.0560 C   0  0  0  0  0  0  0  0  0  0  0  0
    2.4517   -0.8207    2.5843 C   0  0  0  0  0  0  0  0  0  0  0  0
    3.1667   -1.8583    3.1721 C   0  0  0  0  0  0  0  0  0  0  0  0
    2.5484   -2.6367    4.1571 N   0  0  0  0  0  0  0  0  0  0  0  0
    2.6302   -2.4028    5.5263 C   0  0  0  0  0  0  0  0  0  0  0  0
    3.2482   -1.5019    6.0677 O   0  0  0  0  0  0  0  0  0  0  0  0
    1.8208   -3.4795    6.2197 C   0  0  0  0  0  0  0  0  0  0  0  0
    1.8364   -4.5921    5.1915 C   0  0  0  0  0  0  0  0  0  0  0  0
    1.7255   -3.8186    3.8953 C   0  0  0  0  0  0  0  0  0  0  0  0
    4.4773   -2.1284    2.7928 C   0  0  0  0  0  0  0  0  0  0  0  0
    5.0922   -1.3534    1.8148 C   0  0  0  0  0  0  0  0  0  0  0  0
    2.8700    1.7500    0.5670 H   0  0  0  0  0  0  0  0  0  0  0  0
    0.8150    3.0525    1.0000 H   0  0  0  0  0  0  0  0  0  0  0  0
   -1.4883    1.3700    0.5286 H   0  0  0  0  0  0  0  0  0  0  0  0
   -1.4883    3.0030    0.5286 H   0  0  0  0  0  0  0  0  0  0  0  0
   -2.4231   -1.0150    4.5949 H   0  0  0  0  0  0  0  0  0  0  0  0
   -3.6128    1.0825    7.9705 H   0  0  0  0  0  0  0  0  0  0  0  0
   -3.2121    3.1272    6.8199 H   0  0  0  0  0  0  0  0  0  0  0  0
   -2.5105    4.3067    4.8317 H   0  0  0  0  0  0  0  0  0  0  0  0
   -1.7120    4.2652    2.5649 H   0  0  0  0  0  0  0  0  0  0  0  0
    1.5092   -0.6323    2.8602 H   0  0  0  0  0  0  0  0  0  0  0  0
    0.8885   -3.1701    6.4068 H   0  0  0  0  0  0  0  0  0  0  0  0
    2.2542   -3.7673    7.0738 H   0  0  0  0  0  0  0  0  0  0  0  0
    2.6887   -5.1136    5.2324 H   0  0  0  0  0  0  0  0  0  0  0  0
    1.0607   -5.2113    5.3134 H   0  0  0  0  0  0  0  0  0  0  0  0
    2.0871   -4.3472    3.1274 H   0  0  0  0  0  0  0  0  0  0  0  0
    0.7770   -3.5635    3.7072 H   0  0  0  0  0  0  0  0  0  0  0  0
    4.9776   -2.8798    3.2231 H   0  0  0  0  0  0  0  0  0  0  0  0
    6.0349   -1.5413    1.5391 H   0  0  0  0  0  0  0  0  0  0  0  0
  1  2  1  0  0  0  0
  2  3  1  0  0  0  0
  3  4  1  0  0  0  0
  4  5  1  0  0  0  0
  5  6  2  0  0  0  0
  5  7  1  0  0  0  0
  7  8  1  0  0  0  0
  8  9  1  0  0  0  0
  9 10  1  0  0  0  0
 10 11  2  0  0  0  0
 11 12  1  0  0  0  0
 12 13  1  0  0  0  0
 13 14  2  0  0  0  0
 13 15  1  0  0  0  0
 15 16  2  0  0  0  0
 16 17  1  0  0  0  0
 17 11  1  0  0  0  0
 17 18  2  0  0  0  0
 18 19  1  0  0  0  0
 19  9  2  0  0  0  0
  3 20  2  0  0  0  0
 20 21  1  0  0  0  0
 21 22  1  0  0  0  0
 22 23  1  0  0  0  0
 23 24  2  0  0  0  0
 23 25  1  0  0  0  0
 25 26  1  0  0  0  0
 26 27  1  0  0  0  0
 27 22  1  0  0  0  0
 21 28  2  0  0  0  0
 28 29  1  0  0  0  0
 29  2  2  0  0  0  0
  4 30  1  0  0  0  0
  7 31  1  0  0  0  0
  8 32  1  0  0  0  0
  8 33  1  0  0  0  0
 12 34  1  0  0  0  0
 15 35  1  0  0  0  0
 16 36  1  0  0  0  0
 18 37  1  0  0  0  0
 19 38  1  0  0  0  0
 20 39  1  0  0  0  0
 25 40  1  0  0  0  0
 25 41  1  0  0  0  0
 26 42  1  0  0  0  0
 26 43  1  0  0  0  0
 27 44  1  0  0  0  0
 27 45  1  0  0  0  0
 28 46  1  0  0  0  0
 29 47  1  0  0  0  0
M  END
>  <result-rank>
67

>  <similarity>
0.906

>  <query-name>


>  <query-smiles>
Fc1c(F)ccc(NC(=O)c2nc(cnc2Nc3cncnc3)C4CC4)c1C(=O)N5CCC5

>  <source>
REALspace_2019-12

>  <similarity-descriptor>
0.0;0.998;0.954;0.853;0.936;1.000;0.744;0.936;0.998;0.0

>  <similarity-descriptor-smiles>
;N1CCCC1=O;Clc1ccccc1;c1ccccn1;c1cC=CC(N1)=O;N;C(=O)NC;c1cC=CC(N1)=O;N1CCCC1=O;

>  <reaction-name>
s_2430a

>  <reagent1-name>
740276

>  <reagent1-smiles>
[R1*]C(=O)Nc1c(Cl)ccc(N2C(=O)CCC2)c1

>  <reagent2-name>
15752898

>  <reagent2-smiles>
[R1*]NCc1nc2NC(=O)C=Cc2cc1

$$$$
s_2718____9148450____8251538
          04022017343D 1   1.00000     0.00000     0
            
 57 60  0  0  0  0            999 V2000
    4.3902    0.1566   -0.1794 F   0  0  0  0  0  0  0  0  0  0  0  0
    5.1051    1.1719    0.2947 C   0  0  0  0  0  0  0  0  0  0  0  0
    4.4517    2.2121    0.9473 C   0  0  0  0  0  0  0  0  0  0  0  0
    3.0615    2.1932    1.1044 N   0  0  0  0  0  0  0  0  0  0  0  0
    2.3700    1.0000    1.0000 N   0  0  0  0  0  0  0  0  0  0  0  0
    1.0000    1.0000    1.0000 C   0  0  0  0  0  0  0  0  0  0  0  0
    0.4000   -0.0392    1.0000 O   0  0  0  0  0  0  0  0  0  0  0  0
    0.2400    2.3164    1.0000 C   0  0  0  0  0  0  0  0  0  0  0  0
    0.1729    2.9705   -0.0038 O   0  0  0  0  0  0  0  0  0  0  0  0
   -0.3684    2.7560    2.1460 N   0  0  0  0  0  0  0  0  0  0  0  0
   -1.3911    3.7080    2.0741 C   0  0  0  0  0  0  0  0  0  0  0  0
   -1.5767    4.7515    2.9246 N   0  0  0  0  0  0  0  0  0  0  0  0
   -2.6342    5.4312    2.5502 N   0  0  0  0  0  0  0  0  0  0  0  0
   -3.1550    4.8749    1.4845 C   0  0  0  0  0  0  0  0  0  0  0  0
   -2.3770    3.7479    1.1397 C   0  0  0  0  0  0  0  0  0  0  0  0
   -4.3897    5.3603    0.7430 C   0  0  0  0  0  0  0  0  0  0  0  0
   -4.0047    6.4921   -0.1957 C   0  0  0  0  0  0  0  0  0  0  0  0
   -4.9809    4.2140   -0.0613 C   0  0  0  0  0  0  0  0  0  0  0  0
   -0.7685    5.0531    4.0276 C   0  0  0  0  0  0  0  0  0  0  0  0
    0.2763    5.8839    3.8938 N   0  0  0  0  0  0  0  0  0  0  0  0
    1.0657    6.1896    4.9341 C   0  0  0  0  0  0  0  0  0  0  0  0
    0.7963    5.6338    6.1794 C   0  0  0  0  0  0  0  0  0  0  0  0
   -0.2901    4.7750    6.3008 C   0  0  0  0  0  0  0  0  0  0  0  0
   -1.0417    4.5087    5.2226 N   0  0  0  0  0  0  0  0  0  0  0  0
    5.1924    3.2780    1.4455 C   0  0  0  0  0  0  0  0  0  0  0  0
    4.5750    4.2770    2.0698 F   0  0  0  0  0  0  0  0  0  0  0  0
    6.5748    3.3119    1.2980 C   0  0  0  0  0  0  0  0  0  0  0  0
    7.2050    2.2599    0.6423 C   0  0  0  0  0  0  0  0  0  0  0  0
    6.4863    1.1830    0.1349 C   0  0  0  0  0  0  0  0  0  0  0  0
    8.6450    2.2824    0.4829 C   0  0  0  0  0  0  0  0  0  0  0  0
    9.2174    1.3146    0.0636 O   0  0  0  0  0  0  0  0  0  0  0  0
    9.3530    3.4084    0.8110 N   0  0  0  0  0  0  0  0  0  0  0  0
   10.8123    3.4312    0.6495 C   0  0  0  0  0  0  0  0  0  0  0  0
   11.5087    3.6845    1.9553 C   0  0  0  0  0  0  0  0  0  0  0  0
   11.3890    4.7866    0.9416 C   0  0  0  0  0  0  0  0  0  0  0  0
    2.5679    3.0423    1.2922 H   0  0  0  0  0  0  0  0  0  0  0  0
    2.8700    0.1373    0.9245 H   0  0  0  0  0  0  0  0  0  0  0  0
   -0.0815    2.3966    3.0340 H   0  0  0  0  0  0  0  0  0  0  0  0
   -2.5201    3.1181    0.3762 H   0  0  0  0  0  0  0  0  0  0  0  0
   -5.0663    5.6891    1.4018 H   0  0  0  0  0  0  0  0  0  0  0  0
   -4.8170    6.8115   -0.6836 H   0  0  0  0  0  0  0  0  0  0  0  0
   -3.6157    7.2462    0.3334 H   0  0  0  0  0  0  0  0  0  0  0  0
   -3.3280    6.1633   -0.8544 H   0  0  0  0  0  0  0  0  0  0  0  0
   -5.7933    4.5333   -0.5492 H   0  0  0  0  0  0  0  0  0  0  0  0
   -4.3042    3.8851   -0.7200 H   0  0  0  0  0  0  0  0  0  0  0  0
   -5.2342    3.4693    0.5563 H   0  0  0  0  0  0  0  0  0  0  0  0
    1.8401    6.8109    4.8150 H   0  0  0  0  0  0  0  0  0  0  0  0
    1.3708    5.8468    6.9698 H   0  0  0  0  0  0  0  0  0  0  0  0
   -0.5091    4.3598    7.1837 H   0  0  0  0  0  0  0  0  0  0  0  0
    7.1062    4.0792    1.6570 H   0  0  0  0  0  0  0  0  0  0  0  0
    6.9525    0.4331   -0.3344 H   0  0  0  0  0  0  0  0  0  0  0  0
    8.8759    4.2149    1.1604 H   0  0  0  0  0  0  0  0  0  0  0  0
   11.2441    2.8464   -0.0372 H   0  0  0  0  0  0  0  0  0  0  0  0
   12.3989    3.2664    2.1366 H   0  0  0  0  0  0  0  0  0  0  0  0
   10.9810    3.7260    2.8037 H   0  0  0  0  0  0  0  0  0  0  0  0
   10.7815    5.5617    1.1151 H   0  0  0  0  0  0  0  0  0  0  0  0
   12.1994    5.1021    0.4480 H   0  0  0  0  0  0  0  0  0  0  0  0
  1  2  1  0  0  0  0
  2  3  1  0  0  0  0
  3  4  1  0  0  0  0
  4  5  1  0  0  0  0
  5  6  1  0  0  0  0
  6  7  2  0  0  0  0
  6  8  1  0  0  0  0
  8  9  2  0  0  0  0
  8 10  1  0  0  0  0
 10 11  1  0  0  0  0
 11 12  1  0  0  0  0
 12 13  1  0  0  0  0
 13 14  2  0  0  0  0
 14 15  1  0  0  0  0
 11 15  2  0  0  0  0
 14 16  1  0  0  0  0
 16 17  1  0  0  0  0
 16 18  1  0  0  0  0
 12 19  1  0  0  0  0
 19 20  1  0  0  0  0
 20 21  2  0  0  0  0
 21 22  1  0  0  0  0
 22 23  2  0  0  0  0
 23 24  1  0  0  0  0
 24 19  2  0  0  0  0
  3 25  2  0  0  0  0
 25 26  1  0  0  0  0
 25 27  1  0  0  0  0
 27 28  2  0  0  0  0
 28 29  1  0  0  0  0
 29  2  2  0  0  0  0
 28 30  1  0  0  0  0
 30 31  2  0  0  0  0
 30 32  1  0  0  0  0
 32 33  1  0  0  0  0
 33 34  1  0  0  0  0
 34 35  1  0  0  0  0
 35 33  1  0  0  0  0
  4 36  1  0  0  0  0
  5 37  1  0  0  0  0
 10 38  1  0  0  0  0
 15 39  1  0  0  0  0
 16 40  1  0  0  0  0
 17 41  1  0  0  0  0
 17 42  1  0  0  0  0
 17 43  1  0  0  0  0
 18 44  1  0  0  0  0
 18 45  1  0  0  0  0
 18 46  1  0  0  0  0
 21 47  1  0  0  0  0
 22 48  1  0  0  0  0
 23 49  1  0  0  0  0
 27 50  1  0  0  0  0
 29 51  1  0  0  0  0
 32 52  1  0  0  0  0
 33 53  1  0  0  0  0
 34 54  1  0  0  0  0
 34 55  1  0  0  0  0
 35 56  1  0  0  0  0
 35 57  1  0  0  0  0
M  END
>  <result-rank>
68

>  <similarity>
0.906

>  <query-name>


>  <query-smiles>
Fc1c(F)ccc(NC(=O)c2nc(cnc2Nc3cncnc3)C4CC4)c1C(=O)N5CCC5

>  <source>
REALspace_2019-12

>  <similarity-descriptor>
0.873;0.969;1.000;0.798;0.921;0.975;0.848;0.921;0.852;0.0

>  <similarity-descriptor-smiles>
C(C)C;C1CC1;Fc1cccc(c1)F;C(=O)NC1=CC=NN1;c1ncccn1;N;NC=O;c1ncccn1;C(=O)N;

>  <reaction-name>
s_2718

>  <reagent1-name>
9148450

>  <reagent1-smiles>
[R1*]NNc1c(F)cc(cc1F)C(=O)NC2CC2

>  <reagent2-name>
8251538

>  <reagent2-smiles>
[R1*]C(=O)C(=O)NC=1N(N=C(C1)C(C)C)c2ncccn2

$$$$
s_22____470104____7119376
          04022017343D 1   1.00000     0.00000     0
            
 48 52  0  0  0  0            999 V2000
   -2.1465    8.5889    0.6079 Cl  0  0  0  0  0  0  0  0  0  0  0  0
   -1.2389    7.0586    0.6012 C   0  0  0  0  0  0  0  0  0  0  0  0
    0.0860    7.0601    0.1827 C   0  0  0  0  0  0  0  0  0  0  0  0
    0.6730    8.1852   -0.2089 F   0  0  0  0  0  0  0  0  0  0  0  0
    0.7878    5.8608    0.1798 C   0  0  0  0  0  0  0  0  0  0  0  0
    0.1975    4.6671    0.5853 C   0  0  0  0  0  0  0  0  0  0  0  0
   -1.1305    4.6548    1.0065 C   0  0  0  0  0  0  0  0  0  0  0  0
   -1.7263    3.4817    1.4083 N   0  0  0  0  0  0  0  0  0  0  0  0
   -1.0339    2.2987    1.4051 C   0  0  0  0  0  0  0  0  0  0  0  0
    0.2747    2.2562    1.0000 C   0  0  0  0  0  0  0  0  0  0  0  0
    1.0000    1.0000    1.0000 C   0  0  0  0  0  0  0  0  0  0  0  0
    0.4000   -0.0392    1.0000 O   0  0  0  0  0  0  0  0  0  0  0  0
    2.3700    1.0000    1.0000 N   0  0  0  0  0  0  0  0  0  0  0  0
    3.0703   -0.1397    0.5852 C   0  0  0  0  0  0  0  0  0  0  0  0
    3.9401   -0.7832    1.4571 C   0  0  0  0  0  0  0  0  0  0  0  0
    4.1584   -0.1510    3.1073 Cl  0  0  0  0  0  0  0  0  0  0  0  0
    4.6282   -1.9094    1.0117 C   0  0  0  0  0  0  0  0  0  0  0  0
    4.4689   -2.4084   -0.2777 C   0  0  0  0  0  0  0  0  0  0  0  0
    5.0919   -3.4705   -0.8098 O   0  0  0  0  0  0  0  0  0  0  0  0
    6.1819   -3.2055   -1.6739 C   0  0  0  0  0  0  0  0  0  0  0  0
    5.6457   -3.1566   -3.0962 C   0  0  0  0  0  0  0  0  0  0  0  0
    4.5945   -2.0707   -3.2529 C   0  0  0  0  0  0  0  0  0  0  0  0
    3.5193   -2.3126   -2.3645 O   0  0  0  0  0  0  0  0  0  0  0  0
    3.6055   -1.7690   -1.1342 C   0  0  0  0  0  0  0  0  0  0  0  0
    2.9106   -0.6412   -0.7030 C   0  0  0  0  0  0  0  0  0  0  0  0
    0.9264    3.4458    0.5781 C   0  0  0  0  0  0  0  0  0  0  0  0
    2.0937    3.3794    0.2211 O   0  0  0  0  0  0  0  0  0  0  0  0
   -3.1257    3.4241    1.8602 C   0  0  0  0  0  0  0  0  0  0  0  0
   -3.2506    2.7253    3.1833 C   0  0  0  0  0  0  0  0  0  0  0  0
   -3.6400    2.0145    1.9186 C   0  0  0  0  0  0  0  0  0  0  0  0
   -1.8235    5.8640    1.0042 C   0  0  0  0  0  0  0  0  0  0  0  0
    1.7414    5.8551   -0.1212 H   0  0  0  0  0  0  0  0  0  0  0  0
   -1.4880    1.4585    1.7012 H   0  0  0  0  0  0  0  0  0  0  0  0
    2.8700    1.8138    1.2962 H   0  0  0  0  0  0  0  0  0  0  0  0
    5.2556   -2.3733    1.6371 H   0  0  0  0  0  0  0  0  0  0  0  0
    6.8649   -3.9313   -1.5925 H   0  0  0  0  0  0  0  0  0  0  0  0
    6.5984   -2.3277   -1.4370 H   0  0  0  0  0  0  0  0  0  0  0  0
    5.2363   -4.0410   -3.3205 H   0  0  0  0  0  0  0  0  0  0  0  0
    6.4021   -2.9707   -3.7233 H   0  0  0  0  0  0  0  0  0  0  0  0
    5.0025   -1.1814   -3.0461 H   0  0  0  0  0  0  0  0  0  0  0  0
    4.2546   -2.0709   -4.1934 H   0  0  0  0  0  0  0  0  0  0  0  0
    2.2838   -0.1822   -1.3326 H   0  0  0  0  0  0  0  0  0  0  0  0
   -3.7510    4.1707    1.6331 H   0  0  0  0  0  0  0  0  0  0  0  0
   -3.9546    3.0093    3.8343 H   0  0  0  0  0  0  0  0  0  0  0  0
   -2.4293    2.4465    3.6811 H   0  0  0  0  0  0  0  0  0  0  0  0
   -3.0778    1.2625    1.5743 H   0  0  0  0  0  0  0  0  0  0  0  0
   -4.6031    1.8252    1.7276 H   0  0  0  0  0  0  0  0  0  0  0  0
   -2.7775    5.8723    1.3038 H   0  0  0  0  0  0  0  0  0  0  0  0
  1  2  1  0  0  0  0
  2  3  1  0  0  0  0
  3  4  1  0  0  0  0
  3  5  2  0  0  0  0
  5  6  1  0  0  0  0
  6  7  2  0  0  0  0
  7  8  1  0  0  0  0
  8  9  1  0  0  0  0
  9 10  2  0  0  0  0
 10 11  1  0  0  0  0
 11 12  2  0  0  0  0
 11 13  1  0  0  0  0
 13 14  1  0  0  0  0
 14 15  1  0  0  0  0
 15 16  1  0  0  0  0
 15 17  2  0  0  0  0
 17 18  1  0  0  0  0
 18 19  1  0  0  0  0
 19 20  1  0  0  0  0
 20 21  1  0  0  0  0
 21 22  1  0  0  0  0
 22 23  1  0  0  0  0
 23 24  1  0  0  0  0
 24 18  2  0  0  0  0
 24 25  1  0  0  0  0
 25 14  2  0  0  0  0
 10 26  1  0  0  0  0
 26  6  1  0  0  0  0
 26 27  2  0  0  0  0
  8 28  1  0  0  0  0
 28 29  1  0  0  0  0
 29 30  1  0  0  0  0
 30 28  1  0  0  0  0
  7 31  1  0  0  0  0
 31  2  2  0  0  0  0
  5 32  1  0  0  0  0
  9 33  1  0  0  0  0
 13 34  1  0  0  0  0
 17 35  1  0  0  0  0
 20 36  1  0  0  0  0
 20 37  1  0  0  0  0
 21 38  1  0  0  0  0
 21 39  1  0  0  0  0
 22 40  1  0  0  0  0
 22 41  1  0  0  0  0
 25 42  1  0  0  0  0
 28 43  1  0  0  0  0
 29 44  1  0  0  0  0
 29 45  1  0  0  0  0
 30 46  1  0  0  0  0
 30 47  1  0  0  0  0
 31 48  1  0  0  0  0
M  END
>  <result-rank>
69

>  <similarity>
0.906

>  <query-name>


>  <query-smiles>
Fc1c(F)ccc(NC(=O)c2nc(cnc2Nc3cncnc3)C4CC4)c1C(=O)N5CCC5

>  <source>
REALspace_2019-12

>  <similarity-descriptor>
0.997;0.908;0.985;0.968;0.694;1.000;0.999;0.694;0.908;0.0

>  <similarity-descriptor-smiles>
C1CC1;c1cOCCCO1;c1ccccc1Cl;c1C(C=CNc1)=O;Clc1ccccc1F;N;C=O;Clc1ccccc1F;c1cOCCCO1;

>  <reaction-name>
s_22

>  <reagent1-name>
470104

>  <reagent1-smiles>
[R1*]Nc1c(Cl)cc2OCCCOc2c1

>  <reagent2-name>
7119376

>  <reagent2-smiles>
[R1*]C(=O)C=1C(=O)c2c(N(C1)C3CC3)cc(Cl)c(F)c2

$$$$
s_22____107200____60334
          04022017343D 1   1.00000     0.00000     0
            
 50 53  0  0  0  0            999 V2000
    0.6517    1.8583   -0.5550 S   0  0  0  0  0  0  0  0  0  0  0  0
   -0.3360    0.6471   -1.3191 C   0  0  0  0  0  0  0  0  0  0  0  0
   -0.6750   -0.5199   -0.8301 N   0  0  0  0  0  0  0  0  0  0  0  0
   -1.4303   -1.1909   -1.6700 N   0  0  0  0  0  0  0  0  0  0  0  0
   -1.5859   -0.4466   -2.7357 C   0  0  0  0  0  0  0  0  0  0  0  0
   -0.9092    0.7192   -2.5469 N   0  0  0  0  0  0  0  0  0  0  0  0
   -0.8177    1.8471   -3.4916 C   0  0  0  0  0  0  0  0  0  0  0  0
   -1.9593    2.8172   -3.2345 C   0  0  0  0  0  0  0  0  0  0  0  0
   -2.3555   -0.8040   -3.9143 C   0  0  0  0  0  0  0  0  0  0  0  0
   -3.6642   -0.7244   -4.0388 O   0  0  0  0  0  0  0  0  0  0  0  0
   -4.0425   -1.1349   -5.2278 C   0  0  0  0  0  0  0  0  0  0  0  0
   -2.9270   -1.5041   -5.9179 C   0  0  0  0  0  0  0  0  0  0  0  0
   -1.8177   -1.2920   -5.0677 C   0  0  0  0  0  0  0  0  0  0  0  0
    1.0000    1.0000    1.0000 C   0  0  0  0  0  0  0  0  0  0  0  0
    1.8776    1.8776    1.8776 C   0  0  0  0  0  0  0  0  0  0  0  0
    2.9588    2.2240    1.4891 O   0  0  0  0  0  0  0  0  0  0  0  0
    1.4341    2.2731    3.1120 N   0  0  0  0  0  0  0  0  0  0  0  0
    2.3511    2.5051    4.1439 C   0  0  0  0  0  0  0  0  0  0  0  0
    3.1754    1.4667    4.5656 C   0  0  0  0  0  0  0  0  0  0  0  0
    4.0869    1.6975    5.5909 C   0  0  0  0  0  0  0  0  0  0  0  0
    4.1661    2.9545    6.1810 C   0  0  0  0  0  0  0  0  0  0  0  0
    5.0834    3.1865    7.2126 N   0  0  0  0  0  0  0  0  0  0  0  0
    5.3045    2.3340    8.2898 C   0  0  0  0  0  0  0  0  0  0  0  0
    4.7374    1.2750    8.4988 O   0  0  0  0  0  0  0  0  0  0  0  0
    6.3696    2.9693    9.1601 C   0  0  0  0  0  0  0  0  0  0  0  0
    6.2328    4.4347    8.8005 C   0  0  0  0  0  0  0  0  0  0  0  0
    5.9458    4.3647    7.3161 C   0  0  0  0  0  0  0  0  0  0  0  0
    3.3420    3.9932    5.7594 C   0  0  0  0  0  0  0  0  0  0  0  0
    2.4303    3.7622    4.7342 C   0  0  0  0  0  0  0  0  0  0  0  0
   -0.8775    1.5028   -4.4286 H   0  0  0  0  0  0  0  0  0  0  0  0
    0.0552    2.3183   -3.3647 H   0  0  0  0  0  0  0  0  0  0  0  0
   -1.8972    3.5824   -3.8754 H   0  0  0  0  0  0  0  0  0  0  0  0
   -2.8321    2.3460   -3.3615 H   0  0  0  0  0  0  0  0  0  0  0  0
   -1.8995    3.1615   -2.2976 H   0  0  0  0  0  0  0  0  0  0  0  0
   -4.9827   -1.1703   -5.5666 H   0  0  0  0  0  0  0  0  0  0  0  0
   -2.8984   -1.8592   -6.8523 H   0  0  0  0  0  0  0  0  0  0  0  0
   -0.8528   -1.4621   -5.2679 H   0  0  0  0  0  0  0  0  0  0  0  0
    1.4742    0.1409    0.8075 H   0  0  0  0  0  0  0  0  0  0  0  0
    0.1409    0.8075    1.4742 H   0  0  0  0  0  0  0  0  0  0  0  0
    0.4553    2.3959    3.2759 H   0  0  0  0  0  0  0  0  0  0  0  0
    3.1133    0.5653    4.1370 H   0  0  0  0  0  0  0  0  0  0  0  0
    4.6852    0.9597    5.9036 H   0  0  0  0  0  0  0  0  0  0  0  0
    7.2795    2.6223    8.9330 H   0  0  0  0  0  0  0  0  0  0  0  0
    6.1864    2.8142   10.1308 H   0  0  0  0  0  0  0  0  0  0  0  0
    5.4777    4.8624    9.2974 H   0  0  0  0  0  0  0  0  0  0  0  0
    7.0788    4.9351    8.9845 H   0  0  0  0  0  0  0  0  0  0  0  0
    5.4726    5.1872    7.0007 H   0  0  0  0  0  0  0  0  0  0  0  0
    6.7881    4.2427    6.7910 H   0  0  0  0  0  0  0  0  0  0  0  0
    3.4042    4.8946    6.1878 H   0  0  0  0  0  0  0  0  0  0  0  0
    1.8318    4.4999    4.4218 H   0  0  0  0  0  0  0  0  0  0  0  0
  1  2  1  0  0  0  0
  2  3  2  0  0  0  0
  3  4  1  0  0  0  0
  4  5  2  0  0  0  0
  5  6  1  0  0  0  0
  6  2  1  0  0  0  0
  6  7  1  0  0  0  0
  7  8  1  0  0  0  0
  5  9  1  0  0  0  0
  9 10  1  0  0  0  0
 10 11  1  0  0  0  0
 11 12  2  0  0  0  0
 12 13  1  0  0  0  0
  9 13  2  0  0  0  0
  1 14  1  0  0  0  0
 14 15  1  0  0  0  0
 15 16  2  0  0  0  0
 15 17  1  0  0  0  0
 17 18  1  0  0  0  0
 18 19  1  0  0  0  0
 19 20  2  0  0  0  0
 20 21  1  0  0  0  0
 21 22  1  0  0  0  0
 22 23  1  0  0  0  0
 23 24  2  0  0  0  0
 23 25  1  0  0  0  0
 25 26  1  0  0  0  0
 26 27  1  0  0  0  0
 27 22  1  0  0  0  0
 21 28  2  0  0  0  0
 28 29  1  0  0  0  0
 29 18  2  0  0  0  0
  7 30  1  0  0  0  0
  7 31  1  0  0  0  0
  8 32  1  0  0  0  0
  8 33  1  0  0  0  0
  8 34  1  0  0  0  0
 11 35  1  0  0  0  0
 12 36  1  0  0  0  0
 13 37  1  0  0  0  0
 14 38  1  0  0  0  0
 14 39  1  0  0  0  0
 17 40  1  0  0  0  0
 19 41  1  0  0  0  0
 20 42  1  0  0  0  0
 25 43  1  0  0  0  0
 25 44  1  0  0  0  0
 26 45  1  0  0  0  0
 26 46  1  0  0  0  0
 27 47  1  0  0  0  0
 27 48  1  0  0  0  0
 28 49  1  0  0  0  0
 29 50  1  0  0  0  0
M  END
>  <result-rank>
70

>  <similarity>
0.906

>  <query-name>


>  <query-smiles>
Fc1c(F)ccc(NC(=O)c2nc(cnc2Nc3cncnc3)C4CC4)c1C(=O)N5CCC5

>  <source>
REALspace_2019-12

>  <similarity-descriptor>
0.754;0.998;0.928;0.941;0.820;1.000;0.860;0.820;0.998;0.0

>  <similarity-descriptor-smiles>
CC;N1CCCC1=O;c1ccccc1;SC=1NC=NN1;C1=CC=CO1;N;CC=O;C1=CC=CO1;N1CCCC1=O;

>  <reaction-name>
s_22

>  <reagent1-name>
107200

>  <reagent1-smiles>
[R1*]Nc1ccc(N2C(=O)CCC2)cc1

>  <reagent2-name>
60334

>  <reagent2-smiles>
[R1*]C(=O)CSC1=NN=C(N1CC)C=2OC=CC2

$$$$
s_11a____4786906____246127
          04022017343D 1   1.00000     0.00000     0
            
 47 50  0  0  0  0            999 V2000
   -3.3459    4.8108    2.2654 F   0  0  0  0  0  0  0  0  0  0  0  0
   -2.8523    3.6258    1.9209 C   0  0  0  0  0  0  0  0  0  0  0  0
   -3.6644    2.4976    1.9560 C   0  0  0  0  0  0  0  0  0  0  0  0
   -5.0000    2.6181    2.3545 N   0  0  0  0  0  0  0  0  0  0  0  0
   -5.4237    2.8921    3.6512 C   0  0  0  0  0  0  0  0  0  0  0  0
   -4.7068    3.0601    4.6231 O   0  0  0  0  0  0  0  0  0  0  0  0
   -6.9381    2.9311    3.6350 C   0  0  0  0  0  0  0  0  0  0  0  0
   -7.2590    2.0776    2.4250 C   0  0  0  0  0  0  0  0  0  0  0  0
   -6.1545    2.4691    1.4671 C   0  0  0  0  0  0  0  0  0  0  0  0
   -3.1494    1.2567    1.5955 C   0  0  0  0  0  0  0  0  0  0  0  0
   -1.8209    1.1429    1.1996 C   0  0  0  0  0  0  0  0  0  0  0  0
   -1.0214    2.2802    1.1696 C   0  0  0  0  0  0  0  0  0  0  0  0
    0.3150    2.1639    0.7699 N   0  0  0  0  0  0  0  0  0  0  0  0
    1.0000    1.0000    1.0000 C   0  0  0  0  0  0  0  0  0  0  0  0
    0.4000   -0.0195    1.2015 O   0  0  0  0  0  0  0  0  0  0  0  0
    2.4506    1.0000    1.0000 C   0  0  0  0  0  0  0  0  0  0  0  0
    3.2091   -0.0516    1.2079 O   0  0  0  0  0  0  0  0  0  0  0  0
    4.4735    0.2929    1.1404 C   0  0  0  0  0  0  0  0  0  0  0  0
    4.5613    1.6266    0.8746 C   0  0  0  0  0  0  0  0  0  0  0  0
    3.2324    2.0917    0.7821 C   0  0  0  0  0  0  0  0  0  0  0  0
    5.6534   -0.6466    1.3274 C   0  0  0  0  0  0  0  0  0  0  0  0
    6.0349   -1.2193    0.0273 N   0  0  0  0  0  0  0  0  0  0  0  0
    6.9617   -0.5821   -0.7585 C   0  0  0  0  0  0  0  0  0  0  0  0
    7.4908    0.4613   -0.4111 O   0  0  0  0  0  0  0  0  0  0  0  0
    7.3176   -1.1491   -2.0117 C   0  0  0  0  0  0  0  0  0  0  0  0
    6.7304   -2.3213   -2.4150 C   0  0  0  0  0  0  0  0  0  0  0  0
    5.7735   -2.9606   -1.5810 C   0  0  0  0  0  0  0  0  0  0  0  0
    5.4488   -2.3909   -0.3772 C   0  0  0  0  0  0  0  0  0  0  0  0
   -1.5222    3.5276    1.5266 C   0  0  0  0  0  0  0  0  0  0  0  0
   -7.2768    3.8651    3.5215 H   0  0  0  0  0  0  0  0  0  0  0  0
   -7.3212    2.5368    4.4703 H   0  0  0  0  0  0  0  0  0  0  0  0
   -7.2204    1.1031    2.6464 H   0  0  0  0  0  0  0  0  0  0  0  0
   -8.1600    2.2992    2.0519 H   0  0  0  0  0  0  0  0  0  0  0  0
   -5.9966    1.7537    0.7864 H   0  0  0  0  0  0  0  0  0  0  0  0
   -6.3668    3.3293    1.0035 H   0  0  0  0  0  0  0  0  0  0  0  0
   -3.7346    0.4461    1.6210 H   0  0  0  0  0  0  0  0  0  0  0  0
   -1.4450    0.2534    0.9396 H   0  0  0  0  0  0  0  0  0  0  0  0
    0.7698    2.9305    0.3165 H   0  0  0  0  0  0  0  0  0  0  0  0
    5.3968    2.1655    0.7671 H   0  0  0  0  0  0  0  0  0  0  0  0
    2.9293    3.0263    0.5958 H   0  0  0  0  0  0  0  0  0  0  0  0
    6.4265   -0.1391    1.7079 H   0  0  0  0  0  0  0  0  0  0  0  0
    5.3972   -1.3829    1.9537 H   0  0  0  0  0  0  0  0  0  0  0  0
    7.9915   -0.6966   -2.5958 H   0  0  0  0  0  0  0  0  0  0  0  0
    6.9757   -2.7261   -3.2959 H   0  0  0  0  0  0  0  0  0  0  0  0
    5.3423   -3.8157   -1.8689 H   0  0  0  0  0  0  0  0  0  0  0  0
    4.7756   -2.8356    0.2136 H   0  0  0  0  0  0  0  0  0  0  0  0
   -0.9372    4.3382    1.5004 H   0  0  0  0  0  0  0  0  0  0  0  0
  1  2  1  0  0  0  0
  2  3  1  0  0  0  0
  3  4  1  0  0  0  0
  4  5  1  0  0  0  0
  5  6  2  0  0  0  0
  5  7  1  0  0  0  0
  7  8  1  0  0  0  0
  8  9  1  0  0  0  0
  9  4  1  0  0  0  0
  3 10  2  0  0  0  0
 10 11  1  0  0  0  0
 11 12  2  0  0  0  0
 12 13  1  0  0  0  0
 13 14  1  0  0  0  0
 14 15  2  0  0  0  0
 14 16  1  0  0  0  0
 16 17  1  0  0  0  0
 17 18  1  0  0  0  0
 18 19  2  0  0  0  0
 19 20  1  0  0  0  0
 16 20  2  0  0  0  0
 18 21  1  0  0  0  0
 21 22  1  0  0  0  0
 22 23  1  0  0  0  0
 23 24  2  0  0  0  0
 23 25  1  0  0  0  0
 25 26  2  0  0  0  0
 26 27  1  0  0  0  0
 27 28  2  0  0  0  0
 28 22  1  0  0  0  0
 12 29  1  0  0  0  0
 29  2  2  0  0  0  0
  7 30  1  0  0  0  0
  7 31  1  0  0  0  0
  8 32  1  0  0  0  0
  8 33  1  0  0  0  0
  9 34  1  0  0  0  0
  9 35  1  0  0  0  0
 10 36  1  0  0  0  0
 11 37  1  0  0  0  0
 13 38  1  0  0  0  0
 19 39  1  0  0  0  0
 20 40  1  0  0  0  0
 21 41  1  0  0  0  0
 21 42  1  0  0  0  0
 25 43  1  0  0  0  0
 26 44  1  0  0  0  0
 27 45  1  0  0  0  0
 28 46  1  0  0  0  0
 29 47  1  0  0  0  0
M  END
>  <result-rank>
71

>  <similarity>
0.906

>  <query-name>


>  <query-smiles>
Fc1c(F)ccc(NC(=O)c2nc(cnc2Nc3cncnc3)C4CC4)c1C(=O)N5CCC5

>  <source>
REALspace_2019-12

>  <similarity-descriptor>
0.0;0.998;0.964;0.820;0.858;1.000;0.999;0.858;0.998;0.0

>  <similarity-descriptor-smiles>
;N1CCCC1=O;Fc1ccccc1;C1=CC=C(O1)C;N1C=CC=CC1=O;N;C=O;N1C=CC=CC1=O;N1CCCC1=O;

>  <reaction-name>
s_11a

>  <reagent1-name>
4786906

>  <reagent1-smiles>
[R1*]Nc1cc(F)c(N2C(=O)CCC2)cc1

>  <reagent2-name>
246127

>  <reagent2-smiles>
[R1*]C(=O)C=1OC(=CC1)CN2C(=O)C=CC=C2

$$$$
m_274860a____17146992____12536600____12655686
          04022017343D 1   1.00000     0.00000     0
            
 45 48  0  0  0  0            999 V2000
    1.9369   -0.9165   -0.9206 F   0  0  0  0  0  0  0  0  0  0  0  0
    2.8422   -1.1685    0.0194 C   0  0  0  0  0  0  0  0  0  0  0  0
    3.0826   -0.2117    1.0000 C   0  0  0  0  0  0  0  0  0  0  0  0
    2.3830    1.0000    1.0000 N   0  0  0  0  0  0  0  0  0  0  0  0
    1.0000    1.0000    1.0000 N   0  0  0  0  0  0  0  0  0  0  0  0
    0.3150    2.1865    1.0000 C   0  0  0  0  0  0  0  0  0  0  0  0
    0.9150    3.2257    1.0000 O   0  0  0  0  0  0  0  0  0  0  0  0
   -1.2050    2.1865    1.0000 C   0  0  0  0  0  0  0  0  0  0  0  0
   -1.6950    2.1865    2.3860 N   0  0  0  0  0  0  0  0  0  0  0  0
   -1.9497    3.2509    3.1064 N   0  0  0  0  0  0  0  0  0  0  0  0
   -2.3587    2.9328    4.2585 N   0  0  0  0  0  0  0  0  0  0  0  0
   -2.3849    1.5722    4.3269 C   0  0  0  0  0  0  0  0  0  0  0  0
   -1.9610    1.0821    3.1321 C   0  0  0  0  0  0  0  0  0  0  0  0
   -2.8156    0.7455    5.5282 C   0  0  0  0  0  0  0  0  0  0  0  0
   -3.9828   -0.1334    5.1852 C   0  0  0  0  0  0  0  0  0  0  0  0
   -4.1922    1.1053    6.0082 C   0  0  0  0  0  0  0  0  0  0  0  0
    4.0284   -0.4675    1.9864 C   0  0  0  0  0  0  0  0  0  0  0  0
    4.2648    0.4427    2.9270 F   0  0  0  0  0  0  0  0  0  0  0  0
    4.7320   -1.6669    2.0009 C   0  0  0  0  0  0  0  0  0  0  0  0
    4.4735   -2.6078    1.0100 C   0  0  0  0  0  0  0  0  0  0  0  0
    3.5328   -2.3754    0.0127 C   0  0  0  0  0  0  0  0  0  0  0  0
    5.1989   -3.8621    1.0143 C   0  0  0  0  0  0  0  0  0  0  0  0
    6.3443   -3.8916    1.3709 O   0  0  0  0  0  0  0  0  0  0  0  0
    4.5771   -5.0144    0.6113 N   0  0  0  0  0  0  0  0  0  0  0  0
    5.3122   -6.2855    0.6156 C   0  0  0  0  0  0  0  0  0  0  0  0
    5.3802   -6.8891   -0.7575 C   0  0  0  0  0  0  0  0  0  0  0  0
    4.4286   -7.4471    0.2621 C   0  0  0  0  0  0  0  0  0  0  0  0
    2.8830    1.8660    1.0000 H   0  0  0  0  0  0  0  0  0  0  0  0
    0.5000    0.1340    1.0000 H   0  0  0  0  0  0  0  0  0  0  0  0
   -1.5383    3.0030    0.5286 H   0  0  0  0  0  0  0  0  0  0  0  0
   -1.5383    1.3700    0.5286 H   0  0  0  0  0  0  0  0  0  0  0  0
   -1.8662    0.1238    2.8625 H   0  0  0  0  0  0  0  0  0  0  0  0
   -2.1299    0.4264    6.1824 H   0  0  0  0  0  0  0  0  0  0  0  0
   -4.0708   -1.0353    5.6080 H   0  0  0  0  0  0  0  0  0  0  0  0
   -4.3204   -0.1717    4.2447 H   0  0  0  0  0  0  0  0  0  0  0  0
   -4.6690    1.8918    5.6157 H   0  0  0  0  0  0  0  0  0  0  0  0
   -4.4194    1.0282    6.9790 H   0  0  0  0  0  0  0  0  0  0  0  0
    5.4119   -1.8495    2.7111 H   0  0  0  0  0  0  0  0  0  0  0  0
    3.3568   -3.0609   -0.6937 H   0  0  0  0  0  0  0  0  0  0  0  0
    3.6225   -4.9899    0.3141 H   0  0  0  0  0  0  0  0  0  0  0  0
    6.0718   -6.4166    1.2527 H   0  0  0  0  0  0  0  0  0  0  0  0
    6.1840   -7.4166   -1.0326 H   0  0  0  0  0  0  0  0  0  0  0  0
    5.0288   -6.3820   -1.5446 H   0  0  0  0  0  0  0  0  0  0  0  0
    3.4438   -7.3114    0.1539 H   0  0  0  0  0  0  0  0  0  0  0  0
    4.5989   -8.3460    0.6658 H   0  0  0  0  0  0  0  0  0  0  0  0
  1  2  1  0  0  0  0
  2  3  1  0  0  0  0
  3  4  1  0  0  0  0
  4  5  1  0  0  0  0
  5  6  1  0  0  0  0
  6  7  2  0  0  0  0
  6  8  1  0  0  0  0
  8  9  1  0  0  0  0
  9 10  1  0  0  0  0
 10 11  2  0  0  0  0
 11 12  1  0  0  0  0
 12 13  2  0  0  0  0
 13  9  1  0  0  0  0
 12 14  1  0  0  0  0
 14 15  1  0  0  0  0
 15 16  1  0  0  0  0
 16 14  1  0  0  0  0
  3 17  2  0  0  0  0
 17 18  1  0  0  0  0
 17 19  1  0  0  0  0
 19 20  2  0  0  0  0
 20 21  1  0  0  0  0
 21  2  2  0  0  0  0
 20 22  1  0  0  0  0
 22 23  2  0  0  0  0
 22 24  1  0  0  0  0
 24 25  1  0  0  0  0
 25 26  1  0  0  0  0
 26 27  1  0  0  0  0
 27 25  1  0  0  0  0
  4 28  1  0  0  0  0
  5 29  1  0  0  0  0
  8 30  1  0  0  0  0
  8 31  1  0  0  0  0
 13 32  1  0  0  0  0
 14 33  1  0  0  0  0
 15 34  1  0  0  0  0
 15 35  1  0  0  0  0
 16 36  1  0  0  0  0
 16 37  1  0  0  0  0
 19 38  1  0  0  0  0
 21 39  1  0  0  0  0
 24 40  1  0  0  0  0
 25 41  1  0  0  0  0
 26 42  1  0  0  0  0
 26 43  1  0  0  0  0
 27 44  1  0  0  0  0
 27 45  1  0  0  0  0
M  END
>  <result-rank>
72

>  <similarity>
0.906

>  <query-name>


>  <query-smiles>
Fc1c(F)ccc(NC(=O)c2nc(cnc2Nc3cncnc3)C4CC4)c1C(=O)N5CCC5

>  <source>
REALspace_2019-12

>  <similarity-descriptor>
1.000;0.969;1.000;0.891;0.0;0.975;0.848;0.0;0.852;0.0

>  <similarity-descriptor-smiles>
C1CC1;C1CC1;Fc1cccc(c1)F;CN1C=CN=N1;;N;NC=O;;C(=O)N;

>  <reaction-name>
m_274860a

>  <reagent1-name>
17146992

>  <reagent1-smiles>
[R3*]NNc1c(F)cc(cc1F)C(=O)NC2CC2

>  <reagent2-name>
12536600

>  <reagent2-smiles>
[R1*]N=NN([R2*])CC([R3*])=O

>  <reagent3-name>
12655686

>  <reagent3-smiles>
[R1*]C(=C[R2*])C1CC1

$$$$
s_527a____2016380____12218672
          04022017343D 1   1.00000     0.00000     0
            
 49 52  0  0  0  0            999 V2000
    6.2351   -0.1670   -3.1938 Cl  0  0  0  0  0  0  0  0  0  0  0  0
    4.7297   -0.7130   -2.4166 C   0  0  0  0  0  0  0  0  0  0  0  0
    3.7964   -1.5045   -3.0898 C   0  0  0  0  0  0  0  0  0  0  0  0
    3.9440   -1.9044   -4.3742 O   0  0  0  0  0  0  0  0  0  0  0  0
    2.8364   -2.1288   -5.2421 C   0  0  0  0  0  0  0  0  0  0  0  0
    1.5878   -2.5927   -4.5015 C   0  0  0  0  0  0  0  0  0  0  0  0
    1.7749   -2.6976   -3.0934 O   0  0  0  0  0  0  0  0  0  0  0  0
    2.6491   -1.9145   -2.4247 C   0  0  0  0  0  0  0  0  0  0  0  0
    2.4403   -1.5118   -1.1084 C   0  0  0  0  0  0  0  0  0  0  0  0
    3.3585   -0.7122   -0.4341 C   0  0  0  0  0  0  0  0  0  0  0  0
    4.5150   -0.3164   -1.1001 C   0  0  0  0  0  0  0  0  0  0  0  0
    3.1050   -0.2731    1.0000 C   0  0  0  0  0  0  0  0  0  0  0  0
    2.3700    1.0000    1.0000 N   0  0  0  0  0  0  0  0  0  0  0  0
    1.0000    1.0000    1.0000 C   0  0  0  0  0  0  0  0  0  0  0  0
    0.4000   -0.0392    1.0000 O   0  0  0  0  0  0  0  0  0  0  0  0
    0.2745    2.2566    1.0000 C   0  0  0  0  0  0  0  0  0  0  0  0
   -1.1444    2.2504    1.0000 C   0  0  0  0  0  0  0  0  0  0  0  0
   -1.6523    1.1632    0.9997 O   0  0  0  0  0  0  0  0  0  0  0  0
   -1.8930    3.4685    1.0003 C   0  0  0  0  0  0  0  0  0  0  0  0
   -3.2941    3.5397    1.0011 C   0  0  0  0  0  0  0  0  0  0  0  0
   -4.1432    2.4015    1.0049 O   0  0  0  0  0  0  0  0  0  0  0  0
   -5.5534    2.5678    1.0055 C   0  0  0  0  0  0  0  0  0  0  0  0
   -3.9687    4.7525    0.9999 C   0  0  0  0  0  0  0  0  0  0  0  0
   -3.2028    5.9106    0.9980 C   0  0  0  0  0  0  0  0  0  0  0  0
   -3.9023    7.1464    0.9956 O   0  0  0  0  0  0  0  0  0  0  0  0
   -3.1818    8.3700    0.9935 C   0  0  0  0  0  0  0  0  0  0  0  0
   -1.8122    5.8829    0.9976 C   0  0  0  0  0  0  0  0  0  0  0  0
   -1.1616    4.6535    0.9993 C   0  0  0  0  0  0  0  0  0  0  0  0
    0.2095    4.6426    0.9987 N   0  0  0  0  0  0  0  0  0  0  0  0
    0.9164    3.4680    0.9992 C   0  0  0  0  0  0  0  0  0  0  0  0
    3.0905   -2.8291   -5.9092 H   0  0  0  0  0  0  0  0  0  0  0  0
    2.6262   -1.2751   -5.7186 H   0  0  0  0  0  0  0  0  0  0  0  0
    0.8531   -1.9372   -4.6762 H   0  0  0  0  0  0  0  0  0  0  0  0
    1.3244   -3.4905   -4.8546 H   0  0  0  0  0  0  0  0  0  0  0  0
    1.6093   -1.8046   -0.6354 H   0  0  0  0  0  0  0  0  0  0  0  0
    5.1914    0.2529   -0.6327 H   0  0  0  0  0  0  0  0  0  0  0  0
    2.5646   -0.9700    1.4714 H   0  0  0  0  0  0  0  0  0  0  0  0
    3.9788   -0.1535    1.4714 H   0  0  0  0  0  0  0  0  0  0  0  0
    2.8700    1.8660    1.0000 H   0  0  0  0  0  0  0  0  0  0  0  0
   -5.9948    1.6705    1.0082 H   0  0  0  0  0  0  0  0  0  0  0  0
   -5.8286    3.0772    1.8208 H   0  0  0  0  0  0  0  0  0  0  0  0
   -5.8299    3.0728    0.1878 H   0  0  0  0  0  0  0  0  0  0  0  0
   -4.9680    4.7908    1.0003 H   0  0  0  0  0  0  0  0  0  0  0  0
   -3.8250    9.1356    0.9920 H   0  0  0  0  0  0  0  0  0  0  0  0
   -2.6066    8.4195    1.8101 H   0  0  0  0  0  0  0  0  0  0  0  0
   -2.6062    8.4166    0.1771 H   0  0  0  0  0  0  0  0  0  0  0  0
   -1.2878    6.7344    0.9961 H   0  0  0  0  0  0  0  0  0  0  0  0
    0.7051    5.5112    0.9977 H   0  0  0  0  0  0  0  0  0  0  0  0
    1.9160    3.4953    0.9991 H   0  0  0  0  0  0  0  0  0  0  0  0
  1  2  1  0  0  0  0
  2  3  1  0  0  0  0
  3  4  1  0  0  0  0
  4  5  1  0  0  0  0
  5  6  1  0  0  0  0
  6  7  1  0  0  0  0
  7  8  1  0  0  0  0
  8  3  2  0  0  0  0
  8  9  1  0  0  0  0
  9 10  2  0  0  0  0
 10 11  1  0  0  0  0
 11  2  2  0  0  0  0
 10 12  1  0  0  0  0
 12 13  1  0  0  0  0
 13 14  1  0  0  0  0
 14 15  2  0  0  0  0
 14 16  1  0  0  0  0
 16 17  1  0  0  0  0
 17 18  2  0  0  0  0
 17 19  1  0  0  0  0
 19 20  1  0  0  0  0
 20 21  1  0  0  0  0
 21 22  1  0  0  0  0
 20 23  2  0  0  0  0
 23 24  1  0  0  0  0
 24 25  1  0  0  0  0
 25 26  1  0  0  0  0
 24 27  2  0  0  0  0
 27 28  1  0  0  0  0
 28 19  2  0  0  0  0
 28 29  1  0  0  0  0
 29 30  1  0  0  0  0
 16 30  2  0  0  0  0
  5 31  1  0  0  0  0
  5 32  1  0  0  0  0
  6 33  1  0  0  0  0
  6 34  1  0  0  0  0
  9 35  1  0  0  0  0
 11 36  1  0  0  0  0
 12 37  1  0  0  0  0
 12 38  1  0  0  0  0
 13 39  1  0  0  0  0
 22 40  1  0  0  0  0
 22 41  1  0  0  0  0
 22 42  1  0  0  0  0
 23 43  1  0  0  0  0
 26 44  1  0  0  0  0
 26 45  1  0  0  0  0
 26 46  1  0  0  0  0
 27 47  1  0  0  0  0
 29 48  1  0  0  0  0
 30 49  1  0  0  0  0
M  END
>  <result-rank>
73

>  <similarity>
0.906

>  <query-name>


>  <query-smiles>
Fc1c(F)ccc(NC(=O)c2nc(cnc2Nc3cncnc3)C4CC4)c1C(=O)N5CCC5

>  <source>
REALspace_2019-12

>  <similarity-descriptor>
0.0;0.831;0.946;0.962;0.927;1.000;0.999;0.962;0.831;0.182

>  <similarity-descriptor-smiles>
;c1cOCCO1;Clc1cc(ccc1)C;C1=CNccC1=O;c1ccc(cc1O)O;N;C=O;C1=CNccC1=O;c1cOCCO1;C.C

>  <reaction-name>
s_527a

>  <reagent1-name>
2016380

>  <reagent1-smiles>
[R1*]NCc1cc(Cl)c2OCCOc2c1

>  <reagent2-name>
12218672

>  <reagent2-smiles>
[R1*]C(=O)C=1C(=O)c2c(OC)cc(OC)cc2NC1

$$$$
s_11a____4786906____10159058
          04022017343D 1   1.00000     0.00000     0
            
 48 51  0  0  0  0            999 V2000
    2.8869   -3.6364    0.0616 F   0  0  0  0  0  0  0  0  0  0  0  0
    3.3151   -2.3850   -0.0689 C   0  0  0  0  0  0  0  0  0  0  0  0
    4.4604   -2.1157   -0.8099 C   0  0  0  0  0  0  0  0  0  0  0  0
    5.1563   -3.1675   -1.4154 N   0  0  0  0  0  0  0  0  0  0  0  0
    5.8089   -4.1894   -0.7329 C   0  0  0  0  0  0  0  0  0  0  0  0
    5.8774   -4.3182    0.4777 O   0  0  0  0  0  0  0  0  0  0  0  0
    6.4277   -5.1045   -1.7697 C   0  0  0  0  0  0  0  0  0  0  0  0
    6.5702   -4.1768   -2.9590 C   0  0  0  0  0  0  0  0  0  0  0  0
    5.3071   -3.3489   -2.8600 C   0  0  0  0  0  0  0  0  0  0  0  0
    4.9098   -0.8065   -0.9476 C   0  0  0  0  0  0  0  0  0  0  0  0
    4.2136    0.2353   -0.3438 C   0  0  0  0  0  0  0  0  0  0  0  0
    3.0698   -0.0498    0.3939 C   0  0  0  0  0  0  0  0  0  0  0  0
    2.3700    1.0000    1.0000 N   0  0  0  0  0  0  0  0  0  0  0  0
    1.0000    1.0000    1.0000 C   0  0  0  0  0  0  0  0  0  0  0  0
    0.4000   -0.0392    1.0000 O   0  0  0  0  0  0  0  0  0  0  0  0
    0.2710    2.2627    1.0000 C   0  0  0  0  0  0  0  0  0  0  0  0
   -0.6072    2.6882    1.9488 N   0  0  0  0  0  0  0  0  0  0  0  0
   -1.0653    3.8344    1.6237 N   0  0  0  0  0  0  0  0  0  0  0  0
   -0.5452    4.2225    0.4804 N   0  0  0  0  0  0  0  0  0  0  0  0
    0.3029    3.2489    0.0697 C   0  0  0  0  0  0  0  0  0  0  0  0
    1.1365    3.2509   -1.2011 C   0  0  0  0  0  0  0  0  0  0  0  0
   -0.8300    5.4845   -0.2157 C   0  0  0  0  0  0  0  0  0  0  0  0
    0.1429    6.5531    0.2545 C   0  0  0  0  0  0  0  0  0  0  0  0
   -0.1819    7.3497    1.3463 C   0  0  0  0  0  0  0  0  0  0  0  0
    0.7268    8.3200    1.7546 C   0  0  0  0  0  0  0  0  0  0  0  0
    1.8914    8.4831    1.1090 N   0  0  0  0  0  0  0  0  0  0  0  0
    2.2207    7.7236    0.0540 C   0  0  0  0  0  0  0  0  0  0  0  0
    1.3542    6.7361   -0.4032 C   0  0  0  0  0  0  0  0  0  0  0  0
    2.6082   -1.3535    0.5401 C   0  0  0  0  0  0  0  0  0  0  0  0
    5.8265   -5.8755   -1.9797 H   0  0  0  0  0  0  0  0  0  0  0  0
    7.3169   -5.4479   -1.4675 H   0  0  0  0  0  0  0  0  0  0  0  0
    7.3871   -3.6055   -2.8792 H   0  0  0  0  0  0  0  0  0  0  0  0
    6.6038   -4.6883   -3.8177 H   0  0  0  0  0  0  0  0  0  0  0  0
    5.4142   -2.4700   -3.3249 H   0  0  0  0  0  0  0  0  0  0  0  0
    4.5244   -3.8370   -3.2462 H   0  0  0  0  0  0  0  0  0  0  0  0
    5.7336   -0.6142   -1.4809 H   0  0  0  0  0  0  0  0  0  0  0  0
    4.5319    1.1785   -0.4391 H   0  0  0  0  0  0  0  0  0  0  0  0
    2.8700    1.7500    1.4330 H   0  0  0  0  0  0  0  0  0  0  0  0
    1.6705    2.4069   -1.2508 H   0  0  0  0  0  0  0  0  0  0  0  0
    0.5325    3.3106   -1.9958 H   0  0  0  0  0  0  0  0  0  0  0  0
    1.7550    4.0367   -1.1927 H   0  0  0  0  0  0  0  0  0  0  0  0
   -1.7658    5.7731   -0.0129 H   0  0  0  0  0  0  0  0  0  0  0  0
   -0.7284    5.3516   -1.2016 H   0  0  0  0  0  0  0  0  0  0  0  0
   -1.0500    7.2278    1.8275 H   0  0  0  0  0  0  0  0  0  0  0  0
    0.5098    8.9024    2.5380 H   0  0  0  0  0  0  0  0  0  0  0  0
    3.0960    7.8682   -0.4075 H   0  0  0  0  0  0  0  0  0  0  0  0
    1.5977    6.1688   -1.1899 H   0  0  0  0  0  0  0  0  0  0  0  0
    1.7840   -1.5456    1.0728 H   0  0  0  0  0  0  0  0  0  0  0  0
  1  2  1  0  0  0  0
  2  3  1  0  0  0  0
  3  4  1  0  0  0  0
  4  5  1  0  0  0  0
  5  6  2  0  0  0  0
  5  7  1  0  0  0  0
  7  8  1  0  0  0  0
  8  9  1  0  0  0  0
  9  4  1  0  0  0  0
  3 10  2  0  0  0  0
 10 11  1  0  0  0  0
 11 12  2  0  0  0  0
 12 13  1  0  0  0  0
 13 14  1  0  0  0  0
 14 15  2  0  0  0  0
 14 16  1  0  0  0  0
 16 17  1  0  0  0  0
 17 18  2  0  0  0  0
 18 19  1  0  0  0  0
 19 20  1  0  0  0  0
 16 20  2  0  0  0  0
 20 21  1  0  0  0  0
 19 22  1  0  0  0  0
 22 23  1  0  0  0  0
 23 24  1  0  0  0  0
 24 25  2  0  0  0  0
 25 26  1  0  0  0  0
 26 27  2  0  0  0  0
 27 28  1  0  0  0  0
 28 23  2  0  0  0  0
 12 29  1  0  0  0  0
 29  2  2  0  0  0  0
  7 30  1  0  0  0  0
  7 31  1  0  0  0  0
  8 32  1  0  0  0  0
  8 33  1  0  0  0  0
  9 34  1  0  0  0  0
  9 35  1  0  0  0  0
 10 36  1  0  0  0  0
 11 37  1  0  0  0  0
 13 38  1  0  0  0  0
 21 39  1  0  0  0  0
 21 40  1  0  0  0  0
 21 41  1  0  0  0  0
 22 42  1  0  0  0  0
 22 43  1  0  0  0  0
 24 44  1  0  0  0  0
 25 45  1  0  0  0  0
 27 46  1  0  0  0  0
 28 47  1  0  0  0  0
 29 48  1  0  0  0  0
M  END
>  <result-rank>
74

>  <similarity>
0.905

>  <query-name>


>  <query-smiles>
Fc1c(F)ccc(NC(=O)c2nc(cnc2Nc3cncnc3)C4CC4)c1C(=O)N5CCC5

>  <source>
REALspace_2019-12

>  <similarity-descriptor>
0.0;0.998;0.964;0.876;0.820;1.000;0.999;0.820;0.998;0.125

>  <similarity-descriptor-smiles>
;N1CCCC1=O;Fc1ccccc1;C1=CN(N=N1)C;c1ccncc1;N;C=O;c1ccncc1;N1CCCC1=O;C

>  <reaction-name>
s_11a

>  <reagent1-name>
4786906

>  <reagent1-smiles>
[R1*]Nc1cc(F)c(N2C(=O)CCC2)cc1

>  <reagent2-name>
10159058

>  <reagent2-smiles>
[R1*]C(=O)C=1N=NN(C1C)Cc2ccncc2

$$$$
s_274090____12937292____12385960
          04022017343D 1   1.00000     0.00000     0
            
 45 48  0  0  0  0            999 V2000
    3.1207   -3.1510   -1.5322 Cl  0  0  0  0  0  0  0  0  0  0  0  0
    2.4326   -1.9484   -2.6496 C   0  0  0  0  0  0  0  0  0  0  0  0
    1.8601   -0.7712   -2.1765 C   0  0  0  0  0  0  0  0  0  0  0  0
    1.8182   -0.5388   -0.7979 N   0  0  0  0  0  0  0  0  0  0  0  0
    1.7037    0.7408   -0.3221 C   0  0  0  0  0  0  0  0  0  0  0  0
    2.1590    1.6571   -0.9492 O   0  0  0  0  0  0  0  0  0  0  0  0
    1.0000    1.0000    1.0000 C   0  0  0  0  0  0  0  0  0  0  0  0
    1.8488    1.8488    1.8488 N   0  0  0  0  0  0  0  0  0  0  0  0
    1.8340    3.1586    1.8770 N   0  0  0  0  0  0  0  0  0  0  0  0
    2.6750    3.6048    2.7074 N   0  0  0  0  0  0  0  0  0  0  0  0
    3.2987    2.5366    3.2787 C   0  0  0  0  0  0  0  0  0  0  0  0
    2.7775    1.4046    2.7360 C   0  0  0  0  0  0  0  0  0  0  0  0
    4.3847    2.5985    4.3395 C   0  0  0  0  0  0  0  0  0  0  0  0
    3.7679    2.5845    5.6737 N   0  0  0  0  0  0  0  0  0  0  0  0
    3.5296    1.3636    6.3240 C   0  0  0  0  0  0  0  0  0  0  0  0
    2.8232    1.2185    7.8663 S   0  0  0  0  0  0  0  0  0  0  0  0
    2.8882   -0.4795    7.9358 C   0  0  0  0  0  0  0  0  0  0  0  0
    3.4577   -0.8526    6.7537 C   0  0  0  0  0  0  0  0  0  0  0  0
    3.7974    0.1582    5.8899 N   0  0  0  0  0  0  0  0  0  0  0  0
    1.3345    0.1550   -3.0706 C   0  0  0  0  0  0  0  0  0  0  0  0
    1.3609   -0.0909   -4.4392 C   0  0  0  0  0  0  0  0  0  0  0  0
    0.8391    0.8434   -5.2693 O   0  0  0  0  0  0  0  0  0  0  0  0
    1.3583    1.0700   -6.5748 C   0  0  0  0  0  0  0  0  0  0  0  0
    0.8138    0.0535   -7.5675 C   0  0  0  0  0  0  0  0  0  0  0  0
    0.7953   -1.3508   -6.9830 C   0  0  0  0  0  0  0  0  0  0  0  0
    1.9521   -1.6249   -6.2027 O   0  0  0  0  0  0  0  0  0  0  0  0
    1.9211   -1.2845   -4.8963 C   0  0  0  0  0  0  0  0  0  0  0  0
    2.4721   -2.2055   -4.0155 C   0  0  0  0  0  0  0  0  0  0  0  0
    1.8719   -1.3066   -0.1595 H   0  0  0  0  0  0  0  0  0  0  0  0
    0.1302    1.4630    0.8295 H   0  0  0  0  0  0  0  0  0  0  0  0
    0.8295    0.1302    1.4630 H   0  0  0  0  0  0  0  0  0  0  0  0
    3.0226    0.4575    2.9431 H   0  0  0  0  0  0  0  0  0  0  0  0
    4.9897    1.8080    4.2436 H   0  0  0  0  0  0  0  0  0  0  0  0
    4.9142    3.4392    4.2258 H   0  0  0  0  0  0  0  0  0  0  0  0
    3.5180    3.4448    6.1181 H   0  0  0  0  0  0  0  0  0  0  0  0
    2.5778   -1.0729    8.6784 H   0  0  0  0  0  0  0  0  0  0  0  0
    3.6194   -1.8134    6.5282 H   0  0  0  0  0  0  0  0  0  0  0  0
    0.9343    1.0045   -2.7268 H   0  0  0  0  0  0  0  0  0  0  0  0
    2.3552    0.9968   -6.5467 H   0  0  0  0  0  0  0  0  0  0  0  0
    1.0998    1.9886   -6.8737 H   0  0  0  0  0  0  0  0  0  0  0  0
   -0.1192    0.3126   -7.8177 H   0  0  0  0  0  0  0  0  0  0  0  0
    1.3909    0.0569   -8.3841 H   0  0  0  0  0  0  0  0  0  0  0  0
   -0.0140   -1.4474   -6.4035 H   0  0  0  0  0  0  0  0  0  0  0  0
    0.7491   -2.0108   -7.7328 H   0  0  0  0  0  0  0  0  0  0  0  0
    2.8927   -3.0449   -4.3597 H   0  0  0  0  0  0  0  0  0  0  0  0
  1  2  1  0  0  0  0
  2  3  1  0  0  0  0
  3  4  1  0  0  0  0
  4  5  1  0  0  0  0
  5  6  2  0  0  0  0
  5  7  1  0  0  0  0
  7  8  1  0  0  0  0
  8  9  1  0  0  0  0
  9 10  2  0  0  0  0
 10 11  1  0  0  0  0
 11 12  2  0  0  0  0
 12  8  1  0  0  0  0
 11 13  1  0  0  0  0
 13 14  1  0  0  0  0
 14 15  1  0  0  0  0
 15 16  1  0  0  0  0
 16 17  1  0  0  0  0
 17 18  2  0  0  0  0
 18 19  1  0  0  0  0
 15 19  2  0  0  0  0
  3 20  2  0  0  0  0
 20 21  1  0  0  0  0
 21 22  1  0  0  0  0
 22 23  1  0  0  0  0
 23 24  1  0  0  0  0
 24 25  1  0  0  0  0
 25 26  1  0  0  0  0
 26 27  1  0  0  0  0
 27 21  2  0  0  0  0
 27 28  1  0  0  0  0
 28  2  2  0  0  0  0
  4 29  1  0  0  0  0
  7 30  1  0  0  0  0
  7 31  1  0  0  0  0
 12 32  1  0  0  0  0
 13 33  1  0  0  0  0
 13 34  1  0  0  0  0
 14 35  1  0  0  0  0
 17 36  1  0  0  0  0
 18 37  1  0  0  0  0
 20 38  1  0  0  0  0
 23 39  1  0  0  0  0
 23 40  1  0  0  0  0
 24 41  1  0  0  0  0
 24 42  1  0  0  0  0
 25 43  1  0  0  0  0
 25 44  1  0  0  0  0
 28 45  1  0  0  0  0
M  END
>  <result-rank>
75

>  <similarity>
0.905

>  <query-name>


>  <query-smiles>
Fc1c(F)ccc(NC(=O)c2nc(cnc2Nc3cncnc3)C4CC4)c1C(=O)N5CCC5

>  <source>
REALspace_2019-12

>  <similarity-descriptor>
0.0;0.908;0.985;0.891;0.878;1.000;0.858;1.000;0.908;0.0

>  <similarity-descriptor-smiles>
;c1cOCCCO1;Clc1ccccc1;N1C=C(N=N1)C;C1=NC=CS1;N;C(=O)C;N;c1cOCCCO1;

>  <reaction-name>
s_274090

>  <reagent1-name>
12937292

>  <reagent1-smiles>
[R1*]N=NN([R2*])CC(=O)Nc1c(Cl)cc2OCCCOc2c1

>  <reagent2-name>
12385960

>  <reagent2-smiles>
[R1*]C(=C[R2*])CNC=1SC=CN1

$$$$
s_11a____215838____11684368
          04022017343D 1   1.00000     0.00000     0
            
 50 53  0  0  0  0            999 V2000
    6.3701   -0.4801    3.8894 Cl  0  0  0  0  0  0  0  0  0  0  0  0
    4.9018   -0.8194    2.9418 C   0  0  0  0  0  0  0  0  0  0  0  0
    4.4473   -2.1273    2.8024 C   0  0  0  0  0  0  0  0  0  0  0  0
    5.1541   -3.1704    3.4129 N   0  0  0  0  0  0  0  0  0  0  0  0
    5.8354   -4.1748    2.7279 C   0  0  0  0  0  0  0  0  0  0  0  0
    5.9243   -4.2855    1.5165 O   0  0  0  0  0  0  0  0  0  0  0  0
    6.4530   -5.1018    3.7509 C   0  0  0  0  0  0  0  0  0  0  0  0
    6.5967   -4.1794    4.9407 C   0  0  0  0  0  0  0  0  0  0  0  0
    5.3017   -3.4031    4.8529 C   0  0  0  0  0  0  0  0  0  0  0  0
    3.3016   -2.4048    2.0641 C   0  0  0  0  0  0  0  0  0  0  0  0
    2.6120   -1.3557    1.4634 C   0  0  0  0  0  0  0  0  0  0  0  0
    3.0700   -0.0501    1.6063 C   0  0  0  0  0  0  0  0  0  0  0  0
    2.3700    1.0000    1.0000 N   0  0  0  0  0  0  0  0  0  0  0  0
    1.0000    1.0000    1.0000 C   0  0  0  0  0  0  0  0  0  0  0  0
    0.4000   -0.0392    1.0000 O   0  0  0  0  0  0  0  0  0  0  0  0
    0.2749    2.2559    1.0000 C   0  0  0  0  0  0  0  0  0  0  0  0
   -0.0923    2.8919   -0.1822 C   0  0  0  0  0  0  0  0  0  0  0  0
   -0.7619    4.0525   -0.1212 N   0  0  0  0  0  0  0  0  0  0  0  0
   -1.0855    4.6139    1.0536 C   0  0  0  0  0  0  0  0  0  0  0  0
   -0.7417    4.0191    2.2047 N   0  0  0  0  0  0  0  0  0  0  0  0
   -0.0714    2.8580    2.2042 C   0  0  0  0  0  0  0  0  0  0  0  0
   -1.7840    5.8251    1.1128 N   0  0  0  0  0  0  0  0  0  0  0  0
   -2.4690    6.1818    2.2807 C   0  0  0  0  0  0  0  0  0  0  0  0
   -3.4878    5.3639    2.7587 C   0  0  0  0  0  0  0  0  0  0  0  0
   -4.1659    5.7215    3.9194 C   0  0  0  0  0  0  0  0  0  0  0  0
   -3.8237    6.8892    4.5928 C   0  0  0  0  0  0  0  0  0  0  0  0
   -2.8030    7.6991    4.1061 C   0  0  0  0  0  0  0  0  0  0  0  0
   -2.1181    7.3517    2.9464 C   0  0  0  0  0  0  0  0  0  0  0  0
    0.2568    2.2860   -1.5321 C   0  0  0  0  0  0  0  0  0  0  0  0
   -0.7294    1.4859   -1.9273 F   0  0  0  0  0  0  0  0  0  0  0  0
    0.4238    3.2579   -2.4245 F   0  0  0  0  0  0  0  0  0  0  0  0
    1.3814    1.5840   -1.4254 F   0  0  0  0  0  0  0  0  0  0  0  0
    4.2148    0.2316    2.3438 C   0  0  0  0  0  0  0  0  0  0  0  0
    7.3410   -5.4448    3.4447 H   0  0  0  0  0  0  0  0  0  0  0  0
    5.8506   -5.8730    3.9566 H   0  0  0  0  0  0  0  0  0  0  0  0
    6.6621   -4.6910    5.7975 H   0  0  0  0  0  0  0  0  0  0  0  0
    7.3922   -3.5805    4.8485 H   0  0  0  0  0  0  0  0  0  0  0  0
    4.5367   -3.9384    5.2109 H   0  0  0  0  0  0  0  0  0  0  0  0
    5.3662   -2.5389    5.3520 H   0  0  0  0  0  0  0  0  0  0  0  0
    2.9777   -3.3458    1.9661 H   0  0  0  0  0  0  0  0  0  0  0  0
    1.7872   -1.5406    0.9290 H   0  0  0  0  0  0  0  0  0  0  0  0
    2.8700    1.7500    0.5670 H   0  0  0  0  0  0  0  0  0  0  0  0
    0.1795    2.4251    3.0700 H   0  0  0  0  0  0  0  0  0  0  0  0
   -1.7940    6.4357    0.3210 H   0  0  0  0  0  0  0  0  0  0  0  0
   -3.7309    4.5252    2.2714 H   0  0  0  0  0  0  0  0  0  0  0  0
   -4.8994    5.1390    4.2696 H   0  0  0  0  0  0  0  0  0  0  0  0
   -4.3115    7.1466    5.4269 H   0  0  0  0  0  0  0  0  0  0  0  0
   -2.5596    8.5376    4.5938 H   0  0  0  0  0  0  0  0  0  0  0  0
   -1.3845    7.9342    2.5965 H   0  0  0  0  0  0  0  0  0  0  0  0
    4.5383    1.1727    2.4423 H   0  0  0  0  0  0  0  0  0  0  0  0
  1  2  1  0  0  0  0
  2  3  1  0  0  0  0
  3  4  1  0  0  0  0
  4  5  1  0  0  0  0
  5  6  2  0  0  0  0
  5  7  1  0  0  0  0
  7  8  1  0  0  0  0
  8  9  1  0  0  0  0
  9  4  1  0  0  0  0
  3 10  2  0  0  0  0
 10 11  1  0  0  0  0
 11 12  2  0  0  0  0
 12 13  1  0  0  0  0
 13 14  1  0  0  0  0
 14 15  2  0  0  0  0
 14 16  1  0  0  0  0
 16 17  1  0  0  0  0
 17 18  2  0  0  0  0
 18 19  1  0  0  0  0
 19 20  2  0  0  0  0
 20 21  1  0  0  0  0
 21 16  2  0  0  0  0
 19 22  1  0  0  0  0
 22 23  1  0  0  0  0
 23 24  1  0  0  0  0
 24 25  2  0  0  0  0
 25 26  1  0  0  0  0
 26 27  2  0  0  0  0
 27 28  1  0  0  0  0
 28 23  2  0  0  0  0
 17 29  1  0  0  0  0
 29 30  1  0  0  0  0
 29 31  1  0  0  0  0
 29 32  1  0  0  0  0
 12 33  1  0  0  0  0
 33  2  2  0  0  0  0
  7 34  1  0  0  0  0
  7 35  1  0  0  0  0
  8 36  1  0  0  0  0
  8 37  1  0  0  0  0
  9 38  1  0  0  0  0
  9 39  1  0  0  0  0
 10 40  1  0  0  0  0
 11 41  1  0  0  0  0
 13 42  1  0  0  0  0
 21 43  1  0  0  0  0
 22 44  1  0  0  0  0
 24 45  1  0  0  0  0
 25 46  1  0  0  0  0
 26 47  1  0  0  0  0
 27 48  1  0  0  0  0
 28 49  1  0  0  0  0
 33 50  1  0  0  0  0
M  END
>  <result-rank>
76

>  <similarity>
0.905

>  <query-name>


>  <query-smiles>
Fc1c(F)ccc(NC(=O)c2nc(cnc2Nc3cncnc3)C4CC4)c1C(=O)N5CCC5

>  <source>
REALspace_2019-12

>  <similarity-descriptor>
0.0;0.998;0.954;0.928;0.727;1.000;1.000;1.000;0.998;0.0

>  <similarity-descriptor-smiles>
;N1CCCC1=O;Clc1ccccc1;c1cncnc1C(F)(F)F;c1ccccc1;N;C=O;N;N1CCCC1=O;

>  <reaction-name>
s_11a

>  <reagent1-name>
215838

>  <reagent1-smiles>
[R1*]Nc1cc(Cl)c(N2C(=O)CCC2)cc1

>  <reagent2-name>
11684368

>  <reagent2-smiles>
[R1*]C(=O)c1c(nc(nc1)Nc2ccccc2)C(F)(F)F

$$$$
s_22____127815____7593102
          04022017343D 1   1.00000     0.00000     0
            
 52 55  0  0  0  0            999 V2000
    0.4000   -0.0392    1.0000 O   0  0  0  0  0  0  0  0  0  0  0  0
    1.0000    1.0000    1.0000 C   0  0  0  0  0  0  0  0  0  0  0  0
    2.3700    1.0000    1.0000 N   0  0  0  0  0  0  0  0  0  0  0  0
    3.0698   -0.2074    1.1056 C   0  0  0  0  0  0  0  0  0  0  0  0
    4.2141   -0.2565    1.8951 C   0  0  0  0  0  0  0  0  0  0  0  0
    4.9091   -1.4568    1.9996 C   0  0  0  0  0  0  0  0  0  0  0  0
    6.0631   -1.5265    2.7896 N   0  0  0  0  0  0  0  0  0  0  0  0
    7.3637   -1.5825    2.2984 C   0  0  0  0  0  0  0  0  0  0  0  0
    7.6907   -1.5855    1.1238 O   0  0  0  0  0  0  0  0  0  0  0  0
    8.2963   -1.6512    3.4903 C   0  0  0  0  0  0  0  0  0  0  0  0
    7.3936   -2.2320    4.5595 C   0  0  0  0  0  0  0  0  0  0  0  0
    6.0746   -1.5559    4.2530 C   0  0  0  0  0  0  0  0  0  0  0  0
    4.4750   -2.5953    1.3282 C   0  0  0  0  0  0  0  0  0  0  0  0
    3.3287   -2.5226    0.5444 C   0  0  0  0  0  0  0  0  0  0  0  0
    2.6179   -1.3332    0.4252 C   0  0  0  0  0  0  0  0  0  0  0  0
    0.2750    2.2557    1.0000 C   0  0  0  0  0  0  0  0  0  0  0  0
   -1.0305    2.3935    1.0000 N   0  0  0  0  0  0  0  0  0  0  0  0
   -1.3475    3.6651    0.9999 N   0  0  0  0  0  0  0  0  0  0  0  0
   -2.6489    4.1808    1.0003 C   0  0  0  0  0  0  0  0  0  0  0  0
   -3.2955    4.4367   -0.1474 N   0  0  0  0  0  0  0  0  0  0  0  0
   -4.5425    4.9291   -0.1568 C   0  0  0  0  0  0  0  0  0  0  0  0
   -5.2100    5.1925    1.0340 C   0  0  0  0  0  0  0  0  0  0  0  0
   -4.5565    4.9332    2.2336 C   0  0  0  0  0  0  0  0  0  0  0  0
   -3.2630    4.4223    2.2247 C   0  0  0  0  0  0  0  0  0  0  0  0
   -0.2040    4.4022    0.9997 C   0  0  0  0  0  0  0  0  0  0  0  0
    0.8506    3.5446    1.0007 C   0  0  0  0  0  0  0  0  0  0  0  0
   -0.1152    5.9195    0.9989 C   0  0  0  0  0  0  0  0  0  0  0  0
    0.6294    6.3841    2.2399 C   0  0  0  0  0  0  0  0  0  0  0  0
    0.6299    6.3828   -0.2422 C   0  0  0  0  0  0  0  0  0  0  0  0
    2.8700    1.8627    0.9245 H   0  0  0  0  0  0  0  0  0  0  0  0
    4.5320    0.5583    2.3798 H   0  0  0  0  0  0  0  0  0  0  0  0
    8.6263   -0.7428    3.7469 H   0  0  0  0  0  0  0  0  0  0  0  0
    9.0763   -2.2499    3.3080 H   0  0  0  0  0  0  0  0  0  0  0  0
    7.3216   -3.2258    4.4746 H   0  0  0  0  0  0  0  0  0  0  0  0
    7.7180   -1.9984    5.4761 H   0  0  0  0  0  0  0  0  0  0  0  0
    5.3056   -2.0866    4.6094 H   0  0  0  0  0  0  0  0  0  0  0  0
    6.0460   -0.6313    4.6329 H   0  0  0  0  0  0  0  0  0  0  0  0
    4.9806   -3.4544    1.4082 H   0  0  0  0  0  0  0  0  0  0  0  0
    3.0108   -3.3374    0.0596 H   0  0  0  0  0  0  0  0  0  0  0  0
    1.7948   -1.2880   -0.1409 H   0  0  0  0  0  0  0  0  0  0  0  0
   -4.9971    5.1088   -1.0292 H   0  0  0  0  0  0  0  0  0  0  0  0
   -6.1399    5.5604    1.0279 H   0  0  0  0  0  0  0  0  0  0  0  0
   -5.0166    5.1140    3.1028 H   0  0  0  0  0  0  0  0  0  0  0  0
   -2.7839    4.2324    3.0817 H   0  0  0  0  0  0  0  0  0  0  0  0
    1.8233    3.7764    1.0016 H   0  0  0  0  0  0  0  0  0  0  0  0
   -1.0370    6.3073    0.9985 H   0  0  0  0  0  0  0  0  0  0  0  0
    0.6877    7.3824    2.2394 H   0  0  0  0  0  0  0  0  0  0  0  0
    0.1391    6.0793    3.0565 H   0  0  0  0  0  0  0  0  0  0  0  0
    1.5511    5.9963    2.2403 H   0  0  0  0  0  0  0  0  0  0  0  0
    0.6883    7.3811   -0.2427 H   0  0  0  0  0  0  0  0  0  0  0  0
    1.5517    5.9950   -0.2418 H   0  0  0  0  0  0  0  0  0  0  0  0
    0.1401    6.0771   -1.0587 H   0  0  0  0  0  0  0  0  0  0  0  0
  1  2  2  0  0  0  0
  2  3  1  0  0  0  0
  3  4  1  0  0  0  0
  4  5  1  0  0  0  0
  5  6  2  0  0  0  0
  6  7  1  0  0  0  0
  7  8  1  0  0  0  0
  8  9  2  0  0  0  0
  8 10  1  0  0  0  0
 10 11  1  0  0  0  0
 11 12  1  0  0  0  0
 12  7  1  0  0  0  0
  6 13  1  0  0  0  0
 13 14  2  0  0  0  0
 14 15  1  0  0  0  0
 15  4  2  0  0  0  0
  2 16  1  0  0  0  0
 16 17  2  0  0  0  0
 17 18  1  0  0  0  0
 18 19  1  0  0  0  0
 19 20  1  0  0  0  0
 20 21  2  0  0  0  0
 21 22  1  0  0  0  0
 22 23  2  0  0  0  0
 23 24  1  0  0  0  0
 24 19  2  0  0  0  0
 18 25  1  0  0  0  0
 25 26  2  0  0  0  0
 26 16  1  0  0  0  0
 25 27  1  0  0  0  0
 27 28  1  0  0  0  0
 27 29  1  0  0  0  0
  3 30  1  0  0  0  0
  5 31  1  0  0  0  0
 10 32  1  0  0  0  0
 10 33  1  0  0  0  0
 11 34  1  0  0  0  0
 11 35  1  0  0  0  0
 12 36  1  0  0  0  0
 12 37  1  0  0  0  0
 13 38  1  0  0  0  0
 14 39  1  0  0  0  0
 15 40  1  0  0  0  0
 21 41  1  0  0  0  0
 22 42  1  0  0  0  0
 23 43  1  0  0  0  0
 24 44  1  0  0  0  0
 26 45  1  0  0  0  0
 27 46  1  0  0  0  0
 28 47  1  0  0  0  0
 28 48  1  0  0  0  0
 28 49  1  0  0  0  0
 29 50  1  0  0  0  0
 29 51  1  0  0  0  0
 29 52  1  0  0  0  0
M  END
>  <result-rank>
77

>  <similarity>
0.905

>  <query-name>


>  <query-smiles>
Fc1c(F)ccc(NC(=O)c2nc(cnc2Nc3cncnc3)C4CC4)c1C(=O)N5CCC5

>  <source>
REALspace_2019-12

>  <similarity-descriptor>
0.873;0.998;0.928;0.839;0.822;1.000;0.999;0.822;0.998;0.0

>  <similarity-descriptor-smiles>
C(C)C;N1CCCC1=O;c1ccccc1;C=1C=CNN1;c1ccccn1;N;O=C;c1ccccn1;N1CCCC1=O;

>  <reaction-name>
s_22

>  <reagent1-name>
127815

>  <reagent1-smiles>
[R1*]Nc1cc(N2C(=O)CCC2)ccc1

>  <reagent2-name>
7593102

>  <reagent2-smiles>
[R1*]C(=O)C1=NN(c2ncccc2)C(=C1)C(C)C

$$$$
s_527a____4786924____13595988
          04022017343D 1   1.00000     0.00000     0
            
 47 50  0  0  0  0            999 V2000
    2.8869   -3.6364    0.0616 F   0  0  0  0  0  0  0  0  0  0  0  0
    3.3151   -2.3850   -0.0689 C   0  0  0  0  0  0  0  0  0  0  0  0
    4.4604   -2.1157   -0.8099 C   0  0  0  0  0  0  0  0  0  0  0  0
    5.1563   -3.1675   -1.4154 N   0  0  0  0  0  0  0  0  0  0  0  0
    5.8089   -4.1894   -0.7329 C   0  0  0  0  0  0  0  0  0  0  0  0
    5.8774   -4.3182    0.4777 O   0  0  0  0  0  0  0  0  0  0  0  0
    6.4277   -5.1045   -1.7697 C   0  0  0  0  0  0  0  0  0  0  0  0
    6.5702   -4.1768   -2.9590 C   0  0  0  0  0  0  0  0  0  0  0  0
    5.3071   -3.3489   -2.8600 C   0  0  0  0  0  0  0  0  0  0  0  0
    4.9098   -0.8065   -0.9476 C   0  0  0  0  0  0  0  0  0  0  0  0
    4.2136    0.2353   -0.3438 C   0  0  0  0  0  0  0  0  0  0  0  0
    3.0698   -0.0498    0.3939 C   0  0  0  0  0  0  0  0  0  0  0  0
    2.3700    1.0000    1.0000 N   0  0  0  0  0  0  0  0  0  0  0  0
    1.0000    1.0000    1.0000 C   0  0  0  0  0  0  0  0  0  0  0  0
    0.4000   -0.0392    1.0000 O   0  0  0  0  0  0  0  0  0  0  0  0
    0.2750    2.2558    1.0000 C   0  0  0  0  0  0  0  0  0  0  0  0
    0.9715    3.4416    1.2109 C   0  0  0  0  0  0  0  0  0  0  0  0
    0.2848    4.6513    1.2127 C   0  0  0  0  0  0  0  0  0  0  0  0
   -1.0906    4.6604    1.0043 C   0  0  0  0  0  0  0  0  0  0  0  0
   -1.7897    5.8727    1.0047 N   0  0  0  0  0  0  0  0  0  0  0  0
   -1.2308    7.0046    0.3979 C   0  0  0  0  0  0  0  0  0  0  0  0
   -1.1385    7.0800   -0.9383 N   0  0  0  0  0  0  0  0  0  0  0  0
   -0.6082    8.1525   -1.5443 C   0  0  0  0  0  0  0  0  0  0  0  0
   -0.1434    9.2105   -0.7716 C   0  0  0  0  0  0  0  0  0  0  0  0
   -0.2467    9.1163    0.6115 C   0  0  0  0  0  0  0  0  0  0  0  0
   -0.7869    8.0171    1.1575 N   0  0  0  0  0  0  0  0  0  0  0  0
   -1.7867    3.4740    0.7935 C   0  0  0  0  0  0  0  0  0  0  0  0
   -1.0999    2.2644    0.7915 C   0  0  0  0  0  0  0  0  0  0  0  0
    2.6082   -1.3535    0.5401 C   0  0  0  0  0  0  0  0  0  0  0  0
    5.8265   -5.8755   -1.9797 H   0  0  0  0  0  0  0  0  0  0  0  0
    7.3169   -5.4479   -1.4675 H   0  0  0  0  0  0  0  0  0  0  0  0
    7.3871   -3.6055   -2.8792 H   0  0  0  0  0  0  0  0  0  0  0  0
    6.6038   -4.6883   -3.8177 H   0  0  0  0  0  0  0  0  0  0  0  0
    5.4142   -2.4700   -3.3249 H   0  0  0  0  0  0  0  0  0  0  0  0
    4.5244   -3.8370   -3.2462 H   0  0  0  0  0  0  0  0  0  0  0  0
    5.7336   -0.6142   -1.4809 H   0  0  0  0  0  0  0  0  0  0  0  0
    4.5319    1.1785   -0.4391 H   0  0  0  0  0  0  0  0  0  0  0  0
    2.8700    1.7500    1.4330 H   0  0  0  0  0  0  0  0  0  0  0  0
    1.9601    3.4243    1.3604 H   0  0  0  0  0  0  0  0  0  0  0  0
    0.7767    5.5089    1.3627 H   0  0  0  0  0  0  0  0  0  0  0  0
   -2.6889    5.9308    1.4384 H   0  0  0  0  0  0  0  0  0  0  0  0
   -0.5477    8.1907   -2.5417 H   0  0  0  0  0  0  0  0  0  0  0  0
    0.2560   10.0206   -1.2008 H   0  0  0  0  0  0  0  0  0  0  0  0
    0.0789    9.8613    1.1938 H   0  0  0  0  0  0  0  0  0  0  0  0
   -2.7753    3.4910    0.6442 H   0  0  0  0  0  0  0  0  0  0  0  0
   -1.5915    1.4067    0.6412 H   0  0  0  0  0  0  0  0  0  0  0  0
    1.7840   -1.5456    1.0728 H   0  0  0  0  0  0  0  0  0  0  0  0
  1  2  1  0  0  0  0
  2  3  1  0  0  0  0
  3  4  1  0  0  0  0
  4  5  1  0  0  0  0
  5  6  2  0  0  0  0
  5  7  1  0  0  0  0
  7  8  1  0  0  0  0
  8  9  1  0  0  0  0
  9  4  1  0  0  0  0
  3 10  2  0  0  0  0
 10 11  1  0  0  0  0
 11 12  2  0  0  0  0
 12 13  1  0  0  0  0
 13 14  1  0  0  0  0
 14 15  2  0  0  0  0
 14 16  1  0  0  0  0
 16 17  1  0  0  0  0
 17 18  2  0  0  0  0
 18 19  1  0  0  0  0
 19 20  1  0  0  0  0
 20 21  1  0  0  0  0
 21 22  1  0  0  0  0
 22 23  2  0  0  0  0
 23 24  1  0  0  0  0
 24 25  2  0  0  0  0
 25 26  1  0  0  0  0
 26 21  2  0  0  0  0
 19 27  2  0  0  0  0
 27 28  1  0  0  0  0
 28 16  2  0  0  0  0
 12 29  1  0  0  0  0
 29  2  2  0  0  0  0
  7 30  1  0  0  0  0
  7 31  1  0  0  0  0
  8 32  1  0  0  0  0
  8 33  1  0  0  0  0
  9 34  1  0  0  0  0
  9 35  1  0  0  0  0
 10 36  1  0  0  0  0
 11 37  1  0  0  0  0
 13 38  1  0  0  0  0
 17 39  1  0  0  0  0
 18 40  1  0  0  0  0
 20 41  1  0  0  0  0
 23 42  1  0  0  0  0
 24 43  1  0  0  0  0
 25 44  1  0  0  0  0
 27 45  1  0  0  0  0
 28 46  1  0  0  0  0
 29 47  1  0  0  0  0
M  END
>  <result-rank>
78

>  <similarity>
0.905

>  <query-name>


>  <query-smiles>
Fc1c(F)ccc(NC(=O)c2nc(cnc2Nc3cncnc3)C4CC4)c1C(=O)N5CCC5

>  <source>
REALspace_2019-12

>  <similarity-descriptor>
0.0;0.998;0.964;0.648;1.000;1.000;1.000;1.000;0.998;0.0

>  <similarity-descriptor-smiles>
;N1CCCC1=O;Fc1ccccc1;c1ccccc1;c1ncccn1;N;C=O;N;N1CCCC1=O;

>  <reaction-name>
s_527a

>  <reagent1-name>
4786924

>  <reagent1-smiles>
[R1*]Nc1cc(F)c(N2C(=O)CCC2)cc1

>  <reagent2-name>
13595988

>  <reagent2-smiles>
[R1*]C(=O)c1ccc(Nc2ncccn2)cc1

$$$$
s_22____8852978____903526
          04022017343D 1   1.00000     0.00000     0
            
 46 50  0  0  0  0            999 V2000
    3.2636   -0.9372    2.4822 Cl  0  0  0  0  0  0  0  0  0  0  0  0
    3.2156    0.8425    2.4904 C   0  0  0  0  0  0  0  0  0  0  0  0
    2.0110    1.5375    2.5046 C   0  0  0  0  0  0  0  0  0  0  0  0
    2.0122    2.8782    2.5100 N   0  0  0  0  0  0  0  0  0  0  0  0
    3.1581    3.5753    2.5022 C   0  0  0  0  0  0  0  0  0  0  0  0
    4.3327    2.9278    2.4888 N   0  0  0  0  0  0  0  0  0  0  0  0
    4.3894    1.5880    2.4836 C   0  0  0  0  0  0  0  0  0  0  0  0
    3.1500    4.9753    2.5076 N   0  0  0  0  0  0  0  0  0  0  0  0
    4.4188    5.7176    2.4989 C   0  0  0  0  0  0  0  0  0  0  0  0
    4.8440    5.9795    1.0596 C   0  0  0  0  0  0  0  0  0  0  0  0
    4.5245    7.0285    0.3361 O   0  0  0  0  0  0  0  0  0  0  0  0
    5.0547    6.9425   -0.8647 C   0  0  0  0  0  0  0  0  0  0  0  0
    5.7535    5.7749   -0.9337 C   0  0  0  0  0  0  0  0  0  0  0  0
    5.6186    5.1385    0.3220 C   0  0  0  0  0  0  0  0  0  0  0  0
    0.7664    0.7925    2.5128 C   0  0  0  0  0  0  0  0  0  0  0  0
    0.5103    0.0422    1.6120 O   0  0  0  0  0  0  0  0  0  0  0  0
   -0.1347    0.9487    3.5700 N   0  0  0  0  0  0  0  0  0  0  0  0
   -1.3584    0.2950    3.6970 C   0  0  0  0  0  0  0  0  0  0  0  0
   -1.7040    0.3161    5.0202 C   0  0  0  0  0  0  0  0  0  0  0  0
   -2.8622   -0.2516    5.4940 C   0  0  0  0  0  0  0  0  0  0  0  0
   -3.7498   -0.8666    4.6134 C   0  0  0  0  0  0  0  0  0  0  0  0
   -3.4318   -0.8881    3.2591 C   0  0  0  0  0  0  0  0  0  0  0  0
   -2.2483   -0.3114    2.8134 C   0  0  0  0  0  0  0  0  0  0  0  0
   -3.0362   -0.1185    6.9220 C   0  0  0  0  0  0  0  0  0  0  0  0
   -3.5001   -1.0144    7.6111 O   0  0  0  0  0  0  0  0  0  0  0  0
   -2.6260    1.2334    7.4886 C   0  0  0  0  0  0  0  0  0  0  0  0
   -1.5614    1.9444    6.6541 C   0  0  0  0  0  0  0  0  0  0  0  0
   -0.6518    1.0170    5.8492 C   0  0  3  0  0  0  0  0  0  0  0  0
    0.0282    1.8040    4.7476 C   0  0  0  0  0  0  0  0  0  0  0  0
    5.2758    1.1251    2.4748 H   0  0  0  0  0  0  0  0  0  0  0  0
    2.2812    5.4703    2.5174 H   0  0  0  0  0  0  0  0  0  0  0  0
    5.1231    5.1794    2.9618 H   0  0  0  0  0  0  0  0  0  0  0  0
    4.2985    6.5889    2.9747 H   0  0  0  0  0  0  0  0  0  0  0  0
    4.9612    7.6158   -1.5981 H   0  0  0  0  0  0  0  0  0  0  0  0
    6.2646    5.4330   -1.7223 H   0  0  0  0  0  0  0  0  0  0  0  0
    6.0074    4.2620    0.6057 H   0  0  0  0  0  0  0  0  0  0  0  0
   -4.5956   -1.2828    4.9470 H   0  0  0  0  0  0  0  0  0  0  0  0
   -4.0549   -1.3186    2.6061 H   0  0  0  0  0  0  0  0  0  0  0  0
   -2.0311   -0.3322    1.8375 H   0  0  0  0  0  0  0  0  0  0  0  0
   -2.2650    1.0942    8.4107 H   0  0  0  0  0  0  0  0  0  0  0  0
   -3.4364    1.8176    7.5325 H   0  0  0  0  0  0  0  0  0  0  0  0
   -2.0256    2.5568    6.0143 H   0  0  0  0  0  0  0  0  0  0  0  0
   -0.9883    2.4813    7.2733 H   0  0  0  0  0  0  0  0  0  0  0  0
   -0.0558    0.4207    6.3870 H   0  0  0  0  0  0  0  0  0  0  0  0
   -0.4180    2.6886    4.6119 H   0  0  0  0  0  0  0  0  0  0  0  0
    0.9959    1.9471    4.9549 H   0  0  0  0  0  0  0  0  0  0  0  0
  1  2  1  0  0  0  0
  2  3  1  0  0  0  0
  3  4  2  0  0  0  0
  4  5  1  0  0  0  0
  5  6  2  0  0  0  0
  6  7  1  0  0  0  0
  7  2  2  0  0  0  0
  5  8  1  0  0  0  0
  8  9  1  0  0  0  0
  9 10  1  0  0  0  0
 10 11  1  0  0  0  0
 11 12  1  0  0  0  0
 12 13  2  0  0  0  0
 13 14  1  0  0  0  0
 10 14  2  0  0  0  0
  3 15  1  0  0  0  0
 15 16  2  0  0  0  0
 15 17  1  0  0  0  0
 17 18  1  0  0  0  0
 18 19  1  0  0  0  0
 19 20  2  0  0  0  0
 20 21  1  0  0  0  0
 21 22  2  0  0  0  0
 22 23  1  0  0  0  0
 23 18  2  0  0  0  0
 20 24  1  0  0  0  0
 24 25  2  0  0  0  0
 24 26  1  0  0  0  0
 26 27  1  0  0  0  0
 27 28  1  0  0  0  0
 28 19  1  0  0  0  0
 28 29  1  0  0  0  0
 29 17  1  0  0  0  0
  7 30  1  0  0  0  0
  8 31  1  0  0  0  0
  9 32  1  0  0  0  0
  9 33  1  0  0  0  0
 12 34  1  0  0  0  0
 13 35  1  0  0  0  0
 14 36  1  0  0  0  0
 21 37  1  0  0  0  0
 22 38  1  0  0  0  0
 23 39  1  0  0  0  0
 26 40  1  0  0  0  0
 26 41  1  0  0  0  0
 27 42  1  0  0  0  0
 27 43  1  0  0  0  0
 28 44  1  0  0  0  0
 29 45  1  0  0  0  0
 29 46  1  0  0  0  0
M  END
>  <result-rank>
79

>  <similarity>
0.905

>  <query-name>


>  <query-smiles>
Fc1c(F)ccc(NC(=O)c2nc(cnc2Nc3cncnc3)C4CC4)c1C(=O)N5CCC5

>  <source>
REALspace_2019-12

>  <similarity-descriptor>
0.0;0.924;0.924;0.957;0.880;0.852;0.852;1.000;0.924;0.0

>  <similarity-descriptor-smiles>
;N1CC2CCC(c3c2c1ccc3)=O;N1CC2CCC(c3c2c1ccc3)=O;Clc1cncnc1;CC1=CC=CO1;C=O;C=O;N;N1CC2CCC(c3c2c1ccc3)=O;

>  <reaction-name>
s_22

>  <reagent1-name>
8852978

>  <reagent1-smiles>
[R1*]N1c2c3c(ccc2)C(=O)CCC3C1

>  <reagent2-name>
903526

>  <reagent2-smiles>
[R1*]C(=O)c1nc(ncc1Cl)NCC=2OC=CC2

$$$$
s_527a____4786924____3936972
          04022017343D 1   1.00000     0.00000     0
            
 52 55  0  0  0  0            999 V2000
    5.1421   -1.2125    1.7694 F   0  0  0  0  0  0  0  0  0  0  0  0
    4.4741   -0.1273    1.3918 C   0  0  0  0  0  0  0  0  0  0  0  0
    5.1657    1.0116    0.9942 C   0  0  0  0  0  0  0  0  0  0  0  0
    6.5647    1.0071    0.9941 N   0  0  0  0  0  0  0  0  0  0  0  0
    7.3634    0.9890    2.1333 C   0  0  0  0  0  0  0  0  0  0  0  0
    6.9716    0.9801    3.2879 O   0  0  0  0  0  0  0  0  0  0  0  0
    8.8075    0.9943    1.6750 C   0  0  0  0  0  0  0  0  0  0  0  0
    8.6960    1.6208    0.3001 C   0  0  0  0  0  0  0  0  0  0  0  0
    7.4000    1.0263   -0.2078 C   0  0  0  0  0  0  0  0  0  0  0  0
    4.4681    2.1481    0.5983 C   0  0  0  0  0  0  0  0  0  0  0  0
    3.0772    2.1465    0.5999 C   0  0  0  0  0  0  0  0  0  0  0  0
    2.3997    1.0000    1.0000 C   0  0  0  0  0  0  0  0  0  0  0  0
    1.0000    1.0000    1.0000 N   0  0  0  0  0  0  0  0  0  0  0  0
    0.3150   -0.1863    0.9831 C   0  0  0  0  0  0  0  0  0  0  0  0
    0.8607   -1.1891    0.6133 O   0  0  0  0  0  0  0  0  0  0  0  0
   -1.0674   -0.2303    1.4113 C   0  0  0  0  0  0  0  0  0  0  0  0
   -1.7908    0.9013    1.8626 C   0  0  0  0  0  0  0  0  0  0  0  0
   -1.2008    1.9382    2.0764 O   0  0  0  0  0  0  0  0  0  0  0  0
   -3.1495    0.7788    2.0786 N   0  0  0  0  0  0  0  0  0  0  0  0
   -3.8469   -0.3901    1.8946 C   0  0  0  0  0  0  0  0  0  0  0  0
   -3.0739   -1.4794    1.7068 C   0  0  0  0  0  0  0  0  0  0  0  0
   -3.5859   -2.7950    1.8964 C   0  0  0  0  0  0  0  0  0  0  0  0
   -3.0363   -3.7738    1.4516 O   0  0  0  0  0  0  0  0  0  0  0  0
   -4.8410   -2.8830    2.7412 C   0  0  0  0  0  0  0  0  0  0  0  0
   -5.8769   -1.9264    2.1657 C   0  0  0  0  0  0  0  0  0  0  0  0
   -5.3658   -0.5151    1.8889 C   0  0  0  0  0  0  0  0  0  0  0  0
   -7.0139   -1.8302    3.1685 C   0  0  0  0  0  0  0  0  0  0  0  0
   -6.4789   -2.4839    0.8801 C   0  0  0  0  0  0  0  0  0  0  0  0
   -1.6945   -1.4436    1.3718 C   0  0  0  0  0  0  0  0  0  0  0  0
    3.0834   -0.1439    1.3980 C   0  0  0  0  0  0  0  0  0  0  0  0
    9.1762    0.0662    1.6231 H   0  0  0  0  0  0  0  0  0  0  0  0
    9.3795    1.5468    2.2813 H   0  0  0  0  0  0  0  0  0  0  0  0
    8.6412    2.6177    0.3576 H   0  0  0  0  0  0  0  0  0  0  0  0
    9.4674    1.3624   -0.2813 H   0  0  0  0  0  0  0  0  0  0  0  0
    6.9946    1.5994   -0.9200 H   0  0  0  0  0  0  0  0  0  0  0  0
    7.5416    0.1026   -0.5637 H   0  0  0  0  0  0  0  0  0  0  0  0
    4.9667    2.9664    0.3125 H   0  0  0  0  0  0  0  0  0  0  0  0
    2.5702    2.9606    0.3166 H   0  0  0  0  0  0  0  0  0  0  0  0
    0.5000    1.8659    1.0124 H   0  0  0  0  0  0  0  0  0  0  0  0
   -3.6535    1.5860    2.3860 H   0  0  0  0  0  0  0  0  0  0  0  0
   -4.6315   -2.6260    3.6846 H   0  0  0  0  0  0  0  0  0  0  0  0
   -5.1965   -3.8174    2.7214 H   0  0  0  0  0  0  0  0  0  0  0  0
   -5.7007   -0.2305    0.9906 H   0  0  0  0  0  0  0  0  0  0  0  0
   -5.7336    0.0952    2.5905 H   0  0  0  0  0  0  0  0  0  0  0  0
   -7.7141   -1.2072    2.8198 H   0  0  0  0  0  0  0  0  0  0  0  0
   -7.4133   -2.7364    3.3074 H   0  0  0  0  0  0  0  0  0  0  0  0
   -6.6628   -1.4838    4.0383 H   0  0  0  0  0  0  0  0  0  0  0  0
   -7.1548   -1.8398    0.5218 H   0  0  0  0  0  0  0  0  0  0  0  0
   -5.7547   -2.6178    0.2036 H   0  0  0  0  0  0  0  0  0  0  0  0
   -6.9220   -3.3596    1.0719 H   0  0  0  0  0  0  0  0  0  0  0  0
   -1.2007   -2.2749    1.1167 H   0  0  0  0  0  0  0  0  0  0  0  0
    2.5847   -0.9624    1.6830 H   0  0  0  0  0  0  0  0  0  0  0  0
  1  2  1  0  0  0  0
  2  3  1  0  0  0  0
  3  4  1  0  0  0  0
  4  5  1  0  0  0  0
  5  6  2  0  0  0  0
  5  7  1  0  0  0  0
  7  8  1  0  0  0  0
  8  9  1  0  0  0  0
  9  4  1  0  0  0  0
  3 10  2  0  0  0  0
 10 11  1  0  0  0  0
 11 12  2  0  0  0  0
 12 13  1  0  0  0  0
 13 14  1  0  0  0  0
 14 15  2  0  0  0  0
 14 16  1  0  0  0  0
 16 17  1  0  0  0  0
 17 18  2  0  0  0  0
 17 19  1  0  0  0  0
 19 20  1  0  0  0  0
 20 21  2  0  0  0  0
 21 22  1  0  0  0  0
 22 23  2  0  0  0  0
 22 24  1  0  0  0  0
 24 25  1  0  0  0  0
 25 26  1  0  0  0  0
 26 20  1  0  0  0  0
 25 27  1  0  0  0  0
 25 28  1  0  0  0  0
 21 29  1  0  0  0  0
 16 29  2  0  0  0  0
 12 30  1  0  0  0  0
 30  2  2  0  0  0  0
  7 31  1  0  0  0  0
  7 32  1  0  0  0  0
  8 33  1  0  0  0  0
  8 34  1  0  0  0  0
  9 35  1  0  0  0  0
  9 36  1  0  0  0  0
 10 37  1  0  0  0  0
 11 38  1  0  0  0  0
 13 39  1  0  0  0  0
 19 40  1  0  0  0  0
 24 41  1  0  0  0  0
 24 42  1  0  0  0  0
 26 43  1  0  0  0  0
 26 44  1  0  0  0  0
 27 45  1  0  0  0  0
 27 46  1  0  0  0  0
 27 47  1  0  0  0  0
 28 48  1  0  0  0  0
 28 49  1  0  0  0  0
 28 50  1  0  0  0  0
 29 51  1  0  0  0  0
 30 52  1  0  0  0  0
M  END
>  <result-rank>
80

>  <similarity>
0.905

>  <query-name>


>  <query-smiles>
Fc1c(F)ccc(NC(=O)c2nc(cnc2Nc3cncnc3)C4CC4)c1C(=O)N5CCC5

>  <source>
REALspace_2019-12

>  <similarity-descriptor>
0.0;0.998;0.964;0.923;0.785;1.000;0.999;0.923;0.998;0.250

>  <similarity-descriptor-smiles>
;N1CCCC1=O;Fc1ccccc1;C1=CC=CNC1=O;C=1CCCC(C1)=O;N;C=O;C1=CC=CNC1=O;N1CCCC1=O;C.C

>  <reaction-name>
s_527a

>  <reagent1-name>
4786924

>  <reagent1-smiles>
[R1*]Nc1cc(F)c(N2C(=O)CCC2)cc1

>  <reagent2-name>
3936972

>  <reagent2-smiles>
[R1*]C(=O)C=1C(=O)NC2=C(C(=O)CC(C2)(C)C)C1

$$$$
s_527a____7042684____12218672
          04022017343D 1   1.00000     0.00000     0
            
 56 58  0  0  0  0            999 V2000
    2.1390    5.7161    2.5192 O   0  0  0  0  0  0  0  0  0  0  0  0
    3.1760    5.1124    2.5053 C   0  0  0  0  0  0  0  0  0  0  0  0
    4.3128    5.7632    2.4938 O   0  0  0  0  0  0  0  0  0  0  0  0
    4.3180    7.1832    2.4978 C   0  0  0  0  0  0  0  0  0  0  0  0
    4.3367    7.6858    3.9322 C   0  0  0  0  0  0  0  0  0  0  0  0
    5.5524    7.6874    1.7682 C   0  0  0  0  0  0  0  0  0  0  0  0
    3.0704    7.6964    1.7974 C   0  0  0  0  0  0  0  0  0  0  0  0
    3.1704    3.5924    2.5011 C   0  0  0  0  0  0  0  0  0  0  0  0
    1.9734    2.8828    2.5131 C   0  0  0  0  0  0  0  0  0  0  0  0
    0.7353    3.5779    2.5305 O   0  0  0  0  0  0  0  0  0  0  0  0
    1.9898    1.4916    2.5089 C   0  0  0  0  0  0  0  0  0  0  0  0
    3.2027    0.8099    2.4927 C   0  0  0  0  0  0  0  0  0  0  0  0
    4.3950    1.5268    2.4808 C   0  0  0  0  0  0  0  0  0  0  0  0
    5.6789    0.8111    2.4634 N   0  0  0  0  0  0  0  0  0  0  0  0
    5.6995   -0.5588    2.4590 C   0  0  0  0  0  0  0  0  0  0  0  0
    4.6695   -1.1744    2.4694 O   0  0  0  0  0  0  0  0  0  0  0  0
    6.9668   -1.2652    2.4418 C   0  0  0  0  0  0  0  0  0  0  0  0
    6.9819   -2.6841    2.4374 C   0  0  0  0  0  0  0  0  0  0  0  0
    5.9025   -3.2083    2.4489 O   0  0  0  0  0  0  0  0  0  0  0  0
    8.2111   -3.4142    2.4203 C   0  0  0  0  0  0  0  0  0  0  0  0
    8.3033   -4.8140    2.4141 C   0  0  0  0  0  0  0  0  0  0  0  0
    7.1781   -5.6802    2.4211 O   0  0  0  0  0  0  0  0  0  0  0  0
    7.3655   -7.0877    2.4141 C   0  0  0  0  0  0  0  0  0  0  0  0
    9.5261   -5.4703    2.3988 C   0  0  0  0  0  0  0  0  0  0  0  0
   10.6725   -4.6871    2.3894 C   0  0  0  0  0  0  0  0  0  0  0  0
   11.9186   -5.3678    2.3750 O   0  0  0  0  0  0  0  0  0  0  0  0
   13.1312   -4.6289    2.3648 C   0  0  0  0  0  0  0  0  0  0  0  0
   10.6238   -3.2970    2.3946 C   0  0  0  0  0  0  0  0  0  0  0  0
    9.3849   -2.6650    2.4095 C   0  0  0  0  0  0  0  0  0  0  0  0
    9.3533   -1.2943    2.4147 N   0  0  0  0  0  0  0  0  0  0  0  0
    8.1684   -0.6052    2.4303 C   0  0  0  0  0  0  0  0  0  0  0  0
    4.3871    2.9184    2.4851 C   0  0  0  0  0  0  0  0  0  0  0  0
    4.3403    8.6858    3.9350 H   0  0  0  0  0  0  0  0  0  0  0  0
    3.5245    7.3541    4.4123 H   0  0  0  0  0  0  0  0  0  0  0  0
    5.1574    7.3482    4.3931 H   0  0  0  0  0  0  0  0  0  0  0  0
    5.5561    8.6874    1.7710 H   0  0  0  0  0  0  0  0  0  0  0  0
    6.3731    7.3498    2.2290 H   0  0  0  0  0  0  0  0  0  0  0  0
    5.5401    7.3568    0.8245 H   0  0  0  0  0  0  0  0  0  0  0  0
    3.0741    8.6964    1.8002 H   0  0  0  0  0  0  0  0  0  0  0  0
    3.0581    7.3658    0.8537 H   0  0  0  0  0  0  0  0  0  0  0  0
    2.2583    7.3647    2.2774 H   0  0  0  0  0  0  0  0  0  0  0  0
   -0.1246    3.0675    2.5391 H   0  0  0  0  0  0  0  0  0  0  0  0
    1.1297    0.9816    2.5175 H   0  0  0  0  0  0  0  0  0  0  0  0
    3.2173   -0.1900    2.4895 H   0  0  0  0  0  0  0  0  0  0  0  0
    6.5372    1.3241    2.4547 H   0  0  0  0  0  0  0  0  0  0  0  0
    6.4750   -7.5426    2.4205 H   0  0  0  0  0  0  0  0  0  0  0  0
    7.8693   -7.3528    1.5919 H   0  0  0  0  0  0  0  0  0  0  0  0
    7.8843   -7.3590    3.2248 H   0  0  0  0  0  0  0  0  0  0  0  0
    9.5795   -6.4689    2.3948 H   0  0  0  0  0  0  0  0  0  0  0  0
   13.9063   -5.2606    2.3553 H   0  0  0  0  0  0  0  0  0  0  0  0
   13.1623   -4.0506    1.5496 H   0  0  0  0  0  0  0  0  0  0  0  0
   13.1788   -4.0551    3.1825 H   0  0  0  0  0  0  0  0  0  0  0  0
   11.4673   -2.7598    2.3877 H   0  0  0  0  0  0  0  0  0  0  0  0
   10.2143   -0.7857    2.4069 H   0  0  0  0  0  0  0  0  0  0  0  0
    8.1806    0.3948    2.4333 H   0  0  0  0  0  0  0  0  0  0  0  0
    5.2472    3.4285    2.4768 H   0  0  0  0  0  0  0  0  0  0  0  0
  1  2  2  0  0  0  0
  2  3  1  0  0  0  0
  3  4  1  0  0  0  0
  4  5  1  0  0  0  0
  4  6  1  0  0  0  0
  4  7  1  0  0  0  0
  2  8  1  0  0  0  0
  8  9  1  0  0  0  0
  9 10  1  0  0  0  0
  9 11  2  0  0  0  0
 11 12  1  0  0  0  0
 12 13  2  0  0  0  0
 13 14  1  0  0  0  0
 14 15  1  0  0  0  0
 15 16  2  0  0  0  0
 15 17  1  0  0  0  0
 17 18  1  0  0  0  0
 18 19  2  0  0  0  0
 18 20  1  0  0  0  0
 20 21  1  0  0  0  0
 21 22  1  0  0  0  0
 22 23  1  0  0  0  0
 21 24  2  0  0  0  0
 24 25  1  0  0  0  0
 25 26  1  0  0  0  0
 26 27  1  0  0  0  0
 25 28  2  0  0  0  0
 28 29  1  0  0  0  0
 29 20  2  0  0  0  0
 29 30  1  0  0  0  0
 30 31  1  0  0  0  0
 17 31  2  0  0  0  0
 13 32  1  0  0  0  0
 32  8  2  0  0  0  0
  5 33  1  0  0  0  0
  5 34  1  0  0  0  0
  5 35  1  0  0  0  0
  6 36  1  0  0  0  0
  6 37  1  0  0  0  0
  6 38  1  0  0  0  0
  7 39  1  0  0  0  0
  7 40  1  0  0  0  0
  7 41  1  0  0  0  0
 10 42  1  0  0  0  0
 11 43  1  0  0  0  0
 12 44  1  0  0  0  0
 14 45  1  0  0  0  0
 23 46  1  0  0  0  0
 23 47  1  0  0  0  0
 23 48  1  0  0  0  0
 24 49  1  0  0  0  0
 27 50  1  0  0  0  0
 27 51  1  0  0  0  0
 27 52  1  0  0  0  0
 28 53  1  0  0  0  0
 30 54  1  0  0  0  0
 31 55  1  0  0  0  0
 32 56  1  0  0  0  0
M  END
>  <result-rank>
81

>  <similarity>
0.904

>  <query-name>


>  <query-smiles>
Fc1c(F)ccc(NC(=O)c2nc(cnc2Nc3cncnc3)C4CC4)c1C(=O)N5CCC5

>  <source>
REALspace_2019-12

>  <similarity-descriptor>
0.0;0.868;0.944;0.962;0.927;1.000;0.999;0.962;0.855;0.188

>  <similarity-descriptor-smiles>
;C(C)(C)C;c1ccccc1;C1=CNccC1=O;c1ccc(cc1O)O;N;C=O;C1=CNccC1=O;O=CO;O.C.C

>  <reaction-name>
s_527a

>  <reagent1-name>
7042684

>  <reagent1-smiles>
[R1*]Nc1cc(c(O)cc1)C(=O)OC(C)(C)C

>  <reagent2-name>
12218672

>  <reagent2-smiles>
[R1*]C(=O)C=1C(=O)c2c(OC)cc(OC)cc2NC1

$$$$
m_274860a____17141104____12536600____15233748
          04022017343D 1   1.00000     0.00000     0
            
 49 52  0  0  0  0            999 V2000
    5.8485   -0.3278   -3.0153 F   0  0  0  0  0  0  0  0  0  0  0  0
    4.7412   -0.7106   -2.3862 C   0  0  0  0  0  0  0  0  0  0  0  0
    3.8158   -1.5131   -3.0434 C   0  0  0  0  0  0  0  0  0  0  0  0
    4.0510   -1.9159   -4.3633 N   0  0  0  0  0  0  0  0  0  0  0  0
    4.7770   -3.1711   -4.6127 C   0  0  0  0  0  0  0  0  0  0  0  0
    4.2812   -3.8443   -5.8831 C   0  0  0  0  0  0  0  0  0  0  0  0
    4.1613   -2.9143   -6.9520 O   0  0  0  0  0  0  0  0  0  0  0  0
    3.1633   -1.9435   -6.6646 C   0  0  0  0  0  0  0  0  0  0  0  0
    3.5456   -1.0863   -5.4676 C   0  0  0  0  0  0  0  0  0  0  0  0
    2.6595   -1.9091   -2.3795 C   0  0  0  0  0  0  0  0  0  0  0  0
    1.7794   -2.6759   -3.0153 F   0  0  0  0  0  0  0  0  0  0  0  0
    2.4175   -1.5140   -1.0685 C   0  0  0  0  0  0  0  0  0  0  0  0
    3.3582   -0.7116   -0.4322 C   0  0  0  0  0  0  0  0  0  0  0  0
    4.5215   -0.3024   -1.0752 C   0  0  0  0  0  0  0  0  0  0  0  0
    3.1050   -0.2731    1.0000 C   0  0  0  0  0  0  0  0  0  0  0  0
    2.3700    1.0000    1.0000 N   0  0  0  0  0  0  0  0  0  0  0  0
    1.0000    1.0000    1.0000 C   0  0  0  0  0  0  0  0  0  0  0  0
    0.4000   -0.0392    1.0000 O   0  0  0  0  0  0  0  0  0  0  0  0
    0.2400    2.3164    1.0000 C   0  0  0  0  0  0  0  0  0  0  0  0
   -0.0050    2.7407   -0.3858 N   0  0  0  0  0  0  0  0  0  0  0  0
   -1.0536    2.4297   -1.1072 N   0  0  0  0  0  0  0  0  0  0  0  0
   -0.9894    2.9399   -2.2607 N   0  0  0  0  0  0  0  0  0  0  0  0
    0.1755    3.6407   -2.3311 C   0  0  0  0  0  0  0  0  0  0  0  0
    0.6527    4.3885   -3.4808 C   0  0  0  0  0  0  0  0  0  0  0  0
    1.8159    5.0584   -3.4665 N   0  0  0  0  0  0  0  0  0  0  0  0
    2.2560    5.7514   -4.5278 C   0  0  0  0  0  0  0  0  0  0  0  0
    1.4845    5.7790   -5.6850 C   0  0  0  0  0  0  0  0  0  0  0  0
    0.3210    5.1118   -5.7071 N   0  0  0  0  0  0  0  0  0  0  0  0
   -0.1132    4.4215   -4.6419 C   0  0  0  0  0  0  0  0  0  0  0  0
    0.8146    3.5223   -1.1351 C   0  0  0  0  0  0  0  0  0  0  0  0
    4.6370   -3.7891   -3.8391 H   0  0  0  0  0  0  0  0  0  0  0  0
    5.7523   -2.9715   -4.7076 H   0  0  0  0  0  0  0  0  0  0  0  0
    4.9285   -4.5598   -6.1459 H   0  0  0  0  0  0  0  0  0  0  0  0
    3.3860   -4.2534   -5.7062 H   0  0  0  0  0  0  0  0  0  0  0  0
    2.3022   -2.4118   -6.4668 H   0  0  0  0  0  0  0  0  0  0  0  0
    3.0458   -1.3526   -7.4627 H   0  0  0  0  0  0  0  0  0  0  0  0
    4.2571   -0.4396   -5.7426 H   0  0  0  0  0  0  0  0  0  0  0  0
    2.7399   -0.5826   -5.1557 H   0  0  0  0  0  0  0  0  0  0  0  0
    1.5854   -1.8006   -0.5938 H   0  0  0  0  0  0  0  0  0  0  0  0
    5.1879    0.2748   -0.6033 H   0  0  0  0  0  0  0  0  0  0  0  0
    2.5646   -0.9700    1.4714 H   0  0  0  0  0  0  0  0  0  0  0  0
    3.9788   -0.1535    1.4714 H   0  0  0  0  0  0  0  0  0  0  0  0
    2.8700    1.8660    1.0000 H   0  0  0  0  0  0  0  0  0  0  0  0
   -0.6338    2.1968    1.4714 H   0  0  0  0  0  0  0  0  0  0  0  0
    0.7804    3.0133    1.4714 H   0  0  0  0  0  0  0  0  0  0  0  0
    3.1267    6.2414   -4.4875 H   0  0  0  0  0  0  0  0  0  0  0  0
    1.7927    6.2886   -6.4883 H   0  0  0  0  0  0  0  0  0  0  0  0
   -0.9844    3.9323   -4.6823 H   0  0  0  0  0  0  0  0  0  0  0  0
    1.6917    3.9216   -0.8680 H   0  0  0  0  0  0  0  0  0  0  0  0
  1  2  1  0  0  0  0
  2  3  1  0  0  0  0
  3  4  1  0  0  0  0
  4  5  1  0  0  0  0
  5  6  1  0  0  0  0
  6  7  1  0  0  0  0
  7  8  1  0  0  0  0
  8  9  1  0  0  0  0
  9  4  1  0  0  0  0
  3 10  2  0  0  0  0
 10 11  1  0  0  0  0
 10 12  1  0  0  0  0
 12 13  2  0  0  0  0
 13 14  1  0  0  0  0
 14  2  2  0  0  0  0
 13 15  1  0  0  0  0
 15 16  1  0  0  0  0
 16 17  1  0  0  0  0
 17 18  2  0  0  0  0
 17 19  1  0  0  0  0
 19 20  1  0  0  0  0
 20 21  1  0  0  0  0
 21 22  2  0  0  0  0
 22 23  1  0  0  0  0
 23 24  1  0  0  0  0
 24 25  1  0  0  0  0
 25 26  2  0  0  0  0
 26 27  1  0  0  0  0
 27 28  2  0  0  0  0
 28 29  1  0  0  0  0
 29 24  2  0  0  0  0
 23 30  2  0  0  0  0
 30 20  1  0  0  0  0
  5 31  1  0  0  0  0
  5 32  1  0  0  0  0
  6 33  1  0  0  0  0
  6 34  1  0  0  0  0
  8 35  1  0  0  0  0
  8 36  1  0  0  0  0
  9 37  1  0  0  0  0
  9 38  1  0  0  0  0
 12 39  1  0  0  0  0
 14 40  1  0  0  0  0
 15 41  1  0  0  0  0
 15 42  1  0  0  0  0
 16 43  1  0  0  0  0
 19 44  1  0  0  0  0
 19 45  1  0  0  0  0
 26 46  1  0  0  0  0
 27 47  1  0  0  0  0
 29 48  1  0  0  0  0
 30 49  1  0  0  0  0
M  END
>  <result-rank>
82

>  <similarity>
0.904

>  <query-name>


>  <query-smiles>
Fc1c(F)ccc(NC(=O)c2nc(cnc2Nc3cncnc3)C4CC4)c1C(=O)N5CCC5

>  <source>
REALspace_2019-12

>  <similarity-descriptor>
0.0;0.856;1.000;0.891;0.919;0.723;1.000;0.919;0.856;0.0

>  <similarity-descriptor-smiles>
;N1CCOCC1;Fc1cccc(c1)F;CN1C=CN=N1;c1cnccn1;CN;C=O;c1cnccn1;N1CCOCC1;

>  <reaction-name>
m_274860a

>  <reagent1-name>
17141104

>  <reagent1-smiles>
[R3*]NCc1cc(F)c(N2CCOCC2)c(F)c1

>  <reagent2-name>
12536600

>  <reagent2-smiles>
[R1*]N=NN([R2*])CC([R3*])=O

>  <reagent3-name>
15233748

>  <reagent3-smiles>
[R1*]C(c1nccnc1)=C[R2*]

$$$$
m_276010a____17282234____17261590____17280668
          04022017343D 1   1.00000     0.00000     0
            
 45 48  0  0  0  0            999 V2000
    6.2933   -3.2829   -0.2498 Br  0  0  0  0  0  0  0  0  0  0  0  0
    5.7737   -3.8247    1.5609 C   0  0  0  0  0  0  0  0  0  0  0  0
    6.5214   -4.8178    2.2468 C   0  0  0  0  0  0  0  0  0  0  0  0
    7.4851   -5.3220    1.6892 O   0  0  0  0  0  0  0  0  0  0  0  0
    6.1337   -5.1757    3.5131 N   0  0  0  0  0  0  0  0  0  0  0  0
    5.0891   -4.6226    4.1048 N   0  0  0  0  0  0  0  0  0  0  0  0
    4.3645   -3.6950    3.5035 C   0  0  0  0  0  0  0  0  0  0  0  0
    4.6935   -3.2628    2.1903 C   0  0  0  0  0  0  0  0  0  0  0  0
    3.9447   -2.2816    1.5279 N   0  0  0  0  0  0  0  0  0  0  0  0
    3.3122   -2.4412    0.3921 N   0  0  0  0  0  0  0  0  0  0  0  0
    2.7279   -1.3740    0.0505 N   0  0  0  0  0  0  0  0  0  0  0  0
    2.9766   -0.4328    1.0000 C   0  0  0  0  0  0  0  0  0  0  0  0
    3.7550   -1.0052    1.9545 C   0  0  0  0  0  0  0  0  0  0  0  0
    2.4700    1.0000    1.0000 C   0  0  0  0  0  0  0  0  0  0  0  0
    1.0000    1.0000    1.0000 N   0  0  0  0  0  0  0  0  0  0  0  0
    0.3150    1.0000    2.1865 C   0  0  0  0  0  0  0  0  0  0  0  0
    0.9150    1.0000    3.2257 O   0  0  0  0  0  0  0  0  0  0  0  0
   -1.1354    1.0000    2.1865 C   0  0  0  0  0  0  0  0  0  0  0  0
   -1.8468    1.4087    1.0635 C   0  0  0  0  0  0  0  0  0  0  0  0
   -1.1971    1.8061   -0.0269 F   0  0  0  0  0  0  0  0  0  0  0  0
   -3.2379    1.4029    1.0809 C   0  0  0  0  0  0  0  0  0  0  0  0
   -3.9174    0.9875    2.2214 C   0  0  0  0  0  0  0  0  0  0  0  0
   -3.1976    0.5800    3.3401 C   0  0  0  0  0  0  0  0  0  0  0  0
   -3.8812    0.1622    4.4851 N   0  0  0  0  0  0  0  0  0  0  0  0
   -4.2710   -1.1474    4.7478 C   0  0  0  0  0  0  0  0  0  0  0  0
   -4.0837   -2.1132    4.0275 O   0  0  0  0  0  0  0  0  0  0  0  0
   -4.9807   -1.1497    6.0864 C   0  0  0  0  0  0  0  0  0  0  0  0
   -5.4557    0.2852    6.1899 C   0  0  0  0  0  0  0  0  0  0  0  0
   -4.2951    1.0413    5.5799 C   0  0  0  0  0  0  0  0  0  0  0  0
   -1.8067    0.5833    3.3318 C   0  0  0  0  0  0  0  0  0  0  0  0
    6.6559   -5.8743    4.0022 H   0  0  0  0  0  0  0  0  0  0  0  0
    3.5794   -3.2946    3.9760 H   0  0  0  0  0  0  0  0  0  0  0  0
    4.1103   -0.5810    2.7875 H   0  0  0  0  0  0  0  0  0  0  0  0
    2.8033    1.4714    1.8165 H   0  0  0  0  0  0  0  0  0  0  0  0
    2.8033    1.4714    0.1835 H   0  0  0  0  0  0  0  0  0  0  0  0
    0.5000    1.0000    0.1340 H   0  0  0  0  0  0  0  0  0  0  0  0
   -3.7493    1.6974    0.2736 H   0  0  0  0  0  0  0  0  0  0  0  0
   -4.9173    0.9817    2.2371 H   0  0  0  0  0  0  0  0  0  0  0  0
   -4.3533   -1.3798    6.8304 H   0  0  0  0  0  0  0  0  0  0  0  0
   -5.7498   -1.7887    6.0893 H   0  0  0  0  0  0  0  0  0  0  0  0
   -6.2973    0.4285    5.6692 H   0  0  0  0  0  0  0  0  0  0  0  0
   -5.6035    0.5519    7.1423 H   0  0  0  0  0  0  0  0  0  0  0  0
   -4.5866    1.9337    5.2356 H   0  0  0  0  0  0  0  0  0  0  0  0
   -3.5564    1.1647    6.2426 H   0  0  0  0  0  0  0  0  0  0  0  0
   -1.2952    0.2897    4.1394 H   0  0  0  0  0  0  0  0  0  0  0  0
  1  2  1  0  0  0  0
  2  3  1  0  0  0  0
  3  4  2  0  0  0  0
  3  5  1  0  0  0  0
  5  6  1  0  0  0  0
  6  7  2  0  0  0  0
  7  8  1  0  0  0  0
  2  8  2  0  0  0  0
  8  9  1  0  0  0  0
  9 10  1  0  0  0  0
 10 11  2  0  0  0  0
 11 12  1  0  0  0  0
 12 13  2  0  0  0  0
 13  9  1  0  0  0  0
 12 14  1  0  0  0  0
 14 15  1  0  0  0  0
 15 16  1  0  0  0  0
 16 17  2  0  0  0  0
 16 18  1  0  0  0  0
 18 19  1  0  0  0  0
 19 20  1  0  0  0  0
 19 21  2  0  0  0  0
 21 22  1  0  0  0  0
 22 23  2  0  0  0  0
 23 24  1  0  0  0  0
 24 25  1  0  0  0  0
 25 26  2  0  0  0  0
 25 27  1  0  0  0  0
 27 28  1  0  0  0  0
 28 29  1  0  0  0  0
 29 24  1  0  0  0  0
 23 30  1  0  0  0  0
 30 18  2  0  0  0  0
  5 31  1  0  0  0  0
  7 32  1  0  0  0  0
 13 33  1  0  0  0  0
 14 34  1  0  0  0  0
 14 35  1  0  0  0  0
 15 36  1  0  0  0  0
 21 37  1  0  0  0  0
 22 38  1  0  0  0  0
 27 39  1  0  0  0  0
 27 40  1  0  0  0  0
 28 41  1  0  0  0  0
 28 42  1  0  0  0  0
 29 43  1  0  0  0  0
 29 44  1  0  0  0  0
 30 45  1  0  0  0  0
M  END
>  <result-rank>
83

>  <similarity>
0.904

>  <query-name>


>  <query-smiles>
Fc1c(F)ccc(NC(=O)c2nc(cnc2Nc3cncnc3)C4CC4)c1C(=O)N5CCC5

>  <source>
REALspace_2019-12

>  <similarity-descriptor>
0.0;0.998;0.962;0.810;0.926;0.852;0.852;0.926;0.998;0.0

>  <similarity-descriptor-smiles>
;N1CCCC1=O;c1ccccc1F;N1C=C(N=N1)CN;BrC1=CC=NNC1=O;C=O;C=O;BrC1=CC=NNC1=O;N1CCCC1=O;

>  <reaction-name>
m_276010a

>  <reagent1-name>
17282234

>  <reagent1-smiles>
[R1*]N=NN([R2*])C1=C(Br)C(=O)NN=C1

>  <reagent2-name>
17261590

>  <reagent2-smiles>
[R3*]C(=O)c1c(F)ccc(N2C(=O)CCC2)c1

>  <reagent3-name>
17280668

>  <reagent3-smiles>
[R3*]NCC([R1*])=C[R2*]

$$$$
s_22____1041906____16917034
          04022017343D 1   1.00000     0.00000     0
            
 59 62  0  0  0  0            999 V2000
    1.7477   -2.7666    5.2040 F   0  0  0  0  0  0  0  0  0  0  0  0
    1.9482   -3.4331    4.0710 C   0  0  0  0  0  0  0  0  0  0  0  0
    2.1416   -2.7292    2.8869 C   0  0  0  0  0  0  0  0  0  0  0  0
    2.1242   -1.3291    2.8924 N   0  0  0  0  0  0  0  0  0  0  0  0
    3.2280   -0.6288    2.4827 C   0  0  0  0  0  0  0  0  0  0  0  0
    4.2099   -1.2152    2.1192 O   0  0  0  0  0  0  0  0  0  0  0  0
    3.2100    0.8240    2.4884 C   0  0  0  0  0  0  0  0  0  0  0  0
    2.0117    1.5313    2.4983 C   0  0  0  0  0  0  0  0  0  0  0  0
    2.0243    2.8725    2.5059 N   0  0  0  0  0  0  0  0  0  0  0  0
    3.1702    3.5719    2.5043 C   0  0  0  0  0  0  0  0  0  0  0  0
    4.3360    2.9082    2.4938 N   0  0  0  0  0  0  0  0  0  0  0  0
    4.3850    1.5680    2.4868 C   0  0  0  0  0  0  0  0  0  0  0  0
    3.1526    5.0958    2.5128 C   0  0  0  0  0  0  0  0  0  0  0  0
    2.4419    5.6720    1.3101 C   0  0  0  0  0  0  0  0  0  0  0  0
    3.4917    6.6893    1.2896 N   0  0  0  0  0  0  0  0  0  0  0  0
    3.6219    8.0210    0.8441 C   0  0  0  0  0  0  0  0  0  0  0  0
    4.6636    8.6006    0.9817 O   0  0  0  0  0  0  0  0  0  0  0  0
    2.6056    8.6253    0.2801 O   0  0  0  0  0  0  0  0  0  0  0  0
    2.7367    9.9662   -0.1684 C   0  0  0  0  0  0  0  0  0  0  0  0
    3.0898   10.8618    1.0080 C   0  0  0  0  0  0  0  0  0  0  0  0
    3.8373   10.0455   -1.2137 C   0  0  0  0  0  0  0  0  0  0  0  0
    1.4234   10.4268   -0.7795 C   0  0  0  0  0  0  0  0  0  0  0  0
    4.3910    5.7030    1.8834 C   0  0  0  0  0  0  0  0  0  0  0  0
    2.3529   -3.4046    1.6902 C   0  0  0  0  0  0  0  0  0  0  0  0
    2.3668   -4.7947    1.7010 C   0  0  0  0  0  0  0  0  0  0  0  0
    2.5763   -5.4894    0.5066 N   0  0  0  0  0  0  0  0  0  0  0  0
    1.5716   -5.8986   -0.3647 C   0  0  0  0  0  0  0  0  0  0  0  0
    0.3742   -5.7212   -0.2179 O   0  0  0  0  0  0  0  0  0  0  0  0
    2.2381   -6.6145   -1.5216 C   0  0  0  0  0  0  0  0  0  0  0  0
    3.5412   -7.0702   -0.8972 C   0  0  0  0  0  0  0  0  0  0  0  0
    3.8855   -5.8963   -0.0060 C   0  0  0  0  0  0  0  0  0  0  0  0
    2.1746   -5.5046    2.8810 C   0  0  0  0  0  0  0  0  0  0  0  0
    1.9635   -4.8241    4.0754 C   0  0  0  0  0  0  0  0  0  0  0  0
    1.3060   -0.8404    3.1953 H   0  0  0  0  0  0  0  0  0  0  0  0
    1.1410    1.0395    2.4997 H   0  0  0  0  0  0  0  0  0  0  0  0
    5.2697    1.1019    2.4803 H   0  0  0  0  0  0  0  0  0  0  0  0
    2.8880    5.5035    3.3867 H   0  0  0  0  0  0  0  0  0  0  0  0
    2.4197    5.0744    0.5085 H   0  0  0  0  0  0  0  0  0  0  0  0
    1.5223    6.0202    1.4919 H   0  0  0  0  0  0  0  0  0  0  0  0
    3.1821   11.8061    0.6921 H   0  0  0  0  0  0  0  0  0  0  0  0
    2.3657   10.8096    1.6957 H   0  0  0  0  0  0  0  0  0  0  0  0
    3.9538   10.5588    1.4100 H   0  0  0  0  0  0  0  0  0  0  0  0
    3.9297   10.9898   -1.5296 H   0  0  0  0  0  0  0  0  0  0  0  0
    4.7014    9.7426   -0.8117 H   0  0  0  0  0  0  0  0  0  0  0  0
    3.6051    9.4564   -1.9877 H   0  0  0  0  0  0  0  0  0  0  0  0
    1.5157   11.3711   -1.0954 H   0  0  0  0  0  0  0  0  0  0  0  0
    1.1911    9.8376   -1.5534 H   0  0  0  0  0  0  0  0  0  0  0  0
    0.6993   10.3746   -0.0918 H   0  0  0  0  0  0  0  0  0  0  0  0
    5.0541    6.0750    2.5329 H   0  0  0  0  0  0  0  0  0  0  0  0
    4.8619    5.1135    1.2270 H   0  0  0  0  0  0  0  0  0  0  0  0
    2.4922   -2.9001    0.8381 H   0  0  0  0  0  0  0  0  0  0  0  0
    2.3998   -5.9939   -2.2889 H   0  0  0  0  0  0  0  0  0  0  0  0
    1.6915   -7.3925   -1.8315 H   0  0  0  0  0  0  0  0  0  0  0  0
    3.4164   -7.9073   -0.3646 H   0  0  0  0  0  0  0  0  0  0  0  0
    4.2452   -7.2188   -1.5917 H   0  0  0  0  0  0  0  0  0  0  0  0
    4.4939   -6.1739    0.7375 H   0  0  0  0  0  0  0  0  0  0  0  0
    4.3133   -5.1592   -0.5292 H   0  0  0  0  0  0  0  0  0  0  0  0
    2.1881   -6.5045    2.8709 H   0  0  0  0  0  0  0  0  0  0  0  0
    1.8243   -5.3288    4.9274 H   0  0  0  0  0  0  0  0  0  0  0  0
  1  2  1  0  0  0  0
  2  3  1  0  0  0  0
  3  4  1  0  0  0  0
  4  5  1  0  0  0  0
  5  6  2  0  0  0  0
  5  7  1  0  0  0  0
  7  8  1  0  0  0  0
  8  9  2  0  0  0  0
  9 10  1  0  0  0  0
 10 11  2  0  0  0  0
 11 12  1  0  0  0  0
 12  7  2  0  0  0  0
 10 13  1  0  0  0  0
 13 14  1  0  0  0  0
 14 15  1  0  0  0  0
 15 16  1  0  0  0  0
 16 17  2  0  0  0  0
 16 18  1  0  0  0  0
 18 19  1  0  0  0  0
 19 20  1  0  0  0  0
 19 21  1  0  0  0  0
 19 22  1  0  0  0  0
 15 23  1  0  0  0  0
 23 13  1  0  0  0  0
  3 24  2  0  0  0  0
 24 25  1  0  0  0  0
 25 26  1  0  0  0  0
 26 27  1  0  0  0  0
 27 28  2  0  0  0  0
 27 29  1  0  0  0  0
 29 30  1  0  0  0  0
 30 31  1  0  0  0  0
 31 26  1  0  0  0  0
 25 32  2  0  0  0  0
 32 33  1  0  0  0  0
 33  2  2  0  0  0  0
  4 34  1  0  0  0  0
  8 35  1  0  0  0  0
 12 36  1  0  0  0  0
 13 37  1  0  0  0  0
 14 38  1  0  0  0  0
 14 39  1  0  0  0  0
 20 40  1  0  0  0  0
 20 41  1  0  0  0  0
 20 42  1  0  0  0  0
 21 43  1  0  0  0  0
 21 44  1  0  0  0  0
 21 45  1  0  0  0  0
 22 46  1  0  0  0  0
 22 47  1  0  0  0  0
 22 48  1  0  0  0  0
 23 49  1  0  0  0  0
 23 50  1  0  0  0  0
 24 51  1  0  0  0  0
 29 52  1  0  0  0  0
 29 53  1  0  0  0  0
 30 54  1  0  0  0  0
 30 55  1  0  0  0  0
 31 56  1  0  0  0  0
 31 57  1  0  0  0  0
 32 58  1  0  0  0  0
 33 59  1  0  0  0  0
M  END
>  <result-rank>
84

>  <similarity>
0.904

>  <query-name>


>  <query-smiles>
Fc1c(F)ccc(NC(=O)c2nc(cnc2Nc3cncnc3)C4CC4)c1C(=O)N5CCC5

>  <source>
REALspace_2019-12

>  <similarity-descriptor>
0.985;0.998;0.964;0.958;0.0;1.000;1.000;0.0;0.998;0.500

>  <similarity-descriptor-smiles>
C1CNC1;N1CCCC1=O;Fc1ccccc1;c1cncnc1;;N;C=O;;N1CCCC1=O;C=O.O.C.C.C.C

>  <reaction-name>
s_22

>  <reagent1-name>
1041906

>  <reagent1-smiles>
[R1*]Nc1c(F)ccc(N2C(=O)CCC2)c1

>  <reagent2-name>
16917034

>  <reagent2-smiles>
[R1*]C(=O)c1cnc(nc1)C2CN(C(=O)OC(C)(C)C)C2

$$$$
s_22____14942836____537792
          04022017343D 1   1.00000     0.00000     0
            
 59 63  0  0  0  0            999 V2000
    7.2163   -5.7584    2.4086 Br  0  0  0  0  0  0  0  0  0  0  0  0
    7.5096   -3.8205    2.4237 C   0  0  0  0  0  0  0  0  0  0  0  0
    8.7883   -3.2702    2.4310 C   0  0  0  0  0  0  0  0  0  0  0  0
    9.8483   -4.1130    2.4244 O   0  0  0  0  0  0  0  0  0  0  0  0
   11.0672   -3.8096    1.7555 C   0  0  0  0  0  0  0  0  0  0  0  0
   11.9509   -2.9091    2.6072 C   0  0  0  0  0  0  0  0  0  0  0  0
   11.1469   -1.8253    3.3119 C   0  0  0  0  0  0  0  0  0  0  0  0
   10.1372   -1.2669    2.4801 O   0  0  0  0  0  0  0  0  0  0  0  0
    8.9350   -1.8823    2.4440 C   0  0  0  0  0  0  0  0  0  0  0  0
    7.8232   -1.0495    2.4317 C   0  0  0  0  0  0  0  0  0  0  0  0
    6.5512   -1.6107    2.4340 C   0  0  0  0  0  0  0  0  0  0  0  0
    5.4254   -0.7794    2.4522 N   0  0  0  0  0  0  0  0  0  0  0  0
    5.5792    0.5819    2.4581 C   0  0  0  0  0  0  0  0  0  0  0  0
    6.6791    1.0616    2.4477 O   0  0  0  0  0  0  0  0  0  0  0  0
    4.3565    1.4848    2.4779 C   0  0  0  0  0  0  0  0  0  0  0  0
    4.3868    2.8868    2.4855 C   0  0  0  0  0  0  0  0  0  0  0  0
    3.1707    3.5688    2.5011 C   0  0  0  0  0  0  0  0  0  0  0  0
    2.0283    2.8572    2.5053 N   0  0  0  0  0  0  0  0  0  0  0  0
    1.9888    1.5141    2.4982 C   0  0  0  0  0  0  0  0  0  0  0  0
    3.1638    0.7761    2.4835 C   0  0  0  0  0  0  0  0  0  0  0  0
    0.6846    0.7321    2.5062 C   0  0  0  0  0  0  0  0  0  0  0  0
    0.2104    0.4636    1.1079 C   0  0  0  0  0  0  0  0  0  0  0  0
   -0.4602    1.5203    1.9379 C   0  0  0  0  0  0  0  0  0  0  0  0
    3.1580    4.9432    2.5113 N   0  0  0  0  0  0  0  0  0  0  0  0
    4.3258    5.6654    2.5085 C   0  0  0  0  0  0  0  0  0  0  0  0
    4.3162    6.8653    2.5186 O   0  0  0  0  0  0  0  0  0  0  0  0
    5.5408    5.0309    2.4943 N   0  0  0  0  0  0  0  0  0  0  0  0
    5.5851    3.6684    2.4825 C   0  0  0  0  0  0  0  0  0  0  0  0
    6.6958    3.2144    2.4662 O   0  0  0  0  0  0  0  0  0  0  0  0
    1.8958    5.6965    2.5257 C   0  0  0  0  0  0  0  0  0  0  0  0
    1.4709    5.9456    3.9637 C   0  0  0  0  0  0  0  0  0  0  0  0
    0.1657    6.7245    3.9786 C   0  0  0  0  0  0  0  0  0  0  0  0
    1.2749    4.6150    4.6719 C   0  0  0  0  0  0  0  0  0  0  0  0
    6.3925   -2.9925    2.4281 C   0  0  0  0  0  0  0  0  0  0  0  0
   10.8603   -3.3445    0.8948 H   0  0  0  0  0  0  0  0  0  0  0  0
   11.5558   -4.6611    1.5652 H   0  0  0  0  0  0  0  0  0  0  0  0
   12.6323   -2.4745    2.0182 H   0  0  0  0  0  0  0  0  0  0  0  0
   12.4131   -3.4678    3.2958 H   0  0  0  0  0  0  0  0  0  0  0  0
   10.7127   -2.2228    4.1202 H   0  0  0  0  0  0  0  0  0  0  0  0
   11.7702   -1.0956    3.5931 H   0  0  0  0  0  0  0  0  0  0  0  0
    7.9367   -0.0560    2.4212 H   0  0  0  0  0  0  0  0  0  0  0  0
    4.5088   -1.1791    2.4609 H   0  0  0  0  0  0  0  0  0  0  0  0
    3.1515   -0.2238    2.4773 H   0  0  0  0  0  0  0  0  0  0  0  0
    0.5145    0.0587    3.2256 H   0  0  0  0  0  0  0  0  0  0  0  0
   -0.2709   -0.3875    0.8979 H   0  0  0  0  0  0  0  0  0  0  0  0
    0.7787    0.7262    0.3281 H   0  0  0  0  0  0  0  0  0  0  0  0
   -0.3383    2.4866    1.7110 H   0  0  0  0  0  0  0  0  0  0  0  0
   -1.3879    1.3729    2.2809 H   0  0  0  0  0  0  0  0  0  0  0  0
    6.3875    5.5630    2.4927 H   0  0  0  0  0  0  0  0  0  0  0  0
    1.1878    5.1696    2.0554 H   0  0  0  0  0  0  0  0  0  0  0  0
    2.0247    6.5719    2.0598 H   0  0  0  0  0  0  0  0  0  0  0  0
    2.1788    6.4724    4.4340 H   0  0  0  0  0  0  0  0  0  0  0  0
   -0.1139    6.8884    4.9246 H   0  0  0  0  0  0  0  0  0  0  0  0
    0.2946    7.5999    3.5127 H   0  0  0  0  0  0  0  0  0  0  0  0
   -0.5423    6.1977    3.5083 H   0  0  0  0  0  0  0  0  0  0  0  0
    0.9953    4.7789    5.6179 H   0  0  0  0  0  0  0  0  0  0  0  0
    0.5669    4.0882    4.2016 H   0  0  0  0  0  0  0  0  0  0  0  0
    2.1336    4.1026    4.6621 H   0  0  0  0  0  0  0  0  0  0  0  0
    5.4751   -3.3905    2.4269 H   0  0  0  0  0  0  0  0  0  0  0  0
  1  2  1  0  0  0  0
  2  3  1  0  0  0  0
  3  4  1  0  0  0  0
  4  5  1  0  0  0  0
  5  6  1  0  0  0  0
  6  7  1  0  0  0  0
  7  8  1  0  0  0  0
  8  9  1  0  0  0  0
  9  3  2  0  0  0  0
  9 10  1  0  0  0  0
 10 11  2  0  0  0  0
 11 12  1  0  0  0  0
 12 13  1  0  0  0  0
 13 14  2  0  0  0  0
 13 15  1  0  0  0  0
 15 16  1  0  0  0  0
 16 17  2  0  0  0  0
 17 18  1  0  0  0  0
 18 19  2  0  0  0  0
 19 20  1  0  0  0  0
 20 15  2  0  0  0  0
 19 21  1  0  0  0  0
 21 22  1  0  0  0  0
 22 23  1  0  0  0  0
 23 21  1  0  0  0  0
 17 24  1  0  0  0  0
 24 25  1  0  0  0  0
 25 26  2  0  0  0  0
 25 27  1  0  0  0  0
 27 28  1  0  0  0  0
 28 16  1  0  0  0  0
 28 29  2  0  0  0  0
 24 30  1  0  0  0  0
 30 31  1  0  0  0  0
 31 32  1  0  0  0  0
 31 33  1  0  0  0  0
 11 34  1  0  0  0  0
 34  2  2  0  0  0  0
  5 35  1  0  0  0  0
  5 36  1  0  0  0  0
  6 37  1  0  0  0  0
  6 38  1  0  0  0  0
  7 39  1  0  0  0  0
  7 40  1  0  0  0  0
 10 41  1  0  0  0  0
 12 42  1  0  0  0  0
 20 43  1  0  0  0  0
 21 44  1  0  0  0  0
 22 45  1  0  0  0  0
 22 46  1  0  0  0  0
 23 47  1  0  0  0  0
 23 48  1  0  0  0  0
 27 49  1  0  0  0  0
 30 50  1  0  0  0  0
 30 51  1  0  0  0  0
 31 52  1  0  0  0  0
 32 53  1  0  0  0  0
 32 54  1  0  0  0  0
 32 55  1  0  0  0  0
 33 56  1  0  0  0  0
 33 57  1  0  0  0  0
 33 58  1  0  0  0  0
 34 59  1  0  0  0  0
M  END
>  <result-rank>
85

>  <similarity>
0.904

>  <query-name>


>  <query-smiles>
Fc1c(F)ccc(NC(=O)c2nc(cnc2Nc3cncnc3)C4CC4)c1C(=O)N5CCC5

>  <source>
REALspace_2019-12

>  <similarity-descriptor>
1.000;0.908;0.994;0.855;0.846;1.000;1.000;0.846;0.908;0.364

>  <similarity-descriptor-smiles>
C1CC1;c1cOCCCO1;Brc1ccccc1;c1ccncc1;c1C(NC(Nc1)=O)=O;N;C=O;c1C(NC(Nc1)=O)=O;c1cOCCCO1;C.C.C.C

>  <reaction-name>
s_22

>  <reagent1-name>
14942836

>  <reagent1-smiles>
[R1*]Nc1cc(Br)c2OCCCOc2c1

>  <reagent2-name>
537792

>  <reagent2-smiles>
[R1*]C(=O)c1c2c(nc(c1)C3CC3)N(C(=O)NC2=O)CC(C)C

$$$$
s_22____124809____782382
          04022017343D 1   1.00000     0.00000     0
            
 48 51  0  0  0  0            999 V2000
   -2.6332   -3.2057    4.9529 Cl  0  0  0  0  0  0  0  0  0  0  0  0
   -2.3479   -2.4160    3.3828 C   0  0  0  0  0  0  0  0  0  0  0  0
   -2.5568   -3.0783    2.1763 C   0  0  0  0  0  0  0  0  0  0  0  0
   -2.9917   -4.3605    2.2129 O   0  0  0  0  0  0  0  0  0  0  0  0
   -3.8732   -4.8979    1.2342 C   0  0  0  0  0  0  0  0  0  0  0  0
   -3.1146   -5.3266   -0.0129 C   0  0  0  0  0  0  0  0  0  0  0  0
   -2.0360   -4.3217   -0.3902 C   0  0  0  0  0  0  0  0  0  0  0  0
   -2.4644   -2.9745   -0.2329 O   0  0  0  0  0  0  0  0  0  0  0  0
   -2.3125   -2.4024    0.9799 C   0  0  0  0  0  0  0  0  0  0  0  0
   -1.8813   -1.0836    0.9771 C   0  0  0  0  0  0  0  0  0  0  0  0
   -1.6617   -0.4332    2.1865 C   0  0  0  0  0  0  0  0  0  0  0  0
   -1.8976   -1.1004    3.3840 C   0  0  0  0  0  0  0  0  0  0  0  0
   -1.1550    1.0000    2.1865 C   0  0  0  0  0  0  0  0  0  0  0  0
    0.3150    1.0000    2.1865 N   0  0  0  0  0  0  0  0  0  0  0  0
    1.0000    1.0000    1.0000 C   0  0  0  0  0  0  0  0  0  0  0  0
    0.4000    1.0000   -0.0392 O   0  0  0  0  0  0  0  0  0  0  0  0
    2.5200    1.0000    1.0000 C   0  0  0  0  0  0  0  0  0  0  0  0
    3.0270   -0.4122    0.7510 C   0  0  0  0  0  0  0  0  0  0  0  0
    3.0675   -0.9435   -0.5666 C   0  0  0  0  0  0  0  0  0  0  0  0
    2.6849   -0.2394   -1.4880 O   0  0  0  0  0  0  0  0  0  0  0  0
    3.5214   -2.2163   -0.8057 N   0  0  0  0  0  0  0  0  0  0  0  0
    3.6332   -2.9007   -1.9267 N   0  0  0  0  0  0  0  0  0  0  0  0
    4.1092   -4.0989   -1.7116 C   0  0  0  0  0  0  0  0  0  0  0  0
    4.3123   -4.1745   -0.3164 C   0  0  0  0  0  0  0  0  0  0  0  0
    4.8548   -5.3780    0.4356 C   0  0  0  0  0  0  0  0  0  0  0  0
    5.2618   -6.2810    0.9999 N   0  0  0  0  0  0  0  0  0  0  0  0
    3.9376   -2.9804    0.2297 C   0  0  0  0  0  0  0  0  0  0  0  0
    3.9031   -2.4735    1.5068 N   0  0  0  0  0  0  0  0  0  0  0  0
    3.4553   -1.2056    1.7848 C   0  0  0  0  0  0  0  0  0  0  0  0
    3.4224   -0.6589    3.2044 C   0  0  0  0  0  0  0  0  0  0  0  0
   -4.5460   -4.2018    0.9837 H   0  0  0  0  0  0  0  0  0  0  0  0
   -4.3431   -5.6922    1.6194 H   0  0  0  0  0  0  0  0  0  0  0  0
   -3.7600   -5.4093   -0.7722 H   0  0  0  0  0  0  0  0  0  0  0  0
   -2.6854   -6.2135    0.1579 H   0  0  0  0  0  0  0  0  0  0  0  0
   -1.2381   -4.4742    0.1929 H   0  0  0  0  0  0  0  0  0  0  0  0
   -1.7827   -4.4676   -1.3465 H   0  0  0  0  0  0  0  0  0  0  0  0
   -1.7296   -0.6047    0.1124 H   0  0  0  0  0  0  0  0  0  0  0  0
   -1.7421   -0.6302    4.2528 H   0  0  0  0  0  0  0  0  0  0  0  0
   -1.4883    1.4714    1.3700 H   0  0  0  0  0  0  0  0  0  0  0  0
   -1.4883    1.4714    3.0030 H   0  0  0  0  0  0  0  0  0  0  0  0
    0.8150    1.0000    3.0525 H   0  0  0  0  0  0  0  0  0  0  0  0
    2.8533    1.3225    1.8860 H   0  0  0  0  0  0  0  0  0  0  0  0
    2.8533    1.6060    0.2778 H   0  0  0  0  0  0  0  0  0  0  0  0
    4.2908   -4.8103   -2.3905 H   0  0  0  0  0  0  0  0  0  0  0  0
    4.2158   -3.0498    2.2618 H   0  0  0  0  0  0  0  0  0  0  0  0
    3.0658    0.2753    3.1936 H   0  0  0  0  0  0  0  0  0  0  0  0
    2.8317   -1.2347    3.7697 H   0  0  0  0  0  0  0  0  0  0  0  0
    4.3480   -0.6581    3.5828 H   0  0  0  0  0  0  0  0  0  0  0  0
  1  2  1  0  0  0  0
  2  3  1  0  0  0  0
  3  4  1  0  0  0  0
  4  5  1  0  0  0  0
  5  6  1  0  0  0  0
  6  7  1  0  0  0  0
  7  8  1  0  0  0  0
  8  9  1  0  0  0  0
  9  3  2  0  0  0  0
  9 10  1  0  0  0  0
 10 11  2  0  0  0  0
 11 12  1  0  0  0  0
 12  2  2  0  0  0  0
 11 13  1  0  0  0  0
 13 14  1  0  0  0  0
 14 15  1  0  0  0  0
 15 16  2  0  0  0  0
 15 17  1  0  0  0  0
 17 18  1  0  0  0  0
 18 19  1  0  0  0  0
 19 20  2  0  0  0  0
 19 21  1  0  0  0  0
 21 22  1  0  0  0  0
 22 23  2  0  0  0  0
 23 24  1  0  0  0  0
 24 25  1  0  0  0  0
 25 26  3  0  0  0  0
 24 27  2  0  0  0  0
 27 21  1  0  0  0  0
 27 28  1  0  0  0  0
 28 29  1  0  0  0  0
 18 29  2  0  0  0  0
 29 30  1  0  0  0  0
  5 31  1  0  0  0  0
  5 32  1  0  0  0  0
  6 33  1  0  0  0  0
  6 34  1  0  0  0  0
  7 35  1  0  0  0  0
  7 36  1  0  0  0  0
 10 37  1  0  0  0  0
 12 38  1  0  0  0  0
 13 39  1  0  0  0  0
 13 40  1  0  0  0  0
 14 41  1  0  0  0  0
 17 42  1  0  0  0  0
 17 43  1  0  0  0  0
 23 44  1  0  0  0  0
 28 45  1  0  0  0  0
 30 46  1  0  0  0  0
 30 47  1  0  0  0  0
 30 48  1  0  0  0  0
M  END
>  <result-rank>
86

>  <similarity>
0.904

>  <query-name>


>  <query-smiles>
Fc1c(F)ccc(NC(=O)c2nc(cnc2Nc3cncnc3)C4CC4)c1C(=O)N5CCC5

>  <source>
REALspace_2019-12

>  <similarity-descriptor>
0.0;0.908;0.946;0.943;0.898;1.000;0.861;0.943;0.908;0.100

>  <similarity-descriptor-smiles>
;c1cOCCCO1;Clc1cc(ccc1)C;C1=CNCNC1=O;N1C=C(C=N1)C#N;N;C(=O)C;C1=CNCNC1=O;c1cOCCCO1;C

>  <reaction-name>
s_22

>  <reagent1-name>
124809

>  <reagent1-smiles>
[R1*]NCc1cc(Cl)c2OCCCOc2c1

>  <reagent2-name>
782382

>  <reagent2-smiles>
[R1*]C(=O)CC1=C(O)N2N=CC(C#N)=C2N=C1C

$$$$
s_2430a____1041920____10160092
          04022017343D 1   1.00000     0.00000     0
            
 46 49  0  0  0  0            999 V2000
   -1.5799    3.5766   -0.4243 F   0  0  0  0  0  0  0  0  0  0  0  0
   -1.9616    2.9341    0.6756 C   0  0  0  0  0  0  0  0  0  0  0  0
   -1.0219    2.2230    1.4147 C   0  0  0  0  0  0  0  0  0  0  0  0
    0.3150    2.1865    1.0000 N   0  0  0  0  0  0  0  0  0  0  0  0
    1.0000    1.0000    1.0000 C   0  0  0  0  0  0  0  0  0  0  0  0
    0.4000   -0.0392    1.0000 O   0  0  0  0  0  0  0  0  0  0  0  0
    2.3700    1.0000    1.0000 N   0  0  0  0  0  0  0  0  0  0  0  0
    3.0615   -0.1977    1.0000 N   0  0  0  0  0  0  0  0  0  0  0  0
    4.4644   -0.1977    1.0000 C   0  0  0  0  0  0  0  0  0  0  0  0
    5.1964   -1.3249    1.0000 N   0  0  0  0  0  0  0  0  0  0  0  0
    6.4907   -1.3138    1.0008 N   0  0  0  0  0  0  0  0  0  0  0  0
    7.2027   -0.1741    1.0017 C   0  0  0  0  0  0  0  0  0  0  0  0
    8.6031   -0.1489    1.0022 N   0  0  0  0  0  0  0  0  0  0  0  0
    9.4185   -1.2407    1.0018 C   0  0  0  0  0  0  0  0  0  0  0  0
   10.6567   -0.8044    1.0028 N   0  0  0  0  0  0  0  0  0  0  0  0
   10.6715    0.5594    1.0019 C   0  0  0  0  0  0  0  0  0  0  0  0
    9.3742    0.9748    1.0005 C   0  0  0  0  0  0  0  0  0  0  0  0
    6.5177    1.0361    1.0016 C   0  0  0  0  0  0  0  0  0  0  0  0
    5.1270    1.0248    1.0010 C   0  0  0  0  0  0  0  0  0  0  0  0
   -1.3976    1.5435    2.5679 C   0  0  0  0  0  0  0  0  0  0  0  0
   -2.7288    1.5888    2.9664 C   0  0  0  0  0  0  0  0  0  0  0  0
   -3.1247    0.9089    4.1243 N   0  0  0  0  0  0  0  0  0  0  0  0
   -3.5779   -0.4062    4.1613 C   0  0  0  0  0  0  0  0  0  0  0  0
   -3.7028   -1.1524    3.2051 O   0  0  0  0  0  0  0  0  0  0  0  0
   -3.8983   -0.7352    5.6050 C   0  0  0  0  0  0  0  0  0  0  0  0
   -4.1599    0.6388    6.1873 C   0  0  0  0  0  0  0  0  0  0  0  0
   -3.1262    1.4813    5.4714 C   0  0  0  0  0  0  0  0  0  0  0  0
   -3.6732    2.2980    2.2325 C   0  0  0  0  0  0  0  0  0  0  0  0
   -3.2920    2.9760    1.0795 C   0  0  0  0  0  0  0  0  0  0  0  0
    0.7698    3.0264    0.7038 H   0  0  0  0  0  0  0  0  0  0  0  0
    2.8700    1.8660    1.0000 H   0  0  0  0  0  0  0  0  0  0  0  0
    2.5615   -1.0637    1.0000 H   0  0  0  0  0  0  0  0  0  0  0  0
    9.1274   -2.1974    1.0008 H   0  0  0  0  0  0  0  0  0  0  0  0
   11.4825    1.1445    1.0021 H   0  0  0  0  0  0  0  0  0  0  0  0
    9.0504    1.9209    0.9985 H   0  0  0  0  0  0  0  0  0  0  0  0
    7.0179    1.9020    1.0020 H   0  0  0  0  0  0  0  0  0  0  0  0
    4.6119    1.8819    1.0013 H   0  0  0  0  0  0  0  0  0  0  0  0
   -0.7234    1.0319    3.1006 H   0  0  0  0  0  0  0  0  0  0  0  0
   -3.1254   -1.1807    6.0568 H   0  0  0  0  0  0  0  0  0  0  0  0
   -4.7068   -1.3197    5.6741 H   0  0  0  0  0  0  0  0  0  0  0  0
   -5.0880    0.9500    5.9829 H   0  0  0  0  0  0  0  0  0  0  0  0
   -4.0155    0.6483    7.1767 H   0  0  0  0  0  0  0  0  0  0  0  0
   -3.3947    2.4444    5.4541 H   0  0  0  0  0  0  0  0  0  0  0  0
   -2.2279    1.3934    5.9020 H   0  0  0  0  0  0  0  0  0  0  0  0
   -4.6265    2.3205    2.5337 H   0  0  0  0  0  0  0  0  0  0  0  0
   -3.9665    3.4875    0.5471 H   0  0  0  0  0  0  0  0  0  0  0  0
  1  2  1  0  0  0  0
  2  3  1  0  0  0  0
  3  4  1  0  0  0  0
  4  5  1  0  0  0  0
  5  6  2  0  0  0  0
  5  7  1  0  0  0  0
  7  8  1  0  0  0  0
  8  9  1  0  0  0  0
  9 10  1  0  0  0  0
 10 11  2  0  0  0  0
 11 12  1  0  0  0  0
 12 13  1  0  0  0  0
 13 14  1  0  0  0  0
 14 15  2  0  0  0  0
 15 16  1  0  0  0  0
 16 17  2  0  0  0  0
 17 13  1  0  0  0  0
 12 18  2  0  0  0  0
 18 19  1  0  0  0  0
 19  9  2  0  0  0  0
  3 20  2  0  0  0  0
 20 21  1  0  0  0  0
 21 22  1  0  0  0  0
 22 23  1  0  0  0  0
 23 24  2  0  0  0  0
 23 25  1  0  0  0  0
 25 26  1  0  0  0  0
 26 27  1  0  0  0  0
 27 22  1  0  0  0  0
 21 28  2  0  0  0  0
 28 29  1  0  0  0  0
 29  2  2  0  0  0  0
  4 30  1  0  0  0  0
  7 31  1  0  0  0  0
  8 32  1  0  0  0  0
 14 33  1  0  0  0  0
 16 34  1  0  0  0  0
 17 35  1  0  0  0  0
 18 36  1  0  0  0  0
 19 37  1  0  0  0  0
 20 38  1  0  0  0  0
 25 39  1  0  0  0  0
 25 40  1  0  0  0  0
 26 41  1  0  0  0  0
 26 42  1  0  0  0  0
 27 43  1  0  0  0  0
 27 44  1  0  0  0  0
 28 45  1  0  0  0  0
 29 46  1  0  0  0  0
M  END
>  <result-rank>
87

>  <similarity>
0.904

>  <query-name>


>  <query-smiles>
Fc1c(F)ccc(NC(=O)c2nc(cnc2Nc3cncnc3)C4CC4)c1C(=O)N5CCC5

>  <source>
REALspace_2019-12

>  <similarity-descriptor>
0.0;0.998;0.964;0.906;0.866;1.000;0.731;0.906;0.998;0.0

>  <similarity-descriptor-smiles>
;N1CCCC1=O;Fc1ccccc1;c1cccnn1;N1C=CN=C1;N;C(=O)NN;c1cccnn1;N1CCCC1=O;

>  <reaction-name>
s_2430a

>  <reagent1-name>
1041920

>  <reagent1-smiles>
[R1*]C(=O)Nc1c(F)ccc(N2C(=O)CCC2)c1

>  <reagent2-name>
10160092

>  <reagent2-smiles>
[R1*]NNc1nnc(N2C=NC=C2)cc1

$$$$
s_22____15475860____5728682
          04022017343D 1   1.00000     0.00000     0
            
 49 53  0  0  0  0            999 V2000
    2.5121    2.5283    2.7925 F   0  0  0  0  0  0  0  0  0  0  0  0
    3.1618    1.7751    1.9096 C   0  0  0  0  0  0  0  0  0  0  0  0
    2.4504    1.0000    1.0000 C   0  0  0  0  0  0  0  0  0  0  0  0
    3.1217    0.2096    0.0723 C   0  0  0  0  0  0  0  0  0  0  0  0
    4.5126    0.2036    0.0656 C   0  0  0  0  0  0  0  0  0  0  0  0
    5.1975   -0.5892   -0.8632 N   0  0  0  0  0  0  0  0  0  0  0  0
    5.2441   -1.9797   -0.8440 C   0  0  0  0  0  0  0  0  0  0  0  0
    4.7090   -2.7074   -0.0249 O   0  0  0  0  0  0  0  0  0  0  0  0
    6.0910   -2.4216   -2.0200 C   0  0  0  0  0  0  0  0  0  0  0  0
    6.9500   -1.1974   -2.2630 C   0  0  0  0  0  0  0  0  0  0  0  0
    5.9726   -0.0738   -1.9928 C   0  0  0  0  0  0  0  0  0  0  0  0
    5.2324    0.9760    0.9716 C   0  0  0  0  0  0  0  0  0  0  0  0
    4.5529    1.7636    1.8953 C   0  0  0  0  0  0  0  0  0  0  0  0
    1.0000    1.0000    1.0000 C   0  0  0  0  0  0  0  0  0  0  0  0
    0.4000   -0.0392    1.0079 O   0  0  0  0  0  0  0  0  0  0  0  0
    0.2969    2.2178    0.9907 N   0  0  0  0  0  0  0  0  0  0  0  0
   -0.5477    2.5217    2.0712 C   0  0  0  0  0  0  0  0  0  0  0  0
   -1.6007    3.4184    1.8925 C   0  0  0  0  0  0  0  0  0  0  0  0
   -1.8161    4.0005    0.6395 N   0  0  0  0  0  0  0  0  0  0  0  0
   -0.8698    3.8840   -0.3884 C   0  0  0  0  0  0  0  0  0  0  0  0
   -1.1636    4.4099   -1.4591 O   0  0  0  0  0  0  0  0  0  0  0  0
    0.4327    3.1260   -0.1631 C   0  0  0  0  0  0  0  0  0  0  0  0
    1.7750    3.8327   -0.1622 C   0  0  0  0  0  0  0  0  0  0  0  0
    1.8416    3.6631   -1.6765 C   0  0  0  0  0  0  0  0  0  0  0  0
    0.9546    2.4744   -1.4272 C   0  0  0  0  0  0  0  0  0  0  0  0
   -2.4659    3.7225    2.9390 C   0  0  0  0  0  0  0  0  0  0  0  0
   -2.2661    3.1264    4.1785 C   0  0  0  0  0  0  0  0  0  0  0  0
   -3.1024    3.4170    5.1663 F   0  0  0  0  0  0  0  0  0  0  0  0
   -1.2195    2.2347    4.3881 C   0  0  0  0  0  0  0  0  0  0  0  0
   -0.3735    1.9483    3.3237 C   0  0  0  0  0  0  0  0  0  0  0  0
    2.6102   -0.3475   -0.5819 H   0  0  0  0  0  0  0  0  0  0  0  0
    5.5251   -2.6330   -2.8169 H   0  0  0  0  0  0  0  0  0  0  0  0
    6.6496   -3.2177   -1.7873 H   0  0  0  0  0  0  0  0  0  0  0  0
    7.7249   -1.1654   -1.6318 H   0  0  0  0  0  0  0  0  0  0  0  0
    7.2856   -1.1694   -3.2046 H   0  0  0  0  0  0  0  0  0  0  0  0
    6.4509    0.7695   -1.7475 H   0  0  0  0  0  0  0  0  0  0  0  0
    5.3870    0.0938   -2.7859 H   0  0  0  0  0  0  0  0  0  0  0  0
    6.2323    0.9652    0.9589 H   0  0  0  0  0  0  0  0  0  0  0  0
    5.0643    2.3215    2.5489 H   0  0  0  0  0  0  0  0  0  0  0  0
   -2.6609    4.5094    0.4735 H   0  0  0  0  0  0  0  0  0  0  0  0
    2.4938    3.3494    0.3375 H   0  0  0  0  0  0  0  0  0  0  0  0
    1.7384    4.7841    0.1436 H   0  0  0  0  0  0  0  0  0  0  0  0
    2.7472    3.4524   -2.0448 H   0  0  0  0  0  0  0  0  0  0  0  0
    1.4287    4.4018   -2.2092 H   0  0  0  0  0  0  0  0  0  0  0  0
    0.2577    2.3309   -2.1298 H   0  0  0  0  0  0  0  0  0  0  0  0
    1.4511    1.6205   -1.2709 H   0  0  0  0  0  0  0  0  0  0  0  0
   -3.2222    4.3620    2.8009 H   0  0  0  0  0  0  0  0  0  0  0  0
   -1.0793    1.8103    5.2826 H   0  0  0  0  0  0  0  0  0  0  0  0
    0.3834    1.3100    3.4640 H   0  0  0  0  0  0  0  0  0  0  0  0
  1  2  1  0  0  0  0
  2  3  1  0  0  0  0
  3  4  2  0  0  0  0
  4  5  1  0  0  0  0
  5  6  1  0  0  0  0
  6  7  1  0  0  0  0
  7  8  2  0  0  0  0
  7  9  1  0  0  0  0
  9 10  1  0  0  0  0
 10 11  1  0  0  0  0
 11  6  1  0  0  0  0
  5 12  2  0  0  0  0
 12 13  1  0  0  0  0
 13  2  2  0  0  0  0
  3 14  1  0  0  0  0
 14 15  2  0  0  0  0
 14 16  1  0  0  0  0
 16 17  1  0  0  0  0
 17 18  1  0  0  0  0
 18 19  1  0  0  0  0
 19 20  1  0  0  0  0
 20 21  2  0  0  0  0
 20 22  1  0  0  0  0
 22 16  1  0  0  0  0
 22 23  1  0  0  0  0
 23 24  1  0  0  0  0
 24 25  1  0  0  0  0
 25 22  1  0  0  0  0
 18 26  2  0  0  0  0
 26 27  1  0  0  0  0
 27 28  1  0  0  0  0
 27 29  2  0  0  0  0
 29 30  1  0  0  0  0
 30 17  2  0  0  0  0
  4 31  1  0  0  0  0
  9 32  1  0  0  0  0
  9 33  1  0  0  0  0
 10 34  1  0  0  0  0
 10 35  1  0  0  0  0
 11 36  1  0  0  0  0
 11 37  1  0  0  0  0
 12 38  1  0  0  0  0
 13 39  1  0  0  0  0
 19 40  1  0  0  0  0
 23 41  1  0  0  0  0
 23 42  1  0  0  0  0
 24 43  1  0  0  0  0
 24 44  1  0  0  0  0
 25 45  1  0  0  0  0
 25 46  1  0  0  0  0
 26 47  1  0  0  0  0
 29 48  1  0  0  0  0
 30 49  1  0  0  0  0
M  END
>  <result-rank>
88

>  <similarity>
0.904

>  <query-name>


>  <query-smiles>
Fc1c(F)ccc(NC(=O)c2nc(cnc2Nc3cncnc3)C4CC4)c1C(=O)N5CCC5

>  <source>
REALspace_2019-12

>  <similarity-descriptor>
0.972;0.998;0.962;0.842;0.784;0.852;0.852;0.842;0.998;0.0

>  <similarity-descriptor-smiles>
C1CCC1;N1CCCC1=O;Fc1ccccc1;N1CC(Ncc1)=O;c1ccc(cc1)F;C=O;C=O;N1CC(Ncc1)=O;N1CCCC1=O;

>  <reaction-name>
s_22

>  <reagent1-name>
15475860

>  <reagent1-smiles>
[R1*]N1c2c(NC(=O)C13CCC3)cc(F)cc2

>  <reagent2-name>
5728682

>  <reagent2-smiles>
[R1*]C(=O)c1c(F)ccc(N2C(=O)CCC2)c1

$$$$
s_22____13160284____9172612
          04022017343D 1   1.00000     0.00000     0
            
 50 53  0  0  0  0            999 V2000
    6.9447    0.9896    1.0125 Cl  0  0  0  0  0  0  0  0  0  0  0  0
    5.1648    0.9946    1.0073 C   0  0  0  0  0  0  0  0  0  0  0  0
    4.4640    0.3490    2.0208 C   0  0  0  0  0  0  0  0  0  0  0  0
    5.1670   -0.3014    3.0414 N   0  0  0  0  0  0  0  0  0  0  0  0
    5.5259   -1.6156    2.8960 C   0  0  0  0  0  0  0  0  0  0  0  0
    5.2375   -2.2090    1.8936 O   0  0  0  0  0  0  0  0  0  0  0  0
    6.2897   -2.3222    4.0048 C   0  0  0  0  0  0  0  0  0  0  0  0
    7.6002   -1.6416    4.2730 C   0  0  0  0  0  0  0  0  0  0  0  0
    7.5691   -2.9389    3.5171 C   0  0  0  0  0  0  0  0  0  0  0  0
    3.0736    0.3463    2.0260 C   0  0  0  0  0  0  0  0  0  0  0  0
    2.4000    1.0000    1.0000 C   0  0  0  0  0  0  0  0  0  0  0  0
    1.0000    1.0000    1.0000 N   0  0  0  0  0  0  0  0  0  0  0  0
    0.3150    2.1853    1.0518 C   0  0  0  0  0  0  0  0  0  0  0  0
    0.8607    3.1767    1.4509 O   0  0  0  0  0  0  0  0  0  0  0  0
   -1.0699    2.2419    0.6242 C   0  0  0  0  0  0  0  0  0  0  0  0
   -2.0174    2.6350    1.5341 N   0  0  0  0  0  0  0  0  0  0  0  0
   -3.3508    2.7177    1.2178 C   0  0  0  0  0  0  0  0  0  0  0  0
   -4.2934    3.1196    2.1618 C   0  0  0  0  0  0  0  0  0  0  0  0
   -3.9325    3.4424    3.4225 O   0  0  0  0  0  0  0  0  0  0  0  0
   -4.9177    3.8484    4.3612 C   0  0  0  0  0  0  0  0  0  0  0  0
   -5.6424    3.2020    1.8346 C   0  0  0  0  0  0  0  0  0  0  0  0
   -6.0669    2.8805    0.5498 C   0  0  0  0  0  0  0  0  0  0  0  0
   -5.1203    2.4807   -0.3869 C   0  0  0  0  0  0  0  0  0  0  0  0
   -3.7653    2.3938   -0.0722 C   0  0  0  0  0  0  0  0  0  0  0  0
   -2.7990    1.9838   -1.0336 C   0  0  0  0  0  0  0  0  0  0  0  0
   -3.1030    1.6873   -2.1803 O   0  0  0  0  0  0  0  0  0  0  0  0
   -1.4302    1.9126   -0.6577 C   0  0  0  0  0  0  0  0  0  0  0  0
   -0.3959    1.4748   -1.6827 C   0  0  0  0  0  0  0  0  0  0  0  0
    3.0950    1.6468   -0.0161 C   0  0  0  0  0  0  0  0  0  0  0  0
    4.4866    1.6463   -0.0173 C   0  0  0  0  0  0  0  0  0  0  0  0
    5.4073    0.1931    3.8767 H   0  0  0  0  0  0  0  0  0  0  0  0
    5.7891   -2.7488    4.7581 H   0  0  0  0  0  0  0  0  0  0  0  0
    7.9678   -1.6132    5.2025 H   0  0  0  0  0  0  0  0  0  0  0  0
    7.8285   -0.7916    3.7981 H   0  0  0  0  0  0  0  0  0  0  0  0
    7.7764   -2.9529    2.5389 H   0  0  0  0  0  0  0  0  0  0  0  0
    7.9158   -3.7745    3.9433 H   0  0  0  0  0  0  0  0  0  0  0  0
    2.5677   -0.1169    2.7537 H   0  0  0  0  0  0  0  0  0  0  0  0
    0.5000    0.1348    0.9622 H   0  0  0  0  0  0  0  0  0  0  0  0
   -1.7266    2.8700    2.4616 H   0  0  0  0  0  0  0  0  0  0  0  0
   -4.4803    4.0482    5.2380 H   0  0  0  0  0  0  0  0  0  0  0  0
   -5.3805    4.6685    4.0249 H   0  0  0  0  0  0  0  0  0  0  0  0
   -5.5859    3.1142    4.4816 H   0  0  0  0  0  0  0  0  0  0  0  0
   -6.3072    3.4924    2.5229 H   0  0  0  0  0  0  0  0  0  0  0  0
   -7.0347    2.9358    0.3042 H   0  0  0  0  0  0  0  0  0  0  0  0
   -5.4201    2.2491   -1.3123 H   0  0  0  0  0  0  0  0  0  0  0  0
    0.5116    1.4777   -1.2627 H   0  0  0  0  0  0  0  0  0  0  0  0
   -0.6126    0.5522   -2.0018 H   0  0  0  0  0  0  0  0  0  0  0  0
   -0.4065    2.1066   -2.4578 H   0  0  0  0  0  0  0  0  0  0  0  0
    2.5946    2.1124   -0.7461 H   0  0  0  0  0  0  0  0  0  0  0  0
    4.9925    2.1086   -0.7456 H   0  0  0  0  0  0  0  0  0  0  0  0
  1  2  1  0  0  0  0
  2  3  1  0  0  0  0
  3  4  1  0  0  0  0
  4  5  1  0  0  0  0
  5  6  2  0  0  0  0
  5  7  1  0  0  0  0
  7  8  1  0  0  0  0
  8  9  1  0  0  0  0
  9  7  1  0  0  0  0
  3 10  2  0  0  0  0
 10 11  1  0  0  0  0
 11 12  1  0  0  0  0
 12 13  1  0  0  0  0
 13 14  2  0  0  0  0
 13 15  1  0  0  0  0
 15 16  1  0  0  0  0
 16 17  1  0  0  0  0
 17 18  1  0  0  0  0
 18 19  1  0  0  0  0
 19 20  1  0  0  0  0
 18 21  2  0  0  0  0
 21 22  1  0  0  0  0
 22 23  2  0  0  0  0
 23 24  1  0  0  0  0
 24 17  2  0  0  0  0
 24 25  1  0  0  0  0
 25 26  2  0  0  0  0
 25 27  1  0  0  0  0
 15 27  2  0  0  0  0
 27 28  1  0  0  0  0
 11 29  2  0  0  0  0
 29 30  1  0  0  0  0
 30  2  2  0  0  0  0
  4 31  1  0  0  0  0
  7 32  1  0  0  0  0
  8 33  1  0  0  0  0
  8 34  1  0  0  0  0
  9 35  1  0  0  0  0
  9 36  1  0  0  0  0
 10 37  1  0  0  0  0
 12 38  1  0  0  0  0
 16 39  1  0  0  0  0
 20 40  1  0  0  0  0
 20 41  1  0  0  0  0
 20 42  1  0  0  0  0
 21 43  1  0  0  0  0
 22 44  1  0  0  0  0
 23 45  1  0  0  0  0
 28 46  1  0  0  0  0
 28 47  1  0  0  0  0
 28 48  1  0  0  0  0
 29 49  1  0  0  0  0
 30 50  1  0  0  0  0
M  END
>  <result-rank>
89

>  <similarity>
0.904

>  <query-name>


>  <query-smiles>
Fc1c(F)ccc(NC(=O)c2nc(cnc2Nc3cncnc3)C4CC4)c1C(=O)N5CCC5

>  <source>
REALspace_2019-12

>  <similarity-descriptor>
0.0;0.966;0.954;0.920;0.873;1.000;0.999;0.920;0.852;0.182

>  <similarity-descriptor-smiles>
;C1CC1;Clc1ccccc1;C1=CC(ccN1)=O;c1ccccc1O;N;C=O;C1=CC(ccN1)=O;NC=O;C.C

>  <reaction-name>
s_22

>  <reagent1-name>
13160284

>  <reagent1-smiles>
[R1*]Nc1cc(NC(=O)C2CC2)c(Cl)cc1

>  <reagent2-name>
9172612

>  <reagent2-smiles>
[R1*]C(=O)C=1Nc2c(OC)cccc2C(=O)C1C

$$$$
s_527a____518116____736122
          04022017343D 1   1.00000     0.00000     0
            
 53 56  0  0  0  0            999 V2000
    5.2087   -1.4150   -3.1709 O   0  0  0  0  0  0  0  0  0  0  0  0
    5.1990   -0.2921   -2.7477 C   0  0  0  0  0  0  0  0  0  0  0  0
    4.1962    0.2763   -1.9715 N   0  0  0  0  0  0  0  0  0  0  0  0
    2.9674   -0.4057   -1.5410 C   0  0  0  0  0  0  0  0  0  0  0  0
    3.2087   -1.0894   -0.2051 C   0  0  0  0  0  0  0  0  0  0  0  0
    2.9767   -0.4333    1.0000 C   0  0  0  0  0  0  0  0  0  0  0  0
    3.2085   -1.0891    2.2047 C   0  0  0  0  0  0  0  0  0  0  0  0
    3.6723   -2.4011    2.2047 C   0  0  0  0  0  0  0  0  0  0  0  0
    3.9033   -3.0572    0.9998 C   0  0  0  0  0  0  0  0  0  0  0  0
    3.6720   -2.4012   -0.2049 C   0  0  0  0  0  0  0  0  0  0  0  0
    2.4700    1.0000    1.0000 C   0  0  0  0  0  0  0  0  0  0  0  0
    1.0000    1.0000    1.0000 N   0  0  0  0  0  0  0  0  0  0  0  0
    0.3150    1.0000    2.1865 C   0  0  0  0  0  0  0  0  0  0  0  0
    0.9116    1.0906    3.2237 O   0  0  0  0  0  0  0  0  0  0  0  0
   -1.1315    0.8905    2.1888 C   0  0  0  0  0  0  0  0  0  0  0  0
   -1.9334    2.0638    2.1914 C   0  0  0  0  0  0  0  0  0  0  0  0
   -1.3743    3.1507    2.1915 O   0  0  0  0  0  0  0  0  0  0  0  0
   -3.3511    1.9402    2.1937 C   0  0  0  0  0  0  0  0  0  0  0  0
   -3.9185    0.6697    2.1941 C   0  0  0  0  0  0  0  0  0  0  0  0
   -3.1138   -0.4405    2.1914 N   0  0  0  0  0  0  0  0  0  0  0  0
   -1.7467   -0.3349    2.1890 C   0  0  0  0  0  0  0  0  0  0  0  0
   -5.2996    0.5053    2.1965 C   0  0  0  0  0  0  0  0  0  0  0  0
   -6.1099    1.6358    2.1986 C   0  0  0  0  0  0  0  0  0  0  0  0
   -7.4511    1.5136    2.2011 O   0  0  0  0  0  0  0  0  0  0  0  0
   -8.1561    1.4506    3.4321 C   0  0  0  0  0  0  0  0  0  0  0  0
   -5.5761    2.9186    2.1993 C   0  0  0  0  0  0  0  0  0  0  0  0
   -4.1928    3.0499    2.1968 C   0  0  0  0  0  0  0  0  0  0  0  0
    4.5462    1.6637   -1.6542 C   0  0  0  0  0  0  0  0  0  0  0  0
    6.0539    1.6722   -1.7775 C   0  0  0  0  0  0  0  0  0  0  0  0
    6.2712    0.7574   -2.9644 C   0  0  0  0  0  0  0  0  0  0  0  0
    2.7091   -1.0894   -2.2236 H   0  0  0  0  0  0  0  0  0  0  0  0
    2.2309    0.2638   -1.4446 H   0  0  0  0  0  0  0  0  0  0  0  0
    3.0418   -0.6177    3.0707 H   0  0  0  0  0  0  0  0  0  0  0  0
    3.8394   -2.8723    3.0707 H   0  0  0  0  0  0  0  0  0  0  0  0
    4.2357   -4.0003    0.9998 H   0  0  0  0  0  0  0  0  0  0  0  0
    3.8388   -2.8726   -1.0709 H   0  0  0  0  0  0  0  0  0  0  0  0
    2.8033    1.4714    1.8165 H   0  0  0  0  0  0  0  0  0  0  0  0
    2.8033    1.4714    0.1835 H   0  0  0  0  0  0  0  0  0  0  0  0
    0.5000    1.0000    0.1340 H   0  0  0  0  0  0  0  0  0  0  0  0
   -3.5336   -1.3481    2.1912 H   0  0  0  0  0  0  0  0  0  0  0  0
   -1.1893   -1.1651    2.1873 H   0  0  0  0  0  0  0  0  0  0  0  0
   -5.7030   -0.4098    2.1966 H   0  0  0  0  0  0  0  0  0  0  0  0
   -9.1355    1.3612    3.2512 H   0  0  0  0  0  0  0  0  0  0  0  0
   -7.8405    0.6600    3.9569 H   0  0  0  0  0  0  0  0  0  0  0  0
   -7.9887    2.2863    3.9553 H   0  0  0  0  0  0  0  0  0  0  0  0
   -6.1698    3.7233    2.2014 H   0  0  0  0  0  0  0  0  0  0  0  0
   -3.7909    3.9655    2.1972 H   0  0  0  0  0  0  0  0  0  0  0  0
    4.2603    1.9032   -0.7263 H   0  0  0  0  0  0  0  0  0  0  0  0
    4.1290    2.2974   -2.3056 H   0  0  0  0  0  0  0  0  0  0  0  0
    6.4889    1.3093   -0.9534 H   0  0  0  0  0  0  0  0  0  0  0  0
    6.3995    2.5928   -1.9589 H   0  0  0  0  0  0  0  0  0  0  0  0
    6.1360    1.2431   -3.8280 H   0  0  0  0  0  0  0  0  0  0  0  0
    7.1854    0.3524   -2.9494 H   0  0  0  0  0  0  0  0  0  0  0  0
  1  2  2  0  0  0  0
  2  3  1  0  0  0  0
  3  4  1  0  0  0  0
  4  5  1  0  0  0  0
  5  6  1  0  0  0  0
  6  7  2  0  0  0  0
  7  8  1  0  0  0  0
  8  9  2  0  0  0  0
  9 10  1  0  0  0  0
 10  5  2  0  0  0  0
  6 11  1  0  0  0  0
 11 12  1  0  0  0  0
 12 13  1  0  0  0  0
 13 14  2  0  0  0  0
 13 15  1  0  0  0  0
 15 16  1  0  0  0  0
 16 17  2  0  0  0  0
 16 18  1  0  0  0  0
 18 19  1  0  0  0  0
 19 20  1  0  0  0  0
 20 21  1  0  0  0  0
 15 21  2  0  0  0  0
 19 22  2  0  0  0  0
 22 23  1  0  0  0  0
 23 24  1  0  0  0  0
 24 25  1  0  0  0  0
 23 26  2  0  0  0  0
 26 27  1  0  0  0  0
 27 18  2  0  0  0  0
  3 28  1  0  0  0  0
 28 29  1  0  0  0  0
 29 30  1  0  0  0  0
 30  2  1  0  0  0  0
  4 31  1  0  0  0  0
  4 32  1  0  0  0  0
  7 33  1  0  0  0  0
  8 34  1  0  0  0  0
  9 35  1  0  0  0  0
 10 36  1  0  0  0  0
 11 37  1  0  0  0  0
 11 38  1  0  0  0  0
 12 39  1  0  0  0  0
 20 40  1  0  0  0  0
 21 41  1  0  0  0  0
 22 42  1  0  0  0  0
 25 43  1  0  0  0  0
 25 44  1  0  0  0  0
 25 45  1  0  0  0  0
 26 46  1  0  0  0  0
 27 47  1  0  0  0  0
 28 48  1  0  0  0  0
 28 49  1  0  0  0  0
 29 50  1  0  0  0  0
 29 51  1  0  0  0  0
 30 52  1  0  0  0  0
 30 53  1  0  0  0  0
M  END
>  <result-rank>
90

>  <similarity>
0.903

>  <query-name>


>  <query-smiles>
Fc1c(F)ccc(NC(=O)c2nc(cnc2Nc3cncnc3)C4CC4)c1C(=O)N5CCC5

>  <source>
REALspace_2019-12

>  <similarity-descriptor>
0.0;0.998;0.884;0.962;0.873;0.723;0.999;0.962;0.998;0.100

>  <similarity-descriptor-smiles>
;O=C1CCCN1;Cc1ccccc1;C1=CNccC1=O;c1ccc(cc1)O;CN;C=O;C1=CNccC1=O;O=C1CCCN1;C

>  <reaction-name>
s_527a

>  <reagent1-name>
518116

>  <reagent1-smiles>
[R1*]NCc1c(cccc1)CN2C(=O)CCC2

>  <reagent2-name>
736122

>  <reagent2-smiles>
[R1*]C(=O)c1c(O)c2c(nc1)cc(OC)cc2

$$$$
m_274860a____17134546____12536600____15233748
          04022017343D 1   1.00000     0.00000     0
            
 45 47  0  0  0  0            999 V2000
    2.1895    3.3458    0.1980 F   0  0  0  0  0  0  0  0  0  0  0  0
    0.9204    3.3877    0.5906 C   0  0  0  0  0  0  0  0  0  0  0  0
    0.3004    2.2117    1.0000 C   0  0  0  0  0  0  0  0  0  0  0  0
    1.0000    1.0000    1.0000 N   0  0  0  0  0  0  0  0  0  0  0  0
    2.3830    1.0000    1.0000 N   0  0  0  0  0  0  0  0  0  0  0  0
    3.0680   -0.1763    0.8451 C   0  0  0  0  0  0  0  0  0  0  0  0
    2.4680   -1.2066    0.7095 O   0  0  0  0  0  0  0  0  0  0  0  0
    4.5880   -0.1763    0.8451 C   0  0  0  0  0  0  0  0  0  0  0  0
    5.0780   -0.3572    2.2191 N   0  0  0  0  0  0  0  0  0  0  0  0
    5.3330   -1.5059    2.7954 N   0  0  0  0  0  0  0  0  0  0  0  0
    5.7427   -1.3483    3.9797 N   0  0  0  0  0  0  0  0  0  0  0  0
    5.7671   -0.0100    4.2269 C   0  0  0  0  0  0  0  0  0  0  0  0
    6.1762    0.6204    5.4694 C   0  0  0  0  0  0  0  0  0  0  0  0
    6.1747    1.9531    5.6305 N   0  0  0  0  0  0  0  0  0  0  0  0
    6.5549    2.5359    6.7777 C   0  0  0  0  0  0  0  0  0  0  0  0
    6.9645    1.7362    7.8396 C   0  0  0  0  0  0  0  0  0  0  0  0
    6.9684    0.4035    7.6865 N   0  0  0  0  0  0  0  0  0  0  0  0
    6.5877   -0.1724    6.5362 C   0  0  0  0  0  0  0  0  0  0  0  0
    5.3450    0.6362    3.1057 C   0  0  0  0  0  0  0  0  0  0  0  0
   -1.0271    2.2471    1.4116 C   0  0  0  0  0  0  0  0  0  0  0  0
   -1.6274    1.1269    1.8036 F   0  0  0  0  0  0  0  0  0  0  0  0
   -1.7364    3.4432    1.4178 C   0  0  0  0  0  0  0  0  0  0  0  0
   -1.0944    4.6055    1.0045 C   0  0  0  0  0  0  0  0  0  0  0  0
    0.2323    4.5959    0.5881 C   0  0  0  0  0  0  0  0  0  0  0  0
   -1.8218    5.8587    1.0074 C   0  0  0  0  0  0  0  0  0  0  0  0
   -2.6387    6.0790    0.1564 O   0  0  0  0  0  0  0  0  0  0  0  0
   -1.5777    6.7916    1.9805 N   0  0  0  0  0  0  0  0  0  0  0  0
   -1.1443    6.3624    3.3180 C   0  0  0  0  0  0  0  0  0  0  0  0
   -1.7491    8.2218    1.6872 C   0  0  0  0  0  0  0  0  0  0  0  0
    0.5000    0.1340    1.0000 H   0  0  0  0  0  0  0  0  0  0  0  0
    2.8830    1.8586    1.1130 H   0  0  0  0  0  0  0  0  0  0  0  0
    4.9213   -0.9243    0.2712 H   0  0  0  0  0  0  0  0  0  0  0  0
    4.9213    0.6947    0.4843 H   0  0  0  0  0  0  0  0  0  0  0  0
    6.5439    3.5318    6.8681 H   0  0  0  0  0  0  0  0  0  0  0  0
    7.2517    2.1486    8.7042 H   0  0  0  0  0  0  0  0  0  0  0  0
    6.5997   -1.1682    6.4459 H   0  0  0  0  0  0  0  0  0  0  0  0
    5.2524    1.6221    2.9660 H   0  0  0  0  0  0  0  0  0  0  0  0
   -2.6912    3.4672    1.7143 H   0  0  0  0  0  0  0  0  0  0  0  0
    0.6816    5.4393    0.2935 H   0  0  0  0  0  0  0  0  0  0  0  0
   -1.0126    7.1654    3.8993 H   0  0  0  0  0  0  0  0  0  0  0  0
   -1.8425    5.7704    3.7206 H   0  0  0  0  0  0  0  0  0  0  0  0
   -0.2832    5.8595    3.2440 H   0  0  0  0  0  0  0  0  0  0  0  0
   -1.5305    8.7579    2.5026 H   0  0  0  0  0  0  0  0  0  0  0  0
   -1.1370    8.4848    0.9414 H   0  0  0  0  0  0  0  0  0  0  0  0
   -2.6964    8.3957    1.4180 H   0  0  0  0  0  0  0  0  0  0  0  0
  1  2  1  0  0  0  0
  2  3  1  0  0  0  0
  3  4  1  0  0  0  0
  4  5  1  0  0  0  0
  5  6  1  0  0  0  0
  6  7  2  0  0  0  0
  6  8  1  0  0  0  0
  8  9  1  0  0  0  0
  9 10  1  0  0  0  0
 10 11  2  0  0  0  0
 11 12  1  0  0  0  0
 12 13  1  0  0  0  0
 13 14  1  0  0  0  0
 14 15  2  0  0  0  0
 15 16  1  0  0  0  0
 16 17  2  0  0  0  0
 17 18  1  0  0  0  0
 18 13  2  0  0  0  0
 12 19  2  0  0  0  0
 19  9  1  0  0  0  0
  3 20  2  0  0  0  0
 20 21  1  0  0  0  0
 20 22  1  0  0  0  0
 22 23  2  0  0  0  0
 23 24  1  0  0  0  0
 24  2  2  0  0  0  0
 23 25  1  0  0  0  0
 25 26  2  0  0  0  0
 25 27  1  0  0  0  0
 27 28  1  0  0  0  0
 27 29  1  0  0  0  0
  4 30  1  0  0  0  0
  5 31  1  0  0  0  0
  8 32  1  0  0  0  0
  8 33  1  0  0  0  0
 15 34  1  0  0  0  0
 16 35  1  0  0  0  0
 18 36  1  0  0  0  0
 19 37  1  0  0  0  0
 22 38  1  0  0  0  0
 24 39  1  0  0  0  0
 28 40  1  0  0  0  0
 28 41  1  0  0  0  0
 28 42  1  0  0  0  0
 29 43  1  0  0  0  0
 29 44  1  0  0  0  0
 29 45  1  0  0  0  0
M  END
>  <result-rank>
91

>  <similarity>
0.903

>  <query-name>


>  <query-smiles>
Fc1c(F)ccc(NC(=O)c2nc(cnc2Nc3cncnc3)C4CC4)c1C(=O)N5CCC5

>  <source>
REALspace_2019-12

>  <similarity-descriptor>
0.0;0.754;1.000;0.891;0.919;0.975;0.848;0.919;1.000;0.0

>  <similarity-descriptor-smiles>
;N(C)C;Fc1cccc(c1)F;CN1C=CN=N1;c1cnccn1;N;NC=O;c1cnccn1;C=O;

>  <reaction-name>
m_274860a

>  <reagent1-name>
17134546

>  <reagent1-smiles>
[R3*]NNc1c(F)cc(cc1F)C(=O)N(C)C

>  <reagent2-name>
12536600

>  <reagent2-smiles>
[R1*]N=NN([R2*])CC([R3*])=O

>  <reagent3-name>
15233748

>  <reagent3-smiles>
[R1*]C(c1nccnc1)=C[R2*]

$$$$
m_274860a____17146992____17212874____17179624
          04022017343D 1   1.00000     0.00000     0
            
 58 61  0  0  0  0            999 V2000
    2.6018    6.7609    2.2164 F   0  0  0  0  0  0  0  0  0  0  0  0
    2.0933    6.3799    3.3838 C   0  0  0  0  0  0  0  0  0  0  0  0
    1.9516    5.0216    3.6482 C   0  0  0  0  0  0  0  0  0  0  0  0
    2.3382    4.0671    2.7009 N   0  0  0  0  0  0  0  0  0  0  0  0
    1.4341    3.1120    2.2731 N   0  0  0  0  0  0  0  0  0  0  0  0
    1.8776    1.8776    1.8776 C   0  0  0  0  0  0  0  0  0  0  0  0
    2.9588    1.4891    2.2240 O   0  0  0  0  0  0  0  0  0  0  0  0
    1.0000    1.0000    1.0000 C   0  0  3  0  0  0  0  0  0  0  0  0
    0.7171    1.6972   -0.2630 N   0  0  0  0  0  0  0  0  0  0  0  0
   -0.4724    2.0206   -0.7073 N   0  0  0  0  0  0  0  0  0  0  0  0
   -0.3960    2.6134   -1.8202 N   0  0  0  0  0  0  0  0  0  0  0  0
    0.9224    2.6993   -2.1534 C   0  0  0  0  0  0  0  0  0  0  0  0
    1.6463    2.1149   -1.1625 C   0  0  0  0  0  0  0  0  0  0  0  0
    1.4863    3.3392   -3.4108 C   0  0  0  0  0  0  0  0  0  0  0  0
    1.7551    4.7622   -3.1583 N   0  0  0  0  0  0  0  0  0  0  0  0
    2.9796    5.1546   -2.6855 C   0  0  0  0  0  0  0  0  0  0  0  0
    3.8327    4.3366   -2.4774 O   0  0  0  0  0  0  0  0  0  0  0  0
    3.2440    6.5544   -2.4371 C   0  0  0  0  0  0  0  0  0  0  0  0
    3.1965    7.5623   -3.3537 N   0  0  0  0  0  0  0  0  0  0  0  0
    3.5015    8.7065   -2.7779 N   0  0  0  0  0  0  0  0  0  0  0  0
    3.7445    8.5168   -1.5001 C   0  0  0  0  0  0  0  0  0  0  0  0
    3.5873    7.1351   -1.2513 C   0  0  0  0  0  0  0  0  0  0  0  0
    2.8557    7.3777   -4.7725 C   0  0  0  0  0  0  0  0  0  0  0  0
   -0.3059    0.7075    1.7208 C   0  0  0  0  0  0  0  0  0  0  0  0
    1.4200    4.6149    4.8668 C   0  0  0  0  0  0  0  0  0  0  0  0
    1.2804    3.3180    5.1269 F   0  0  0  0  0  0  0  0  0  0  0  0
    1.0313    5.5508    5.8191 C   0  0  0  0  0  0  0  0  0  0  0  0
    1.1833    6.9028    5.5315 C   0  0  0  0  0  0  0  0  0  0  0  0
    1.7121    7.3346    4.3200 C   0  0  0  0  0  0  0  0  0  0  0  0
    0.7834    7.8882    6.5156 C   0  0  0  0  0  0  0  0  0  0  0  0
    1.3624    7.9581    7.5643 O   0  0  0  0  0  0  0  0  0  0  0  0
   -0.2558    8.7401    6.2488 N   0  0  0  0  0  0  0  0  0  0  0  0
   -0.6612    9.7387    7.2461 C   0  0  0  0  0  0  0  0  0  0  0  0
   -2.0885    9.5472    7.6712 C   0  0  0  0  0  0  0  0  0  0  0  0
   -1.7294   10.6549    6.7222 C   0  0  0  0  0  0  0  0  0  0  0  0
    3.2681    4.0756    2.3333 H   0  0  0  0  0  0  0  0  0  0  0  0
    0.4567    3.3224    2.2523 H   0  0  0  0  0  0  0  0  0  0  0  0
    1.4742    0.1409    0.8075 H   0  0  0  0  0  0  0  0  0  0  0  0
    2.6397    2.0147   -1.1077 H   0  0  0  0  0  0  0  0  0  0  0  0
    2.3369    2.8794   -3.6661 H   0  0  0  0  0  0  0  0  0  0  0  0
    0.8240    3.2520   -4.1550 H   0  0  0  0  0  0  0  0  0  0  0  0
    1.0442    5.4437   -3.3317 H   0  0  0  0  0  0  0  0  0  0  0  0
    3.9933    9.2173   -0.8312 H   0  0  0  0  0  0  0  0  0  0  0  0
    3.7052    6.6711   -0.3734 H   0  0  0  0  0  0  0  0  0  0  0  0
    2.6666    6.4114   -4.9469 H   0  0  0  0  0  0  0  0  0  0  0  0
    2.0460    7.9211   -4.9942 H   0  0  0  0  0  0  0  0  0  0  0  0
    3.6227    7.6752   -5.3410 H   0  0  0  0  0  0  0  0  0  0  0  0
   -0.1134    0.2333    2.5799 H   0  0  0  0  0  0  0  0  0  0  0  0
   -0.7801    1.5666    1.9133 H   0  0  0  0  0  0  0  0  0  0  0  0
   -0.8832    0.1301    1.1435 H   0  0  0  0  0  0  0  0  0  0  0  0
    0.6492    5.2567    6.6952 H   0  0  0  0  0  0  0  0  0  0  0  0
    1.8159    8.3102    4.1264 H   0  0  0  0  0  0  0  0  0  0  0  0
   -0.7383    8.6819    5.3748 H   0  0  0  0  0  0  0  0  0  0  0  0
    0.0094   10.0838    7.9028 H   0  0  0  0  0  0  0  0  0  0  0  0
   -2.3641    9.7614    8.6083 H   0  0  0  0  0  0  0  0  0  0  0  0
   -2.6058    8.7565    7.3439 H   0  0  0  0  0  0  0  0  0  0  0  0
   -2.0077   10.6016    5.7632 H   0  0  0  0  0  0  0  0  0  0  0  0
   -1.7659   11.6065    7.0275 H   0  0  0  0  0  0  0  0  0  0  0  0
  1  2  1  0  0  0  0
  2  3  1  0  0  0  0
  3  4  1  0  0  0  0
  4  5  1  0  0  0  0
  5  6  1  0  0  0  0
  6  7  2  0  0  0  0
  6  8  1  0  0  0  0
  8  9  1  0  0  0  0
  9 10  1  0  0  0  0
 10 11  2  0  0  0  0
 11 12  1  0  0  0  0
 12 13  2  0  0  0  0
 13  9  1  0  0  0  0
 12 14  1  0  0  0  0
 14 15  1  0  0  0  0
 15 16  1  0  0  0  0
 16 17  2  0  0  0  0
 16 18  1  0  0  0  0
 18 19  1  0  0  0  0
 19 20  1  0  0  0  0
 20 21  2  0  0  0  0
 21 22  1  0  0  0  0
 18 22  2  0  0  0  0
 19 23  1  0  0  0  0
  8 24  1  0  0  0  0
  3 25  2  0  0  0  0
 25 26  1  0  0  0  0
 25 27  1  0  0  0  0
 27 28  2  0  0  0  0
 28 29  1  0  0  0  0
 29  2  2  0  0  0  0
 28 30  1  0  0  0  0
 30 31  2  0  0  0  0
 30 32  1  0  0  0  0
 32 33  1  0  0  0  0
 33 34  1  0  0  0  0
 34 35  1  0  0  0  0
 35 33  1  0  0  0  0
  4 36  1  0  0  0  0
  5 37  1  0  0  0  0
  8 38  1  0  0  0  0
 13 39  1  0  0  0  0
 14 40  1  0  0  0  0
 14 41  1  0  0  0  0
 15 42  1  0  0  0  0
 21 43  1  0  0  0  0
 22 44  1  0  0  0  0
 23 45  1  0  0  0  0
 23 46  1  0  0  0  0
 23 47  1  0  0  0  0
 24 48  1  0  0  0  0
 24 49  1  0  0  0  0
 24 50  1  0  0  0  0
 27 51  1  0  0  0  0
 29 52  1  0  0  0  0
 32 53  1  0  0  0  0
 33 54  1  0  0  0  0
 34 55  1  0  0  0  0
 34 56  1  0  0  0  0
 35 57  1  0  0  0  0
 35 58  1  0  0  0  0
M  END
>  <result-rank>
92

>  <similarity>
0.903

>  <query-name>


>  <query-smiles>
Fc1c(F)ccc(NC(=O)c2nc(cnc2Nc3cncnc3)C4CC4)c1C(=O)N5CCC5

>  <source>
REALspace_2019-12

>  <similarity-descriptor>
0.0;0.969;1.000;0.910;0.917;0.975;0.848;0.730;0.852;0.133

>  <similarity-descriptor-smiles>
;C1CC1;Fc1cccc(c1)F;CN1C=CN=N1;C(=O)C1=CC=NN1;N;NC=O;CN;C(=O)N;C.C

>  <reaction-name>
m_274860a

>  <reagent1-name>
17146992

>  <reagent1-smiles>
[R3*]NNc1c(F)cc(cc1F)C(=O)NC2CC2

>  <reagent2-name>
17212874

>  <reagent2-smiles>
[R1*]N=NN([R2*])C(C([R3*])=O)C

>  <reagent3-name>
17179624

>  <reagent3-smiles>
[R1*]C(=C[R2*])CNC(=O)C=1N(N=CC1)C

$$$$
s_272164____9389352____9374480
          04022017343D 1   1.00000     0.00000     0
            
 53 56  0  0  0  0            999 V2000
    1.9023   -1.8658    5.1499 O   0  0  0  0  0  0  0  0  0  0  0  0
    2.9224   -1.2597    5.3286 C   0  0  0  0  0  0  0  0  0  0  0  0
    3.5511   -1.3587    6.4736 O   0  0  0  0  0  0  0  0  0  0  0  0
    3.0254   -2.1832    7.5033 C   0  0  0  0  0  0  0  0  0  0  0  0
    3.4593   -0.4176    4.2769 C   0  0  0  0  0  0  0  0  0  0  0  0
    2.6865   -0.1227    3.1582 C   0  0  0  0  0  0  0  0  0  0  0  0
    3.1652    0.6929    2.1375 C   0  0  0  0  0  0  0  0  0  0  0  0
    2.4024    1.0000    1.0000 N   0  0  0  0  0  0  0  0  0  0  0  0
    1.0000    1.0000    1.0000 C   0  0  0  0  0  0  0  0  0  0  0  0
    0.4000    1.2671    2.0043 O   0  0  0  0  0  0  0  0  0  0  0  0
    0.3150    0.6951   -0.1466 N   0  0  0  0  0  0  0  0  0  0  0  0
   -1.0694    0.8963   -0.2096 C   0  0  0  0  0  0  0  0  0  0  0  0
   -1.7721    1.2046    0.9507 C   0  0  0  0  0  0  0  0  0  0  0  0
   -3.1470    1.4021    0.8767 C   0  0  0  0  0  0  0  0  0  0  0  0
   -3.8106    1.2927   -0.3413 C   0  0  0  0  0  0  0  0  0  0  0  0
   -5.1948    1.4936   -0.4049 N   0  0  0  0  0  0  0  0  0  0  0  0
   -6.1515    0.5128   -0.1503 C   0  0  0  0  0  0  0  0  0  0  0  0
   -5.9285   -0.6425    0.1709 O   0  0  0  0  0  0  0  0  0  0  0  0
   -7.5180    1.1340   -0.3347 C   0  0  0  0  0  0  0  0  0  0  0  0
   -7.2220    2.5918   -0.0621 C   0  0  0  0  0  0  0  0  0  0  0  0
   -5.8837    2.7408   -0.7506 C   0  0  0  0  0  0  0  0  0  0  0  0
   -3.0983    0.9847   -1.4961 C   0  0  0  0  0  0  0  0  0  0  0  0
   -1.7231    0.7850   -1.4328 C   0  0  0  0  0  0  0  0  0  0  0  0
   -3.9007    1.7384    2.1535 C   0  0  0  0  0  0  0  0  0  0  0  0
    3.0940    1.3439   -0.2507 C   0  0  0  0  0  0  0  0  0  0  0  0
    4.3539    2.1474    0.0327 C   0  0  0  0  0  0  0  0  0  0  0  0
    4.8485    2.8680   -0.8212 O   0  0  0  0  0  0  0  0  0  0  0  0
    4.9626    2.0636    1.2914 N   0  0  0  0  0  0  0  0  0  0  0  0
    4.4461    1.2134    2.2764 C   0  0  0  0  0  0  0  0  0  0  0  0
    5.2366    0.9194    3.3850 C   0  0  0  0  0  0  0  0  0  0  0  0
    4.7457    0.0972    4.3945 C   0  0  0  0  0  0  0  0  0  0  0  0
    3.6260   -2.1429    8.3018 H   0  0  0  0  0  0  0  0  0  0  0  0
    2.1132   -1.8605    7.7556 H   0  0  0  0  0  0  0  0  0  0  0  0
    2.9669   -3.1268    7.1775 H   0  0  0  0  0  0  0  0  0  0  0  0
    1.7656   -0.5057    3.0861 H   0  0  0  0  0  0  0  0  0  0  0  0
    0.8036    0.3289   -0.9386 H   0  0  0  0  0  0  0  0  0  0  0  0
   -1.2952    1.2832    1.8262 H   0  0  0  0  0  0  0  0  0  0  0  0
   -8.1784    0.7662    0.3200 H   0  0  0  0  0  0  0  0  0  0  0  0
   -7.8593    0.9978   -1.2647 H   0  0  0  0  0  0  0  0  0  0  0  0
   -7.9133    3.1900   -0.4673 H   0  0  0  0  0  0  0  0  0  0  0  0
   -7.1544    2.7768    0.9183 H   0  0  0  0  0  0  0  0  0  0  0  0
   -5.9963    2.8268   -1.7405 H   0  0  0  0  0  0  0  0  0  0  0  0
   -5.3862    3.5349   -0.4015 H   0  0  0  0  0  0  0  0  0  0  0  0
   -3.5750    0.9068   -2.3717 H   0  0  0  0  0  0  0  0  0  0  0  0
   -1.2079    0.5631   -2.2606 H   0  0  0  0  0  0  0  0  0  0  0  0
   -3.2593    1.7730    2.9199 H   0  0  0  0  0  0  0  0  0  0  0  0
   -4.3476    2.6273    2.0525 H   0  0  0  0  0  0  0  0  0  0  0  0
   -4.5909    1.0362    2.3279 H   0  0  0  0  0  0  0  0  0  0  0  0
    2.4815    1.8864   -0.8256 H   0  0  0  0  0  0  0  0  0  0  0  0
    3.3428    0.5023   -0.7300 H   0  0  0  0  0  0  0  0  0  0  0  0
    5.7729    2.6156    1.4881 H   0  0  0  0  0  0  0  0  0  0  0  0
    6.1586    1.3000    3.4555 H   0  0  0  0  0  0  0  0  0  0  0  0
    5.3090   -0.1200    5.1917 H   0  0  0  0  0  0  0  0  0  0  0  0
  1  2  2  0  0  0  0
  2  3  1  0  0  0  0
  3  4  1  0  0  0  0
  2  5  1  0  0  0  0
  5  6  1  0  0  0  0
  6  7  2  0  0  0  0
  7  8  1  0  0  0  0
  8  9  1  0  0  0  0
  9 10  2  0  0  0  0
  9 11  1  0  0  0  0
 11 12  1  0  0  0  0
 12 13  1  0  0  0  0
 13 14  2  0  0  0  0
 14 15  1  0  0  0  0
 15 16  1  0  0  0  0
 16 17  1  0  0  0  0
 17 18  2  0  0  0  0
 17 19  1  0  0  0  0
 19 20  1  0  0  0  0
 20 21  1  0  0  0  0
 21 16  1  0  0  0  0
 15 22  2  0  0  0  0
 22 23  1  0  0  0  0
 23 12  2  0  0  0  0
 14 24  1  0  0  0  0
  8 25  1  0  0  0  0
 25 26  1  0  0  0  0
 26 27  2  0  0  0  0
 26 28  1  0  0  0  0
 28 29  1  0  0  0  0
 29  7  1  0  0  0  0
 29 30  2  0  0  0  0
 30 31  1  0  0  0  0
 31  5  2  0  0  0  0
  4 32  1  0  0  0  0
  4 33  1  0  0  0  0
  4 34  1  0  0  0  0
  6 35  1  0  0  0  0
 11 36  1  0  0  0  0
 13 37  1  0  0  0  0
 19 38  1  0  0  0  0
 19 39  1  0  0  0  0
 20 40  1  0  0  0  0
 20 41  1  0  0  0  0
 21 42  1  0  0  0  0
 21 43  1  0  0  0  0
 22 44  1  0  0  0  0
 23 45  1  0  0  0  0
 24 46  1  0  0  0  0
 24 47  1  0  0  0  0
 24 48  1  0  0  0  0
 25 49  1  0  0  0  0
 25 50  1  0  0  0  0
 28 51  1  0  0  0  0
 30 52  1  0  0  0  0
 31 53  1  0  0  0  0
M  END
>  <result-rank>
93

>  <similarity>
0.903

>  <query-name>


>  <query-smiles>
Fc1c(F)ccc(NC(=O)c2nc(cnc2Nc3cncnc3)C4CC4)c1C(=O)N5CCC5

>  <source>
REALspace_2019-12

>  <similarity-descriptor>
0.0;0.998;0.944;0.875;0.882;1.000;0.995;0.875;0.998;0.300

>  <similarity-descriptor-smiles>
;N1CCCC1=O;c1ccccc1;c1cNC(CN1)=O;O=Cc1ccccc1;N;C=O;c1cNC(CN1)=O;N1CCCC1=O;O.C.C

>  <reaction-name>
s_272164

>  <reagent1-name>
9389352

>  <reagent1-smiles>
[R1*]C(=O)N1c2c(NC(=O)C1)ccc(c2)C(=O)OC

>  <reagent2-name>
9374480

>  <reagent2-smiles>
[R1*]Nc1cc(c(N2C(=O)CCC2)cc1)C

$$$$
s_2718____871068____8251538
          04022017343D 1   1.00000     0.00000     0
            
 58 61  0  0  0  0            999 V2000
    0.8400    3.3556    1.0000 O   0  0  0  0  0  0  0  0  0  0  0  0
    0.2400    2.3164    1.0000 C   0  0  0  0  0  0  0  0  0  0  0  0
   -1.1300    2.3164    1.0000 N   0  0  0  0  0  0  0  0  0  0  0  0
   -1.8295    3.5279    1.0000 C   0  0  0  0  0  0  0  0  0  0  0  0
   -3.1807    3.6739    1.0000 N   0  0  0  0  0  0  0  0  0  0  0  0
   -3.4771    4.9516    0.9988 N   0  0  0  0  0  0  0  0  0  0  0  0
   -2.3721    5.6554    0.9968 C   0  0  0  0  0  0  0  0  0  0  0  0
   -1.2736    4.7679    0.9968 C   0  0  0  0  0  0  0  0  0  0  0  0
   -2.2859    7.1729    0.9946 C   0  0  0  0  0  0  0  0  0  0  0  0
   -2.2558    7.6807    2.4270 C   0  0  0  0  0  0  0  0  0  0  0  0
   -1.0187    7.6073    0.2763 C   0  0  0  0  0  0  0  0  0  0  0  0
   -4.1103    2.6262    0.9994 C   0  0  0  0  0  0  0  0  0  0  0  0
   -3.6928    1.3513    1.0008 N   0  0  0  0  0  0  0  0  0  0  0  0
   -4.5619    0.3297    1.0008 C   0  0  0  0  0  0  0  0  0  0  0  0
   -5.9261    0.5967    0.9996 C   0  0  0  0  0  0  0  0  0  0  0  0
   -6.3417    1.9233    0.9983 C   0  0  0  0  0  0  0  0  0  0  0  0
   -5.4233    2.9003    0.9983 N   0  0  0  0  0  0  0  0  0  0  0  0
    1.0000    1.0000    1.0000 C   0  0  0  0  0  0  0  0  0  0  0  0
    0.4000   -0.0392    1.0000 O   0  0  0  0  0  0  0  0  0  0  0  0
    2.3700    1.0000    1.0000 N   0  0  0  0  0  0  0  0  0  0  0  0
    3.1050   -0.2731    1.0000 C   0  0  0  0  0  0  0  0  0  0  0  0
    3.3583   -0.7118   -0.4330 C   0  0  0  0  0  0  0  0  0  0  0  0
    4.5227   -0.3014   -1.0743 C   0  0  0  0  0  0  0  0  0  0  0  0
    4.7526   -0.7044   -2.3860 C   0  0  0  0  0  0  0  0  0  0  0  0
    3.8242   -1.5083   -3.0390 C   0  0  0  0  0  0  0  0  0  0  0  0
    4.0581   -1.9121   -4.3563 N   0  0  0  0  0  0  0  0  0  0  0  0
    3.2044   -2.7133   -5.1082 C   0  0  0  0  0  0  0  0  0  0  0  0
    2.1591   -3.1749   -4.7418 O   0  0  0  0  0  0  0  0  0  0  0  0
    3.8430   -2.9049   -6.4686 C   0  0  0  0  0  0  0  0  0  0  0  0
    5.3085   -2.6754   -6.1602 C   0  0  0  0  0  0  0  0  0  0  0  0
    5.2402   -1.5568   -5.1429 C   0  0  0  0  0  0  0  0  0  0  0  0
    2.6611   -1.9174   -2.3951 C   0  0  0  0  0  0  0  0  0  0  0  0
    2.4284   -1.5159   -1.0837 C   0  0  0  0  0  0  0  0  0  0  0  0
   -1.6300    1.4503    1.0000 H   0  0  0  0  0  0  0  0  0  0  0  0
   -0.3011    5.0007    0.9949 H   0  0  0  0  0  0  0  0  0  0  0  0
   -3.0826    7.5514    0.5234 H   0  0  0  0  0  0  0  0  0  0  0  0
   -2.1990    8.6791    2.4255 H   0  0  0  0  0  0  0  0  0  0  0  0
   -3.0894    7.3950    2.8995 H   0  0  0  0  0  0  0  0  0  0  0  0
   -1.4591    7.3023    2.8982 H   0  0  0  0  0  0  0  0  0  0  0  0
   -0.9619    8.6057    0.2749 H   0  0  0  0  0  0  0  0  0  0  0  0
   -0.2220    7.2288    0.7475 H   0  0  0  0  0  0  0  0  0  0  0  0
   -1.0385    7.2732   -0.6660 H   0  0  0  0  0  0  0  0  0  0  0  0
   -4.2319   -0.6142    1.0017 H   0  0  0  0  0  0  0  0  0  0  0  0
   -6.5932   -0.1484    0.9996 H   0  0  0  0  0  0  0  0  0  0  0  0
   -7.3164    2.1468    0.9975 H   0  0  0  0  0  0  0  0  0  0  0  0
    2.8700    1.8660    1.0000 H   0  0  0  0  0  0  0  0  0  0  0  0
    2.5646   -0.9700    1.4714 H   0  0  0  0  0  0  0  0  0  0  0  0
    3.9788   -0.1535    1.4714 H   0  0  0  0  0  0  0  0  0  0  0  0
    5.1861    0.2761   -0.5985 H   0  0  0  0  0  0  0  0  0  0  0  0
    5.5851   -0.4161   -2.8591 H   0  0  0  0  0  0  0  0  0  0  0  0
    3.5010   -2.2360   -7.1286 H   0  0  0  0  0  0  0  0  0  0  0  0
    3.6850   -3.8286   -6.8179 H   0  0  0  0  0  0  0  0  0  0  0  0
    5.7315   -3.4945   -5.7727 H   0  0  0  0  0  0  0  0  0  0  0  0
    5.8127   -2.3945   -6.9769 H   0  0  0  0  0  0  0  0  0  0  0  0
    6.0611   -1.5374   -4.5722 H   0  0  0  0  0  0  0  0  0  0  0  0
    5.1234   -0.6696   -5.5893 H   0  0  0  0  0  0  0  0  0  0  0  0
    1.9979   -2.4952   -2.8708 H   0  0  0  0  0  0  0  0  0  0  0  0
    1.5958   -1.8041   -0.6107 H   0  0  0  0  0  0  0  0  0  0  0  0
  1  2  2  0  0  0  0
  2  3  1  0  0  0  0
  3  4  1  0  0  0  0
  4  5  1  0  0  0  0
  5  6  1  0  0  0  0
  6  7  2  0  0  0  0
  7  8  1  0  0  0  0
  4  8  2  0  0  0  0
  7  9  1  0  0  0  0
  9 10  1  0  0  0  0
  9 11  1  0  0  0  0
  5 12  1  0  0  0  0
 12 13  1  0  0  0  0
 13 14  2  0  0  0  0
 14 15  1  0  0  0  0
 15 16  2  0  0  0  0
 16 17  1  0  0  0  0
 17 12  2  0  0  0  0
  2 18  1  0  0  0  0
 18 19  2  0  0  0  0
 18 20  1  0  0  0  0
 20 21  1  0  0  0  0
 21 22  1  0  0  0  0
 22 23  1  0  0  0  0
 23 24  2  0  0  0  0
 24 25  1  0  0  0  0
 25 26  1  0  0  0  0
 26 27  1  0  0  0  0
 27 28  2  0  0  0  0
 27 29  1  0  0  0  0
 29 30  1  0  0  0  0
 30 31  1  0  0  0  0
 31 26  1  0  0  0  0
 25 32  2  0  0  0  0
 32 33  1  0  0  0  0
 33 22  2  0  0  0  0
  3 34  1  0  0  0  0
  8 35  1  0  0  0  0
  9 36  1  0  0  0  0
 10 37  1  0  0  0  0
 10 38  1  0  0  0  0
 10 39  1  0  0  0  0
 11 40  1  0  0  0  0
 11 41  1  0  0  0  0
 11 42  1  0  0  0  0
 14 43  1  0  0  0  0
 15 44  1  0  0  0  0
 16 45  1  0  0  0  0
 20 46  1  0  0  0  0
 21 47  1  0  0  0  0
 21 48  1  0  0  0  0
 23 49  1  0  0  0  0
 24 50  1  0  0  0  0
 29 51  1  0  0  0  0
 29 52  1  0  0  0  0
 30 53  1  0  0  0  0
 30 54  1  0  0  0  0
 31 55  1  0  0  0  0
 31 56  1  0  0  0  0
 32 57  1  0  0  0  0
 33 58  1  0  0  0  0
M  END
>  <result-rank>
94

>  <similarity>
0.903

>  <query-name>


>  <query-smiles>
Fc1c(F)ccc(NC(=O)c2nc(cnc2Nc3cncnc3)C4CC4)c1C(=O)N5CCC5

>  <source>
REALspace_2019-12

>  <similarity-descriptor>
0.873;0.998;0.882;0.798;0.921;1.000;0.999;0.921;0.998;0.0

>  <similarity-descriptor-smiles>
C(C)C;N1CCCC1=O;Cc1ccccc1;O=CNC1=CC=NN1;c1ncccn1;N;C=O;c1ncccn1;N1CCCC1=O;

>  <reaction-name>
s_2718

>  <reagent1-name>
871068

>  <reagent1-smiles>
[R1*]NCc1ccc(N2C(=O)CCC2)cc1

>  <reagent2-name>
8251538

>  <reagent2-smiles>
[R1*]C(=O)C(=O)NC=1N(N=C(C1)C(C)C)c2ncccn2

$$$$
m_274860a____17135624____17212874____12655848
          04022017343D 1   1.00000     0.00000     0
            
 52 55  0  0  0  0            999 V2000
    3.8888   -3.0133   -1.3521 F   0  0  0  0  0  0  0  0  0  0  0  0
    3.6670   -2.3852   -0.2001 C   0  0  0  0  0  0  0  0  0  0  0  0
    3.8982   -3.0399    1.0056 C   0  0  0  0  0  0  0  0  0  0  0  0
    4.3654   -4.3598    0.9957 N   0  0  0  0  0  0  0  0  0  0  0  0
    5.6525   -4.6552    0.3478 C   0  0  0  0  0  0  0  0  0  0  0  0
    6.2321   -5.9398    0.9185 C   0  0  0  0  0  0  0  0  0  0  0  0
    7.4348   -6.0762    1.0815 O   0  0  0  0  0  0  0  0  0  0  0  0
    5.3481   -6.9681    1.2653 N   0  0  0  0  0  0  0  0  0  0  0  0
    3.8960   -6.7993    1.1108 C   0  0  0  0  0  0  0  0  0  0  0  0
    3.5560   -5.4123    1.6301 C   0  0  0  0  0  0  0  0  0  0  0  0
    3.6689   -2.3948    2.2160 C   0  0  0  0  0  0  0  0  0  0  0  0
    3.2051   -1.0835    2.2087 C   0  0  0  0  0  0  0  0  0  0  0  0
    2.9766   -0.4330    1.0000 C   0  0  0  0  0  0  0  0  0  0  0  0
    3.2034   -1.0743   -0.2128 C   0  0  0  0  0  0  0  0  0  0  0  0
    2.4700    1.0000    1.0000 C   0  0  0  0  0  0  0  0  0  0  0  0
    1.0000    1.0000    1.0000 N   0  0  0  0  0  0  0  0  0  0  0  0
    0.3150    1.0000    2.1865 C   0  0  0  0  0  0  0  0  0  0  0  0
    0.9150    1.0000    3.2257 O   0  0  0  0  0  0  0  0  0  0  0  0
   -1.2050    1.0000    2.1865 C   0  0  3  0  0  0  0  0  0  0  0  0
   -1.6950   -0.2002    1.4935 N   0  0  0  0  0  0  0  0  0  0  0  0
   -1.4486   -1.4390    1.8420 N   0  0  0  0  0  0  0  0  0  0  0  0
   -2.0046   -2.2590    1.0587 N   0  0  0  0  0  0  0  0  0  0  0  0
   -2.6698   -1.5351    0.1172 C   0  0  0  0  0  0  0  0  0  0  0  0
   -3.4481   -2.0759   -0.9792 C   0  0  0  0  0  0  0  0  0  0  0  0
   -3.5694   -3.4519   -1.1452 C   0  0  0  0  0  0  0  0  0  0  0  0
   -4.2945   -3.9289   -2.1679 N   0  0  0  0  0  0  0  0  0  0  0  0
   -4.9057   -3.1082   -3.0346 C   0  0  0  0  0  0  0  0  0  0  0  0
   -4.7984   -1.7790   -2.8892 N   0  0  0  0  0  0  0  0  0  0  0  0
   -4.0879   -1.2396   -1.8874 C   0  0  0  0  0  0  0  0  0  0  0  0
   -2.4806   -0.2142    0.3860 C   0  0  0  0  0  0  0  0  0  0  0  0
   -1.7117    1.0000    3.6195 C   0  0  0  0  0  0  0  0  0  0  0  0
    6.2885   -3.9015    0.5135 H   0  0  0  0  0  0  0  0  0  0  0  0
    5.5121   -4.7626   -0.6364 H   0  0  0  0  0  0  0  0  0  0  0  0
    5.7093   -7.8293    1.6230 H   0  0  0  0  0  0  0  0  0  0  0  0
    3.4105   -7.4939    1.6417 H   0  0  0  0  0  0  0  0  0  0  0  0
    3.6412   -6.8779    0.1471 H   0  0  0  0  0  0  0  0  0  0  0  0
    2.5903   -5.2288    1.4464 H   0  0  0  0  0  0  0  0  0  0  0  0
    3.7177   -5.3905    2.6167 H   0  0  0  0  0  0  0  0  0  0  0  0
    3.8353   -2.8679    3.0812 H   0  0  0  0  0  0  0  0  0  0  0  0
    3.0358   -0.6081    3.0720 H   0  0  0  0  0  0  0  0  0  0  0  0
    3.0361   -0.6016   -1.0780 H   0  0  0  0  0  0  0  0  0  0  0  0
    2.8033    1.4714    1.8165 H   0  0  0  0  0  0  0  0  0  0  0  0
    2.8033    1.4714    0.1835 H   0  0  0  0  0  0  0  0  0  0  0  0
    0.5000    1.0000    0.1340 H   0  0  0  0  0  0  0  0  0  0  0  0
   -1.5383    1.8165    1.7151 H   0  0  0  0  0  0  0  0  0  0  0  0
   -3.1205   -4.0790   -0.5086 H   0  0  0  0  0  0  0  0  0  0  0  0
   -5.4414   -3.4870   -3.7893 H   0  0  0  0  0  0  0  0  0  0  0  0
   -4.0191   -0.2463   -1.7946 H   0  0  0  0  0  0  0  0  0  0  0  0
   -2.8399    0.5704   -0.1192 H   0  0  0  0  0  0  0  0  0  0  0  0
   -1.3783    1.8165    4.0909 H   0  0  0  0  0  0  0  0  0  0  0  0
   -2.7117    1.0000    3.6195 H   0  0  0  0  0  0  0  0  0  0  0  0
   -1.3783    0.1835    4.0909 H   0  0  0  0  0  0  0  0  0  0  0  0
  1  2  1  0  0  0  0
  2  3  1  0  0  0  0
  3  4  1  0  0  0  0
  4  5  1  0  0  0  0
  5  6  1  0  0  0  0
  6  7  2  0  0  0  0
  6  8  1  0  0  0  0
  8  9  1  0  0  0  0
  9 10  1  0  0  0  0
 10  4  1  0  0  0  0
  3 11  2  0  0  0  0
 11 12  1  0  0  0  0
 12 13  2  0  0  0  0
 13 14  1  0  0  0  0
 14  2  2  0  0  0  0
 13 15  1  0  0  0  0
 15 16  1  0  0  0  0
 16 17  1  0  0  0  0
 17 18  2  0  0  0  0
 17 19  1  0  0  0  0
 19 20  1  0  0  0  0
 20 21  1  0  0  0  0
 21 22  2  0  0  0  0
 22 23  1  0  0  0  0
 23 24  1  0  0  0  0
 24 25  1  0  0  0  0
 25 26  2  0  0  0  0
 26 27  1  0  0  0  0
 27 28  2  0  0  0  0
 28 29  1  0  0  0  0
 29 24  2  0  0  0  0
 23 30  2  0  0  0  0
 30 20  1  0  0  0  0
 19 31  1  0  0  0  0
  5 32  1  0  0  0  0
  5 33  1  0  0  0  0
  8 34  1  0  0  0  0
  9 35  1  0  0  0  0
  9 36  1  0  0  0  0
 10 37  1  0  0  0  0
 10 38  1  0  0  0  0
 11 39  1  0  0  0  0
 12 40  1  0  0  0  0
 14 41  1  0  0  0  0
 15 42  1  0  0  0  0
 15 43  1  0  0  0  0
 16 44  1  0  0  0  0
 19 45  1  0  0  0  0
 25 46  1  0  0  0  0
 27 47  1  0  0  0  0
 29 48  1  0  0  0  0
 30 49  1  0  0  0  0
 31 50  1  0  0  0  0
 31 51  1  0  0  0  0
 31 52  1  0  0  0  0
M  END
>  <result-rank>
95

>  <similarity>
0.903

>  <query-name>


>  <query-smiles>
Fc1c(F)ccc(NC(=O)c2nc(cnc2Nc3cncnc3)C4CC4)c1C(=O)N5CCC5

>  <source>
REALspace_2019-12

>  <similarity-descriptor>
0.0;0.908;0.962;0.909;0.919;0.723;1.000;0.919;0.908;0.111

>  <similarity-descriptor-smiles>
;N1CCNC(C1)=O;Fc1ccccc1;CN1C=CN=N1;c1cncnc1;CN;C=O;c1cncnc1;N1CCNC(C1)=O;C

>  <reaction-name>
m_274860a

>  <reagent1-name>
17135624

>  <reagent1-smiles>
[R3*]NCc1cc(F)c(N2CC(=O)NCC2)cc1

>  <reagent2-name>
17212874

>  <reagent2-smiles>
[R1*]N=NN([R2*])C(C([R3*])=O)C

>  <reagent3-name>
12655848

>  <reagent3-smiles>
[R1*]C(c1cncnc1)=C[R2*]

$$$$
s_22____2016360____2787412
          04022017343D 1   1.00000     0.00000     0
            
 48 51  0  0  0  0            999 V2000
    6.2357   -0.1668   -3.1941 Cl  0  0  0  0  0  0  0  0  0  0  0  0
    4.7297   -0.7130   -2.4166 C   0  0  0  0  0  0  0  0  0  0  0  0
    3.7964   -1.5045   -3.0898 C   0  0  0  0  0  0  0  0  0  0  0  0
    3.9440   -1.9044   -4.3742 O   0  0  0  0  0  0  0  0  0  0  0  0
    2.8364   -2.1288   -5.2421 C   0  0  0  0  0  0  0  0  0  0  0  0
    1.5878   -2.5927   -4.5015 C   0  0  0  0  0  0  0  0  0  0  0  0
    1.7749   -2.6976   -3.0934 O   0  0  0  0  0  0  0  0  0  0  0  0
    2.6491   -1.9145   -2.4247 C   0  0  0  0  0  0  0  0  0  0  0  0
    2.4403   -1.5118   -1.1084 C   0  0  0  0  0  0  0  0  0  0  0  0
    3.3585   -0.7122   -0.4341 C   0  0  0  0  0  0  0  0  0  0  0  0
    4.5150   -0.3164   -1.1001 C   0  0  0  0  0  0  0  0  0  0  0  0
    3.1050   -0.2731    1.0000 C   0  0  0  0  0  0  0  0  0  0  0  0
    2.3700    1.0000    1.0000 N   0  0  0  0  0  0  0  0  0  0  0  0
    1.0000    1.0000    1.0000 C   0  0  0  0  0  0  0  0  0  0  0  0
    0.4000   -0.0392    1.0000 O   0  0  0  0  0  0  0  0  0  0  0  0
    0.2400    2.3164    1.0000 C   0  0  0  0  0  0  0  0  0  0  0  0
   -0.2289    2.6308   -0.4116 C   0  0  0  0  0  0  0  0  0  0  0  0
   -1.3912    2.0006   -0.9308 C   0  0  0  0  0  0  0  0  0  0  0  0
   -2.0234    1.2046   -0.2557 O   0  0  0  0  0  0  0  0  0  0  0  0
   -1.7882    2.3047   -2.2069 N   0  0  0  0  0  0  0  0  0  0  0  0
   -1.0844    3.1972   -2.9733 C   0  0  0  0  0  0  0  0  0  0  0  0
   -0.0035    3.7805   -2.4855 N   0  0  0  0  0  0  0  0  0  0  0  0
    0.4422    3.5162   -1.2163 C   0  0  0  0  0  0  0  0  0  0  0  0
    1.6899    4.2070   -0.6895 C   0  0  0  0  0  0  0  0  0  0  0  0
   -1.5511    3.4796   -4.3167 C   0  0  0  0  0  0  0  0  0  0  0  0
   -2.6496    2.8785   -4.7977 N   0  0  0  0  0  0  0  0  0  0  0  0
   -3.0952    3.1284   -6.0375 C   0  0  0  0  0  0  0  0  0  0  0  0
   -2.4061    4.0287   -6.8433 C   0  0  0  0  0  0  0  0  0  0  0  0
   -1.2703    4.6429   -6.3269 C   0  0  0  0  0  0  0  0  0  0  0  0
   -0.8744    4.3518   -5.0790 N   0  0  0  0  0  0  0  0  0  0  0  0
    3.0905   -2.8291   -5.9092 H   0  0  0  0  0  0  0  0  0  0  0  0
    2.6262   -1.2751   -5.7186 H   0  0  0  0  0  0  0  0  0  0  0  0
    0.8531   -1.9372   -4.6762 H   0  0  0  0  0  0  0  0  0  0  0  0
    1.3244   -3.4905   -4.8546 H   0  0  0  0  0  0  0  0  0  0  0  0
    1.6093   -1.8046   -0.6354 H   0  0  0  0  0  0  0  0  0  0  0  0
    5.1914    0.2529   -0.6327 H   0  0  0  0  0  0  0  0  0  0  0  0
    2.5646   -0.9700    1.4714 H   0  0  0  0  0  0  0  0  0  0  0  0
    3.9788   -0.1535    1.4714 H   0  0  0  0  0  0  0  0  0  0  0  0
    2.8700    1.8660    1.0000 H   0  0  0  0  0  0  0  0  0  0  0  0
    0.8406    3.0480    1.3225 H   0  0  0  0  0  0  0  0  0  0  0  0
   -0.5521    2.2439    1.6060 H   0  0  0  0  0  0  0  0  0  0  0  0
   -2.6047    1.8684   -2.5851 H   0  0  0  0  0  0  0  0  0  0  0  0
    1.8706    3.9013    0.2453 H   0  0  0  0  0  0  0  0  0  0  0  0
    2.4694    3.9770   -1.2721 H   0  0  0  0  0  0  0  0  0  0  0  0
    1.5502    5.1972   -0.6952 H   0  0  0  0  0  0  0  0  0  0  0  0
   -3.9161    2.6714   -6.3799 H   0  0  0  0  0  0  0  0  0  0  0  0
   -2.7198    4.2294   -7.7714 H   0  0  0  0  0  0  0  0  0  0  0  0
   -0.7535    5.2956   -6.8808 H   0  0  0  0  0  0  0  0  0  0  0  0
  1  2  1  0  0  0  0
  2  3  1  0  0  0  0
  3  4  1  0  0  0  0
  4  5  1  0  0  0  0
  5  6  1  0  0  0  0
  6  7  1  0  0  0  0
  7  8  1  0  0  0  0
  8  3  2  0  0  0  0
  8  9  1  0  0  0  0
  9 10  2  0  0  0  0
 10 11  1  0  0  0  0
 11  2  2  0  0  0  0
 10 12  1  0  0  0  0
 12 13  1  0  0  0  0
 13 14  1  0  0  0  0
 14 15  2  0  0  0  0
 14 16  1  0  0  0  0
 16 17  1  0  0  0  0
 17 18  1  0  0  0  0
 18 19  2  0  0  0  0
 18 20  1  0  0  0  0
 20 21  1  0  0  0  0
 21 22  2  0  0  0  0
 22 23  1  0  0  0  0
 17 23  2  0  0  0  0
 23 24  1  0  0  0  0
 21 25  1  0  0  0  0
 25 26  1  0  0  0  0
 26 27  2  0  0  0  0
 27 28  1  0  0  0  0
 28 29  2  0  0  0  0
 29 30  1  0  0  0  0
 30 25  2  0  0  0  0
  5 31  1  0  0  0  0
  5 32  1  0  0  0  0
  6 33  1  0  0  0  0
  6 34  1  0  0  0  0
  9 35  1  0  0  0  0
 11 36  1  0  0  0  0
 12 37  1  0  0  0  0
 12 38  1  0  0  0  0
 13 39  1  0  0  0  0
 16 40  1  0  0  0  0
 16 41  1  0  0  0  0
 20 42  1  0  0  0  0
 24 43  1  0  0  0  0
 24 44  1  0  0  0  0
 24 45  1  0  0  0  0
 27 46  1  0  0  0  0
 28 47  1  0  0  0  0
 29 48  1  0  0  0  0
M  END
>  <result-rank>
96

>  <similarity>
0.903

>  <query-name>


>  <query-smiles>
Fc1c(F)ccc(NC(=O)c2nc(cnc2Nc3cncnc3)C4CC4)c1C(=O)N5CCC5

>  <source>
REALspace_2019-12

>  <similarity-descriptor>
0.0;0.831;0.946;0.910;0.998;1.000;0.861;0.910;0.831;0.111

>  <similarity-descriptor-smiles>
;c1cOCCO1;Clc1cc(ccc1)C;C1=CN=CNC1=O;c1ncccn1;N;C(=O)C;C1=CN=CNC1=O;c1cOCCO1;C

>  <reaction-name>
s_22

>  <reagent1-name>
2016360

>  <reagent1-smiles>
[R1*]NCc1cc(Cl)c2OCCOc2c1

>  <reagent2-name>
2787412

>  <reagent2-smiles>
[R1*]C(=O)CC=1C(=O)N=C(NC1C)c2ncccn2

$$$$
s_11a____15138556____5825580
          04022017343D 1   1.00000     0.00000     0
            
 45 47  0  0  0  0            999 V2000
    0.8226    3.5273    2.5241 F   0  0  0  0  0  0  0  0  0  0  0  0
    1.9821    2.8763    2.5102 C   0  0  0  0  0  0  0  0  0  0  0  0
    3.1781    3.5854    2.5020 C   0  0  0  0  0  0  0  0  0  0  0  0
    3.1519    4.9853    2.5098 N   0  0  0  0  0  0  0  0  0  0  0  0
    3.7219    5.6869    1.4803 C   0  0  0  0  0  0  0  0  0  0  0  0
    4.2435    5.1016    0.5718 O   0  0  0  0  0  0  0  0  0  0  0  0
    3.6934    7.2066    1.4888 C   0  0  0  0  0  0  0  0  0  0  0  0
    4.4128    7.7199    2.7255 C   0  0  0  0  0  0  0  0  0  0  0  0
    4.3879    7.7333    0.2435 C   0  0  0  0  0  0  0  0  0  0  0  0
    4.3974    2.9172    2.4866 C   0  0  0  0  0  0  0  0  0  0  0  0
    4.4046    1.5262    2.4788 C   0  0  0  0  0  0  0  0  0  0  0  0
    3.2098    0.8152    2.4879 C   0  0  0  0  0  0  0  0  0  0  0  0
    3.2130   -0.5146    2.4812 F   0  0  0  0  0  0  0  0  0  0  0  0
    1.9907    1.4852    2.5037 C   0  0  0  0  0  0  0  0  0  0  0  0
    5.6741    0.8254    2.4611 C   0  0  0  0  0  0  0  0  0  0  0  0
    6.5914    1.2286    3.1214 O   0  0  0  0  0  0  0  0  0  0  0  0
    5.8261   -0.2971    1.6905 N   0  0  0  0  0  0  0  0  0  0  0  0
    7.1111   -0.7335    1.3320 C   0  0  0  0  0  0  0  0  0  0  0  0
    8.0307    0.1361    0.7542 C   0  0  0  0  0  0  0  0  0  0  0  0
    9.2539   -0.3049    0.4213 N   0  0  0  0  0  0  0  0  0  0  0  0
    9.6289   -1.5771    0.6283 C   0  0  0  0  0  0  0  0  0  0  0  0
    8.7556   -2.4306    1.1849 N   0  0  0  0  0  0  0  0  0  0  0  0
    7.5193   -2.0479    1.5397 C   0  0  0  0  0  0  0  0  0  0  0  0
   10.9561   -2.0348    0.2620 C   0  0  0  0  0  0  0  0  0  0  0  0
   12.0312   -1.2677    0.4969 N   0  0  0  0  0  0  0  0  0  0  0  0
   13.2648   -1.6754    0.1652 C   0  0  0  0  0  0  0  0  0  0  0  0
   13.4360   -2.9184   -0.4351 C   0  0  0  0  0  0  0  0  0  0  0  0
   12.3098   -3.6999   -0.6696 C   0  0  0  0  0  0  0  0  0  0  0  0
   11.1021   -3.2372   -0.3150 N   0  0  0  0  0  0  0  0  0  0  0  0
    2.7172    5.4731    3.2668 H   0  0  0  0  0  0  0  0  0  0  0  0
    2.7446    7.5222    1.5000 H   0  0  0  0  0  0  0  0  0  0  0  0
    4.3941    8.7197    2.7311 H   0  0  0  0  0  0  0  0  0  0  0  0
    3.9559    7.3734    3.5447 H   0  0  0  0  0  0  0  0  0  0  0  0
    5.3616    7.4043    2.7142 H   0  0  0  0  0  0  0  0  0  0  0  0
    4.3692    8.7331    0.2491 H   0  0  0  0  0  0  0  0  0  0  0  0
    5.3367    7.4177    0.2323 H   0  0  0  0  0  0  0  0  0  0  0  0
    3.9146    7.3956   -0.5701 H   0  0  0  0  0  0  0  0  0  0  0  0
    5.2565    3.4291    2.4812 H   0  0  0  0  0  0  0  0  0  0  0  0
    1.1316    0.9735    2.5102 H   0  0  0  0  0  0  0  0  0  0  0  0
    5.0216   -0.8055    1.3835 H   0  0  0  0  0  0  0  0  0  0  0  0
    7.7803    1.0897    0.5868 H   0  0  0  0  0  0  0  0  0  0  0  0
    6.8912   -2.7070    1.9532 H   0  0  0  0  0  0  0  0  0  0  0  0
   14.0552   -1.0906    0.3478 H   0  0  0  0  0  0  0  0  0  0  0  0
   14.3467   -3.2422   -0.6919 H   0  0  0  0  0  0  0  0  0  0  0  0
   12.3998   -4.5987   -1.0987 H   0  0  0  0  0  0  0  0  0  0  0  0
  1  2  1  0  0  0  0
  2  3  1  0  0  0  0
  3  4  1  0  0  0  0
  4  5  1  0  0  0  0
  5  6  2  0  0  0  0
  5  7  1  0  0  0  0
  7  8  1  0  0  0  0
  7  9  1  0  0  0  0
  3 10  2  0  0  0  0
 10 11  1  0  0  0  0
 11 12  2  0  0  0  0
 12 13  1  0  0  0  0
 12 14  1  0  0  0  0
 14  2  2  0  0  0  0
 11 15  1  0  0  0  0
 15 16  2  0  0  0  0
 15 17  1  0  0  0  0
 17 18  1  0  0  0  0
 18 19  1  0  0  0  0
 19 20  2  0  0  0  0
 20 21  1  0  0  0  0
 21 22  2  0  0  0  0
 22 23  1  0  0  0  0
 23 18  2  0  0  0  0
 21 24  1  0  0  0  0
 24 25  1  0  0  0  0
 25 26  2  0  0  0  0
 26 27  1  0  0  0  0
 27 28  2  0  0  0  0
 28 29  1  0  0  0  0
 29 24  2  0  0  0  0
  4 30  1  0  0  0  0
  7 31  1  0  0  0  0
  8 32  1  0  0  0  0
  8 33  1  0  0  0  0
  8 34  1  0  0  0  0
  9 35  1  0  0  0  0
  9 36  1  0  0  0  0
  9 37  1  0  0  0  0
 10 38  1  0  0  0  0
 14 39  1  0  0  0  0
 17 40  1  0  0  0  0
 19 41  1  0  0  0  0
 23 42  1  0  0  0  0
 26 43  1  0  0  0  0
 27 44  1  0  0  0  0
 28 45  1  0  0  0  0
M  END
>  <result-rank>
97

>  <similarity>
0.903

>  <query-name>


>  <query-smiles>
Fc1c(F)ccc(NC(=O)c2nc(cnc2Nc3cncnc3)C4CC4)c1C(=O)N5CCC5

>  <source>
REALspace_2019-12

>  <similarity-descriptor>
0.0;0.896;1.000;0.873;0.919;0.852;0.852;0.919;0.852;0.0

>  <similarity-descriptor-smiles>
;C(C)C;Fc1cc(ccc1)F;Nc1cncnc1;c1ncccn1;C=O;C=O;c1ncccn1;NC=O;

>  <reaction-name>
s_11a

>  <reagent1-name>
15138556

>  <reagent1-smiles>
[R1*]Nc1cnc(nc1)c2ncccn2

>  <reagent2-name>
5825580

>  <reagent2-smiles>
[R1*]C(=O)c1c(F)cc(F)c(NC(=O)C(C)C)c1

$$$$
s_527a____15105384____12218672
          04022017343D 1   1.00000     0.00000     0
            
 57 60  0  0  0  0            999 V2000
   -3.0409    0.3597   -2.0124 F   0  0  0  0  0  0  0  0  0  0  0  0
   -2.2381    1.3704   -1.6956 C   0  0  0  0  0  0  0  0  0  0  0  0
   -2.1978    2.5036   -2.5005 C   0  0  0  0  0  0  0  0  0  0  0  0
   -1.3608    3.5644   -2.1722 C   0  0  0  0  0  0  0  0  0  0  0  0
   -0.5603    3.4933   -1.0372 C   0  0  0  0  0  0  0  0  0  0  0  0
   -0.6088    2.3536   -0.2409 C   0  0  0  0  0  0  0  0  0  0  0  0
   -1.4423    1.2863   -0.5581 C   0  0  0  0  0  0  0  0  0  0  0  0
    0.2650    2.2731    1.0000 C   0  0  3  0  0  0  0  0  0  0  0  0
    1.0000    1.0000    1.0000 N   0  0  0  0  0  0  0  0  0  0  0  0
    2.3700    1.0000    1.0000 C   0  0  0  0  0  0  0  0  0  0  0  0
    2.9700    2.0353    1.0906 O   0  0  0  0  0  0  0  0  0  0  0  0
    3.0955   -0.2518    0.8905 C   0  0  0  0  0  0  0  0  0  0  0  0
    2.4450   -1.4726    1.2066 C   0  0  0  0  0  0  0  0  0  0  0  0
    1.2789   -1.3669    1.5603 O   0  0  0  0  0  0  0  0  0  0  0  0
    3.1276   -2.7252    1.1102 C   0  0  0  0  0  0  0  0  0  0  0  0
    2.5500   -3.9692    1.4050 C   0  0  0  0  0  0  0  0  0  0  0  0
    1.2709   -4.1269    1.8143 O   0  0  0  0  0  0  0  0  0  0  0  0
    0.7499   -5.4303    2.0294 C   0  0  0  0  0  0  0  0  0  0  0  0
    3.2622   -5.1552    1.2948 C   0  0  0  0  0  0  0  0  0  0  0  0
    4.5837   -5.0714    0.8774 C   0  0  0  0  0  0  0  0  0  0  0  0
    5.2660   -6.2253    0.7746 O   0  0  0  0  0  0  0  0  0  0  0  0
    6.6849   -6.2089    0.7213 C   0  0  0  0  0  0  0  0  0  0  0  0
    5.1930   -3.8581    0.5752 C   0  0  0  0  0  0  0  0  0  0  0  0
    4.4558   -2.6846    0.6938 C   0  0  0  0  0  0  0  0  0  0  0  0
    5.0703   -1.4965    0.3926 N   0  0  0  0  0  0  0  0  0  0  0  0
    4.4051   -0.3017    0.4880 C   0  0  0  0  0  0  0  0  0  0  0  0
   -0.6089    2.3536    2.2411 C   0  0  3  0  0  0  0  0  0  0  0  0
   -1.3189    3.5833    2.2411 O   0  0  0  0  0  0  0  0  0  0  0  0
    0.2654    2.2730    3.4827 C   0  0  0  0  0  0  0  0  0  0  0  0
   -0.5650    2.3495    4.7305 C   0  0  0  0  0  0  0  0  0  0  0  0
    0.2362    3.5402    4.2879 C   0  0  0  0  0  0  0  0  0  0  0  0
   -3.0705    2.5815   -3.7416 C   0  0  0  0  0  0  0  0  0  0  0  0
   -1.3345    4.3785   -2.7524 H   0  0  0  0  0  0  0  0  0  0  0  0
    0.0435    4.2531   -0.7960 H   0  0  0  0  0  0  0  0  0  0  0  0
   -1.4690    0.4721    0.0220 H   0  0  0  0  0  0  0  0  0  0  0  0
    0.9148    3.0331    1.0000 H   0  0  0  0  0  0  0  0  0  0  0  0
    0.5000    0.1340    1.0000 H   0  0  0  0  0  0  0  0  0  0  0  0
   -0.2025   -5.3636    2.3270 H   0  0  0  0  0  0  0  0  0  0  0  0
    0.7973   -5.9529    1.1782 H   0  0  0  0  0  0  0  0  0  0  0  0
    1.2879   -5.8921    2.7346 H   0  0  0  0  0  0  0  0  0  0  0  0
    2.8398   -6.0362    1.5079 H   0  0  0  0  0  0  0  0  0  0  0  0
    7.0265   -7.1457    0.6460 H   0  0  0  0  0  0  0  0  0  0  0  0
    6.9825   -5.6807   -0.0740 H   0  0  0  0  0  0  0  0  0  0  0  0
    7.0450   -5.7887    1.5542 H   0  0  0  0  0  0  0  0  0  0  0  0
    6.1471   -3.8299    0.2769 H   0  0  0  0  0  0  0  0  0  0  0  0
    6.0255   -1.5017    0.0966 H   0  0  0  0  0  0  0  0  0  0  0  0
    4.8827    0.5470    0.2605 H   0  0  0  0  0  0  0  0  0  0  0  0
   -1.2587    1.5935    2.2411 H   0  0  0  0  0  0  0  0  0  0  0  0
   -1.8938    3.6363    3.0576 H   0  0  0  0  0  0  0  0  0  0  0  0
    1.0928    1.7116    3.4711 H   0  0  0  0  0  0  0  0  0  0  0  0
   -0.2917    1.8378    5.5451 H   0  0  0  0  0  0  0  0  0  0  0  0
   -1.5628    2.3666    4.6668 H   0  0  0  0  0  0  0  0  0  0  0  0
   -0.2281    4.3500    3.9292 H   0  0  0  0  0  0  0  0  0  0  0  0
    1.0430    3.8212    4.8075 H   0  0  0  0  0  0  0  0  0  0  0  0
   -2.9194    3.4568   -4.2009 H   0  0  0  0  0  0  0  0  0  0  0  0
   -2.8343    1.8341   -4.3626 H   0  0  0  0  0  0  0  0  0  0  0  0
   -4.0321    2.5048   -3.4783 H   0  0  0  0  0  0  0  0  0  0  0  0
  1  2  1  0  0  0  0
  2  3  1  0  0  0  0
  3  4  2  0  0  0  0
  4  5  1  0  0  0  0
  5  6  2  0  0  0  0
  6  7  1  0  0  0  0
  7  2  2  0  0  0  0
  6  8  1  0  0  0  0
  8  9  1  0  0  0  0
  9 10  1  0  0  0  0
 10 11  2  0  0  0  0
 10 12  1  0  0  0  0
 12 13  1  0  0  0  0
 13 14  2  0  0  0  0
 13 15  1  0  0  0  0
 15 16  1  0  0  0  0
 16 17  1  0  0  0  0
 17 18  1  0  0  0  0
 16 19  2  0  0  0  0
 19 20  1  0  0  0  0
 20 21  1  0  0  0  0
 21 22  1  0  0  0  0
 20 23  2  0  0  0  0
 23 24  1  0  0  0  0
 24 15  2  0  0  0  0
 24 25  1  0  0  0  0
 25 26  1  0  0  0  0
 12 26  2  0  0  0  0
  8 27  1  0  0  0  0
 27 28  1  0  0  0  0
 27 29  1  0  0  0  0
 29 30  1  0  0  0  0
 30 31  1  0  0  0  0
 31 29  1  0  0  0  0
  3 32  1  0  0  0  0
  4 33  1  0  0  0  0
  5 34  1  0  0  0  0
  7 35  1  0  0  0  0
  8 36  1  0  0  0  0
  9 37  1  0  0  0  0
 18 38  1  0  0  0  0
 18 39  1  0  0  0  0
 18 40  1  0  0  0  0
 19 41  1  0  0  0  0
 22 42  1  0  0  0  0
 22 43  1  0  0  0  0
 22 44  1  0  0  0  0
 23 45  1  0  0  0  0
 25 46  1  0  0  0  0
 26 47  1  0  0  0  0
 27 48  1  0  0  0  0
 28 49  1  0  0  0  0
 29 50  1  0  0  0  0
 30 51  1  0  0  0  0
 30 52  1  0  0  0  0
 31 53  1  0  0  0  0
 31 54  1  0  0  0  0
 32 55  1  0  0  0  0
 32 56  1  0  0  0  0
 32 57  1  0  0  0  0
M  END
>  <result-rank>
98

>  <similarity>
0.903

>  <query-name>


>  <query-smiles>
Fc1c(F)ccc(NC(=O)c2nc(cnc2Nc3cncnc3)C4CC4)c1C(=O)N5CCC5

>  <source>
REALspace_2019-12

>  <similarity-descriptor>
0.0;0.966;0.920;0.962;0.927;1.000;0.999;0.962;0.711;0.214

>  <similarity-descriptor-smiles>
;C1CC1;Fc1cc(ccc1)C;C1=CNccC1=O;c1ccc(cc1O)O;N;C=O;C1=CNccC1=O;CO;C.C.C

>  <reaction-name>
s_527a

>  <reagent1-name>
15105384

>  <reagent1-smiles>
[R1*]NC(c1cc(F)c(cc1)C)C(O)C2CC2

>  <reagent2-name>
12218672

>  <reagent2-smiles>
[R1*]C(=O)C=1C(=O)c2c(OC)cc(OC)cc2NC1

$$$$
s_2430a____1041920____7689788
          04022017343D 1   1.00000     0.00000     0
            
 52 55  0  0  0  0            999 V2000
    4.0995    0.3546   -1.0357 F   0  0  0  0  0  0  0  0  0  0  0  0
    3.9398   -0.5151   -0.0427 C   0  0  0  0  0  0  0  0  0  0  0  0
    3.0701   -0.2126    1.0000 C   0  0  0  0  0  0  0  0  0  0  0  0
    2.3700    1.0000    1.0000 N   0  0  0  0  0  0  0  0  0  0  0  0
    1.0000    1.0000    1.0000 C   0  0  0  0  0  0  0  0  0  0  0  0
    0.4000   -0.0392    1.0000 O   0  0  0  0  0  0  0  0  0  0  0  0
    0.3150    2.1865    1.0000 N   0  0  0  0  0  0  0  0  0  0  0  0
   -1.1550    2.1865    1.0000 C   0  0  3  0  0  0  0  0  0  0  0  0
   -1.6616    2.9029    2.2410 C   0  0  0  0  0  0  0  0  0  0  0  0
   -1.2751    4.0811    2.6580 O   0  0  0  0  0  0  0  0  0  0  0  0
   -1.8939    4.3874    3.7191 N   0  0  0  0  0  0  0  0  0  0  0  0
   -2.7040    3.4029    4.0230 C   0  0  0  0  0  0  0  0  0  0  0  0
   -2.5620    2.4403    3.0737 N   0  0  0  0  0  0  0  0  0  0  0  0
   -3.5947    3.3520    5.1666 C   0  0  0  0  0  0  0  0  0  0  0  0
   -3.2466    3.0445    6.3931 N   0  0  0  0  0  0  0  0  0  0  0  0
   -4.3145    3.1050    7.1564 N   0  0  0  0  0  0  0  0  0  0  0  0
   -5.3719    3.4692    6.3746 C   0  0  0  0  0  0  0  0  0  0  0  0
   -4.9294    3.6220    5.1467 N   0  0  0  0  0  0  0  0  0  0  0  0
   -1.6617    2.9030   -0.2411 C   0  0  0  0  0  0  0  0  0  0  0  0
   -1.1550    2.1865   -1.4821 C   0  0  0  0  0  0  0  0  0  0  0  0
   -3.1817    2.9030   -0.2411 C   0  0  0  0  0  0  0  0  0  0  0  0
    2.8873   -1.1064    2.0491 C   0  0  0  0  0  0  0  0  0  0  0  0
    3.5899   -2.3059    2.0350 C   0  0  0  0  0  0  0  0  0  0  0  0
    3.4192   -3.2150    3.0825 N   0  0  0  0  0  0  0  0  0  0  0  0
    4.1774   -3.2393    4.2490 C   0  0  0  0  0  0  0  0  0  0  0  0
    5.0954   -2.4866    4.5274 O   0  0  0  0  0  0  0  0  0  0  0  0
    3.6603   -4.3792    5.1026 C   0  0  0  0  0  0  0  0  0  0  0  0
    3.0301   -5.2850    4.0645 C   0  0  0  0  0  0  0  0  0  0  0  0
    2.4189   -4.2834    3.1084 C   0  0  0  0  0  0  0  0  0  0  0  0
    4.4606   -2.6148    0.9958 C   0  0  0  0  0  0  0  0  0  0  0  0
    4.6400   -1.7171   -0.0512 C   0  0  0  0  0  0  0  0  0  0  0  0
    2.8700    1.8660    1.0000 H   0  0  0  0  0  0  0  0  0  0  0  0
    0.8150    3.0525    1.0000 H   0  0  0  0  0  0  0  0  0  0  0  0
   -1.4883    1.2436    1.0000 H   0  0  0  0  0  0  0  0  0  0  0  0
   -4.3466    2.9171    8.1380 H   0  0  0  0  0  0  0  0  0  0  0  0
   -6.3151    3.5969    6.6813 H   0  0  0  0  0  0  0  0  0  0  0  0
   -1.3283    3.8458   -0.2411 H   0  0  0  0  0  0  0  0  0  0  0  0
   -1.4883    2.6579   -2.2986 H   0  0  0  0  0  0  0  0  0  0  0  0
   -0.1550    2.1865   -1.4821 H   0  0  0  0  0  0  0  0  0  0  0  0
   -1.4883    1.2436   -1.4821 H   0  0  0  0  0  0  0  0  0  0  0  0
   -3.5150    3.3744   -1.0576 H   0  0  0  0  0  0  0  0  0  0  0  0
   -3.5150    1.9602   -0.2411 H   0  0  0  0  0  0  0  0  0  0  0  0
   -3.5150    3.3744    0.5754 H   0  0  0  0  0  0  0  0  0  0  0  0
    2.2623   -0.8906    2.7993 H   0  0  0  0  0  0  0  0  0  0  0  0
    2.9834   -4.0593    5.7655 H   0  0  0  0  0  0  0  0  0  0  0  0
    4.4058   -4.8406    5.5837 H   0  0  0  0  0  0  0  0  0  0  0  0
    3.7178   -5.8503    3.6090 H   0  0  0  0  0  0  0  0  0  0  0  0
    2.3311   -5.8734    4.4711 H   0  0  0  0  0  0  0  0  0  0  0  0
    2.2929   -4.6820    2.2000 H   0  0  0  0  0  0  0  0  0  0  0  0
    1.5410   -3.9477    3.4498 H   0  0  0  0  0  0  0  0  0  0  0  0
    4.9578   -3.4824    1.0013 H   0  0  0  0  0  0  0  0  0  0  0  0
    5.2649   -1.9331   -0.8014 H   0  0  0  0  0  0  0  0  0  0  0  0
  1  2  1  0  0  0  0
  2  3  1  0  0  0  0
  3  4  1  0  0  0  0
  4  5  1  0  0  0  0
  5  6  2  0  0  0  0
  5  7  1  0  0  0  0
  7  8  1  0  0  0  0
  8  9  1  0  0  0  0
  9 10  1  0  0  0  0
 10 11  1  0  0  0  0
 11 12  2  0  0  0  0
 12 13  1  0  0  0  0
  9 13  2  0  0  0  0
 12 14  1  0  0  0  0
 14 15  2  0  0  0  0
 15 16  1  0  0  0  0
 16 17  1  0  0  0  0
 17 18  2  0  0  0  0
 18 14  1  0  0  0  0
  8 19  1  0  0  0  0
 19 20  1  0  0  0  0
 19 21  1  0  0  0  0
  3 22  2  0  0  0  0
 22 23  1  0  0  0  0
 23 24  1  0  0  0  0
 24 25  1  0  0  0  0
 25 26  2  0  0  0  0
 25 27  1  0  0  0  0
 27 28  1  0  0  0  0
 28 29  1  0  0  0  0
 29 24  1  0  0  0  0
 23 30  2  0  0  0  0
 30 31  1  0  0  0  0
 31  2  2  0  0  0  0
  4 32  1  0  0  0  0
  7 33  1  0  0  0  0
  8 34  1  0  0  0  0
 16 35  1  0  0  0  0
 17 36  1  0  0  0  0
 19 37  1  0  0  0  0
 20 38  1  0  0  0  0
 20 39  1  0  0  0  0
 20 40  1  0  0  0  0
 21 41  1  0  0  0  0
 21 42  1  0  0  0  0
 21 43  1  0  0  0  0
 22 44  1  0  0  0  0
 27 45  1  0  0  0  0
 27 46  1  0  0  0  0
 28 47  1  0  0  0  0
 28 48  1  0  0  0  0
 29 49  1  0  0  0  0
 29 50  1  0  0  0  0
 30 51  1  0  0  0  0
 31 52  1  0  0  0  0
M  END
>  <result-rank>
99

>  <similarity>
0.902

>  <query-name>


>  <query-smiles>
Fc1c(F)ccc(NC(=O)c2nc(cnc2Nc3cncnc3)C4CC4)c1C(=O)N5CCC5

>  <source>
REALspace_2019-12

>  <similarity-descriptor>
0.873;0.998;0.964;0.809;0.844;1.000;0.849;0.844;0.998;0.0

>  <similarity-descriptor-smiles>
C(C)C;N1CCCC1=O;Fc1ccccc1;CC1=NC=NO1;C=1N=CNN1;N;C(=O)N;C=1N=CNN1;N1CCCC1=O;

>  <reaction-name>
s_2430a

>  <reagent1-name>
1041920

>  <reagent1-smiles>
[R1*]C(=O)Nc1c(F)ccc(N2C(=O)CCC2)c1

>  <reagent2-name>
7689788

>  <reagent2-smiles>
[R1*]NC(C=1ON=C(N1)C2=NN=CN2)C(C)C

$$$$
s_22____7639468____7688372
          04022017343D 1   1.00000     0.00000     0
            
 55 59  0  0  0  0            999 V2000
    1.9369    0.3005   -1.6216 F   0  0  0  0  0  0  0  0  0  0  0  0
    2.8422   -0.3877   -0.9335 C   0  0  0  0  0  0  0  0  0  0  0  0
    3.0826   -0.0494    0.3941 C   0  0  0  0  0  0  0  0  0  0  0  0
    2.3830    1.0000    1.0000 N   0  0  0  0  0  0  0  0  0  0  0  0
    1.0000    1.0000    1.0000 N   0  0  0  0  0  0  0  0  0  0  0  0
    0.3150    2.1865    1.0000 C   0  0  0  0  0  0  0  0  0  0  0  0
    0.8843    3.2080    0.7310 O   0  0  0  0  0  0  0  0  0  0  0  0
   -1.1004    2.2079    1.3256 C   0  0  0  0  0  0  0  0  0  0  0  0
   -1.6182    2.9313    2.3995 C   0  0  0  0  0  0  0  0  0  0  0  0
   -2.9895    2.8994    2.6450 C   0  0  0  0  0  0  0  0  0  0  0  0
   -3.7874    2.1739    1.8447 N   0  0  0  0  0  0  0  0  0  0  0  0
   -3.3097    1.4700    0.8055 C   0  0  0  0  0  0  0  0  0  0  0  0
   -1.9503    1.4664    0.5140 C   0  0  0  0  0  0  0  0  0  0  0  0
   -4.2197    0.6511   -0.0954 C   0  0  0  0  0  0  0  0  0  0  0  0
   -3.6093    0.4705   -1.4545 C   0  0  0  0  0  0  0  0  0  0  0  0
   -4.7367    1.4437   -1.2613 C   0  0  0  0  0  0  0  0  0  0  0  0
   -3.5083    3.6210    3.7161 C   0  0  0  0  0  0  0  0  0  0  0  0
   -2.6871    4.3751    4.5485 C   0  0  0  0  0  0  0  0  0  0  0  0
   -1.3173    4.4096    4.3083 C   0  0  0  0  0  0  0  0  0  0  0  0
   -0.4718    5.1237    5.0814 O   0  0  0  0  0  0  0  0  0  0  0  0
   -0.8788    6.3782    5.6077 C   0  0  0  0  0  0  0  0  0  0  0  0
   -0.8029    3.6875    3.2386 C   0  0  0  0  0  0  0  0  0  0  0  0
    4.0284   -0.7641    1.1205 C   0  0  0  0  0  0  0  0  0  0  0  0
    4.2648   -0.4462    2.3902 F   0  0  0  0  0  0  0  0  0  0  0  0
    4.7320   -1.8100    0.5333 C   0  0  0  0  0  0  0  0  0  0  0  0
    4.4735   -2.1295   -0.7952 C   0  0  0  0  0  0  0  0  0  0  0  0
    3.5328   -1.4295   -1.5427 C   0  0  0  0  0  0  0  0  0  0  0  0
    5.1989   -3.2179   -1.4187 C   0  0  0  0  0  0  0  0  0  0  0  0
    4.6015   -4.0857   -1.9931 O   0  0  0  0  0  0  0  0  0  0  0  0
    6.5667   -3.2562   -1.3523 N   0  0  0  0  0  0  0  0  0  0  0  0
    7.3019   -4.3592   -1.9841 C   0  0  0  0  0  0  0  0  0  0  0  0
    8.1139   -5.1276   -0.9818 C   0  0  0  0  0  0  0  0  0  0  0  0
    8.7883   -4.1588   -1.9107 C   0  0  0  0  0  0  0  0  0  0  0  0
    2.8830    1.7500    1.4330 H   0  0  0  0  0  0  0  0  0  0  0  0
    0.5000    0.1340    1.0000 H   0  0  0  0  0  0  0  0  0  0  0  0
   -1.5933    0.9435   -0.2600 H   0  0  0  0  0  0  0  0  0  0  0  0
   -4.7810   -0.0776    0.2971 H   0  0  0  0  0  0  0  0  0  0  0  0
   -3.7620   -0.3772   -1.9626 H   0  0  0  0  0  0  0  0  0  0  0  0
   -2.6849    0.8059   -1.6360 H   0  0  0  0  0  0  0  0  0  0  0  0
   -4.5630    2.4271   -1.3139 H   0  0  0  0  0  0  0  0  0  0  0  0
   -5.6402    1.2440   -1.6405 H   0  0  0  0  0  0  0  0  0  0  0  0
   -4.4926    3.5970    3.8911 H   0  0  0  0  0  0  0  0  0  0  0  0
   -3.0782    4.8878    5.3128 H   0  0  0  0  0  0  0  0  0  0  0  0
   -0.1364    6.7676    6.1529 H   0  0  0  0  0  0  0  0  0  0  0  0
   -1.1011    6.9988    4.8557 H   0  0  0  0  0  0  0  0  0  0  0  0
   -1.6854    6.2516    6.1850 H   0  0  0  0  0  0  0  0  0  0  0  0
    0.1818    3.7113    3.0659 H   0  0  0  0  0  0  0  0  0  0  0  0
    5.4119   -2.3233    1.0571 H   0  0  0  0  0  0  0  0  0  0  0  0
    3.3568   -1.6700   -2.4973 H   0  0  0  0  0  0  0  0  0  0  0  0
    7.0645   -2.5330   -0.8735 H   0  0  0  0  0  0  0  0  0  0  0  0
    6.9040   -4.8346   -2.7687 H   0  0  0  0  0  0  0  0  0  0  0  0
    8.2520   -6.1111   -1.0986 H   0  0  0  0  0  0  0  0  0  0  0  0
    8.0370   -4.9152   -0.0076 H   0  0  0  0  0  0  0  0  0  0  0  0
    9.1603   -3.3014   -1.5551 H   0  0  0  0  0  0  0  0  0  0  0  0
    9.3753   -4.4973   -2.6461 H   0  0  0  0  0  0  0  0  0  0  0  0
  1  2  1  0  0  0  0
  2  3  1  0  0  0  0
  3  4  1  0  0  0  0
  4  5  1  0  0  0  0
  5  6  1  0  0  0  0
  6  7  2  0  0  0  0
  6  8  1  0  0  0  0
  8  9  1  0  0  0  0
  9 10  2  0  0  0  0
 10 11  1  0  0  0  0
 11 12  2  0  0  0  0
 12 13  1  0  0  0  0
 13  8  2  0  0  0  0
 12 14  1  0  0  0  0
 14 15  1  0  0  0  0
 15 16  1  0  0  0  0
 16 14  1  0  0  0  0
 10 17  1  0  0  0  0
 17 18  2  0  0  0  0
 18 19  1  0  0  0  0
 19 20  1  0  0  0  0
 20 21  1  0  0  0  0
 19 22  2  0  0  0  0
 22  9  1  0  0  0  0
  3 23  2  0  0  0  0
 23 24  1  0  0  0  0
 23 25  1  0  0  0  0
 25 26  2  0  0  0  0
 26 27  1  0  0  0  0
 27  2  2  0  0  0  0
 26 28  1  0  0  0  0
 28 29  2  0  0  0  0
 28 30  1  0  0  0  0
 30 31  1  0  0  0  0
 31 32  1  0  0  0  0
 32 33  1  0  0  0  0
 33 31  1  0  0  0  0
  4 34  1  0  0  0  0
  5 35  1  0  0  0  0
 13 36  1  0  0  0  0
 14 37  1  0  0  0  0
 15 38  1  0  0  0  0
 15 39  1  0  0  0  0
 16 40  1  0  0  0  0
 16 41  1  0  0  0  0
 17 42  1  0  0  0  0
 18 43  1  0  0  0  0
 21 44  1  0  0  0  0
 21 45  1  0  0  0  0
 21 46  1  0  0  0  0
 22 47  1  0  0  0  0
 25 48  1  0  0  0  0
 27 49  1  0  0  0  0
 30 50  1  0  0  0  0
 31 51  1  0  0  0  0
 32 52  1  0  0  0  0
 32 53  1  0  0  0  0
 33 54  1  0  0  0  0
 33 55  1  0  0  0  0
M  END
>  <result-rank>
100

>  <similarity>
0.902

>  <query-name>


>  <query-smiles>
Fc1c(F)ccc(NC(=O)c2nc(cnc2Nc3cncnc3)C4CC4)c1C(=O)N5CCC5

>  <source>
REALspace_2019-12

>  <similarity-descriptor>
1.000;0.969;1.000;0.768;0.872;0.975;0.848;0.768;0.852;0.083

>  <similarity-descriptor-smiles>
C1CC1;C1CC1;Fc1cccc(c1)F;c1ccncc1;c1cc(ccc1)O;N;NC=O;c1ccncc1;C(=O)N;C

>  <reaction-name>
s_22

>  <reagent1-name>
7639468

>  <reagent1-smiles>
[R1*]NNc1c(F)cc(cc1F)C(=O)NC2CC2

>  <reagent2-name>
7688372

>  <reagent2-smiles>
[R1*]C(=O)c1c2c(nc(c1)C3CC3)ccc(OC)c2

$$$$
