s_22____15359960____323328
          04022017313D 1   1.00000     0.00000     0
            
 48 51  0  0  0  0            999 V2000
   -0.6374    2.7251    2.5386 S   0  0  0  0  0  0  0  0  0  0  0  0
   -1.6603    3.4894    1.8729 O   0  0  0  0  0  0  0  0  0  0  0  0
   -0.4537    1.4711    1.8549 O   0  0  0  0  0  0  0  0  0  0  0  0
    0.7615    3.5615    2.5249 N   0  0  0  0  0  0  0  0  0  0  0  0
    1.9842    2.8802    2.5097 C   0  0  0  0  0  0  0  0  0  0  0  0
    3.1777    3.5943    2.4980 C   0  0  0  0  0  0  0  0  0  0  0  0
    4.3931    2.9175    2.4829 C   0  0  0  0  0  0  0  0  0  0  0  0
    4.3950    1.5262    2.4798 C   0  0  0  0  0  0  0  0  0  0  0  0
    5.6179    0.8451    2.4642 N   0  0  0  0  0  0  0  0  0  0  0  0
    5.7828   -0.2839    3.2225 C   0  0  0  0  0  0  0  0  0  0  0  0
    5.0521   -0.4953    4.1507 O   0  0  0  0  0  0  0  0  0  0  0  0
    6.8405   -1.2237    2.9035 C   0  0  0  0  0  0  0  0  0  0  0  0
    7.0998   -2.3764    3.5839 N   0  0  0  0  0  0  0  0  0  0  0  0
    8.1662   -2.9824    2.9867 C   0  0  0  0  0  0  0  0  0  0  0  0
    8.5824   -2.2161    1.9238 C   0  0  0  0  0  0  0  0  0  0  0  0
    9.6677   -2.6544    1.1696 C   0  0  0  0  0  0  0  0  0  0  0  0
   10.3384   -3.8415    1.4504 C   0  0  0  0  0  0  0  0  0  0  0  0
    9.8988   -4.6042    2.5274 C   0  0  0  0  0  0  0  0  0  0  0  0
    8.8183   -4.1729    3.2899 C   0  0  0  0  0  0  0  0  0  0  0  0
   11.5206   -4.3316    0.6303 C   0  0  0  0  0  0  0  0  0  0  0  0
    7.7308   -1.0861    1.8799 C   0  0  0  0  0  0  0  0  0  0  0  0
    3.2013    0.8121    2.4917 C   0  0  0  0  0  0  0  0  0  0  0  0
    1.9859    1.4888    2.5066 C   0  0  0  0  0  0  0  0  0  0  0  0
   -1.1168    2.4238    4.1836 C   0  0  0  0  0  0  0  0  0  0  0  0
   -1.9266    3.3419    4.8438 C   0  0  0  0  0  0  0  0  0  0  0  0
   -2.3060    3.0958    6.1590 C   0  0  0  0  0  0  0  0  0  0  0  0
   -1.8742    1.9385    6.7981 C   0  0  0  0  0  0  0  0  0  0  0  0
   -2.2411    1.7099    8.0558 F   0  0  0  0  0  0  0  0  0  0  0  0
   -1.0646    1.0249    6.1324 C   0  0  0  0  0  0  0  0  0  0  0  0
   -0.6813    1.2649    4.8173 C   0  0  0  0  0  0  0  0  0  0  0  0
    0.7463    4.5614    2.5273 H   0  0  0  0  0  0  0  0  0  0  0  0
    3.1622    4.5942    2.5004 H   0  0  0  0  0  0  0  0  0  0  0  0
    5.2548    3.4248    2.4743 H   0  0  0  0  0  0  0  0  0  0  0  0
    6.3710    1.1826    1.8996 H   0  0  0  0  0  0  0  0  0  0  0  0
    6.5978   -2.7169    4.3789 H   0  0  0  0  0  0  0  0  0  0  0  0
    9.9762   -2.0967    0.3990 H   0  0  0  0  0  0  0  0  0  0  0  0
   10.3595   -5.4624    2.7536 H   0  0  0  0  0  0  0  0  0  0  0  0
    8.5072   -4.7244    4.0639 H   0  0  0  0  0  0  0  0  0  0  0  0
   11.8485   -5.1994    1.0036 H   0  0  0  0  0  0  0  0  0  0  0  0
   11.2359   -4.4635   -0.3192 H   0  0  0  0  0  0  0  0  0  0  0  0
   12.2554   -3.6542    0.6668 H   0  0  0  0  0  0  0  0  0  0  0  0
    7.7739   -0.3321    1.2244 H   0  0  0  0  0  0  0  0  0  0  0  0
    3.2168   -0.1878    2.4896 H   0  0  0  0  0  0  0  0  0  0  0  0
    1.1241    0.9816    2.5149 H   0  0  0  0  0  0  0  0  0  0  0  0
   -2.2333    4.1714    4.3771 H   0  0  0  0  0  0  0  0  0  0  0  0
   -2.8876    3.7491    6.6437 H   0  0  0  0  0  0  0  0  0  0  0  0
   -0.7579    0.1954    6.5993 H   0  0  0  0  0  0  0  0  0  0  0  0
   -0.0992    0.6118    4.3329 H   0  0  0  0  0  0  0  0  0  0  0  0
  1  2  2  0  0  0  0
  1  3  2  0  0  0  0
  1  4  1  0  0  0  0
  4  5  1  0  0  0  0
  5  6  1  0  0  0  0
  6  7  2  0  0  0  0
  7  8  1  0  0  0  0
  8  9  1  0  0  0  0
  9 10  1  0  0  0  0
 10 11  2  0  0  0  0
 10 12  1  0  0  0  0
 12 13  1  0  0  0  0
 13 14  1  0  0  0  0
 14 15  1  0  0  0  0
 15 16  2  0  0  0  0
 16 17  1  0  0  0  0
 17 18  2  0  0  0  0
 18 19  1  0  0  0  0
 19 14  2  0  0  0  0
 17 20  1  0  0  0  0
 15 21  1  0  0  0  0
 12 21  2  0  0  0  0
  8 22  2  0  0  0  0
 22 23  1  0  0  0  0
 23  5  2  0  0  0  0
  1 24  1  0  0  0  0
 24 25  1  0  0  0  0
 25 26  2  0  0  0  0
 26 27  1  0  0  0  0
 27 28  1  0  0  0  0
 27 29  2  0  0  0  0
 29 30  1  0  0  0  0
 30 24  2  0  0  0  0
  4 31  1  0  0  0  0
  6 32  1  0  0  0  0
  7 33  1  0  0  0  0
  9 34  1  0  0  0  0
 13 35  1  0  0  0  0
 16 36  1  0  0  0  0
 18 37  1  0  0  0  0
 19 38  1  0  0  0  0
 20 39  1  0  0  0  0
 20 40  1  0  0  0  0
 20 41  1  0  0  0  0
 21 42  1  0  0  0  0
 22 43  1  0  0  0  0
 23 44  1  0  0  0  0
 25 45  1  0  0  0  0
 26 46  1  0  0  0  0
 29 47  1  0  0  0  0
 30 48  1  0  0  0  0
M  END
>  <result-rank>
1

>  <similarity>
0.942

>  <query-name>


>  <query-smiles>
S(=O)(=O)(Nc1cc2c(NN=C2C=3Nc4c(ccc(c4)C)C3)cc1)c5cc(F)ccc5

>  <source>
REALspace_2019-12

>  <similarity-descriptor>
1.000;1.000;1.000;0.602;0.936;1.000;1.000;1.000;0.0

>  <similarity-descriptor-smiles>
c1ccc(cc1)F;C1=CccN1;c1ccccc1;NC=O;c1ccccc1;S(=O)=O;N;C;

>  <reaction-name>
s_22

>  <reagent1-name>
15359960

>  <reagent1-smiles>
[R1*]Nc1ccc(NS(=O)(=O)c2ccc(F)cc2)cc1

>  <reagent2-name>
323328

>  <reagent2-smiles>
[R1*]C(=O)C=1Nc2c(cc(cc2)C)C1

$$$$
s_270196____11244138____8772466
          04022017313D 1   1.00000     0.00000     0
            
 49 53  0  0  0  0            999 V2000
   14.1917   -1.3438   -4.9021 Br  0  0  0  0  0  0  0  0  0  0  0  0
   12.2396   -1.4821   -4.7847 C   0  0  0  0  0  0  0  0  0  0  0  0
   11.5283   -0.9351   -3.7196 C   0  0  0  0  0  0  0  0  0  0  0  0
   10.1424   -1.0397   -3.6435 C   0  0  0  0  0  0  0  0  0  0  0  0
    9.4796   -1.6977   -4.6539 C   0  0  0  0  0  0  0  0  0  0  0  0
    8.1391   -1.6865   -4.3893 N   0  0  0  0  0  0  0  0  0  0  0  0
    7.9497   -1.0187   -3.2157 C   0  0  0  0  0  0  0  0  0  0  0  0
    6.6651   -0.7851   -2.5841 C   0  0  0  0  0  0  0  0  0  0  0  0
    5.4960   -1.1742   -3.0359 N   0  0  0  0  0  0  0  0  0  0  0  0
    4.5999   -0.7963   -2.2230 O   0  0  0  0  0  0  0  0  0  0  0  0
    5.1562   -0.1529   -1.2255 C   0  0  0  0  0  0  0  0  0  0  0  0
    6.4509   -0.1262   -1.4153 N   0  0  0  0  0  0  0  0  0  0  0  0
    4.4540    0.4308   -0.0985 C   0  0  0  0  0  0  0  0  0  0  0  0
    3.0628    0.4374   -0.0860 C   0  0  0  0  0  0  0  0  0  0  0  0
    2.4002    1.0000    1.0000 C   0  0  0  0  0  0  0  0  0  0  0  0
    1.0000    1.0000    1.0000 N   0  0  0  0  0  0  0  0  0  0  0  0
    0.1850   -0.4116    0.9975 S   0  0  0  0  0  0  0  0  0  0  0  0
   -1.1907   -0.1710    0.6466 O   0  0  0  0  0  0  0  0  0  0  0  0
    0.7764   -1.3056    0.0360 O   0  0  0  0  0  0  0  0  0  0  0  0
    0.2627   -1.1288    2.5806 C   0  0  0  0  0  0  0  0  0  0  0  0
   -0.7175   -0.8295    3.5209 C   0  0  0  0  0  0  0  0  0  0  0  0
   -0.6497   -1.4055    4.7849 C   0  0  0  0  0  0  0  0  0  0  0  0
    0.3931   -2.2721    5.0947 C   0  0  0  0  0  0  0  0  0  0  0  0
    0.4513   -2.8192    6.3057 F   0  0  0  0  0  0  0  0  0  0  0  0
    1.3699   -2.5669    4.1502 C   0  0  0  0  0  0  0  0  0  0  0  0
    1.3082   -1.9942    2.8844 C   0  0  0  0  0  0  0  0  0  0  0  0
    3.1190    1.5485    2.0581 C   0  0  0  0  0  0  0  0  0  0  0  0
    4.5104    1.5359    2.0349 C   0  0  0  0  0  0  0  0  0  0  0  0
    5.1831    0.9758    0.9539 C   0  0  0  0  0  0  0  0  0  0  0  0
    2.3844    2.1593    3.2399 C   0  0  0  0  0  0  0  0  0  0  0  0
    9.1535   -0.6039   -2.7292 C   0  0  0  0  0  0  0  0  0  0  0  0
   10.1611   -2.2554   -5.7283 C   0  0  0  0  0  0  0  0  0  0  0  0
   11.5459   -2.1457   -5.7921 C   0  0  0  0  0  0  0  0  0  0  0  0
   12.0236   -0.4571   -2.9942 H   0  0  0  0  0  0  0  0  0  0  0  0
    7.4238   -2.0955   -4.9559 H   0  0  0  0  0  0  0  0  0  0  0  0
    2.5468    0.0435   -0.8466 H   0  0  0  0  0  0  0  0  0  0  0  0
    0.5000    1.8660    1.0015 H   0  0  0  0  0  0  0  0  0  0  0  0
   -1.4643   -0.2058    3.2901 H   0  0  0  0  0  0  0  0  0  0  0  0
   -1.3486   -1.1971    5.4691 H   0  0  0  0  0  0  0  0  0  0  0  0
    2.1167   -3.1906    4.3811 H   0  0  0  0  0  0  0  0  0  0  0  0
    2.0075   -2.2022    2.2005 H   0  0  0  0  0  0  0  0  0  0  0  0
    5.0267    1.9297    2.7954 H   0  0  0  0  0  0  0  0  0  0  0  0
    6.1829    0.9648    0.9332 H   0  0  0  0  0  0  0  0  0  0  0  0
    3.0485    2.5035    3.9035 H   0  0  0  0  0  0  0  0  0  0  0  0
    1.8097    2.9133    2.9216 H   0  0  0  0  0  0  0  0  0  0  0  0
    1.8114    1.4631    3.6722 H   0  0  0  0  0  0  0  0  0  0  0  0
    9.3087   -0.0892   -1.8860 H   0  0  0  0  0  0  0  0  0  0  0  0
    9.6597   -2.7321   -6.4503 H   0  0  0  0  0  0  0  0  0  0  0  0
   12.0436   -2.5440   -6.5626 H   0  0  0  0  0  0  0  0  0  0  0  0
  1  2  1  0  0  0  0
  2  3  1  0  0  0  0
  3  4  2  0  0  0  0
  4  5  1  0  0  0  0
  5  6  1  0  0  0  0
  6  7  1  0  0  0  0
  7  8  1  0  0  0  0
  8  9  2  0  0  0  0
  9 10  1  0  0  0  0
 10 11  1  0  0  0  0
 11 12  2  0  0  0  0
 12  8  1  0  0  0  0
 11 13  1  0  0  0  0
 13 14  1  0  0  0  0
 14 15  2  0  0  0  0
 15 16  1  0  0  0  0
 16 17  1  0  0  0  0
 17 18  2  0  0  0  0
 17 19  2  0  0  0  0
 17 20  1  0  0  0  0
 20 21  1  0  0  0  0
 21 22  2  0  0  0  0
 22 23  1  0  0  0  0
 23 24  1  0  0  0  0
 23 25  2  0  0  0  0
 25 26  1  0  0  0  0
 26 20  2  0  0  0  0
 15 27  1  0  0  0  0
 27 28  2  0  0  0  0
 28 29  1  0  0  0  0
 29 13  2  0  0  0  0
 27 30  1  0  0  0  0
  7 31  2  0  0  0  0
 31  4  1  0  0  0  0
  5 32  2  0  0  0  0
 32 33  1  0  0  0  0
 33  2  2  0  0  0  0
  3 34  1  0  0  0  0
  6 35  1  0  0  0  0
 14 36  1  0  0  0  0
 16 37  1  0  0  0  0
 21 38  1  0  0  0  0
 22 39  1  0  0  0  0
 25 40  1  0  0  0  0
 26 41  1  0  0  0  0
 28 42  1  0  0  0  0
 29 43  1  0  0  0  0
 30 44  1  0  0  0  0
 30 45  1  0  0  0  0
 30 46  1  0  0  0  0
 31 47  1  0  0  0  0
 32 48  1  0  0  0  0
 33 49  1  0  0  0  0
M  END
>  <result-rank>
2

>  <similarity>
0.939

>  <query-name>


>  <query-smiles>
S(=O)(=O)(Nc1cc2c(NN=C2C=3Nc4c(ccc(c4)C)C3)cc1)c5cc(F)ccc5

>  <source>
REALspace_2019-12

>  <similarity-descriptor>
1.000;1.000;0.961;0.680;0.983;1.000;1.000;0.961;0.125

>  <similarity-descriptor-smiles>
c1ccc(cc1)F;c1C=CNc1;Brc1ccccc1;C=1N=CON1;c1ccccc1;S(=O)=O;N;Brc1ccccc1;C

>  <reaction-name>
s_270196

>  <reagent1-name>
11244138

>  <reagent1-smiles>
[R1*]=NC(=NO[R2*])C=1Nc2c(cc(Br)cc2)C1

>  <reagent2-name>
8772466

>  <reagent2-smiles>
[R1*]C([R2*])c1cc(NS(=O)(=O)c2ccc(F)cc2)c(cc1)C

$$$$
s_22____13022848____59626
          04022017313D 1   1.00000     0.00000     0
            
 48 51  0  0  0  0            999 V2000
    0.2748   -4.2242   -1.3919 Br  0  0  0  0  0  0  0  0  0  0  0  0
    1.7612   -4.4695   -0.1367 C   0  0  0  0  0  0  0  0  0  0  0  0
    2.4259   -3.3808    0.4264 C   0  0  0  0  0  0  0  0  0  0  0  0
    3.4897   -3.5239    1.3180 C   0  0  0  0  0  0  0  0  0  0  0  0
    3.8747   -4.8124    1.6184 C   0  0  0  0  0  0  0  0  0  0  0  0
    4.9358   -4.7665    2.4819 N   0  0  0  0  0  0  0  0  0  0  0  0
    5.2469   -3.4685    2.7565 C   0  0  0  0  0  0  0  0  0  0  0  0
    4.3700   -2.6955    2.0557 C   0  0  0  0  0  0  0  0  0  0  0  0
    4.3489   -1.2950    2.0624 N   0  0  0  0  0  0  0  0  0  0  0  0
    3.2280   -0.6288    2.4827 C   0  0  0  0  0  0  0  0  0  0  0  0
    2.2643   -1.2451    2.8452 O   0  0  0  0  0  0  0  0  0  0  0  0
    3.2062    0.8215    2.4897 C   0  0  0  0  0  0  0  0  0  0  0  0
    1.9856    1.4890    2.5053 C   0  0  0  0  0  0  0  0  0  0  0  0
    1.9769    2.8800    2.5117 C   0  0  0  0  0  0  0  0  0  0  0  0
    0.7417    3.5392    2.5275 N   0  0  0  0  0  0  0  0  0  0  0  0
   -0.2972    3.3533    1.2854 S   0  0  0  0  0  0  0  0  0  0  0  0
   -1.3114    4.3735    1.3510 O   0  0  0  0  0  0  0  0  0  0  0  0
    0.4177    3.4666    0.0405 O   0  0  0  0  0  0  0  0  0  0  0  0
   -1.0446    1.7855    1.3842 C   0  0  0  0  0  0  0  0  0  0  0  0
   -2.0349    1.5534    2.3330 C   0  0  0  0  0  0  0  0  0  0  0  0
   -2.6282    0.2979    2.4075 C   0  0  0  0  0  0  0  0  0  0  0  0
   -2.2276   -0.7090    1.5356 C   0  0  0  0  0  0  0  0  0  0  0  0
   -2.7997   -1.9074    1.6128 F   0  0  0  0  0  0  0  0  0  0  0  0
   -1.2370   -0.4705    0.5896 C   0  0  0  0  0  0  0  0  0  0  0  0
   -0.6393    0.7827    0.5098 C   0  0  0  0  0  0  0  0  0  0  0  0
    3.1722    3.5930    2.5023 C   0  0  0  0  0  0  0  0  0  0  0  0
    4.3872    2.9146    2.4871 C   0  0  0  0  0  0  0  0  0  0  0  0
    4.4074    1.5237    2.4807 C   0  0  0  0  0  0  0  0  0  0  0  0
    3.1505    5.1125    2.5107 C   0  0  0  0  0  0  0  0  0  0  0  0
    3.2294   -5.9228    1.0814 C   0  0  0  0  0  0  0  0  0  0  0  0
    2.1662   -5.7580    0.1983 C   0  0  0  0  0  0  0  0  0  0  0  0
    2.1276   -2.4585    0.1808 H   0  0  0  0  0  0  0  0  0  0  0  0
    5.4104   -5.5640    2.8545 H   0  0  0  0  0  0  0  0  0  0  0  0
    5.9783   -3.1452    3.3570 H   0  0  0  0  0  0  0  0  0  0  0  0
    5.1520   -0.7814    1.7603 H   0  0  0  0  0  0  0  0  0  0  0  0
    1.1270    0.9763    2.5117 H   0  0  0  0  0  0  0  0  0  0  0  0
    0.4969    4.1240    3.3008 H   0  0  0  0  0  0  0  0  0  0  0  0
   -2.3176    2.2828    2.9559 H   0  0  0  0  0  0  0  0  0  0  0  0
   -3.3408    0.1195    3.0860 H   0  0  0  0  0  0  0  0  0  0  0  0
   -0.9543   -1.1999   -0.0332 H   0  0  0  0  0  0  0  0  0  0  0  0
    0.0736    0.9608   -0.1684 H   0  0  0  0  0  0  0  0  0  0  0  0
    5.2458    3.4271    2.4808 H   0  0  0  0  0  0  0  0  0  0  0  0
    5.2783    1.0324    2.4696 H   0  0  0  0  0  0  0  0  0  0  0  0
    4.0884    5.4593    2.5022 H   0  0  0  0  0  0  0  0  0  0  0  0
    2.6653    5.4434    1.7013 H   0  0  0  0  0  0  0  0  0  0  0  0
    2.6834    5.4346    3.3342 H   0  0  0  0  0  0  0  0  0  0  0  0
    3.5309   -6.8430    1.3312 H   0  0  0  0  0  0  0  0  0  0  0  0
    1.7005   -6.5534   -0.1896 H   0  0  0  0  0  0  0  0  0  0  0  0
  1  2  1  0  0  0  0
  2  3  1  0  0  0  0
  3  4  2  0  0  0  0
  4  5  1  0  0  0  0
  5  6  1  0  0  0  0
  6  7  1  0  0  0  0
  7  8  2  0  0  0  0
  8  4  1  0  0  0  0
  8  9  1  0  0  0  0
  9 10  1  0  0  0  0
 10 11  2  0  0  0  0
 10 12  1  0  0  0  0
 12 13  1  0  0  0  0
 13 14  2  0  0  0  0
 14 15  1  0  0  0  0
 15 16  1  0  0  0  0
 16 17  2  0  0  0  0
 16 18  2  0  0  0  0
 16 19  1  0  0  0  0
 19 20  1  0  0  0  0
 20 21  2  0  0  0  0
 21 22  1  0  0  0  0
 22 23  1  0  0  0  0
 22 24  2  0  0  0  0
 24 25  1  0  0  0  0
 25 19  2  0  0  0  0
 14 26  1  0  0  0  0
 26 27  2  0  0  0  0
 27 28  1  0  0  0  0
 28 12  2  0  0  0  0
 26 29  1  0  0  0  0
  5 30  2  0  0  0  0
 30 31  1  0  0  0  0
 31  2  2  0  0  0  0
  3 32  1  0  0  0  0
  6 33  1  0  0  0  0
  7 34  1  0  0  0  0
  9 35  1  0  0  0  0
 13 36  1  0  0  0  0
 15 37  1  0  0  0  0
 20 38  1  0  0  0  0
 21 39  1  0  0  0  0
 24 40  1  0  0  0  0
 25 41  1  0  0  0  0
 27 42  1  0  0  0  0
 28 43  1  0  0  0  0
 29 44  1  0  0  0  0
 29 45  1  0  0  0  0
 29 46  1  0  0  0  0
 30 47  1  0  0  0  0
 31 48  1  0  0  0  0
M  END
>  <result-rank>
3

>  <similarity>
0.938

>  <query-name>


>  <query-smiles>
S(=O)(=O)(Nc1cc2c(NN=C2C=3Nc4c(ccc(c4)C)C3)cc1)c5cc(F)ccc5

>  <source>
REALspace_2019-12

>  <similarity-descriptor>
1.000;0.996;0.961;0.603;0.983;1.000;1.000;0.961;0.111

>  <similarity-descriptor-smiles>
c1ccc(cc1)F;c1C=CNc1;Brc1ccccc1;NC=O;c1ccccc1;S(=O)=O;N;Brc1ccccc1;C

>  <reaction-name>
s_22

>  <reagent1-name>
13022848

>  <reagent1-smiles>
[R1*]NC=1c2c(NC1)ccc(Br)c2

>  <reagent2-name>
59626

>  <reagent2-smiles>
[R1*]C(=O)c1cc(NS(=O)(=O)c2ccc(F)cc2)c(cc1)C

$$$$
m_276910____14484250____14486152
          04022017313D 1   1.00000     0.00000     0
            
 50 54  0  0  0  0            999 V2000
    2.5437    6.9747    3.3724 S   0  0  0  0  0  0  0  0  0  0  0  0
    3.8504    7.1777    3.9424 O   0  0  0  0  0  0  0  0  0  0  0  0
    2.6138    7.1328    1.9428 O   0  0  0  0  0  0  0  0  0  0  0  0
    2.0233    5.4715    3.7280 N   0  0  0  0  0  0  0  0  0  0  0  0
    0.8735    4.9643    3.1103 C   0  0  0  0  0  0  0  0  0  0  0  0
    0.8696    3.7122    2.5034 C   0  0  0  0  0  0  0  0  0  0  0  0
   -0.2892    3.2363    1.8984 C   0  0  0  0  0  0  0  0  0  0  0  0
   -1.4433    4.0128    1.8987 C   0  0  0  0  0  0  0  0  0  0  0  0
   -1.4391    5.2646    2.5054 C   0  0  0  0  0  0  0  0  0  0  0  0
   -0.2804    5.7402    3.1112 C   0  0  0  0  0  0  0  0  0  0  0  0
    2.0731    2.9029    2.5021 C   0  0  0  0  0  0  0  0  0  0  0  0
    3.3013    3.3623    2.5054 N   0  0  0  0  0  0  0  0  0  0  0  0
    4.1318    2.3463    2.5039 N   0  0  0  0  0  0  0  0  0  0  0  0
    3.3784    1.2115    2.4985 C   0  0  0  0  0  0  0  0  0  0  0  0
    2.1104    1.5412    2.4971 N   0  0  0  0  0  0  0  0  0  0  0  0
    3.9201   -0.2087    2.4922 C   0  0  0  0  0  0  0  0  0  0  0  0
    4.1044   -0.6744    1.0566 C   0  0  0  0  0  0  0  0  0  0  0  0
    5.1956   -0.3457    0.2208 C   0  0  0  0  0  0  0  0  0  0  0  0
    4.9355   -0.9854   -0.9702 C   0  0  0  0  0  0  0  0  0  0  0  0
    3.7556   -1.6677   -0.8768 N   0  0  0  0  0  0  0  0  0  0  0  0
    3.2389   -1.4766    0.3713 C   0  0  0  0  0  0  0  0  0  0  0  0
    5.8169   -0.8827   -2.0398 C   0  0  0  0  0  0  0  0  0  0  0  0
    6.9813   -0.1306   -1.9289 C   0  0  0  0  0  0  0  0  0  0  0  0
    7.2575    0.5206   -0.7307 C   0  0  0  0  0  0  0  0  0  0  0  0
    6.3624    0.4054    0.3283 C   0  0  0  0  0  0  0  0  0  0  0  0
    5.5236   -1.5910   -3.3517 C   0  0  0  0  0  0  0  0  0  0  0  0
    1.4352    8.1436    4.0317 C   0  0  0  0  0  0  0  0  0  0  0  0
    1.2314    8.4730    5.6872 S   0  0  0  0  0  0  0  0  0  0  0  0
    0.0264    9.6701    5.5421 C   0  0  0  0  0  0  0  0  0  0  0  0
   -0.1955    9.7881    4.2018 C   0  0  0  0  0  0  0  0  0  0  0  0
    0.5773    8.9509    3.3502 C   0  0  0  0  0  0  0  0  0  0  0  0
    2.5251    4.9116    4.3872 H   0  0  0  0  0  0  0  0  0  0  0  0
   -0.2926    2.3359    1.4632 H   0  0  0  0  0  0  0  0  0  0  0  0
   -2.2759    3.6713    1.4628 H   0  0  0  0  0  0  0  0  0  0  0  0
   -2.2689    5.8227    2.5061 H   0  0  0  0  0  0  0  0  0  0  0  0
   -0.2775    6.6400    3.5473 H   0  0  0  0  0  0  0  0  0  0  0  0
    5.1306    2.3958    2.5062 H   0  0  0  0  0  0  0  0  0  0  0  0
    3.2748   -0.8137    2.9587 H   0  0  0  0  0  0  0  0  0  0  0  0
    4.8006   -0.2317    2.9657 H   0  0  0  0  0  0  0  0  0  0  0  0
    3.3399   -2.2160   -1.6025 H   0  0  0  0  0  0  0  0  0  0  0  0
    2.3818   -1.8553    0.7204 H   0  0  0  0  0  0  0  0  0  0  0  0
    7.6125   -0.0585   -2.7012 H   0  0  0  0  0  0  0  0  0  0  0  0
    8.0902    1.0654   -0.6317 H   0  0  0  0  0  0  0  0  0  0  0  0
    6.5625    0.8742    1.1886 H   0  0  0  0  0  0  0  0  0  0  0  0
    6.2605   -1.4065   -4.0021 H   0  0  0  0  0  0  0  0  0  0  0  0
    5.4590   -2.5759   -3.1916 H   0  0  0  0  0  0  0  0  0  0  0  0
    4.6582   -1.2565   -3.7249 H   0  0  0  0  0  0  0  0  0  0  0  0
   -0.4207   10.1760    6.2798 H   0  0  0  0  0  0  0  0  0  0  0  0
   -0.8681   10.4313    3.8358 H   0  0  0  0  0  0  0  0  0  0  0  0
    0.4984    8.9550    2.3533 H   0  0  0  0  0  0  0  0  0  0  0  0
  1  2  2  0  0  0  0
  1  3  2  0  0  0  0
  1  4  1  0  0  0  0
  4  5  1  0  0  0  0
  5  6  1  0  0  0  0
  6  7  2  0  0  0  0
  7  8  1  0  0  0  0
  8  9  2  0  0  0  0
  9 10  1  0  0  0  0
 10  5  2  0  0  0  0
  6 11  1  0  0  0  0
 11 12  2  0  0  0  0
 12 13  1  0  0  0  0
 13 14  1  0  0  0  0
 14 15  2  0  0  0  0
 15 11  1  0  0  0  0
 14 16  1  0  0  0  0
 16 17  1  0  0  0  0
 17 18  1  0  0  0  0
 18 19  1  0  0  0  0
 19 20  1  0  0  0  0
 20 21  1  0  0  0  0
 17 21  2  0  0  0  0
 19 22  2  0  0  0  0
 22 23  1  0  0  0  0
 23 24  2  0  0  0  0
 24 25  1  0  0  0  0
 25 18  2  0  0  0  0
 22 26  1  0  0  0  0
  1 27  1  0  0  0  0
 27 28  1  0  0  0  0
 28 29  1  0  0  0  0
 29 30  2  0  0  0  0
 30 31  1  0  0  0  0
 27 31  2  0  0  0  0
  4 32  1  0  0  0  0
  7 33  1  0  0  0  0
  8 34  1  0  0  0  0
  9 35  1  0  0  0  0
 10 36  1  0  0  0  0
 13 37  1  0  0  0  0
 16 38  1  0  0  0  0
 16 39  1  0  0  0  0
 20 40  1  0  0  0  0
 21 41  1  0  0  0  0
 23 42  1  0  0  0  0
 24 43  1  0  0  0  0
 25 44  1  0  0  0  0
 26 45  1  0  0  0  0
 26 46  1  0  0  0  0
 26 47  1  0  0  0  0
 29 48  1  0  0  0  0
 30 49  1  0  0  0  0
 31 50  1  0  0  0  0
M  END
>  <result-rank>
4

>  <similarity>
0.934

>  <query-name>


>  <query-smiles>
S(=O)(=O)(Nc1cc2c(NN=C2C=3Nc4c(ccc(c4)C)C3)cc1)c5cc(F)ccc5

>  <source>
REALspace_2019-12

>  <similarity-descriptor>
0.907;0.906;1.000;0.847;0.938;0.999;1.000;1.000;0.0

>  <similarity-descriptor-smiles>
C1=CC=CS1;CC1=CNcc1;c1ccccc1;C=1N=CNN1;c1ccccc1;S(=O)=O;N;C;

>  <reaction-name>
m_276910

>  <reagent1-name>
14484250

>  <reagent1-smiles>
[R2*]=NN=C([R1*])c1c(NS(=O)(=O)C=2SC=CC2)cccc1

>  <reagent2-name>
14486152

>  <reagent2-smiles>
[R2*]=C(N[R1*])CC=1c2c(NC1)c(ccc2)C

$$$$
s_60____90602____5455734
          04022017313D 1   1.00000     0.00000     0
            
 49 53  0  0  0  0            999 V2000
    1.0000    1.0000    1.0000 S   0  0  0  0  0  0  0  0  0  0  0  0
   -0.2371    0.7229    1.6829 O   0  0  0  0  0  0  0  0  0  0  0  0
    1.6829   -0.2371    0.7229 O   0  0  0  0  0  0  0  0  0  0  0  0
    1.9411    1.9411    1.9411 N   0  0  0  0  0  0  0  0  0  0  0  0
    1.4151    3.1033    2.5170 C   0  0  0  0  0  0  0  0  0  0  0  0
    1.9847    4.3361    2.2164 C   0  0  0  0  0  0  0  0  0  0  0  0
    1.4535    5.4840    2.7950 C   0  0  0  0  0  0  0  0  0  0  0  0
    0.3692    5.4110    3.6629 C   0  0  0  0  0  0  0  0  0  0  0  0
   -0.1842    4.1668    3.9484 C   0  0  0  0  0  0  0  0  0  0  0  0
    0.3303    3.0059    3.3816 C   0  0  0  0  0  0  0  0  0  0  0  0
    2.0720    6.8342    2.4707 C   0  0  0  0  0  0  0  0  0  0  0  0
    1.4681    7.3542    1.4059 F   0  0  0  0  0  0  0  0  0  0  0  0
    1.9213    7.6517    3.5090 F   0  0  0  0  0  0  0  0  0  0  0  0
    3.3675    6.6783    2.2136 F   0  0  0  0  0  0  0  0  0  0  0  0
    0.6652    1.8250   -0.4947 C   0  0  0  0  0  0  0  0  0  0  0  0
    1.5275    1.6494   -1.5717 C   0  0  0  0  0  0  0  0  0  0  0  0
    1.2886    2.2944   -2.7805 C   0  0  0  0  0  0  0  0  0  0  0  0
    1.9596    2.2983   -3.9688 N   0  0  0  0  0  0  0  0  0  0  0  0
    1.3111    3.0805   -4.8006 C   0  0  0  0  0  0  0  0  0  0  0  0
    0.2128    3.6037   -4.1853 N   0  0  0  0  0  0  0  0  0  0  0  0
    0.1941    3.1127   -2.9137 C   0  0  0  0  0  0  0  0  0  0  0  0
   -0.6715    3.2909   -1.8399 C   0  0  0  0  0  0  0  0  0  0  0  0
   -0.4455    2.6519   -0.6253 C   0  0  0  0  0  0  0  0  0  0  0  0
    1.7050    3.3483   -6.1707 C   0  0  0  0  0  0  0  0  0  0  0  0
    1.0639    4.1287   -7.0064 O   0  0  0  0  0  0  0  0  0  0  0  0
    1.6877    4.1507   -8.1690 C   0  0  0  0  0  0  0  0  0  0  0  0
    2.8045    3.3478   -8.1093 C   0  0  0  0  0  0  0  0  0  0  0  0
    3.6206    3.2305   -9.2319 C   0  0  0  0  0  0  0  0  0  0  0  0
    3.3420    3.9014  -10.4205 C   0  0  0  0  0  0  0  0  0  0  0  0
    2.2100    4.7084  -10.4652 C   0  0  0  0  0  0  0  0  0  0  0  0
    1.3919    4.8293   -9.3471 C   0  0  0  0  0  0  0  0  0  0  0  0
    4.2325    3.7764  -11.6499 C   0  0  0  0  0  0  0  0  0  0  0  0
    2.8002    2.8307   -6.7945 C   0  0  0  0  0  0  0  0  0  0  0  0
    2.8942    1.6881    2.1070 H   0  0  0  0  0  0  0  0  0  0  0  0
    2.7647    4.3963    1.5935 H   0  0  0  0  0  0  0  0  0  0  0  0
   -0.0072    6.2405    4.0755 H   0  0  0  0  0  0  0  0  0  0  0  0
   -0.9642    4.1064    4.5712 H   0  0  0  0  0  0  0  0  0  0  0  0
   -0.0732    2.1155    3.5923 H   0  0  0  0  0  0  0  0  0  0  0  0
    2.3257    1.0546   -1.4761 H   0  0  0  0  0  0  0  0  0  0  0  0
   -0.4536    4.2296   -4.5904 H   0  0  0  0  0  0  0  0  0  0  0  0
   -1.4678    3.8870   -1.9425 H   0  0  0  0  0  0  0  0  0  0  0  0
   -1.0723    2.7849    0.1425 H   0  0  0  0  0  0  0  0  0  0  0  0
    4.4312    2.6469   -9.1831 H   0  0  0  0  0  0  0  0  0  0  0  0
    1.9837    5.2032  -11.3041 H   0  0  0  0  0  0  0  0  0  0  0  0
    0.5802    5.4118   -9.3904 H   0  0  0  0  0  0  0  0  0  0  0  0
    3.8581    4.3341  -12.3907 H   0  0  0  0  0  0  0  0  0  0  0  0
    5.1544    4.0934  -11.4273 H   0  0  0  0  0  0  0  0  0  0  0  0
    4.2697    2.8198  -11.9387 H   0  0  0  0  0  0  0  0  0  0  0  0
    3.4719    2.2050   -6.3980 H   0  0  0  0  0  0  0  0  0  0  0  0
  1  2  2  0  0  0  0
  1  3  2  0  0  0  0
  1  4  1  0  0  0  0
  4  5  1  0  0  0  0
  5  6  1  0  0  0  0
  6  7  2  0  0  0  0
  7  8  1  0  0  0  0
  8  9  2  0  0  0  0
  9 10  1  0  0  0  0
 10  5  2  0  0  0  0
  7 11  1  0  0  0  0
 11 12  1  0  0  0  0
 11 13  1  0  0  0  0
 11 14  1  0  0  0  0
  1 15  1  0  0  0  0
 15 16  1  0  0  0  0
 16 17  2  0  0  0  0
 17 18  1  0  0  0  0
 18 19  2  0  0  0  0
 19 20  1  0  0  0  0
 20 21  1  0  0  0  0
 21 17  1  0  0  0  0
 21 22  2  0  0  0  0
 22 23  1  0  0  0  0
 23 15  2  0  0  0  0
 19 24  1  0  0  0  0
 24 25  1  0  0  0  0
 25 26  1  0  0  0  0
 26 27  1  0  0  0  0
 27 28  2  0  0  0  0
 28 29  1  0  0  0  0
 29 30  2  0  0  0  0
 30 31  1  0  0  0  0
 31 26  2  0  0  0  0
 29 32  1  0  0  0  0
 27 33  1  0  0  0  0
 24 33  2  0  0  0  0
  4 34  1  0  0  0  0
  6 35  1  0  0  0  0
  8 36  1  0  0  0  0
  9 37  1  0  0  0  0
 10 38  1  0  0  0  0
 16 39  1  0  0  0  0
 20 40  1  0  0  0  0
 22 41  1  0  0  0  0
 23 42  1  0  0  0  0
 28 43  1  0  0  0  0
 30 44  1  0  0  0  0
 31 45  1  0  0  0  0
 32 46  1  0  0  0  0
 32 47  1  0  0  0  0
 32 48  1  0  0  0  0
 33 49  1  0  0  0  0
M  END
>  <result-rank>
5

>  <similarity>
0.931

>  <query-name>


>  <query-smiles>
S(=O)(=O)(Nc1cc2c(NN=C2C=3Nc4c(ccc(c4)C)C3)cc1)c5cc(F)ccc5

>  <source>
REALspace_2019-12

>  <similarity-descriptor>
0.960;0.785;1.000;0.999;0.897;0.888;0.897;1.000;0.0

>  <similarity-descriptor-smiles>
c1cccc(c1)C(F)(F)F;C1=CccO1;c1ccccc1;c1cNC=N1;c1ccccc1;S(=O)(=O)N;c1ccccc1;C;

>  <reaction-name>
s_60

>  <reagent1-name>
90602

>  <reagent1-smiles>
[R1*]C1=Nc2c(N1)ccc(S(=O)(=O)Nc3cc(ccc3)C(F)(F)F)c2

>  <reagent2-name>
5455734

>  <reagent2-smiles>
[R1*]C=1Oc2c(cc(cc2)C)C1

$$$$
s_60____90603____16664868
          04022017313D 1   1.00000     0.00000     0
            
 47 51  0  0  0  0            999 V2000
    6.3729   -8.5747    5.7430 Br  0  0  0  0  0  0  0  0  0  0  0  0
    6.1138   -8.4598    3.8035 C   0  0  0  0  0  0  0  0  0  0  0  0
    5.6465   -7.2897    3.2107 C   0  0  0  0  0  0  0  0  0  0  0  0
    5.4458   -7.1804    1.8366 C   0  0  0  0  0  0  0  0  0  0  0  0
    5.7620   -8.3574    1.2107 C   0  0  0  0  0  0  0  0  0  0  0  0
    5.4937   -8.1712   -0.4531 S   0  0  0  0  0  0  0  0  0  0  0  0
    4.9595   -6.5538   -0.4012 C   0  0  0  0  0  0  0  0  0  0  0  0
    5.0068   -6.1938    0.9116 C   0  0  0  0  0  0  0  0  0  0  0  0
    4.5981   -4.8430    1.2402 C   0  0  0  0  0  0  0  0  0  0  0  0
    4.1951   -3.9448    0.3713 N   0  0  0  0  0  0  0  0  0  0  0  0
    3.8988   -2.7998    1.0522 C   0  0  0  0  0  0  0  0  0  0  0  0
    4.1351   -3.0307    2.3849 C   0  0  0  0  0  0  0  0  0  0  0  0
    4.5750   -4.3161    2.4974 N   0  0  0  0  0  0  0  0  0  0  0  0
    3.9120   -2.0191    3.3127 C   0  0  0  0  0  0  0  0  0  0  0  0
    3.4492   -0.7702    2.9119 C   0  0  0  0  0  0  0  0  0  0  0  0
    3.2099   -0.5414    1.5610 C   0  0  0  0  0  0  0  0  0  0  0  0
    2.6300    1.0000    1.0000 S   0  0  0  0  0  0  0  0  0  0  0  0
    3.1100    1.2358   -0.3370 O   0  0  0  0  0  0  0  0  0  0  0  0
    3.1100    2.0400    1.8727 O   0  0  0  0  0  0  0  0  0  0  0  0
    1.0000    1.0000    1.0000 N   0  0  0  0  0  0  0  0  0  0  0  0
    0.3000    1.0000    2.2125 C   0  0  0  0  0  0  0  0  0  0  0  0
   -0.7167    0.0737    2.4189 C   0  0  0  0  0  0  0  0  0  0  0  0
   -1.0228   -0.8186    1.4535 O   0  0  0  0  0  0  0  0  0  0  0  0
   -2.0609   -1.7644    1.6643 C   0  0  0  0  0  0  0  0  0  0  0  0
   -1.4226    0.0589    3.6173 C   0  0  0  0  0  0  0  0  0  0  0  0
   -1.0963    0.9834    4.6037 C   0  0  0  0  0  0  0  0  0  0  0  0
   -0.0810    1.9119    4.4012 C   0  0  0  0  0  0  0  0  0  0  0  0
    0.6225    1.9228    3.2021 C   0  0  0  0  0  0  0  0  0  0  0  0
    3.4353   -1.5560    0.6369 C   0  0  0  0  0  0  0  0  0  0  0  0
    6.2323   -9.5633    1.6904 C   0  0  0  0  0  0  0  0  0  0  0  0
    6.4110   -9.5944    3.0599 C   0  0  0  0  0  0  0  0  0  0  0  0
    5.4481   -6.5003    3.7916 H   0  0  0  0  0  0  0  0  0  0  0  0
    4.6714   -5.9874   -1.1733 H   0  0  0  0  0  0  0  0  0  0  0  0
    4.8322   -4.7843    3.3427 H   0  0  0  0  0  0  0  0  0  0  0  0
    4.0868   -2.1921    4.2820 H   0  0  0  0  0  0  0  0  0  0  0  0
    3.2910   -0.0476    3.5848 H   0  0  0  0  0  0  0  0  0  0  0  0
    0.5000    1.0000    0.1340 H   0  0  0  0  0  0  0  0  0  0  0  0
   -2.1536   -2.3435    0.8544 H   0  0  0  0  0  0  0  0  0  0  0  0
   -1.8384   -2.3324    2.4566 H   0  0  0  0  0  0  0  0  0  0  0  0
   -2.9216   -1.2831    1.8302 H   0  0  0  0  0  0  0  0  0  0  0  0
   -2.1538   -0.6066    3.7674 H   0  0  0  0  0  0  0  0  0  0  0  0
   -1.5978    0.9804    5.4689 H   0  0  0  0  0  0  0  0  0  0  0  0
    0.1431    2.5720    5.1183 H   0  0  0  0  0  0  0  0  0  0  0  0
    1.3539    2.5881    3.0524 H   0  0  0  0  0  0  0  0  0  0  0  0
    3.2627   -1.3899   -0.3340 H   0  0  0  0  0  0  0  0  0  0  0  0
    6.4265  -10.3456    1.0986 H   0  0  0  0  0  0  0  0  0  0  0  0
    6.7494  -10.4214    3.5090 H   0  0  0  0  0  0  0  0  0  0  0  0
  1  2  1  0  0  0  0
  2  3  1  0  0  0  0
  3  4  2  0  0  0  0
  4  5  1  0  0  0  0
  5  6  1  0  0  0  0
  6  7  1  0  0  0  0
  7  8  2  0  0  0  0
  8  4  1  0  0  0  0
  8  9  1  0  0  0  0
  9 10  2  0  0  0  0
 10 11  1  0  0  0  0
 11 12  1  0  0  0  0
 12 13  1  0  0  0  0
 13  9  1  0  0  0  0
 12 14  2  0  0  0  0
 14 15  1  0  0  0  0
 15 16  2  0  0  0  0
 16 17  1  0  0  0  0
 17 18  2  0  0  0  0
 17 19  2  0  0  0  0
 17 20  1  0  0  0  0
 20 21  1  0  0  0  0
 21 22  1  0  0  0  0
 22 23  1  0  0  0  0
 23 24  1  0  0  0  0
 22 25  2  0  0  0  0
 25 26  1  0  0  0  0
 26 27  2  0  0  0  0
 27 28  1  0  0  0  0
 28 21  2  0  0  0  0
 16 29  1  0  0  0  0
 29 11  2  0  0  0  0
  5 30  2  0  0  0  0
 30 31  1  0  0  0  0
 31  2  2  0  0  0  0
  3 32  1  0  0  0  0
  7 33  1  0  0  0  0
 13 34  1  0  0  0  0
 14 35  1  0  0  0  0
 15 36  1  0  0  0  0
 20 37  1  0  0  0  0
 24 38  1  0  0  0  0
 24 39  1  0  0  0  0
 24 40  1  0  0  0  0
 25 41  1  0  0  0  0
 26 42  1  0  0  0  0
 27 43  1  0  0  0  0
 28 44  1  0  0  0  0
 29 45  1  0  0  0  0
 30 46  1  0  0  0  0
 31 47  1  0  0  0  0
M  END
>  <result-rank>
6

>  <similarity>
0.926

>  <query-name>


>  <query-smiles>
S(=O)(=O)(Nc1cc2c(NN=C2C=3Nc4c(ccc(c4)C)C3)cc1)c5cc(F)ccc5

>  <source>
REALspace_2019-12

>  <similarity-descriptor>
0.922;0.816;0.960;0.999;1.000;0.888;0.888;0.960;0.222

>  <similarity-descriptor-smiles>
Nc1ccccc1;c1C=CSc1;Brc1ccccc1;C=1NccN1;c1ccccc1;S(=O)=O;S(=O)=O;Brc1ccccc1;O.C

>  <reaction-name>
s_60

>  <reagent1-name>
90603

>  <reagent1-smiles>
[R1*]C1=Nc2c(N1)ccc(S(=O)(=O)Nc3c(OC)cccc3)c2

>  <reagent2-name>
16664868

>  <reagent2-smiles>
[R1*]C=1c2c(SC1)ccc(Br)c2

$$$$
s_4____66094____1317954
          04022017313D 1   1.00000     0.00000     0
            
 51 54  0  0  0  0            999 V2000
    5.4790    2.8069    6.8995 Cl  0  0  0  0  0  0  0  0  0  0  0  0
    6.4148    2.9643    5.3936 C   0  0  0  0  0  0  0  0  0  0  0  0
    6.5624    1.8643    4.5549 C   0  0  0  0  0  0  0  0  0  0  0  0
    7.2973    2.0073    3.3828 C   0  0  0  0  0  0  0  0  0  0  0  0
    7.4485    0.9025    2.5365 N   0  0  0  0  0  0  0  0  0  0  0  0
    6.9047    0.9714    1.0015 S   0  0  0  0  0  0  0  0  0  0  0  0
    7.3781   -0.1767    0.2726 O   0  0  0  0  0  0  0  0  0  0  0  0
    7.3909    2.1726    0.3734 O   0  0  0  0  0  0  0  0  0  0  0  0
    5.1647    0.9809    1.0016 C   0  0  0  0  0  0  0  0  0  0  0  0
    4.4774   -0.2271    1.0554 C   0  0  0  0  0  0  0  0  0  0  0  0
    3.0868   -0.2077    1.0547 C   0  0  0  0  0  0  0  0  0  0  0  0
    2.3794   -1.4150    1.1084 N   0  3  0  0  0  0  0  0  0  0  0  0
    2.6572   -2.3196    0.3385 O   0  5  0  0  0  0  0  0  0  0  0  0
    1.4925   -1.5610    1.9186 O   0  0  0  0  0  0  0  0  0  0  0  0
    2.4000    1.0000    1.0000 C   0  0  0  0  0  0  0  0  0  0  0  0
    1.0000    1.0000    1.0000 N   0  0  0  0  0  0  0  0  0  0  0  0
    0.3150    2.1854    1.0498 N   0  0  0  0  0  0  0  0  0  0  0  0
   -0.9350    2.1854    1.0498 C   0  0  0  0  0  0  0  0  0  0  0  0
   -1.6601    3.0324    0.1225 C   0  0  0  0  0  0  0  0  0  0  0  0
   -2.0780    2.6788   -1.1843 C   0  0  0  0  0  0  0  0  0  0  0  0
   -2.7186    3.8066   -1.6589 C   0  0  0  0  0  0  0  0  0  0  0  0
   -2.6767    4.7688   -0.6881 N   0  0  0  0  0  0  0  0  0  0  0  0
   -2.0293    4.3090    0.4154 C   0  0  0  0  0  0  0  0  0  0  0  0
   -3.2481    3.8063   -2.9456 C   0  0  0  0  0  0  0  0  0  0  0  0
   -3.1451    2.6853   -3.7615 C   0  0  0  0  0  0  0  0  0  0  0  0
   -2.4989    1.5456   -3.2968 C   0  0  0  0  0  0  0  0  0  0  0  0
   -1.9708    1.5570   -2.0100 C   0  0  0  0  0  0  0  0  0  0  0  0
   -1.2730    0.2833   -1.5594 C   0  0  0  0  0  0  0  0  0  0  0  0
    3.0954    2.2032    0.9470 C   0  0  0  0  0  0  0  0  0  0  0  0
    4.4863    2.1944    0.9478 C   0  0  0  0  0  0  0  0  0  0  0  0
    7.8778    3.2267    3.0491 C   0  0  0  0  0  0  0  0  0  0  0  0
    7.7227    4.3190    3.8962 C   0  0  0  0  0  0  0  0  0  0  0  0
    6.9899    4.1893    5.0716 C   0  0  0  0  0  0  0  0  0  0  0  0
    6.1472    0.9857    4.7908 H   0  0  0  0  0  0  0  0  0  0  0  0
    7.8901    0.0711    2.8737 H   0  0  0  0  0  0  0  0  0  0  0  0
    4.9743   -1.0941    1.0939 H   0  0  0  0  0  0  0  0  0  0  0  0
    0.5000    0.1347    0.9636 H   0  0  0  0  0  0  0  0  0  0  0  0
   -1.4350    1.6014    1.6893 H   0  0  0  0  0  0  0  0  0  0  0  0
   -3.0684    5.6845   -0.7775 H   0  0  0  0  0  0  0  0  0  0  0  0
   -1.8594    4.8062    1.2663 H   0  0  0  0  0  0  0  0  0  0  0  0
   -3.7095    4.6245   -3.2886 H   0  0  0  0  0  0  0  0  0  0  0  0
   -3.5357    2.6989   -4.6820 H   0  0  0  0  0  0  0  0  0  0  0  0
   -2.4154    0.7344   -3.8756 H   0  0  0  0  0  0  0  0  0  0  0  0
   -1.3070   -0.3934   -2.2949 H   0  0  0  0  0  0  0  0  0  0  0  0
   -0.3195    0.4864   -1.3370 H   0  0  0  0  0  0  0  0  0  0  0  0
   -1.7338   -0.0807   -0.7500 H   0  0  0  0  0  0  0  0  0  0  0  0
    2.5981    3.0700    0.9085 H   0  0  0  0  0  0  0  0  0  0  0  0
    4.9951    3.0544    0.9100 H   0  0  0  0  0  0  0  0  0  0  0  0
    8.4044    3.3176    2.2038 H   0  0  0  0  0  0  0  0  0  0  0  0
    8.1380    5.1976    3.6603 H   0  0  0  0  0  0  0  0  0  0  0  0
    6.8772    4.9731    5.6823 H   0  0  0  0  0  0  0  0  0  0  0  0
  1  2  1  0  0  0  0
  2  3  1  0  0  0  0
  3  4  2  0  0  0  0
  4  5  1  0  0  0  0
  5  6  1  0  0  0  0
  6  7  2  0  0  0  0
  6  8  2  0  0  0  0
  6  9  1  0  0  0  0
  9 10  1  0  0  0  0
 10 11  2  0  0  0  0
 11 12  1  0  0  0  0
 12 13  1  0  0  0  0
 12 14  2  0  0  0  0
 11 15  1  0  0  0  0
 15 16  1  0  0  0  0
 16 17  1  0  0  0  0
 17 18  2  0  0  0  0
 18 19  1  0  0  0  0
 19 20  1  0  0  0  0
 20 21  1  0  0  0  0
 21 22  1  0  0  0  0
 22 23  1  0  0  0  0
 19 23  2  0  0  0  0
 21 24  2  0  0  0  0
 24 25  1  0  0  0  0
 25 26  2  0  0  0  0
 26 27  1  0  0  0  0
 27 20  2  0  0  0  0
 27 28  1  0  0  0  0
 15 29  2  0  0  0  0
 29 30  1  0  0  0  0
 30  9  2  0  0  0  0
  4 31  1  0  0  0  0
 31 32  2  0  0  0  0
 32 33  1  0  0  0  0
 33  2  2  0  0  0  0
  3 34  1  0  0  0  0
  5 35  1  0  0  0  0
 10 36  1  0  0  0  0
 16 37  1  0  0  0  0
 18 38  1  0  0  0  0
 22 39  1  0  0  0  0
 23 40  1  0  0  0  0
 24 41  1  0  0  0  0
 25 42  1  0  0  0  0
 26 43  1  0  0  0  0
 28 44  1  0  0  0  0
 28 45  1  0  0  0  0
 28 46  1  0  0  0  0
 29 47  1  0  0  0  0
 30 48  1  0  0  0  0
 31 49  1  0  0  0  0
 32 50  1  0  0  0  0
 33 51  1  0  0  0  0
M  CHG  2  12   1  13  -1
M  END
>  <result-rank>
7

>  <similarity>
0.922

>  <query-name>


>  <query-smiles>
S(=O)(=O)(Nc1cc2c(NN=C2C=3Nc4c(ccc(c4)C)C3)cc1)c5cc(F)ccc5

>  <source>
REALspace_2019-12

>  <similarity-descriptor>
0.984;1.000;1.000;0.742;0.915;0.888;0.915;1.000;0.091

>  <similarity-descriptor-smiles>
Clc1ccccc1;C1=CNcc1;c1ccccc1;NN=C;c1ccccc1;NS(=O)=O;c1ccccc1;C;[N+]([O-])=O

>  <reaction-name>
s_4

>  <reagent1-name>
66094

>  <reagent1-smiles>
[R1*]=NNc1c([N+]([O-])=O)cc(S(=O)(=O)Nc2cc(Cl)ccc2)cc1

>  <reagent2-name>
1317954

>  <reagent2-smiles>
[R1*]=CC=1c2c(NC1)cccc2C

$$$$
s_4____66185____1159878
          04022017313D 1   1.00000     0.00000     0
            
 51 54  0  0  0  0            999 V2000
    6.7099   -4.1343    6.0246 Br  0  0  0  0  0  0  0  0  0  0  0  0
    6.9320   -2.5302    4.9208 C   0  0  0  0  0  0  0  0  0  0  0  0
    7.9923   -2.4487    4.0235 C   0  0  0  0  0  0  0  0  0  0  0  0
    8.1424   -1.3063    3.2442 C   0  0  0  0  0  0  0  0  0  0  0  0
    7.2331   -0.2608    3.3709 C   0  0  0  0  0  0  0  0  0  0  0  0
    7.4298    1.1650    2.3925 S   0  0  0  0  0  0  0  0  0  0  0  0
    8.8278    1.3648    2.1109 O   0  0  0  0  0  0  0  0  0  0  0  0
    6.9147    2.3080    3.1008 O   0  0  0  0  0  0  0  0  0  0  0  0
    6.6147    0.9803    0.9930 N   0  0  0  0  0  0  0  0  0  0  0  0
    5.2153    0.9811    0.9931 C   0  0  0  0  0  0  0  0  0  0  0  0
    4.5197   -0.1319    0.5321 C   0  0  0  0  0  0  0  0  0  0  0  0
    3.1287   -0.1224    0.5361 C   0  0  0  0  0  0  0  0  0  0  0  0
    2.4501    1.0000    1.0000 C   0  0  0  0  0  0  0  0  0  0  0  0
    3.1449    2.1129    1.4607 C   0  0  0  0  0  0  0  0  0  0  0  0
    4.5359    2.1034    1.4570 C   0  0  0  0  0  0  0  0  0  0  0  0
    1.0000    1.0000    1.0000 C   0  0  0  0  0  0  0  0  0  0  0  0
    0.4000   -0.0383    0.9555 O   0  0  0  0  0  0  0  0  0  0  0  0
    0.3150    2.1854    1.0508 N   0  0  0  0  0  0  0  0  0  0  0  0
   -1.0550    2.1854    1.0508 N   0  0  0  0  0  0  0  0  0  0  0  0
   -1.6800    3.2669    1.0972 C   0  0  0  0  0  0  0  0  0  0  0  0
   -3.1298    3.2669    1.0972 C   0  0  0  0  0  0  0  0  0  0  0  0
   -3.9489    4.4186    1.1466 C   0  0  0  0  0  0  0  0  0  0  0  0
   -5.2364    3.9256    1.1230 C   0  0  0  0  0  0  0  0  0  0  0  0
   -5.2119    2.5618    1.0656 N   0  0  0  0  0  0  0  0  0  0  0  0
   -3.9112    2.1506    1.0493 C   0  0  0  0  0  0  0  0  0  0  0  0
   -6.3188    4.7984    1.1576 C   0  0  0  0  0  0  0  0  0  0  0  0
   -6.1260    6.1748    1.2164 C   0  0  0  0  0  0  0  0  0  0  0  0
   -4.8297    6.6798    1.2412 C   0  0  0  0  0  0  0  0  0  0  0  0
   -3.7560    5.7952    1.2057 C   0  0  0  0  0  0  0  0  0  0  0  0
   -7.3201    7.1144    1.2516 C   0  0  0  0  0  0  0  0  0  0  0  0
    6.1730   -0.3419    4.2681 C   0  0  0  0  0  0  0  0  0  0  0  0
    6.0232   -1.4841    5.0467 C   0  0  0  0  0  0  0  0  0  0  0  0
    8.6411   -3.2050    3.9396 H   0  0  0  0  0  0  0  0  0  0  0  0
    8.9005   -1.2367    2.5958 H   0  0  0  0  0  0  0  0  0  0  0  0
    7.1146    0.8665    0.1345 H   0  0  0  0  0  0  0  0  0  0  0  0
    5.0165   -0.9337    0.2000 H   0  0  0  0  0  0  0  0  0  0  0  0
    2.6195   -0.9178    0.2074 H   0  0  0  0  0  0  0  0  0  0  0  0
    2.6480    2.9148    1.7925 H   0  0  0  0  0  0  0  0  0  0  0  0
    5.0449    2.8988    1.7860 H   0  0  0  0  0  0  0  0  0  0  0  0
    0.8150    3.0506    1.0879 H   0  0  0  0  0  0  0  0  0  0  0  0
   -1.1800    4.1321    1.1343 H   0  0  0  0  0  0  0  0  0  0  0  0
   -6.0133    1.9642    1.0398 H   0  0  0  0  0  0  0  0  0  0  0  0
   -3.5900    1.2044    1.0096 H   0  0  0  0  0  0  0  0  0  0  0  0
   -7.2488    4.4313    1.1400 H   0  0  0  0  0  0  0  0  0  0  0  0
   -4.6716    7.6662    1.2841 H   0  0  0  0  0  0  0  0  0  0  0  0
   -2.8240    6.1575    1.2230 H   0  0  0  0  0  0  0  0  0  0  0  0
   -6.9988    8.0604    1.2926 H   0  0  0  0  0  0  0  0  0  0  0  0
   -7.8706    6.9848    0.4268 H   0  0  0  0  0  0  0  0  0  0  0  0
   -7.8767    6.9160    2.0584 H   0  0  0  0  0  0  0  0  0  0  0  0
    5.5243    0.4146    4.3522 H   0  0  0  0  0  0  0  0  0  0  0  0
    5.2650   -1.5536    5.6950 H   0  0  0  0  0  0  0  0  0  0  0  0
  1  2  1  0  0  0  0
  2  3  1  0  0  0  0
  3  4  2  0  0  0  0
  4  5  1  0  0  0  0
  5  6  1  0  0  0  0
  6  7  2  0  0  0  0
  6  8  2  0  0  0  0
  6  9  1  0  0  0  0
  9 10  1  0  0  0  0
 10 11  1  0  0  0  0
 11 12  2  0  0  0  0
 12 13  1  0  0  0  0
 13 14  2  0  0  0  0
 14 15  1  0  0  0  0
 15 10  2  0  0  0  0
 13 16  1  0  0  0  0
 16 17  2  0  0  0  0
 16 18  1  0  0  0  0
 18 19  1  0  0  0  0
 19 20  2  0  0  0  0
 20 21  1  0  0  0  0
 21 22  1  0  0  0  0
 22 23  1  0  0  0  0
 23 24  1  0  0  0  0
 24 25  1  0  0  0  0
 21 25  2  0  0  0  0
 23 26  2  0  0  0  0
 26 27  1  0  0  0  0
 27 28  2  0  0  0  0
 28 29  1  0  0  0  0
 29 22  2  0  0  0  0
 27 30  1  0  0  0  0
  5 31  2  0  0  0  0
 31 32  1  0  0  0  0
 32  2  2  0  0  0  0
  3 33  1  0  0  0  0
  4 34  1  0  0  0  0
  9 35  1  0  0  0  0
 11 36  1  0  0  0  0
 12 37  1  0  0  0  0
 14 38  1  0  0  0  0
 15 39  1  0  0  0  0
 18 40  1  0  0  0  0
 20 41  1  0  0  0  0
 24 42  1  0  0  0  0
 25 43  1  0  0  0  0
 26 44  1  0  0  0  0
 28 45  1  0  0  0  0
 29 46  1  0  0  0  0
 30 47  1  0  0  0  0
 30 48  1  0  0  0  0
 30 49  1  0  0  0  0
 31 50  1  0  0  0  0
 32 51  1  0  0  0  0
M  END
>  <result-rank>
8

>  <similarity>
0.922

>  <query-name>


>  <query-smiles>
S(=O)(=O)(Nc1cc2c(NN=C2C=3Nc4c(ccc(c4)C)C3)cc1)c5cc(F)ccc5

>  <source>
REALspace_2019-12

>  <similarity-descriptor>
0.978;1.000;1.000;0.573;0.938;1.000;1.000;1.000;0.0

>  <similarity-descriptor-smiles>
Brc1ccccc1;C1=CNcc1;c1ccccc1;C(=O)NN=C;c1ccccc1;S(=O)=O;N;C;

>  <reaction-name>
s_4

>  <reagent1-name>
66185

>  <reagent1-smiles>
[R1*]=NNC(=O)c1ccc(NS(=O)(=O)c2ccc(Br)cc2)cc1

>  <reagent2-name>
1159878

>  <reagent2-smiles>
[R1*]=CC=1c2c(NC1)cc(cc2)C

$$$$
s_20____1137306____79204
          04022017313D 1   1.00000     0.00000     0
            
 40 43  0  0  0  0            999 V2000
    6.4743    0.0222   -3.4876 Cl  0  0  0  0  0  0  0  0  0  0  0  0
    7.8661    0.9060   -2.8155 C   0  0  0  0  0  0  0  0  0  0  0  0
    7.7885    1.4609   -1.5422 C   0  0  0  0  0  0  0  0  0  0  0  0
    8.8767    2.1501   -1.0170 C   0  0  0  0  0  0  0  0  0  0  0  0
   10.0409    2.2861   -1.7654 C   0  0  0  0  0  0  0  0  0  0  0  0
   10.1177    1.7316   -3.0389 C   0  0  0  0  0  0  0  0  0  0  0  0
    9.0305    1.0415   -3.5634 C   0  0  0  0  0  0  0  0  0  0  0  0
    6.5748    1.3192   -0.7617 C   0  0  0  0  0  0  0  0  0  0  0  0
    5.3562    1.4076   -1.2406 N   0  0  0  0  0  0  0  0  0  0  0  0
    4.4791    1.2218   -0.2116 C   0  0  0  0  0  0  0  0  0  0  0  0
    5.2103    1.0100    0.9292 C   0  0  0  0  0  0  0  0  0  0  0  0
    6.5295    1.0749    0.5789 N   0  0  0  0  0  0  0  0  0  0  0  0
    4.5314    0.7929    2.1235 C   0  0  0  0  0  0  0  0  0  0  0  0
    3.1412    0.7875    2.1586 C   0  0  0  0  0  0  0  0  0  0  0  0
    2.4015    1.0000    1.0000 C   0  0  0  0  0  0  0  0  0  0  0  0
    1.0000    1.0000    1.0000 N   0  0  0  0  0  0  0  0  0  0  0  0
    0.1850   -0.4116    0.9903 S   0  0  0  0  0  0  0  0  0  0  0  0
    0.7008   -1.2707    2.0244 O   0  0  0  0  0  0  0  0  0  0  0  0
   -1.2129   -0.1604    1.2278 O   0  0  0  0  0  0  0  0  0  0  0  0
    0.3809   -1.1837   -0.5563 C   0  0  0  0  0  0  0  0  0  0  0  0
    1.4419   -2.0599   -0.7589 C   0  0  0  0  0  0  0  0  0  0  0  0
    1.5936   -2.6735   -1.9976 C   0  0  0  0  0  0  0  0  0  0  0  0
    0.6861   -2.4066   -3.0172 C   0  0  0  0  0  0  0  0  0  0  0  0
    0.8375   -2.9973   -4.1993 F   0  0  0  0  0  0  0  0  0  0  0  0
   -0.3723   -1.5295   -2.8082 C   0  0  0  0  0  0  0  0  0  0  0  0
   -0.5297   -0.9122   -1.5719 C   0  0  0  0  0  0  0  0  0  0  0  0
    3.0903    1.2174   -0.1870 C   0  0  0  0  0  0  0  0  0  0  0  0
    8.8218    2.5478   -0.1011 H   0  0  0  0  0  0  0  0  0  0  0  0
   10.8227    2.7825   -1.3881 H   0  0  0  0  0  0  0  0  0  0  0  0
   10.9548    1.8293   -3.5772 H   0  0  0  0  0  0  0  0  0  0  0  0
    9.0859    0.6426   -4.4788 H   0  0  0  0  0  0  0  0  0  0  0  0
    7.3133    0.9642    1.1901 H   0  0  0  0  0  0  0  0  0  0  0  0
    5.0483    0.6391    2.9656 H   0  0  0  0  0  0  0  0  0  0  0  0
    2.6685    0.6292    3.0255 H   0  0  0  0  0  0  0  0  0  0  0  0
    0.5000    1.8660    1.0059 H   0  0  0  0  0  0  0  0  0  0  0  0
    2.0898   -2.2469   -0.0205 H   0  0  0  0  0  0  0  0  0  0  0  0
    2.3530   -3.3049   -2.1549 H   0  0  0  0  0  0  0  0  0  0  0  0
   -1.0201   -1.3425   -3.5466 H   0  0  0  0  0  0  0  0  0  0  0  0
   -1.2888   -0.2804   -1.4151 H   0  0  0  0  0  0  0  0  0  0  0  0
    2.5804    1.3725   -1.0332 H   0  0  0  0  0  0  0  0  0  0  0  0
  1  2  1  0  0  0  0
  2  3  1  0  0  0  0
  3  4  2  0  0  0  0
  4  5  1  0  0  0  0
  5  6  2  0  0  0  0
  6  7  1  0  0  0  0
  7  2  2  0  0  0  0
  3  8  1  0  0  0  0
  8  9  2  0  0  0  0
  9 10  1  0  0  0  0
 10 11  1  0  0  0  0
 11 12  1  0  0  0  0
 12  8  1  0  0  0  0
 11 13  2  0  0  0  0
 13 14  1  0  0  0  0
 14 15  2  0  0  0  0
 15 16  1  0  0  0  0
 16 17  1  0  0  0  0
 17 18  2  0  0  0  0
 17 19  2  0  0  0  0
 17 20  1  0  0  0  0
 20 21  1  0  0  0  0
 21 22  2  0  0  0  0
 22 23  1  0  0  0  0
 23 24  1  0  0  0  0
 23 25  2  0  0  0  0
 25 26  1  0  0  0  0
 26 20  2  0  0  0  0
 15 27  1  0  0  0  0
 27 10  2  0  0  0  0
  4 28  1  0  0  0  0
  5 29  1  0  0  0  0
  6 30  1  0  0  0  0
  7 31  1  0  0  0  0
 12 32  1  0  0  0  0
 13 33  1  0  0  0  0
 14 34  1  0  0  0  0
 16 35  1  0  0  0  0
 21 36  1  0  0  0  0
 22 37  1  0  0  0  0
 25 38  1  0  0  0  0
 26 39  1  0  0  0  0
 27 40  1  0  0  0  0
M  END
>  <result-rank>
9

>  <similarity>
0.921

>  <query-name>


>  <query-smiles>
S(=O)(=O)(Nc1cc2c(NN=C2C=3Nc4c(ccc(c4)C)C3)cc1)c5cc(F)ccc5

>  <source>
REALspace_2019-12

>  <similarity-descriptor>
1.000;0.741;0.741;0.999;0.999;1.000;1.000;0.0;0.0

>  <similarity-descriptor-smiles>
c1ccc(cc1)F;Clc1ccccc1;Clc1ccccc1;C=1NccN1;c1ccccc1;S(=O)=O;N;;

>  <reaction-name>
s_20

>  <reagent1-name>
1137306

>  <reagent1-smiles>
[R1*]Nc1cc2N=C(Nc2cc1)c3c(Cl)cccc3

>  <reagent2-name>
79204

>  <reagent2-smiles>
[R1*]S(=O)(=O)c1ccc(F)cc1

$$$$
m_270942____8687892____9830432____14067754
          04022017313D 1   1.00000     0.00000     0
            
 61 65  0  0  0  0            999 V2000
    4.6902    5.9779    2.5477 S   0  0  0  0  0  0  0  0  0  0  0  0
    4.5682    7.3805    2.2451 O   0  0  0  0  0  0  0  0  0  0  0  0
    4.5011    5.7734    3.9605 O   0  0  0  0  0  0  0  0  0  0  0  0
    3.5593    5.1436    1.7218 N   0  0  0  0  0  0  0  0  0  0  0  0
    3.1154    3.9052    2.1995 C   0  0  0  0  0  0  0  0  0  0  0  0
    2.3128    3.1061    1.3919 C   0  0  0  0  0  0  0  0  0  0  0  0
    1.8777    1.8777    1.8777 C   0  0  0  0  0  0  0  0  0  0  0  0
    2.2337    1.4454    3.1508 C   0  0  0  0  0  0  0  0  0  0  0  0
    3.0375    2.2617    3.9403 C   0  0  0  0  0  0  0  0  0  0  0  0
    3.4844    3.4937    3.4756 C   0  0  0  0  0  0  0  0  0  0  0  0
    1.0000    1.0000    1.0000 C   0  0  0  0  0  0  0  0  0  0  0  0
    1.7961    0.4729   -0.1177 N   0  0  0  0  0  0  0  0  0  0  0  0
    2.9222   -0.3218    0.1374 C   0  0  0  0  0  0  0  0  0  0  0  0
    4.1595    0.0847    0.2799 N   0  0  0  0  0  0  0  0  0  0  0  0
    4.9698   -0.9251    0.5066 N   0  0  0  0  0  0  0  0  0  0  0  0
    4.2515   -2.0253    0.5144 C   0  0  0  0  0  0  0  0  0  0  0  0
    2.9590   -1.6715    0.2841 N   0  0  0  0  0  0  0  0  0  0  0  0
    1.8074   -2.5831    0.2082 C   0  0  0  0  0  0  0  0  0  0  0  0
    4.7516   -3.3696    0.7299 C   0  0  0  0  0  0  0  0  0  0  0  0
    4.0343   -4.5143    0.5460 N   0  0  0  0  0  0  0  0  0  0  0  0
    4.8445   -5.5681    0.8527 C   0  0  0  0  0  0  0  0  0  0  0  0
    6.0786   -5.0928    1.2283 C   0  0  0  0  0  0  0  0  0  0  0  0
    7.0654   -6.0075    1.5864 C   0  0  0  0  0  0  0  0  0  0  0  0
    6.8471   -7.3823    1.5703 C   0  0  0  0  0  0  0  0  0  0  0  0
    5.5929   -7.8427    1.1832 C   0  0  0  0  0  0  0  0  0  0  0  0
    4.5989   -6.9369    0.8278 C   0  0  0  0  0  0  0  0  0  0  0  0
    7.9214   -8.3917    1.9551 C   0  0  0  0  0  0  0  0  0  0  0  0
    6.0101   -3.6808    1.1527 C   0  0  0  0  0  0  0  0  0  0  0  0
    1.4112    0.7793   -1.5030 C   0  0  0  0  0  0  0  0  0  0  0  0
    6.2729    5.4209    2.0878 C   0  0  0  0  0  0  0  0  0  0  0  0
    6.9371    6.0240    1.0246 C   0  0  0  0  0  0  0  0  0  0  0  0
    8.2024    5.5689    0.6675 C   0  0  0  0  0  0  0  0  0  0  0  0
    8.7968    4.5221    1.3644 C   0  0  0  0  0  0  0  0  0  0  0  0
    8.1237    3.9255    2.4254 C   0  0  0  0  0  0  0  0  0  0  0  0
    6.8584    4.3727    2.7911 C   0  0  0  0  0  0  0  0  0  0  0  0
    3.1828    5.5166    0.8738 H   0  0  0  0  0  0  0  0  0  0  0  0
    2.0526    3.4104    0.4756 H   0  0  0  0  0  0  0  0  0  0  0  0
    1.9166    0.5611    3.4935 H   0  0  0  0  0  0  0  0  0  0  0  0
    3.2980    1.9575    4.8566 H   0  0  0  0  0  0  0  0  0  0  0  0
    4.0617    4.0744    4.0496 H   0  0  0  0  0  0  0  0  0  0  0  0
    0.6414    0.2396    1.5416 H   0  0  0  0  0  0  0  0  0  0  0  0
    0.2396    1.5416    0.6414 H   0  0  0  0  0  0  0  0  0  0  0  0
    2.1163   -3.5232    0.3525 H   0  0  0  0  0  0  0  0  0  0  0  0
    1.1419   -2.3389    0.9134 H   0  0  0  0  0  0  0  0  0  0  0  0
    1.3810   -2.5071   -0.6932 H   0  0  0  0  0  0  0  0  0  0  0  0
    3.0838   -4.5713    0.2406 H   0  0  0  0  0  0  0  0  0  0  0  0
    7.9626   -5.6648    1.8651 H   0  0  0  0  0  0  0  0  0  0  0  0
    5.4058   -8.8248    1.1604 H   0  0  0  0  0  0  0  0  0  0  0  0
    3.6985   -7.2733    0.5516 H   0  0  0  0  0  0  0  0  0  0  0  0
    7.5532   -9.3179    1.8731 H   0  0  0  0  0  0  0  0  0  0  0  0
    8.7076   -8.2905    1.3455 H   0  0  0  0  0  0  0  0  0  0  0  0
    8.2085   -8.2295    2.8991 H   0  0  0  0  0  0  0  0  0  0  0  0
    6.7434   -3.0359    1.3680 H   0  0  0  0  0  0  0  0  0  0  0  0
    0.5918    1.3525   -1.5023 H   0  0  0  0  0  0  0  0  0  0  0  0
    2.1579    1.2657   -1.9566 H   0  0  0  0  0  0  0  0  0  0  0  0
    1.2220   -0.0720   -1.9924 H   0  0  0  0  0  0  0  0  0  0  0  0
    6.5099    6.7760    0.5227 H   0  0  0  0  0  0  0  0  0  0  0  0
    8.6876    5.9970   -0.0949 H   0  0  0  0  0  0  0  0  0  0  0  0
    9.7064    4.1990    1.1032 H   0  0  0  0  0  0  0  0  0  0  0  0
    8.5507    3.1729    2.9267 H   0  0  0  0  0  0  0  0  0  0  0  0
    6.3733    3.9443    3.5535 H   0  0  0  0  0  0  0  0  0  0  0  0
  1  2  2  0  0  0  0
  1  3  2  0  0  0  0
  1  4  1  0  0  0  0
  4  5  1  0  0  0  0
  5  6  1  0  0  0  0
  6  7  2  0  0  0  0
  7  8  1  0  0  0  0
  8  9  2  0  0  0  0
  9 10  1  0  0  0  0
 10  5  2  0  0  0  0
  7 11  1  0  0  0  0
 11 12  1  0  0  0  0
 12 13  1  0  0  0  0
 13 14  2  0  0  0  0
 14 15  1  0  0  0  0
 15 16  2  0  0  0  0
 16 17  1  0  0  0  0
 17 13  1  0  0  0  0
 17 18  1  0  0  0  0
 16 19  1  0  0  0  0
 19 20  1  0  0  0  0
 20 21  1  0  0  0  0
 21 22  1  0  0  0  0
 22 23  2  0  0  0  0
 23 24  1  0  0  0  0
 24 25  2  0  0  0  0
 25 26  1  0  0  0  0
 26 21  2  0  0  0  0
 24 27  1  0  0  0  0
 22 28  1  0  0  0  0
 19 28  2  0  0  0  0
 12 29  1  0  0  0  0
  1 30  1  0  0  0  0
 30 31  1  0  0  0  0
 31 32  2  0  0  0  0
 32 33  1  0  0  0  0
 33 34  2  0  0  0  0
 34 35  1  0  0  0  0
 35 30  2  0  0  0  0
  4 36  1  0  0  0  0
  6 37  1  0  0  0  0
  8 38  1  0  0  0  0
  9 39  1  0  0  0  0
 10 40  1  0  0  0  0
 11 41  1  0  0  0  0
 11 42  1  0  0  0  0
 18 43  1  0  0  0  0
 18 44  1  0  0  0  0
 18 45  1  0  0  0  0
 20 46  1  0  0  0  0
 23 47  1  0  0  0  0
 25 48  1  0  0  0  0
 26 49  1  0  0  0  0
 27 50  1  0  0  0  0
 27 51  1  0  0  0  0
 27 52  1  0  0  0  0
 28 53  1  0  0  0  0
 29 54  1  0  0  0  0
 29 55  1  0  0  0  0
 29 56  1  0  0  0  0
 31 57  1  0  0  0  0
 32 58  1  0  0  0  0
 33 59  1  0  0  0  0
 34 60  1  0  0  0  0
 35 61  1  0  0  0  0
M  END
>  <result-rank>
10

>  <similarity>
0.920

>  <query-name>


>  <query-smiles>
S(=O)(=O)(Nc1cc2c(NN=C2C=3Nc4c(ccc(c4)C)C3)cc1)c5cc(F)ccc5

>  <source>
REALspace_2019-12

>  <similarity-descriptor>
0.967;1.000;1.000;0.738;0.869;1.000;1.000;1.000;0.167

>  <similarity-descriptor-smiles>
c1ccccc1;C1=CccN1;c1ccccc1;C=1NC=NN1;c1cccc(c1)CN;S(=O)=O;N;C;C.C

>  <reaction-name>
m_270942

>  <reagent1-name>
8687892

>  <reagent1-smiles>
[R3*]=C([R2*])N([R1*])C

>  <reagent2-name>
9830432

>  <reagent2-smiles>
[R2*]N(Cc1cc(NS(=O)(=O)c2ccccc2)ccc1)C

>  <reagent3-name>
14067754

>  <reagent3-smiles>
[R3*]=NN=C([R1*])C=1Nc2c(cc(cc2)C)C1

$$$$
s_27c____5343226____11246302
          04022017313D 1   1.00000     0.00000     0
            
 50 54  0  0  0  0            999 V2000
    2.0451    5.9598    8.9733 Cl  0  0  0  0  0  0  0  0  0  0  0  0
    1.3837    5.2211    7.4945 C   0  0  0  0  0  0  0  0  0  0  0  0
    0.5810    5.9759    6.6458 C   0  0  0  0  0  0  0  0  0  0  0  0
    0.0682    5.3912    5.4924 C   0  0  0  0  0  0  0  0  0  0  0  0
    0.3627    4.0630    5.2017 C   0  0  0  0  0  0  0  0  0  0  0  0
   -0.2830    3.3401    3.7565 S   0  0  0  0  0  0  0  0  0  0  0  0
   -1.5436    3.9566    3.4334 O   0  0  0  0  0  0  0  0  0  0  0  0
   -0.4795    1.9299    3.9717 O   0  0  0  0  0  0  0  0  0  0  0  0
    0.7615    3.5615    2.5249 N   0  0  0  0  0  0  0  0  0  0  0  0
    1.9825    2.8774    2.5113 C   0  0  0  0  0  0  0  0  0  0  0  0
    3.1724    3.5978    2.5023 C   0  0  0  0  0  0  0  0  0  0  0  0
    4.3794    2.9069    2.4885 C   0  0  0  0  0  0  0  0  0  0  0  0
    4.4073    1.5164    2.4834 C   0  0  0  0  0  0  0  0  0  0  0  0
    3.2044    0.8172    2.4929 C   0  0  0  0  0  0  0  0  0  0  0  0
    1.9858    1.4868    2.5068 C   0  0  0  0  0  0  0  0  0  0  0  0
    5.6831    3.6886    2.4782 C   0  0  0  0  0  0  0  0  0  0  0  0
    6.1168    3.9364    3.8607 N   0  0  0  0  0  0  0  0  0  0  0  0
    6.9475    3.0137    4.5106 C   0  0  0  0  0  0  0  0  0  0  0  0
    7.3291    1.9155    3.8433 N   0  0  0  0  0  0  0  0  0  0  0  0
    8.1228    0.9998    4.4199 C   0  0  0  0  0  0  0  0  0  0  0  0
    8.5342    1.1928    5.6829 N   0  0  0  0  0  0  0  0  0  0  0  0
    8.1748    2.2762    6.3888 C   0  0  0  0  0  0  0  0  0  0  0  0
    8.4613    2.6593    7.6749 N   0  0  0  0  0  0  0  0  0  0  0  0
    7.8789    3.8555    7.9619 C   0  0  0  0  0  0  0  0  0  0  0  0
    7.1959    4.2285    6.8246 C   0  0  0  0  0  0  0  0  0  0  0  0
    7.3685    3.2315    5.8202 C   0  0  0  0  0  0  0  0  0  0  0  0
    6.5075    5.4385    6.8688 C   0  0  0  0  0  0  0  0  0  0  0  0
    6.5054    6.2416    8.0043 C   0  0  0  0  0  0  0  0  0  0  0  0
    7.2047    5.8411    9.1390 C   0  0  0  0  0  0  0  0  0  0  0  0
    7.2118    6.5996   10.2308 F   0  0  0  0  0  0  0  0  0  0  0  0
    7.8979    4.6350    9.1141 C   0  0  0  0  0  0  0  0  0  0  0  0
    1.1653    3.3060    6.0490 C   0  0  0  0  0  0  0  0  0  0  0  0
    1.6763    3.8930    7.2018 C   0  0  0  0  0  0  0  0  0  0  0  0
    0.3744    6.9299    6.8627 H   0  0  0  0  0  0  0  0  0  0  0  0
   -0.5100    5.9237    4.8744 H   0  0  0  0  0  0  0  0  0  0  0  0
    0.5300    4.1861    1.7790 H   0  0  0  0  0  0  0  0  0  0  0  0
    3.1601    4.5977    2.5056 H   0  0  0  0  0  0  0  0  0  0  0  0
    5.2790    1.0264    2.4730 H   0  0  0  0  0  0  0  0  0  0  0  0
    3.2165   -0.1827    2.4898 H   0  0  0  0  0  0  0  0  0  0  0  0
    1.1257    0.9766    2.5134 H   0  0  0  0  0  0  0  0  0  0  0  0
    6.3843    3.1611    1.9984 H   0  0  0  0  0  0  0  0  0  0  0  0
    5.5447    4.5616    2.0107 H   0  0  0  0  0  0  0  0  0  0  0  0
    5.8191    4.7635    4.3375 H   0  0  0  0  0  0  0  0  0  0  0  0
    8.4043    0.1839    3.9149 H   0  0  0  0  0  0  0  0  0  0  0  0
    9.0213    2.1318    8.3138 H   0  0  0  0  0  0  0  0  0  0  0  0
    6.0002    5.7383    6.0608 H   0  0  0  0  0  0  0  0  0  0  0  0
    6.0020    7.1057    8.0054 H   0  0  0  0  0  0  0  0  0  0  0  0
    8.4066    4.3303    9.9194 H   0  0  0  0  0  0  0  0  0  0  0  0
    1.3722    2.3520    5.8320 H   0  0  0  0  0  0  0  0  0  0  0  0
    2.2540    3.3603    7.8203 H   0  0  0  0  0  0  0  0  0  0  0  0
  1  2  1  0  0  0  0
  2  3  1  0  0  0  0
  3  4  2  0  0  0  0
  4  5  1  0  0  0  0
  5  6  1  0  0  0  0
  6  7  2  0  0  0  0
  6  8  2  0  0  0  0
  6  9  1  0  0  0  0
  9 10  1  0  0  0  0
 10 11  1  0  0  0  0
 11 12  2  0  0  0  0
 12 13  1  0  0  0  0
 13 14  2  0  0  0  0
 14 15  1  0  0  0  0
 15 10  2  0  0  0  0
 12 16  1  0  0  0  0
 16 17  1  0  0  0  0
 17 18  1  0  0  0  0
 18 19  1  0  0  0  0
 19 20  2  0  0  0  0
 20 21  1  0  0  0  0
 21 22  2  0  0  0  0
 22 23  1  0  0  0  0
 23 24  1  0  0  0  0
 24 25  2  0  0  0  0
 25 26  1  0  0  0  0
 26 22  1  0  0  0  0
 26 18  2  0  0  0  0
 25 27  1  0  0  0  0
 27 28  2  0  0  0  0
 28 29  1  0  0  0  0
 29 30  1  0  0  0  0
 29 31  2  0  0  0  0
 31 24  1  0  0  0  0
  5 32  2  0  0  0  0
 32 33  1  0  0  0  0
 33  2  2  0  0  0  0
  3 34  1  0  0  0  0
  4 35  1  0  0  0  0
  9 36  1  0  0  0  0
 11 37  1  0  0  0  0
 13 38  1  0  0  0  0
 14 39  1  0  0  0  0
 15 40  1  0  0  0  0
 16 41  1  0  0  0  0
 16 42  1  0  0  0  0
 17 43  1  0  0  0  0
 20 44  1  0  0  0  0
 23 45  1  0  0  0  0
 27 46  1  0  0  0  0
 28 47  1  0  0  0  0
 31 48  1  0  0  0  0
 32 49  1  0  0  0  0
 33 50  1  0  0  0  0
M  END
>  <result-rank>
11

>  <similarity>
0.918

>  <query-name>


>  <query-smiles>
S(=O)(=O)(Nc1cc2c(NN=C2C=3Nc4c(ccc(c4)C)C3)cc1)c5cc(F)ccc5

>  <source>
REALspace_2019-12

>  <similarity-descriptor>
0.985;0.893;0.977;0.793;0.875;1.000;1.000;0.0;0.0

>  <similarity-descriptor-smiles>
Clc1ccccc1;c1cccN1;c1cc(ccc1)F;Nc1ccncn1;c1cccc(c1)C;S(=O)=O;N;;

>  <reaction-name>
s_27c

>  <reagent1-name>
5343226

>  <reagent1-smiles>
[R1*]NCc1cc(NS(=O)(=O)c2ccc(Cl)cc2)ccc1

>  <reagent2-name>
11246302

>  <reagent2-smiles>
[R1*]c1ncnc2Nc3c(c12)ccc(F)c3

$$$$
s_271570____11829988____13775844
          04022017313D 1   1.00000     0.00000     0
            
 43 46  0  0  0  0            999 V2000
    6.6338    3.4353    1.2502 S   0  0  0  0  0  0  0  0  0  0  0  0
    7.8799    4.0761    1.5820 O   0  0  0  0  0  0  0  0  0  0  0  0
    6.8607    2.0308    1.0274 O   0  0  0  0  0  0  0  0  0  0  0  0
    5.5801    3.6272    2.4789 N   0  0  0  0  0  0  0  0  0  0  0  0
    4.3737    2.9176    2.4835 C   0  0  0  0  0  0  0  0  0  0  0  0
    3.1433    3.5664    2.4932 C   0  0  0  0  0  0  0  0  0  0  0  0
    2.0017    2.8611    2.4979 N   0  0  0  0  0  0  0  0  0  0  0  0
    1.9994    1.5191    2.4940 C   0  0  0  0  0  0  0  0  0  0  0  0
    3.2043    0.8207    2.4847 C   0  0  0  0  0  0  0  0  0  0  0  0
    4.4026    1.5272    2.4796 C   0  0  0  0  0  0  0  0  0  0  0  0
    3.2281   -0.6291    2.4827 C   0  0  0  0  0  0  0  0  0  0  0  0
    3.9784   -1.4301    1.5907 C   0  0  0  0  0  0  0  0  0  0  0  0
    3.6894   -2.7207    1.9619 C   0  0  0  0  0  0  0  0  0  0  0  0
    2.8159   -2.7048    3.0131 N   0  0  0  0  0  0  0  0  0  0  0  0
    2.5237   -1.4156    3.3425 C   0  0  0  0  0  0  0  0  0  0  0  0
    4.2755   -3.7810    1.2765 C   0  0  0  0  0  0  0  0  0  0  0  0
    5.1463   -3.5574    0.2138 C   0  0  0  0  0  0  0  0  0  0  0  0
    5.4437   -2.2581   -0.1805 C   0  0  0  0  0  0  0  0  0  0  0  0
    4.8490   -1.2117    0.5219 C   0  0  0  0  0  0  0  0  0  0  0  0
    6.3938   -2.0286   -1.3492 C   0  0  0  0  0  0  0  0  0  0  0  0
    5.9788    4.1530   -0.1929 C   0  0  0  0  0  0  0  0  0  0  0  0
    6.2413    5.4881   -0.4825 C   0  0  0  0  0  0  0  0  0  0  0  0
    5.7115    6.0495   -1.6400 C   0  0  0  0  0  0  0  0  0  0  0  0
    4.9273    5.2855   -2.4979 C   0  0  0  0  0  0  0  0  0  0  0  0
    4.6703    3.9517   -2.1986 C   0  0  0  0  0  0  0  0  0  0  0  0
    5.1951    3.3802   -1.0442 C   0  0  0  0  0  0  0  0  0  0  0  0
    5.7955    4.2519    3.2294 H   0  0  0  0  0  0  0  0  0  0  0  0
    3.1092    4.5658    2.4968 H   0  0  0  0  0  0  0  0  0  0  0  0
    1.1326    1.0206    2.4977 H   0  0  0  0  0  0  0  0  0  0  0  0
    5.2759    1.0402    2.4732 H   0  0  0  0  0  0  0  0  0  0  0  0
    2.4479   -3.5147    3.4699 H   0  0  0  0  0  0  0  0  0  0  0  0
    1.9127   -1.1077    4.0718 H   0  0  0  0  0  0  0  0  0  0  0  0
    4.0673   -4.7195    1.5522 H   0  0  0  0  0  0  0  0  0  0  0  0
    5.5583   -4.3319   -0.2662 H   0  0  0  0  0  0  0  0  0  0  0  0
    5.0532   -0.2711    0.2505 H   0  0  0  0  0  0  0  0  0  0  0  0
    6.7028   -2.9104   -1.7058 H   0  0  0  0  0  0  0  0  0  0  0  0
    5.9189   -1.5251   -2.0710 H   0  0  0  0  0  0  0  0  0  0  0  0
    7.1834   -1.4998   -1.0380 H   0  0  0  0  0  0  0  0  0  0  0  0
    6.8043    6.0381    0.1344 H   0  0  0  0  0  0  0  0  0  0  0  0
    5.8956    7.0083   -1.8566 H   0  0  0  0  0  0  0  0  0  0  0  0
    4.5490    5.6944   -3.3284 H   0  0  0  0  0  0  0  0  0  0  0  0
    4.1065    3.4021   -2.8151 H   0  0  0  0  0  0  0  0  0  0  0  0
    5.0107    2.4215   -0.8278 H   0  0  0  0  0  0  0  0  0  0  0  0
  1  2  2  0  0  0  0
  1  3  2  0  0  0  0
  1  4  1  0  0  0  0
  4  5  1  0  0  0  0
  5  6  1  0  0  0  0
  6  7  2  0  0  0  0
  7  8  1  0  0  0  0
  8  9  2  0  0  0  0
  9 10  1  0  0  0  0
 10  5  2  0  0  0  0
  9 11  1  0  0  0  0
 11 12  1  0  0  0  0
 12 13  1  0  0  0  0
 13 14  1  0  0  0  0
 14 15  1  0  0  0  0
 11 15  2  0  0  0  0
 13 16  2  0  0  0  0
 16 17  1  0  0  0  0
 17 18  2  0  0  0  0
 18 19  1  0  0  0  0
 19 12  2  0  0  0  0
 18 20  1  0  0  0  0
  1 21  1  0  0  0  0
 21 22  1  0  0  0  0
 22 23  2  0  0  0  0
 23 24  1  0  0  0  0
 24 25  2  0  0  0  0
 25 26  1  0  0  0  0
 26 21  2  0  0  0  0
  4 27  1  0  0  0  0
  6 28  1  0  0  0  0
  8 29  1  0  0  0  0
 10 30  1  0  0  0  0
 14 31  1  0  0  0  0
 15 32  1  0  0  0  0
 16 33  1  0  0  0  0
 17 34  1  0  0  0  0
 19 35  1  0  0  0  0
 20 36  1  0  0  0  0
 20 37  1  0  0  0  0
 20 38  1  0  0  0  0
 22 39  1  0  0  0  0
 23 40  1  0  0  0  0
 24 41  1  0  0  0  0
 25 42  1  0  0  0  0
 26 43  1  0  0  0  0
M  END
>  <result-rank>
12

>  <similarity>
0.918

>  <query-name>


>  <query-smiles>
S(=O)(=O)(Nc1cc2c(NN=C2C=3Nc4c(ccc(c4)C)C3)cc1)c5cc(F)ccc5

>  <source>
REALspace_2019-12

>  <similarity-descriptor>
0.967;0.999;1.000;0.724;0.724;1.000;1.000;1.000;0.0

>  <similarity-descriptor-smiles>
c1ccccc1;C1=CNcc1;c1ccccc1;c1cccnc1;c1cccnc1;S(=O)=O;N;C;

>  <reaction-name>
s_271570

>  <reagent1-name>
11829988

>  <reagent1-smiles>
[R1*]c1cncc(NS(=O)(=O)c2ccccc2)c1

>  <reagent2-name>
13775844

>  <reagent2-smiles>
[R1*]C=1c2c(NC1)ccc(c2)C

$$$$
s_4____66625____12059314
          04022017313D 1   1.00000     0.00000     0
            
 54 57  0  0  0  0            999 V2000
    3.2320   -0.9187    2.4816 S   0  0  0  0  0  0  0  0  0  0  0  0
    4.4174   -1.3867    3.1519 O   0  0  0  0  0  0  0  0  0  0  0  0
    2.0662   -1.4171    3.1644 O   0  0  0  0  0  0  0  0  0  0  0  0
    3.2307   -1.4547    0.9423 N   0  0  0  0  0  0  0  0  0  0  0  0
    2.0391   -1.8992    0.3567 C   0  0  0  0  0  0  0  0  0  0  0  0
    1.2267   -0.9964   -0.3220 C   0  0  0  0  0  0  0  0  0  0  0  0
    0.0437   -1.4417   -0.9026 C   0  0  0  0  0  0  0  0  0  0  0  0
   -0.3193   -2.7805   -0.8021 C   0  0  0  0  0  0  0  0  0  0  0  0
    0.5009   -3.6743   -0.1216 C   0  0  0  0  0  0  0  0  0  0  0  0
    1.6860   -3.2404    0.4631 C   0  0  0  0  0  0  0  0  0  0  0  0
    4.4807   -1.4715    0.1688 C   0  0  0  0  0  0  0  0  0  0  0  0
    5.1800   -2.8068    0.3649 C   0  0  0  0  0  0  0  0  0  0  0  0
    3.2096    0.8218    2.4900 C   0  0  0  0  0  0  0  0  0  0  0  0
    2.0173    1.5392    2.4998 C   0  0  0  0  0  0  0  0  0  0  0  0
    2.0172    2.8806    2.5059 N   0  0  0  0  0  0  0  0  0  0  0  0
    3.1616    3.5805    2.5029 C   0  0  0  0  0  0  0  0  0  0  0  0
    3.1535    4.9803    2.5095 N   0  0  0  0  0  0  0  0  0  0  0  0
    1.9631    5.6584    2.5192 N   0  0  0  0  0  0  0  0  0  0  0  0
    1.9558    6.9083    2.5251 C   0  0  0  0  0  0  0  0  0  0  0  0
    0.6951    7.6264    2.5354 C   0  0  0  0  0  0  0  0  0  0  0  0
    0.5629    8.9840    2.5425 N   0  0  0  0  0  0  0  0  0  0  0  0
   -0.7713    9.2753    2.5516 C   0  0  0  0  0  0  0  0  0  0  0  0
   -1.4866    8.0976    2.5508 C   0  0  0  0  0  0  0  0  0  0  0  0
   -2.8783    8.1456    2.5538 C   0  0  0  0  0  0  0  0  0  0  0  0
   -3.5450    9.3664    2.5618 C   0  0  0  0  0  0  0  0  0  0  0  0
   -2.8024   10.5419    2.5656 C   0  0  0  0  0  0  0  0  0  0  0  0
   -1.4121   10.5057    2.5595 C   0  0  0  0  0  0  0  0  0  0  0  0
   -3.7148    6.8760    2.5493 C   0  0  0  0  0  0  0  0  0  0  0  0
   -0.5378    7.0484    2.5388 C   0  0  0  0  0  0  0  0  0  0  0  0
    4.3879    2.9236    2.4931 C   0  0  0  0  0  0  0  0  0  0  0  0
    4.4056    1.5327    2.4869 C   0  0  0  0  0  0  0  0  0  0  0  0
    1.4913   -0.0346   -0.3919 H   0  0  0  0  0  0  0  0  0  0  0  0
   -0.5457   -0.7993   -1.3923 H   0  0  0  0  0  0  0  0  0  0  0  0
   -1.1700   -3.1005   -1.2190 H   0  0  0  0  0  0  0  0  0  0  0  0
    0.2365   -4.6362   -0.0521 H   0  0  0  0  0  0  0  0  0  0  0  0
    2.2755   -3.8831    0.9526 H   0  0  0  0  0  0  0  0  0  0  0  0
    5.0773   -0.7333    0.4836 H   0  0  0  0  0  0  0  0  0  0  0  0
    4.2742   -1.3426   -0.8011 H   0  0  0  0  0  0  0  0  0  0  0  0
    6.0303   -2.8182   -0.1612 H   0  0  0  0  0  0  0  0  0  0  0  0
    5.3864   -2.9356    1.3349 H   0  0  0  0  0  0  0  0  0  0  0  0
    4.5833   -3.5450    0.0502 H   0  0  0  0  0  0  0  0  0  0  0  0
    1.1468    1.0470    2.5023 H   0  0  0  0  0  0  0  0  0  0  0  0
    4.0166    5.4853    2.5071 H   0  0  0  0  0  0  0  0  0  0  0  0
    2.8189    7.4134    2.5227 H   0  0  0  0  0  0  0  0  0  0  0  0
    1.3104    9.6482    2.5412 H   0  0  0  0  0  0  0  0  0  0  0  0
   -4.5445    9.3982    2.5649 H   0  0  0  0  0  0  0  0  0  0  0  0
   -3.2735   11.4239    2.5728 H   0  0  0  0  0  0  0  0  0  0  0  0
   -0.8823   11.3538    2.5608 H   0  0  0  0  0  0  0  0  0  0  0  0
   -4.6855    7.1163    2.5524 H   0  0  0  0  0  0  0  0  0  0  0  0
   -3.5062    6.3422    1.7298 H   0  0  0  0  0  0  0  0  0  0  0  0
   -3.5030    6.3343    3.3628 H   0  0  0  0  0  0  0  0  0  0  0  0
   -0.7351    6.0681    2.5338 H   0  0  0  0  0  0  0  0  0  0  0  0
    5.2426    3.4428    2.4905 H   0  0  0  0  0  0  0  0  0  0  0  0
    5.2779    1.0438    2.4802 H   0  0  0  0  0  0  0  0  0  0  0  0
  1  2  2  0  0  0  0
  1  3  2  0  0  0  0
  1  4  1  0  0  0  0
  4  5  1  0  0  0  0
  5  6  1  0  0  0  0
  6  7  2  0  0  0  0
  7  8  1  0  0  0  0
  8  9  2  0  0  0  0
  9 10  1  0  0  0  0
 10  5  2  0  0  0  0
  4 11  1  0  0  0  0
 11 12  1  0  0  0  0
  1 13  1  0  0  0  0
 13 14  1  0  0  0  0
 14 15  2  0  0  0  0
 15 16  1  0  0  0  0
 16 17  1  0  0  0  0
 17 18  1  0  0  0  0
 18 19  2  0  0  0  0
 19 20  1  0  0  0  0
 20 21  1  0  0  0  0
 21 22  1  0  0  0  0
 22 23  1  0  0  0  0
 23 24  2  0  0  0  0
 24 25  1  0  0  0  0
 25 26  2  0  0  0  0
 26 27  1  0  0  0  0
 27 22  2  0  0  0  0
 24 28  1  0  0  0  0
 23 29  1  0  0  0  0
 20 29  2  0  0  0  0
 16 30  2  0  0  0  0
 30 31  1  0  0  0  0
 31 13  2  0  0  0  0
  6 32  1  0  0  0  0
  7 33  1  0  0  0  0
  8 34  1  0  0  0  0
  9 35  1  0  0  0  0
 10 36  1  0  0  0  0
 11 37  1  0  0  0  0
 11 38  1  0  0  0  0
 12 39  1  0  0  0  0
 12 40  1  0  0  0  0
 12 41  1  0  0  0  0
 14 42  1  0  0  0  0
 17 43  1  0  0  0  0
 19 44  1  0  0  0  0
 21 45  1  0  0  0  0
 25 46  1  0  0  0  0
 26 47  1  0  0  0  0
 27 48  1  0  0  0  0
 28 49  1  0  0  0  0
 28 50  1  0  0  0  0
 28 51  1  0  0  0  0
 29 52  1  0  0  0  0
 30 53  1  0  0  0  0
 31 54  1  0  0  0  0
M  END
>  <result-rank>
13

>  <similarity>
0.915

>  <query-name>


>  <query-smiles>
S(=O)(=O)(Nc1cc2c(NN=C2C=3Nc4c(ccc(c4)C)C3)cc1)c5cc(F)ccc5

>  <source>
REALspace_2019-12

>  <similarity-descriptor>
0.967;1.000;1.000;0.742;0.817;1.000;0.817;1.000;0.167

>  <similarity-descriptor-smiles>
Nc1ccccc1;C1=CccN1;c1ccccc1;NN=C;c1cccnc1;S(=O)=O;c1cccnc1;C;C.C

>  <reaction-name>
s_4

>  <reagent1-name>
66625

>  <reagent1-smiles>
[R1*]=NNc1ncc(S(=O)(=O)N(c2ccccc2)CC)cc1

>  <reagent2-name>
12059314

>  <reagent2-smiles>
[R1*]=CC=1Nc2c(c(ccc2)C)C1

$$$$
s_20____78537____13452670
          04022017313D 1   1.00000     0.00000     0
            
 50 53  0  0  0  0            999 V2000
    4.3075   -6.4883   -0.0695 Br  0  0  0  0  0  0  0  0  0  0  0  0
    4.6349   -4.8837    1.0074 C   0  0  0  0  0  0  0  0  0  0  0  0
    3.8654   -4.6397    2.1389 C   0  0  0  0  0  0  0  0  0  0  0  0
    4.0856   -3.5053    2.9144 C   0  0  0  0  0  0  0  0  0  0  0  0
    3.4428   -3.0905    4.0478 N   0  0  0  0  0  0  0  0  0  0  0  0
    3.9969   -1.9140    4.4609 C   0  0  0  0  0  0  0  0  0  0  0  0
    4.9910   -1.5891    3.5859 C   0  0  0  0  0  0  0  0  0  0  0  0
    6.0002   -0.1743    3.6773 S   0  0  0  0  0  0  0  0  0  0  0  0
    7.3821   -0.5621    3.5609 O   0  0  0  0  0  0  0  0  0  0  0  0
    5.7911    0.4836    4.9410 O   0  0  0  0  0  0  0  0  0  0  0  0
    5.6179    0.8451    2.4642 N   0  0  0  0  0  0  0  0  0  0  0  0
    4.3934    1.5236    2.4797 C   0  0  0  0  0  0  0  0  0  0  0  0
    4.3916    2.9147    2.4870 C   0  0  0  0  0  0  0  0  0  0  0  0
    3.1731    3.5859    2.5017 C   0  0  0  0  0  0  0  0  0  0  0  0
    3.1519    4.9853    2.5098 N   0  0  0  0  0  0  0  0  0  0  0  0
    3.4909    5.8135    1.1474 S   0  0  0  0  0  0  0  0  0  0  0  0
    3.4040    7.2266    1.4104 O   0  0  0  0  0  0  0  0  0  0  0  0
    4.8227    5.4883    0.7068 O   0  0  0  0  0  0  0  0  0  0  0  0
    2.3487    5.3831   -0.0922 C   0  0  0  0  0  0  0  0  0  0  0  0
    1.1675    6.1062   -0.2211 C   0  0  0  0  0  0  0  0  0  0  0  0
    0.2580    5.7569   -1.2136 C   0  0  0  0  0  0  0  0  0  0  0  0
    0.5379    4.6928   -2.0643 C   0  0  0  0  0  0  0  0  0  0  0  0
   -0.3368    4.3647   -3.0113 F   0  0  0  0  0  0  0  0  0  0  0  0
    1.7203    3.9739   -1.9299 C   0  0  0  0  0  0  0  0  0  0  0  0
    2.6340    4.3177   -0.9394 C   0  0  0  0  0  0  0  0  0  0  0  0
    1.9797    2.8727    2.5099 C   0  0  0  0  0  0  0  0  0  0  0  0
    0.8052    3.5371    2.5243 O   0  0  0  0  0  0  0  0  0  0  0  0
   -0.4183    2.8163    2.5328 C   0  0  0  0  0  0  0  0  0  0  0  0
    1.9840    1.4816    2.5026 C   0  0  0  0  0  0  0  0  0  0  0  0
    3.2010    0.8072    2.4870 C   0  0  0  0  0  0  0  0  0  0  0  0
    5.0655   -2.5911    2.5916 C   0  0  0  0  0  0  0  0  0  0  0  0
    5.8319   -2.8385    1.4565 C   0  0  0  0  0  0  0  0  0  0  0  0
    5.6278   -3.9681    0.6693 C   0  0  0  0  0  0  0  0  0  0  0  0
    3.1469   -5.2851    2.3980 H   0  0  0  0  0  0  0  0  0  0  0  0
    2.6906   -3.5703    4.4994 H   0  0  0  0  0  0  0  0  0  0  0  0
    3.7225   -1.3839    5.2632 H   0  0  0  0  0  0  0  0  0  0  0  0
    6.2579    0.9858    1.7089 H   0  0  0  0  0  0  0  0  0  0  0  0
    5.2522    3.4239    2.4817 H   0  0  0  0  0  0  0  0  0  0  0  0
    2.9288    5.4772    3.3514 H   0  0  0  0  0  0  0  0  0  0  0  0
    0.9740    6.8703    0.3943 H   0  0  0  0  0  0  0  0  0  0  0  0
   -0.5946    6.2694   -1.3152 H   0  0  0  0  0  0  0  0  0  0  0  0
    1.9138    3.2098   -2.5453 H   0  0  0  0  0  0  0  0  0  0  0  0
    3.4864    3.8048   -0.8376 H   0  0  0  0  0  0  0  0  0  0  0  0
   -1.1840    3.4593    2.5432 H   0  0  0  0  0  0  0  0  0  0  0  0
   -0.4741    2.2447    1.7142 H   0  0  0  0  0  0  0  0  0  0  0  0
   -0.4583    2.2371    3.3471 H   0  0  0  0  0  0  0  0  0  0  0  0
    1.1233    0.9726    2.5086 H   0  0  0  0  0  0  0  0  0  0  0  0
    3.2184   -0.1926    2.4809 H   0  0  0  0  0  0  0  0  0  0  0  0
    6.5471   -2.1883    1.2000 H   0  0  0  0  0  0  0  0  0  0  0  0
    6.1949   -4.1223   -0.1398 H   0  0  0  0  0  0  0  0  0  0  0  0
  1  2  1  0  0  0  0
  2  3  1  0  0  0  0
  3  4  2  0  0  0  0
  4  5  1  0  0  0  0
  5  6  1  0  0  0  0
  6  7  2  0  0  0  0
  7  8  1  0  0  0  0
  8  9  2  0  0  0  0
  8 10  2  0  0  0  0
  8 11  1  0  0  0  0
 11 12  1  0  0  0  0
 12 13  1  0  0  0  0
 13 14  2  0  0  0  0
 14 15  1  0  0  0  0
 15 16  1  0  0  0  0
 16 17  2  0  0  0  0
 16 18  2  0  0  0  0
 16 19  1  0  0  0  0
 19 20  1  0  0  0  0
 20 21  2  0  0  0  0
 21 22  1  0  0  0  0
 22 23  1  0  0  0  0
 22 24  2  0  0  0  0
 24 25  1  0  0  0  0
 25 19  2  0  0  0  0
 14 26  1  0  0  0  0
 26 27  1  0  0  0  0
 27 28  1  0  0  0  0
 26 29  2  0  0  0  0
 29 30  1  0  0  0  0
 30 12  2  0  0  0  0
  7 31  1  0  0  0  0
 31  4  1  0  0  0  0
 31 32  2  0  0  0  0
 32 33  1  0  0  0  0
 33  2  2  0  0  0  0
  3 34  1  0  0  0  0
  5 35  1  0  0  0  0
  6 36  1  0  0  0  0
 11 37  1  0  0  0  0
 13 38  1  0  0  0  0
 15 39  1  0  0  0  0
 20 40  1  0  0  0  0
 21 41  1  0  0  0  0
 24 42  1  0  0  0  0
 25 43  1  0  0  0  0
 28 44  1  0  0  0  0
 28 45  1  0  0  0  0
 28 46  1  0  0  0  0
 29 47  1  0  0  0  0
 30 48  1  0  0  0  0
 32 49  1  0  0  0  0
 33 50  1  0  0  0  0
M  END
>  <result-rank>
14

>  <similarity>
0.915

>  <query-name>


>  <query-smiles>
S(=O)(=O)(Nc1cc2c(NN=C2C=3Nc4c(ccc(c4)C)C3)cc1)c5cc(F)ccc5

>  <source>
REALspace_2019-12

>  <similarity-descriptor>
1.000;0.999;0.961;0.506;0.979;1.000;1.000;0.961;0.200

>  <similarity-descriptor-smiles>
c1ccc(cc1)F;c1cC=CN1;Brc1ccccc1;S(=O)(=O)N;c1ccccc1;S(=O)=O;N;Brc1ccccc1;O.C

>  <reaction-name>
s_20

>  <reagent1-name>
78537

>  <reagent1-smiles>
[R1*]Nc1cc(NS(=O)(=O)c2ccc(F)cc2)c(OC)cc1

>  <reagent2-name>
13452670

>  <reagent2-smiles>
[R1*]S(=O)(=O)C=1c2c(NC1)cc(Br)cc2

$$$$
s_22____4602506____59510
          04022017313D 1   1.00000     0.00000     0
            
 57 60  0  0  0  0            999 V2000
    4.6656   -5.0993    0.0841 S   0  0  0  0  0  0  0  0  0  0  0  0
    5.4017   -6.2886    0.4268 O   0  0  0  0  0  0  0  0  0  0  0  0
    3.2637   -5.3141    0.3330 O   0  0  0  0  0  0  0  0  0  0  0  0
    5.1940   -3.8529    0.9918 N   0  0  0  0  0  0  0  0  0  0  0  0
    4.4937   -2.6412    0.9923 C   0  0  0  0  0  0  0  0  0  0  0  0
    5.1266   -1.4727    0.5811 C   0  0  0  0  0  0  0  0  0  0  0  0
    4.4227   -0.2729    0.5846 C   0  0  0  0  0  0  0  0  0  0  0  0
    3.0950   -0.2558    1.0000 C   0  0  0  0  0  0  0  0  0  0  0  0
    2.4620   -1.4236    1.4113 C   0  0  0  0  0  0  0  0  0  0  0  0
    3.1658   -2.6235    1.4076 C   0  0  0  0  0  0  0  0  0  0  0  0
    2.3700    1.0000    1.0000 C   0  0  0  0  0  0  0  0  0  0  0  0
    2.9700    2.0392    1.0000 O   0  0  0  0  0  0  0  0  0  0  0  0
    1.0000    1.0000    1.0000 N   0  0  0  0  0  0  0  0  0  0  0  0
    0.2650    2.2731    1.0000 C   0  0  0  0  0  0  0  0  0  0  0  0
    0.2272    2.8363   -0.4113 C   0  0  0  0  0  0  0  0  0  0  0  0
   -0.5330    4.1530   -0.4113 C   0  0  0  0  0  0  0  0  0  0  0  0
    0.0378    5.4304   -0.2115 C   0  0  0  0  0  0  0  0  0  0  0  0
   -1.0190    6.3085   -0.2967 C   0  0  0  0  0  0  0  0  0  0  0  0
   -2.1729    5.6167   -0.5343 N   0  0  0  0  0  0  0  0  0  0  0  0
   -1.8775    4.2866   -0.6035 C   0  0  0  0  0  0  0  0  0  0  0  0
   -0.8208    7.6761   -0.1492 C   0  0  0  0  0  0  0  0  0  0  0  0
    0.4509    8.1864    0.0880 C   0  0  0  0  0  0  0  0  0  0  0  0
    1.5285    7.3105    0.1755 C   0  0  0  0  0  0  0  0  0  0  0  0
    1.3092    5.9449    0.0250 C   0  0  0  0  0  0  0  0  0  0  0  0
   -1.9917    8.6399   -0.2439 C   0  0  0  0  0  0  0  0  0  0  0  0
   -2.5962    8.8399    1.1364 C   0  0  0  0  0  0  0  0  0  0  0  0
    4.9062   -4.7335   -1.5996 C   0  0  0  0  0  0  0  0  0  0  0  0
    6.1003   -5.0896   -2.2177 C   0  0  0  0  0  0  0  0  0  0  0  0
    6.2870   -4.7939   -3.5637 C   0  0  0  0  0  0  0  0  0  0  0  0
    5.2816   -4.1482   -4.2756 C   0  0  0  0  0  0  0  0  0  0  0  0
    5.4674   -3.8687   -5.5628 F   0  0  0  0  0  0  0  0  0  0  0  0
    4.0905   -3.7948   -3.6517 C   0  0  0  0  0  0  0  0  0  0  0  0
    3.8973   -4.0873   -2.3059 C   0  0  0  0  0  0  0  0  0  0  0  0
    6.0186   -3.9540    1.5485 H   0  0  0  0  0  0  0  0  0  0  0  0
    6.0815   -1.4950    0.2849 H   0  0  0  0  0  0  0  0  0  0  0  0
    4.8685    0.5725    0.2902 H   0  0  0  0  0  0  0  0  0  0  0  0
    1.5072   -1.4010    1.7078 H   0  0  0  0  0  0  0  0  0  0  0  0
    2.7197   -3.4688    1.7018 H   0  0  0  0  0  0  0  0  0  0  0  0
    0.5000    0.1340    1.0000 H   0  0  0  0  0  0  0  0  0  0  0  0
    0.7238    2.9228    1.6060 H   0  0  0  0  0  0  0  0  0  0  0  0
   -0.6689    2.1188    1.3225 H   0  0  0  0  0  0  0  0  0  0  0  0
    1.1611    2.9906   -0.7338 H   0  0  0  0  0  0  0  0  0  0  0  0
   -0.2316    2.1865   -1.0173 H   0  0  0  0  0  0  0  0  0  0  0  0
   -3.0825    6.0184   -0.6400 H   0  0  0  0  0  0  0  0  0  0  0  0
   -2.5278    3.5444   -0.7656 H   0  0  0  0  0  0  0  0  0  0  0  0
    0.5892    9.1711    0.1944 H   0  0  0  0  0  0  0  0  0  0  0  0
    2.4506    7.6588    0.3446 H   0  0  0  0  0  0  0  0  0  0  0  0
    2.0849    5.3169    0.0884 H   0  0  0  0  0  0  0  0  0  0  0  0
   -2.6841    8.2637   -0.8596 H   0  0  0  0  0  0  0  0  0  0  0  0
   -1.6723    9.5186   -0.5984 H   0  0  0  0  0  0  0  0  0  0  0  0
   -3.3668    9.4742    1.0740 H   0  0  0  0  0  0  0  0  0  0  0  0
   -2.9156    7.9611    1.4909 H   0  0  0  0  0  0  0  0  0  0  0  0
   -1.9038    9.2160    1.7521 H   0  0  0  0  0  0  0  0  0  0  0  0
    6.8180   -5.5540   -1.6989 H   0  0  0  0  0  0  0  0  0  0  0  0
    7.1416   -5.0447   -4.0184 H   0  0  0  0  0  0  0  0  0  0  0  0
    3.3728   -3.3303   -4.1705 H   0  0  0  0  0  0  0  0  0  0  0  0
    3.0429   -3.8359   -1.8512 H   0  0  0  0  0  0  0  0  0  0  0  0
  1  2  2  0  0  0  0
  1  3  2  0  0  0  0
  1  4  1  0  0  0  0
  4  5  1  0  0  0  0
  5  6  1  0  0  0  0
  6  7  2  0  0  0  0
  7  8  1  0  0  0  0
  8  9  2  0  0  0  0
  9 10  1  0  0  0  0
 10  5  2  0  0  0  0
  8 11  1  0  0  0  0
 11 12  2  0  0  0  0
 11 13  1  0  0  0  0
 13 14  1  0  0  0  0
 14 15  1  0  0  0  0
 15 16  1  0  0  0  0
 16 17  1  0  0  0  0
 17 18  1  0  0  0  0
 18 19  1  0  0  0  0
 19 20  1  0  0  0  0
 16 20  2  0  0  0  0
 18 21  2  0  0  0  0
 21 22  1  0  0  0  0
 22 23  2  0  0  0  0
 23 24  1  0  0  0  0
 24 17  2  0  0  0  0
 21 25  1  0  0  0  0
 25 26  1  0  0  0  0
  1 27  1  0  0  0  0
 27 28  1  0  0  0  0
 28 29  2  0  0  0  0
 29 30  1  0  0  0  0
 30 31  1  0  0  0  0
 30 32  2  0  0  0  0
 32 33  1  0  0  0  0
 33 27  2  0  0  0  0
  4 34  1  0  0  0  0
  6 35  1  0  0  0  0
  7 36  1  0  0  0  0
  9 37  1  0  0  0  0
 10 38  1  0  0  0  0
 13 39  1  0  0  0  0
 14 40  1  0  0  0  0
 14 41  1  0  0  0  0
 15 42  1  0  0  0  0
 15 43  1  0  0  0  0
 19 44  1  0  0  0  0
 20 45  1  0  0  0  0
 22 46  1  0  0  0  0
 23 47  1  0  0  0  0
 24 48  1  0  0  0  0
 25 49  1  0  0  0  0
 25 50  1  0  0  0  0
 26 51  1  0  0  0  0
 26 52  1  0  0  0  0
 26 53  1  0  0  0  0
 28 54  1  0  0  0  0
 29 55  1  0  0  0  0
 32 56  1  0  0  0  0
 33 57  1  0  0  0  0
M  END
>  <result-rank>
15

>  <similarity>
0.914

>  <query-name>


>  <query-smiles>
S(=O)(=O)(Nc1cc2c(NN=C2C=3Nc4c(ccc(c4)C)C3)cc1)c5cc(F)ccc5

>  <source>
REALspace_2019-12

>  <similarity-descriptor>
1.000;0.906;1.000;0.574;0.938;1.000;1.000;0.949;0.083

>  <similarity-descriptor-smiles>
c1ccc(cc1)F;CC1=CNcc1;c1ccccc1;C(=O)NC;c1ccccc1;S(=O)=O;N;C;C

>  <reaction-name>
s_22

>  <reagent1-name>
4602506

>  <reagent1-smiles>
[R1*]NCCC=1c2c(NC1)c(ccc2)CC

>  <reagent2-name>
59510

>  <reagent2-smiles>
[R1*]C(=O)c1ccc(NS(=O)(=O)c2ccc(F)cc2)cc1

$$$$
s_27a____2767532____9051092
          04022017313D 1   1.00000     0.00000     0
            
 51 55  0  0  0  0            999 V2000
   -2.5032    9.4043   -7.3558 Cl  0  0  0  0  0  0  0  0  0  0  0  0
   -2.2574    8.2132   -6.0560 C   0  0  0  0  0  0  0  0  0  0  0  0
   -3.3106    7.8969   -5.2041 C   0  0  0  0  0  0  0  0  0  0  0  0
   -3.1082    6.9647   -4.1927 C   0  0  0  0  0  0  0  0  0  0  0  0
   -1.8641    6.3611   -4.0421 C   0  0  0  0  0  0  0  0  0  0  0  0
   -0.8149    6.6812   -4.8966 C   0  0  0  0  0  0  0  0  0  0  0  0
   -1.0105    7.6132   -5.9104 C   0  0  0  0  0  0  0  0  0  0  0  0
   -1.6673    5.3909   -2.9819 C   0  0  0  0  0  0  0  0  0  0  0  0
   -2.6125    4.9981   -2.0878 N   0  0  0  0  0  0  0  0  0  0  0  0
   -2.0001    4.1236   -1.3351 C   0  0  0  0  0  0  0  0  0  0  0  0
   -2.3490    3.1238   -0.0053 S   0  0  0  0  0  0  0  0  0  0  0  0
   -0.7876    2.4581    0.0770 C   0  0  0  0  0  0  0  0  0  0  0  0
   -0.0862    3.0065   -0.8880 N   0  0  0  0  0  0  0  0  0  0  0  0
   -0.7131    3.8955   -1.6490 N   0  0  0  0  0  0  0  0  0  0  0  0
   -0.5118    4.7221   -2.7160 C   0  0  0  0  0  0  0  0  0  0  0  0
   -0.3787    1.5097    1.0203 N   0  0  0  0  0  0  0  0  0  0  0  0
    1.0000    1.0000    1.0000 C   0  0  0  0  0  0  0  0  0  0  0  0
    1.8776    1.8776    1.8776 C   0  0  0  0  0  0  0  0  0  0  0  0
    2.2455    1.4447    3.1472 C   0  0  0  0  0  0  0  0  0  0  0  0
    1.8181    0.2046    3.6375 N   0  0  0  0  0  0  0  0  0  0  0  0
    0.8685    0.1347    4.9605 S   0  0  0  0  0  0  0  0  0  0  0  0
    0.8533   -1.2122    5.4698 O   0  0  0  0  0  0  0  0  0  0  0  0
    1.3845    1.0235    5.9692 O   0  0  0  0  0  0  0  0  0  0  0  0
   -0.7500    0.6135    4.5387 C   0  0  0  0  0  0  0  0  0  0  0  0
   -1.6665   -0.3433    4.1145 C   0  0  0  0  0  0  0  0  0  0  0  0
   -2.9576    0.0533    3.7805 C   0  0  0  0  0  0  0  0  0  0  0  0
   -3.3281    1.3911    3.8682 C   0  0  0  0  0  0  0  0  0  0  0  0
   -2.4038    2.3398    4.2926 C   0  0  0  0  0  0  0  0  0  0  0  0
   -1.1104    1.9544    4.6294 C   0  0  0  0  0  0  0  0  0  0  0  0
    3.0484    2.2477    3.9500 C   0  0  0  0  0  0  0  0  0  0  0  0
    3.4837    3.4834    3.4833 C   0  0  0  0  0  0  0  0  0  0  0  0
    3.1157    3.9162    2.2140 C   0  0  0  0  0  0  0  0  0  0  0  0
    2.3121    3.1136    1.4114 C   0  0  0  0  0  0  0  0  0  0  0  0
   -4.2025    8.3347   -5.3179 H   0  0  0  0  0  0  0  0  0  0  0  0
   -3.8570    6.7281   -3.5735 H   0  0  0  0  0  0  0  0  0  0  0  0
    0.0767    6.2431   -4.7827 H   0  0  0  0  0  0  0  0  0  0  0  0
   -0.2615    7.8500   -6.5293 H   0  0  0  0  0  0  0  0  0  0  0  0
    0.3458    4.8207   -3.2208 H   0  0  0  0  0  0  0  0  0  0  0  0
   -1.0242    1.1784    1.7084 H   0  0  0  0  0  0  0  0  0  0  0  0
    1.3467    1.0138    0.0621 H   0  0  0  0  0  0  0  0  0  0  0  0
    1.0138    0.0621    1.3467 H   0  0  0  0  0  0  0  0  0  0  0  0
    2.0954   -0.6380    3.1760 H   0  0  0  0  0  0  0  0  0  0  0  0
   -1.4004   -1.3051    4.0505 H   0  0  0  0  0  0  0  0  0  0  0  0
   -3.6233   -0.6277    3.4754 H   0  0  0  0  0  0  0  0  0  0  0  0
   -4.2575    1.6703    3.6266 H   0  0  0  0  0  0  0  0  0  0  0  0
   -2.6698    3.3017    4.3559 H   0  0  0  0  0  0  0  0  0  0  0  0
   -0.4449    2.6356    4.9343 H   0  0  0  0  0  0  0  0  0  0  0  0
    3.3127    1.9366    4.8629 H   0  0  0  0  0  0  0  0  0  0  0  0
    4.0613    4.0607    4.0604 H   0  0  0  0  0  0  0  0  0  0  0  0
    3.4289    4.8046    1.8784 H   0  0  0  0  0  0  0  0  0  0  0  0
    2.0467    3.4253    0.4991 H   0  0  0  0  0  0  0  0  0  0  0  0
  1  2  1  0  0  0  0
  2  3  1  0  0  0  0
  3  4  2  0  0  0  0
  4  5  1  0  0  0  0
  5  6  2  0  0  0  0
  6  7  1  0  0  0  0
  7  2  2  0  0  0  0
  5  8  1  0  0  0  0
  8  9  1  0  0  0  0
  9 10  2  0  0  0  0
 10 11  1  0  0  0  0
 11 12  1  0  0  0  0
 12 13  2  0  0  0  0
 13 14  1  0  0  0  0
 14 10  1  0  0  0  0
 14 15  1  0  0  0  0
  8 15  2  0  0  0  0
 12 16  1  0  0  0  0
 16 17  1  0  0  0  0
 17 18  1  0  0  0  0
 18 19  1  0  0  0  0
 19 20  1  0  0  0  0
 20 21  1  0  0  0  0
 21 22  2  0  0  0  0
 21 23  2  0  0  0  0
 21 24  1  0  0  0  0
 24 25  1  0  0  0  0
 25 26  2  0  0  0  0
 26 27  1  0  0  0  0
 27 28  2  0  0  0  0
 28 29  1  0  0  0  0
 29 24  2  0  0  0  0
 19 30  2  0  0  0  0
 30 31  1  0  0  0  0
 31 32  2  0  0  0  0
 32 33  1  0  0  0  0
 33 18  2  0  0  0  0
  3 34  1  0  0  0  0
  4 35  1  0  0  0  0
  6 36  1  0  0  0  0
  7 37  1  0  0  0  0
 15 38  1  0  0  0  0
 16 39  1  0  0  0  0
 17 40  1  0  0  0  0
 17 41  1  0  0  0  0
 20 42  1  0  0  0  0
 25 43  1  0  0  0  0
 26 44  1  0  0  0  0
 27 45  1  0  0  0  0
 28 46  1  0  0  0  0
 29 47  1  0  0  0  0
 30 48  1  0  0  0  0
 31 49  1  0  0  0  0
 32 50  1  0  0  0  0
 33 51  1  0  0  0  0
M  END
>  <result-rank>
16

>  <similarity>
0.914

>  <query-name>


>  <query-smiles>
S(=O)(=O)(Nc1cc2c(NN=C2C=3Nc4c(ccc(c4)C)C3)cc1)c5cc(F)ccc5

>  <source>
REALspace_2019-12

>  <similarity-descriptor>
0.967;0.738;0.933;0.940;0.875;1.000;1.000;0.933;0.0

>  <similarity-descriptor-smiles>
c1ccccc1;C1=CNC=N1;Clc1ccccc1;C1NN=C(S1)N;Cc1ccccc1;S(=O)=O;N;Clc1ccccc1;

>  <reaction-name>
s_27a

>  <reagent1-name>
2767532

>  <reagent1-smiles>
[R1*]NCc1c(NS(=O)(=O)c2ccccc2)cccc1

>  <reagent2-name>
9051092

>  <reagent2-smiles>
[R1*]C=1SC2=NC(c3ccc(Cl)cc3)=CN2N1

$$$$
s_270004____8297110____12112418
          04022017313D 1   1.00000     0.00000     0
            
 53 56  0  0  0  0            999 V2000
    6.2249    4.0989   -3.8660 Cl  0  0  0  0  0  0  0  0  0  0  0  0
    5.6863    4.6583   -2.2637 C   0  0  0  0  0  0  0  0  0  0  0  0
    4.9286    5.8197   -2.1573 C   0  0  0  0  0  0  0  0  0  0  0  0
    4.5118    6.2499   -0.9018 C   0  0  0  0  0  0  0  0  0  0  0  0
    4.8562    5.5167    0.2291 C   0  0  0  0  0  0  0  0  0  0  0  0
    4.3300    6.0625    1.7955 S   0  0  0  0  0  0  0  0  0  0  0  0
    4.2186    7.4981    1.7911 O   0  0  0  0  0  0  0  0  0  0  0  0
    5.2884    5.6585    2.7914 O   0  0  0  0  0  0  0  0  0  0  0  0
    2.8786    5.4058    2.1404 N   0  0  0  0  0  0  0  0  0  0  0  0
    2.7760    4.0359    2.4082 C   0  0  0  0  0  0  0  0  0  0  0  0
    1.9718    3.2376    1.6016 C   0  0  0  0  0  0  0  0  0  0  0  0
    1.8777    1.8777    1.8777 C   0  0  0  0  0  0  0  0  0  0  0  0
    2.5730    1.3144    2.9424 C   0  0  0  0  0  0  0  0  0  0  0  0
    3.3715    2.1327    3.7352 C   0  0  0  0  0  0  0  0  0  0  0  0
    3.4808    3.4949    3.4779 C   0  0  0  0  0  0  0  0  0  0  0  0
    1.0000    1.0000    1.0000 C   0  0  0  0  0  0  0  0  0  0  0  0
    1.7961    0.4729   -0.1177 N   0  3  0  0  0  0  0  0  0  0  0  0
    0.9474   -0.3758   -0.9664 C   0  0  0  0  0  0  0  0  0  0  0  0
    1.7709   -0.9210   -2.1227 C   0  0  0  0  0  0  0  0  0  0  0  0
    2.4712   -2.0897   -2.1093 N   0  0  0  0  0  0  0  0  0  0  0  0
    3.0795   -2.2396   -3.3214 C   0  0  0  0  0  0  0  0  0  0  0  0
    2.7617   -1.1640   -4.1096 C   0  0  0  0  0  0  0  0  0  0  0  0
    3.2659   -1.0797   -5.4037 C   0  0  0  0  0  0  0  0  0  0  0  0
    4.0933   -2.0757   -5.9127 C   0  0  0  0  0  0  0  0  0  0  0  0
    4.4159   -3.1653   -5.1100 C   0  0  0  0  0  0  0  0  0  0  0  0
    3.9069   -3.2413   -3.8178 C   0  0  0  0  0  0  0  0  0  0  0  0
    5.3186   -4.2787   -5.6173 C   0  0  0  0  0  0  0  0  0  0  0  0
    1.9257   -0.3244   -3.3382 C   0  0  0  0  0  0  0  0  0  0  0  0
    5.6139    4.3548    0.1253 C   0  0  0  0  0  0  0  0  0  0  0  0
    6.0298    3.9271   -1.1313 C   0  0  0  0  0  0  0  0  0  0  0  0
    2.5565   -0.0686    0.2408 H   0  0  0  0  0  0  0  0  0  0  0  0
    2.1547    1.2333   -0.6593 H   0  0  0  0  0  0  0  0  0  0  0  0
    4.6858    6.3406   -2.9756 H   0  0  0  0  0  0  0  0  0  0  0  0
    3.9665    7.0834   -0.8125 H   0  0  0  0  0  0  0  0  0  0  0  0
    2.0613    5.9818    2.1606 H   0  0  0  0  0  0  0  0  0  0  0  0
    1.4687    3.6355    0.8344 H   0  0  0  0  0  0  0  0  0  0  0  0
    2.5001    0.3359    3.1352 H   0  0  0  0  0  0  0  0  0  0  0  0
    3.8749    1.7349    4.5023 H   0  0  0  0  0  0  0  0  0  0  0  0
    4.0568    4.0760    4.0528 H   0  0  0  0  0  0  0  0  0  0  0  0
    0.6414    0.2396    1.5416 H   0  0  0  0  0  0  0  0  0  0  0  0
    0.2396    1.5416    0.6414 H   0  0  0  0  0  0  0  0  0  0  0  0
    0.1870    0.1658   -1.3250 H   0  0  0  0  0  0  0  0  0  0  0  0
    0.5888   -1.1361   -0.4249 H   0  0  0  0  0  0  0  0  0  0  0  0
    2.5295   -2.7285   -1.3421 H   0  0  0  0  0  0  0  0  0  0  0  0
    3.0307   -0.2935   -5.9750 H   0  0  0  0  0  0  0  0  0  0  0  0
    4.4517   -2.0092   -6.8439 H   0  0  0  0  0  0  0  0  0  0  0  0
    4.1382   -4.0240   -3.2398 H   0  0  0  0  0  0  0  0  0  0  0  0
    5.5993   -4.0787   -6.5560 H   0  0  0  0  0  0  0  0  0  0  0  0
    6.1282   -4.3434   -5.0339 H   0  0  0  0  0  0  0  0  0  0  0  0
    4.8220   -5.1464   -5.5956 H   0  0  0  0  0  0  0  0  0  0  0  0
    1.5238    0.5437   -3.6295 H   0  0  0  0  0  0  0  0  0  0  0  0
    5.8565    3.8336    0.9435 H   0  0  0  0  0  0  0  0  0  0  0  0
    6.5757    3.0940   -1.2206 H   0  0  0  0  0  0  0  0  0  0  0  0
  1  2  1  0  0  0  0
  2  3  1  0  0  0  0
  3  4  2  0  0  0  0
  4  5  1  0  0  0  0
  5  6  1  0  0  0  0
  6  7  2  0  0  0  0
  6  8  2  0  0  0  0
  6  9  1  0  0  0  0
  9 10  1  0  0  0  0
 10 11  1  0  0  0  0
 11 12  2  0  0  0  0
 12 13  1  0  0  0  0
 13 14  2  0  0  0  0
 14 15  1  0  0  0  0
 15 10  2  0  0  0  0
 12 16  1  0  0  0  0
 16 17  1  0  0  0  0
 17 18  1  0  0  0  0
 18 19  1  0  0  0  0
 19 20  1  0  0  0  0
 20 21  1  0  0  0  0
 21 22  1  0  0  0  0
 22 23  2  0  0  0  0
 23 24  1  0  0  0  0
 24 25  2  0  0  0  0
 25 26  1  0  0  0  0
 26 21  2  0  0  0  0
 25 27  1  0  0  0  0
 22 28  1  0  0  0  0
 19 28  2  0  0  0  0
  5 29  2  0  0  0  0
 29 30  1  0  0  0  0
 30  2  2  0  0  0  0
 17 31  1  0  0  0  0
 17 32  1  0  0  0  0
  3 33  1  0  0  0  0
  4 34  1  0  0  0  0
  9 35  1  0  0  0  0
 11 36  1  0  0  0  0
 13 37  1  0  0  0  0
 14 38  1  0  0  0  0
 15 39  1  0  0  0  0
 16 40  1  0  0  0  0
 16 41  1  0  0  0  0
 18 42  1  0  0  0  0
 18 43  1  0  0  0  0
 20 44  1  0  0  0  0
 23 45  1  0  0  0  0
 24 46  1  0  0  0  0
 26 47  1  0  0  0  0
 27 48  1  0  0  0  0
 27 49  1  0  0  0  0
 27 50  1  0  0  0  0
 28 51  1  0  0  0  0
 29 52  1  0  0  0  0
 30 53  1  0  0  0  0
M  CHG  1  17   1
M  END
>  <result-rank>
17

>  <similarity>
0.913

>  <query-name>


>  <query-smiles>
S(=O)(=O)(Nc1cc2c(NN=C2C=3Nc4c(ccc(c4)C)C3)cc1)c5cc(F)ccc5

>  <source>
REALspace_2019-12

>  <similarity-descriptor>
0.985;1.000;1.000;0.418;0.875;1.000;1.000;1.000;0.0

>  <similarity-descriptor-smiles>
Clc1ccccc1;C1=CccN1;c1ccccc1;[NH2+]C;c1cccc(c1)C;S(=O)=O;N;C;

>  <reaction-name>
s_270004

>  <reagent1-name>
8297110

>  <reagent1-smiles>
[R1*]NCc1cc(NS(=O)(=O)c2ccc(Cl)cc2)ccc1

>  <reagent2-name>
12112418

>  <reagent2-smiles>
[R1*]CC=1Nc2c(ccc(c2)C)C1

$$$$
s_270196____16763760____16887966
          04022017313D 1   1.00000     0.00000     0
            
 51 55  0  0  0  0            999 V2000
    1.0000    1.0000    1.0000 S   0  0  0  0  0  0  0  0  0  0  0  0
   -0.2684    1.6482    0.7889 O   0  0  0  0  0  0  0  0  0  0  0  0
    0.7889   -0.2684    1.6482 O   0  0  0  0  0  0  0  0  0  0  0  0
    1.7337    0.7610   -0.4358 N   0  0  0  0  0  0  0  0  0  0  0  0
    2.8807   -0.0375   -0.5113 C   0  0  0  0  0  0  0  0  0  0  0  0
    4.0695    0.5120   -0.9796 C   0  0  0  0  0  0  0  0  0  0  0  0
    5.2026   -0.2914   -1.0503 C   0  0  0  0  0  0  0  0  0  0  0  0
    6.5048    0.3032   -1.5617 C   0  0  0  0  0  0  0  0  0  0  0  0
    7.5241    0.7688   -1.9621 C   0  0  0  0  0  0  0  0  0  0  0  0
    5.1582   -1.6260   -0.6612 C   0  0  0  0  0  0  0  0  0  0  0  0
    3.9579   -2.1536   -0.1957 C   0  0  0  0  0  0  0  0  0  0  0  0
    2.8125   -1.3691   -0.1164 C   0  0  0  0  0  0  0  0  0  0  0  0
    2.0045    2.0045    2.0045 C   0  0  0  0  0  0  0  0  0  0  0  0
    1.8584    3.3870    1.9602 C   0  0  0  0  0  0  0  0  0  0  0  0
    2.6665    4.1805    2.7676 C   0  0  0  0  0  0  0  0  0  0  0  0
    3.6073    3.5898    3.6054 C   0  0  0  0  0  0  0  0  0  0  0  0
    3.7498    2.2066    3.6463 C   0  0  0  0  0  0  0  0  0  0  0  0
    2.9434    1.4091    2.8407 C   0  0  0  0  0  0  0  0  0  0  0  0
    4.4448    4.4292    4.4418 C   0  0  0  0  0  0  0  0  0  0  0  0
    4.4123    5.7421    4.4987 N   0  0  0  0  0  0  0  0  0  0  0  0
    5.2794    6.1267    5.3359 O   0  0  0  0  0  0  0  0  0  0  0  0
    5.8986    5.0902    5.8453 C   0  0  0  0  0  0  0  0  0  0  0  0
    5.4010    4.0043    5.3091 N   0  0  0  0  0  0  0  0  0  0  0  0
    6.9553    5.1378    6.8368 C   0  0  0  0  0  0  0  0  0  0  0  0
    7.6187    4.0141    7.3815 C   0  0  0  0  0  0  0  0  0  0  0  0
    8.5303    4.5492    8.2669 C   0  0  0  0  0  0  0  0  0  0  0  0
    8.4331    5.9110    8.2692 N   0  0  0  0  0  0  0  0  0  0  0  0
    7.4605    6.2789    7.3861 C   0  0  0  0  0  0  0  0  0  0  0  0
    9.3714    3.7130    8.9934 C   0  0  0  0  0  0  0  0  0  0  0  0
    9.3104    2.3314    8.8429 C   0  0  0  0  0  0  0  0  0  0  0  0
    8.3926    1.7840    7.9520 C   0  0  0  0  0  0  0  0  0  0  0  0
    7.5574    2.6322    7.2312 C   0  0  0  0  0  0  0  0  0  0  0  0
   10.2384    1.4324    9.6433 C   0  0  0  0  0  0  0  0  0  0  0  0
    1.3643    1.1850   -1.2627 H   0  0  0  0  0  0  0  0  0  0  0  0
    4.1090    1.4707   -1.2614 H   0  0  0  0  0  0  0  0  0  0  0  0
    8.3808    1.1600   -2.2985 H   0  0  0  0  0  0  0  0  0  0  0  0
    5.9768   -2.1978   -0.7153 H   0  0  0  0  0  0  0  0  0  0  0  0
    3.9182   -3.1122    0.0863 H   0  0  0  0  0  0  0  0  0  0  0  0
    1.9537   -1.7563    0.2192 H   0  0  0  0  0  0  0  0  0  0  0  0
    1.1807    3.8052    1.3553 H   0  0  0  0  0  0  0  0  0  0  0  0
    2.5713    5.1758    2.7459 H   0  0  0  0  0  0  0  0  0  0  0  0
    4.4274    1.7882    4.2511 H   0  0  0  0  0  0  0  0  0  0  0  0
    3.0382    0.4138    2.8624 H   0  0  0  0  0  0  0  0  0  0  0  0
    8.9829    6.5344    8.8252 H   0  0  0  0  0  0  0  0  0  0  0  0
    7.1713    7.2137    7.1797 H   0  0  0  0  0  0  0  0  0  0  0  0
   10.0294    4.1106    9.6330 H   0  0  0  0  0  0  0  0  0  0  0  0
    8.3338    0.7930    7.8310 H   0  0  0  0  0  0  0  0  0  0  0  0
    6.8978    2.2394    6.5903 H   0  0  0  0  0  0  0  0  0  0  0  0
   10.0584    0.4765    9.4113 H   0  0  0  0  0  0  0  0  0  0  0  0
   11.1885    1.6552    9.4250 H   0  0  0  0  0  0  0  0  0  0  0  0
   10.0788    1.5740   10.6203 H   0  0  0  0  0  0  0  0  0  0  0  0
  1  2  2  0  0  0  0
  1  3  2  0  0  0  0
  1  4  1  0  0  0  0
  4  5  1  0  0  0  0
  5  6  1  0  0  0  0
  6  7  2  0  0  0  0
  7  8  1  0  0  0  0
  8  9  3  0  0  0  0
  7 10  1  0  0  0  0
 10 11  2  0  0  0  0
 11 12  1  0  0  0  0
 12  5  2  0  0  0  0
  1 13  1  0  0  0  0
 13 14  1  0  0  0  0
 14 15  2  0  0  0  0
 15 16  1  0  0  0  0
 16 17  2  0  0  0  0
 17 18  1  0  0  0  0
 18 13  2  0  0  0  0
 16 19  1  0  0  0  0
 19 20  2  0  0  0  0
 20 21  1  0  0  0  0
 21 22  1  0  0  0  0
 22 23  2  0  0  0  0
 23 19  1  0  0  0  0
 22 24  1  0  0  0  0
 24 25  1  0  0  0  0
 25 26  1  0  0  0  0
 26 27  1  0  0  0  0
 27 28  1  0  0  0  0
 24 28  2  0  0  0  0
 26 29  2  0  0  0  0
 29 30  1  0  0  0  0
 30 31  2  0  0  0  0
 31 32  1  0  0  0  0
 32 25  2  0  0  0  0
 30 33  1  0  0  0  0
  4 34  1  0  0  0  0
  6 35  1  0  0  0  0
  9 36  1  0  0  0  0
 10 37  1  0  0  0  0
 11 38  1  0  0  0  0
 12 39  1  0  0  0  0
 14 40  1  0  0  0  0
 15 41  1  0  0  0  0
 17 42  1  0  0  0  0
 18 43  1  0  0  0  0
 27 44  1  0  0  0  0
 28 45  1  0  0  0  0
 29 46  1  0  0  0  0
 31 47  1  0  0  0  0
 32 48  1  0  0  0  0
 33 49  1  0  0  0  0
 33 50  1  0  0  0  0
 33 51  1  0  0  0  0
M  END
>  <result-rank>
18

>  <similarity>
0.913

>  <query-name>


>  <query-smiles>
S(=O)(=O)(Nc1cc2c(NN=C2C=3Nc4c(ccc(c4)C)C3)cc1)c5cc(F)ccc5

>  <source>
REALspace_2019-12

>  <similarity-descriptor>
0.997;1.000;1.000;0.680;0.881;0.888;0.881;1.000;0.100

>  <similarity-descriptor-smiles>
c1cccc(c1)C;C1=CNcc1;c1ccccc1;C=1N=CON1;c1ccccc1;S(=O)(=O)N;c1ccccc1;C;C

>  <reaction-name>
s_270196

>  <reagent1-name>
16763760

>  <reagent1-smiles>
[R1*]=NC(=NO[R2*])c1ccc(S(=O)(=O)Nc2cc(C#C)ccc2)cc1

>  <reagent2-name>
16887966

>  <reagent2-smiles>
[R1*]C([R2*])C=1c2c(NC1)cc(cc2)C

$$$$
s_22____58249____4556756
          04022017313D 1   1.00000     0.00000     0
            
 58 61  0  0  0  0            999 V2000
    8.1234    4.6863   -3.4992 Cl  0  0  0  0  0  0  0  0  0  0  0  0
    6.5248    4.0091   -3.1094 C   0  0  0  0  0  0  0  0  0  0  0  0
    5.4543    4.8618   -2.8648 C   0  0  0  0  0  0  0  0  0  0  0  0
    5.6870    6.6243   -2.9436 Cl  0  0  0  0  0  0  0  0  0  0  0  0
    4.1978    4.3498   -2.5577 C   0  0  0  0  0  0  0  0  0  0  0  0
    4.0220    2.9708   -2.4976 C   0  0  0  0  0  0  0  0  0  0  0  0
    5.0961    2.1220   -2.7438 C   0  0  0  0  0  0  0  0  0  0  0  0
    4.8757    0.3982   -2.6694 S   0  0  0  0  0  0  0  0  0  0  0  0
    5.7910   -0.2424   -3.5779 O   0  0  0  0  0  0  0  0  0  0  0  0
    3.5234    0.0708   -3.0401 O   0  0  0  0  0  0  0  0  0  0  0  0
    5.1640   -0.1213   -1.1515 N   0  0  0  0  0  0  0  0  0  0  0  0
    4.4671    0.4403   -0.0754 C   0  0  0  0  0  0  0  0  0  0  0  0
    5.1652    0.9958    0.9908 C   0  0  0  0  0  0  0  0  0  0  0  0
    6.5147    0.9908    0.9801 O   0  0  0  0  0  0  0  0  0  0  0  0
    7.2297    2.2167    1.0280 C   0  0  0  0  0  0  0  0  0  0  0  0
    4.4871    1.5572    2.0680 C   0  0  0  0  0  0  0  0  0  0  0  0
    3.0958    1.5574    2.0679 C   0  0  0  0  0  0  0  0  0  0  0  0
    2.4000    1.0000    1.0000 C   0  0  0  0  0  0  0  0  0  0  0  0
    1.0000    1.0000    1.0000 N   0  0  0  0  0  0  0  0  0  0  0  0
    0.3150    2.1854    1.0512 C   0  0  0  0  0  0  0  0  0  0  0  0
    0.8607    3.1770    1.4497 O   0  0  0  0  0  0  0  0  0  0  0  0
   -1.1362    2.2444    0.6031 C   0  0  0  0  0  0  0  0  0  0  0  0
   -2.0448    2.2088    1.8217 C   0  0  0  0  0  0  0  0  0  0  0  0
   -2.3460    3.3111    2.6534 C   0  0  0  0  0  0  0  0  0  0  0  0
   -3.1967    2.8097    3.6127 C   0  0  0  0  0  0  0  0  0  0  0  0
   -3.4085    1.4788    3.3882 N   0  0  0  0  0  0  0  0  0  0  0  0
   -2.6978    1.1040    2.2856 C   0  0  0  0  0  0  0  0  0  0  0  0
   -3.7050    3.6311    4.6118 C   0  0  0  0  0  0  0  0  0  0  0  0
   -3.3642    4.9783    4.6633 C   0  0  0  0  0  0  0  0  0  0  0  0
   -2.5061    5.4990    3.6996 C   0  0  0  0  0  0  0  0  0  0  0  0
   -2.0079    4.6601    2.7077 C   0  0  0  0  0  0  0  0  0  0  0  0
   -4.6431    3.0712    5.6678 C   0  0  0  0  0  0  0  0  0  0  0  0
   -3.8320    2.5689    6.8511 C   0  0  0  0  0  0  0  0  0  0  0  0
    3.0759    0.4381   -0.0782 C   0  0  0  0  0  0  0  0  0  0  0  0
    6.3541    2.6301   -3.0508 C   0  0  0  0  0  0  0  0  0  0  0  0
    3.4298    4.9657   -2.3823 H   0  0  0  0  0  0  0  0  0  0  0  0
    3.1239    2.5901   -2.2774 H   0  0  0  0  0  0  0  0  0  0  0  0
    5.8387   -0.8413   -0.9891 H   0  0  0  0  0  0  0  0  0  0  0  0
    8.2121    2.0305    1.0122 H   0  0  0  0  0  0  0  0  0  0  0  0
    6.9839    2.7771    0.2370 H   0  0  0  0  0  0  0  0  0  0  0  0
    6.9966    2.7059    1.8684 H   0  0  0  0  0  0  0  0  0  0  0  0
    4.9934    1.9557    2.8328 H   0  0  0  0  0  0  0  0  0  0  0  0
    2.5958    1.9584    2.8355 H   0  0  0  0  0  0  0  0  0  0  0  0
    0.5000    0.1348    0.9627 H   0  0  0  0  0  0  0  0  0  0  0  0
   -1.3359    1.4603    0.0155 H   0  0  0  0  0  0  0  0  0  0  0  0
   -1.2939    3.0908    0.0944 H   0  0  0  0  0  0  0  0  0  0  0  0
   -3.9879    0.8791    3.9402 H   0  0  0  0  0  0  0  0  0  0  0  0
   -2.6620    0.1866    1.8893 H   0  0  0  0  0  0  0  0  0  0  0  0
   -3.7314    5.5659    5.3844 H   0  0  0  0  0  0  0  0  0  0  0  0
   -2.2502    6.4655    3.7197 H   0  0  0  0  0  0  0  0  0  0  0  0
   -1.3912    5.0360    2.0160 H   0  0  0  0  0  0  0  0  0  0  0  0
   -5.1691    2.3147    5.2791 H   0  0  0  0  0  0  0  0  0  0  0  0
   -5.2682    3.7896    5.9731 H   0  0  0  0  0  0  0  0  0  0  0  0
   -4.4494    2.2004    7.5461 H   0  0  0  0  0  0  0  0  0  0  0  0
   -3.2069    1.8505    6.5459 H   0  0  0  0  0  0  0  0  0  0  0  0
   -3.3060    3.3254    7.2399 H   0  0  0  0  0  0  0  0  0  0  0  0
    2.5699    0.0389   -0.8429 H   0  0  0  0  0  0  0  0  0  0  0  0
    7.1224    2.0145   -3.2263 H   0  0  0  0  0  0  0  0  0  0  0  0
  1  2  1  0  0  0  0
  2  3  1  0  0  0  0
  3  4  1  0  0  0  0
  3  5  2  0  0  0  0
  5  6  1  0  0  0  0
  6  7  2  0  0  0  0
  7  8  1  0  0  0  0
  8  9  2  0  0  0  0
  8 10  2  0  0  0  0
  8 11  1  0  0  0  0
 11 12  1  0  0  0  0
 12 13  1  0  0  0  0
 13 14  1  0  0  0  0
 14 15  1  0  0  0  0
 13 16  2  0  0  0  0
 16 17  1  0  0  0  0
 17 18  2  0  0  0  0
 18 19  1  0  0  0  0
 19 20  1  0  0  0  0
 20 21  2  0  0  0  0
 20 22  1  0  0  0  0
 22 23  1  0  0  0  0
 23 24  1  0  0  0  0
 24 25  1  0  0  0  0
 25 26  1  0  0  0  0
 26 27  1  0  0  0  0
 23 27  2  0  0  0  0
 25 28  2  0  0  0  0
 28 29  1  0  0  0  0
 29 30  2  0  0  0  0
 30 31  1  0  0  0  0
 31 24  2  0  0  0  0
 28 32  1  0  0  0  0
 32 33  1  0  0  0  0
 18 34  1  0  0  0  0
 34 12  2  0  0  0  0
  7 35  1  0  0  0  0
 35  2  2  0  0  0  0
  5 36  1  0  0  0  0
  6 37  1  0  0  0  0
 11 38  1  0  0  0  0
 15 39  1  0  0  0  0
 15 40  1  0  0  0  0
 15 41  1  0  0  0  0
 16 42  1  0  0  0  0
 17 43  1  0  0  0  0
 19 44  1  0  0  0  0
 22 45  1  0  0  0  0
 22 46  1  0  0  0  0
 26 47  1  0  0  0  0
 27 48  1  0  0  0  0
 29 49  1  0  0  0  0
 30 50  1  0  0  0  0
 31 51  1  0  0  0  0
 32 52  1  0  0  0  0
 32 53  1  0  0  0  0
 33 54  1  0  0  0  0
 33 55  1  0  0  0  0
 33 56  1  0  0  0  0
 34 57  1  0  0  0  0
 35 58  1  0  0  0  0
M  END
>  <result-rank>
19

>  <similarity>
0.912

>  <query-name>


>  <query-smiles>
S(=O)(=O)(Nc1cc2c(NN=C2C=3Nc4c(ccc(c4)C)C3)cc1)c5cc(F)ccc5

>  <source>
REALspace_2019-12

>  <similarity-descriptor>
0.937;1.000;1.000;0.576;0.979;1.000;1.000;0.949;0.231

>  <similarity-descriptor-smiles>
Clc1ccccc1Cl;C1=CNcc1;c1ccccc1;NC(=O)C;c1ccccc1;S(=O)=O;N;C;O.C.C

>  <reaction-name>
s_22

>  <reagent1-name>
58249

>  <reagent1-smiles>
[R1*]Nc1cc(NS(=O)(=O)c2cc(Cl)c(Cl)cc2)c(OC)cc1

>  <reagent2-name>
4556756

>  <reagent2-smiles>
[R1*]C(=O)CC=1c2c(NC1)c(ccc2)CC

$$$$
s_60____90603____7964240
          04022017313D 1   1.00000     0.00000     0
            
 49 53  0  0  0  0            999 V2000
    1.0000    1.0000    1.0000 S   0  0  0  0  0  0  0  0  0  0  0  0
   -0.2735    1.6418    0.8003 O   0  0  0  0  0  0  0  0  0  0  0  0
    0.8003   -0.2735    1.6418 O   0  0  0  0  0  0  0  0  0  0  0  0
    1.7265    0.7739   -0.4415 N   0  0  0  0  0  0  0  0  0  0  0  0
    2.8149   -0.1003   -0.5474 C   0  0  0  0  0  0  0  0  0  0  0  0
    2.5969   -1.4307   -0.8887 C   0  0  0  0  0  0  0  0  0  0  0  0
    1.3418   -1.8721   -1.1164 O   0  0  0  0  0  0  0  0  0  0  0  0
    1.1325   -3.0702   -1.8493 C   0  0  0  0  0  0  0  0  0  0  0  0
    3.6662   -2.3135   -0.9988 C   0  0  0  0  0  0  0  0  0  0  0  0
    4.9543   -1.8453   -0.7622 C   0  0  0  0  0  0  0  0  0  0  0  0
    5.1768   -0.5159   -0.4198 C   0  0  0  0  0  0  0  0  0  0  0  0
    4.1051    0.3631   -0.3116 C   0  0  0  0  0  0  0  0  0  0  0  0
    2.0045    2.0045    2.0045 C   0  0  0  0  0  0  0  0  0  0  0  0
    1.7372    3.3673    2.0800 C   0  0  0  0  0  0  0  0  0  0  0  0
    2.5208    4.1981    2.8736 C   0  0  0  0  0  0  0  0  0  0  0  0
    2.4797    5.5395    3.1211 N   0  0  0  0  0  0  0  0  0  0  0  0
    3.4543    5.8309    3.9515 C   0  0  0  0  0  0  0  0  0  0  0  0
    4.1511    4.7016    4.2641 N   0  0  0  0  0  0  0  0  0  0  0  0
    3.5683    3.6712    3.5881 C   0  0  0  0  0  0  0  0  0  0  0  0
    3.8391    2.3090    3.5165 C   0  0  0  0  0  0  0  0  0  0  0  0
    3.0636    1.4660    2.7275 C   0  0  0  0  0  0  0  0  0  0  0  0
    3.7461    7.1571    4.4603 C   0  0  0  0  0  0  0  0  0  0  0  0
    4.6390    7.4491    5.3784 N   0  0  0  0  0  0  0  0  0  0  0  0
    4.6608    8.7417    5.6290 N   0  0  0  0  0  0  0  0  0  0  0  0
    3.7377    9.3518    4.8273 C   0  0  0  0  0  0  0  0  0  0  0  0
    3.1460    8.3665    4.0610 C   0  0  0  0  0  0  0  0  0  0  0  0
    2.1630    8.7399    3.1520 C   0  0  0  0  0  0  0  0  0  0  0  0
    1.7894   10.0722    3.0058 C   0  0  0  0  0  0  0  0  0  0  0  0
    2.3964   11.0590    3.7762 C   0  0  0  0  0  0  0  0  0  0  0  0
    3.3766   10.6884    4.6921 C   0  0  0  0  0  0  0  0  0  0  0  0
    2.0111   12.4478    3.6205 C   0  0  0  0  0  0  0  0  0  0  0  0
    2.5422   13.3021    4.2931 O   0  5  0  0  0  0  0  0  0  0  0  0
    1.1302   12.7629    2.7915 O   0  0  0  0  0  0  0  0  0  0  0  0
    1.3948    1.2596   -1.2502 H   0  0  0  0  0  0  0  0  0  0  0  0
    0.1513   -3.2481   -1.9240 H   0  0  0  0  0  0  0  0  0  0  0  0
    1.5244   -2.9740   -2.7643 H   0  0  0  0  0  0  0  0  0  0  0  0
    1.5743   -3.8321   -1.3758 H   0  0  0  0  0  0  0  0  0  0  0  0
    3.5111   -3.2704   -1.2442 H   0  0  0  0  0  0  0  0  0  0  0  0
    5.7296   -2.4721   -0.8393 H   0  0  0  0  0  0  0  0  0  0  0  0
    6.1079   -0.1922   -0.2514 H   0  0  0  0  0  0  0  0  0  0  0  0
    4.2604    1.3201   -0.0665 H   0  0  0  0  0  0  0  0  0  0  0  0
    0.9753    3.7528    1.5594 H   0  0  0  0  0  0  0  0  0  0  0  0
    4.9410    4.6406    4.8744 H   0  0  0  0  0  0  0  0  0  0  0  0
    4.6024    1.9302    4.0398 H   0  0  0  0  0  0  0  0  0  0  0  0
    3.2644    0.4875    2.6809 H   0  0  0  0  0  0  0  0  0  0  0  0
    5.2523    9.1990    6.2931 H   0  0  0  0  0  0  0  0  0  0  0  0
    1.7170    8.0398    2.5943 H   0  0  0  0  0  0  0  0  0  0  0  0
    1.0820   10.3215    2.3445 H   0  0  0  0  0  0  0  0  0  0  0  0
    3.8225   11.3847    5.2545 H   0  0  0  0  0  0  0  0  0  0  0  0
  1  2  2  0  0  0  0
  1  3  2  0  0  0  0
  1  4  1  0  0  0  0
  4  5  1  0  0  0  0
  5  6  1  0  0  0  0
  6  7  1  0  0  0  0
  7  8  1  0  0  0  0
  6  9  2  0  0  0  0
  9 10  1  0  0  0  0
 10 11  2  0  0  0  0
 11 12  1  0  0  0  0
 12  5  2  0  0  0  0
  1 13  1  0  0  0  0
 13 14  1  0  0  0  0
 14 15  2  0  0  0  0
 15 16  1  0  0  0  0
 16 17  2  0  0  0  0
 17 18  1  0  0  0  0
 18 19  1  0  0  0  0
 19 15  1  0  0  0  0
 19 20  2  0  0  0  0
 20 21  1  0  0  0  0
 21 13  2  0  0  0  0
 17 22  1  0  0  0  0
 22 23  2  0  0  0  0
 23 24  1  0  0  0  0
 24 25  1  0  0  0  0
 25 26  1  0  0  0  0
 26 22  1  0  0  0  0
 26 27  2  0  0  0  0
 27 28  1  0  0  0  0
 28 29  2  0  0  0  0
 29 30  1  0  0  0  0
 30 25  2  0  0  0  0
 29 31  1  0  0  0  0
 31 32  1  0  0  0  0
 31 33  2  0  0  0  0
  4 34  1  0  0  0  0
  8 35  1  0  0  0  0
  8 36  1  0  0  0  0
  8 37  1  0  0  0  0
  9 38  1  0  0  0  0
 10 39  1  0  0  0  0
 11 40  1  0  0  0  0
 12 41  1  0  0  0  0
 14 42  1  0  0  0  0
 18 43  1  0  0  0  0
 20 44  1  0  0  0  0
 21 45  1  0  0  0  0
 24 46  1  0  0  0  0
 27 47  1  0  0  0  0
 28 48  1  0  0  0  0
 30 49  1  0  0  0  0
M  CHG  1  32  -1
M  END
>  <result-rank>
20

>  <similarity>
0.911

>  <query-name>


>  <query-smiles>
S(=O)(=O)(Nc1cc2c(NN=C2C=3Nc4c(ccc(c4)C)C3)cc1)c5cc(F)ccc5

>  <source>
REALspace_2019-12

>  <similarity-descriptor>
0.922;0.808;1.000;0.999;1.000;0.888;0.888;0.0;0.300

>  <similarity-descriptor-smiles>
Nc1ccccc1;C=1ccNN1;c1ccccc1;c1cNC=N1;c1ccccc1;S(=O)=O;S(=O)=O;;O.C.C([O-])=O

>  <reaction-name>
s_60

>  <reagent1-name>
90603

>  <reagent1-smiles>
[R1*]C1=Nc2c(N1)ccc(S(=O)(=O)Nc3c(OC)cccc3)c2

>  <reagent2-name>
7964240

>  <reagent2-smiles>
[R1*]C1=NNc2c1ccc(c2)C(=O)O

$$$$
s_22____751982____736774
          04022017313D 1   1.00000     0.00000     0
            
 55 58  0  0  0  0            999 V2000
    1.8156   -3.4776    4.3265 S   0  0  0  0  0  0  0  0  0  0  0  0
    1.8147   -4.1551    5.5972 O   0  0  0  0  0  0  0  0  0  0  0  0
    0.6076   -2.7052    4.1935 O   0  0  0  0  0  0  0  0  0  0  0  0
    3.1066   -2.4863    4.2404 N   0  0  0  0  0  0  0  0  0  0  0  0
    3.4419   -1.8774    3.0249 C   0  0  0  0  0  0  0  0  0  0  0  0
    4.4616   -2.3924    2.2302 C   0  0  0  0  0  0  0  0  0  0  0  0
    4.7834   -1.7776    1.0240 C   0  0  0  0  0  0  0  0  0  0  0  0
    4.0871   -0.6460    0.6115 C   0  0  0  0  0  0  0  0  0  0  0  0
    3.0701   -0.1395    1.4148 C   0  0  0  0  0  0  0  0  0  0  0  0
    2.3700    1.0000    1.0000 N   0  0  0  0  0  0  0  0  0  0  0  0
    1.0000    1.0000    1.0000 C   0  0  0  0  0  0  0  0  0  0  0  0
    0.4000   -0.0392    1.0000 O   0  0  0  0  0  0  0  0  0  0  0  0
    0.2400    2.3164    1.0000 C   0  0  0  0  0  0  0  0  0  0  0  0
   -0.2291    2.6309   -0.4119 C   0  0  0  0  0  0  0  0  0  0  0  0
   -1.3639    2.0750   -1.0446 C   0  0  0  0  0  0  0  0  0  0  0  0
   -1.4109    2.6340   -2.2997 C   0  0  0  0  0  0  0  0  0  0  0  0
   -0.3584    3.4924   -2.4167 N   0  0  0  0  0  0  0  0  0  0  0  0
    0.3761    3.4998   -1.2690 C   0  0  0  0  0  0  0  0  0  0  0  0
   -2.4169    2.3085   -3.2035 C   0  0  0  0  0  0  0  0  0  0  0  0
   -3.4126    1.4000   -2.8579 C   0  0  0  0  0  0  0  0  0  0  0  0
   -3.3891    0.8216   -1.5923 C   0  0  0  0  0  0  0  0  0  0  0  0
   -4.3629   -0.0583   -1.2645 O   0  0  0  0  0  0  0  0  0  0  0  0
   -4.3687   -0.6651    0.0193 C   0  0  0  0  0  0  0  0  0  0  0  0
   -2.3687    1.1679   -0.7090 C   0  0  0  0  0  0  0  0  0  0  0  0
    2.7396   -0.7464    2.6222 C   0  0  0  0  0  0  0  0  0  0  0  0
    5.2238   -3.6289    2.6786 C   0  0  0  0  0  0  0  0  0  0  0  0
    1.8984   -4.6503    3.0441 C   0  0  0  0  0  0  0  0  0  0  0  0
    2.5507   -5.8609    3.2542 C   0  0  0  0  0  0  0  0  0  0  0  0
    2.6093   -6.7900    2.2202 C   0  0  0  0  0  0  0  0  0  0  0  0
    2.0235   -6.5117    0.9897 C   0  0  0  0  0  0  0  0  0  0  0  0
    1.3744   -5.2979    0.7898 C   0  0  0  0  0  0  0  0  0  0  0  0
    1.3096   -4.3620    1.8168 C   0  0  0  0  0  0  0  0  0  0  0  0
    3.6592   -2.3129    5.0556 H   0  0  0  0  0  0  0  0  0  0  0  0
    5.5156   -2.1494    0.4533 H   0  0  0  0  0  0  0  0  0  0  0  0
    4.3154   -0.2007   -0.2543 H   0  0  0  0  0  0  0  0  0  0  0  0
    2.8700    1.8138    0.7038 H   0  0  0  0  0  0  0  0  0  0  0  0
    0.8406    3.0480    1.3225 H   0  0  0  0  0  0  0  0  0  0  0  0
   -0.5521    2.2439    1.6060 H   0  0  0  0  0  0  0  0  0  0  0  0
   -0.1544    4.0387   -3.2290 H   0  0  0  0  0  0  0  0  0  0  0  0
    1.1995    4.0385   -1.0905 H   0  0  0  0  0  0  0  0  0  0  0  0
   -2.4247    2.7312   -4.1097 H   0  0  0  0  0  0  0  0  0  0  0  0
   -4.1344    1.1662   -3.5093 H   0  0  0  0  0  0  0  0  0  0  0  0
   -5.1516   -1.2830    0.0923 H   0  0  0  0  0  0  0  0  0  0  0  0
   -3.5226   -1.1824    0.1473 H   0  0  0  0  0  0  0  0  0  0  0  0
   -4.4362    0.0429    0.7223 H   0  0  0  0  0  0  0  0  0  0  0  0
   -2.3564    0.7503    0.1996 H   0  0  0  0  0  0  0  0  0  0  0  0
    2.0072   -0.3746    3.1926 H   0  0  0  0  0  0  0  0  0  0  0  0
    5.9157   -3.8602    1.9947 H   0  0  0  0  0  0  0  0  0  0  0  0
    5.6693   -3.4462    3.5550 H   0  0  0  0  0  0  0  0  0  0  0  0
    4.5876   -4.3936    2.7811 H   0  0  0  0  0  0  0  0  0  0  0  0
    2.9727   -6.0612    4.1384 H   0  0  0  0  0  0  0  0  0  0  0  0
    3.0754   -7.6631    2.3625 H   0  0  0  0  0  0  0  0  0  0  0  0
    2.0689   -7.1832    0.2500 H   0  0  0  0  0  0  0  0  0  0  0  0
    0.9531   -5.0974   -0.0947 H   0  0  0  0  0  0  0  0  0  0  0  0
    0.8436   -3.4888    1.6741 H   0  0  0  0  0  0  0  0  0  0  0  0
  1  2  2  0  0  0  0
  1  3  2  0  0  0  0
  1  4  1  0  0  0  0
  4  5  1  0  0  0  0
  5  6  1  0  0  0  0
  6  7  2  0  0  0  0
  7  8  1  0  0  0  0
  8  9  2  0  0  0  0
  9 10  1  0  0  0  0
 10 11  1  0  0  0  0
 11 12  2  0  0  0  0
 11 13  1  0  0  0  0
 13 14  1  0  0  0  0
 14 15  1  0  0  0  0
 15 16  1  0  0  0  0
 16 17  1  0  0  0  0
 17 18  1  0  0  0  0
 14 18  2  0  0  0  0
 16 19  2  0  0  0  0
 19 20  1  0  0  0  0
 20 21  2  0  0  0  0
 21 22  1  0  0  0  0
 22 23  1  0  0  0  0
 21 24  1  0  0  0  0
 24 15  2  0  0  0  0
  9 25  1  0  0  0  0
 25  5  2  0  0  0  0
  6 26  1  0  0  0  0
  1 27  1  0  0  0  0
 27 28  1  0  0  0  0
 28 29  2  0  0  0  0
 29 30  1  0  0  0  0
 30 31  2  0  0  0  0
 31 32  1  0  0  0  0
 32 27  2  0  0  0  0
  4 33  1  0  0  0  0
  7 34  1  0  0  0  0
  8 35  1  0  0  0  0
 10 36  1  0  0  0  0
 13 37  1  0  0  0  0
 13 38  1  0  0  0  0
 17 39  1  0  0  0  0
 18 40  1  0  0  0  0
 19 41  1  0  0  0  0
 20 42  1  0  0  0  0
 23 43  1  0  0  0  0
 23 44  1  0  0  0  0
 23 45  1  0  0  0  0
 24 46  1  0  0  0  0
 25 47  1  0  0  0  0
 26 48  1  0  0  0  0
 26 49  1  0  0  0  0
 26 50  1  0  0  0  0
 28 51  1  0  0  0  0
 29 52  1  0  0  0  0
 30 53  1  0  0  0  0
 31 54  1  0  0  0  0
 32 55  1  0  0  0  0
M  END
>  <result-rank>
21

>  <similarity>
0.911

>  <query-name>


>  <query-smiles>
S(=O)(=O)(Nc1cc2c(NN=C2C=3Nc4c(ccc(c4)C)C3)cc1)c5cc(F)ccc5

>  <source>
REALspace_2019-12

>  <similarity-descriptor>
0.967;1.000;0.898;0.576;0.981;1.000;1.000;0.995;0.083

>  <similarity-descriptor-smiles>
c1ccccc1;C1=CNcc1;c1cc(ccc1)O;NC(=O)C;c1ccccc1;S(=O)=O;N;C;C

>  <reaction-name>
s_22

>  <reagent1-name>
751982

>  <reagent1-smiles>
[R1*]Nc1cc(NS(=O)(=O)c2ccccc2)c(cc1)C

>  <reagent2-name>
736774

>  <reagent2-smiles>
[R1*]C(=O)CC=1c2c(NC1)ccc(OC)c2

$$$$
s_527a____283426____337220
          04022017313D 1   1.00000     0.00000     0
            
 52 55  0  0  0  0            999 V2000
    0.5810    7.1554   -0.5567 Cl  0  0  0  0  0  0  0  0  0  0  0  0
   -0.0047    5.5136   -0.9164 C   0  0  0  0  0  0  0  0  0  0  0  0
   -0.0058    4.5410    0.0773 C   0  0  0  0  0  0  0  0  0  0  0  0
    0.4581    4.8618    1.3584 N   0  0  0  0  0  0  0  0  0  0  0  0
    0.4614    3.7298    2.5312 S   0  0  0  0  0  0  0  0  0  0  0  0
   -0.6136    2.7993    2.3033 O   0  0  0  0  0  0  0  0  0  0  0  0
    0.2835    4.3645    3.8115 O   0  0  0  0  0  0  0  0  0  0  0  0
    1.9794    2.8786    2.5117 C   0  0  0  0  0  0  0  0  0  0  0  0
    3.1743    3.5917    2.5017 C   0  0  0  0  0  0  0  0  0  0  0  0
    3.1523    4.9407    2.5105 O   0  0  0  0  0  0  0  0  0  0  0  0
    4.3702    5.6708    2.5004 C   0  0  0  0  0  0  0  0  0  0  0  0
    4.3907    2.9162    2.4847 C   0  0  0  0  0  0  0  0  0  0  0  0
    4.4132    1.5249    2.4778 C   0  0  0  0  0  0  0  0  0  0  0  0
    3.2138    0.8209    2.4890 C   0  0  0  0  0  0  0  0  0  0  0  0
    3.2274   -0.5788    2.4829 N   0  0  0  0  0  0  0  0  0  0  0  0
    4.4203   -1.2521    2.4665 C   0  0  0  0  0  0  0  0  0  0  0  0
    5.3911   -0.7655    2.9771 O   0  0  0  0  0  0  0  0  0  0  0  0
    4.5100   -2.5533    1.8319 C   0  0  0  0  0  0  0  0  0  0  0  0
    5.6388   -3.3139    1.7538 N   0  0  0  0  0  0  0  0  0  0  0  0
    5.3240   -4.4599    1.0841 C   0  0  0  0  0  0  0  0  0  0  0  0
    3.9934   -4.4292    0.7397 C   0  0  0  0  0  0  0  0  0  0  0  0
    3.4592   -5.5099    0.0430 C   0  0  0  0  0  0  0  0  0  0  0  0
    4.2227   -6.6194   -0.3090 C   0  0  0  0  0  0  0  0  0  0  0  0
    5.5659   -6.6326    0.0526 C   0  0  0  0  0  0  0  0  0  0  0  0
    6.1103   -5.5560    0.7448 C   0  0  0  0  0  0  0  0  0  0  0  0
    3.6481   -7.8066   -1.0647 C   0  0  0  0  0  0  0  0  0  0  0  0
    3.4786   -3.2001    1.2176 C   0  0  0  0  0  0  0  0  0  0  0  0
    1.9931    1.4877    2.5057 C   0  0  0  0  0  0  0  0  0  0  0  0
   -0.4616    3.2552   -0.1954 C   0  0  0  0  0  0  0  0  0  0  0  0
   -0.9184    2.9495   -1.4728 C   0  0  0  0  0  0  0  0  0  0  0  0
   -0.9143    3.9247   -2.4647 C   0  0  0  0  0  0  0  0  0  0  0  0
   -0.4586    5.2114   -2.1965 C   0  0  0  0  0  0  0  0  0  0  0  0
    0.7875    5.7855    1.5541 H   0  0  0  0  0  0  0  0  0  0  0  0
    4.1715    6.6508    2.5091 H   0  0  0  0  0  0  0  0  0  0  0  0
    4.9083    5.4327    3.3090 H   0  0  0  0  0  0  0  0  0  0  0  0
    4.8885    5.4430    1.6762 H   0  0  0  0  0  0  0  0  0  0  0  0
    5.2483    3.4304    2.4774 H   0  0  0  0  0  0  0  0  0  0  0  0
    5.2849    1.0351    2.4648 H   0  0  0  0  0  0  0  0  0  0  0  0
    2.3663   -1.0872    2.4906 H   0  0  0  0  0  0  0  0  0  0  0  0
    6.5372   -3.0745    2.1218 H   0  0  0  0  0  0  0  0  0  0  0  0
    2.4929   -5.4883   -0.2136 H   0  0  0  0  0  0  0  0  0  0  0  0
    6.1400   -7.4161   -0.1851 H   0  0  0  0  0  0  0  0  0  0  0  0
    7.0768   -5.5701    1.0011 H   0  0  0  0  0  0  0  0  0  0  0  0
    4.3661   -8.4868   -1.2125 H   0  0  0  0  0  0  0  0  0  0  0  0
    2.9072   -8.2144   -0.5311 H   0  0  0  0  0  0  0  0  0  0  0  0
    3.2931   -7.4995   -1.9476 H   0  0  0  0  0  0  0  0  0  0  0  0
    2.5395   -2.8699    1.1231 H   0  0  0  0  0  0  0  0  0  0  0  0
    1.1356    0.9733    2.5134 H   0  0  0  0  0  0  0  0  0  0  0  0
   -0.4607    2.5572    0.5207 H   0  0  0  0  0  0  0  0  0  0  0  0
   -1.2498    2.0286   -1.6782 H   0  0  0  0  0  0  0  0  0  0  0  0
   -1.2428    3.6982   -3.3816 H   0  0  0  0  0  0  0  0  0  0  0  0
   -0.4573    5.9089   -2.9131 H   0  0  0  0  0  0  0  0  0  0  0  0
  1  2  1  0  0  0  0
  2  3  1  0  0  0  0
  3  4  1  0  0  0  0
  4  5  1  0  0  0  0
  5  6  2  0  0  0  0
  5  7  2  0  0  0  0
  5  8  1  0  0  0  0
  8  9  1  0  0  0  0
  9 10  1  0  0  0  0
 10 11  1  0  0  0  0
  9 12  2  0  0  0  0
 12 13  1  0  0  0  0
 13 14  2  0  0  0  0
 14 15  1  0  0  0  0
 15 16  1  0  0  0  0
 16 17  2  0  0  0  0
 16 18  1  0  0  0  0
 18 19  1  0  0  0  0
 19 20  1  0  0  0  0
 20 21  1  0  0  0  0
 21 22  2  0  0  0  0
 22 23  1  0  0  0  0
 23 24  2  0  0  0  0
 24 25  1  0  0  0  0
 25 20  2  0  0  0  0
 23 26  1  0  0  0  0
 21 27  1  0  0  0  0
 18 27  2  0  0  0  0
 14 28  1  0  0  0  0
 28  8  2  0  0  0  0
  3 29  2  0  0  0  0
 29 30  1  0  0  0  0
 30 31  2  0  0  0  0
 31 32  1  0  0  0  0
 32  2  2  0  0  0  0
  4 33  1  0  0  0  0
 11 34  1  0  0  0  0
 11 35  1  0  0  0  0
 11 36  1  0  0  0  0
 12 37  1  0  0  0  0
 13 38  1  0  0  0  0
 15 39  1  0  0  0  0
 19 40  1  0  0  0  0
 22 41  1  0  0  0  0
 24 42  1  0  0  0  0
 25 43  1  0  0  0  0
 26 44  1  0  0  0  0
 26 45  1  0  0  0  0
 26 46  1  0  0  0  0
 27 47  1  0  0  0  0
 28 48  1  0  0  0  0
 29 49  1  0  0  0  0
 30 50  1  0  0  0  0
 31 51  1  0  0  0  0
 32 52  1  0  0  0  0
M  END
>  <result-rank>
22

>  <similarity>
0.911

>  <query-name>


>  <query-smiles>
S(=O)(=O)(Nc1cc2c(NN=C2C=3Nc4c(ccc(c4)C)C3)cc1)c5cc(F)ccc5

>  <source>
REALspace_2019-12

>  <similarity-descriptor>
0.984;1.000;1.000;0.602;0.915;0.888;0.915;1.000;0.182

>  <similarity-descriptor-smiles>
Clc1ccccc1;C1=CccN1;c1ccccc1;NC=O;c1ccccc1;NS(=O)=O;c1ccccc1;C;O.C

>  <reaction-name>
s_527a

>  <reagent1-name>
283426

>  <reagent1-smiles>
[R1*]Nc1cc(S(=O)(=O)Nc2c(Cl)cccc2)c(OC)cc1

>  <reagent2-name>
337220

>  <reagent2-smiles>
[R1*]C(=O)C=1Nc2c(cc(cc2)C)C1

$$$$
s_270196____8769560____8782586
          04022017313D 1   1.00000     0.00000     0
            
 55 59  0  0  0  0            999 V2000
    2.8645   -4.6286    0.9211 S   0  0  0  0  0  0  0  0  0  0  0  0
    1.6745   -5.4212    0.7504 O   0  0  0  0  0  0  0  0  0  0  0  0
    3.1519   -3.9247   -0.3018 O   0  0  0  0  0  0  0  0  0  0  0  0
    2.6336   -3.5542    2.1250 N   0  0  0  0  0  0  0  0  0  0  0  0
    3.5105   -2.4729    2.2762 C   0  0  0  0  0  0  0  0  0  0  0  0
    3.0041   -1.1777    2.3015 C   0  0  0  0  0  0  0  0  0  0  0  0
    3.8847   -0.1115    2.4528 C   0  0  0  0  0  0  0  0  0  0  0  0
    5.2529   -0.3273    2.5768 C   0  0  0  0  0  0  0  0  0  0  0  0
    5.7373   -1.6308    2.5489 C   0  0  0  0  0  0  0  0  0  0  0  0
    4.8752   -2.7119    2.3990 C   0  0  0  0  0  0  0  0  0  0  0  0
    3.3614    1.2404    2.4813 C   0  0  0  0  0  0  0  0  0  0  0  0
    4.0728    2.3381    2.4784 N   0  0  0  0  0  0  0  0  0  0  0  0
    3.2833    3.3258    2.5129 O   0  0  0  0  0  0  0  0  0  0  0  0
    2.0455    2.8984    2.5387 C   0  0  0  0  0  0  0  0  0  0  0  0
    2.0479    1.5879    2.5206 N   0  0  0  0  0  0  0  0  0  0  0  0
    0.8058    3.7775    2.5836 C   0  0  0  0  0  0  0  0  0  0  0  0
    0.3556    4.0913    1.1661 C   0  0  0  0  0  0  0  0  0  0  0  0
   -0.8829    4.9697    1.2109 C   0  0  0  0  0  0  0  0  0  0  0  0
   -0.8776    6.3838    1.2313 C   0  0  0  0  0  0  0  0  0  0  0  0
   -2.2111    6.7309    1.2661 C   0  0  0  0  0  0  0  0  0  0  0  0
   -2.9747    5.5987    1.2758 N   0  0  0  0  0  0  0  0  0  0  0  0
   -2.1629    4.5045    1.2371 C   0  0  0  0  0  0  0  0  0  0  0  0
   -2.5803    8.0721    1.2874 C   0  0  0  0  0  0  0  0  0  0  0  0
   -1.6271    9.0846    1.2765 C   0  0  0  0  0  0  0  0  0  0  0  0
   -0.2754    8.7551    1.2430 C   0  0  0  0  0  0  0  0  0  0  0  0
    0.0717    7.4052    1.2205 C   0  0  0  0  0  0  0  0  0  0  0  0
    0.7667    9.8669    1.2352 C   0  0  0  0  0  0  0  0  0  0  0  0
    4.2014   -5.6679    1.3199 C   0  0  0  0  0  0  0  0  0  0  0  0
    4.0008   -6.7660    2.1501 C   0  0  0  0  0  0  0  0  0  0  0  0
    5.0786   -7.5892    2.4608 C   0  0  0  0  0  0  0  0  0  0  0  0
    6.3428   -7.3173    1.9486 C   0  0  0  0  0  0  0  0  0  0  0  0
    6.5327   -6.2162    1.1201 C   0  0  0  0  0  0  0  0  0  0  0  0
    5.4622   -5.3868    0.8027 C   0  0  0  0  0  0  0  0  0  0  0  0
    1.8657   -3.6672    2.7555 H   0  0  0  0  0  0  0  0  0  0  0  0
    2.0214   -1.0154    2.2121 H   0  0  0  0  0  0  0  0  0  0  0  0
    5.8800    0.4442    2.6845 H   0  0  0  0  0  0  0  0  0  0  0  0
    6.7200   -1.7932    2.6380 H   0  0  0  0  0  0  0  0  0  0  0  0
    5.2308   -3.6463    2.3799 H   0  0  0  0  0  0  0  0  0  0  0  0
    1.0185    4.6295    3.0620 H   0  0  0  0  0  0  0  0  0  0  0  0
    0.0740    3.2974    3.0671 H   0  0  0  0  0  0  0  0  0  0  0  0
    1.0875    4.5714    0.6825 H   0  0  0  0  0  0  0  0  0  0  0  0
    0.1430    3.2393    0.6876 H   0  0  0  0  0  0  0  0  0  0  0  0
   -3.9739    5.5760    1.3064 H   0  0  0  0  0  0  0  0  0  0  0  0
   -2.4508    3.5469    1.2295 H   0  0  0  0  0  0  0  0  0  0  0  0
   -3.5506    8.3129    1.3111 H   0  0  0  0  0  0  0  0  0  0  0  0
   -1.9111   10.0433    1.2926 H   0  0  0  0  0  0  0  0  0  0  0  0
    1.0407    7.1593    1.1957 H   0  0  0  0  0  0  0  0  0  0  0  0
    0.3070   10.7547    1.2546 H   0  0  0  0  0  0  0  0  0  0  0  0
    1.3547    9.7783    2.0392 H   0  0  0  0  0  0  0  0  0  0  0  0
    1.3222    9.7972    0.4067 H   0  0  0  0  0  0  0  0  0  0  0  0
    3.0923   -6.9615    2.5193 H   0  0  0  0  0  0  0  0  0  0  0  0
    4.9435   -8.3812    3.0562 H   0  0  0  0  0  0  0  0  0  0  0  0
    7.1138   -7.9123    2.1755 H   0  0  0  0  0  0  0  0  0  0  0  0
    7.4415   -6.0204    0.7516 H   0  0  0  0  0  0  0  0  0  0  0  0
    5.5976   -4.5947    0.2075 H   0  0  0  0  0  0  0  0  0  0  0  0
  1  2  2  0  0  0  0
  1  3  2  0  0  0  0
  1  4  1  0  0  0  0
  4  5  1  0  0  0  0
  5  6  1  0  0  0  0
  6  7  2  0  0  0  0
  7  8  1  0  0  0  0
  8  9  2  0  0  0  0
  9 10  1  0  0  0  0
 10  5  2  0  0  0  0
  7 11  1  0  0  0  0
 11 12  2  0  0  0  0
 12 13  1  0  0  0  0
 13 14  1  0  0  0  0
 14 15  2  0  0  0  0
 15 11  1  0  0  0  0
 14 16  1  0  0  0  0
 16 17  1  0  0  0  0
 17 18  1  0  0  0  0
 18 19  1  0  0  0  0
 19 20  1  0  0  0  0
 20 21  1  0  0  0  0
 21 22  1  0  0  0  0
 18 22  2  0  0  0  0
 20 23  2  0  0  0  0
 23 24  1  0  0  0  0
 24 25  2  0  0  0  0
 25 26  1  0  0  0  0
 26 19  2  0  0  0  0
 25 27  1  0  0  0  0
  1 28  1  0  0  0  0
 28 29  1  0  0  0  0
 29 30  2  0  0  0  0
 30 31  1  0  0  0  0
 31 32  2  0  0  0  0
 32 33  1  0  0  0  0
 33 28  2  0  0  0  0
  4 34  1  0  0  0  0
  6 35  1  0  0  0  0
  8 36  1  0  0  0  0
  9 37  1  0  0  0  0
 10 38  1  0  0  0  0
 16 39  1  0  0  0  0
 16 40  1  0  0  0  0
 17 41  1  0  0  0  0
 17 42  1  0  0  0  0
 21 43  1  0  0  0  0
 22 44  1  0  0  0  0
 23 45  1  0  0  0  0
 24 46  1  0  0  0  0
 26 47  1  0  0  0  0
 27 48  1  0  0  0  0
 27 49  1  0  0  0  0
 27 50  1  0  0  0  0
 29 51  1  0  0  0  0
 30 52  1  0  0  0  0
 31 53  1  0  0  0  0
 32 54  1  0  0  0  0
 33 55  1  0  0  0  0
M  END
>  <result-rank>
23

>  <similarity>
0.911

>  <query-name>


>  <query-smiles>
S(=O)(=O)(Nc1cc2c(NN=C2C=3Nc4c(ccc(c4)C)C3)cc1)c5cc(F)ccc5

>  <source>
REALspace_2019-12

>  <similarity-descriptor>
0.967;0.836;1.000;0.680;0.938;1.000;1.000;1.000;0.0

>  <similarity-descriptor-smiles>
c1ccccc1;CCC1=CNcc1;c1ccccc1;C=1N=CON1;c1ccccc1;S(=O)=O;N;C;

>  <reaction-name>
s_270196

>  <reagent1-name>
8769560

>  <reagent1-smiles>
[R1*]=NC(=NO[R2*])c1cc(NS(=O)(=O)c2ccccc2)ccc1

>  <reagent2-name>
8782586

>  <reagent2-smiles>
[R1*]C([R2*])CCC=1c2c(NC1)ccc(c2)C

$$$$
s_527a____160558____157862
          04022017313D 1   1.00000     0.00000     0
            
 51 55  0  0  0  0            999 V2000
    0.4299    3.7470    2.5290 Cl  0  0  0  0  0  0  0  0  0  0  0  0
    1.9828    2.8757    2.5094 C   0  0  0  0  0  0  0  0  0  0  0  0
    3.1792    3.5864    2.5020 C   0  0  0  0  0  0  0  0  0  0  0  0
    3.1519    4.9853    2.5098 N   0  0  0  0  0  0  0  0  0  0  0  0
    4.0533    5.8121    3.5872 S   0  0  0  0  0  0  0  0  0  0  0  0
    5.4073    5.3228    3.5561 O   0  0  0  0  0  0  0  0  0  0  0  0
    4.0409    7.2119    3.2497 O   0  0  0  0  0  0  0  0  0  0  0  0
    3.3946    5.5944    5.1826 C   0  0  0  0  0  0  0  0  0  0  0  0
    3.8362    4.5374    5.9714 C   0  0  0  0  0  0  0  0  0  0  0  0
    3.3055    4.3682    7.2457 C   0  0  0  0  0  0  0  0  0  0  0  0
    2.3428    5.2545    7.7169 C   0  0  0  0  0  0  0  0  0  0  0  0
    1.8398    5.0863    8.9368 F   0  0  0  0  0  0  0  0  0  0  0  0
    1.9055    6.3089    6.9232 C   0  0  0  0  0  0  0  0  0  0  0  0
    2.4319    6.4837    5.6479 C   0  0  0  0  0  0  0  0  0  0  0  0
    4.3966    2.9151    2.4867 C   0  0  0  0  0  0  0  0  0  0  0  0
    4.3941    1.5247    2.4794 C   0  0  0  0  0  0  0  0  0  0  0  0
    3.2015    0.8092    2.4872 C   0  0  0  0  0  0  0  0  0  0  0  0
    1.9858    1.4848    2.5024 C   0  0  0  0  0  0  0  0  0  0  0  0
    5.6615    0.8207    2.4636 C   0  0  0  0  0  0  0  0  0  0  0  0
    6.6475    1.3504    2.8962 O   0  0  0  0  0  0  0  0  0  0  0  0
    5.7333   -0.4493    1.9549 N   0  0  0  0  0  0  0  0  0  0  0  0
    6.8536   -1.2445    2.2154 C   0  0  0  0  0  0  0  0  0  0  0  0
    6.9279   -2.5598    3.2930 S   0  0  0  0  0  0  0  0  0  0  0  0
    8.5639   -2.9579    3.0375 C   0  0  0  0  0  0  0  0  0  0  0  0
    8.9755   -2.0407    2.1241 C   0  0  0  0  0  0  0  0  0  0  0  0
    8.0493   -1.1278    1.6946 N   0  0  0  0  0  0  0  0  0  0  0  0
   10.3462   -2.0913    1.6806 C   0  0  0  0  0  0  0  0  0  0  0  0
   10.7712   -2.4066    0.3690 C   0  0  0  0  0  0  0  0  0  0  0  0
   12.1464   -2.3385    0.4133 C   0  0  0  0  0  0  0  0  0  0  0  0
   12.5315   -1.9919    1.6806 N   0  0  0  0  0  0  0  0  0  0  0  0
   11.4299   -1.8399    2.4672 C   0  0  0  0  0  0  0  0  0  0  0  0
   12.8978   -2.6035   -0.7263 C   0  0  0  0  0  0  0  0  0  0  0  0
   12.2807   -2.9442   -1.9252 C   0  0  0  0  0  0  0  0  0  0  0  0
   10.8926   -3.0188   -1.9790 C   0  0  0  0  0  0  0  0  0  0  0  0
   10.1549   -2.7495   -0.8314 C   0  0  0  0  0  0  0  0  0  0  0  0
    2.5794    5.4779    1.8544 H   0  0  0  0  0  0  0  0  0  0  0  0
    4.5291    3.9048    5.6254 H   0  0  0  0  0  0  0  0  0  0  0  0
    3.6151    3.6114    7.8214 H   0  0  0  0  0  0  0  0  0  0  0  0
    1.2126    6.9415    7.2693 H   0  0  0  0  0  0  0  0  0  0  0  0
    2.1217    7.2402    5.0720 H   0  0  0  0  0  0  0  0  0  0  0  0
    5.2581    3.4228    2.4809 H   0  0  0  0  0  0  0  0  0  0  0  0
    3.2180   -0.1907    2.4817 H   0  0  0  0  0  0  0  0  0  0  0  0
    1.1245    0.9768    2.5084 H   0  0  0  0  0  0  0  0  0  0  0  0
    4.9846   -0.8077    1.3972 H   0  0  0  0  0  0  0  0  0  0  0  0
    9.0953   -3.6924    3.4595 H   0  0  0  0  0  0  0  0  0  0  0  0
   13.4769   -1.8690    1.9826 H   0  0  0  0  0  0  0  0  0  0  0  0
   11.4187   -1.5917    3.4358 H   0  0  0  0  0  0  0  0  0  0  0  0
   13.8954   -2.5484   -0.6832 H   0  0  0  0  0  0  0  0  0  0  0  0
   12.8289   -3.1334   -2.7399 H   0  0  0  0  0  0  0  0  0  0  0  0
   10.4312   -3.2631   -2.8319 H   0  0  0  0  0  0  0  0  0  0  0  0
    9.1570   -2.8034   -0.8693 H   0  0  0  0  0  0  0  0  0  0  0  0
  1  2  1  0  0  0  0
  2  3  1  0  0  0  0
  3  4  1  0  0  0  0
  4  5  1  0  0  0  0
  5  6  2  0  0  0  0
  5  7  2  0  0  0  0
  5  8  1  0  0  0  0
  8  9  1  0  0  0  0
  9 10  2  0  0  0  0
 10 11  1  0  0  0  0
 11 12  1  0  0  0  0
 11 13  2  0  0  0  0
 13 14  1  0  0  0  0
 14  8  2  0  0  0  0
  3 15  2  0  0  0  0
 15 16  1  0  0  0  0
 16 17  2  0  0  0  0
 17 18  1  0  0  0  0
 18  2  2  0  0  0  0
 16 19  1  0  0  0  0
 19 20  2  0  0  0  0
 19 21  1  0  0  0  0
 21 22  1  0  0  0  0
 22 23  1  0  0  0  0
 23 24  1  0  0  0  0
 24 25  2  0  0  0  0
 25 26  1  0  0  0  0
 22 26  2  0  0  0  0
 25 27  1  0  0  0  0
 27 28  1  0  0  0  0
 28 29  1  0  0  0  0
 29 30  1  0  0  0  0
 30 31  1  0  0  0  0
 27 31  2  0  0  0  0
 29 32  2  0  0  0  0
 32 33  1  0  0  0  0
 33 34  2  0  0  0  0
 34 35  1  0  0  0  0
 35 28  2  0  0  0  0
  4 36  1  0  0  0  0
  9 37  1  0  0  0  0
 10 38  1  0  0  0  0
 13 39  1  0  0  0  0
 14 40  1  0  0  0  0
 15 41  1  0  0  0  0
 17 42  1  0  0  0  0
 18 43  1  0  0  0  0
 21 44  1  0  0  0  0
 24 45  1  0  0  0  0
 30 46  1  0  0  0  0
 31 47  1  0  0  0  0
 32 48  1  0  0  0  0
 33 49  1  0  0  0  0
 34 50  1  0  0  0  0
 35 51  1  0  0  0  0
M  END
>  <result-rank>
24

>  <similarity>
0.911

>  <query-name>


>  <query-smiles>
S(=O)(=O)(Nc1cc2c(NN=C2C=3Nc4c(ccc(c4)C)C3)cc1)c5cc(F)ccc5

>  <source>
REALspace_2019-12

>  <similarity-descriptor>
1.000;1.000;0.953;0.638;0.948;1.000;1.000;0.0;0.0

>  <similarity-descriptor-smiles>
c1ccc(cc1)F;C1=CNcc1;c1ccccc1;C(=O)NC1=NC=CS1;Clc1ccccc1;S(=O)=O;N;;

>  <reaction-name>
s_527a

>  <reagent1-name>
160558

>  <reagent1-smiles>
[R1*]NC=1SC=C(N1)C=2c3c(NC2)cccc3

>  <reagent2-name>
157862

>  <reagent2-smiles>
[R1*]C(=O)c1cc(NS(=O)(=O)c2ccc(F)cc2)c(Cl)cc1

$$$$
s_22____7963384____59922
          04022017313D 1   1.00000     0.00000     0
            
 50 53  0  0  0  0            999 V2000
    6.9947    0.9836    0.9934 Cl  0  0  0  0  0  0  0  0  0  0  0  0
    5.2140    0.9907    0.9960 C   0  0  0  0  0  0  0  0  0  0  0  0
    4.5132   -0.1209    0.5379 C   0  0  0  0  0  0  0  0  0  0  0  0
    5.2165   -1.2392    0.0770 N   0  0  0  0  0  0  0  0  0  0  0  0
    4.8416   -1.9003   -1.3650 S   0  0  0  0  0  0  0  0  0  0  0  0
    5.5285   -3.1575   -1.5099 O   0  0  0  0  0  0  0  0  0  0  0  0
    3.4201   -2.1188   -1.4379 O   0  0  0  0  0  0  0  0  0  0  0  0
    5.3288   -0.8229   -2.6411 C   0  0  0  0  0  0  0  0  0  0  0  0
    6.6053   -0.9304   -3.1831 C   0  0  0  0  0  0  0  0  0  0  0  0
    6.9892   -0.0659   -4.2025 C   0  0  0  0  0  0  0  0  0  0  0  0
    6.0963    0.8933   -4.6685 C   0  0  0  0  0  0  0  0  0  0  0  0
    6.4706    1.7167   -5.6439 F   0  0  0  0  0  0  0  0  0  0  0  0
    4.8219    0.9956   -4.1222 C   0  0  0  0  0  0  0  0  0  0  0  0
    4.4316    0.1344   -3.1024 C   0  0  0  0  0  0  0  0  0  0  0  0
    3.1230   -0.1247    0.5361 C   0  0  0  0  0  0  0  0  0  0  0  0
    2.4499    1.0000    1.0000 C   0  0  0  0  0  0  0  0  0  0  0  0
    3.1451    2.1136    1.4593 C   0  0  0  0  0  0  0  0  0  0  0  0
    4.5359    2.1133    1.4594 C   0  0  0  0  0  0  0  0  0  0  0  0
    1.0000    1.0000    1.0000 C   0  0  0  0  0  0  0  0  0  0  0  0
    0.4000   -0.0383    0.9563 O   0  0  0  0  0  0  0  0  0  0  0  0
    0.3150    2.1854    1.0499 N   0  0  0  0  0  0  0  0  0  0  0  0
   -1.1550    2.1854    1.0499 C   0  0  0  0  0  0  0  0  0  0  0  0
   -1.6618    2.1251    2.4822 C   0  0  0  0  0  0  0  0  0  0  0  0
   -1.9135    3.1683    3.2386 N   0  0  0  0  0  0  0  0  0  0  0  0
   -2.3490    2.7167    4.4513 C   0  0  0  0  0  0  0  0  0  0  0  0
   -2.3558    1.3432    4.4125 C   0  0  0  0  0  0  0  0  0  0  0  0
   -1.9224    0.9789    3.1718 N   0  0  0  0  0  0  0  0  0  0  0  0
   -2.7677    0.6439    5.5425 C   0  0  0  0  0  0  0  0  0  0  0  0
   -3.1688    1.3067    6.6982 C   0  0  0  0  0  0  0  0  0  0  0  0
   -3.1585    2.6974    6.7285 C   0  0  0  0  0  0  0  0  0  0  0  0
   -2.7456    3.3955    5.5982 C   0  0  0  0  0  0  0  0  0  0  0  0
   -2.7275    4.9153    5.6094 C   0  0  0  0  0  0  0  0  0  0  0  0
    5.9491   -1.6330    0.6322 H   0  0  0  0  0  0  0  0  0  0  0  0
    7.2412   -1.6230   -2.8428 H   0  0  0  0  0  0  0  0  0  0  0  0
    7.9046   -0.1336   -4.5993 H   0  0  0  0  0  0  0  0  0  0  0  0
    4.1860    1.6883   -4.4626 H   0  0  0  0  0  0  0  0  0  0  0  0
    3.5163    0.2027   -2.7053 H   0  0  0  0  0  0  0  0  0  0  0  0
    2.6164   -0.9217    0.2073 H   0  0  0  0  0  0  0  0  0  0  0  0
    2.6451    2.9143    1.7895 H   0  0  0  0  0  0  0  0  0  0  0  0
    5.0422    2.9104    1.7885 H   0  0  0  0  0  0  0  0  0  0  0  0
    0.8150    3.0507    1.0864 H   0  0  0  0  0  0  0  0  0  0  0  0
   -1.4883    1.3895    0.5446 H   0  0  0  0  0  0  0  0  0  0  0  0
   -1.4883    3.0210    0.6133 H   0  0  0  0  0  0  0  0  0  0  0  0
   -1.8156    0.0447    2.8315 H   0  0  0  0  0  0  0  0  0  0  0  0
   -2.7757   -0.3559    5.5236 H   0  0  0  0  0  0  0  0  0  0  0  0
   -3.4621    0.7874    7.5009 H   0  0  0  0  0  0  0  0  0  0  0  0
   -3.4440    3.1885    7.5515 H   0  0  0  0  0  0  0  0  0  0  0  0
   -3.0385    5.2459    6.5005 H   0  0  0  0  0  0  0  0  0  0  0  0
   -1.7965    5.2388    5.4403 H   0  0  0  0  0  0  0  0  0  0  0  0
   -3.3356    5.2612    4.8948 H   0  0  0  0  0  0  0  0  0  0  0  0
  1  2  1  0  0  0  0
  2  3  1  0  0  0  0
  3  4  1  0  0  0  0
  4  5  1  0  0  0  0
  5  6  2  0  0  0  0
  5  7  2  0  0  0  0
  5  8  1  0  0  0  0
  8  9  1  0  0  0  0
  9 10  2  0  0  0  0
 10 11  1  0  0  0  0
 11 12  1  0  0  0  0
 11 13  2  0  0  0  0
 13 14  1  0  0  0  0
 14  8  2  0  0  0  0
  3 15  2  0  0  0  0
 15 16  1  0  0  0  0
 16 17  2  0  0  0  0
 17 18  1  0  0  0  0
 18  2  2  0  0  0  0
 16 19  1  0  0  0  0
 19 20  2  0  0  0  0
 19 21  1  0  0  0  0
 21 22  1  0  0  0  0
 22 23  1  0  0  0  0
 23 24  2  0  0  0  0
 24 25  1  0  0  0  0
 25 26  1  0  0  0  0
 26 27  1  0  0  0  0
 27 23  1  0  0  0  0
 26 28  2  0  0  0  0
 28 29  1  0  0  0  0
 29 30  2  0  0  0  0
 30 31  1  0  0  0  0
 31 25  2  0  0  0  0
 31 32  1  0  0  0  0
  4 33  1  0  0  0  0
  9 34  1  0  0  0  0
 10 35  1  0  0  0  0
 13 36  1  0  0  0  0
 14 37  1  0  0  0  0
 15 38  1  0  0  0  0
 17 39  1  0  0  0  0
 18 40  1  0  0  0  0
 21 41  1  0  0  0  0
 22 42  1  0  0  0  0
 22 43  1  0  0  0  0
 27 44  1  0  0  0  0
 28 45  1  0  0  0  0
 29 46  1  0  0  0  0
 30 47  1  0  0  0  0
 32 48  1  0  0  0  0
 32 49  1  0  0  0  0
 32 50  1  0  0  0  0
M  END
>  <result-rank>
25

>  <similarity>
0.910

>  <query-name>


>  <query-smiles>
S(=O)(=O)(Nc1cc2c(NN=C2C=3Nc4c(ccc(c4)C)C3)cc1)c5cc(F)ccc5

>  <source>
REALspace_2019-12

>  <similarity-descriptor>
1.000;0.763;0.999;0.603;0.948;1.000;1.000;1.000;0.0

>  <similarity-descriptor-smiles>
c1ccc(cc1)F;CC=1NccN1;c1ccccc1;C(=O)N;Clc1ccccc1;S(=O)=O;N;C;

>  <reaction-name>
s_22

>  <reagent1-name>
7963384

>  <reagent1-smiles>
[R1*]NCC1=Nc2c(N1)cccc2C

>  <reagent2-name>
59922

>  <reagent2-smiles>
[R1*]C(=O)c1cc(NS(=O)(=O)c2ccc(F)cc2)c(Cl)cc1

$$$$
m_276096____13706966____13711292
          04022017313D 1   1.00000     0.00000     0
            
 58 62  0  0  0  0            999 V2000
    0.4648    3.7275    2.5286 S   0  0  0  0  0  0  0  0  0  0  0  0
   -0.5215    2.9336    3.2145 O   0  0  0  0  0  0  0  0  0  0  0  0
    0.6266    4.9857    3.2099 O   0  0  0  0  0  0  0  0  0  0  0  0
   -0.0243    3.9976    0.9974 N   0  0  0  0  0  0  0  0  0  0  0  0
    0.9826    4.8080    0.2972 C   0  0  0  0  0  0  0  0  0  0  0  0
    0.5267    5.0599   -1.1302 C   0  0  0  0  0  0  0  0  0  0  0  0
   -0.2420    6.1864   -1.4041 C   0  0  0  0  0  0  0  0  0  0  0  0
   -0.6575    6.4155   -2.7111 C   0  0  0  0  0  0  0  0  0  0  0  0
   -1.3940    7.4857   -2.9945 F   0  0  0  0  0  0  0  0  0  0  0  0
   -0.3105    5.5323   -3.7283 C   0  0  0  0  0  0  0  0  0  0  0  0
    0.4580    4.4082   -3.4416 C   0  0  0  0  0  0  0  0  0  0  0  0
    0.8807    4.1686   -2.1382 C   0  0  0  0  0  0  0  0  0  0  0  0
    1.9834    2.8778    2.5111 C   0  0  0  0  0  0  0  0  0  0  0  0
    3.1753    3.5954    2.5018 C   0  0  0  0  0  0  0  0  0  0  0  0
    4.3816    2.9033    2.4878 C   0  0  0  0  0  0  0  0  0  0  0  0
    4.4082    1.5127    2.4838 C   0  0  0  0  0  0  0  0  0  0  0  0
    3.2052    0.8142    2.4933 C   0  0  0  0  0  0  0  0  0  0  0  0
    1.9876    1.4868    2.5069 C   0  0  0  0  0  0  0  0  0  0  0  0
    5.6831    3.6886    2.4782 C   0  0  0  0  0  0  0  0  0  0  0  0
    6.1159    3.9367    3.8610 N   0  0  0  0  0  0  0  0  0  0  0  0
    7.2954    4.6459    4.1078 C   0  0  0  0  0  0  0  0  0  0  0  0
    8.8477    4.2530    3.5309 S   0  0  0  0  0  0  0  0  0  0  0  0
    9.6823    5.5510    4.2514 C   0  0  0  0  0  0  0  0  0  0  0  0
    8.7076    6.2281    4.9121 C   0  0  0  0  0  0  0  0  0  0  0  0
    7.4345    5.7304    4.8283 N   0  0  0  0  0  0  0  0  0  0  0  0
    9.0837    7.4151    5.6554 C   0  0  0  0  0  0  0  0  0  0  0  0
    9.7617    7.4455    6.8992 C   0  0  0  0  0  0  0  0  0  0  0  0
    9.8865    8.7895    7.1917 C   0  0  0  0  0  0  0  0  0  0  0  0
    9.3119    9.5077    6.1797 N   0  0  0  0  0  0  0  0  0  0  0  0
    8.8132    8.6777    5.2255 C   0  0  0  0  0  0  0  0  0  0  0  0
   10.5050    9.1809    8.3750 C   0  0  0  0  0  0  0  0  0  0  0  0
   11.0033    8.2388    9.2676 C   0  0  0  0  0  0  0  0  0  0  0  0
   10.8799    6.8829    8.9865 C   0  0  0  0  0  0  0  0  0  0  0  0
   10.2578    6.5020    7.8022 C   0  0  0  0  0  0  0  0  0  0  0  0
   10.1496    5.0060    7.5518 C   0  0  0  0  0  0  0  0  0  0  0  0
   -0.8969    4.4859    1.0074 H   0  0  0  0  0  0  0  0  0  0  0  0
    1.8553    4.3198    0.2871 H   0  0  0  0  0  0  0  0  0  0  0  0
    1.0950    5.6818    0.7703 H   0  0  0  0  0  0  0  0  0  0  0  0
   -0.4919    6.8211   -0.6728 H   0  0  0  0  0  0  0  0  0  0  0  0
   -0.6133    5.7052   -4.6655 H   0  0  0  0  0  0  0  0  0  0  0  0
    0.7065    3.7727   -4.1726 H   0  0  0  0  0  0  0  0  0  0  0  0
    1.4341    3.3628   -1.9275 H   0  0  0  0  0  0  0  0  0  0  0  0
    3.1648    4.5954    2.5052 H   0  0  0  0  0  0  0  0  0  0  0  0
    5.2795    1.0220    2.4742 H   0  0  0  0  0  0  0  0  0  0  0  0
    3.2159   -0.1857    2.4903 H   0  0  0  0  0  0  0  0  0  0  0  0
    1.1271    0.9773    2.5135 H   0  0  0  0  0  0  0  0  0  0  0  0
    6.3858    3.1634    1.9981 H   0  0  0  0  0  0  0  0  0  0  0  0
    5.5423    4.5616    2.0113 H   0  0  0  0  0  0  0  0  0  0  0  0
    5.5668    3.5982    4.6251 H   0  0  0  0  0  0  0  0  0  0  0  0
   10.6580    5.7641    4.2001 H   0  0  0  0  0  0  0  0  0  0  0  0
    9.2650   10.5060    6.1462 H   0  0  0  0  0  0  0  0  0  0  0  0
    8.3445    8.9405    4.3822 H   0  0  0  0  0  0  0  0  0  0  0  0
   10.5923   10.1544    8.5865 H   0  0  0  0  0  0  0  0  0  0  0  0
   11.4501    8.5362   10.1114 H   0  0  0  0  0  0  0  0  0  0  0  0
   11.2312    6.1957    9.6224 H   0  0  0  0  0  0  0  0  0  0  0  0
   10.5637    4.5096    8.3147 H   0  0  0  0  0  0  0  0  0  0  0  0
    9.1861    4.7503    7.4714 H   0  0  0  0  0  0  0  0  0  0  0  0
   10.6277    4.7744    6.7046 H   0  0  0  0  0  0  0  0  0  0  0  0
  1  2  2  0  0  0  0
  1  3  2  0  0  0  0
  1  4  1  0  0  0  0
  4  5  1  0  0  0  0
  5  6  1  0  0  0  0
  6  7  1  0  0  0  0
  7  8  2  0  0  0  0
  8  9  1  0  0  0  0
  8 10  1  0  0  0  0
 10 11  2  0  0  0  0
 11 12  1  0  0  0  0
 12  6  2  0  0  0  0
  1 13  1  0  0  0  0
 13 14  1  0  0  0  0
 14 15  2  0  0  0  0
 15 16  1  0  0  0  0
 16 17  2  0  0  0  0
 17 18  1  0  0  0  0
 18 13  2  0  0  0  0
 15 19  1  0  0  0  0
 19 20  1  0  0  0  0
 20 21  1  0  0  0  0
 21 22  1  0  0  0  0
 22 23  1  0  0  0  0
 23 24  2  0  0  0  0
 24 25  1  0  0  0  0
 21 25  2  0  0  0  0
 24 26  1  0  0  0  0
 26 27  1  0  0  0  0
 27 28  1  0  0  0  0
 28 29  1  0  0  0  0
 29 30  1  0  0  0  0
 26 30  2  0  0  0  0
 28 31  2  0  0  0  0
 31 32  1  0  0  0  0
 32 33  2  0  0  0  0
 33 34  1  0  0  0  0
 34 27  2  0  0  0  0
 34 35  1  0  0  0  0
  4 36  1  0  0  0  0
  5 37  1  0  0  0  0
  5 38  1  0  0  0  0
  7 39  1  0  0  0  0
 10 40  1  0  0  0  0
 11 41  1  0  0  0  0
 12 42  1  0  0  0  0
 14 43  1  0  0  0  0
 16 44  1  0  0  0  0
 17 45  1  0  0  0  0
 18 46  1  0  0  0  0
 19 47  1  0  0  0  0
 19 48  1  0  0  0  0
 20 49  1  0  0  0  0
 23 50  1  0  0  0  0
 29 51  1  0  0  0  0
 30 52  1  0  0  0  0
 31 53  1  0  0  0  0
 32 54  1  0  0  0  0
 33 55  1  0  0  0  0
 35 56  1  0  0  0  0
 35 57  1  0  0  0  0
 35 58  1  0  0  0  0
M  END
>  <result-rank>
26

>  <similarity>
0.910

>  <query-name>


>  <query-smiles>
S(=O)(=O)(Nc1cc2c(NN=C2C=3Nc4c(ccc(c4)C)C3)cc1)c5cc(F)ccc5

>  <source>
REALspace_2019-12

>  <similarity-descriptor>
0.999;1.000;1.000;0.784;0.881;0.748;0.881;1.000;0.0

>  <similarity-descriptor-smiles>
c1cccc(c1)F;C1=CNcc1;c1ccccc1;CNC1=NC=CS1;c1ccccc1;S(=O)(=O)NC;c1ccccc1;C;

>  <reaction-name>
m_276096

>  <reagent1-name>
13706966

>  <reagent1-smiles>
[R1*]SC(=N[R2*])NCc1cc(S(=O)(=O)NCc2cc(F)ccc2)ccc1

>  <reagent2-name>
13711292

>  <reagent2-smiles>
[R2*]C(C=1c2c(NC1)cccc2C)=C[R1*]

$$$$
s_270196____8770000____8775706
          04022017313D 1   1.00000     0.00000     0
            
 48 52  0  0  0  0            999 V2000
   -2.9216    1.5635    2.5540 F   0  0  0  0  0  0  0  0  0  0  0  0
   -2.9381    2.8934    2.5596 C   0  0  0  0  0  0  0  0  0  0  0  0
   -1.7418    3.6046    2.5502 C   0  0  0  0  0  0  0  0  0  0  0  0
   -1.7593    4.9949    2.5564 C   0  0  0  0  0  0  0  0  0  0  0  0
   -2.9725    5.6751    2.5703 C   0  0  0  0  0  0  0  0  0  0  0  0
   -4.1685    4.9643    2.5796 C   0  0  0  0  0  0  0  0  0  0  0  0
   -4.1511    3.5737    2.5737 C   0  0  0  0  0  0  0  0  0  0  0  0
   -0.4768    2.8955    2.5349 C   0  0  0  0  0  0  0  0  0  0  0  0
   -0.4616    1.6956    2.5303 O   0  0  0  0  0  0  0  0  0  0  0  0
    0.7008    3.5955    2.5256 N   0  0  0  0  0  0  0  0  0  0  0  0
    1.9830    2.8768    2.5101 C   0  0  0  0  0  0  0  0  0  0  0  0
    3.1728    3.5972    2.5008 C   0  0  0  0  0  0  0  0  0  0  0  0
    4.3800    2.9062    2.4867 C   0  0  0  0  0  0  0  0  0  0  0  0
    4.4072    1.5158    2.4809 C   0  0  0  0  0  0  0  0  0  0  0  0
    3.2053    0.8159    2.4905 C   0  0  0  0  0  0  0  0  0  0  0  0
    1.9867    1.4860    2.5051 C   0  0  0  0  0  0  0  0  0  0  0  0
    5.6240    3.6533    2.4786 C   0  0  0  0  0  0  0  0  0  0  0  0
    6.8343    3.1405    2.4653 N   0  0  0  0  0  0  0  0  0  0  0  0
    7.6700    4.0904    2.4594 O   0  0  0  0  0  0  0  0  0  0  0  0
    7.0399    5.2393    2.4695 C   0  0  0  0  0  0  0  0  0  0  0  0
    5.7515    5.0065    2.4804 N   0  0  0  0  0  0  0  0  0  0  0  0
    7.6645    6.5484    2.4671 C   0  0  0  0  0  0  0  0  0  0  0  0
    6.9980    7.7377    2.4777 N   0  0  0  0  0  0  0  0  0  0  0  0
    7.9270    8.7366    2.4680 C   0  0  0  0  0  0  0  0  0  0  0  0
    9.1848    8.1816    2.4550 C   0  0  0  0  0  0  0  0  0  0  0  0
   10.2886    9.0302    2.4428 C   0  0  0  0  0  0  0  0  0  0  0  0
   10.1618   10.4165    2.4503 C   0  0  0  0  0  0  0  0  0  0  0  0
    8.8805   10.9578    2.4678 C   0  0  0  0  0  0  0  0  0  0  0  0
    7.7712   10.1187    2.4756 C   0  0  0  0  0  0  0  0  0  0  0  0
   11.3601   11.3517    2.4425 C   0  0  0  0  0  0  0  0  0  0  0  0
    9.0087    6.7770    2.4487 C   0  0  0  0  0  0  0  0  0  0  0  0
   -0.8996    5.5058    2.5508 H   0  0  0  0  0  0  0  0  0  0  0  0
   -2.9851    6.6750    2.5737 H   0  0  0  0  0  0  0  0  0  0  0  0
   -5.0407    5.4533    2.5904 H   0  0  0  0  0  0  0  0  0  0  0  0
   -5.0108    3.0629    2.5797 H   0  0  0  0  0  0  0  0  0  0  0  0
    0.6881    4.5954    2.5294 H   0  0  0  0  0  0  0  0  0  0  0  0
    3.1605    4.5971    2.5042 H   0  0  0  0  0  0  0  0  0  0  0  0
    5.2790    1.0260    2.4700 H   0  0  0  0  0  0  0  0  0  0  0  0
    3.2176   -0.1840    2.4868 H   0  0  0  0  0  0  0  0  0  0  0  0
    1.1266    0.9758    2.5119 H   0  0  0  0  0  0  0  0  0  0  0  0
    6.0052    7.8566    2.4903 H   0  0  0  0  0  0  0  0  0  0  0  0
   11.2048    8.6298    2.4281 H   0  0  0  0  0  0  0  0  0  0  0  0
    8.7570   11.9501    2.4747 H   0  0  0  0  0  0  0  0  0  0  0  0
    6.8524   10.5131    2.4867 H   0  0  0  0  0  0  0  0  0  0  0  0
   11.0429   12.3000    2.4500 H   0  0  0  0  0  0  0  0  0  0  0  0
   11.9211   11.1815    3.2526 H   0  0  0  0  0  0  0  0  0  0  0  0
   11.9047   11.1888    1.6198 H   0  0  0  0  0  0  0  0  0  0  0  0
    9.7310    6.0856    2.4335 H   0  0  0  0  0  0  0  0  0  0  0  0
  1  2  1  0  0  0  0
  2  3  1  0  0  0  0
  3  4  2  0  0  0  0
  4  5  1  0  0  0  0
  5  6  2  0  0  0  0
  6  7  1  0  0  0  0
  7  2  2  0  0  0  0
  3  8  1  0  0  0  0
  8  9  2  0  0  0  0
  8 10  1  0  0  0  0
 10 11  1  0  0  0  0
 11 12  1  0  0  0  0
 12 13  2  0  0  0  0
 13 14  1  0  0  0  0
 14 15  2  0  0  0  0
 15 16  1  0  0  0  0
 16 11  2  0  0  0  0
 13 17  1  0  0  0  0
 17 18  2  0  0  0  0
 18 19  1  0  0  0  0
 19 20  1  0  0  0  0
 20 21  2  0  0  0  0
 21 17  1  0  0  0  0
 20 22  1  0  0  0  0
 22 23  1  0  0  0  0
 23 24  1  0  0  0  0
 24 25  1  0  0  0  0
 25 26  2  0  0  0  0
 26 27  1  0  0  0  0
 27 28  2  0  0  0  0
 28 29  1  0  0  0  0
 29 24  2  0  0  0  0
 27 30  1  0  0  0  0
 25 31  1  0  0  0  0
 22 31  2  0  0  0  0
  4 32  1  0  0  0  0
  5 33  1  0  0  0  0
  6 34  1  0  0  0  0
  7 35  1  0  0  0  0
 10 36  1  0  0  0  0
 12 37  1  0  0  0  0
 14 38  1  0  0  0  0
 15 39  1  0  0  0  0
 16 40  1  0  0  0  0
 23 41  1  0  0  0  0
 26 42  1  0  0  0  0
 28 43  1  0  0  0  0
 29 44  1  0  0  0  0
 30 45  1  0  0  0  0
 30 46  1  0  0  0  0
 30 47  1  0  0  0  0
 31 48  1  0  0  0  0
M  END
>  <result-rank>
27

>  <similarity>
0.910

>  <query-name>


>  <query-smiles>
S(=O)(=O)(Nc1cc2c(NN=C2C=3Nc4c(ccc(c4)C)C3)cc1)c5cc(F)ccc5

>  <source>
REALspace_2019-12

>  <similarity-descriptor>
0.999;1.000;1.000;0.680;0.938;0.626;0.982;1.000;0.0

>  <similarity-descriptor-smiles>
Fc1ccccc1;C1=CccN1;c1ccccc1;C=1N=CON1;c1ccccc1;C=O;N;C;

>  <reaction-name>
s_270196

>  <reagent1-name>
8770000

>  <reagent1-smiles>
[R1*]=NC(=NO[R2*])c1cc(NC(=O)c2c(F)cccc2)ccc1

>  <reagent2-name>
8775706

>  <reagent2-smiles>
[R1*]C([R2*])C=1Nc2c(cc(cc2)C)C1

$$$$
s_270196____13268226____8785454
          04022017313D 1   1.00000     0.00000     0
            
 44 48  0  0  0  0            999 V2000
    6.0005   -0.1720    3.6791 S   0  0  0  0  0  0  0  0  0  0  0  0
    7.3811   -0.5636    3.5605 O   0  0  0  0  0  0  0  0  0  0  0  0
    5.7960    0.4897    4.9416 O   0  0  0  0  0  0  0  0  0  0  0  0
    5.6179    0.8451    2.4642 N   0  0  0  0  0  0  0  0  0  0  0  0
    4.3950    1.5268    2.4808 C   0  0  0  0  0  0  0  0  0  0  0  0
    4.3871    2.9184    2.4851 C   0  0  0  0  0  0  0  0  0  0  0  0
    3.1704    3.5924    2.5011 C   0  0  0  0  0  0  0  0  0  0  0  0
    1.9734    2.8828    2.5131 C   0  0  0  0  0  0  0  0  0  0  0  0
    0.7968    3.5434    2.5296 O   0  0  0  0  0  0  0  0  0  0  0  0
    1.9898    1.4916    2.5089 C   0  0  0  0  0  0  0  0  0  0  0  0
    3.2027    0.8099    2.4927 C   0  0  0  0  0  0  0  0  0  0  0  0
    3.1757    5.0428    2.5051 C   0  0  0  0  0  0  0  0  0  0  0  0
    4.2431    5.8036    2.4948 O   0  0  0  0  0  0  0  0  0  0  0  0
    3.8951    7.0224    2.5014 N   0  0  0  0  0  0  0  0  0  0  0  0
    2.5843    7.0855    2.5177 C   0  0  0  0  0  0  0  0  0  0  0  0
    2.1155    5.8101    2.5211 N   0  0  0  0  0  0  0  0  0  0  0  0
    1.7843    8.2944    2.5326 C   0  0  0  0  0  0  0  0  0  0  0  0
    0.4216    8.3348    2.5495 N   0  0  0  0  0  0  0  0  0  0  0  0
    0.0453    9.6475    2.5599 C   0  0  0  0  0  0  0  0  0  0  0  0
    1.1683   10.4380    2.5498 C   0  0  0  0  0  0  0  0  0  0  0  0
    1.0389   11.8229    2.5540 C   0  0  0  0  0  0  0  0  0  0  0  0
   -0.2179   12.4188    2.5708 C   0  0  0  0  0  0  0  0  0  0  0  0
   -1.3548   11.6173    2.5833 C   0  0  0  0  0  0  0  0  0  0  0  0
   -1.2148   10.2335    2.5787 C   0  0  0  0  0  0  0  0  0  0  0  0
    2.2790    9.5640    2.5332 C   0  0  0  0  0  0  0  0  0  0  0  0
    4.9874   -1.5848    3.5938 C   0  0  0  0  0  0  0  0  0  0  0  0
    5.0828   -2.7858    2.3940 S   0  0  0  0  0  0  0  0  0  0  0  0
    3.8236   -3.7852    2.9613 C   0  0  0  0  0  0  0  0  0  0  0  0
    3.3508   -3.1599    4.0770 C   0  0  0  0  0  0  0  0  0  0  0  0
    3.9849   -1.9402    4.4428 C   0  0  0  0  0  0  0  0  0  0  0  0
    6.2565    0.9822    1.7070 H   0  0  0  0  0  0  0  0  0  0  0  0
    5.2472    3.4285    2.4768 H   0  0  0  0  0  0  0  0  0  0  0  0
   -0.0631    3.0329    2.5382 H   0  0  0  0  0  0  0  0  0  0  0  0
    1.1297    0.9816    2.5175 H   0  0  0  0  0  0  0  0  0  0  0  0
    3.2173   -0.1900    2.4895 H   0  0  0  0  0  0  0  0  0  0  0  0
   -0.1920    7.5452    2.5535 H   0  0  0  0  0  0  0  0  0  0  0  0
    1.8581   12.3962    2.5448 H   0  0  0  0  0  0  0  0  0  0  0  0
   -0.3035   13.4152    2.5738 H   0  0  0  0  0  0  0  0  0  0  0  0
   -2.2645   12.0323    2.5954 H   0  0  0  0  0  0  0  0  0  0  0  0
   -2.0296    9.6539    2.5890 H   0  0  0  0  0  0  0  0  0  0  0  0
    3.2437    9.8272    2.5236 H   0  0  0  0  0  0  0  0  0  0  0  0
    3.5016   -4.6438    2.5624 H   0  0  0  0  0  0  0  0  0  0  0  0
    2.5958   -3.5398    4.6115 H   0  0  0  0  0  0  0  0  0  0  0  0
    3.7212   -1.3995    5.2417 H   0  0  0  0  0  0  0  0  0  0  0  0
  1  2  2  0  0  0  0
  1  3  2  0  0  0  0
  1  4  1  0  0  0  0
  4  5  1  0  0  0  0
  5  6  1  0  0  0  0
  6  7  2  0  0  0  0
  7  8  1  0  0  0  0
  8  9  1  0  0  0  0
  8 10  2  0  0  0  0
 10 11  1  0  0  0  0
 11  5  2  0  0  0  0
  7 12  1  0  0  0  0
 12 13  1  0  0  0  0
 13 14  1  0  0  0  0
 14 15  2  0  0  0  0
 15 16  1  0  0  0  0
 12 16  2  0  0  0  0
 15 17  1  0  0  0  0
 17 18  1  0  0  0  0
 18 19  1  0  0  0  0
 19 20  1  0  0  0  0
 20 21  2  0  0  0  0
 21 22  1  0  0  0  0
 22 23  2  0  0  0  0
 23 24  1  0  0  0  0
 24 19  2  0  0  0  0
 20 25  1  0  0  0  0
 17 25  2  0  0  0  0
  1 26  1  0  0  0  0
 26 27  1  0  0  0  0
 27 28  1  0  0  0  0
 28 29  2  0  0  0  0
 29 30  1  0  0  0  0
 26 30  2  0  0  0  0
  4 31  1  0  0  0  0
  6 32  1  0  0  0  0
  9 33  1  0  0  0  0
 10 34  1  0  0  0  0
 11 35  1  0  0  0  0
 18 36  1  0  0  0  0
 21 37  1  0  0  0  0
 22 38  1  0  0  0  0
 23 39  1  0  0  0  0
 24 40  1  0  0  0  0
 25 41  1  0  0  0  0
 28 42  1  0  0  0  0
 29 43  1  0  0  0  0
 30 44  1  0  0  0  0
M  END
>  <result-rank>
28

>  <similarity>
0.910

>  <query-name>


>  <query-smiles>
S(=O)(=O)(Nc1cc2c(NN=C2C=3Nc4c(ccc(c4)C)C3)cc1)c5cc(F)ccc5

>  <source>
REALspace_2019-12

>  <similarity-descriptor>
0.907;1.000;0.953;0.680;0.981;0.999;1.000;0.0;0.125

>  <similarity-descriptor-smiles>
C1=CC=CS1;C1=CccN1;c1ccccc1;C1=NC=NO1;c1ccccc1;S(=O)=O;N;;O

>  <reaction-name>
s_270196

>  <reagent1-name>
13268226

>  <reagent1-smiles>
[R1*]=NC(=NO[R2*])C=1Nc2c(cccc2)C1

>  <reagent2-name>
8785454

>  <reagent2-smiles>
[R1*]C([R2*])c1c(O)ccc(NS(=O)(=O)C=2SC=CC2)c1

$$$$
s_270196____9423372____8771900
          04022017313D 1   1.00000     0.00000     0
            
 48 52  0  0  0  0            999 V2000
    2.1048    6.0347    9.1252 Br  0  0  0  0  0  0  0  0  0  0  0  0
    1.3798    5.2211    7.4963 C   0  0  0  0  0  0  0  0  0  0  0  0
    0.5735    5.9724    6.6469 C   0  0  0  0  0  0  0  0  0  0  0  0
    0.0630    5.3868    5.4932 C   0  0  0  0  0  0  0  0  0  0  0  0
    0.3634    4.0596    5.2027 C   0  0  0  0  0  0  0  0  0  0  0  0
   -0.2810    3.3352    3.7573 S   0  0  0  0  0  0  0  0  0  0  0  0
   -1.5443    3.9470    3.4359 O   0  0  0  0  0  0  0  0  0  0  0  0
   -0.4718    1.9241    3.9717 O   0  0  0  0  0  0  0  0  0  0  0  0
    0.7615    3.5615    2.5249 N   0  0  0  0  0  0  0  0  0  0  0  0
    1.9850    2.8822    2.5096 C   0  0  0  0  0  0  0  0  0  0  0  0
    3.1774    3.5986    2.4996 C   0  0  0  0  0  0  0  0  0  0  0  0
    4.3889    2.9151    2.4847 C   0  0  0  0  0  0  0  0  0  0  0  0
    4.3934    1.5238    2.4792 C   0  0  0  0  0  0  0  0  0  0  0  0
    3.2017    0.8073    2.4891 C   0  0  0  0  0  0  0  0  0  0  0  0
    1.9902    1.4907    2.5042 C   0  0  0  0  0  0  0  0  0  0  0  0
    5.6618    0.8205    2.4636 C   0  0  0  0  0  0  0  0  0  0  0  0
    6.8468    1.3808    2.4539 O   0  0  0  0  0  0  0  0  0  0  0  0
    7.7406    0.4821    2.4424 N   0  0  0  0  0  0  0  0  0  0  0  0
    7.1558   -0.6928    2.4428 C   0  0  0  0  0  0  0  0  0  0  0  0
    5.8140   -0.4795    2.4557 N   0  0  0  0  0  0  0  0  0  0  0  0
    7.8207   -1.9819    2.4290 C   0  0  0  0  0  0  0  0  0  0  0  0
    7.2192   -3.1466    2.4255 O   0  0  0  0  0  0  0  0  0  0  0  0
    8.1154   -4.1149    2.4141 C   0  0  0  0  0  0  0  0  0  0  0  0
    9.3811   -3.5731    2.4062 C   0  0  0  0  0  0  0  0  0  0  0  0
   10.4857   -4.4212    2.3853 C   0  0  0  0  0  0  0  0  0  0  0  0
   10.3518   -5.8077    2.3735 C   0  0  0  0  0  0  0  0  0  0  0  0
    9.0668   -6.3399    2.3820 C   0  0  0  0  0  0  0  0  0  0  0  0
    7.9603   -5.4976    2.4025 C   0  0  0  0  0  0  0  0  0  0  0  0
   11.5573   -6.7384    2.3496 C   0  0  0  0  0  0  0  0  0  0  0  0
    9.1693   -2.1763    2.4163 C   0  0  0  0  0  0  0  0  0  0  0  0
    1.1693    3.3080    6.0517 C   0  0  0  0  0  0  0  0  0  0  0  0
    1.6795    3.8939    7.2049 C   0  0  0  0  0  0  0  0  0  0  0  0
    0.3628    6.9255    6.8642 H   0  0  0  0  0  0  0  0  0  0  0  0
   -0.5173    5.9172    4.8752 H   0  0  0  0  0  0  0  0  0  0  0  0
    0.5269    4.1857    1.7797 H   0  0  0  0  0  0  0  0  0  0  0  0
    3.1638    4.5985    2.5030 H   0  0  0  0  0  0  0  0  0  0  0  0
    5.2515    3.4208    2.4781 H   0  0  0  0  0  0  0  0  0  0  0  0
    3.2155   -0.1926    2.4853 H   0  0  0  0  0  0  0  0  0  0  0  0
    1.1277    0.9848    2.5111 H   0  0  0  0  0  0  0  0  0  0  0  0
   11.4028   -4.0227    2.3786 H   0  0  0  0  0  0  0  0  0  0  0  0
    8.9381   -7.3315    2.3734 H   0  0  0  0  0  0  0  0  0  0  0  0
    7.0409   -5.8910    2.4090 H   0  0  0  0  0  0  0  0  0  0  0  0
   11.2449   -7.6883    2.3442 H   0  0  0  0  0  0  0  0  0  0  0  0
   12.0992   -6.5610    1.5281 H   0  0  0  0  0  0  0  0  0  0  0  0
   12.1192   -6.5769    3.1609 H   0  0  0  0  0  0  0  0  0  0  0  0
    9.8738   -1.4666    2.4144 H   0  0  0  0  0  0  0  0  0  0  0  0
    1.3798    2.3548    5.8347 H   0  0  0  0  0  0  0  0  0  0  0  0
    2.2598    3.3634    7.8227 H   0  0  0  0  0  0  0  0  0  0  0  0
  1  2  1  0  0  0  0
  2  3  1  0  0  0  0
  3  4  2  0  0  0  0
  4  5  1  0  0  0  0
  5  6  1  0  0  0  0
  6  7  2  0  0  0  0
  6  8  2  0  0  0  0
  6  9  1  0  0  0  0
  9 10  1  0  0  0  0
 10 11  1  0  0  0  0
 11 12  2  0  0  0  0
 12 13  1  0  0  0  0
 13 14  2  0  0  0  0
 14 15  1  0  0  0  0
 15 10  2  0  0  0  0
 13 16  1  0  0  0  0
 16 17  1  0  0  0  0
 17 18  1  0  0  0  0
 18 19  2  0  0  0  0
 19 20  1  0  0  0  0
 16 20  2  0  0  0  0
 19 21  1  0  0  0  0
 21 22  1  0  0  0  0
 22 23  1  0  0  0  0
 23 24  1  0  0  0  0
 24 25  2  0  0  0  0
 25 26  1  0  0  0  0
 26 27  2  0  0  0  0
 27 28  1  0  0  0  0
 28 23  2  0  0  0  0
 26 29  1  0  0  0  0
 24 30  1  0  0  0  0
 21 30  2  0  0  0  0
  5 31  2  0  0  0  0
 31 32  1  0  0  0  0
 32  2  2  0  0  0  0
  3 33  1  0  0  0  0
  4 34  1  0  0  0  0
  9 35  1  0  0  0  0
 11 36  1  0  0  0  0
 12 37  1  0  0  0  0
 14 38  1  0  0  0  0
 15 39  1  0  0  0  0
 25 40  1  0  0  0  0
 27 41  1  0  0  0  0
 28 42  1  0  0  0  0
 29 43  1  0  0  0  0
 29 44  1  0  0  0  0
 29 45  1  0  0  0  0
 30 46  1  0  0  0  0
 31 47  1  0  0  0  0
 32 48  1  0  0  0  0
M  END
>  <result-rank>
29

>  <similarity>
0.910

>  <query-name>


>  <query-smiles>
S(=O)(=O)(Nc1cc2c(NN=C2C=3Nc4c(ccc(c4)C)C3)cc1)c5cc(F)ccc5

>  <source>
REALspace_2019-12

>  <similarity-descriptor>
0.978;0.785;1.000;0.680;0.938;1.000;1.000;1.000;0.0

>  <similarity-descriptor-smiles>
Brc1ccccc1;C1=CccO1;c1ccccc1;C1=NC=NO1;c1ccccc1;S(=O)=O;N;C;

>  <reaction-name>
s_270196

>  <reagent1-name>
9423372

>  <reagent1-smiles>
[R1*]=NC(=NO[R2*])C=1Oc2c(cc(cc2)C)C1

>  <reagent2-name>
8771900

>  <reagent2-smiles>
[R1*]C([R2*])c1ccc(NS(=O)(=O)c2ccc(Br)cc2)cc1

$$$$
s_276090____14022044____17593374
          04022017313D 1   1.00000     0.00000     0
            
 48 52  0  0  0  0            999 V2000
    2.5087    6.9734    1.6612 S   0  0  0  0  0  0  0  0  0  0  0  0
    2.5803    7.1243    3.0915 O   0  0  0  0  0  0  0  0  0  0  0  0
    3.8140    7.1829    1.0905 O   0  0  0  0  0  0  0  0  0  0  0  0
    1.9919    5.4707    1.2986 N   0  0  0  0  0  0  0  0  0  0  0  0
    0.8444    4.9570    1.9152 C   0  0  0  0  0  0  0  0  0  0  0  0
    0.8448    3.7018    2.5156 C   0  0  0  0  0  0  0  0  0  0  0  0
   -0.3118    3.2199    3.1203 C   0  0  0  0  0  0  0  0  0  0  0  0
   -1.4687    3.9921    3.1231 C   0  0  0  0  0  0  0  0  0  0  0  0
   -1.4689    5.2468    2.5226 C   0  0  0  0  0  0  0  0  0  0  0  0
   -0.3121    5.7291    1.9187 C   0  0  0  0  0  0  0  0  0  0  0  0
    2.0507    2.8963    2.5119 C   0  0  0  0  0  0  0  0  0  0  0  0
    3.2767    3.3629    2.5101 N   0  0  0  0  0  0  0  0  0  0  0  0
    4.1101    2.3488    2.5054 N   0  0  0  0  0  0  0  0  0  0  0  0
    3.3604    1.2119    2.5035 C   0  0  0  0  0  0  0  0  0  0  0  0
    2.0907    1.5360    2.5088 N   0  0  0  0  0  0  0  0  0  0  0  0
    3.8638   -0.0934    2.4987 N   0  0  0  0  0  0  0  0  0  0  0  0
    5.2452   -0.3100    2.4933 C   0  0  0  0  0  0  0  0  0  0  0  0
    6.0289   -1.8208    2.4870 S   0  0  0  0  0  0  0  0  0  0  0  0
    7.6284   -1.2359    2.4863 C   0  0  0  0  0  0  0  0  0  0  0  0
    7.4735    0.1135    2.4948 C   0  0  0  0  0  0  0  0  0  0  0  0
    6.1914    0.5951    2.5008 N   0  0  0  0  0  0  0  0  0  0  0  0
    8.6662    0.9383    2.5017 C   0  0  0  0  0  0  0  0  0  0  0  0
    8.5356    2.3231    2.5154 C   0  0  0  0  0  0  0  0  0  0  0  0
    9.6698    3.1287    2.5224 C   0  0  0  0  0  0  0  0  0  0  0  0
   10.9257    2.5318    2.5142 C   0  0  0  0  0  0  0  0  0  0  0  0
   12.0178    3.2905    2.5209 F   0  0  0  0  0  0  0  0  0  0  0  0
   11.0565    1.1475    2.5001 C   0  0  0  0  0  0  0  0  0  0  0  0
    9.9232    0.3417    2.4931 C   0  0  0  0  0  0  0  0  0  0  0  0
    1.3960    8.1426    1.0095 C   0  0  0  0  0  0  0  0  0  0  0  0
    1.1891    8.4799   -0.6441 S   0  0  0  0  0  0  0  0  0  0  0  0
   -0.0098    9.6821   -0.4904 C   0  0  0  0  0  0  0  0  0  0  0  0
   -0.2242    9.7986    0.8512 C   0  0  0  0  0  0  0  0  0  0  0  0
    0.5452    8.9523    1.6969 C   0  0  0  0  0  0  0  0  0  0  0  0
    2.4944    4.9155    0.6358 H   0  0  0  0  0  0  0  0  0  0  0  0
   -0.3113    2.3183    3.5530 H   0  0  0  0  0  0  0  0  0  0  0  0
   -2.3003    3.6452    3.5568 H   0  0  0  0  0  0  0  0  0  0  0  0
   -2.3005    5.8022    2.5251 H   0  0  0  0  0  0  0  0  0  0  0  0
   -0.3123    6.6312    1.4870 H   0  0  0  0  0  0  0  0  0  0  0  0
    5.1087    2.4013    2.5036 H   0  0  0  0  0  0  0  0  0  0  0  0
    3.2357   -0.8715    2.4991 H   0  0  0  0  0  0  0  0  0  0  0  0
    8.4794   -1.7610    2.4809 H   0  0  0  0  0  0  0  0  0  0  0  0
    7.6265    2.7395    2.5201 H   0  0  0  0  0  0  0  0  0  0  0  0
    9.5829    4.1249    2.5333 H   0  0  0  0  0  0  0  0  0  0  0  0
   11.9658    0.7313    2.4950 H   0  0  0  0  0  0  0  0  0  0  0  0
   10.0105   -0.6544    2.4821 H   0  0  0  0  0  0  0  0  0  0  0  0
   -0.4586   10.1913   -1.2249 H   0  0  0  0  0  0  0  0  0  0  0  0
   -0.8892   10.4469    1.2221 H   0  0  0  0  0  0  0  0  0  0  0  0
    0.4688    8.9522    2.6940 H   0  0  0  0  0  0  0  0  0  0  0  0
  1  2  2  0  0  0  0
  1  3  2  0  0  0  0
  1  4  1  0  0  0  0
  4  5  1  0  0  0  0
  5  6  1  0  0  0  0
  6  7  2  0  0  0  0
  7  8  1  0  0  0  0
  8  9  2  0  0  0  0
  9 10  1  0  0  0  0
 10  5  2  0  0  0  0
  6 11  1  0  0  0  0
 11 12  2  0  0  0  0
 12 13  1  0  0  0  0
 13 14  1  0  0  0  0
 14 15  2  0  0  0  0
 15 11  1  0  0  0  0
 14 16  1  0  0  0  0
 16 17  1  0  0  0  0
 17 18  1  0  0  0  0
 18 19  1  0  0  0  0
 19 20  2  0  0  0  0
 20 21  1  0  0  0  0
 17 21  2  0  0  0  0
 20 22  1  0  0  0  0
 22 23  1  0  0  0  0
 23 24  2  0  0  0  0
 24 25  1  0  0  0  0
 25 26  1  0  0  0  0
 25 27  2  0  0  0  0
 27 28  1  0  0  0  0
 28 22  2  0  0  0  0
  1 29  1  0  0  0  0
 29 30  1  0  0  0  0
 30 31  1  0  0  0  0
 31 32  2  0  0  0  0
 32 33  1  0  0  0  0
 29 33  2  0  0  0  0
  4 34  1  0  0  0  0
  7 35  1  0  0  0  0
  8 36  1  0  0  0  0
  9 37  1  0  0  0  0
 10 38  1  0  0  0  0
 13 39  1  0  0  0  0
 16 40  1  0  0  0  0
 19 41  1  0  0  0  0
 23 42  1  0  0  0  0
 24 43  1  0  0  0  0
 27 44  1  0  0  0  0
 28 45  1  0  0  0  0
 31 46  1  0  0  0  0
 32 47  1  0  0  0  0
 33 48  1  0  0  0  0
M  END
>  <result-rank>
30

>  <similarity>
0.910

>  <query-name>


>  <query-smiles>
S(=O)(=O)(Nc1cc2c(NN=C2C=3Nc4c(ccc(c4)C)C3)cc1)c5cc(F)ccc5

>  <source>
REALspace_2019-12

>  <similarity-descriptor>
0.907;0.835;0.935;0.844;0.938;0.999;1.000;0.935;0.0

>  <similarity-descriptor-smiles>
C1=CC=CS1;NC1=NC=CS1;c1ccc(cc1)F;C=1N=CNN1;c1ccccc1;S(=O)=O;N;c1ccc(cc1)F;

>  <reaction-name>
s_276090

>  <reagent1-name>
14022044

>  <reagent1-smiles>
[R2*]=C(N[R1*])NC=1SC=C(N1)c2ccc(F)cc2

>  <reagent2-name>
17593374

>  <reagent2-smiles>
[R2*]=NN=C([R1*])c1c(NS(=O)(=O)C=2SC=CC2)cccc1

$$$$
m_275592____14115244____14136522____14130032
          04022017313D 1   1.00000     0.00000     0
            
 60 63  0  0  0  0            999 V2000
    0.8208    3.5280    2.5233 F   0  0  0  0  0  0  0  0  0  0  0  0
    1.9783    2.8737    2.5102 C   0  0  0  0  0  0  0  0  0  0  0  0
    3.1731    3.5874    2.5029 C   0  0  0  0  0  0  0  0  0  0  0  0
    4.3905    2.9129    2.4883 C   0  0  0  0  0  0  0  0  0  0  0  0
    4.4155    1.5220    2.4820 C   0  0  0  0  0  0  0  0  0  0  0  0
    3.2140    0.8210    2.4898 C   0  0  0  0  0  0  0  0  0  0  0  0
    1.9906    1.4827    2.5040 C   0  0  0  0  0  0  0  0  0  0  0  0
    3.2290   -0.6987    2.4825 C   0  0  0  0  0  0  0  0  0  0  0  0
    3.2212   -1.1822    1.0943 N   0  0  0  0  0  0  0  0  0  0  0  0
    4.4040   -1.3957    0.4367 C   0  0  0  0  0  0  0  0  0  0  0  0
    5.4463   -1.1881    0.9939 O   0  0  0  0  0  0  0  0  0  0  0  0
    4.3959   -1.8956   -0.9988 C   0  0  3  0  0  0  0  0  0  0  0  0
    5.6570   -2.4713   -1.3066 O   0  0  0  0  0  0  0  0  0  0  0  0
    5.6495   -2.9383   -2.6476 C   0  0  0  0  0  0  0  0  0  0  0  0
    4.1271   -0.7321   -1.9389 C   0  0  0  0  0  0  0  0  0  0  0  0
    4.9733    0.3715   -1.9191 C   0  0  0  0  0  0  0  0  0  0  0  0
    4.7325    1.4394   -2.7774 C   0  0  0  0  0  0  0  0  0  0  0  0
    3.6468    1.3891   -3.6457 C   0  0  0  0  0  0  0  0  0  0  0  0
    3.4109    2.4063   -4.4698 F   0  0  0  0  0  0  0  0  0  0  0  0
    2.7969    0.2881   -3.6688 C   0  0  0  0  0  0  0  0  0  0  0  0
    3.0429   -0.7768   -2.8087 C   0  0  0  0  0  0  0  0  0  0  0  0
    3.1498    5.1072    2.5103 C   0  0  0  0  0  0  0  0  0  0  0  0
    3.1547    5.5906    3.8985 N   0  0  0  0  0  0  0  0  0  0  0  0
    4.3432    5.8341    4.5349 C   0  0  0  0  0  0  0  0  0  0  0  0
    5.3803    5.6528    3.9590 O   0  0  0  0  0  0  0  0  0  0  0  0
    4.3480    6.3109    5.9042 C   0  0  0  0  0  0  0  0  0  0  0  0
    5.5069    6.5965    6.6631 C   0  0  0  0  0  0  0  0  0  0  0  0
    5.0262    7.0106    7.8815 C   0  0  0  0  0  0  0  0  0  0  0  0
    3.6599    6.9766    7.8646 N   0  0  0  0  0  0  0  0  0  0  0  0
    3.2304    6.5446    6.6461 C   0  0  0  0  0  0  0  0  0  0  0  0
    5.9190    7.3784    8.8841 C   0  0  0  0  0  0  0  0  0  0  0  0
    7.2946    7.3275    8.6768 C   0  0  0  0  0  0  0  0  0  0  0  0
    7.7986    6.9033    7.4529 C   0  0  0  0  0  0  0  0  0  0  0  0
    6.8871    6.5435    6.4621 C   0  0  0  0  0  0  0  0  0  0  0  0
    9.3065    6.8469    7.2424 C   0  0  0  0  0  0  0  0  0  0  0  0
    5.2474    3.4283    2.4823 H   0  0  0  0  0  0  0  0  0  0  0  0
    5.2870    1.0318    2.4719 H   0  0  0  0  0  0  0  0  0  0  0  0
    1.1339    0.9669    2.5096 H   0  0  0  0  0  0  0  0  0  0  0  0
    4.0530   -1.0262    2.9449 H   0  0  0  0  0  0  0  0  0  0  0  0
    2.4201   -1.0424    2.9596 H   0  0  0  0  0  0  0  0  0  0  0  0
    2.3527   -1.3552    0.6299 H   0  0  0  0  0  0  0  0  0  0  0  0
    3.6795   -2.5847   -1.1078 H   0  0  0  0  0  0  0  0  0  0  0  0
    6.5376   -3.3436   -2.8643 H   0  0  0  0  0  0  0  0  0  0  0  0
    4.9331   -3.6273   -2.7566 H   0  0  0  0  0  0  0  0  0  0  0  0
    5.4726   -2.1727   -3.2661 H   0  0  0  0  0  0  0  0  0  0  0  0
    5.7510    0.3972   -1.2910 H   0  0  0  0  0  0  0  0  0  0  0  0
    5.3352    2.2373   -2.7703 H   0  0  0  0  0  0  0  0  0  0  0  0
    2.0186    0.2626   -4.2963 H   0  0  0  0  0  0  0  0  0  0  0  0
    2.4400   -1.5746   -2.8156 H   0  0  0  0  0  0  0  0  0  0  0  0
    3.9568    5.4553    2.0333 H   0  0  0  0  0  0  0  0  0  0  0  0
    2.3241    5.4302    2.0477 H   0  0  0  0  0  0  0  0  0  0  0  0
    2.2904    5.7417    4.3784 H   0  0  0  0  0  0  0  0  0  0  0  0
    3.0669    7.2299    8.6289 H   0  0  0  0  0  0  0  0  0  0  0  0
    2.2818    6.4230    6.3541 H   0  0  0  0  0  0  0  0  0  0  0  0
    5.5663    7.6843    9.7684 H   0  0  0  0  0  0  0  0  0  0  0  0
    7.9205    7.5963    9.4089 H   0  0  0  0  0  0  0  0  0  0  0  0
    7.2340    6.2365    5.5759 H   0  0  0  0  0  0  0  0  0  0  0  0
    9.7709    7.1461    8.0760 H   0  0  0  0  0  0  0  0  0  0  0  0
    9.5783    5.9088    7.0279 H   0  0  0  0  0  0  0  0  0  0  0  0
    9.5602    7.4489    6.4853 H   0  0  0  0  0  0  0  0  0  0  0  0
  1  2  1  0  0  0  0
  2  3  1  0  0  0  0
  3  4  2  0  0  0  0
  4  5  1  0  0  0  0
  5  6  2  0  0  0  0
  6  7  1  0  0  0  0
  7  2  2  0  0  0  0
  6  8  1  0  0  0  0
  8  9  1  0  0  0  0
  9 10  1  0  0  0  0
 10 11  2  0  0  0  0
 10 12  1  0  0  0  0
 12 13  1  0  0  0  0
 13 14  1  0  0  0  0
 12 15  1  0  0  0  0
 15 16  1  0  0  0  0
 16 17  2  0  0  0  0
 17 18  1  0  0  0  0
 18 19  1  0  0  0  0
 18 20  2  0  0  0  0
 20 21  1  0  0  0  0
 21 15  2  0  0  0  0
  3 22  1  0  0  0  0
 22 23  1  0  0  0  0
 23 24  1  0  0  0  0
 24 25  2  0  0  0  0
 24 26  1  0  0  0  0
 26 27  1  0  0  0  0
 27 28  1  0  0  0  0
 28 29  1  0  0  0  0
 29 30  1  0  0  0  0
 26 30  2  0  0  0  0
 28 31  2  0  0  0  0
 31 32  1  0  0  0  0
 32 33  2  0  0  0  0
 33 34  1  0  0  0  0
 34 27  2  0  0  0  0
 33 35  1  0  0  0  0
  4 36  1  0  0  0  0
  5 37  1  0  0  0  0
  7 38  1  0  0  0  0
  8 39  1  0  0  0  0
  8 40  1  0  0  0  0
  9 41  1  0  0  0  0
 12 42  1  0  0  0  0
 14 43  1  0  0  0  0
 14 44  1  0  0  0  0
 14 45  1  0  0  0  0
 16 46  1  0  0  0  0
 17 47  1  0  0  0  0
 20 48  1  0  0  0  0
 21 49  1  0  0  0  0
 22 50  1  0  0  0  0
 22 51  1  0  0  0  0
 23 52  1  0  0  0  0
 29 53  1  0  0  0  0
 30 54  1  0  0  0  0
 31 55  1  0  0  0  0
 32 56  1  0  0  0  0
 34 57  1  0  0  0  0
 35 58  1  0  0  0  0
 35 59  1  0  0  0  0
 35 60  1  0  0  0  0
M  END
>  <result-rank>
31

>  <similarity>
0.909

>  <query-name>


>  <query-smiles>
S(=O)(=O)(Nc1cc2c(NN=C2C=3Nc4c(ccc(c4)C)C3)cc1)c5cc(F)ccc5

>  <source>
REALspace_2019-12

>  <similarity-descriptor>
0.999;1.000;1.000;0.574;0.965;0.869;0.736;1.000;0.071

>  <similarity-descriptor-smiles>
c1ccc(cc1)F;C1=CNcc1;c1ccccc1;CNC=O;Fc1ccccc1;C(=O)CO;CN;C;C

>  <reaction-name>
m_275592

>  <reagent1-name>
14115244

>  <reagent1-smiles>
[R1*]NCc1c(F)cc(cc1)CN[R2*]

>  <reagent2-name>
14136522

>  <reagent2-smiles>
[R1*]C(=O)C=1c2c(NC1)ccc(c2)C

>  <reagent3-name>
14130032

>  <reagent3-smiles>
[R2*]C(=O)C(OC)c1ccc(F)cc1

$$$$
s_22____9276248____60243
          04022017313D 1   1.00000     0.00000     0
            
 55 58  0  0  0  0            999 V2000
    4.4868    3.9193    5.8537 S   0  0  0  0  0  0  0  0  0  0  0  0
    5.1554    5.0091    6.5162 O   0  0  0  0  0  0  0  0  0  0  0  0
    3.2005    3.7032    6.4639 O   0  0  0  0  0  0  0  0  0  0  0  0
    4.2862    4.2827    4.2774 N   0  0  0  0  0  0  0  0  0  0  0  0
    3.4775    3.4736    3.4698 C   0  0  0  0  0  0  0  0  0  0  0  0
    4.0219    2.8420    2.3566 C   0  0  0  0  0  0  0  0  0  0  0  0
    3.2206    2.0382    1.5520 C   0  0  0  0  0  0  0  0  0  0  0  0
    1.8776    1.8776    1.8776 C   0  0  0  0  0  0  0  0  0  0  0  0
    1.3306    2.5081    2.9902 C   0  0  0  0  0  0  0  0  0  0  0  0
    2.1342    3.3114    3.7925 C   0  0  0  0  0  0  0  0  0  0  0  0
    1.0000    1.0000    1.0000 C   0  0  0  0  0  0  0  0  0  0  0  0
    1.0389   -0.4301    1.5136 C   0  0  0  0  0  0  0  0  0  0  0  0
    2.0246   -1.0967    1.3584 O   0  0  0  0  0  0  0  0  0  0  0  0
   -0.0513   -0.9580    2.1536 N   0  0  0  0  0  0  0  0  0  0  0  0
    0.0969   -2.0773    2.9809 C   0  0  0  0  0  0  0  0  0  0  0  0
    1.2869   -2.6088    3.3801 N   0  0  0  0  0  0  0  0  0  0  0  0
    1.0298   -3.6866    4.1743 C   0  0  0  0  0  0  0  0  0  0  0  0
   -0.3331   -3.8371    4.2749 C   0  0  0  0  0  0  0  0  0  0  0  0
   -0.8440   -4.8781    5.0437 C   0  0  0  0  0  0  0  0  0  0  0  0
    0.0032   -5.7622    5.7052 C   0  0  0  0  0  0  0  0  0  0  0  0
   -0.4686   -6.7804    6.4554 O   0  0  0  0  0  0  0  0  0  0  0  0
   -1.6950   -6.6368    7.1567 C   0  0  0  0  0  0  0  0  0  0  0  0
    1.3793   -5.5956    5.5916 C   0  0  0  0  0  0  0  0  0  0  0  0
    1.8934   -4.5551    4.8245 C   0  0  0  0  0  0  0  0  0  0  0  0
   -0.9267   -2.8038    3.5119 C   0  0  0  0  0  0  0  0  0  0  0  0
    5.4474    2.4755    5.9984 C   0  0  0  0  0  0  0  0  0  0  0  0
    6.8327    2.5742    6.0826 C   0  0  0  0  0  0  0  0  0  0  0  0
    7.5879    1.4120    6.1979 C   0  0  0  0  0  0  0  0  0  0  0  0
    6.9775    0.1627    6.2303 C   0  0  0  0  0  0  0  0  0  0  0  0
    5.5912    0.0861    6.1447 C   0  0  0  0  0  0  0  0  0  0  0  0
    4.8170    1.2360    6.0285 C   0  0  0  0  0  0  0  0  0  0  0  0
    9.1013    1.5213    6.2904 C   0  0  0  0  0  0  0  0  0  0  0  0
    9.4612    1.6240    7.5666 F   0  0  0  0  0  0  0  0  0  0  0  0
    9.6575    0.4363    5.7589 F   0  0  0  0  0  0  0  0  0  0  0  0
    9.5094    2.5991    5.6265 F   0  0  0  0  0  0  0  0  0  0  0  0
    4.7406    5.0834    3.8871 H   0  0  0  0  0  0  0  0  0  0  0  0
    4.9891    2.9657    2.1346 H   0  0  0  0  0  0  0  0  0  0  0  0
    3.6052    1.5816    0.7498 H   0  0  0  0  0  0  0  0  0  0  0  0
    0.3634    2.3844    3.2123 H   0  0  0  0  0  0  0  0  0  0  0  0
    1.7495    3.7683    4.5946 H   0  0  0  0  0  0  0  0  0  0  0  0
    1.3379    1.0256    0.0592 H   0  0  0  0  0  0  0  0  0  0  0  0
    0.0592    1.3379    1.0256 H   0  0  0  0  0  0  0  0  0  0  0  0
   -0.9530   -0.5436    2.0297 H   0  0  0  0  0  0  0  0  0  0  0  0
    2.1934   -2.2666    3.1327 H   0  0  0  0  0  0  0  0  0  0  0  0
   -1.8343   -4.9927    5.1221 H   0  0  0  0  0  0  0  0  0  0  0  0
   -1.8932   -7.4793    7.6576 H   0  0  0  0  0  0  0  0  0  0  0  0
   -1.6234   -5.8751    7.8008 H   0  0  0  0  0  0  0  0  0  0  0  0
   -2.4319   -6.4547    6.5057 H   0  0  0  0  0  0  0  0  0  0  0  0
    1.9994   -6.2239    6.0614 H   0  0  0  0  0  0  0  0  0  0  0  0
    2.8826   -4.4338    4.7423 H   0  0  0  0  0  0  0  0  0  0  0  0
   -1.9051   -2.6391    3.3868 H   0  0  0  0  0  0  0  0  0  0  0  0
    7.2792    3.4687    6.0606 H   0  0  0  0  0  0  0  0  0  0  0  0
    7.5272   -0.6685    6.3138 H   0  0  0  0  0  0  0  0  0  0  0  0
    5.1447   -0.8084    6.1672 H   0  0  0  0  0  0  0  0  0  0  0  0
    3.8209    1.1724    5.9674 H   0  0  0  0  0  0  0  0  0  0  0  0
  1  2  2  0  0  0  0
  1  3  2  0  0  0  0
  1  4  1  0  0  0  0
  4  5  1  0  0  0  0
  5  6  1  0  0  0  0
  6  7  2  0  0  0  0
  7  8  1  0  0  0  0
  8  9  2  0  0  0  0
  9 10  1  0  0  0  0
 10  5  2  0  0  0  0
  8 11  1  0  0  0  0
 11 12  1  0  0  0  0
 12 13  2  0  0  0  0
 12 14  1  0  0  0  0
 14 15  1  0  0  0  0
 15 16  1  0  0  0  0
 16 17  1  0  0  0  0
 17 18  1  0  0  0  0
 18 19  2  0  0  0  0
 19 20  1  0  0  0  0
 20 21  1  0  0  0  0
 21 22  1  0  0  0  0
 20 23  2  0  0  0  0
 23 24  1  0  0  0  0
 24 17  2  0  0  0  0
 18 25  1  0  0  0  0
 15 25  2  0  0  0  0
  1 26  1  0  0  0  0
 26 27  1  0  0  0  0
 27 28  2  0  0  0  0
 28 29  1  0  0  0  0
 29 30  2  0  0  0  0
 30 31  1  0  0  0  0
 31 26  2  0  0  0  0
 28 32  1  0  0  0  0
 32 33  1  0  0  0  0
 32 34  1  0  0  0  0
 32 35  1  0  0  0  0
  4 36  1  0  0  0  0
  6 37  1  0  0  0  0
  7 38  1  0  0  0  0
  9 39  1  0  0  0  0
 10 40  1  0  0  0  0
 11 41  1  0  0  0  0
 11 42  1  0  0  0  0
 14 43  1  0  0  0  0
 16 44  1  0  0  0  0
 19 45  1  0  0  0  0
 22 46  1  0  0  0  0
 22 47  1  0  0  0  0
 22 48  1  0  0  0  0
 23 49  1  0  0  0  0
 24 50  1  0  0  0  0
 25 51  1  0  0  0  0
 27 52  1  0  0  0  0
 29 53  1  0  0  0  0
 30 54  1  0  0  0  0
 31 55  1  0  0  0  0
M  END
>  <result-rank>
32

>  <similarity>
0.909

>  <query-name>


>  <query-smiles>
S(=O)(=O)(Nc1cc2c(NN=C2C=3Nc4c(ccc(c4)C)C3)cc1)c5cc(F)ccc5

>  <source>
REALspace_2019-12

>  <similarity-descriptor>
0.960;0.996;0.898;0.576;0.938;1.000;1.000;0.995;0.0

>  <similarity-descriptor-smiles>
c1cccc(c1)C(F)(F)F;C1=CccN1;c1ccc(cc1)O;CC(=O)N;c1ccccc1;S(=O)=O;N;C;

>  <reaction-name>
s_22

>  <reagent1-name>
9276248

>  <reagent1-smiles>
[R1*]NC=1Nc2c(cc(OC)cc2)C1

>  <reagent2-name>
60243

>  <reagent2-smiles>
[R1*]C(=O)Cc1ccc(NS(=O)(=O)c2cc(ccc2)C(F)(F)F)cc1

$$$$
s_22____13570664____8752238
          04022017313D 1   1.00000     0.00000     0
            
 46 50  0  0  0  0            999 V2000
    7.4720   -8.4358    7.4391 Br  0  0  0  0  0  0  0  0  0  0  0  0
    7.1948   -6.8727    6.2889 C   0  0  0  0  0  0  0  0  0  0  0  0
    5.9302   -6.4838    5.8558 C   0  0  0  0  0  0  0  0  0  0  0  0
    5.7605   -5.3703    5.0380 C   0  0  0  0  0  0  0  0  0  0  0  0
    4.4847   -4.9968    4.6140 C   0  0  0  0  0  0  0  0  0  0  0  0
    3.3671   -5.7307    4.9983 C   0  0  0  0  0  0  0  0  0  0  0  0
    3.5300   -6.8453    5.8144 C   0  0  0  0  0  0  0  0  0  0  0  0
    4.8052   -7.2105    6.2329 C   0  0  0  0  0  0  0  0  0  0  0  0
    4.2528   -3.8455    3.7612 C   0  0  0  0  0  0  0  0  0  0  0  0
    5.0085   -3.4925    2.7481 O   0  0  0  0  0  0  0  0  0  0  0  0
    4.5093   -2.4048    2.1985 C   0  0  0  0  0  0  0  0  0  0  0  0
    3.3866   -2.0625    2.9039 C   0  0  0  0  0  0  0  0  0  0  0  0
    3.2557   -2.9991    3.8864 N   0  0  0  0  0  0  0  0  0  0  0  0
    2.6813   -0.9291    2.4999 C   0  0  0  0  0  0  0  0  0  0  0  0
    3.0725   -0.1434    1.4162 C   0  0  0  0  0  0  0  0  0  0  0  0
    2.3700    1.0000    1.0000 N   0  0  0  0  0  0  0  0  0  0  0  0
    1.0000    1.0000    1.0000 C   0  0  0  0  0  0  0  0  0  0  0  0
    0.4000   -0.0392    1.0000 O   0  0  0  0  0  0  0  0  0  0  0  0
    0.2400    2.3164    1.0000 C   0  0  0  0  0  0  0  0  0  0  0  0
    0.2478    3.0137    0.0234 O   0  0  0  0  0  0  0  0  0  0  0  0
   -0.4945    2.7295    2.1801 C   0  0  0  0  0  0  0  0  0  0  0  0
   -1.1848    3.9370    2.1636 C   0  0  0  0  0  0  0  0  0  0  0  0
   -1.8947    4.3479    3.2873 C   0  0  0  0  0  0  0  0  0  0  0  0
   -1.9016    3.5389    4.4184 C   0  0  0  0  0  0  0  0  0  0  0  0
   -2.5762    3.9200    5.4991 F   0  0  0  0  0  0  0  0  0  0  0  0
   -1.2113    2.3319    4.4352 C   0  0  0  0  0  0  0  0  0  0  0  0
   -0.5015    1.9207    3.3122 C   0  0  0  0  0  0  0  0  0  0  0  0
    4.2169   -0.5134    0.7166 C   0  0  0  0  0  0  0  0  0  0  0  0
    4.9273   -1.6419    1.1131 C   0  0  0  0  0  0  0  0  0  0  0  0
    6.8983   -4.6575    4.6685 C   0  0  0  0  0  0  0  0  0  0  0  0
    8.1724   -5.0260    5.0881 C   0  0  0  0  0  0  0  0  0  0  0  0
    8.3150   -6.1433    5.9049 C   0  0  0  0  0  0  0  0  0  0  0  0
    2.4550   -5.4595    4.6908 H   0  0  0  0  0  0  0  0  0  0  0  0
    2.7348   -7.3810    6.0985 H   0  0  0  0  0  0  0  0  0  0  0  0
    4.9160   -8.0138    6.8182 H   0  0  0  0  0  0  0  0  0  0  0  0
    1.8606   -0.6691    3.0086 H   0  0  0  0  0  0  0  0  0  0  0  0
    2.8700    1.8138    0.7038 H   0  0  0  0  0  0  0  0  0  0  0  0
   -1.1707    4.5099    1.3441 H   0  0  0  0  0  0  0  0  0  0  0  0
   -2.3939    5.2143    3.2818 H   0  0  0  0  0  0  0  0  0  0  0  0
   -1.2252    1.7595    5.2550 H   0  0  0  0  0  0  0  0  0  0  0  0
   -0.0023    1.0542    3.3183 H   0  0  0  0  0  0  0  0  0  0  0  0
    4.5265    0.0278   -0.0653 H   0  0  0  0  0  0  0  0  0  0  0  0
    5.7499   -1.9083    0.6108 H   0  0  0  0  0  0  0  0  0  0  0  0
    6.7960   -3.8540    4.0820 H   0  0  0  0  0  0  0  0  0  0  0  0
    8.9728   -4.4964    4.8072 H   0  0  0  0  0  0  0  0  0  0  0  0
    9.2236   -6.4220    6.2161 H   0  0  0  0  0  0  0  0  0  0  0  0
  1  2  1  0  0  0  0
  2  3  1  0  0  0  0
  3  4  2  0  0  0  0
  4  5  1  0  0  0  0
  5  6  2  0  0  0  0
  6  7  1  0  0  0  0
  7  8  2  0  0  0  0
  8  3  1  0  0  0  0
  5  9  1  0  0  0  0
  9 10  1  0  0  0  0
 10 11  1  0  0  0  0
 11 12  1  0  0  0  0
 12 13  1  0  0  0  0
  9 13  2  0  0  0  0
 12 14  2  0  0  0  0
 14 15  1  0  0  0  0
 15 16  1  0  0  0  0
 16 17  1  0  0  0  0
 17 18  2  0  0  0  0
 17 19  1  0  0  0  0
 19 20  2  0  0  0  0
 19 21  1  0  0  0  0
 21 22  1  0  0  0  0
 22 23  2  0  0  0  0
 23 24  1  0  0  0  0
 24 25  1  0  0  0  0
 24 26  2  0  0  0  0
 26 27  1  0  0  0  0
 27 21  2  0  0  0  0
 15 28  2  0  0  0  0
 28 29  1  0  0  0  0
 29 11  2  0  0  0  0
  4 30  1  0  0  0  0
 30 31  2  0  0  0  0
 31 32  1  0  0  0  0
 32  2  2  0  0  0  0
  6 33  1  0  0  0  0
  7 34  1  0  0  0  0
  8 35  1  0  0  0  0
 14 36  1  0  0  0  0
 16 37  1  0  0  0  0
 22 38  1  0  0  0  0
 23 39  1  0  0  0  0
 26 40  1  0  0  0  0
 27 41  1  0  0  0  0
 28 42  1  0  0  0  0
 29 43  1  0  0  0  0
 30 44  1  0  0  0  0
 31 45  1  0  0  0  0
 32 46  1  0  0  0  0
M  END
>  <result-rank>
33

>  <similarity>
0.909

>  <query-name>


>  <query-smiles>
S(=O)(=O)(Nc1cc2c(NN=C2C=3Nc4c(ccc(c4)C)C3)cc1)c5cc(F)ccc5

>  <source>
REALspace_2019-12

>  <similarity-descriptor>
0.999;0.706;0.959;0.803;0.999;0.876;0.982;0.959;0.0

>  <similarity-descriptor-smiles>
c1ccc(cc1)F;c1ccccc1;Brc1ccccc1;C1=NccO1;c1ccccc1;C(=O)C=O;N;Brc1ccccc1;

>  <reaction-name>
s_22

>  <reagent1-name>
13570664

>  <reagent1-smiles>
[R1*]Nc1cc2N=C(Oc2cc1)c3c4c(c(Br)ccc4)ccc3

>  <reagent2-name>
8752238

>  <reagent2-smiles>
[R1*]C(=O)C(=O)c1ccc(F)cc1

$$$$
s_527a____214634____16899706
          04022017313D 1   1.00000     0.00000     0
            
 52 55  0  0  0  0            999 V2000
   12.1912   -3.2538   -0.6452 Cl  0  0  0  0  0  0  0  0  0  0  0  0
   10.5077   -3.0579   -0.0965 C   0  0  0  0  0  0  0  0  0  0  0  0
   10.0678   -1.9234    0.5844 C   0  0  0  0  0  0  0  0  0  0  0  0
    8.7508   -1.7614    1.0148 C   0  0  0  0  0  0  0  0  0  0  0  0
    7.8799   -2.7900    0.7362 C   0  0  0  0  0  0  0  0  0  0  0  0
    6.6526   -2.4526    1.2264 N   0  0  0  0  0  0  0  0  0  0  0  0
    6.7359   -1.2273    1.8145 C   0  0  0  0  0  0  0  0  0  0  0  0
    5.6419   -0.5247    2.4569 C   0  0  0  0  0  0  0  0  0  0  0  0
    4.7577   -1.1431    2.9820 O   0  0  0  0  0  0  0  0  0  0  0  0
    5.6179    0.8451    2.4642 N   0  0  0  0  0  0  0  0  0  0  0  0
    4.3934    1.5236    2.4797 C   0  0  0  0  0  0  0  0  0  0  0  0
    4.3916    2.9147    2.4870 C   0  0  0  0  0  0  0  0  0  0  0  0
    3.1731    3.5859    2.5017 C   0  0  0  0  0  0  0  0  0  0  0  0
    3.1519    4.9853    2.5098 N   0  0  0  0  0  0  0  0  0  0  0  0
    4.5510    5.8217    2.5002 S   0  0  0  0  0  0  0  0  0  0  0  0
    4.3830    7.0466    3.2383 O   0  0  0  0  0  0  0  0  0  0  0  0
    5.5872    5.0308    3.1120 O   0  0  0  0  0  0  0  0  0  0  0  0
    4.9952    6.1899    0.8590 C   0  0  0  0  0  0  0  0  0  0  0  0
    4.5521    7.3716    0.2744 C   0  0  0  0  0  0  0  0  0  0  0  0
    4.9099    7.6601   -1.0381 C   0  0  0  0  0  0  0  0  0  0  0  0
    5.7047    6.7680   -1.7500 C   0  0  0  0  0  0  0  0  0  0  0  0
    6.0430    7.0507   -3.0049 F   0  0  0  0  0  0  0  0  0  0  0  0
    6.1441    5.5883   -1.1599 C   0  0  0  0  0  0  0  0  0  0  0  0
    5.7897    5.2935    0.1522 C   0  0  0  0  0  0  0  0  0  0  0  0
    1.9797    2.8727    2.5099 C   0  0  0  0  0  0  0  0  0  0  0  0
    0.8052    3.5371    2.5243 O   0  0  0  0  0  0  0  0  0  0  0  0
   -0.4183    2.8163    2.5328 C   0  0  0  0  0  0  0  0  0  0  0  0
    1.9840    1.4816    2.5026 C   0  0  0  0  0  0  0  0  0  0  0  0
    3.2010    0.8072    2.4870 C   0  0  0  0  0  0  0  0  0  0  0  0
    8.0142   -0.7706    1.7015 C   0  0  0  0  0  0  0  0  0  0  0  0
    5.4355   -3.2745    1.1418 C   0  0  0  0  0  0  0  0  0  0  0  0
    8.2881   -3.9351    0.0605 C   0  0  0  0  0  0  0  0  0  0  0  0
    9.6042   -4.0807   -0.3633 C   0  0  0  0  0  0  0  0  0  0  0  0
   10.7253   -1.1938    0.7725 H   0  0  0  0  0  0  0  0  0  0  0  0
    6.4749    1.3602    2.4585 H   0  0  0  0  0  0  0  0  0  0  0  0
    5.2522    3.4239    2.4817 H   0  0  0  0  0  0  0  0  0  0  0  0
    2.2785    5.4721    2.5215 H   0  0  0  0  0  0  0  0  0  0  0  0
    3.9813    8.0081    0.7932 H   0  0  0  0  0  0  0  0  0  0  0  0
    4.5967    8.5066   -1.4688 H   0  0  0  0  0  0  0  0  0  0  0  0
    6.7148    4.9519   -1.6788 H   0  0  0  0  0  0  0  0  0  0  0  0
    6.1025    4.4468    0.5825 H   0  0  0  0  0  0  0  0  0  0  0  0
   -1.1840    3.4593    2.5432 H   0  0  0  0  0  0  0  0  0  0  0  0
   -0.4741    2.2447    1.7142 H   0  0  0  0  0  0  0  0  0  0  0  0
   -0.4583    2.2371    3.3471 H   0  0  0  0  0  0  0  0  0  0  0  0
    1.1233    0.9726    2.5086 H   0  0  0  0  0  0  0  0  0  0  0  0
    3.2184   -0.1926    2.4809 H   0  0  0  0  0  0  0  0  0  0  0  0
    8.3653    0.1020    2.0409 H   0  0  0  0  0  0  0  0  0  0  0  0
    4.6766   -2.7925    1.5797 H   0  0  0  0  0  0  0  0  0  0  0  0
    5.2134   -3.4433    0.1815 H   0  0  0  0  0  0  0  0  0  0  0  0
    5.5892   -4.1465    1.6066 H   0  0  0  0  0  0  0  0  0  0  0  0
    7.6269   -4.6626   -0.1227 H   0  0  0  0  0  0  0  0  0  0  0  0
    9.8952   -4.9043   -0.8501 H   0  0  0  0  0  0  0  0  0  0  0  0
  1  2  1  0  0  0  0
  2  3  1  0  0  0  0
  3  4  2  0  0  0  0
  4  5  1  0  0  0  0
  5  6  1  0  0  0  0
  6  7  1  0  0  0  0
  7  8  1  0  0  0  0
  8  9  2  0  0  0  0
  8 10  1  0  0  0  0
 10 11  1  0  0  0  0
 11 12  1  0  0  0  0
 12 13  2  0  0  0  0
 13 14  1  0  0  0  0
 14 15  1  0  0  0  0
 15 16  2  0  0  0  0
 15 17  2  0  0  0  0
 15 18  1  0  0  0  0
 18 19  1  0  0  0  0
 19 20  2  0  0  0  0
 20 21  1  0  0  0  0
 21 22  1  0  0  0  0
 21 23  2  0  0  0  0
 23 24  1  0  0  0  0
 24 18  2  0  0  0  0
 13 25  1  0  0  0  0
 25 26  1  0  0  0  0
 26 27  1  0  0  0  0
 25 28  2  0  0  0  0
 28 29  1  0  0  0  0
 29 11  2  0  0  0  0
  7 30  2  0  0  0  0
 30  4  1  0  0  0  0
  6 31  1  0  0  0  0
  5 32  2  0  0  0  0
 32 33  1  0  0  0  0
 33  2  2  0  0  0  0
  3 34  1  0  0  0  0
 10 35  1  0  0  0  0
 12 36  1  0  0  0  0
 14 37  1  0  0  0  0
 19 38  1  0  0  0  0
 20 39  1  0  0  0  0
 23 40  1  0  0  0  0
 24 41  1  0  0  0  0
 27 42  1  0  0  0  0
 27 43  1  0  0  0  0
 27 44  1  0  0  0  0
 28 45  1  0  0  0  0
 29 46  1  0  0  0  0
 30 47  1  0  0  0  0
 31 48  1  0  0  0  0
 31 49  1  0  0  0  0
 31 50  1  0  0  0  0
 32 51  1  0  0  0  0
 33 52  1  0  0  0  0
M  END
>  <result-rank>
34

>  <similarity>
0.908

>  <query-name>


>  <query-smiles>
S(=O)(=O)(Nc1cc2c(NN=C2C=3Nc4c(ccc(c4)C)C3)cc1)c5cc(F)ccc5

>  <source>
REALspace_2019-12

>  <similarity-descriptor>
1.000;0.863;0.953;0.602;0.979;1.000;1.000;0.953;0.273

>  <similarity-descriptor-smiles>
c1ccc(cc1)F;c1C=CNc1;Clc1ccccc1;C(=O)N;c1ccccc1;S(=O)=O;N;Clc1ccccc1;O.C.C

>  <reaction-name>
s_527a

>  <reagent1-name>
214634

>  <reagent1-smiles>
[R1*]Nc1cc(NS(=O)(=O)c2ccc(F)cc2)c(OC)cc1

>  <reagent2-name>
16899706

>  <reagent2-smiles>
[R1*]C(=O)C=1N(c2c(cc(Cl)cc2)C1)C

$$$$
s_20____3082154____79206
          04022017313D 1   1.00000     0.00000     0
            
 43 46  0  0  0  0            999 V2000
    8.8216    3.2605    6.9737 Cl  0  0  0  0  0  0  0  0  0  0  0  0
    8.3409    2.3982    5.4929 C   0  0  0  0  0  0  0  0  0  0  0  0
    8.6524    1.0546    5.3118 C   0  0  0  0  0  0  0  0  0  0  0  0
    8.2663    0.4022    4.1456 C   0  0  0  0  0  0  0  0  0  0  0  0
    8.5737   -0.8936    3.9858 N   0  0  0  0  0  0  0  0  0  0  0  0
    8.2228   -1.5663    2.8798 C   0  0  0  0  0  0  0  0  0  0  0  0
    7.5234   -0.9369    1.8557 C   0  0  0  0  0  0  0  0  0  0  0  0
    7.1944    0.4065    2.0005 C   0  0  0  0  0  0  0  0  0  0  0  0
    6.5147    1.0048    0.9975 O   0  0  0  0  0  0  0  0  0  0  0  0
    5.1658    1.0015    1.0010 C   0  0  0  0  0  0  0  0  0  0  0  0
    4.4691    1.7051    0.0249 C   0  0  0  0  0  0  0  0  0  0  0  0
    5.1364    2.3779   -0.9068 F   0  0  0  0  0  0  0  0  0  0  0  0
    3.0784    1.7102    0.0160 C   0  0  0  0  0  0  0  0  0  0  0  0
    2.3997    1.0000    1.0000 C   0  0  0  0  0  0  0  0  0  0  0  0
    1.0000    1.0000    1.0000 N   0  0  0  0  0  0  0  0  0  0  0  0
    0.1850   -0.4115    0.9807 S   0  0  0  0  0  0  0  0  0  0  0  0
   -1.1206   -0.2041    0.4097 O   0  0  0  0  0  0  0  0  0  0  0  0
    0.9081   -1.3725    0.1887 O   0  0  0  0  0  0  0  0  0  0  0  0
    0.0188   -1.0077    2.6071 C   0  0  0  0  0  0  0  0  0  0  0  0
   -0.7802   -0.3211    3.5153 C   0  0  0  0  0  0  0  0  0  0  0  0
   -0.8998   -0.8134    4.8105 C   0  0  0  0  0  0  0  0  0  0  0  0
   -1.6625   -0.1593    5.6815 F   0  0  0  0  0  0  0  0  0  0  0  0
   -0.2342   -1.9721    5.1975 C   0  0  0  0  0  0  0  0  0  0  0  0
    0.5621   -2.6492    4.2796 C   0  0  0  0  0  0  0  0  0  0  0  0
    0.6902   -2.1673    2.9809 C   0  0  0  0  0  0  0  0  0  0  0  0
    3.0827    0.2912    1.9833 C   0  0  0  0  0  0  0  0  0  0  0  0
    4.4740    0.2944    1.9796 C   0  0  0  0  0  0  0  0  0  0  0  0
    7.5675    1.0887    3.1567 C   0  0  0  0  0  0  0  0  0  0  0  0
    7.2662    2.4327    3.3588 C   0  0  0  0  0  0  0  0  0  0  0  0
    7.6436    3.1024    4.5178 C   0  0  0  0  0  0  0  0  0  0  0  0
    9.1540    0.5578    6.0200 H   0  0  0  0  0  0  0  0  0  0  0  0
    8.4669   -2.5319    2.7905 H   0  0  0  0  0  0  0  0  0  0  0  0
    7.2624   -1.4401    1.0320 H   0  0  0  0  0  0  0  0  0  0  0  0
    2.5757    2.2156   -0.6854 H   0  0  0  0  0  0  0  0  0  0  0  0
    0.5000    1.8659    1.0119 H   0  0  0  0  0  0  0  0  0  0  0  0
   -1.2605    0.5122    3.2416 H   0  0  0  0  0  0  0  0  0  0  0  0
   -0.3277   -2.3167    6.1316 H   0  0  0  0  0  0  0  0  0  0  0  0
    1.0424   -3.4825    4.5533 H   0  0  0  0  0  0  0  0  0  0  0  0
    1.2621   -2.6521    2.3193 H   0  0  0  0  0  0  0  0  0  0  0  0
    2.5797   -0.2144    2.6842 H   0  0  0  0  0  0  0  0  0  0  0  0
    4.9769   -0.2116    2.6803 H   0  0  0  0  0  0  0  0  0  0  0  0
    6.7647    2.9303    2.6511 H   0  0  0  0  0  0  0  0  0  0  0  0
    7.4186    4.0682    4.6468 H   0  0  0  0  0  0  0  0  0  0  0  0
  1  2  1  0  0  0  0
  2  3  1  0  0  0  0
  3  4  2  0  0  0  0
  4  5  1  0  0  0  0
  5  6  2  0  0  0  0
  6  7  1  0  0  0  0
  7  8  2  0  0  0  0
  8  9  1  0  0  0  0
  9 10  1  0  0  0  0
 10 11  1  0  0  0  0
 11 12  1  0  0  0  0
 11 13  2  0  0  0  0
 13 14  1  0  0  0  0
 14 15  1  0  0  0  0
 15 16  1  0  0  0  0
 16 17  2  0  0  0  0
 16 18  2  0  0  0  0
 16 19  1  0  0  0  0
 19 20  1  0  0  0  0
 20 21  2  0  0  0  0
 21 22  1  0  0  0  0
 21 23  1  0  0  0  0
 23 24  2  0  0  0  0
 24 25  1  0  0  0  0
 25 19  2  0  0  0  0
 14 26  2  0  0  0  0
 26 27  1  0  0  0  0
 27 10  2  0  0  0  0
  8 28  1  0  0  0  0
 28  4  1  0  0  0  0
 28 29  2  0  0  0  0
 29 30  1  0  0  0  0
 30  2  2  0  0  0  0
  3 31  1  0  0  0  0
  6 32  1  0  0  0  0
  7 33  1  0  0  0  0
 13 34  1  0  0  0  0
 15 35  1  0  0  0  0
 20 36  1  0  0  0  0
 23 37  1  0  0  0  0
 24 38  1  0  0  0  0
 25 39  1  0  0  0  0
 26 40  1  0  0  0  0
 27 41  1  0  0  0  0
 29 42  1  0  0  0  0
 30 43  1  0  0  0  0
M  END
>  <result-rank>
35

>  <similarity>
0.908

>  <query-name>


>  <query-smiles>
S(=O)(=O)(Nc1cc2c(NN=C2C=3Nc4c(ccc(c4)C)C3)cc1)c5cc(F)ccc5

>  <source>
REALspace_2019-12

>  <similarity-descriptor>
1.000;0.671;0.953;0.671;0.950;1.000;1.000;0.953;0.0

>  <similarity-descriptor-smiles>
c1cccc(c1)F;c1ccccn1;Clc1ccccc1;c1ccccn1;Oc1ccccc1F;S(=O)=O;N;Clc1ccccc1;

>  <reaction-name>
s_20

>  <reagent1-name>
3082154

>  <reagent1-smiles>
[R1*]Nc1cc(F)c(Oc2c3c(ncc2)cc(Cl)cc3)cc1

>  <reagent2-name>
79206

>  <reagent2-smiles>
[R1*]S(=O)(=O)c1cc(F)ccc1

$$$$
s_22____751982____13309224
          04022017313D 1   1.00000     0.00000     0
            
 50 53  0  0  0  0            999 V2000
    5.2489   -0.6097   -2.1938 S   0  0  0  0  0  0  0  0  0  0  0  0
    6.1908   -1.5418   -2.7573 O   0  0  0  0  0  0  0  0  0  0  0  0
    3.9502   -0.8284   -2.7761 O   0  0  0  0  0  0  0  0  0  0  0  0
    5.1652   -0.8298   -0.5809 N   0  0  0  0  0  0  0  0  0  0  0  0
    4.4774    0.0926    0.2168 C   0  0  0  0  0  0  0  0  0  0  0  0
    5.1709    1.0042    1.0072 C   0  0  0  0  0  0  0  0  0  0  0  0
    4.4742    1.9160    1.7943 C   0  0  0  0  0  0  0  0  0  0  0  0
    3.0830    1.9166    1.7935 C   0  0  0  0  0  0  0  0  0  0  0  0
    2.4003    1.0000    1.0000 C   0  0  0  0  0  0  0  0  0  0  0  0
    1.0000    1.0000    1.0000 N   0  0  0  0  0  0  0  0  0  0  0  0
    0.3150   -0.1863    0.9828 C   0  0  0  0  0  0  0  0  0  0  0  0
    0.8607   -1.1993    1.3235 O   0  0  0  0  0  0  0  0  0  0  0  0
   -1.0694   -0.2180    0.5528 C   0  0  0  0  0  0  0  0  0  0  0  0
   -1.8259   -1.2861    0.4934 O   0  0  0  0  0  0  0  0  0  0  0  0
   -3.0310   -0.9821    0.0648 C   0  0  0  0  0  0  0  0  0  0  0  0
   -3.0816    0.3690   -0.1773 C   0  0  0  0  0  0  0  0  0  0  0  0
   -4.2440    0.9791   -0.6409 C   0  0  0  0  0  0  0  0  0  0  0  0
   -5.3871    0.2197   -0.8689 C   0  0  0  0  0  0  0  0  0  0  0  0
   -5.3469   -1.1497   -0.6263 C   0  0  0  0  0  0  0  0  0  0  0  0
   -4.1750   -1.7405   -0.1636 C   0  0  0  0  0  0  0  0  0  0  0  0
   -4.3072    2.4739   -0.9111 C   0  0  0  0  0  0  0  0  0  0  0  0
   -1.7958    0.8577    0.1438 C   0  0  0  0  0  0  0  0  0  0  0  0
    3.0865    0.0844    0.2087 C   0  0  0  0  0  0  0  0  0  0  0  0
    6.6911    1.0057    1.0096 C   0  0  0  0  0  0  0  0  0  0  0  0
    5.7693    1.0158   -2.5310 C   0  0  0  0  0  0  0  0  0  0  0  0
    7.1261    1.2965   -2.6555 C   0  0  0  0  0  0  0  0  0  0  0  0
    7.5285    2.6007   -2.9255 C   0  0  0  0  0  0  0  0  0  0  0  0
    6.5856    3.6132   -3.0683 C   0  0  0  0  0  0  0  0  0  0  0  0
    5.2314    3.3220   -2.9411 C   0  0  0  0  0  0  0  0  0  0  0  0
    4.8180    2.0216   -2.6715 C   0  0  0  0  0  0  0  0  0  0  0  0
    5.6052   -1.6237   -0.1612 H   0  0  0  0  0  0  0  0  0  0  0  0
    4.9739    2.5713    2.3609 H   0  0  0  0  0  0  0  0  0  0  0  0
    2.5783    2.5697    2.3580 H   0  0  0  0  0  0  0  0  0  0  0  0
    0.5000    1.8659    1.0126 H   0  0  0  0  0  0  0  0  0  0  0  0
   -6.2251    0.6517   -1.2022 H   0  0  0  0  0  0  0  0  0  0  0  0
   -6.1603   -1.7095   -0.7845 H   0  0  0  0  0  0  0  0  0  0  0  0
   -4.1547   -2.7255    0.0074 H   0  0  0  0  0  0  0  0  0  0  0  0
   -5.2216    2.7156   -1.2359 H   0  0  0  0  0  0  0  0  0  0  0  0
   -4.1101    2.9738   -0.0678 H   0  0  0  0  0  0  0  0  0  0  0  0
   -3.6315    2.7157   -1.6076 H   0  0  0  0  0  0  0  0  0  0  0  0
   -1.4819    1.8052    0.0829 H   0  0  0  0  0  0  0  0  0  0  0  0
    2.5867   -0.5707   -0.3580 H   0  0  0  0  0  0  0  0  0  0  0  0
    7.0227    1.7185    1.6275 H   0  0  0  0  0  0  0  0  0  0  0  0
    7.0248    0.1150    1.3185 H   0  0  0  0  0  0  0  0  0  0  0  0
    7.0257    1.1844    0.0843 H   0  0  0  0  0  0  0  0  0  0  0  0
    7.8045    0.5691   -2.5521 H   0  0  0  0  0  0  0  0  0  0  0  0
    8.5017    2.8115   -3.0174 H   0  0  0  0  0  0  0  0  0  0  0  0
    6.8807    4.5488   -3.2621 H   0  0  0  0  0  0  0  0  0  0  0  0
    4.5532    4.0496   -3.0437 H   0  0  0  0  0  0  0  0  0  0  0  0
    3.8447    1.8111   -2.5794 H   0  0  0  0  0  0  0  0  0  0  0  0
  1  2  2  0  0  0  0
  1  3  2  0  0  0  0
  1  4  1  0  0  0  0
  4  5  1  0  0  0  0
  5  6  1  0  0  0  0
  6  7  2  0  0  0  0
  7  8  1  0  0  0  0
  8  9  2  0  0  0  0
  9 10  1  0  0  0  0
 10 11  1  0  0  0  0
 11 12  2  0  0  0  0
 11 13  1  0  0  0  0
 13 14  1  0  0  0  0
 14 15  1  0  0  0  0
 15 16  1  0  0  0  0
 16 17  2  0  0  0  0
 17 18  1  0  0  0  0
 18 19  2  0  0  0  0
 19 20  1  0  0  0  0
 20 15  2  0  0  0  0
 17 21  1  0  0  0  0
 16 22  1  0  0  0  0
 13 22  2  0  0  0  0
  9 23  1  0  0  0  0
 23  5  2  0  0  0  0
  6 24  1  0  0  0  0
  1 25  1  0  0  0  0
 25 26  1  0  0  0  0
 26 27  2  0  0  0  0
 27 28  1  0  0  0  0
 28 29  2  0  0  0  0
 29 30  1  0  0  0  0
 30 25  2  0  0  0  0
  4 31  1  0  0  0  0
  7 32  1  0  0  0  0
  8 33  1  0  0  0  0
 10 34  1  0  0  0  0
 18 35  1  0  0  0  0
 19 36  1  0  0  0  0
 20 37  1  0  0  0  0
 21 38  1  0  0  0  0
 21 39  1  0  0  0  0
 21 40  1  0  0  0  0
 22 41  1  0  0  0  0
 23 42  1  0  0  0  0
 24 43  1  0  0  0  0
 24 44  1  0  0  0  0
 24 45  1  0  0  0  0
 26 46  1  0  0  0  0
 27 47  1  0  0  0  0
 28 48  1  0  0  0  0
 29 49  1  0  0  0  0
 30 50  1  0  0  0  0
M  END
>  <result-rank>
36

>  <similarity>
0.908

>  <query-name>


>  <query-smiles>
S(=O)(=O)(Nc1cc2c(NN=C2C=3Nc4c(ccc(c4)C)C3)cc1)c5cc(F)ccc5

>  <source>
REALspace_2019-12

>  <similarity-descriptor>
0.967;0.785;1.000;0.602;0.981;1.000;1.000;1.000;0.100

>  <similarity-descriptor-smiles>
c1ccccc1;C1=CccO1;c1ccccc1;NC=O;c1ccccc1;S(=O)=O;N;C;C

>  <reaction-name>
s_22

>  <reagent1-name>
751982

>  <reagent1-smiles>
[R1*]Nc1cc(NS(=O)(=O)c2ccccc2)c(cc1)C

>  <reagent2-name>
13309224

>  <reagent2-smiles>
[R1*]C(=O)C=1Oc2c(c(ccc2)C)C1

$$$$
s_22____13422042____467358
          04022017313D 1   1.00000     0.00000     0
            
 43 46  0  0  0  0            999 V2000
    3.9314   -1.3777    1.2489 S   0  0  0  0  0  0  0  0  0  0  0  0
    3.6231   -2.7808    1.3473 O   0  0  0  0  0  0  0  0  0  0  0  0
    3.4348   -0.8637   -0.0012 O   0  0  0  0  0  0  0  0  0  0  0  0
    3.2274   -0.5788    2.4829 N   0  0  0  0  0  0  0  0  0  0  0  0
    3.2063    0.8209    2.4893 C   0  0  0  0  0  0  0  0  0  0  0  0
    1.9866    1.4900    2.5045 C   0  0  0  0  0  0  0  0  0  0  0  0
    1.9777    2.8811    2.5108 C   0  0  0  0  0  0  0  0  0  0  0  0
    0.7870    3.5172    2.5262 O   0  0  0  0  0  0  0  0  0  0  0  0
    3.1737    3.5936    2.5011 C   0  0  0  0  0  0  0  0  0  0  0  0
    4.3880    2.9147    2.4850 C   0  0  0  0  0  0  0  0  0  0  0  0
    4.4071    1.5236    2.4787 C   0  0  0  0  0  0  0  0  0  0  0  0
    3.1538    5.0432    2.5080 C   0  0  0  0  0  0  0  0  0  0  0  0
    2.1731    5.6280    2.8769 O   0  0  0  0  0  0  0  0  0  0  0  0
    4.2547    5.7453    2.0934 N   0  0  0  0  0  0  0  0  0  0  0  0
    4.2355    7.1453    2.1001 C   0  0  0  0  0  0  0  0  0  0  0  0
    3.3336    7.9522    1.3729 C   0  0  0  0  0  0  0  0  0  0  0  0
    3.6791    9.2472    1.6770 C   0  0  0  0  0  0  0  0  0  0  0  0
    4.7346    9.2223    2.5418 N   0  0  0  0  0  0  0  0  0  0  0  0
    5.0886    7.9356    2.8099 C   0  0  0  0  0  0  0  0  0  0  0  0
    2.9738   10.3031    1.1070 C   0  0  0  0  0  0  0  0  0  0  0  0
    1.9221   10.0590    0.2309 C   0  0  0  0  0  0  0  0  0  0  0  0
    1.5673    8.7517   -0.0840 C   0  0  0  0  0  0  0  0  0  0  0  0
    2.2817    7.7078    0.4943 C   0  0  0  0  0  0  0  0  0  0  0  0
    5.6563   -1.1560    1.3231 C   0  0  0  0  0  0  0  0  0  0  0  0
    6.6788   -1.8283    2.5034 S   0  0  0  0  0  0  0  0  0  0  0  0
    8.1507   -1.1836    1.9340 C   0  0  0  0  0  0  0  0  0  0  0  0
    7.8145   -0.4530    0.8328 C   0  0  0  0  0  0  0  0  0  0  0  0
    6.4369   -0.4278    0.4791 C   0  0  0  0  0  0  0  0  0  0  0  0
    2.8105   -1.0885    3.2355 H   0  0  0  0  0  0  0  0  0  0  0  0
    1.1277    0.9778    2.5107 H   0  0  0  0  0  0  0  0  0  0  0  0
   -0.0620    2.9888    2.5330 H   0  0  0  0  0  0  0  0  0  0  0  0
    5.2471    3.4266    2.4780 H   0  0  0  0  0  0  0  0  0  0  0  0
    5.2779    1.0321    2.4666 H   0  0  0  0  0  0  0  0  0  0  0  0
    5.0720    5.2579    1.7860 H   0  0  0  0  0  0  0  0  0  0  0  0
    5.1824   10.0311    2.9228 H   0  0  0  0  0  0  0  0  0  0  0  0
    5.8286    7.6306    3.4093 H   0  0  0  0  0  0  0  0  0  0  0  0
    3.2255   11.2450    1.3295 H   0  0  0  0  0  0  0  0  0  0  0  0
    1.4205   10.8240   -0.1730 H   0  0  0  0  0  0  0  0  0  0  0  0
    0.8132    8.5658   -0.7139 H   0  0  0  0  0  0  0  0  0  0  0  0
    2.0351    6.7639    0.2749 H   0  0  0  0  0  0  0  0  0  0  0  0
    9.0627   -1.3132    2.3231 H   0  0  0  0  0  0  0  0  0  0  0  0
    8.5022    0.0406    0.3004 H   0  0  0  0  0  0  0  0  0  0  0  0
    6.0789    0.0735   -0.3087 H   0  0  0  0  0  0  0  0  0  0  0  0
  1  2  2  0  0  0  0
  1  3  2  0  0  0  0
  1  4  1  0  0  0  0
  4  5  1  0  0  0  0
  5  6  1  0  0  0  0
  6  7  2  0  0  0  0
  7  8  1  0  0  0  0
  7  9  1  0  0  0  0
  9 10  2  0  0  0  0
 10 11  1  0  0  0  0
 11  5  2  0  0  0  0
  9 12  1  0  0  0  0
 12 13  2  0  0  0  0
 12 14  1  0  0  0  0
 14 15  1  0  0  0  0
 15 16  1  0  0  0  0
 16 17  1  0  0  0  0
 17 18  1  0  0  0  0
 18 19  1  0  0  0  0
 15 19  2  0  0  0  0
 17 20  2  0  0  0  0
 20 21  1  0  0  0  0
 21 22  2  0  0  0  0
 22 23  1  0  0  0  0
 23 16  2  0  0  0  0
  1 24  1  0  0  0  0
 24 25  1  0  0  0  0
 25 26  1  0  0  0  0
 26 27  2  0  0  0  0
 27 28  1  0  0  0  0
 24 28  2  0  0  0  0
  4 29  1  0  0  0  0
  6 30  1  0  0  0  0
  8 31  1  0  0  0  0
 10 32  1  0  0  0  0
 11 33  1  0  0  0  0
 14 34  1  0  0  0  0
 18 35  1  0  0  0  0
 19 36  1  0  0  0  0
 20 37  1  0  0  0  0
 21 38  1  0  0  0  0
 22 39  1  0  0  0  0
 23 40  1  0  0  0  0
 26 41  1  0  0  0  0
 27 42  1  0  0  0  0
 28 43  1  0  0  0  0
M  END
>  <result-rank>
37

>  <similarity>
0.908

>  <query-name>


>  <query-smiles>
S(=O)(=O)(Nc1cc2c(NN=C2C=3Nc4c(ccc(c4)C)C3)cc1)c5cc(F)ccc5

>  <source>
REALspace_2019-12

>  <similarity-descriptor>
0.907;0.996;0.953;0.603;0.981;0.999;1.000;0.0;0.111

>  <similarity-descriptor-smiles>
C1=CC=CS1;C1=CNcc1;c1ccccc1;C(=O)N;c1ccccc1;S(=O)=O;N;;O

>  <reaction-name>
s_22

>  <reagent1-name>
13422042

>  <reagent1-smiles>
[R1*]NC=1c2c(NC1)cccc2

>  <reagent2-name>
467358

>  <reagent2-smiles>
[R1*]C(=O)c1c(O)cc(NS(=O)(=O)C=2SC=CC2)cc1

$$$$
s_22____765234____323328
          04022017313D 1   1.00000     0.00000     0
            
 51 54  0  0  0  0            999 V2000
    6.9855    9.6253    2.7125 F   0  0  0  0  0  0  0  0  0  0  0  0
    5.8866    8.9420    3.0197 C   0  0  0  0  0  0  0  0  0  0  0  0
    5.6703    7.6915    2.4515 C   0  0  0  0  0  0  0  0  0  0  0  0
    4.5142    6.9936    2.7847 C   0  0  0  0  0  0  0  0  0  0  0  0
    3.5862    7.5309    3.6714 C   0  0  0  0  0  0  0  0  0  0  0  0
    3.8146    8.7821    4.2332 C   0  0  0  0  0  0  0  0  0  0  0  0
    4.9670    9.4902    3.9077 C   0  0  0  0  0  0  0  0  0  0  0  0
    4.2842    5.6894    2.1950 C   0  0  0  0  0  0  0  0  0  0  0  0
    5.0857    5.2265    1.4313 O   0  0  0  0  0  0  0  0  0  0  0  0
    3.1519    4.9853    2.5098 N   0  0  0  0  0  0  0  0  0  0  0  0
    3.1731    3.5859    2.5017 C   0  0  0  0  0  0  0  0  0  0  0  0
    1.9797    2.8727    2.5099 C   0  0  0  0  0  0  0  0  0  0  0  0
    0.8052    3.5371    2.5243 O   0  0  0  0  0  0  0  0  0  0  0  0
   -0.4183    2.8163    2.5328 C   0  0  0  0  0  0  0  0  0  0  0  0
    1.9840    1.4816    2.5026 C   0  0  0  0  0  0  0  0  0  0  0  0
    3.2010    0.8072    2.4870 C   0  0  0  0  0  0  0  0  0  0  0  0
    4.3934    1.5236    2.4797 C   0  0  0  0  0  0  0  0  0  0  0  0
    5.6179    0.8451    2.4642 N   0  0  0  0  0  0  0  0  0  0  0  0
    5.6419   -0.5247    2.4569 C   0  0  0  0  0  0  0  0  0  0  0  0
    4.7577   -1.1431    2.9820 O   0  0  0  0  0  0  0  0  0  0  0  0
    6.7361   -1.2274    1.8144 C   0  0  0  0  0  0  0  0  0  0  0  0
    6.8667   -2.5827    1.7441 N   0  0  0  0  0  0  0  0  0  0  0  0
    8.0198   -2.8561    1.0683 C   0  0  0  0  0  0  0  0  0  0  0  0
    8.6203   -1.6737    0.7058 C   0  0  0  0  0  0  0  0  0  0  0  0
    9.8205   -1.7233    0.0014 C   0  0  0  0  0  0  0  0  0  0  0  0
   10.4267   -2.9254   -0.3526 C   0  0  0  0  0  0  0  0  0  0  0  0
    9.8006   -4.1103    0.0201 C   0  0  0  0  0  0  0  0  0  0  0  0
    8.6037   -4.0717    0.7278 C   0  0  0  0  0  0  0  0  0  0  0  0
   11.7336   -2.9906   -1.1259 C   0  0  0  0  0  0  0  0  0  0  0  0
    7.7940   -0.6326    1.1928 C   0  0  0  0  0  0  0  0  0  0  0  0
    4.3916    2.9147    2.4870 C   0  0  0  0  0  0  0  0  0  0  0  0
    6.3345    7.3006    1.8143 H   0  0  0  0  0  0  0  0  0  0  0  0
    2.7588    7.0196    3.9035 H   0  0  0  0  0  0  0  0  0  0  0  0
    3.1509    9.1728    4.8710 H   0  0  0  0  0  0  0  0  0  0  0  0
    5.1337   10.3901    4.3107 H   0  0  0  0  0  0  0  0  0  0  0  0
    2.3103    5.4713    2.7453 H   0  0  0  0  0  0  0  0  0  0  0  0
   -1.1840    3.4593    2.5432 H   0  0  0  0  0  0  0  0  0  0  0  0
   -0.4741    2.2447    1.7142 H   0  0  0  0  0  0  0  0  0  0  0  0
   -0.4583    2.2371    3.3471 H   0  0  0  0  0  0  0  0  0  0  0  0
    1.1233    0.9726    2.5086 H   0  0  0  0  0  0  0  0  0  0  0  0
    3.2184   -0.1926    2.4809 H   0  0  0  0  0  0  0  0  0  0  0  0
    6.4749    1.3602    2.4585 H   0  0  0  0  0  0  0  0  0  0  0  0
    6.2307   -3.2562    2.1207 H   0  0  0  0  0  0  0  0  0  0  0  0
   10.2625   -0.8650   -0.2593 H   0  0  0  0  0  0  0  0  0  0  0  0
   10.2109   -4.9899   -0.2207 H   0  0  0  0  0  0  0  0  0  0  0  0
    8.1585   -4.9265    0.9944 H   0  0  0  0  0  0  0  0  0  0  0  0
   11.9871   -3.9468   -1.2721 H   0  0  0  0  0  0  0  0  0  0  0  0
   11.6210   -2.5366   -2.0098 H   0  0  0  0  0  0  0  0  0  0  0  0
   12.4527   -2.5311   -0.6045 H   0  0  0  0  0  0  0  0  0  0  0  0
    7.9552    0.3499    1.0991 H   0  0  0  0  0  0  0  0  0  0  0  0
    5.2522    3.4239    2.4817 H   0  0  0  0  0  0  0  0  0  0  0  0
  1  2  1  0  0  0  0
  2  3  1  0  0  0  0
  3  4  2  0  0  0  0
  4  5  1  0  0  0  0
  5  6  2  0  0  0  0
  6  7  1  0  0  0  0
  7  2  2  0  0  0  0
  4  8  1  0  0  0  0
  8  9  2  0  0  0  0
  8 10  1  0  0  0  0
 10 11  1  0  0  0  0
 11 12  1  0  0  0  0
 12 13  1  0  0  0  0
 13 14  1  0  0  0  0
 12 15  2  0  0  0  0
 15 16  1  0  0  0  0
 16 17  2  0  0  0  0
 17 18  1  0  0  0  0
 18 19  1  0  0  0  0
 19 20  2  0  0  0  0
 19 21  1  0  0  0  0
 21 22  1  0  0  0  0
 22 23  1  0  0  0  0
 23 24  1  0  0  0  0
 24 25  2  0  0  0  0
 25 26  1  0  0  0  0
 26 27  2  0  0  0  0
 27 28  1  0  0  0  0
 28 23  2  0  0  0  0
 26 29  1  0  0  0  0
 24 30  1  0  0  0  0
 21 30  2  0  0  0  0
 17 31  1  0  0  0  0
 31 11  2  0  0  0  0
  3 32  1  0  0  0  0
  5 33  1  0  0  0  0
  6 34  1  0  0  0  0
  7 35  1  0  0  0  0
 10 36  1  0  0  0  0
 14 37  1  0  0  0  0
 14 38  1  0  0  0  0
 14 39  1  0  0  0  0
 15 40  1  0  0  0  0
 16 41  1  0  0  0  0
 18 42  1  0  0  0  0
 22 43  1  0  0  0  0
 25 44  1  0  0  0  0
 27 45  1  0  0  0  0
 28 46  1  0  0  0  0
 29 47  1  0  0  0  0
 29 48  1  0  0  0  0
 29 49  1  0  0  0  0
 30 50  1  0  0  0  0
 31 51  1  0  0  0  0
M  END
>  <result-rank>
38

>  <similarity>
0.907

>  <query-name>


>  <query-smiles>
S(=O)(=O)(Nc1cc2c(NN=C2C=3Nc4c(ccc(c4)C)C3)cc1)c5cc(F)ccc5

>  <source>
REALspace_2019-12

>  <similarity-descriptor>
0.999;1.000;1.000;0.602;0.979;0.626;0.982;1.000;0.182

>  <similarity-descriptor-smiles>
Fc1ccccc1;C1=CccN1;c1ccccc1;NC=O;c1ccccc1;C=O;N;C;O.C

>  <reaction-name>
s_22

>  <reagent1-name>
765234

>  <reagent1-smiles>
[R1*]Nc1cc(NC(=O)c2cc(F)ccc2)c(OC)cc1

>  <reagent2-name>
323328

>  <reagent2-smiles>
[R1*]C(=O)C=1Nc2c(cc(cc2)C)C1

$$$$
s_60____14805780____90889
          04022017313D 1   1.00000     0.00000     0
            
 44 48  0  0  0  0            999 V2000
    1.8095    0.1464   -1.8425 Cl  0  0  0  0  0  0  0  0  0  0  0  0
    2.9214   -0.6726   -0.7188 C   0  0  0  0  0  0  0  0  0  0  0  0
    3.0950   -0.1799    0.5705 C   0  0  0  0  0  0  0  0  0  0  0  0
    3.9628   -0.8210    1.4485 C   0  0  0  0  0  0  0  0  0  0  0  0
    4.6582   -1.9527    1.0368 C   0  0  0  0  0  0  0  0  0  0  0  0
    4.4849   -2.4446   -0.2529 C   0  0  0  0  0  0  0  0  0  0  0  0
    3.6164   -1.8046   -1.1302 C   0  0  0  0  0  0  0  0  0  0  0  0
    2.3700    1.0000    1.0000 C   0  0  0  0  0  0  0  0  0  0  0  0
    2.9700    1.9766    1.3554 O   0  0  0  0  0  0  0  0  0  0  0  0
    1.0000    1.0000    1.0000 N   0  0  0  0  0  0  0  0  0  0  0  0
    0.2998    2.2128    1.0000 C   0  0  0  0  0  0  0  0  0  0  0  0
    0.7598    3.2701    0.2221 C   0  0  0  0  0  0  0  0  0  0  0  0
    0.0557    4.4698    0.2296 C   0  0  0  0  0  0  0  0  0  0  0  0
   -1.0916    4.6198    1.0010 C   0  0  0  0  0  0  0  0  0  0  0  0
   -1.5335    3.5492    1.7712 C   0  0  0  0  0  0  0  0  0  0  0  0
   -0.8456    2.3404    1.7786 C   0  0  0  0  0  0  0  0  0  0  0  0
    0.5304    5.5744   -0.5809 C   0  0  0  0  0  0  0  0  0  0  0  0
   -0.1986    6.5958   -0.9709 N   0  0  0  0  0  0  0  0  0  0  0  0
    0.5995    7.4178   -1.7125 C   0  0  0  0  0  0  0  0  0  0  0  0
    1.8612    6.8769   -1.7654 C   0  0  0  0  0  0  0  0  0  0  0  0
    1.8016    5.7119   -1.0549 N   0  0  0  0  0  0  0  0  0  0  0  0
    2.8047    7.5996   -2.4914 C   0  0  0  0  0  0  0  0  0  0  0  0
    2.4994    8.7575   -3.0998 N   0  0  0  0  0  0  0  0  0  0  0  0
    1.2662    9.2881   -3.0449 C   0  0  0  0  0  0  0  0  0  0  0  0
    0.2757    8.6159   -2.3383 C   0  0  0  0  0  0  0  0  0  0  0  0
   -1.0143    9.1290   -2.2590 C   0  0  0  0  0  0  0  0  0  0  0  0
   -1.3254   10.3280   -2.8902 C   0  0  0  0  0  0  0  0  0  0  0  0
   -0.3463   11.0133   -3.6000 C   0  0  0  0  0  0  0  0  0  0  0  0
    0.9401   10.4879   -3.6702 C   0  0  0  0  0  0  0  0  0  0  0  0
    4.0866   -0.4680    2.3759 H   0  0  0  0  0  0  0  0  0  0  0  0
    5.2828   -2.4129    1.6677 H   0  0  0  0  0  0  0  0  0  0  0  0
    4.9849   -3.2584   -0.5491 H   0  0  0  0  0  0  0  0  0  0  0  0
    3.4916   -2.1585   -2.0571 H   0  0  0  0  0  0  0  0  0  0  0  0
    0.5000    0.1340    1.0000 H   0  0  0  0  0  0  0  0  0  0  0  0
    1.5846    3.1693   -0.3343 H   0  0  0  0  0  0  0  0  0  0  0  0
   -1.5921    5.4855    1.0019 H   0  0  0  0  0  0  0  0  0  0  0  0
   -2.3581    3.6501    2.3278 H   0  0  0  0  0  0  0  0  0  0  0  0
   -1.1694    1.5752    2.3349 H   0  0  0  0  0  0  0  0  0  0  0  0
    2.5566    5.0727   -0.9083 H   0  0  0  0  0  0  0  0  0  0  0  0
    3.7373    7.2459   -2.5618 H   0  0  0  0  0  0  0  0  0  0  0  0
   -1.7181    8.6356   -1.7479 H   0  0  0  0  0  0  0  0  0  0  0  0
   -2.2530   10.6972   -2.8337 H   0  0  0  0  0  0  0  0  0  0  0  0
   -0.5645   11.8761   -4.0560 H   0  0  0  0  0  0  0  0  0  0  0  0
    1.6443   10.9821   -4.1800 H   0  0  0  0  0  0  0  0  0  0  0  0
  1  2  1  0  0  0  0
  2  3  1  0  0  0  0
  3  4  2  0  0  0  0
  4  5  1  0  0  0  0
  5  6  2  0  0  0  0
  6  7  1  0  0  0  0
  7  2  2  0  0  0  0
  3  8  1  0  0  0  0
  8  9  2  0  0  0  0
  8 10  1  0  0  0  0
 10 11  1  0  0  0  0
 11 12  1  0  0  0  0
 12 13  2  0  0  0  0
 13 14  1  0  0  0  0
 14 15  2  0  0  0  0
 15 16  1  0  0  0  0
 16 11  2  0  0  0  0
 13 17  1  0  0  0  0
 17 18  2  0  0  0  0
 18 19  1  0  0  0  0
 19 20  1  0  0  0  0
 20 21  1  0  0  0  0
 21 17  1  0  0  0  0
 20 22  2  0  0  0  0
 22 23  1  0  0  0  0
 23 24  2  0  0  0  0
 24 25  1  0  0  0  0
 25 19  2  0  0  0  0
 25 26  1  0  0  0  0
 26 27  2  0  0  0  0
 27 28  1  0  0  0  0
 28 29  2  0  0  0  0
 29 24  1  0  0  0  0
  4 30  1  0  0  0  0
  5 31  1  0  0  0  0
  6 32  1  0  0  0  0
  7 33  1  0  0  0  0
 10 34  1  0  0  0  0
 12 35  1  0  0  0  0
 14 36  1  0  0  0  0
 15 37  1  0  0  0  0
 16 38  1  0  0  0  0
 21 39  1  0  0  0  0
 22 40  1  0  0  0  0
 26 41  1  0  0  0  0
 27 42  1  0  0  0  0
 28 43  1  0  0  0  0
 29 44  1  0  0  0  0
M  END
>  <result-rank>
39

>  <similarity>
0.907

>  <query-name>


>  <query-smiles>
S(=O)(=O)(Nc1cc2c(NN=C2C=3Nc4c(ccc(c4)C)C3)cc1)c5cc(F)ccc5

>  <source>
REALspace_2019-12

>  <similarity-descriptor>
0.986;0.765;0.953;0.999;0.938;0.626;0.982;0.0;0.0

>  <similarity-descriptor-smiles>
Clc1ccccc1;c1ccncc1;c1ccccc1;C=1NccN1;c1ccccc1;C=O;N;;

>  <reaction-name>
s_60

>  <reagent1-name>
14805780

>  <reagent1-smiles>
[R1*]C1=Nc2c(N1)c3c(nc2)cccc3

>  <reagent2-name>
90889

>  <reagent2-smiles>
[R1*]c1cc(NC(=O)c2c(Cl)cccc2)ccc1

$$$$
s_2230b____3049264____14478780
          04022017313D 1   1.00000     0.00000     0
            
 55 58  0  0  0  0            999 V2000
    9.5012    0.5065    5.8157 Br  0  0  0  0  0  0  0  0  0  0  0  0
    7.8777    0.7691    4.7485 C   0  0  0  0  0  0  0  0  0  0  0  0
    7.4159    2.0404    4.4163 C   0  0  0  0  0  0  0  0  0  0  0  0
    6.2611    2.2175    3.6597 C   0  0  0  0  0  0  0  0  0  0  0  0
    5.5781    1.1002    3.2373 C   0  0  0  0  0  0  0  0  0  0  0  0
    4.4858    1.4915    2.5155 N   0  0  0  0  0  0  0  0  0  0  0  0
    4.4772    2.8544    2.4752 C   0  0  0  0  0  0  0  0  0  0  0  0
    3.4797    3.6650    1.8032 C   0  0  0  0  0  0  0  0  0  0  0  0
    3.5635    4.8618    1.8274 O   0  0  0  0  0  0  0  0  0  0  0  0
    2.3281    2.9985    1.0682 C   0  0  0  0  0  0  0  0  0  0  0  0
    1.8487    1.8487    1.8487 N   0  3  3  0  0  0  0  0  0  0  0  0
    1.0000    1.0000    1.0000 C   0  0  0  0  0  0  0  0  0  0  0  0
    1.8777    0.1223    0.1223 C   0  0  0  0  0  0  0  0  0  0  0  0
    2.9070   -0.6091    0.7052 C   0  0  0  0  0  0  0  0  0  0  0  0
    3.7067   -1.4108   -0.1026 C   0  0  0  0  0  0  0  0  0  0  0  0
    4.7456   -2.1517    0.4725 N   0  0  0  0  0  0  0  0  0  0  0  0
    4.5395   -3.7383    0.7842 S   0  0  0  0  0  0  0  0  0  0  0  0
    4.5458   -4.4752   -0.4529 O   0  0  0  0  0  0  0  0  0  0  0  0
    5.6102   -4.2051    1.6264 O   0  0  0  0  0  0  0  0  0  0  0  0
    3.0184   -3.9774    1.5939 C   0  0  0  0  0  0  0  0  0  0  0  0
    1.8669   -4.2112    0.8491 C   0  0  0  0  0  0  0  0  0  0  0  0
    0.6571   -4.4010    1.5094 C   0  0  0  0  0  0  0  0  0  0  0  0
    0.5985   -4.3566    2.8984 C   0  0  0  0  0  0  0  0  0  0  0  0
    1.7555   -4.1213    3.6336 C   0  0  0  0  0  0  0  0  0  0  0  0
    2.9704   -3.9304    2.9838 C   0  0  0  0  0  0  0  0  0  0  0  0
    3.4908   -1.4887   -1.4741 C   0  0  0  0  0  0  0  0  0  0  0  0
    2.4558   -0.7487   -2.0351 C   0  0  0  0  0  0  0  0  0  0  0  0
    1.6427    0.0599   -1.2471 C   0  0  0  0  0  0  0  0  0  0  0  0
    1.0682    2.3281    2.9985 C   0  0  0  0  0  0  0  0  0  0  0  0
    5.5511    3.3365    3.1624 C   0  0  0  0  0  0  0  0  0  0  0  0
    6.0124   -0.1807    3.5539 C   0  0  0  0  0  0  0  0  0  0  0  0
    7.1667   -0.3446    4.3119 C   0  0  0  0  0  0  0  0  0  0  0  0
    2.6309    1.3178    2.1748 H   0  0  0  0  0  0  0  0  0  0  0  0
    7.9248    2.8429    4.7280 H   0  0  0  0  0  0  0  0  0  0  0  0
    3.8123    0.8857    2.0920 H   0  0  0  0  0  0  0  0  0  0  0  0
    1.5832    3.6552    0.9504 H   0  0  0  0  0  0  0  0  0  0  0  0
    2.6415    2.6854    0.1717 H   0  0  0  0  0  0  0  0  0  0  0  0
    0.4226    1.5774    0.4226 H   0  0  0  0  0  0  0  0  0  0  0  0
    0.4226    0.4226    1.5774 H   0  0  0  0  0  0  0  0  0  0  0  0
    3.0699   -0.5594    1.6906 H   0  0  0  0  0  0  0  0  0  0  0  0
    5.6142   -1.7077    0.6922 H   0  0  0  0  0  0  0  0  0  0  0  0
    1.9083   -4.2425   -0.1495 H   0  0  0  0  0  0  0  0  0  0  0  0
   -0.1755   -4.5705    0.9821 H   0  0  0  0  0  0  0  0  0  0  0  0
   -0.2739   -4.4935    3.3676 H   0  0  0  0  0  0  0  0  0  0  0  0
    1.7138   -4.0892    4.6322 H   0  0  0  0  0  0  0  0  0  0  0  0
    3.8029   -3.7608    3.5113 H   0  0  0  0  0  0  0  0  0  0  0  0
    4.0705   -2.0675   -2.0477 H   0  0  0  0  0  0  0  0  0  0  0  0
    2.2932   -0.7984   -3.0205 H   0  0  0  0  0  0  0  0  0  0  0  0
    0.9004    0.5882   -1.6591 H   0  0  0  0  0  0  0  0  0  0  0  0
    1.6456    2.9055    3.5758 H   0  0  0  0  0  0  0  0  0  0  0  0
    0.2861    2.8590    2.6723 H   0  0  0  0  0  0  0  0  0  0  0  0
    0.7421    1.5460    3.5294 H   0  0  0  0  0  0  0  0  0  0  0  0
    5.7917    4.2985    3.2909 H   0  0  0  0  0  0  0  0  0  0  0  0
    5.4989   -0.9790    3.2391 H   0  0  0  0  0  0  0  0  0  0  0  0
    7.4861   -1.2635    4.5435 H   0  0  0  0  0  0  0  0  0  0  0  0
  1  2  1  0  0  0  0
  2  3  1  0  0  0  0
  3  4  2  0  0  0  0
  4  5  1  0  0  0  0
  5  6  1  0  0  0  0
  6  7  1  0  0  0  0
  7  8  1  0  0  0  0
  8  9  2  0  0  0  0
  8 10  1  0  0  0  0
 10 11  1  0  0  0  0
 11 12  1  0  0  0  0
 12 13  1  0  0  0  0
 13 14  1  0  0  0  0
 14 15  2  0  0  0  0
 15 16  1  0  0  0  0
 16 17  1  0  0  0  0
 17 18  2  0  0  0  0
 17 19  2  0  0  0  0
 17 20  1  0  0  0  0
 20 21  1  0  0  0  0
 21 22  2  0  0  0  0
 22 23  1  0  0  0  0
 23 24  2  0  0  0  0
 24 25  1  0  0  0  0
 25 20  2  0  0  0  0
 15 26  1  0  0  0  0
 26 27  2  0  0  0  0
 27 28  1  0  0  0  0
 28 13  2  0  0  0  0
 11 29  1  0  0  0  0
  7 30  2  0  0  0  0
 30  4  1  0  0  0  0
  5 31  2  0  0  0  0
 31 32  1  0  0  0  0
 32  2  2  0  0  0  0
 11 33  1  0  0  0  0
  3 34  1  0  0  0  0
  6 35  1  0  0  0  0
 10 36  1  0  0  0  0
 10 37  1  0  0  0  0
 12 38  1  0  0  0  0
 12 39  1  0  0  0  0
 14 40  1  0  0  0  0
 16 41  1  0  0  0  0
 21 42  1  0  0  0  0
 22 43  1  0  0  0  0
 23 44  1  0  0  0  0
 24 45  1  0  0  0  0
 25 46  1  0  0  0  0
 26 47  1  0  0  0  0
 27 48  1  0  0  0  0
 28 49  1  0  0  0  0
 29 50  1  0  0  0  0
 29 51  1  0  0  0  0
 29 52  1  0  0  0  0
 30 53  1  0  0  0  0
 31 54  1  0  0  0  0
 32 55  1  0  0  0  0
M  CHG  1  11   1
M  END
>  <result-rank>
40

>  <similarity>
0.906

>  <query-name>


>  <query-smiles>
S(=O)(=O)(Nc1cc2c(NN=C2C=3Nc4c(ccc(c4)C)C3)cc1)c5cc(F)ccc5

>  <source>
REALspace_2019-12

>  <similarity-descriptor>
0.967;1.000;0.961;0.620;0.875;1.000;1.000;0.961;0.091

>  <similarity-descriptor-smiles>
c1ccccc1;c1C=CNc1;Brc1ccccc1;C(=O)C[NH+];Cc1ccccc1;S(=O)=O;N;Brc1ccccc1;C

>  <reaction-name>
s_2230b

>  <reagent1-name>
3049264

>  <reagent1-smiles>
[R1*]N(Cc1cc(NS(=O)(=O)c2ccccc2)ccc1)C

>  <reagent2-name>
14478780

>  <reagent2-smiles>
[R1*]CC(=O)C=1Nc2c(cc(Br)cc2)C1

$$$$
m_274860b____17144820____17185630____17180112
          04022017313D 1   1.00000     0.00000     0
            
 51 55  0  0  0  0            999 V2000
   -4.0548    1.6932    6.8736 F   0  0  0  0  0  0  0  0  0  0  0  0
   -3.3731    1.4970    5.7488 C   0  0  0  0  0  0  0  0  0  0  0  0
   -3.8121    0.5485    4.8315 C   0  0  0  0  0  0  0  0  0  0  0  0
   -3.0894    0.3535    3.6588 C   0  0  0  0  0  0  0  0  0  0  0  0
   -1.9422    1.1017    3.4163 C   0  0  0  0  0  0  0  0  0  0  0  0
   -1.5036    2.0507    4.3344 C   0  0  0  0  0  0  0  0  0  0  0  0
   -2.2265    2.2453    5.5063 C   0  0  0  0  0  0  0  0  0  0  0  0
   -1.2007    0.8853    2.1890 C   0  0  0  0  0  0  0  0  0  0  0  0
   -1.7836    0.6156    1.1753 O   0  0  0  0  0  0  0  0  0  0  0  0
    0.3150    1.0000    2.1865 C   0  0  0  0  0  0  0  0  0  0  0  0
    0.9116    1.0906    3.2237 O   0  0  0  0  0  0  0  0  0  0  0  0
    1.0000    1.0000    1.0000 N   0  0  0  0  0  0  0  0  0  0  0  0
    2.4700    1.0000    1.0000 C   0  0  0  0  0  0  0  0  0  0  0  0
    2.9767   -0.4332    1.0000 C   0  0  0  0  0  0  0  0  0  0  0  0
    3.2034   -1.0744   -0.2132 C   0  0  0  0  0  0  0  0  0  0  0  0
    3.6674   -2.3856   -0.2072 C   0  0  0  0  0  0  0  0  0  0  0  0
    3.8996   -3.0418   -1.4227 N   0  0  0  0  0  0  0  0  0  0  0  0
    4.3346   -4.2710   -1.5552 N   0  0  0  0  0  0  0  0  0  0  0  0
    4.4470   -4.5813   -2.7739 N   0  0  0  0  0  0  0  0  0  0  0  0
    4.0620   -3.5064   -3.5169 C   0  0  0  0  0  0  0  0  0  0  0  0
    4.0363   -3.4325   -4.9645 C   0  0  0  0  0  0  0  0  0  0  0  0
    3.6468   -2.3453   -5.6891 N   0  0  0  0  0  0  0  0  0  0  0  0
    3.7624   -2.6647   -7.0118 C   0  0  0  0  0  0  0  0  0  0  0  0
    4.2248   -3.9530   -7.1252 C   0  0  0  0  0  0  0  0  0  0  0  0
    4.4212   -4.5085   -8.3851 C   0  0  0  0  0  0  0  0  0  0  0  0
    4.1566   -3.7721   -9.5353 C   0  0  0  0  0  0  0  0  0  0  0  0
    3.6905   -2.4666   -9.4194 C   0  0  0  0  0  0  0  0  0  0  0  0
    3.4970   -1.9203   -8.1550 C   0  0  0  0  0  0  0  0  0  0  0  0
    4.3988   -4.4384   -5.8092 C   0  0  0  0  0  0  0  0  0  0  0  0
    3.7114   -2.5119   -2.6607 C   0  0  0  0  0  0  0  0  0  0  0  0
    3.9052   -3.0570    0.9872 C   0  0  0  0  0  0  0  0  0  0  0  0
    3.6716   -2.3961    2.1881 C   0  0  0  0  0  0  0  0  0  0  0  0
    3.2078   -1.0845    2.2070 C   0  0  0  0  0  0  0  0  0  0  0  0
   -4.6371    0.0133    5.0125 H   0  0  0  0  0  0  0  0  0  0  0  0
   -3.3947   -0.3246    2.9903 H   0  0  0  0  0  0  0  0  0  0  0  0
   -0.6787    2.5864    4.1536 H   0  0  0  0  0  0  0  0  0  0  0  0
   -1.9216    2.9237    6.1748 H   0  0  0  0  0  0  0  0  0  0  0  0
    0.5000    1.0000    0.1340 H   0  0  0  0  0  0  0  0  0  0  0  0
    2.8033    1.4714    1.8165 H   0  0  0  0  0  0  0  0  0  0  0  0
    2.8033    1.4714    0.1835 H   0  0  0  0  0  0  0  0  0  0  0  0
    3.0353   -0.5997   -1.0772 H   0  0  0  0  0  0  0  0  0  0  0  0
    3.3330   -1.4711   -5.3186 H   0  0  0  0  0  0  0  0  0  0  0  0
    4.7562   -5.4473   -8.4650 H   0  0  0  0  0  0  0  0  0  0  0  0
    4.3003   -4.1779  -10.4379 H   0  0  0  0  0  0  0  0  0  0  0  0
    3.4962   -1.9258  -10.2378 H   0  0  0  0  0  0  0  0  0  0  0  0
    3.1634   -0.9817   -8.0675 H   0  0  0  0  0  0  0  0  0  0  0  0
    4.7256   -5.3466   -5.5479 H   0  0  0  0  0  0  0  0  0  0  0  0
    3.3871   -1.5941   -2.8898 H   0  0  0  0  0  0  0  0  0  0  0  0
    4.2387   -3.9997    0.9825 H   0  0  0  0  0  0  0  0  0  0  0  0
    3.8396   -2.8711    3.0519 H   0  0  0  0  0  0  0  0  0  0  0  0
    3.0430   -0.6169    3.0755 H   0  0  0  0  0  0  0  0  0  0  0  0
  1  2  1  0  0  0  0
  2  3  1  0  0  0  0
  3  4  2  0  0  0  0
  4  5  1  0  0  0  0
  5  6  2  0  0  0  0
  6  7  1  0  0  0  0
  7  2  2  0  0  0  0
  5  8  1  0  0  0  0
  8  9  2  0  0  0  0
  8 10  1  0  0  0  0
 10 11  2  0  0  0  0
 10 12  1  0  0  0  0
 12 13  1  0  0  0  0
 13 14  1  0  0  0  0
 14 15  1  0  0  0  0
 15 16  2  0  0  0  0
 16 17  1  0  0  0  0
 17 18  1  0  0  0  0
 18 19  2  0  0  0  0
 19 20  1  0  0  0  0
 20 21  1  0  0  0  0
 21 22  1  0  0  0  0
 22 23  1  0  0  0  0
 23 24  1  0  0  0  0
 24 25  2  0  0  0  0
 25 26  1  0  0  0  0
 26 27  2  0  0  0  0
 27 28  1  0  0  0  0
 28 23  2  0  0  0  0
 24 29  1  0  0  0  0
 21 29  2  0  0  0  0
 20 30  2  0  0  0  0
 30 17  1  0  0  0  0
 16 31  1  0  0  0  0
 31 32  2  0  0  0  0
 32 33  1  0  0  0  0
 33 14  2  0  0  0  0
  3 34  1  0  0  0  0
  4 35  1  0  0  0  0
  6 36  1  0  0  0  0
  7 37  1  0  0  0  0
 12 38  1  0  0  0  0
 13 39  1  0  0  0  0
 13 40  1  0  0  0  0
 15 41  1  0  0  0  0
 22 42  1  0  0  0  0
 25 43  1  0  0  0  0
 26 44  1  0  0  0  0
 27 45  1  0  0  0  0
 28 46  1  0  0  0  0
 29 47  1  0  0  0  0
 30 48  1  0  0  0  0
 31 49  1  0  0  0  0
 32 50  1  0  0  0  0
 33 51  1  0  0  0  0
M  END
>  <result-rank>
41

>  <similarity>
0.906

>  <query-name>


>  <query-smiles>
S(=O)(=O)(Nc1cc2c(NN=C2C=3Nc4c(ccc(c4)C)C3)cc1)c5cc(F)ccc5

>  <source>
REALspace_2019-12

>  <similarity-descriptor>
0.999;1.000;0.953;0.698;0.938;0.876;0.736;0.0;0.0

>  <similarity-descriptor-smiles>
Fc1ccccc1;C1=CccN1;c1ccccc1;N1C=CN=N1;c1ccccc1;C(=O)C=O;NC;;

>  <reaction-name>
m_274860b

>  <reagent1-name>
17144820

>  <reagent1-smiles>
[R1*]N=NN([R2*])c1cc(ccc1)CN[R3*]

>  <reagent2-name>
17185630

>  <reagent2-smiles>
[R3*]C(=O)C(=O)c1ccc(F)cc1

>  <reagent3-name>
17180112

>  <reagent3-smiles>
[R1*]C(C=1Nc2c(cccc2)C1)=C[R2*]

$$$$
s_527a____14797418____758434
          04022017313D 1   1.00000     0.00000     0
            
 43 46  0  0  0  0            999 V2000
    0.6749    0.5016    2.5349 S   0  0  0  0  0  0  0  0  0  0  0  0
    0.9606   -0.6375    3.3682 O   0  0  0  0  0  0  0  0  0  0  0  0
   -0.4663    1.2060    3.0596 O   0  0  0  0  0  0  0  0  0  0  0  0
    0.3526   -0.0017    1.0184 N   0  0  0  0  0  0  0  0  0  0  0  0
    1.1664   -0.9670    0.4134 C   0  0  0  0  0  0  0  0  0  0  0  0
    0.8274   -2.3121    0.5135 C   0  0  0  0  0  0  0  0  0  0  0  0
   -0.2644   -2.6747    1.1804 F   0  0  0  0  0  0  0  0  0  0  0  0
    1.6241   -3.2848   -0.0814 C   0  0  0  0  0  0  0  0  0  0  0  0
    2.7628   -2.8916   -0.7764 C   0  0  0  0  0  0  0  0  0  0  0  0
    3.1059   -1.5478   -0.8783 C   0  0  0  0  0  0  0  0  0  0  0  0
    2.3064   -0.5787   -0.2827 C   0  0  0  0  0  0  0  0  0  0  0  0
    2.0529    1.5646    2.5128 C   0  0  0  0  0  0  0  0  0  0  0  0
    2.0067    2.9279    2.5019 C   0  0  0  0  0  0  0  0  0  0  0  0
    3.2923    3.3796    2.4882 N   0  0  0  0  0  0  0  0  0  0  0  0
    4.1376    2.3097    2.4928 C   0  0  0  0  0  0  0  0  0  0  0  0
    5.5856    2.3827    2.4823 C   0  0  0  0  0  0  0  0  0  0  0  0
    6.1324    3.4508    2.4682 O   0  0  0  0  0  0  0  0  0  0  0  0
    6.3295    1.2323    2.4884 N   0  0  0  0  0  0  0  0  0  0  0  0
    7.7290    1.3029    2.4782 C   0  0  0  0  0  0  0  0  0  0  0  0
    8.5863    0.7791    3.4746 C   0  0  0  0  0  0  0  0  0  0  0  0
    8.4590    0.0910    4.6796 C   0  0  0  0  0  0  0  0  0  0  0  0
    7.2534   -0.2308    5.1443 F   0  0  0  0  0  0  0  0  0  0  0  0
    9.5749   -0.2775    5.4241 C   0  0  0  0  0  0  0  0  0  0  0  0
   10.8454    0.0454    4.9592 C   0  0  0  0  0  0  0  0  0  0  0  0
   10.9853    0.7325    3.7573 C   0  0  0  0  0  0  0  0  0  0  0  0
    9.8575    1.0919    3.0276 C   0  0  0  0  0  0  0  0  0  0  0  0
    9.7875    1.7585    1.8380 N   0  0  0  0  0  0  0  0  0  0  0  0
    8.4735    1.8912    1.4972 C   0  0  0  0  0  0  0  0  0  0  0  0
    3.4042    1.1617    2.5084 C   0  0  0  0  0  0  0  0  0  0  0  0
   -0.4265    0.3789    0.5202 H   0  0  0  0  0  0  0  0  0  0  0  0
    1.3817   -4.2524   -0.0104 H   0  0  0  0  0  0  0  0  0  0  0  0
    3.3416   -3.5834   -1.2080 H   0  0  0  0  0  0  0  0  0  0  0  0
    3.9279   -1.2784   -1.3801 H   0  0  0  0  0  0  0  0  0  0  0  0
    2.5488    0.3888   -0.3540 H   0  0  0  0  0  0  0  0  0  0  0  0
    1.1811    3.4922    2.5036 H   0  0  0  0  0  0  0  0  0  0  0  0
    3.5706    4.3400    2.4766 H   0  0  0  0  0  0  0  0  0  0  0  0
    5.8739    0.3423    2.5001 H   0  0  0  0  0  0  0  0  0  0  0  0
    9.4644   -0.7707    6.2870 H   0  0  0  0  0  0  0  0  0  0  0  0
   11.6545   -0.2150    5.4861 H   0  0  0  0  0  0  0  0  0  0  0  0
   11.8963    0.9677    3.4185 H   0  0  0  0  0  0  0  0  0  0  0  0
   10.5666    2.0924    1.3073 H   0  0  0  0  0  0  0  0  0  0  0  0
    8.1194    2.3390    0.6762 H   0  0  0  0  0  0  0  0  0  0  0  0
    3.7530    0.2245    2.5153 H   0  0  0  0  0  0  0  0  0  0  0  0
  1  2  2  0  0  0  0
  1  3  2  0  0  0  0
  1  4  1  0  0  0  0
  4  5  1  0  0  0  0
  5  6  1  0  0  0  0
  6  7  1  0  0  0  0
  6  8  2  0  0  0  0
  8  9  1  0  0  0  0
  9 10  2  0  0  0  0
 10 11  1  0  0  0  0
 11  5  2  0  0  0  0
  1 12  1  0  0  0  0
 12 13  2  0  0  0  0
 13 14  1  0  0  0  0
 14 15  1  0  0  0  0
 15 16  1  0  0  0  0
 16 17  2  0  0  0  0
 16 18  1  0  0  0  0
 18 19  1  0  0  0  0
 19 20  1  0  0  0  0
 20 21  1  0  0  0  0
 21 22  1  0  0  0  0
 21 23  2  0  0  0  0
 23 24  1  0  0  0  0
 24 25  2  0  0  0  0
 25 26  1  0  0  0  0
 26 20  2  0  0  0  0
 26 27  1  0  0  0  0
 27 28  1  0  0  0  0
 19 28  2  0  0  0  0
 15 29  2  0  0  0  0
 29 12  1  0  0  0  0
  4 30  1  0  0  0  0
  8 31  1  0  0  0  0
  9 32  1  0  0  0  0
 10 33  1  0  0  0  0
 11 34  1  0  0  0  0
 13 35  1  0  0  0  0
 14 36  1  0  0  0  0
 18 37  1  0  0  0  0
 23 38  1  0  0  0  0
 24 39  1  0  0  0  0
 25 40  1  0  0  0  0
 27 41  1  0  0  0  0
 28 42  1  0  0  0  0
 29 43  1  0  0  0  0
M  END
>  <result-rank>
42

>  <similarity>
0.906

>  <query-name>


>  <query-smiles>
S(=O)(=O)(Nc1cc2c(NN=C2C=3Nc4c(ccc(c4)C)C3)cc1)c5cc(F)ccc5

>  <source>
REALspace_2019-12

>  <similarity-descriptor>
0.999;0.996;0.977;0.602;0.881;0.888;0.881;0.0;0.0

>  <similarity-descriptor-smiles>
c1ccccc1F;C1=CNcc1;c1ccccc1F;C(=O)N;C=1C=CNC1;S(=O)(=O)N;C=1C=CNC1;;

>  <reaction-name>
s_527a

>  <reagent1-name>
14797418

>  <reagent1-smiles>
[R1*]NC=1c2c(F)cccc2NC1

>  <reagent2-name>
758434

>  <reagent2-smiles>
[R1*]C(=O)C=1NC=C(S(=O)(=O)Nc2c(F)cccc2)C1

$$$$
s_527a____214634____530808
          04022017313D 1   1.00000     0.00000     0
            
 52 55  0  0  0  0            999 V2000
    4.8757    0.3982   -2.6694 S   0  0  0  0  0  0  0  0  0  0  0  0
    5.7910   -0.2424   -3.5779 O   0  0  0  0  0  0  0  0  0  0  0  0
    3.5234    0.0708   -3.0401 O   0  0  0  0  0  0  0  0  0  0  0  0
    5.1640   -0.1213   -1.1515 N   0  0  0  0  0  0  0  0  0  0  0  0
    4.4671    0.4403   -0.0754 C   0  0  0  0  0  0  0  0  0  0  0  0
    5.1652    0.9958    0.9908 C   0  0  0  0  0  0  0  0  0  0  0  0
    6.5147    0.9908    0.9801 O   0  0  0  0  0  0  0  0  0  0  0  0
    7.2297    2.2167    1.0280 C   0  0  0  0  0  0  0  0  0  0  0  0
    4.4871    1.5572    2.0680 C   0  0  0  0  0  0  0  0  0  0  0  0
    3.0958    1.5574    2.0679 C   0  0  0  0  0  0  0  0  0  0  0  0
    2.4000    1.0000    1.0000 C   0  0  0  0  0  0  0  0  0  0  0  0
    1.0000    1.0000    1.0000 N   0  0  0  0  0  0  0  0  0  0  0  0
    0.3150    2.1854    1.0512 C   0  0  0  0  0  0  0  0  0  0  0  0
    0.8607    3.1770    1.4497 O   0  0  0  0  0  0  0  0  0  0  0  0
   -1.0699    2.2417    0.6236 C   0  0  0  0  0  0  0  0  0  0  0  0
   -1.8534    3.3543    0.6269 N   0  0  0  0  0  0  0  0  0  0  0  0
   -3.0333    3.0069    0.1704 N   0  0  0  0  0  0  0  0  0  0  0  0
   -3.0653    1.7337   -0.1299 C   0  0  0  0  0  0  0  0  0  0  0  0
   -4.2027    1.0100   -0.6627 C   0  0  0  0  0  0  0  0  0  0  0  0
   -4.1764   -0.6468   -1.0378 S   0  0  0  0  0  0  0  0  0  0  0  0
   -5.7851   -0.7531   -1.5726 C   0  0  0  0  0  0  0  0  0  0  0  0
   -6.3231    0.4910   -1.4533 C   0  0  0  0  0  0  0  0  0  0  0  0
   -5.4505    1.4883   -0.9423 C   0  0  0  0  0  0  0  0  0  0  0  0
   -6.4709   -2.0076   -2.0857 C   0  0  0  0  0  0  0  0  0  0  0  0
   -1.7951    1.1936    0.1529 C   0  0  0  0  0  0  0  0  0  0  0  0
    3.0759    0.4381   -0.0782 C   0  0  0  0  0  0  0  0  0  0  0  0
    5.0961    2.1223   -2.7438 C   0  0  0  0  0  0  0  0  0  0  0  0
    6.3488    2.6436   -3.0497 C   0  0  0  0  0  0  0  0  0  0  0  0
    6.5190    4.0227   -3.1071 C   0  0  0  0  0  0  0  0  0  0  0  0
    5.4389    4.8634   -2.8598 C   0  0  0  0  0  0  0  0  0  0  0  0
    5.6093    6.1814   -2.9166 F   0  0  0  0  0  0  0  0  0  0  0  0
    4.1894    4.3358   -2.5544 C   0  0  0  0  0  0  0  0  0  0  0  0
    4.0124    2.9577   -2.4950 C   0  0  0  0  0  0  0  0  0  0  0  0
    5.8387   -0.8413   -0.9891 H   0  0  0  0  0  0  0  0  0  0  0  0
    8.2121    2.0305    1.0122 H   0  0  0  0  0  0  0  0  0  0  0  0
    6.9839    2.7771    0.2370 H   0  0  0  0  0  0  0  0  0  0  0  0
    6.9966    2.7059    1.8684 H   0  0  0  0  0  0  0  0  0  0  0  0
    4.9934    1.9557    2.8328 H   0  0  0  0  0  0  0  0  0  0  0  0
    2.5958    1.9584    2.8355 H   0  0  0  0  0  0  0  0  0  0  0  0
    0.5000    0.1348    0.9627 H   0  0  0  0  0  0  0  0  0  0  0  0
   -1.5799    4.2694    0.9231 H   0  0  0  0  0  0  0  0  0  0  0  0
   -7.2694    0.6898   -1.7084 H   0  0  0  0  0  0  0  0  0  0  0  0
   -5.7215    2.4406   -0.8021 H   0  0  0  0  0  0  0  0  0  0  0  0
   -7.4155   -1.7932   -2.3344 H   0  0  0  0  0  0  0  0  0  0  0  0
   -5.9838   -2.3487   -2.8897 H   0  0  0  0  0  0  0  0  0  0  0  0
   -6.4650   -2.7069   -1.3709 H   0  0  0  0  0  0  0  0  0  0  0  0
   -1.4938    0.2475    0.0336 H   0  0  0  0  0  0  0  0  0  0  0  0
    2.5699    0.0389   -0.8429 H   0  0  0  0  0  0  0  0  0  0  0  0
    7.1202    2.0324   -3.2267 H   0  0  0  0  0  0  0  0  0  0  0  0
    7.4152    4.4087   -3.3256 H   0  0  0  0  0  0  0  0  0  0  0  0
    3.4181    4.9471   -2.3773 H   0  0  0  0  0  0  0  0  0  0  0  0
    3.1162    2.5718   -2.2760 H   0  0  0  0  0  0  0  0  0  0  0  0
  1  2  2  0  0  0  0
  1  3  2  0  0  0  0
  1  4  1  0  0  0  0
  4  5  1  0  0  0  0
  5  6  1  0  0  0  0
  6  7  1  0  0  0  0
  7  8  1  0  0  0  0
  6  9  2  0  0  0  0
  9 10  1  0  0  0  0
 10 11  2  0  0  0  0
 11 12  1  0  0  0  0
 12 13  1  0  0  0  0
 13 14  2  0  0  0  0
 13 15  1  0  0  0  0
 15 16  1  0  0  0  0
 16 17  1  0  0  0  0
 17 18  2  0  0  0  0
 18 19  1  0  0  0  0
 19 20  1  0  0  0  0
 20 21  1  0  0  0  0
 21 22  2  0  0  0  0
 22 23  1  0  0  0  0
 19 23  2  0  0  0  0
 21 24  1  0  0  0  0
 18 25  1  0  0  0  0
 15 25  2  0  0  0  0
 11 26  1  0  0  0  0
 26  5  2  0  0  0  0
  1 27  1  0  0  0  0
 27 28  1  0  0  0  0
 28 29  2  0  0  0  0
 29 30  1  0  0  0  0
 30 31  1  0  0  0  0
 30 32  2  0  0  0  0
 32 33  1  0  0  0  0
 33 27  2  0  0  0  0
  4 34  1  0  0  0  0
  8 35  1  0  0  0  0
  8 36  1  0  0  0  0
  8 37  1  0  0  0  0
  9 38  1  0  0  0  0
 10 39  1  0  0  0  0
 12 40  1  0  0  0  0
 16 41  1  0  0  0  0
 22 42  1  0  0  0  0
 23 43  1  0  0  0  0
 24 44  1  0  0  0  0
 24 45  1  0  0  0  0
 24 46  1  0  0  0  0
 25 47  1  0  0  0  0
 26 48  1  0  0  0  0
 28 49  1  0  0  0  0
 29 50  1  0  0  0  0
 32 51  1  0  0  0  0
 33 52  1  0  0  0  0
M  END
>  <result-rank>
43

>  <similarity>
0.906

>  <query-name>


>  <query-smiles>
S(=O)(=O)(Nc1cc2c(NN=C2C=3Nc4c(ccc(c4)C)C3)cc1)c5cc(F)ccc5

>  <source>
REALspace_2019-12

>  <similarity-descriptor>
1.000;0.842;0.925;0.602;0.979;1.000;1.000;1.000;0.182

>  <similarity-descriptor-smiles>
c1ccc(cc1)F;C1=CC=NN1;C1=CC=CS1;NC=O;c1ccccc1;S(=O)=O;N;C;O.C

>  <reaction-name>
s_527a

>  <reagent1-name>
214634

>  <reagent1-smiles>
[R1*]Nc1cc(NS(=O)(=O)c2ccc(F)cc2)c(OC)cc1

>  <reagent2-name>
530808

>  <reagent2-smiles>
[R1*]C(=O)C1=NNC(C=2SC(=CC2)C)=C1

$$$$
s_708____244680____1107176
          04022017313D 1   1.00000     0.00000     0
            
 52 56  0  0  0  0            999 V2000
   -0.3068    3.3487    1.3124 S   0  0  0  0  0  0  0  0  0  0  0  0
   -0.5079    1.9400    1.0915 O   0  0  0  0  0  0  0  0  0  0  0  0
   -1.5608    3.9631    1.6641 O   0  0  0  0  0  0  0  0  0  0  0  0
    0.7615    3.5615    2.5249 N   0  0  0  0  0  0  0  0  0  0  0  0
    1.9830    2.8768    2.5101 C   0  0  0  0  0  0  0  0  0  0  0  0
    3.1728    3.5972    2.5008 C   0  0  0  0  0  0  0  0  0  0  0  0
    4.3800    2.9062    2.4867 C   0  0  0  0  0  0  0  0  0  0  0  0
    4.4072    1.5158    2.4809 C   0  0  0  0  0  0  0  0  0  0  0  0
    3.2053    0.8159    2.4905 C   0  0  0  0  0  0  0  0  0  0  0  0
    1.9867    1.4860    2.5051 C   0  0  0  0  0  0  0  0  0  0  0  0
    5.6189    3.6503    2.4786 C   0  0  0  0  0  0  0  0  0  0  0  0
    6.7255    2.9398    2.4685 N   0  0  0  0  0  0  0  0  0  0  0  0
    7.8969    3.6407    2.4618 C   0  0  0  0  0  0  0  0  0  0  0  0
    9.4449    2.9346    2.4457 S   0  0  0  0  0  0  0  0  0  0  0  0
   10.3547    4.3702    2.4449 C   0  0  0  0  0  0  0  0  0  0  0  0
    9.4421    5.3817    2.4567 C   0  0  0  0  0  0  0  0  0  0  0  0
    9.9309    6.7470    2.4606 C   0  0  0  0  0  0  0  0  0  0  0  0
   10.9025    7.1289    3.3800 C   0  0  0  0  0  0  0  0  0  0  0  0
   11.3670    8.4397    3.3800 C   0  0  0  0  0  0  0  0  0  0  0  0
   10.8564    9.3518    2.4617 C   0  0  0  0  0  0  0  0  0  0  0  0
    9.8863    8.9683    1.5408 C   0  0  0  0  0  0  0  0  0  0  0  0
    9.4206    7.6576    1.5417 C   0  0  0  0  0  0  0  0  0  0  0  0
   11.3672   10.7837    2.4677 C   0  0  0  0  0  0  0  0  0  0  0  0
    8.0737    4.9854    2.4662 C   0  0  0  0  0  0  0  0  0  0  0  0
    6.8347    5.6926    2.4801 C   0  0  0  0  0  0  0  0  0  0  0  0
    6.7863    6.9127    2.4863 O   0  0  0  0  0  0  0  0  0  0  0  0
    5.6420    5.0204    2.4844 N   0  0  0  0  0  0  0  0  0  0  0  0
    0.3107    4.0810   -0.1399 C   0  0  0  0  0  0  0  0  0  0  0  0
    1.0966    3.3343   -1.0115 C   0  0  0  0  0  0  0  0  0  0  0  0
    1.5838    3.9323   -2.1695 C   0  0  0  0  0  0  0  0  0  0  0  0
    1.2897    5.2620   -2.4525 C   0  0  0  0  0  0  0  0  0  0  0  0
    0.5036    6.0000   -1.5738 C   0  0  0  0  0  0  0  0  0  0  0  0
    0.0111    5.4121   -0.4134 C   0  0  0  0  0  0  0  0  0  0  0  0
    0.5447    4.1810    3.2793 H   0  0  0  0  0  0  0  0  0  0  0  0
    3.1605    4.5971    2.5042 H   0  0  0  0  0  0  0  0  0  0  0  0
    5.2790    1.0260    2.4700 H   0  0  0  0  0  0  0  0  0  0  0  0
    3.2176   -0.1840    2.4868 H   0  0  0  0  0  0  0  0  0  0  0  0
    1.1266    0.9758    2.5119 H   0  0  0  0  0  0  0  0  0  0  0  0
   11.3511    4.4547    2.4374 H   0  0  0  0  0  0  0  0  0  0  0  0
   11.2641    6.4661    4.0358 H   0  0  0  0  0  0  0  0  0  0  0  0
   12.0648    8.7254    4.0369 H   0  0  0  0  0  0  0  0  0  0  0  0
    9.5265    9.6301    0.8831 H   0  0  0  0  0  0  0  0  0  0  0  0
    8.7227    7.3716    0.8851 H   0  0  0  0  0  0  0  0  0  0  0  0
   10.9031   11.3062    1.7523 H   0  0  0  0  0  0  0  0  0  0  0  0
   11.1820   11.2000    3.3578 H   0  0  0  0  0  0  0  0  0  0  0  0
   12.3525   10.7869    2.2967 H   0  0  0  0  0  0  0  0  0  0  0  0
    4.7828    5.5320    2.4919 H   0  0  0  0  0  0  0  0  0  0  0  0
    1.3091    2.3785   -0.8081 H   0  0  0  0  0  0  0  0  0  0  0  0
    2.1489    3.4028   -2.8022 H   0  0  0  0  0  0  0  0  0  0  0  0
    1.6427    5.6866   -3.2862 H   0  0  0  0  0  0  0  0  0  0  0  0
    0.2919    6.9560   -1.7769 H   0  0  0  0  0  0  0  0  0  0  0  0
   -0.5539    5.9418    0.2192 H   0  0  0  0  0  0  0  0  0  0  0  0
  1  2  2  0  0  0  0
  1  3  2  0  0  0  0
  1  4  1  0  0  0  0
  4  5  1  0  0  0  0
  5  6  1  0  0  0  0
  6  7  2  0  0  0  0
  7  8  1  0  0  0  0
  8  9  2  0  0  0  0
  9 10  1  0  0  0  0
 10  5  2  0  0  0  0
  7 11  1  0  0  0  0
 11 12  2  0  0  0  0
 12 13  1  0  0  0  0
 13 14  1  0  0  0  0
 14 15  1  0  0  0  0
 15 16  2  0  0  0  0
 16 17  1  0  0  0  0
 17 18  1  0  0  0  0
 18 19  2  0  0  0  0
 19 20  1  0  0  0  0
 20 21  2  0  0  0  0
 21 22  1  0  0  0  0
 22 17  2  0  0  0  0
 20 23  1  0  0  0  0
 16 24  1  0  0  0  0
 13 24  2  0  0  0  0
 24 25  1  0  0  0  0
 25 26  2  0  0  0  0
 25 27  1  0  0  0  0
 27 11  1  0  0  0  0
  1 28  1  0  0  0  0
 28 29  1  0  0  0  0
 29 30  2  0  0  0  0
 30 31  1  0  0  0  0
 31 32  2  0  0  0  0
 32 33  1  0  0  0  0
 33 28  2  0  0  0  0
  4 34  1  0  0  0  0
  6 35  1  0  0  0  0
  8 36  1  0  0  0  0
  9 37  1  0  0  0  0
 10 38  1  0  0  0  0
 15 39  1  0  0  0  0
 18 40  1  0  0  0  0
 19 41  1  0  0  0  0
 21 42  1  0  0  0  0
 22 43  1  0  0  0  0
 23 44  1  0  0  0  0
 23 45  1  0  0  0  0
 23 46  1  0  0  0  0
 27 47  1  0  0  0  0
 29 48  1  0  0  0  0
 30 49  1  0  0  0  0
 31 50  1  0  0  0  0
 32 51  1  0  0  0  0
 33 52  1  0  0  0  0
M  END
>  <result-rank>
44

>  <similarity>
0.906

>  <query-name>


>  <query-smiles>
S(=O)(=O)(Nc1cc2c(NN=C2C=3Nc4c(ccc(c4)C)C3)cc1)c5cc(F)ccc5

>  <source>
REALspace_2019-12

>  <similarity-descriptor>
0.967;0.816;0.938;0.733;0.938;1.000;1.000;1.000;0.0

>  <similarity-descriptor-smiles>
c1ccccc1;C1=CC=CS1;c1ccccc1;C=1NC(C=CN1)=O;c1ccccc1;S(=O)=O;N;C;

>  <reaction-name>
s_708

>  <reagent1-name>
244680

>  <reagent1-smiles>
[R1*]=NC=1SC=C(c2ccc(cc2)C)C1C([R2*])=O

>  <reagent2-name>
1107176

>  <reagent2-smiles>
[R1*]=C(N[R2*])c1cc(NS(=O)(=O)c2ccccc2)ccc1

$$$$
m_276096____13709666____13711158
          04022017313D 1   1.00000     0.00000     0
            
 51 55  0  0  0  0            999 V2000
    6.0521   -2.2052   -5.0275 Br  0  0  0  0  0  0  0  0  0  0  0  0
    6.6097   -1.3273   -3.3662 C   0  0  0  0  0  0  0  0  0  0  0  0
    5.7921   -1.2975   -2.2381 C   0  0  0  0  0  0  0  0  0  0  0  0
    6.1813   -0.6723   -1.0489 C   0  0  0  0  0  0  0  0  0  0  0  0
    7.4198   -0.0746   -1.0315 C   0  0  0  0  0  0  0  0  0  0  0  0
    7.6192    0.4824    0.1965 N   0  0  0  0  0  0  0  0  0  0  0  0
    6.5150    0.2350    0.9571 C   0  0  0  0  0  0  0  0  0  0  0  0
    5.6056   -0.4702    0.2267 C   0  0  0  0  0  0  0  0  0  0  0  0
    6.3242    0.6847    2.3964 C   0  0  0  0  0  0  0  0  0  0  0  0
    5.6914    2.0114    2.4155 N   0  0  0  0  0  0  0  0  0  0  0  0
    4.2262    2.1265    2.4440 C   0  0  0  0  0  0  0  0  0  0  0  0
    3.3287    3.5724    2.4687 S   0  0  0  0  0  0  0  0  0  0  0  0
    1.7793    2.8660    2.4982 C   0  0  0  0  0  0  0  0  0  0  0  0
    2.0377    1.5325    2.4911 C   0  0  0  0  0  0  0  0  0  0  0  0
    3.3528    1.1511    2.4644 N   0  0  0  0  0  0  0  0  0  0  0  0
    0.9124    0.6182    2.5170 C   0  0  0  0  0  0  0  0  0  0  0  0
   -0.3798    1.1331    2.5429 C   0  0  0  0  0  0  0  0  0  0  0  0
   -1.4657    0.2641    2.5678 C   0  0  0  0  0  0  0  0  0  0  0  0
   -1.2460   -1.1096    2.5673 C   0  0  0  0  0  0  0  0  0  0  0  0
   -2.3872   -2.0358    2.5938 N   0  0  0  0  0  0  0  0  0  0  0  0
   -2.1715   -3.3887    2.5934 C   0  0  0  0  0  0  0  0  0  0  0  0
   -1.0510   -3.8176    2.5714 O   0  0  0  0  0  0  0  0  0  0  0  0
   -3.2974   -4.3025    2.6195 C   0  0  0  0  0  0  0  0  0  0  0  0
   -3.0712   -5.6750    2.6189 C   0  0  0  0  0  0  0  0  0  0  0  0
   -4.1540   -6.5479    2.6431 C   0  0  0  0  0  0  0  0  0  0  0  0
   -5.4512   -6.0465    2.6690 C   0  0  0  0  0  0  0  0  0  0  0  0
   -5.6652   -4.6736    2.6698 C   0  0  0  0  0  0  0  0  0  0  0  0
   -4.5908   -3.7904    2.6451 C   0  0  0  0  0  0  0  0  0  0  0  0
    0.0467   -1.6239    2.5414 C   0  0  0  0  0  0  0  0  0  0  0  0
    1.1326   -0.7548    2.5163 C   0  0  0  0  0  0  0  0  0  0  0  0
    8.2611   -0.0864   -2.1385 C   0  0  0  0  0  0  0  0  0  0  0  0
    7.8570   -0.7146   -3.3113 C   0  0  0  0  0  0  0  0  0  0  0  0
    4.8956   -1.7385   -2.2803 H   0  0  0  0  0  0  0  0  0  0  0  0
    8.4331    0.9847    0.4886 H   0  0  0  0  0  0  0  0  0  0  0  0
    4.7068   -0.7835    0.5331 H   0  0  0  0  0  0  0  0  0  0  0  0
    5.7399    0.0298    2.8756 H   0  0  0  0  0  0  0  0  0  0  0  0
    7.2135    0.7330    2.8512 H   0  0  0  0  0  0  0  0  0  0  0  0
    6.2576    2.8356    2.4090 H   0  0  0  0  0  0  0  0  0  0  0  0
    0.8906    3.3240    2.5164 H   0  0  0  0  0  0  0  0  0  0  0  0
   -0.5271    2.1222    2.5437 H   0  0  0  0  0  0  0  0  0  0  0  0
   -2.3983    0.6245    2.5859 H   0  0  0  0  0  0  0  0  0  0  0  0
   -3.3210   -1.6783    2.6121 H   0  0  0  0  0  0  0  0  0  0  0  0
   -2.1371   -6.0315    2.6011 H   0  0  0  0  0  0  0  0  0  0  0  0
   -3.9998   -7.5359    2.6418 H   0  0  0  0  0  0  0  0  0  0  0  0
   -6.2296   -6.6740    2.6870 H   0  0  0  0  0  0  0  0  0  0  0  0
   -6.5994   -4.3175    2.6884 H   0  0  0  0  0  0  0  0  0  0  0  0
   -4.7457   -2.8025    2.6458 H   0  0  0  0  0  0  0  0  0  0  0  0
    0.1943   -2.6129    2.5409 H   0  0  0  0  0  0  0  0  0  0  0  0
    2.0653   -1.1150    2.4979 H   0  0  0  0  0  0  0  0  0  0  0  0
    9.1563    0.3566   -2.0913 H   0  0  0  0  0  0  0  0  0  0  0  0
    8.4590   -0.7257   -4.1097 H   0  0  0  0  0  0  0  0  0  0  0  0
  1  2  1  0  0  0  0
  2  3  1  0  0  0  0
  3  4  2  0  0  0  0
  4  5  1  0  0  0  0
  5  6  1  0  0  0  0
  6  7  1  0  0  0  0
  7  8  2  0  0  0  0
  8  4  1  0  0  0  0
  7  9  1  0  0  0  0
  9 10  1  0  0  0  0
 10 11  1  0  0  0  0
 11 12  1  0  0  0  0
 12 13  1  0  0  0  0
 13 14  2  0  0  0  0
 14 15  1  0  0  0  0
 11 15  2  0  0  0  0
 14 16  1  0  0  0  0
 16 17  1  0  0  0  0
 17 18  2  0  0  0  0
 18 19  1  0  0  0  0
 19 20  1  0  0  0  0
 20 21  1  0  0  0  0
 21 22  2  0  0  0  0
 21 23  1  0  0  0  0
 23 24  1  0  0  0  0
 24 25  2  0  0  0  0
 25 26  1  0  0  0  0
 26 27  2  0  0  0  0
 27 28  1  0  0  0  0
 28 23  2  0  0  0  0
 19 29  2  0  0  0  0
 29 30  1  0  0  0  0
 30 16  2  0  0  0  0
  5 31  2  0  0  0  0
 31 32  1  0  0  0  0
 32  2  2  0  0  0  0
  3 33  1  0  0  0  0
  6 34  1  0  0  0  0
  8 35  1  0  0  0  0
  9 36  1  0  0  0  0
  9 37  1  0  0  0  0
 10 38  1  0  0  0  0
 13 39  1  0  0  0  0
 17 40  1  0  0  0  0
 18 41  1  0  0  0  0
 20 42  1  0  0  0  0
 24 43  1  0  0  0  0
 25 44  1  0  0  0  0
 26 45  1  0  0  0  0
 27 46  1  0  0  0  0
 28 47  1  0  0  0  0
 29 48  1  0  0  0  0
 30 49  1  0  0  0  0
 31 50  1  0  0  0  0
 32 51  1  0  0  0  0
M  END
>  <result-rank>
45

>  <similarity>
0.905

>  <query-name>


>  <query-smiles>
S(=O)(=O)(Nc1cc2c(NN=C2C=3Nc4c(ccc(c4)C)C3)cc1)c5cc(F)ccc5

>  <source>
REALspace_2019-12

>  <similarity-descriptor>
0.967;1.000;0.961;0.784;0.938;0.626;0.982;0.961;0.0

>  <similarity-descriptor-smiles>
c1ccccc1;c1C=CNc1;Brc1ccccc1;CNC1=NC=CS1;c1ccccc1;C=O;N;Brc1ccccc1;

>  <reaction-name>
m_276096

>  <reagent1-name>
13709666

>  <reagent1-smiles>
[R1*]SC(=N[R2*])NCC=1Nc2c(cc(Br)cc2)C1

>  <reagent2-name>
13711158

>  <reagent2-smiles>
[R2*]C(c1ccc(NC(=O)c2ccccc2)cc1)=C[R1*]

$$$$
s_43____1408318____1308662
          04022017313D 1   1.00000     0.00000     0
            
 58 62  0  0  0  0            999 V2000
    6.0371   -1.6999   -1.0460 S   0  0  0  0  0  0  0  0  0  0  0  0
    5.1963   -0.2241   -1.1300 C   0  0  0  0  0  0  0  0  0  0  0  0
    5.3214    0.2240   -2.3592 N   0  0  0  0  0  0  0  0  0  0  0  0
    6.0556   -0.5721   -3.1940 C   0  0  0  0  0  0  0  0  0  0  0  0
    6.3321   -0.2739   -4.5860 C   0  0  0  0  0  0  0  0  0  0  0  0
    7.5629    0.1862   -5.1161 C   0  0  0  0  0  0  0  0  0  0  0  0
    7.3264    0.3219   -6.4701 C   0  0  0  0  0  0  0  0  0  0  0  0
    6.0303   -0.0345   -6.7208 N   0  0  0  0  0  0  0  0  0  0  0  0
    5.4037   -0.4045   -5.5724 C   0  0  0  0  0  0  0  0  0  0  0  0
    8.3430    0.7787   -7.3030 C   0  0  0  0  0  0  0  0  0  0  0  0
    9.5965    1.0979   -6.7935 C   0  0  0  0  0  0  0  0  0  0  0  0
    9.8456    0.9695   -5.4318 C   0  0  0  0  0  0  0  0  0  0  0  0
    8.8218    0.5145   -4.6073 C   0  0  0  0  0  0  0  0  0  0  0  0
    9.1531    0.3982   -3.1278 C   0  0  0  0  0  0  0  0  0  0  0  0
    6.5655   -1.7197   -2.6652 C   0  0  0  0  0  0  0  0  0  0  0  0
    4.4770    0.4028   -0.0382 C   0  0  0  0  0  0  0  0  0  0  0  0
    3.0860    0.3960   -0.0487 C   0  0  0  0  0  0  0  0  0  0  0  0
    2.4004    1.0000    1.0000 C   0  0  0  0  0  0  0  0  0  0  0  0
    1.0000    1.0000    1.0000 N   0  0  0  0  0  0  0  0  0  0  0  0
    0.3150   -0.1865    0.9987 C   0  0  0  0  0  0  0  0  0  0  0  0
    0.7944   -1.1566    1.5173 O   0  0  0  0  0  0  0  0  0  0  0  0
   -1.0523   -0.2739    0.3405 C   0  0  3  0  0  0  0  0  0  0  0  0
   -2.1049    0.2891    1.2819 C   0  0  0  0  0  0  0  0  0  0  0  0
   -2.2919   -0.2908    2.5323 C   0  0  0  0  0  0  0  0  0  0  0  0
   -3.2568    0.2270    3.3903 C   0  0  0  0  0  0  0  0  0  0  0  0
   -4.0250    1.3175    2.9961 C   0  0  0  0  0  0  0  0  0  0  0  0
   -3.8291    1.8889    1.7448 C   0  0  0  0  0  0  0  0  0  0  0  0
   -2.8679    1.3800    0.8775 C   0  0  0  0  0  0  0  0  0  0  0  0
   -1.3739   -1.7271    0.0317 C   0  0  0  0  0  0  0  0  0  0  0  0
   -2.7412   -1.8146   -0.6266 C   0  0  0  0  0  0  0  0  0  0  0  0
    3.0836    1.6048    2.0497 C   0  0  0  0  0  0  0  0  0  0  0  0
    4.4744    1.5992    2.0398 C   0  0  0  0  0  0  0  0  0  0  0  0
    5.1807    1.0011    1.0015 C   0  0  0  0  0  0  0  0  0  0  0  0
    5.6022   -0.0245   -7.6245 H   0  0  0  0  0  0  0  0  0  0  0  0
    4.4566   -0.7095   -5.4731 H   0  0  0  0  0  0  0  0  0  0  0  0
    8.1695    0.8788   -8.2828 H   0  0  0  0  0  0  0  0  0  0  0  0
   10.3185    1.4197   -7.4060 H   0  0  0  0  0  0  0  0  0  0  0  0
   10.7420    1.1994   -5.0530 H   0  0  0  0  0  0  0  0  0  0  0  0
   10.1004    0.6799   -2.9751 H   0  0  0  0  0  0  0  0  0  0  0  0
    8.5409    0.9884   -2.6017 H   0  0  0  0  0  0  0  0  0  0  0  0
    9.0359   -0.5503   -2.8336 H   0  0  0  0  0  0  0  0  0  0  0  0
    7.1217   -2.4137   -3.1223 H   0  0  0  0  0  0  0  0  0  0  0  0
    2.5864   -0.0367   -0.7991 H   0  0  0  0  0  0  0  0  0  0  0  0
    0.5000    1.8660    1.0009 H   0  0  0  0  0  0  0  0  0  0  0  0
   -1.0478    0.2542   -0.5087 H   0  0  0  0  0  0  0  0  0  0  0  0
   -1.7369   -1.0740    2.8125 H   0  0  0  0  0  0  0  0  0  0  0  0
   -3.3981   -0.1847    4.2906 H   0  0  0  0  0  0  0  0  0  0  0  0
   -4.7181    1.6901    3.6130 H   0  0  0  0  0  0  0  0  0  0  0  0
   -4.3837    2.6727    1.4654 H   0  0  0  0  0  0  0  0  0  0  0  0
   -2.7276    1.7919   -0.0228 H   0  0  0  0  0  0  0  0  0  0  0  0
   -1.3784   -2.2552    0.8809 H   0  0  0  0  0  0  0  0  0  0  0  0
   -0.6815   -2.0974   -0.5875 H   0  0  0  0  0  0  0  0  0  0  0  0
   -2.9528   -2.7706   -0.8297 H   0  0  0  0  0  0  0  0  0  0  0  0
   -3.4336   -1.4442   -0.0073 H   0  0  0  0  0  0  0  0  0  0  0  0
   -2.7367   -1.2865   -1.4757 H   0  0  0  0  0  0  0  0  0  0  0  0
    2.5828    2.0368    2.7997 H   0  0  0  0  0  0  0  0  0  0  0  0
    4.9741    2.0316    2.7903 H   0  0  0  0  0  0  0  0  0  0  0  0
    6.1807    1.0013    1.0025 H   0  0  0  0  0  0  0  0  0  0  0  0
  1  2  1  0  0  0  0
  2  3  2  0  0  0  0
  3  4  1  0  0  0  0
  4  5  1  0  0  0  0
  5  6  1  0  0  0  0
  6  7  1  0  0  0  0
  7  8  1  0  0  0  0
  8  9  1  0  0  0  0
  5  9  2  0  0  0  0
  7 10  2  0  0  0  0
 10 11  1  0  0  0  0
 11 12  2  0  0  0  0
 12 13  1  0  0  0  0
 13  6  2  0  0  0  0
 13 14  1  0  0  0  0
  4 15  2  0  0  0  0
 15  1  1  0  0  0  0
  2 16  1  0  0  0  0
 16 17  1  0  0  0  0
 17 18  2  0  0  0  0
 18 19  1  0  0  0  0
 19 20  1  0  0  0  0
 20 21  2  0  0  0  0
 20 22  1  0  0  0  0
 22 23  1  0  0  0  0
 23 24  1  0  0  0  0
 24 25  2  0  0  0  0
 25 26  1  0  0  0  0
 26 27  2  0  0  0  0
 27 28  1  0  0  0  0
 28 23  2  0  0  0  0
 22 29  1  0  0  0  0
 29 30  1  0  0  0  0
 18 31  1  0  0  0  0
 31 32  2  0  0  0  0
 32 33  1  0  0  0  0
 33 16  2  0  0  0  0
  8 34  1  0  0  0  0
  9 35  1  0  0  0  0
 10 36  1  0  0  0  0
 11 37  1  0  0  0  0
 12 38  1  0  0  0  0
 14 39  1  0  0  0  0
 14 40  1  0  0  0  0
 14 41  1  0  0  0  0
 15 42  1  0  0  0  0
 17 43  1  0  0  0  0
 19 44  1  0  0  0  0
 22 45  1  0  0  0  0
 24 46  1  0  0  0  0
 25 47  1  0  0  0  0
 26 48  1  0  0  0  0
 27 49  1  0  0  0  0
 28 50  1  0  0  0  0
 29 51  1  0  0  0  0
 29 52  1  0  0  0  0
 30 53  1  0  0  0  0
 30 54  1  0  0  0  0
 30 55  1  0  0  0  0
 31 56  1  0  0  0  0
 32 57  1  0  0  0  0
 33 58  1  0  0  0  0
M  END
>  <result-rank>
46

>  <similarity>
0.905

>  <query-name>


>  <query-smiles>
S(=O)(=O)(Nc1cc2c(NN=C2C=3Nc4c(ccc(c4)C)C3)cc1)c5cc(F)ccc5

>  <source>
REALspace_2019-12

>  <similarity-descriptor>
0.967;1.000;1.000;0.757;0.938;0.679;0.982;1.000;0.182

>  <similarity-descriptor-smiles>
c1ccccc1;C1=CNcc1;c1ccccc1;S1C=CN=C1;c1ccccc1;C(=O)C;N;C;C.C

>  <reaction-name>
s_43

>  <reagent1-name>
1408318

>  <reagent1-smiles>
[R1*]SC(=N[R2*])c1cc(NC(=O)C(c2ccccc2)CC)ccc1

>  <reagent2-name>
1308662

>  <reagent2-smiles>
[R2*]C(C=1c2c(NC1)cccc2C)=C[R1*]

$$$$
s_60____90602____90965
          04022017313D 1   1.00000     0.00000     0
            
 49 53  0  0  0  0            999 V2000
    0.1850   -0.4116    0.9992 S   0  0  0  0  0  0  0  0  0  0  0  0
   -1.2129   -0.1587    0.7636 O   0  0  0  0  0  0  0  0  0  0  0  0
    0.7008   -1.2630   -0.0413 O   0  0  0  0  0  0  0  0  0  0  0  0
    1.0000    1.0000    1.0000 N   0  0  0  0  0  0  0  0  0  0  0  0
    2.3997    1.0000    1.0000 C   0  0  0  0  0  0  0  0  0  0  0  0
    3.0856    1.6046    2.0482 C   0  0  0  0  0  0  0  0  0  0  0  0
    4.4764    1.5985    2.0370 C   0  0  0  0  0  0  0  0  0  0  0  0
    5.1804    0.9997    0.9977 C   0  0  0  0  0  0  0  0  0  0  0  0
    4.4727    0.4008   -0.0398 C   0  0  0  0  0  0  0  0  0  0  0  0
    3.0822    0.3948   -0.0496 C   0  0  0  0  0  0  0  0  0  0  0  0
    5.2318    2.2579    3.1795 C   0  0  0  0  0  0  0  0  0  0  0  0
    5.4523    1.3642    4.1395 F   0  0  0  0  0  0  0  0  0  0  0  0
    6.3944    2.7237    2.7319 F   0  0  0  0  0  0  0  0  0  0  0  0
    4.5096    3.2629    3.6668 F   0  0  0  0  0  0  0  0  0  0  0  0
    0.3809   -1.1953    2.5401 C   0  0  0  0  0  0  0  0  0  0  0  0
   -0.5321   -0.9290    3.5549 C   0  0  0  0  0  0  0  0  0  0  0  0
   -0.4042   -1.5387    4.7984 C   0  0  0  0  0  0  0  0  0  0  0  0
   -1.1420   -1.4556    5.9433 N   0  0  0  0  0  0  0  0  0  0  0  0
   -0.5911   -2.2396    6.8411 C   0  0  0  0  0  0  0  0  0  0  0  0
    0.5093   -2.8478    6.3138 N   0  0  0  0  0  0  0  0  0  0  0  0
    0.6318   -2.4098    5.0287 C   0  0  0  0  0  0  0  0  0  0  0  0
    1.5469   -2.6800    4.0169 C   0  0  0  0  0  0  0  0  0  0  0  0
    1.4311   -2.0781    2.7684 C   0  0  0  0  0  0  0  0  0  0  0  0
   -1.0803   -2.4301    8.1927 C   0  0  0  0  0  0  0  0  0  0  0  0
   -0.3986   -3.2929    9.0439 C   0  0  0  0  0  0  0  0  0  0  0  0
   -0.8710   -3.4712   10.3393 C   0  0  0  0  0  0  0  0  0  0  0  0
   -2.0074   -2.8019   10.7839 C   0  0  0  0  0  0  0  0  0  0  0  0
   -2.6801   -1.9409    9.9223 C   0  0  0  0  0  0  0  0  0  0  0  0
   -2.2167   -1.7539    8.6236 C   0  0  0  0  0  0  0  0  0  0  0  0
   -2.4701   -2.9821   12.0822 C   0  0  0  0  0  0  0  0  0  0  0  0
   -1.7889   -3.8421   12.9378 C   0  0  0  0  0  0  0  0  0  0  0  0
   -0.6548   -4.5119   12.4921 C   0  0  0  0  0  0  0  0  0  0  0  0
   -0.1887   -4.3313   11.1939 C   0  0  0  0  0  0  0  0  0  0  0  0
    0.5000    1.8660    1.0005 H   0  0  0  0  0  0  0  0  0  0  0  0
    2.5862    2.0373    2.7987 H   0  0  0  0  0  0  0  0  0  0  0  0
    6.1804    0.9995    0.9962 H   0  0  0  0  0  0  0  0  0  0  0  0
    4.9720   -0.0321   -0.7903 H   0  0  0  0  0  0  0  0  0  0  0  0
    2.5812   -0.0376   -0.7993 H   0  0  0  0  0  0  0  0  0  0  0  0
   -1.2866   -0.2939    3.3892 H   0  0  0  0  0  0  0  0  0  0  0  0
    1.1127   -3.4936    6.7816 H   0  0  0  0  0  0  0  0  0  0  0  0
    2.2989   -3.3161    4.1895 H   0  0  0  0  0  0  0  0  0  0  0  0
    2.0930   -2.2770    2.0457 H   0  0  0  0  0  0  0  0  0  0  0  0
    0.4179   -3.7771    8.7295 H   0  0  0  0  0  0  0  0  0  0  0  0
   -3.4966   -1.4566   10.2364 H   0  0  0  0  0  0  0  0  0  0  0  0
   -2.6988   -1.1358    8.0026 H   0  0  0  0  0  0  0  0  0  0  0  0
   -3.2857   -2.4977   12.3986 H   0  0  0  0  0  0  0  0  0  0  0  0
   -2.1148   -3.9785   13.8733 H   0  0  0  0  0  0  0  0  0  0  0  0
   -0.1695   -5.1295   13.1109 H   0  0  0  0  0  0  0  0  0  0  0  0
    0.6280   -4.8145   10.8783 H   0  0  0  0  0  0  0  0  0  0  0  0
  1  2  2  0  0  0  0
  1  3  2  0  0  0  0
  1  4  1  0  0  0  0
  4  5  1  0  0  0  0
  5  6  1  0  0  0  0
  6  7  2  0  0  0  0
  7  8  1  0  0  0  0
  8  9  2  0  0  0  0
  9 10  1  0  0  0  0
 10  5  2  0  0  0  0
  7 11  1  0  0  0  0
 11 12  1  0  0  0  0
 11 13  1  0  0  0  0
 11 14  1  0  0  0  0
  1 15  1  0  0  0  0
 15 16  1  0  0  0  0
 16 17  2  0  0  0  0
 17 18  1  0  0  0  0
 18 19  2  0  0  0  0
 19 20  1  0  0  0  0
 20 21  1  0  0  0  0
 21 17  1  0  0  0  0
 21 22  2  0  0  0  0
 22 23  1  0  0  0  0
 23 15  2  0  0  0  0
 19 24  1  0  0  0  0
 24 25  1  0  0  0  0
 25 26  2  0  0  0  0
 26 27  1  0  0  0  0
 27 28  2  0  0  0  0
 28 29  1  0  0  0  0
 29 24  2  0  0  0  0
 27 30  1  0  0  0  0
 30 31  2  0  0  0  0
 31 32  1  0  0  0  0
 32 33  2  0  0  0  0
 33 26  1  0  0  0  0
  4 34  1  0  0  0  0
  6 35  1  0  0  0  0
  8 36  1  0  0  0  0
  9 37  1  0  0  0  0
 10 38  1  0  0  0  0
 16 39  1  0  0  0  0
 20 40  1  0  0  0  0
 22 41  1  0  0  0  0
 23 42  1  0  0  0  0
 25 43  1  0  0  0  0
 28 44  1  0  0  0  0
 29 45  1  0  0  0  0
 30 46  1  0  0  0  0
 31 47  1  0  0  0  0
 32 48  1  0  0  0  0
 33 49  1  0  0  0  0
M  END
>  <result-rank>
47

>  <similarity>
0.904

>  <query-name>


>  <query-smiles>
S(=O)(=O)(Nc1cc2c(NN=C2C=3Nc4c(ccc(c4)C)C3)cc1)c5cc(F)ccc5

>  <source>
REALspace_2019-12

>  <similarity-descriptor>
0.960;0.706;0.955;0.999;0.897;0.888;0.897;0.0;0.0

>  <similarity-descriptor-smiles>
c1cccc(c1)C(F)(F)F;c1ccccc1;c1ccccc1;c1cNC=N1;c1ccccc1;S(=O)(=O)N;c1ccccc1;;

>  <reaction-name>
s_60

>  <reagent1-name>
90602

>  <reagent1-smiles>
[R1*]C1=Nc2c(N1)ccc(S(=O)(=O)Nc3cc(ccc3)C(F)(F)F)c2

>  <reagent2-name>
90965

>  <reagent2-smiles>
[R1*]c1cc2c(cc1)cccc2

$$$$
s_6____71637____13207832
          04022017313D 1   1.00000     0.00000     0
            
 52 55  0  0  0  0            999 V2000
    7.4299    1.6313    2.2520 S   0  0  0  0  0  0  0  0  0  0  0  0
    8.8279    1.7227    1.9191 O   0  0  0  0  0  0  0  0  0  0  0  0
    6.9148    2.9476    2.5267 O   0  0  0  0  0  0  0  0  0  0  0  0
    6.6147    0.9791    1.0002 N   0  0  0  0  0  0  0  0  0  0  0  0
    5.2153    0.9799    1.0000 C   0  0  0  0  0  0  0  0  0  0  0  0
    4.5197   -0.2237    0.9475 C   0  0  0  0  0  0  0  0  0  0  0  0
    3.1287   -0.2134    0.9480 C   0  0  0  0  0  0  0  0  0  0  0  0
    2.4501    1.0000    1.0000 C   0  0  0  0  0  0  0  0  0  0  0  0
    3.1449    2.2034    1.0523 C   0  0  0  0  0  0  0  0  0  0  0  0
    4.5359    2.1932    1.0521 C   0  0  0  0  0  0  0  0  0  0  0  0
    1.0000    1.0000    1.0000 C   0  0  0  0  0  0  0  0  0  0  0  0
    0.4000   -0.0383    0.9555 O   0  0  0  0  0  0  0  0  0  0  0  0
    0.2400    2.3151    1.0564 C   0  0  0  0  0  0  0  0  0  0  0  0
   -1.0600    2.3151    1.0564 C   0  0  0  0  0  0  0  0  0  0  0  0
   -1.7856    3.5707    1.1102 C   0  0  0  0  0  0  0  0  0  0  0  0
   -3.1935    3.7122    1.1163 C   0  0  0  0  0  0  0  0  0  0  0  0
   -3.4107    5.0659    1.1695 C   0  0  0  0  0  0  0  0  0  0  0  0
   -2.2115    5.7182    1.1992 N   0  0  0  0  0  0  0  0  0  0  0  0
   -1.2026    4.8012    1.1621 C   0  0  0  0  0  0  0  0  0  0  0  0
   -4.7179    5.5419    1.1894 C   0  0  0  0  0  0  0  0  0  0  0  0
   -5.8019    4.6703    1.1509 C   0  0  0  0  0  0  0  0  0  0  0  0
   -5.5910    3.2963    1.0928 C   0  0  0  0  0  0  0  0  0  0  0  0
   -4.2770    2.8365    1.0772 C   0  0  0  0  0  0  0  0  0  0  0  0
   -6.7285    2.3935    1.0521 C   0  0  0  0  0  0  0  0  0  0  0  0
   -6.5503    1.1977    1.0015 O   0  5  0  0  0  0  0  0  0  0  0  0
   -7.8912    2.8519    1.0693 O   0  0  0  0  0  0  0  0  0  0  0  0
    7.2332    0.6265    3.6586 C   0  0  0  0  0  0  0  0  0  0  0  0
    8.1365   -0.4015    3.9063 C   0  0  0  0  0  0  0  0  0  0  0  0
    7.9813   -1.2063    5.0304 C   0  0  0  0  0  0  0  0  0  0  0  0
    6.9178   -0.9694    5.8947 C   0  0  0  0  0  0  0  0  0  0  0  0
    6.0145    0.0587    5.6460 C   0  0  0  0  0  0  0  0  0  0  0  0
    6.1694    0.8639    4.5230 C   0  0  0  0  0  0  0  0  0  0  0  0
    6.7432   -1.8466    7.1235 C   0  0  0  0  0  0  0  0  0  0  0  0
    7.1146    0.5785    0.2324 H   0  0  0  0  0  0  0  0  0  0  0  0
    5.0165   -1.0907    0.9096 H   0  0  0  0  0  0  0  0  0  0  0  0
    2.6195   -1.0732    0.9111 H   0  0  0  0  0  0  0  0  0  0  0  0
    2.6480    3.0704    1.0898 H   0  0  0  0  0  0  0  0  0  0  0  0
    5.0449    3.0531    1.0892 H   0  0  0  0  0  0  0  0  0  0  0  0
    0.7400    3.1804    1.0935 H   0  0  0  0  0  0  0  0  0  0  0  0
   -1.5600    1.4499    1.0193 H   0  0  0  0  0  0  0  0  0  0  0  0
   -2.0920    6.7102    1.2413 H   0  0  0  0  0  0  0  0  0  0  0  0
   -0.2216    4.9951    1.1713 H   0  0  0  0  0  0  0  0  0  0  0  0
   -4.8813    6.5275    1.2320 H   0  0  0  0  0  0  0  0  0  0  0  0
   -6.7341    5.0321    1.1651 H   0  0  0  0  0  0  0  0  0  0  0  0
   -4.1062    1.8520    1.0368 H   0  0  0  0  0  0  0  0  0  0  0  0
    8.8968   -0.5620    3.2769 H   0  0  0  0  0  0  0  0  0  0  0  0
    8.6274   -1.9470    5.2149 H   0  0  0  0  0  0  0  0  0  0  0  0
    5.2537    0.2188    6.2749 H   0  0  0  0  0  0  0  0  0  0  0  0
    5.5236    1.6049    4.3389 H   0  0  0  0  0  0  0  0  0  0  0  0
    5.9380   -1.5470    7.6352 H   0  0  0  0  0  0  0  0  0  0  0  0
    6.6228   -2.7978    6.8396 H   0  0  0  0  0  0  0  0  0  0  0  0
    7.5539   -1.7720    7.7042 H   0  0  0  0  0  0  0  0  0  0  0  0
  1  2  2  0  0  0  0
  1  3  2  0  0  0  0
  1  4  1  0  0  0  0
  4  5  1  0  0  0  0
  5  6  1  0  0  0  0
  6  7  2  0  0  0  0
  7  8  1  0  0  0  0
  8  9  2  0  0  0  0
  9 10  1  0  0  0  0
 10  5  2  0  0  0  0
  8 11  1  0  0  0  0
 11 12  2  0  0  0  0
 11 13  1  0  0  0  0
 13 14  2  0  0  0  0
 14 15  1  0  0  0  0
 15 16  1  0  0  0  0
 16 17  1  0  0  0  0
 17 18  1  0  0  0  0
 18 19  1  0  0  0  0
 15 19  2  0  0  0  0
 17 20  2  0  0  0  0
 20 21  1  0  0  0  0
 21 22  2  0  0  0  0
 22 23  1  0  0  0  0
 23 16  2  0  0  0  0
 22 24  1  0  0  0  0
 24 25  1  0  0  0  0
 24 26  2  0  0  0  0
  1 27  1  0  0  0  0
 27 28  1  0  0  0  0
 28 29  2  0  0  0  0
 29 30  1  0  0  0  0
 30 31  2  0  0  0  0
 31 32  1  0  0  0  0
 32 27  2  0  0  0  0
 30 33  1  0  0  0  0
  4 34  1  0  0  0  0
  6 35  1  0  0  0  0
  7 36  1  0  0  0  0
  9 37  1  0  0  0  0
 10 38  1  0  0  0  0
 13 39  1  0  0  0  0
 14 40  1  0  0  0  0
 18 41  1  0  0  0  0
 19 42  1  0  0  0  0
 20 43  1  0  0  0  0
 21 44  1  0  0  0  0
 23 45  1  0  0  0  0
 28 46  1  0  0  0  0
 29 47  1  0  0  0  0
 31 48  1  0  0  0  0
 32 49  1  0  0  0  0
 33 50  1  0  0  0  0
 33 51  1  0  0  0  0
 33 52  1  0  0  0  0
M  CHG  1  25  -1
M  END
>  <result-rank>
48

>  <similarity>
0.903

>  <query-name>


>  <query-smiles>
S(=O)(=O)(Nc1cc2c(NN=C2C=3Nc4c(ccc(c4)C)C3)cc1)c5cc(F)ccc5

>  <source>
REALspace_2019-12

>  <similarity-descriptor>
0.982;1.000;1.000;0.584;0.938;1.000;1.000;0.0;0.182

>  <similarity-descriptor-smiles>
c1ccccc1;C1=CNcc1;c1ccccc1;C(=O)C=C;c1ccccc1;S(=O)=O;N;;C([O-])=O.C

>  <reaction-name>
s_6

>  <reagent1-name>
71637

>  <reagent1-smiles>
[R1*]=CC(=O)c1ccc(NS(=O)(=O)c2ccc(cc2)C)cc1

>  <reagent2-name>
13207832

>  <reagent2-smiles>
[R1*]=CC=1c2c(NC1)ccc(c2)C(=O)O

$$$$
s_8____15359954____821406
          04022017313D 1   1.00000     0.00000     0
            
 49 52  0  0  0  0            999 V2000
   -0.6374    2.7251    2.5386 S   0  0  0  0  0  0  0  0  0  0  0  0
   -1.6451    3.4632    1.8220 O   0  0  0  0  0  0  0  0  0  0  0  0
   -0.4385    1.4466    1.9066 O   0  0  0  0  0  0  0  0  0  0  0  0
    0.7615    3.5615    2.5249 N   0  0  0  0  0  0  0  0  0  0  0  0
    1.9842    2.8802    2.5097 C   0  0  0  0  0  0  0  0  0  0  0  0
    3.1777    3.5943    2.4980 C   0  0  0  0  0  0  0  0  0  0  0  0
    4.3931    2.9175    2.4829 C   0  0  0  0  0  0  0  0  0  0  0  0
    4.3950    1.5262    2.4798 C   0  0  0  0  0  0  0  0  0  0  0  0
    5.6179    0.8451    2.4642 N   0  0  0  0  0  0  0  0  0  0  0  0
    5.9394   -0.0088    3.4862 C   0  0  0  0  0  0  0  0  0  0  0  0
    5.1693    0.1176    4.9400 S   0  0  0  0  0  0  0  0  0  0  0  0
    6.9004   -0.9675    3.3011 N   0  0  0  0  0  0  0  0  0  0  0  0
    7.5290   -1.5511    4.4073 C   0  0  0  0  0  0  0  0  0  0  0  0
    8.5730   -0.8768    5.0320 C   0  0  0  0  0  0  0  0  0  0  0  0
    9.1972   -1.4573    6.1317 C   0  0  0  0  0  0  0  0  0  0  0  0
    8.7737   -2.6995    6.5941 C   0  0  0  0  0  0  0  0  0  0  0  0
    7.7288   -3.3669    5.9635 C   0  0  0  0  0  0  0  0  0  0  0  0
    7.0997   -2.7932    4.8629 C   0  0  0  0  0  0  0  0  0  0  0  0
    9.3924   -3.2854    7.6936 C   0  0  0  0  0  0  0  0  0  0  0  0
   10.4364   -2.6124    8.3194 C   0  0  0  0  0  0  0  0  0  0  0  0
   10.8616   -1.3704    7.8595 C   0  0  0  0  0  0  0  0  0  0  0  0
   10.2412   -0.7870    6.7602 C   0  0  0  0  0  0  0  0  0  0  0  0
    3.2013    0.8121    2.4917 C   0  0  0  0  0  0  0  0  0  0  0  0
    1.9859    1.4888    2.5066 C   0  0  0  0  0  0  0  0  0  0  0  0
   -1.1535    2.4852    4.1825 C   0  0  0  0  0  0  0  0  0  0  0  0
   -1.9779    3.4267    4.7897 C   0  0  0  0  0  0  0  0  0  0  0  0
   -2.3866    3.2297    6.1043 C   0  0  0  0  0  0  0  0  0  0  0  0
   -1.9693    2.0975    6.7958 C   0  0  0  0  0  0  0  0  0  0  0  0
   -2.3643    1.9159    8.0527 F   0  0  0  0  0  0  0  0  0  0  0  0
   -1.1450    1.1603    6.1831 C   0  0  0  0  0  0  0  0  0  0  0  0
   -0.7324    1.3512    4.8688 C   0  0  0  0  0  0  0  0  0  0  0  0
    0.7463    4.5614    2.5273 H   0  0  0  0  0  0  0  0  0  0  0  0
    3.1622    4.5942    2.5004 H   0  0  0  0  0  0  0  0  0  0  0  0
    5.2548    3.4248    2.4743 H   0  0  0  0  0  0  0  0  0  0  0  0
    6.2567    0.9817    1.7071 H   0  0  0  0  0  0  0  0  0  0  0  0
    7.1528   -1.2504    2.3758 H   0  0  0  0  0  0  0  0  0  0  0  0
    8.8717    0.0158    4.6943 H   0  0  0  0  0  0  0  0  0  0  0  0
    7.4296   -4.2593    6.3012 H   0  0  0  0  0  0  0  0  0  0  0  0
    6.3482   -3.2682    4.4051 H   0  0  0  0  0  0  0  0  0  0  0  0
    9.0909   -4.1777    8.0294 H   0  0  0  0  0  0  0  0  0  0  0  0
   10.8872   -3.0268    9.1101 H   0  0  0  0  0  0  0  0  0  0  0  0
   11.6131   -0.8972    8.3193 H   0  0  0  0  0  0  0  0  0  0  0  0
   10.5427    0.1055    6.4248 H   0  0  0  0  0  0  0  0  0  0  0  0
    3.2168   -0.1878    2.4896 H   0  0  0  0  0  0  0  0  0  0  0  0
    1.1241    0.9816    2.5149 H   0  0  0  0  0  0  0  0  0  0  0  0
   -2.2740    4.2379    4.2855 H   0  0  0  0  0  0  0  0  0  0  0  0
   -2.9789    3.9003    6.5511 H   0  0  0  0  0  0  0  0  0  0  0  0
   -0.8489    0.3491    6.6874 H   0  0  0  0  0  0  0  0  0  0  0  0
   -0.1397    0.6809    4.4224 H   0  0  0  0  0  0  0  0  0  0  0  0
  1  2  2  0  0  0  0
  1  3  2  0  0  0  0
  1  4  1  0  0  0  0
  4  5  1  0  0  0  0
  5  6  1  0  0  0  0
  6  7  2  0  0  0  0
  7  8  1  0  0  0  0
  8  9  1  0  0  0  0
  9 10  1  0  0  0  0
 10 11  2  0  0  0  0
 10 12  1  0  0  0  0
 12 13  1  0  0  0  0
 13 14  1  0  0  0  0
 14 15  2  0  0  0  0
 15 16  1  0  0  0  0
 16 17  2  0  0  0  0
 17 18  1  0  0  0  0
 18 13  2  0  0  0  0
 16 19  1  0  0  0  0
 19 20  2  0  0  0  0
 20 21  1  0  0  0  0
 21 22  2  0  0  0  0
 22 15  1  0  0  0  0
  8 23  2  0  0  0  0
 23 24  1  0  0  0  0
 24  5  2  0  0  0  0
  1 25  1  0  0  0  0
 25 26  1  0  0  0  0
 26 27  2  0  0  0  0
 27 28  1  0  0  0  0
 28 29  1  0  0  0  0
 28 30  2  0  0  0  0
 30 31  1  0  0  0  0
 31 25  2  0  0  0  0
  4 32  1  0  0  0  0
  6 33  1  0  0  0  0
  7 34  1  0  0  0  0
  9 35  1  0  0  0  0
 12 36  1  0  0  0  0
 14 37  1  0  0  0  0
 17 38  1  0  0  0  0
 18 39  1  0  0  0  0
 19 40  1  0  0  0  0
 20 41  1  0  0  0  0
 21 42  1  0  0  0  0
 22 43  1  0  0  0  0
 23 44  1  0  0  0  0
 24 45  1  0  0  0  0
 26 46  1  0  0  0  0
 27 47  1  0  0  0  0
 30 48  1  0  0  0  0
 31 49  1  0  0  0  0
M  END
>  <result-rank>
49

>  <similarity>
0.903

>  <query-name>


>  <query-smiles>
S(=O)(=O)(Nc1cc2c(NN=C2C=3Nc4c(ccc(c4)C)C3)cc1)c5cc(F)ccc5

>  <source>
REALspace_2019-12

>  <similarity-descriptor>
1.000;0.803;0.955;0.656;0.936;1.000;1.000;0.0;0.0

>  <similarity-descriptor-smiles>
c1ccc(cc1)F;Nc1ccccc1;c1ccccc1;NC=S;c1ccccc1;S(=O)=O;N;;

>  <reaction-name>
s_8

>  <reagent1-name>
15359954

>  <reagent1-smiles>
[R1*]Nc1ccc(NS(=O)(=O)c2ccc(F)cc2)cc1

>  <reagent2-name>
821406

>  <reagent2-smiles>
[R1*]C(=S)Nc1cc2c(cc1)cccc2

$$$$
s_22____9276248____12103000
          04022017313D 1   1.00000     0.00000     0
            
 49 52  0  0  0  0            999 V2000
    5.3746    3.5372   -0.0001 S   0  0  0  0  0  0  0  0  0  0  0  0
    4.5878    4.7132    0.2674 O   0  0  0  0  0  0  0  0  0  0  0  0
    6.6349    3.6358    0.6894 O   0  0  0  0  0  0  0  0  0  0  0  0
    5.6406    3.4148   -1.6036 N   0  0  0  0  0  0  0  0  0  0  0  0
    4.5711    3.5169   -2.5001 C   0  0  0  0  0  0  0  0  0  0  0  0
    4.2909    2.4461   -3.3428 C   0  0  0  0  0  0  0  0  0  0  0  0
    3.2261    2.5529   -4.2312 C   0  0  0  0  0  0  0  0  0  0  0  0
    2.9415    1.5387   -5.0446 F   0  0  0  0  0  0  0  0  0  0  0  0
    2.4515    3.7063   -4.2787 C   0  0  0  0  0  0  0  0  0  0  0  0
    2.7415    4.7690   -3.4303 C   0  0  0  0  0  0  0  0  0  0  0  0
    3.8047    4.6771   -2.5391 C   0  0  0  0  0  0  0  0  0  0  0  0
    4.5184    2.1280    0.5550 C   0  0  0  0  0  0  0  0  0  0  0  0
    3.1272    2.1306    0.5552 C   0  0  0  0  0  0  0  0  0  0  0  0
    2.4502    1.0000    1.0000 C   0  0  0  0  0  0  0  0  0  0  0  0
    3.1533   -0.1166    1.4390 C   0  0  0  0  0  0  0  0  0  0  0  0
    2.5072   -1.1984    1.8655 F   0  0  0  0  0  0  0  0  0  0  0  0
    4.5448   -0.1088    1.4340 C   0  0  0  0  0  0  0  0  0  0  0  0
    5.2328    1.0168    0.9915 C   0  0  0  0  0  0  0  0  0  0  0  0
    1.0000    1.0000    1.0000 C   0  0  0  0  0  0  0  0  0  0  0  0
    0.4000    2.0389    0.9735 O   0  0  0  0  0  0  0  0  0  0  0  0
    0.3150   -0.1861    1.0303 N   0  0  0  0  0  0  0  0  0  0  0  0
   -1.0848   -0.1861    1.0303 C   0  0  0  0  0  0  0  0  0  0  0  0
   -1.8717    0.9266    1.0016 N   0  0  0  0  0  0  0  0  0  0  0  0
   -3.1757    0.5292    1.0120 C   0  0  0  0  0  0  0  0  0  0  0  0
   -3.2113   -0.8446    1.0496 C   0  0  0  0  0  0  0  0  0  0  0  0
   -4.4440   -1.4895    1.0638 C   0  0  0  0  0  0  0  0  0  0  0  0
   -5.6317   -0.7643    1.0420 C   0  0  0  0  0  0  0  0  0  0  0  0
   -6.8394   -1.3672    1.0567 O   0  0  0  0  0  0  0  0  0  0  0  0
   -8.0240   -0.5845    1.0332 C   0  0  0  0  0  0  0  0  0  0  0  0
   -5.5769    0.6250    1.0049 C   0  0  0  0  0  0  0  0  0  0  0  0
   -4.3460    1.2729    0.9895 C   0  0  0  0  0  0  0  0  0  0  0  0
   -1.8712   -1.2988    1.0587 C   0  0  0  0  0  0  0  0  0  0  0  0
    6.5682    3.2667   -1.9466 H   0  0  0  0  0  0  0  0  0  0  0  0
    4.8451    1.6143   -3.3103 H   0  0  0  0  0  0  0  0  0  0  0  0
    1.6879    3.7714   -4.9210 H   0  0  0  0  0  0  0  0  0  0  0  0
    2.1854    5.5996   -3.4611 H   0  0  0  0  0  0  0  0  0  0  0  0
    4.0172    5.4408   -1.9295 H   0  0  0  0  0  0  0  0  0  0  0  0
    2.6214    2.9336    0.2402 H   0  0  0  0  0  0  0  0  0  0  0  0
    5.0504   -0.9122    1.7484 H   0  0  0  0  0  0  0  0  0  0  0  0
    6.2328    1.0270    0.9872 H   0  0  0  0  0  0  0  0  0  0  0  0
    0.8150   -1.0518    1.0524 H   0  0  0  0  0  0  0  0  0  0  0  0
   -1.5478    1.8724    0.9772 H   0  0  0  0  0  0  0  0  0  0  0  0
   -4.4771   -2.4886    1.0900 H   0  0  0  0  0  0  0  0  0  0  0  0
   -8.8219   -1.1870    1.0486 H   0  0  0  0  0  0  0  0  0  0  0  0
   -8.0434    0.0148    1.8335 H   0  0  0  0  0  0  0  0  0  0  0  0
   -8.0408   -0.0301    0.2012 H   0  0  0  0  0  0  0  0  0  0  0  0
   -6.4227    1.1583    0.9892 H   0  0  0  0  0  0  0  0  0  0  0  0
   -4.3051    2.2717    0.9624 H   0  0  0  0  0  0  0  0  0  0  0  0
   -1.5619   -2.2495    1.0816 H   0  0  0  0  0  0  0  0  0  0  0  0
  1  2  2  0  0  0  0
  1  3  2  0  0  0  0
  1  4  1  0  0  0  0
  4  5  1  0  0  0  0
  5  6  1  0  0  0  0
  6  7  2  0  0  0  0
  7  8  1  0  0  0  0
  7  9  1  0  0  0  0
  9 10  2  0  0  0  0
 10 11  1  0  0  0  0
 11  5  2  0  0  0  0
  1 12  1  0  0  0  0
 12 13  1  0  0  0  0
 13 14  2  0  0  0  0
 14 15  1  0  0  0  0
 15 16  1  0  0  0  0
 15 17  2  0  0  0  0
 17 18  1  0  0  0  0
 18 12  2  0  0  0  0
 14 19  1  0  0  0  0
 19 20  2  0  0  0  0
 19 21  1  0  0  0  0
 21 22  1  0  0  0  0
 22 23  1  0  0  0  0
 23 24  1  0  0  0  0
 24 25  1  0  0  0  0
 25 26  2  0  0  0  0
 26 27  1  0  0  0  0
 27 28  1  0  0  0  0
 28 29  1  0  0  0  0
 27 30  2  0  0  0  0
 30 31  1  0  0  0  0
 31 24  2  0  0  0  0
 25 32  1  0  0  0  0
 22 32  2  0  0  0  0
  4 33  1  0  0  0  0
  6 34  1  0  0  0  0
  9 35  1  0  0  0  0
 10 36  1  0  0  0  0
 11 37  1  0  0  0  0
 13 38  1  0  0  0  0
 17 39  1  0  0  0  0
 18 40  1  0  0  0  0
 21 41  1  0  0  0  0
 23 42  1  0  0  0  0
 26 43  1  0  0  0  0
 29 44  1  0  0  0  0
 29 45  1  0  0  0  0
 29 46  1  0  0  0  0
 30 47  1  0  0  0  0
 31 48  1  0  0  0  0
 32 49  1  0  0  0  0
M  END
>  <result-rank>
50

>  <similarity>
0.902

>  <query-name>


>  <query-smiles>
S(=O)(=O)(Nc1cc2c(NN=C2C=3Nc4c(ccc(c4)C)C3)cc1)c5cc(F)ccc5

>  <source>
REALspace_2019-12

>  <similarity-descriptor>
0.999;0.996;0.898;0.603;0.899;0.888;0.899;0.995;0.0

>  <similarity-descriptor-smiles>
c1cccc(c1)F;C1=CccN1;c1ccc(cc1)O;C(=O)N;c1ccc(cc1)F;S(=O)(=O)N;c1ccc(cc1)F;C;

>  <reaction-name>
s_22

>  <reagent1-name>
9276248

>  <reagent1-smiles>
[R1*]NC=1Nc2c(cc(OC)cc2)C1

>  <reagent2-name>
12103000

>  <reagent2-smiles>
[R1*]C(=O)c1c(F)ccc(S(=O)(=O)Nc2cc(F)ccc2)c1

$$$$
m_276910____14484268____14485954
          04022017313D 1   1.00000     0.00000     0
            
 52 56  0  0  0  0            999 V2000
   -2.0068    1.7823    7.8539 F   0  0  0  0  0  0  0  0  0  0  0  0
   -1.6471    2.0259    6.5969 C   0  0  0  0  0  0  0  0  0  0  0  0
   -2.0995    3.1759    5.9581 C   0  0  0  0  0  0  0  0  0  0  0  0
   -1.7197    3.4236    4.6430 C   0  0  0  0  0  0  0  0  0  0  0  0
   -0.8933    2.5201    3.9832 C   0  0  0  0  0  0  0  0  0  0  0  0
   -0.4436    1.3723    4.6269 C   0  0  0  0  0  0  0  0  0  0  0  0
   -0.8197    1.1196    5.9419 C   0  0  0  0  0  0  0  0  0  0  0  0
   -0.4823    2.7965    2.5464 C   0  0  0  0  0  0  0  0  0  0  0  0
    0.7221    3.5486    2.5349 O   0  0  0  0  0  0  0  0  0  0  0  0
    1.9755    2.8817    2.5149 C   0  0  0  0  0  0  0  0  0  0  0  0
    3.1722    3.5918    2.5033 C   0  0  0  0  0  0  0  0  0  0  0  0
    4.3854    2.9103    2.4834 C   0  0  0  0  0  0  0  0  0  0  0  0
    4.4018    1.5195    2.4751 C   0  0  0  0  0  0  0  0  0  0  0  0
    3.2056    0.8098    2.4874 C   0  0  0  0  0  0  0  0  0  0  0  0
    1.9925    1.4906    2.5074 C   0  0  0  0  0  0  0  0  0  0  0  0
    3.1547    5.0417    2.5108 C   0  0  0  0  0  0  0  0  0  0  0  0
    4.2120    5.8174    2.5013 N   0  0  0  0  0  0  0  0  0  0  0  0
    3.8172    7.0688    2.5116 N   0  0  0  0  0  0  0  0  0  0  0  0
    2.4552    7.0604    2.5291 C   0  0  0  0  0  0  0  0  0  0  0  0
    2.0362    5.8190    2.5291 N   0  0  0  0  0  0  0  0  0  0  0  0
    1.5641    8.2917    2.5485 C   0  0  0  0  0  0  0  0  0  0  0  0
    1.2884    8.6950    3.9881 C   0  0  0  0  0  0  0  0  0  0  0  0
    2.0768    9.5889    4.7494 C   0  0  0  0  0  0  0  0  0  0  0  0
    1.4460    9.6416    5.9730 C   0  0  0  0  0  0  0  0  0  0  0  0
    0.3432    8.8346    5.9634 N   0  0  0  0  0  0  0  0  0  0  0  0
    0.2412    8.2471    4.7373 C   0  0  0  0  0  0  0  0  0  0  0  0
    1.9589   10.4442    6.9862 C   0  0  0  0  0  0  0  0  0  0  0  0
    3.1100   11.1974    6.7830 C   0  0  0  0  0  0  0  0  0  0  0  0
    3.7566   11.1460    5.5523 C   0  0  0  0  0  0  0  0  0  0  0  0
    3.2305   10.3411    4.5465 C   0  0  0  0  0  0  0  0  0  0  0  0
    3.6591   12.0705    7.8995 C   0  0  0  0  0  0  0  0  0  0  0  0
   -2.6933    3.8197    6.4407 H   0  0  0  0  0  0  0  0  0  0  0  0
   -2.0393    4.2471    4.1742 H   0  0  0  0  0  0  0  0  0  0  0  0
    0.1503    0.7286    4.1443 H   0  0  0  0  0  0  0  0  0  0  0  0
   -0.4993    0.2965    6.4107 H   0  0  0  0  0  0  0  0  0  0  0  0
   -0.3387    1.9300    2.0682 H   0  0  0  0  0  0  0  0  0  0  0  0
   -1.2036    3.3151    2.0872 H   0  0  0  0  0  0  0  0  0  0  0  0
    5.2454    3.4206    2.4750 H   0  0  0  0  0  0  0  0  0  0  0  0
    5.2736    1.0299    2.4602 H   0  0  0  0  0  0  0  0  0  0  0  0
    3.2175   -0.1901    2.4820 H   0  0  0  0  0  0  0  0  0  0  0  0
    1.1327    0.9801    2.5164 H   0  0  0  0  0  0  0  0  0  0  0  0
    4.4059    7.8772    2.5074 H   0  0  0  0  0  0  0  0  0  0  0  0
    0.7003    8.0853    2.0888 H   0  0  0  0  0  0  0  0  0  0  0  0
    2.0231    9.0428    2.0739 H   0  0  0  0  0  0  0  0  0  0  0  0
   -0.2851    8.6977    6.7291 H   0  0  0  0  0  0  0  0  0  0  0  0
   -0.4687    7.6074    4.4428 H   0  0  0  0  0  0  0  0  0  0  0  0
    1.4945   10.4802    7.8712 H   0  0  0  0  0  0  0  0  0  0  0  0
    4.5871   11.6797    5.3929 H   0  0  0  0  0  0  0  0  0  0  0  0
    3.6908   10.3020    3.6596 H   0  0  0  0  0  0  0  0  0  0  0  0
    4.4843   12.5377    7.5821 H   0  0  0  0  0  0  0  0  0  0  0  0
    2.9721   12.7484    8.1612 H   0  0  0  0  0  0  0  0  0  0  0  0
    3.8822   11.4999    8.6898 H   0  0  0  0  0  0  0  0  0  0  0  0
  1  2  1  0  0  0  0
  2  3  1  0  0  0  0
  3  4  2  0  0  0  0
  4  5  1  0  0  0  0
  5  6  2  0  0  0  0
  6  7  1  0  0  0  0
  7  2  2  0  0  0  0
  5  8  1  0  0  0  0
  8  9  1  0  0  0  0
  9 10  1  0  0  0  0
 10 11  1  0  0  0  0
 11 12  2  0  0  0  0
 12 13  1  0  0  0  0
 13 14  2  0  0  0  0
 14 15  1  0  0  0  0
 15 10  2  0  0  0  0
 11 16  1  0  0  0  0
 16 17  2  0  0  0  0
 17 18  1  0  0  0  0
 18 19  1  0  0  0  0
 19 20  2  0  0  0  0
 20 16  1  0  0  0  0
 19 21  1  0  0  0  0
 21 22  1  0  0  0  0
 22 23  1  0  0  0  0
 23 24  1  0  0  0  0
 24 25  1  0  0  0  0
 25 26  1  0  0  0  0
 22 26  2  0  0  0  0
 24 27  2  0  0  0  0
 27 28  1  0  0  0  0
 28 29  2  0  0  0  0
 29 30  1  0  0  0  0
 30 23  2  0  0  0  0
 28 31  1  0  0  0  0
  3 32  1  0  0  0  0
  4 33  1  0  0  0  0
  6 34  1  0  0  0  0
  7 35  1  0  0  0  0
  8 36  1  0  0  0  0
  8 37  1  0  0  0  0
 12 38  1  0  0  0  0
 13 39  1  0  0  0  0
 14 40  1  0  0  0  0
 15 41  1  0  0  0  0
 18 42  1  0  0  0  0
 21 43  1  0  0  0  0
 21 44  1  0  0  0  0
 25 45  1  0  0  0  0
 26 46  1  0  0  0  0
 27 47  1  0  0  0  0
 29 48  1  0  0  0  0
 30 49  1  0  0  0  0
 31 50  1  0  0  0  0
 31 51  1  0  0  0  0
 31 52  1  0  0  0  0
M  END
>  <result-rank>
51

>  <similarity>
0.902

>  <query-name>


>  <query-smiles>
S(=O)(=O)(Nc1cc2c(NN=C2C=3Nc4c(ccc(c4)C)C3)cc1)c5cc(F)ccc5

>  <source>
REALspace_2019-12

>  <similarity-descriptor>
0.999;0.906;1.000;0.847;0.879;0.542;0.879;1.000;0.0

>  <similarity-descriptor-smiles>
Fc1ccccc1;CC1=CNcc1;c1ccccc1;C=1N=CNN1;c1ccccc1;CO;c1ccccc1;C;

>  <reaction-name>
m_276910

>  <reagent1-name>
14484268

>  <reagent1-smiles>
[R2*]=NN=C([R1*])c1c(OCc2ccc(F)cc2)cccc1

>  <reagent2-name>
14485954

>  <reagent2-smiles>
[R2*]=C(N[R1*])CC=1c2c(NC1)cc(cc2)C

$$$$
s_22____14797414____60216
          04022017313D 1   1.00000     0.00000     0
            
 48 51  0  0  0  0            999 V2000
    7.7041   -3.1521   -0.7802 Cl  0  0  0  0  0  0  0  0  0  0  0  0
    7.4443   -3.0519    0.9781 C   0  0  0  0  0  0  0  0  0  0  0  0
    7.0838   -4.1881    1.6942 C   0  0  0  0  0  0  0  0  0  0  0  0
    6.9351   -5.3460    1.0571 F   0  0  0  0  0  0  0  0  0  0  0  0
    6.8800   -4.1129    3.0676 C   0  0  0  0  0  0  0  0  0  0  0  0
    7.0360   -2.8986    3.7292 C   0  0  0  0  0  0  0  0  0  0  0  0
    7.3962   -1.7706    2.9993 C   0  0  0  0  0  0  0  0  0  0  0  0
    7.5904   -0.2507    3.8233 S   0  0  0  0  0  0  0  0  0  0  0  0
    8.5741    0.5456    3.1362 O   0  0  0  0  0  0  0  0  0  0  0  0
    8.0254   -0.4896    5.1750 O   0  0  0  0  0  0  0  0  0  0  0  0
    6.1666    0.5426    3.8428 N   0  0  0  0  0  0  0  0  0  0  0  0
    5.7226    0.7865    2.4629 C   0  0  0  0  0  0  0  0  0  0  0  0
    4.3946    1.5264    2.4811 C   0  0  0  0  0  0  0  0  0  0  0  0
    4.3868    2.9177    2.4867 C   0  0  0  0  0  0  0  0  0  0  0  0
    3.1749    3.5997    2.5020 C   0  0  0  0  0  0  0  0  0  0  0  0
    1.9845    2.8800    2.5105 C   0  0  0  0  0  0  0  0  0  0  0  0
    1.9911    1.4894    2.5059 C   0  0  0  0  0  0  0  0  0  0  0  0
    3.2033    0.8072    2.4921 C   0  0  0  0  0  0  0  0  0  0  0  0
    0.7179    3.5859    2.5254 C   0  0  0  0  0  0  0  0  0  0  0  0
    0.6658    4.7324    2.1751 O   0  0  0  0  0  0  0  0  0  0  0  0
   -0.4193    2.9438    2.9396 N   0  0  0  0  0  0  0  0  0  0  0  0
   -1.6432    3.6259    2.9540 C   0  0  0  0  0  0  0  0  0  0  0  0
   -2.7981    3.2590    2.2235 C   0  0  0  0  0  0  0  0  0  0  0  0
   -3.1737    2.2538    1.3346 C   0  0  0  0  0  0  0  0  0  0  0  0
   -2.3047    1.3066    0.9870 F   0  0  0  0  0  0  0  0  0  0  0  0
   -4.4533    2.2092    0.7908 C   0  0  0  0  0  0  0  0  0  0  0  0
   -5.3800    3.1861    1.1396 C   0  0  0  0  0  0  0  0  0  0  0  0
   -5.0167    4.1951    2.0263 C   0  0  0  0  0  0  0  0  0  0  0  0
   -3.7326    4.2221    2.5591 C   0  0  0  0  0  0  0  0  0  0  0  0
   -3.1917    5.1172    3.4371 N   0  0  0  0  0  0  0  0  0  0  0  0
   -1.9006    4.7517    3.6816 C   0  0  0  0  0  0  0  0  0  0  0  0
    7.6032   -1.8313    1.6257 C   0  0  0  0  0  0  0  0  0  0  0  0
    6.6212   -4.9317    3.5802 H   0  0  0  0  0  0  0  0  0  0  0  0
    6.8910   -2.8376    4.7167 H   0  0  0  0  0  0  0  0  0  0  0  0
    6.2782    1.4162    4.3164 H   0  0  0  0  0  0  0  0  0  0  0  0
    5.6110   -0.0871    1.9893 H   0  0  0  0  0  0  0  0  0  0  0  0
    6.4057    1.3394    1.9857 H   0  0  0  0  0  0  0  0  0  0  0  0
    5.2486    3.4249    2.4797 H   0  0  0  0  0  0  0  0  0  0  0  0
    3.1594    4.5996    2.5068 H   0  0  0  0  0  0  0  0  0  0  0  0
    1.1291    0.9825    2.5126 H   0  0  0  0  0  0  0  0  0  0  0  0
    3.2186   -0.1926    2.4900 H   0  0  0  0  0  0  0  0  0  0  0  0
   -0.3759    1.9884    3.2315 H   0  0  0  0  0  0  0  0  0  0  0  0
   -4.7051    1.4805    0.1540 H   0  0  0  0  0  0  0  0  0  0  0  0
   -6.3028    3.1635    0.7550 H   0  0  0  0  0  0  0  0  0  0  0  0
   -5.6787    4.9003    2.2802 H   0  0  0  0  0  0  0  0  0  0  0  0
   -3.6619    5.9060    3.8331 H   0  0  0  0  0  0  0  0  0  0  0  0
   -1.2581    5.2237    4.2853 H   0  0  0  0  0  0  0  0  0  0  0  0
    7.8615   -1.0126    1.1130 H   0  0  0  0  0  0  0  0  0  0  0  0
  1  2  1  0  0  0  0
  2  3  1  0  0  0  0
  3  4  1  0  0  0  0
  3  5  2  0  0  0  0
  5  6  1  0  0  0  0
  6  7  2  0  0  0  0
  7  8  1  0  0  0  0
  8  9  2  0  0  0  0
  8 10  2  0  0  0  0
  8 11  1  0  0  0  0
 11 12  1  0  0  0  0
 12 13  1  0  0  0  0
 13 14  1  0  0  0  0
 14 15  2  0  0  0  0
 15 16  1  0  0  0  0
 16 17  2  0  0  0  0
 17 18  1  0  0  0  0
 18 13  2  0  0  0  0
 16 19  1  0  0  0  0
 19 20  2  0  0  0  0
 19 21  1  0  0  0  0
 21 22  1  0  0  0  0
 22 23  1  0  0  0  0
 23 24  1  0  0  0  0
 24 25  1  0  0  0  0
 24 26  2  0  0  0  0
 26 27  1  0  0  0  0
 27 28  2  0  0  0  0
 28 29  1  0  0  0  0
 29 23  2  0  0  0  0
 29 30  1  0  0  0  0
 30 31  1  0  0  0  0
 22 31  2  0  0  0  0
  7 32  1  0  0  0  0
 32  2  2  0  0  0  0
  5 33  1  0  0  0  0
  6 34  1  0  0  0  0
 11 35  1  0  0  0  0
 12 36  1  0  0  0  0
 12 37  1  0  0  0  0
 14 38  1  0  0  0  0
 15 39  1  0  0  0  0
 17 40  1  0  0  0  0
 18 41  1  0  0  0  0
 21 42  1  0  0  0  0
 26 43  1  0  0  0  0
 27 44  1  0  0  0  0
 28 45  1  0  0  0  0
 30 46  1  0  0  0  0
 31 47  1  0  0  0  0
 32 48  1  0  0  0  0
M  END
>  <result-rank>
52

>  <similarity>
0.901

>  <query-name>


>  <query-smiles>
S(=O)(=O)(Nc1cc2c(NN=C2C=3Nc4c(ccc(c4)C)C3)cc1)c5cc(F)ccc5

>  <source>
REALspace_2019-12

>  <similarity-descriptor>
0.950;0.996;0.977;0.603;0.876;1.000;0.766;0.0;0.0

>  <similarity-descriptor-smiles>
Clc1ccccc1F;C1=CNcc1;c1ccccc1F;C(=O)N;Cc1ccccc1;S(=O)=O;N;;

>  <reaction-name>
s_22

>  <reagent1-name>
14797414

>  <reagent1-smiles>
[R1*]NC=1c2c(F)cccc2NC1

>  <reagent2-name>
60216

>  <reagent2-smiles>
[R1*]C(=O)c1ccc(cc1)CNS(=O)(=O)c2cc(Cl)c(F)cc2

$$$$
s_271570____11829988____16543346
          04022017313D 1   1.00000     0.00000     0
            
 45 49  0  0  0  0            999 V2000
    2.0946  -10.8801    2.4350 Cl  0  0  0  0  0  0  0  0  0  0  0  0
    2.3383   -9.1168    2.4438 C   0  0  0  0  0  0  0  0  0  0  0  0
    3.6299   -8.6005    2.4391 C   0  0  0  0  0  0  0  0  0  0  0  0
    3.8091   -7.2218    2.4453 C   0  0  0  0  0  0  0  0  0  0  0  0
    2.7041   -6.3770    2.4562 C   0  0  0  0  0  0  0  0  0  0  0  0
    1.4153   -6.8988    2.4609 C   0  0  0  0  0  0  0  0  0  0  0  0
    1.2288   -8.2772    2.4550 C   0  0  0  0  0  0  0  0  0  0  0  0
    2.9063   -4.9406    2.4633 C   0  0  0  0  0  0  0  0  0  0  0  0
    4.1108   -4.3127    2.4601 N   0  0  0  0  0  0  0  0  0  0  0  0
    3.8176   -3.0410    2.4718 C   0  0  0  0  0  0  0  0  0  0  0  0
    4.6503   -1.5608    2.4717 S   0  0  0  0  0  0  0  0  0  0  0  0
    3.2281   -0.6293    2.4827 C   0  0  0  0  0  0  0  0  0  0  0  0
    2.2138   -1.4645    2.4855 N   0  0  0  0  0  0  0  0  0  0  0  0
    2.5077   -2.7605    2.4771 N   0  0  0  0  0  0  0  0  0  0  0  0
    1.9257   -3.9986    2.4751 C   0  0  0  0  0  0  0  0  0  0  0  0
    3.2043    0.8207    2.4847 C   0  0  0  0  0  0  0  0  0  0  0  0
    1.9994    1.5191    2.4940 C   0  0  0  0  0  0  0  0  0  0  0  0
    2.0017    2.8611    2.4979 N   0  0  0  0  0  0  0  0  0  0  0  0
    3.1433    3.5664    2.4932 C   0  0  0  0  0  0  0  0  0  0  0  0
    4.3737    2.9176    2.4835 C   0  0  0  0  0  0  0  0  0  0  0  0
    5.5801    3.6272    2.4789 N   0  0  0  0  0  0  0  0  0  0  0  0
    6.6338    3.4353    1.2502 S   0  0  0  0  0  0  0  0  0  0  0  0
    7.8799    4.0761    1.5820 O   0  0  0  0  0  0  0  0  0  0  0  0
    6.8607    2.0308    1.0274 O   0  0  0  0  0  0  0  0  0  0  0  0
    5.9788    4.1530   -0.1929 C   0  0  0  0  0  0  0  0  0  0  0  0
    6.2413    5.4881   -0.4825 C   0  0  0  0  0  0  0  0  0  0  0  0
    5.7115    6.0495   -1.6400 C   0  0  0  0  0  0  0  0  0  0  0  0
    4.9273    5.2855   -2.4979 C   0  0  0  0  0  0  0  0  0  0  0  0
    4.6703    3.9517   -2.1986 C   0  0  0  0  0  0  0  0  0  0  0  0
    5.1951    3.3802   -1.0442 C   0  0  0  0  0  0  0  0  0  0  0  0
    4.4026    1.5272    2.4796 C   0  0  0  0  0  0  0  0  0  0  0  0
    4.4199   -9.2135    2.4314 H   0  0  0  0  0  0  0  0  0  0  0  0
    4.7323   -6.8375    2.4418 H   0  0  0  0  0  0  0  0  0  0  0  0
    0.6255   -6.2855    2.4683 H   0  0  0  0  0  0  0  0  0  0  0  0
    0.3056   -8.6613    2.4589 H   0  0  0  0  0  0  0  0  0  0  0  0
    0.9425   -4.1806    2.4813 H   0  0  0  0  0  0  0  0  0  0  0  0
    1.1326    1.0206    2.4977 H   0  0  0  0  0  0  0  0  0  0  0  0
    3.1092    4.5658    2.4968 H   0  0  0  0  0  0  0  0  0  0  0  0
    5.7955    4.2519    3.2294 H   0  0  0  0  0  0  0  0  0  0  0  0
    6.8043    6.0381    0.1344 H   0  0  0  0  0  0  0  0  0  0  0  0
    5.8956    7.0083   -1.8566 H   0  0  0  0  0  0  0  0  0  0  0  0
    4.5490    5.6944   -3.3284 H   0  0  0  0  0  0  0  0  0  0  0  0
    4.1065    3.4021   -2.8151 H   0  0  0  0  0  0  0  0  0  0  0  0
    5.0107    2.4215   -0.8278 H   0  0  0  0  0  0  0  0  0  0  0  0
    5.2759    1.0402    2.4732 H   0  0  0  0  0  0  0  0  0  0  0  0
  1  2  1  0  0  0  0
  2  3  1  0  0  0  0
  3  4  2  0  0  0  0
  4  5  1  0  0  0  0
  5  6  2  0  0  0  0
  6  7  1  0  0  0  0
  7  2  2  0  0  0  0
  5  8  1  0  0  0  0
  8  9  1  0  0  0  0
  9 10  2  0  0  0  0
 10 11  1  0  0  0  0
 11 12  1  0  0  0  0
 12 13  2  0  0  0  0
 13 14  1  0  0  0  0
 14 10  1  0  0  0  0
 14 15  1  0  0  0  0
  8 15  2  0  0  0  0
 12 16  1  0  0  0  0
 16 17  1  0  0  0  0
 17 18  2  0  0  0  0
 18 19  1  0  0  0  0
 19 20  2  0  0  0  0
 20 21  1  0  0  0  0
 21 22  1  0  0  0  0
 22 23  2  0  0  0  0
 22 24  2  0  0  0  0
 22 25  1  0  0  0  0
 25 26  1  0  0  0  0
 26 27  2  0  0  0  0
 27 28  1  0  0  0  0
 28 29  2  0  0  0  0
 29 30  1  0  0  0  0
 30 25  2  0  0  0  0
 20 31  1  0  0  0  0
 31 16  2  0  0  0  0
  3 32  1  0  0  0  0
  4 33  1  0  0  0  0
  6 34  1  0  0  0  0
  7 35  1  0  0  0  0
 15 36  1  0  0  0  0
 17 37  1  0  0  0  0
 19 38  1  0  0  0  0
 21 39  1  0  0  0  0
 26 40  1  0  0  0  0
 27 41  1  0  0  0  0
 28 42  1  0  0  0  0
 29 43  1  0  0  0  0
 30 44  1  0  0  0  0
 31 45  1  0  0  0  0
M  END
>  <result-rank>
53

>  <similarity>
0.901

>  <query-name>


>  <query-smiles>
S(=O)(=O)(Nc1cc2c(NN=C2C=3Nc4c(ccc(c4)C)C3)cc1)c5cc(F)ccc5

>  <source>
REALspace_2019-12

>  <similarity-descriptor>
0.967;0.738;0.933;0.857;0.864;1.000;1.000;0.933;0.0

>  <similarity-descriptor-smiles>
c1ccccc1;C1=CNC=N1;Clc1ccccc1;C1NN=CS1;c1cccnc1;S(=O)=O;N;Clc1ccccc1;

>  <reaction-name>
s_271570

>  <reagent1-name>
11829988

>  <reagent1-smiles>
[R1*]c1cncc(NS(=O)(=O)c2ccccc2)c1

>  <reagent2-name>
16543346

>  <reagent2-smiles>
[R1*]C=1SC2=NC(c3ccc(Cl)cc3)=CN2N1

$$$$
s_22____13422042____59363
          04022017313D 1   1.00000     0.00000     0
            
 51 54  0  0  0  0            999 V2000
    1.0000    1.0000    1.0000 S   0  0  0  0  0  0  0  0  0  0  0  0
   -0.2666    1.6504    0.7848 O   0  0  0  0  0  0  0  0  0  0  0  0
    0.7848   -0.2666    1.6504 O   0  0  0  0  0  0  0  0  0  0  0  0
    1.7363    0.7563   -0.4337 N   0  0  0  0  0  0  0  0  0  0  0  0
    2.4239   -0.4397   -0.6733 C   0  0  0  0  0  0  0  0  0  0  0  0
    3.7747   -0.5373   -0.3569 C   0  0  0  0  0  0  0  0  0  0  0  0
    4.4606   -1.7242   -0.5946 C   0  0  0  0  0  0  0  0  0  0  0  0
    3.7780   -2.8026   -1.1484 C   0  0  0  0  0  0  0  0  0  0  0  0
    2.4272   -2.7076   -1.4659 C   0  0  0  0  0  0  0  0  0  0  0  0
    1.7442   -1.5195   -1.2273 C   0  0  0  0  0  0  0  0  0  0  0  0
    4.5252   -4.1003   -1.4092 C   0  0  0  0  0  0  0  0  0  0  0  0
    1.6784    1.7922   -1.4751 C   0  0  0  0  0  0  0  0  0  0  0  0
    2.0045    2.0045    2.0045 C   0  0  0  0  0  0  0  0  0  0  0  0
    1.8611    3.3871    1.9566 C   0  0  0  0  0  0  0  0  0  0  0  0
    2.6713    4.1779    2.7649 C   0  0  0  0  0  0  0  0  0  0  0  0
    3.6142    3.6035    3.6112 C   0  0  0  0  0  0  0  0  0  0  0  0
    3.7415    2.2187    3.6444 C   0  0  0  0  0  0  0  0  0  0  0  0
    2.9408    1.4099    2.8445 C   0  0  0  0  0  0  0  0  0  0  0  0
    2.5242    5.6198    2.7174 C   0  0  0  0  0  0  0  0  0  0  0  0
    1.9208    6.1319    1.8153 O   0  0  0  0  0  0  0  0  0  0  0  0
    3.0741    6.3973    3.7022 N   0  0  0  0  0  0  0  0  0  0  0  0
    2.6808    7.7339    3.8405 C   0  0  0  0  0  0  0  0  0  0  0  0
    3.5544    8.8248    4.0405 C   0  0  0  0  0  0  0  0  0  0  0  0
    2.7420    9.9305    4.1196 C   0  0  0  0  0  0  0  0  0  0  0  0
    1.4462    9.5271    3.9755 N   0  0  0  0  0  0  0  0  0  0  0  0
    1.3932    8.1778    3.8045 C   0  0  0  0  0  0  0  0  0  0  0  0
    3.3031   11.1877    4.3238 C   0  0  0  0  0  0  0  0  0  0  0  0
    4.6799   11.3350    4.4497 C   0  0  0  0  0  0  0  0  0  0  0  0
    5.5092   10.2212    4.3731 C   0  0  0  0  0  0  0  0  0  0  0  0
    4.9329    8.9720    4.1683 C   0  0  0  0  0  0  0  0  0  0  0  0
    4.2529    0.2455    0.0414 H   0  0  0  0  0  0  0  0  0  0  0  0
    5.4321   -1.8012   -0.3701 H   0  0  0  0  0  0  0  0  0  0  0  0
    1.9489   -3.4904   -1.8641 H   0  0  0  0  0  0  0  0  0  0  0  0
    0.7729   -1.4423   -1.4522 H   0  0  0  0  0  0  0  0  0  0  0  0
    3.8990   -4.7715   -1.8060 H   0  0  0  0  0  0  0  0  0  0  0  0
    5.2777   -3.9296   -2.0453 H   0  0  0  0  0  0  0  0  0  0  0  0
    4.8904   -4.4535   -0.5479 H   0  0  0  0  0  0  0  0  0  0  0  0
    2.1785    1.4808   -2.2832 H   0  0  0  0  0  0  0  0  0  0  0  0
    0.7245    1.9660   -1.7198 H   0  0  0  0  0  0  0  0  0  0  0  0
    2.0929    2.6346   -1.1307 H   0  0  0  0  0  0  0  0  0  0  0  0
    1.1857    3.8064    1.3500 H   0  0  0  0  0  0  0  0  0  0  0  0
    4.1933    4.1790    4.1886 H   0  0  0  0  0  0  0  0  0  0  0  0
    4.4170    1.7993    4.2508 H   0  0  0  0  0  0  0  0  0  0  0  0
    3.0369    0.4149    2.8728 H   0  0  0  0  0  0  0  0  0  0  0  0
    3.7565    6.0102    4.3224 H   0  0  0  0  0  0  0  0  0  0  0  0
    0.6517   10.1342    3.9930 H   0  0  0  0  0  0  0  0  0  0  0  0
    0.5716    7.6221    3.6774 H   0  0  0  0  0  0  0  0  0  0  0  0
    2.7111   11.9917    4.3805 H   0  0  0  0  0  0  0  0  0  0  0  0
    5.0741   12.2424    4.5953 H   0  0  0  0  0  0  0  0  0  0  0  0
    6.5005   10.3165    4.4636 H   0  0  0  0  0  0  0  0  0  0  0  0
    5.5198    8.1643    4.1117 H   0  0  0  0  0  0  0  0  0  0  0  0
  1  2  2  0  0  0  0
  1  3  2  0  0  0  0
  1  4  1  0  0  0  0
  4  5  1  0  0  0  0
  5  6  1  0  0  0  0
  6  7  2  0  0  0  0
  7  8  1  0  0  0  0
  8  9  2  0  0  0  0
  9 10  1  0  0  0  0
 10  5  2  0  0  0  0
  8 11  1  0  0  0  0
  4 12  1  0  0  0  0
  1 13  1  0  0  0  0
 13 14  1  0  0  0  0
 14 15  2  0  0  0  0
 15 16  1  0  0  0  0
 16 17  2  0  0  0  0
 17 18  1  0  0  0  0
 18 13  2  0  0  0  0
 15 19  1  0  0  0  0
 19 20  2  0  0  0  0
 19 21  1  0  0  0  0
 21 22  1  0  0  0  0
 22 23  1  0  0  0  0
 23 24  1  0  0  0  0
 24 25  1  0  0  0  0
 25 26  1  0  0  0  0
 22 26  2  0  0  0  0
 24 27  2  0  0  0  0
 27 28  1  0  0  0  0
 28 29  2  0  0  0  0
 29 30  1  0  0  0  0
 30 23  2  0  0  0  0
  6 31  1  0  0  0  0
  7 32  1  0  0  0  0
  9 33  1  0  0  0  0
 10 34  1  0  0  0  0
 11 35  1  0  0  0  0
 11 36  1  0  0  0  0
 11 37  1  0  0  0  0
 12 38  1  0  0  0  0
 12 39  1  0  0  0  0
 12 40  1  0  0  0  0
 14 41  1  0  0  0  0
 16 42  1  0  0  0  0
 17 43  1  0  0  0  0
 18 44  1  0  0  0  0
 21 45  1  0  0  0  0
 25 46  1  0  0  0  0
 26 47  1  0  0  0  0
 27 48  1  0  0  0  0
 28 49  1  0  0  0  0
 29 50  1  0  0  0  0
 30 51  1  0  0  0  0
M  END
>  <result-rank>
54

>  <similarity>
0.901

>  <query-name>


>  <query-smiles>
S(=O)(=O)(Nc1cc2c(NN=C2C=3Nc4c(ccc(c4)C)C3)cc1)c5cc(F)ccc5

>  <source>
REALspace_2019-12

>  <similarity-descriptor>
0.992;0.996;0.953;0.603;0.881;1.000;0.881;0.0;0.200

>  <similarity-descriptor-smiles>
Nc1ccccc1;C1=CNcc1;c1ccccc1;C(=O)N;c1ccccc1;S(=O)=O;c1ccccc1;;C.C

>  <reaction-name>
s_22

>  <reagent1-name>
13422042

>  <reagent1-smiles>
[R1*]NC=1c2c(NC1)cccc2

>  <reagent2-name>
59363

>  <reagent2-smiles>
[R1*]C(=O)c1cc(S(=O)(=O)N(c2ccc(cc2)C)C)ccc1

$$$$
s_270196____15766890____8779454
          04022017313D 1   1.00000     0.00000     0
            
 57 61  0  0  0  0            999 V2000
    0.1850   -0.4116    0.9985 S   0  0  0  0  0  0  0  0  0  0  0  0
   -1.1907   -0.1712    0.6474 O   0  0  0  0  0  0  0  0  0  0  0  0
    0.7764   -1.3063    0.0375 O   0  0  0  0  0  0  0  0  0  0  0  0
    1.0000    1.0000    1.0000 N   0  0  0  0  0  0  0  0  0  0  0  0
    2.4004    1.0000    1.0000 C   0  0  0  0  0  0  0  0  0  0  0  0
    3.0860    1.6953    0.0095 C   0  0  0  0  0  0  0  0  0  0  0  0
    4.4770    1.6887    0.0201 C   0  0  0  0  0  0  0  0  0  0  0  0
    5.1807    0.9991    1.0016 C   0  0  0  0  0  0  0  0  0  0  0  0
    4.4744    0.3107    1.9824 C   0  0  0  0  0  0  0  0  0  0  0  0
    3.0836    0.3041    1.9916 C   0  0  0  0  0  0  0  0  0  0  0  0
    5.1963    2.4134   -1.0094 C   0  0  0  0  0  0  0  0  0  0  0  0
    4.6521    3.0612   -2.0107 O   0  0  0  0  0  0  0  0  0  0  0  0
    5.5618    3.5826   -2.7228 N   0  0  0  0  0  0  0  0  0  0  0  0
    6.7281    3.2841   -2.2003 C   0  0  0  0  0  0  0  0  0  0  0  0
    6.4973    2.5287   -1.0946 N   0  0  0  0  0  0  0  0  0  0  0  0
    8.0248    3.6847   -2.7116 C   0  0  0  0  0  0  0  0  0  0  0  0
    8.2296    4.4411   -3.8259 N   0  0  0  0  0  0  0  0  0  0  0  0
    9.5765    4.5993   -3.9743 C   0  0  0  0  0  0  0  0  0  0  0  0
   10.2914    5.2845   -4.9505 C   0  0  0  0  0  0  0  0  0  0  0  0
    9.6463    5.9125   -5.9295 F   0  0  0  0  0  0  0  0  0  0  0  0
   11.6810    5.3195   -4.9118 C   0  0  0  0  0  0  0  0  0  0  0  0
   12.3519    4.6618   -3.8851 C   0  0  0  0  0  0  0  0  0  0  0  0
   11.6218    3.9816   -2.9152 C   0  0  0  0  0  0  0  0  0  0  0  0
   12.3059    3.3557   -1.9331 O   0  0  0  0  0  0  0  0  0  0  0  0
   13.7249    3.4044   -1.9141 C   0  0  0  0  0  0  0  0  0  0  0  0
   10.2288    3.9480   -2.9551 C   0  0  0  0  0  0  0  0  0  0  0  0
    9.2237    3.3628   -2.1497 C   0  0  0  0  0  0  0  0  0  0  0  0
    0.2627   -1.1277    2.5820 C   0  0  0  0  0  0  0  0  0  0  0  0
   -0.6227   -0.7109    3.5704 C   0  0  0  0  0  0  0  0  0  0  0  0
   -0.5553   -1.2866    4.8345 C   0  0  0  0  0  0  0  0  0  0  0  0
    0.3925   -2.2701    5.0965 C   0  0  0  0  0  0  0  0  0  0  0  0
    0.4519   -2.8246    6.3262 O   0  0  0  0  0  0  0  0  0  0  0  0
   -0.5255   -2.4942    7.3019 C   0  0  0  0  0  0  0  0  0  0  0  0
   -0.2320   -3.2484    8.5886 C   0  0  0  0  0  0  0  0  0  0  0  0
    1.2749   -2.6822    4.1042 C   0  0  0  0  0  0  0  0  0  0  0  0
    1.2131   -2.1104    2.8380 C   0  0  0  0  0  0  0  0  0  0  0  0
    0.5000    1.8660    1.0009 H   0  0  0  0  0  0  0  0  0  0  0  0
    2.5864    2.1927   -0.6997 H   0  0  0  0  0  0  0  0  0  0  0  0
    6.1807    0.9982    1.0023 H   0  0  0  0  0  0  0  0  0  0  0  0
    4.9741   -0.1869    2.6914 H   0  0  0  0  0  0  0  0  0  0  0  0
    2.5828   -0.1932    2.7000 H   0  0  0  0  0  0  0  0  0  0  0  0
    7.5213    4.8129   -4.4260 H   0  0  0  0  0  0  0  0  0  0  0  0
   12.1933    5.8125   -5.6149 H   0  0  0  0  0  0  0  0  0  0  0  0
   13.3509    4.6780   -3.8446 H   0  0  0  0  0  0  0  0  0  0  0  0
   14.0655    2.8927   -1.1254 H   0  0  0  0  0  0  0  0  0  0  0  0
   14.0837    2.9988   -2.7548 H   0  0  0  0  0  0  0  0  0  0  0  0
   14.0249    4.3561   -1.8488 H   0  0  0  0  0  0  0  0  0  0  0  0
    9.3661    2.8164   -1.3243 H   0  0  0  0  0  0  0  0  0  0  0  0
   -1.3017   -0.0035    3.3737 H   0  0  0  0  0  0  0  0  0  0  0  0
   -1.1865   -0.9944    5.5529 H   0  0  0  0  0  0  0  0  0  0  0  0
   -1.4320   -2.7494    6.9654 H   0  0  0  0  0  0  0  0  0  0  0  0
   -0.5005   -1.5104    7.4791 H   0  0  0  0  0  0  0  0  0  0  0  0
   -0.9203   -3.0157    9.2757 H   0  0  0  0  0  0  0  0  0  0  0  0
   -0.2570   -4.2322    8.4115 H   0  0  0  0  0  0  0  0  0  0  0  0
    0.6745   -2.9932    8.9252 H   0  0  0  0  0  0  0  0  0  0  0  0
    1.9538   -3.3895    4.3009 H   0  0  0  0  0  0  0  0  0  0  0  0
    1.8447   -2.4024    2.1198 H   0  0  0  0  0  0  0  0  0  0  0  0
  1  2  2  0  0  0  0
  1  3  2  0  0  0  0
  1  4  1  0  0  0  0
  4  5  1  0  0  0  0
  5  6  1  0  0  0  0
  6  7  2  0  0  0  0
  7  8  1  0  0  0  0
  8  9  2  0  0  0  0
  9 10  1  0  0  0  0
 10  5  2  0  0  0  0
  7 11  1  0  0  0  0
 11 12  1  0  0  0  0
 12 13  1  0  0  0  0
 13 14  2  0  0  0  0
 14 15  1  0  0  0  0
 11 15  2  0  0  0  0
 14 16  1  0  0  0  0
 16 17  1  0  0  0  0
 17 18  1  0  0  0  0
 18 19  1  0  0  0  0
 19 20  1  0  0  0  0
 19 21  2  0  0  0  0
 21 22  1  0  0  0  0
 22 23  2  0  0  0  0
 23 24  1  0  0  0  0
 24 25  1  0  0  0  0
 23 26  1  0  0  0  0
 26 18  2  0  0  0  0
 26 27  1  0  0  0  0
 16 27  2  0  0  0  0
  1 28  1  0  0  0  0
 28 29  1  0  0  0  0
 29 30  2  0  0  0  0
 30 31  1  0  0  0  0
 31 32  1  0  0  0  0
 32 33  1  0  0  0  0
 33 34  1  0  0  0  0
 31 35  2  0  0  0  0
 35 36  1  0  0  0  0
 36 28  2  0  0  0  0
  4 37  1  0  0  0  0
  6 38  1  0  0  0  0
  8 39  1  0  0  0  0
  9 40  1  0  0  0  0
 10 41  1  0  0  0  0
 17 42  1  0  0  0  0
 21 43  1  0  0  0  0
 22 44  1  0  0  0  0
 25 45  1  0  0  0  0
 25 46  1  0  0  0  0
 25 47  1  0  0  0  0
 27 48  1  0  0  0  0
 29 49  1  0  0  0  0
 30 50  1  0  0  0  0
 33 51  1  0  0  0  0
 33 52  1  0  0  0  0
 34 53  1  0  0  0  0
 34 54  1  0  0  0  0
 34 55  1  0  0  0  0
 35 56  1  0  0  0  0
 36 57  1  0  0  0  0
M  END
>  <result-rank>
55

>  <similarity>
0.900

>  <query-name>


>  <query-smiles>
S(=O)(=O)(Nc1cc2c(NN=C2C=3Nc4c(ccc(c4)C)C3)cc1)c5cc(F)ccc5

>  <source>
REALspace_2019-12

>  <similarity-descriptor>
0.984;1.000;0.860;0.680;0.938;1.000;1.000;0.995;0.250

>  <similarity-descriptor-smiles>
c1ccccc1;C1=CccN1;c1cc(ccc1F)O;C1=NC=NO1;c1ccccc1;S(=O)=O;N;C;O.C.C

>  <reaction-name>
s_270196

>  <reagent1-name>
15766890

>  <reagent1-smiles>
[R1*]=NC(=NO[R2*])C=1Nc2c(F)ccc(OC)c2C1

>  <reagent2-name>
8779454

>  <reagent2-smiles>
[R1*]C([R2*])c1cc(NS(=O)(=O)c2ccc(OCC)cc2)ccc1

$$$$
s_527a____9581340____13902764
          04022017313D 1   1.00000     0.00000     0
            
 50 53  0  0  0  0            999 V2000
   -0.5433   12.7952    1.9418 Cl  0  0  0  0  0  0  0  0  0  0  0  0
    0.4163   11.3620    2.3813 C   0  0  0  0  0  0  0  0  0  0  0  0
    1.3057   11.3854    3.4521 C   0  0  0  0  0  0  0  0  0  0  0  0
    2.0369   10.2419    3.7645 C   0  0  0  0  0  0  0  0  0  0  0  0
    1.9126    9.0592    3.0378 C   0  0  0  0  0  0  0  0  0  0  0  0
    1.0280    9.0581    1.9808 C   0  0  0  0  0  0  0  0  0  0  0  0
    1.0374    7.8279    1.3904 N   0  0  0  0  0  0  0  0  0  0  0  0
    1.9287    7.0488    2.0685 C   0  0  0  0  0  0  0  0  0  0  0  0
    2.2368    5.6671    1.7558 C   0  0  0  0  0  0  0  0  0  0  0  0
    1.6894    5.1235    0.8367 O   0  0  0  0  0  0  0  0  0  0  0  0
    3.1529    4.9820    2.5097 N   0  0  0  0  0  0  0  0  0  0  0  0
    3.1579    3.5824    2.5035 C   0  0  0  0  0  0  0  0  0  0  0  0
    2.0142    2.8799    2.5076 N   0  0  0  0  0  0  0  0  0  0  0  0
    2.0146    1.5381    2.5013 C   0  0  0  0  0  0  0  0  0  0  0  0
    3.2079    0.8224    2.4899 C   0  0  0  0  0  0  0  0  0  0  0  0
    3.2274   -0.5788    2.4829 N   0  0  0  0  0  0  0  0  0  0  0  0
    3.9351   -1.3779    1.2511 S   0  0  0  0  0  0  0  0  0  0  0  0
    5.2528   -0.8427    1.0258 O   0  0  0  0  0  0  0  0  0  0  0  0
    4.0348   -2.7762    1.5803 O   0  0  0  0  0  0  0  0  0  0  0  0
    2.9393   -1.1804   -0.2474 C   0  0  0  0  0  0  0  0  0  0  0  0
    3.5994   -1.9258   -1.3964 C   0  0  0  0  0  0  0  0  0  0  0  0
    3.2727   -3.2572   -1.6321 C   0  0  0  0  0  0  0  0  0  0  0  0
    3.8796   -3.9357   -2.6840 C   0  0  0  0  0  0  0  0  0  0  0  0
    4.8046   -3.2823   -3.4916 C   0  0  0  0  0  0  0  0  0  0  0  0
    5.1228   -1.9521   -3.2470 C   0  0  0  0  0  0  0  0  0  0  0  0
    4.5233   -1.2628   -2.1980 C   0  0  0  0  0  0  0  0  0  0  0  0
    4.4030    1.5341    2.4843 C   0  0  0  0  0  0  0  0  0  0  0  0
    4.3843    2.9251    2.4916 C   0  0  0  0  0  0  0  0  0  0  0  0
    2.4842    7.7673    3.0849 C   0  0  0  0  0  0  0  0  0  0  0  0
    0.2857   10.1868    1.6498 C   0  0  0  0  0  0  0  0  0  0  0  0
    1.4542   12.6684    4.2546 C   0  0  0  0  0  0  0  0  0  0  0  0
    2.6724   10.2704    4.5360 H   0  0  0  0  0  0  0  0  0  0  0  0
    0.4894    7.5478    0.6022 H   0  0  0  0  0  0  0  0  0  0  0  0
    3.8180    5.4820    3.0645 H   0  0  0  0  0  0  0  0  0  0  0  0
    1.1445    1.0452    2.5048 H   0  0  0  0  0  0  0  0  0  0  0  0
    2.8071   -1.0884    3.2337 H   0  0  0  0  0  0  0  0  0  0  0  0
    2.8700   -0.2094   -0.4761 H   0  0  0  0  0  0  0  0  0  0  0  0
    2.0242   -1.5521   -0.0910 H   0  0  0  0  0  0  0  0  0  0  0  0
    2.6064   -3.7231   -1.0498 H   0  0  0  0  0  0  0  0  0  0  0  0
    3.6509   -4.8932   -2.8595 H   0  0  0  0  0  0  0  0  0  0  0  0
    5.2404   -3.7699   -4.2481 H   0  0  0  0  0  0  0  0  0  0  0  0
    5.7885   -1.4864   -3.8300 H   0  0  0  0  0  0  0  0  0  0  0  0
    4.7529   -0.3055   -2.0227 H   0  0  0  0  0  0  0  0  0  0  0  0
    5.2757    1.0459    2.4749 H   0  0  0  0  0  0  0  0  0  0  0  0
    5.2388    3.4445    2.4883 H   0  0  0  0  0  0  0  0  0  0  0  0
    3.1665    7.4421    3.7396 H   0  0  0  0  0  0  0  0  0  0  0  0
   -0.3487   10.1527    0.8775 H   0  0  0  0  0  0  0  0  0  0  0  0
    2.1236   12.5295    4.9843 H   0  0  0  0  0  0  0  0  0  0  0  0
    1.7649   13.4040    3.6526 H   0  0  0  0  0  0  0  0  0  0  0  0
    0.5715   12.9154    4.6545 H   0  0  0  0  0  0  0  0  0  0  0  0
  1  2  1  0  0  0  0
  2  3  1  0  0  0  0
  3  4  2  0  0  0  0
  4  5  1  0  0  0  0
  5  6  2  0  0  0  0
  6  7  1  0  0  0  0
  7  8  1  0  0  0  0
  8  9  1  0  0  0  0
  9 10  2  0  0  0  0
  9 11  1  0  0  0  0
 11 12  1  0  0  0  0
 12 13  1  0  0  0  0
 13 14  2  0  0  0  0
 14 15  1  0  0  0  0
 15 16  1  0  0  0  0
 16 17  1  0  0  0  0
 17 18  2  0  0  0  0
 17 19  2  0  0  0  0
 17 20  1  0  0  0  0
 20 21  1  0  0  0  0
 21 22  1  0  0  0  0
 22 23  2  0  0  0  0
 23 24  1  0  0  0  0
 24 25  2  0  0  0  0
 25 26  1  0  0  0  0
 26 21  2  0  0  0  0
 15 27  2  0  0  0  0
 27 28  1  0  0  0  0
 28 12  2  0  0  0  0
  8 29  2  0  0  0  0
 29  5  1  0  0  0  0
  6 30  1  0  0  0  0
 30  2  2  0  0  0  0
  3 31  1  0  0  0  0
  4 32  1  0  0  0  0
  7 33  1  0  0  0  0
 11 34  1  0  0  0  0
 14 35  1  0  0  0  0
 16 36  1  0  0  0  0
 20 37  1  0  0  0  0
 20 38  1  0  0  0  0
 22 39  1  0  0  0  0
 23 40  1  0  0  0  0
 24 41  1  0  0  0  0
 25 42  1  0  0  0  0
 26 43  1  0  0  0  0
 27 44  1  0  0  0  0
 28 45  1  0  0  0  0
 29 46  1  0  0  0  0
 30 47  1  0  0  0  0
 31 48  1  0  0  0  0
 31 49  1  0  0  0  0
 31 50  1  0  0  0  0
M  END
>  <result-rank>
56

>  <similarity>
0.900

>  <query-name>


>  <query-smiles>
S(=O)(=O)(Nc1cc2c(NN=C2C=3Nc4c(ccc(c4)C)C3)cc1)c5cc(F)ccc5

>  <source>
REALspace_2019-12

>  <similarity-descriptor>
0.967;1.000;0.940;0.602;0.862;0.899;1.000;1.000;0.0

>  <similarity-descriptor-smiles>
c1ccccc1;c1C=CNc1;Clc1ccccc1;C(=O)N;c1ccccn1;S(=O)(=O)C;N;C;

>  <reaction-name>
s_527a

>  <reagent1-name>
9581340

>  <reagent1-smiles>
[R1*]Nc1ncc(NS(=O)(=O)Cc2ccccc2)cc1

>  <reagent2-name>
13902764

>  <reagent2-smiles>
[R1*]C(=O)C=1Nc2c(cc(c(Cl)c2)C)C1

$$$$
s_22____10738678____59626
          04022017313D 1   1.00000     0.00000     0
            
 58 61  0  0  0  0            999 V2000
    5.3130   -2.4256    2.0235 S   0  0  0  0  0  0  0  0  0  0  0  0
    4.0185   -3.0096    2.2623 O   0  0  0  0  0  0  0  0  0  0  0  0
    6.2636   -3.4676    1.7338 O   0  0  0  0  0  0  0  0  0  0  0  0
    5.2229   -1.4045    0.7562 N   0  0  0  0  0  0  0  0  0  0  0  0
    4.5252   -0.1967    0.8784 C   0  0  0  0  0  0  0  0  0  0  0  0
    5.2230    1.0006    0.9989 C   0  0  0  0  0  0  0  0  0  0  0  0
    4.5297    2.2003    1.1203 C   0  0  0  0  0  0  0  0  0  0  0  0
    3.1384    2.2032    1.1211 C   0  0  0  0  0  0  0  0  0  0  0  0
    2.4504    1.0000    1.0000 C   0  0  0  0  0  0  0  0  0  0  0  0
    3.1344   -0.2051    0.8780 C   0  0  0  0  0  0  0  0  0  0  0  0
    1.0000    1.0000    1.0000 C   0  0  0  0  0  0  0  0  0  0  0  0
    0.4000    2.0391    1.0141 O   0  0  0  0  0  0  0  0  0  0  0  0
    0.3150   -0.1863    0.9839 N   0  0  0  0  0  0  0  0  0  0  0  0
   -1.0210   -0.2172    0.5689 C   0  0  0  0  0  0  0  0  0  0  0  0
   -1.9914   -0.6661    1.4582 C   0  0  0  0  0  0  0  0  0  0  0  0
   -3.3183   -0.6959    1.0422 C   0  0  0  0  0  0  0  0  0  0  0  0
   -3.6658   -0.2845   -0.2415 C   0  0  0  0  0  0  0  0  0  0  0  0
   -4.9909   -0.3135   -0.6597 C   0  0  0  0  0  0  0  0  0  0  0  0
   -5.9656   -0.7623    0.2252 C   0  0  0  0  0  0  0  0  0  0  0  0
   -7.3029   -0.7945   -0.1885 N   0  0  0  0  0  0  0  0  0  0  0  0
   -8.0396    0.4611   -0.3927 C   0  0  0  0  0  0  0  0  0  0  0  0
   -7.9702   -2.0840   -0.4186 C   0  0  0  0  0  0  0  0  0  0  0  0
   -5.6356   -1.1780    1.5111 C   0  0  0  0  0  0  0  0  0  0  0  0
   -4.3051   -1.1421    1.9148 C   0  0  0  0  0  0  0  0  0  0  0  0
   -2.6836    0.1622   -1.1204 C   0  0  0  0  0  0  0  0  0  0  0  0
   -1.3523    0.1974   -0.7172 C   0  0  0  0  0  0  0  0  0  0  0  0
    6.7432    1.0219    0.9995 C   0  0  0  0  0  0  0  0  0  0  0  0
    5.8243   -1.5509    3.4377 C   0  0  0  0  0  0  0  0  0  0  0  0
    4.8729   -0.9694    4.2690 C   0  0  0  0  0  0  0  0  0  0  0  0
    5.2878   -0.2709    5.3977 C   0  0  0  0  0  0  0  0  0  0  0  0
    6.6446   -0.1619    5.6832 C   0  0  0  0  0  0  0  0  0  0  0  0
    7.0340    0.5077    6.7647 F   0  0  0  0  0  0  0  0  0  0  0  0
    7.5907   -0.7454    4.8480 C   0  0  0  0  0  0  0  0  0  0  0  0
    7.1826   -1.4450    3.7175 C   0  0  0  0  0  0  0  0  0  0  0  0
    5.6660   -1.6407   -0.1086 H   0  0  0  0  0  0  0  0  0  0  0  0
    5.0314    3.0609    1.2070 H   0  0  0  0  0  0  0  0  0  0  0  0
    2.6366    3.0638    1.2080 H   0  0  0  0  0  0  0  0  0  0  0  0
    2.6329   -1.0658    0.7912 H   0  0  0  0  0  0  0  0  0  0  0  0
    0.7698   -1.0302    1.2686 H   0  0  0  0  0  0  0  0  0  0  0  0
   -1.7399   -0.9619    2.3797 H   0  0  0  0  0  0  0  0  0  0  0  0
   -5.2394   -0.0167   -1.5817 H   0  0  0  0  0  0  0  0  0  0  0  0
   -8.9736    0.2558   -0.6851 H   0  0  0  0  0  0  0  0  0  0  0  0
   -8.0641    0.9763    0.4640 H   0  0  0  0  0  0  0  0  0  0  0  0
   -7.5822    1.0053   -1.0960 H   0  0  0  0  0  0  0  0  0  0  0  0
   -8.9142   -1.9239   -0.7073 H   0  0  0  0  0  0  0  0  0  0  0  0
   -7.4843   -2.5880   -1.1326 H   0  0  0  0  0  0  0  0  0  0  0  0
   -7.9662   -2.6170    0.4274 H   0  0  0  0  0  0  0  0  0  0  0  0
   -6.3461   -1.4986    2.1375 H   0  0  0  0  0  0  0  0  0  0  0  0
   -4.0568   -1.4386    2.8370 H   0  0  0  0  0  0  0  0  0  0  0  0
   -2.9347    0.4579   -2.0421 H   0  0  0  0  0  0  0  0  0  0  0  0
   -0.6420    0.5169   -1.3444 H   0  0  0  0  0  0  0  0  0  0  0  0
    7.0633    1.9645    1.0946 H   0  0  0  0  0  0  0  0  0  0  0  0
    7.0840    0.4754    1.7645 H   0  0  0  0  0  0  0  0  0  0  0  0
    7.0823    0.6399    0.1398 H   0  0  0  0  0  0  0  0  0  0  0  0
    3.8992   -1.0527    4.0570 H   0  0  0  0  0  0  0  0  0  0  0  0
    4.6126    0.1518    6.0023 H   0  0  0  0  0  0  0  0  0  0  0  0
    8.5644   -0.6619    5.0600 H   0  0  0  0  0  0  0  0  0  0  0  0
    7.8579   -1.8672    3.1127 H   0  0  0  0  0  0  0  0  0  0  0  0
  1  2  2  0  0  0  0
  1  3  2  0  0  0  0
  1  4  1  0  0  0  0
  4  5  1  0  0  0  0
  5  6  1  0  0  0  0
  6  7  2  0  0  0  0
  7  8  1  0  0  0  0
  8  9  2  0  0  0  0
  9 10  1  0  0  0  0
 10  5  2  0  0  0  0
  9 11  1  0  0  0  0
 11 12  2  0  0  0  0
 11 13  1  0  0  0  0
 13 14  1  0  0  0  0
 14 15  1  0  0  0  0
 15 16  2  0  0  0  0
 16 17  1  0  0  0  0
 17 18  1  0  0  0  0
 18 19  2  0  0  0  0
 19 20  1  0  0  0  0
 20 21  1  0  0  0  0
 20 22  1  0  0  0  0
 19 23  1  0  0  0  0
 23 24  2  0  0  0  0
 24 16  1  0  0  0  0
 17 25  2  0  0  0  0
 25 26  1  0  0  0  0
 26 14  2  0  0  0  0
  6 27  1  0  0  0  0
  1 28  1  0  0  0  0
 28 29  1  0  0  0  0
 29 30  2  0  0  0  0
 30 31  1  0  0  0  0
 31 32  1  0  0  0  0
 31 33  2  0  0  0  0
 33 34  1  0  0  0  0
 34 28  2  0  0  0  0
  4 35  1  0  0  0  0
  7 36  1  0  0  0  0
  8 37  1  0  0  0  0
 10 38  1  0  0  0  0
 13 39  1  0  0  0  0
 15 40  1  0  0  0  0
 18 41  1  0  0  0  0
 21 42  1  0  0  0  0
 21 43  1  0  0  0  0
 21 44  1  0  0  0  0
 22 45  1  0  0  0  0
 22 46  1  0  0  0  0
 22 47  1  0  0  0  0
 23 48  1  0  0  0  0
 24 49  1  0  0  0  0
 25 50  1  0  0  0  0
 26 51  1  0  0  0  0
 27 52  1  0  0  0  0
 27 53  1  0  0  0  0
 27 54  1  0  0  0  0
 29 55  1  0  0  0  0
 30 56  1  0  0  0  0
 33 57  1  0  0  0  0
 34 58  1  0  0  0  0
M  END
>  <result-rank>
57

>  <similarity>
0.900

>  <query-name>


>  <query-smiles>
S(=O)(=O)(Nc1cc2c(NN=C2C=3Nc4c(ccc(c4)C)C3)cc1)c5cc(F)ccc5

>  <source>
REALspace_2019-12

>  <similarity-descriptor>
1.000;0.804;1.000;0.426;0.983;1.000;1.000;0.975;0.167

>  <similarity-descriptor-smiles>
c1ccc(cc1)F;Nc1ccccc1;c1ccccc1;C=O;c1ccccc1;S(=O)=O;N;NC;C.C

>  <reaction-name>
s_22

>  <reagent1-name>
10738678

>  <reagent1-smiles>
[R1*]Nc1cc2c(cc(N(C)C)cc2)cc1

>  <reagent2-name>
59626

>  <reagent2-smiles>
[R1*]C(=O)c1cc(NS(=O)(=O)c2ccc(F)cc2)c(cc1)C

$$$$
m_276010b____17281670____17265702____17281282
          04022017313D 1   1.00000     0.00000     0
            
 55 59  0  0  0  0            999 V2000
    1.2730    2.2230    3.6164 F   0  0  0  0  0  0  0  0  0  0  0  0
   -0.0471    2.3428    3.5019 C   0  0  0  0  0  0  0  0  0  0  0  0
   -0.6343    2.3969    2.2416 C   0  0  0  0  0  0  0  0  0  0  0  0
   -2.0134    2.5229    2.1112 C   0  0  0  0  0  0  0  0  0  0  0  0
   -2.8028    2.5961    3.2543 C   0  0  0  0  0  0  0  0  0  0  0  0
   -2.2115    2.5418    4.5127 C   0  0  0  0  0  0  0  0  0  0  0  0
   -0.8328    2.4151    4.6467 C   0  0  0  0  0  0  0  0  0  0  0  0
    0.2400    2.3164    1.0000 C   0  0  3  0  0  0  0  0  0  0  0  0
    1.1628    3.3957    1.0000 O   0  0  0  0  0  0  0  0  0  0  0  0
    0.4528    4.6254    1.0000 C   0  0  0  0  0  0  0  0  0  0  0  0
    1.0000    1.0000    1.0000 C   0  0  0  0  0  0  0  0  0  0  0  0
    0.4000   -0.0392    1.0000 O   0  0  0  0  0  0  0  0  0  0  0  0
    2.3700    1.0000    1.0000 N   0  0  0  0  0  0  0  0  0  0  0  0
    3.0703   -0.1398    1.4149 C   0  0  0  0  0  0  0  0  0  0  0  0
    2.9005   -0.6366    2.7031 C   0  0  0  0  0  0  0  0  0  0  0  0
    3.6103   -1.7700    3.0856 C   0  0  0  0  0  0  0  0  0  0  0  0
    4.4442   -2.3724    2.2248 N   0  0  0  0  0  0  0  0  0  0  0  0
    4.6210   -1.9089    0.9787 C   0  0  0  0  0  0  0  0  0  0  0  0
    3.9399   -0.7794    0.5374 C   0  0  0  0  0  0  0  0  0  0  0  0
    3.4287   -2.2579    4.3849 N   0  0  0  0  0  0  0  0  0  0  0  0
    2.4011   -2.0051    5.1581 N   0  0  0  0  0  0  0  0  0  0  0  0
    2.5219   -2.5843    6.2734 N   0  0  0  0  0  0  0  0  0  0  0  0
    3.6950   -3.2769    6.2607 C   0  0  0  0  0  0  0  0  0  0  0  0
    4.2232   -4.0842    7.3427 C   0  0  0  0  0  0  0  0  0  0  0  0
    5.4010   -4.7701    7.3089 N   0  0  0  0  0  0  0  0  0  0  0  0
    5.5472   -5.4037    8.5099 C   0  0  0  0  0  0  0  0  0  0  0  0
    4.4632   -5.1193    9.3038 C   0  0  0  0  0  0  0  0  0  0  0  0
    4.3833   -5.6586   10.5835 C   0  0  0  0  0  0  0  0  0  0  0  0
    5.3922   -6.4828   11.0713 C   0  0  0  0  0  0  0  0  0  0  0  0
    6.4908   -6.7683   10.2672 C   0  0  0  0  0  0  0  0  0  0  0  0
    6.5612   -6.2245    8.9889 C   0  0  0  0  0  0  0  0  0  0  0  0
    3.6194   -4.2727    8.5496 C   0  0  0  0  0  0  0  0  0  0  0  0
    4.2866   -3.0725    5.0551 C   0  0  0  0  0  0  0  0  0  0  0  0
   -0.6339    2.3969   -0.2411 C   0  0  0  0  0  0  0  0  0  0  0  0
   -2.4334    2.5606    1.2045 H   0  0  0  0  0  0  0  0  0  0  0  0
   -3.7951    2.6877    3.1717 H   0  0  0  0  0  0  0  0  0  0  0  0
   -2.7846    2.5944    5.3305 H   0  0  0  0  0  0  0  0  0  0  0  0
   -0.4128    2.3766    5.5534 H   0  0  0  0  0  0  0  0  0  0  0  0
    1.1026    5.3855    1.0000 H   0  0  0  0  0  0  0  0  0  0  0  0
   -0.1222    4.6784    0.1835 H   0  0  0  0  0  0  0  0  0  0  0  0
   -0.1222    4.6784    1.8165 H   0  0  0  0  0  0  0  0  0  0  0  0
    2.8700    1.8138    0.7038 H   0  0  0  0  0  0  0  0  0  0  0  0
    2.2783   -0.1863    3.3435 H   0  0  0  0  0  0  0  0  0  0  0  0
    5.2493   -2.3806    0.3602 H   0  0  0  0  0  0  0  0  0  0  0  0
    4.0726   -0.4342   -0.3917 H   0  0  0  0  0  0  0  0  0  0  0  0
    6.0425   -4.8033    6.5425 H   0  0  0  0  0  0  0  0  0  0  0  0
    3.5922   -5.4515   11.1590 H   0  0  0  0  0  0  0  0  0  0  0  0
    5.3282   -6.8669   11.9924 H   0  0  0  0  0  0  0  0  0  0  0  0
    7.2233   -7.3593   10.6051 H   0  0  0  0  0  0  0  0  0  0  0  0
    7.3500   -6.4263    8.4084 H   0  0  0  0  0  0  0  0  0  0  0  0
    2.7460   -3.8858    8.8453 H   0  0  0  0  0  0  0  0  0  0  0  0
    5.1590   -3.4396    4.7323 H   0  0  0  0  0  0  0  0  0  0  0  0
   -1.2837    1.6368   -0.2411 H   0  0  0  0  0  0  0  0  0  0  0  0
   -1.1339    3.2629   -0.2411 H   0  0  0  0  0  0  0  0  0  0  0  0
   -0.0590    2.3439   -1.0576 H   0  0  0  0  0  0  0  0  0  0  0  0
  1  2  1  0  0  0  0
  2  3  1  0  0  0  0
  3  4  2  0  0  0  0
  4  5  1  0  0  0  0
  5  6  2  0  0  0  0
  6  7  1  0  0  0  0
  7  2  2  0  0  0  0
  3  8  1  0  0  0  0
  8  9  1  0  0  0  0
  9 10  1  0  0  0  0
  8 11  1  0  0  0  0
 11 12  2  0  0  0  0
 11 13  1  0  0  0  0
 13 14  1  0  0  0  0
 14 15  1  0  0  0  0
 15 16  2  0  0  0  0
 16 17  1  0  0  0  0
 17 18  2  0  0  0  0
 18 19  1  0  0  0  0
 19 14  2  0  0  0  0
 16 20  1  0  0  0  0
 20 21  1  0  0  0  0
 21 22  2  0  0  0  0
 22 23  1  0  0  0  0
 23 24  1  0  0  0  0
 24 25  1  0  0  0  0
 25 26  1  0  0  0  0
 26 27  1  0  0  0  0
 27 28  2  0  0  0  0
 28 29  1  0  0  0  0
 29 30  2  0  0  0  0
 30 31  1  0  0  0  0
 31 26  2  0  0  0  0
 27 32  1  0  0  0  0
 24 32  2  0  0  0  0
 23 33  2  0  0  0  0
 33 20  1  0  0  0  0
  8 34  1  0  0  0  0
  4 35  1  0  0  0  0
  5 36  1  0  0  0  0
  6 37  1  0  0  0  0
  7 38  1  0  0  0  0
 10 39  1  0  0  0  0
 10 40  1  0  0  0  0
 10 41  1  0  0  0  0
 13 42  1  0  0  0  0
 15 43  1  0  0  0  0
 18 44  1  0  0  0  0
 19 45  1  0  0  0  0
 25 46  1  0  0  0  0
 28 47  1  0  0  0  0
 29 48  1  0  0  0  0
 30 49  1  0  0  0  0
 31 50  1  0  0  0  0
 32 51  1  0  0  0  0
 33 52  1  0  0  0  0
 34 53  1  0  0  0  0
 34 54  1  0  0  0  0
 34 55  1  0  0  0  0
M  END
>  <result-rank>
58

>  <similarity>
0.900

>  <query-name>


>  <query-smiles>
S(=O)(=O)(Nc1cc2c(NN=C2C=3Nc4c(ccc(c4)C)C3)cc1)c5cc(F)ccc5

>  <source>
REALspace_2019-12

>  <similarity-descriptor>
0.999;1.000;0.953;0.698;0.862;0.922;0.982;0.0;0.182

>  <similarity-descriptor-smiles>
Fc1ccccc1;C1=CccN1;c1ccccc1;N1C=CN=N1;c1ccncc1;C(O)C=O;N;;C.C

>  <reaction-name>
m_276010b

>  <reagent1-name>
17281670

>  <reagent1-smiles>
[R1*]N=NN([R2*])c1nccc(N[R3*])c1

>  <reagent2-name>
17265702

>  <reagent2-smiles>
[R3*]C(=O)C(OC)(c1c(F)cccc1)C

>  <reagent3-name>
17281282

>  <reagent3-smiles>
[R1*]C(C=1Nc2c(cccc2)C1)=C[R2*]

$$$$
s_22____14522802____59626
          04022017313D 1   1.00000     0.00000     0
            
 53 56  0  0  0  0            999 V2000
    5.2803   -0.4725   -2.2662 S   0  0  0  0  0  0  0  0  0  0  0  0
    6.2134   -1.3844   -2.8755 O   0  0  0  0  0  0  0  0  0  0  0  0
    3.9769   -0.6587   -2.8494 O   0  0  0  0  0  0  0  0  0  0  0  0
    5.2051   -0.7619   -0.6639 N   0  0  0  0  0  0  0  0  0  0  0  0
    4.5272    0.1288    0.1774 C   0  0  0  0  0  0  0  0  0  0  0  0
    5.2222    1.0052    1.0057 C   0  0  0  0  0  0  0  0  0  0  0  0
    4.5255    1.8813    1.8326 C   0  0  0  0  0  0  0  0  0  0  0  0
    3.1345    1.8809    1.8319 C   0  0  0  0  0  0  0  0  0  0  0  0
    2.4504    1.0000    1.0000 C   0  0  0  0  0  0  0  0  0  0  0  0
    3.1363    0.1199    0.1689 C   0  0  0  0  0  0  0  0  0  0  0  0
    1.0000    1.0000    1.0000 C   0  0  0  0  0  0  0  0  0  0  0  0
    0.4000    2.0391    1.0156 O   0  0  0  0  0  0  0  0  0  0  0  0
    0.3150   -0.1863    0.9822 N   0  0  0  0  0  0  0  0  0  0  0  0
   -1.0859   -0.1863    0.9822 C   0  0  0  0  0  0  0  0  0  0  0  0
   -2.0492   -1.5874    0.9612 S   0  0  0  0  0  0  0  0  0  0  0  0
   -3.5354   -0.7588    0.9766 C   0  0  0  0  0  0  0  0  0  0  0  0
   -4.8549   -1.3602    0.9731 C   0  0  0  0  0  0  0  0  0  0  0  0
   -4.9812   -2.7455    0.9557 C   0  0  0  0  0  0  0  0  0  0  0  0
   -6.2491   -3.3170    0.9515 C   0  0  0  0  0  0  0  0  0  0  0  0
   -7.3740   -2.4984    0.9657 C   0  0  0  0  0  0  0  0  0  0  0  0
   -7.2467   -1.1128    0.9856 C   0  0  0  0  0  0  0  0  0  0  0  0
   -5.9786   -0.5411    0.9884 C   0  0  0  0  0  0  0  0  0  0  0  0
   -8.7573   -3.1291    0.9595 C   0  0  0  0  0  0  0  0  0  0  0  0
   -3.2289    0.5656    0.9974 C   0  0  0  0  0  0  0  0  0  0  0  0
   -1.8896    0.8562    0.9957 N   0  0  0  0  0  0  0  0  0  0  0  0
    6.7418    1.0068    1.0057 C   0  0  0  0  0  0  0  0  0  0  0  0
    5.8079    1.1632   -2.5359 C   0  0  0  0  0  0  0  0  0  0  0  0
    7.1661    1.4375   -2.6560 C   0  0  0  0  0  0  0  0  0  0  0  0
    7.5818    2.7471   -2.8709 C   0  0  0  0  0  0  0  0  0  0  0  0
    6.6389    3.7653   -2.9638 C   0  0  0  0  0  0  0  0  0  0  0  0
    7.0439    5.0155   -3.1695 F   0  0  0  0  0  0  0  0  0  0  0  0
    5.2826    3.4843   -2.8426 C   0  0  0  0  0  0  0  0  0  0  0  0
    4.8601    2.1769   -2.6274 C   0  0  0  0  0  0  0  0  0  0  0  0
    5.6430   -1.5757   -0.2817 H   0  0  0  0  0  0  0  0  0  0  0  0
    5.0250    2.5113    2.4273 H   0  0  0  0  0  0  0  0  0  0  0  0
    2.6301    2.5088    2.4246 H   0  0  0  0  0  0  0  0  0  0  0  0
    2.6366   -0.5098   -0.4259 H   0  0  0  0  0  0  0  0  0  0  0  0
    0.8150   -1.0522    0.9692 H   0  0  0  0  0  0  0  0  0  0  0  0
   -4.1668   -3.3257    0.9463 H   0  0  0  0  0  0  0  0  0  0  0  0
   -6.3517   -4.3116    0.9383 H   0  0  0  0  0  0  0  0  0  0  0  0
   -8.0609   -0.5323    0.9978 H   0  0  0  0  0  0  0  0  0  0  0  0
   -5.8757    0.4535    1.0012 H   0  0  0  0  0  0  0  0  0  0  0  0
   -9.4518   -2.4096    0.9714 H   0  0  0  0  0  0  0  0  0  0  0  0
   -8.8668   -3.6844    0.1351 H   0  0  0  0  0  0  0  0  0  0  0  0
   -8.8633   -3.7081    1.7680 H   0  0  0  0  0  0  0  0  0  0  0  0
   -3.9311    1.2774    1.0130 H   0  0  0  0  0  0  0  0  0  0  0  0
    7.0745    1.6921    1.6535 H   0  0  0  0  0  0  0  0  0  0  0  0
    7.0761    0.1036    1.2749 H   0  0  0  0  0  0  0  0  0  0  0  0
    7.0749    1.2258    0.0885 H   0  0  0  0  0  0  0  0  0  0  0  0
    7.8378    0.6997   -2.5885 H   0  0  0  0  0  0  0  0  0  0  0  0
    8.5558    2.9562   -2.9583 H   0  0  0  0  0  0  0  0  0  0  0  0
    4.6110    4.2222   -2.9101 H   0  0  0  0  0  0  0  0  0  0  0  0
    3.8861    1.9681   -2.5394 H   0  0  0  0  0  0  0  0  0  0  0  0
  1  2  2  0  0  0  0
  1  3  2  0  0  0  0
  1  4  1  0  0  0  0
  4  5  1  0  0  0  0
  5  6  1  0  0  0  0
  6  7  2  0  0  0  0
  7  8  1  0  0  0  0
  8  9  2  0  0  0  0
  9 10  1  0  0  0  0
 10  5  2  0  0  0  0
  9 11  1  0  0  0  0
 11 12  2  0  0  0  0
 11 13  1  0  0  0  0
 13 14  1  0  0  0  0
 14 15  1  0  0  0  0
 15 16  1  0  0  0  0
 16 17  1  0  0  0  0
 17 18  1  0  0  0  0
 18 19  2  0  0  0  0
 19 20  1  0  0  0  0
 20 21  2  0  0  0  0
 21 22  1  0  0  0  0
 22 17  2  0  0  0  0
 20 23  1  0  0  0  0
 16 24  2  0  0  0  0
 24 25  1  0  0  0  0
 14 25  2  0  0  0  0
  6 26  1  0  0  0  0
  1 27  1  0  0  0  0
 27 28  1  0  0  0  0
 28 29  2  0  0  0  0
 29 30  1  0  0  0  0
 30 31  1  0  0  0  0
 30 32  2  0  0  0  0
 32 33  1  0  0  0  0
 33 27  2  0  0  0  0
  4 34  1  0  0  0  0
  7 35  1  0  0  0  0
  8 36  1  0  0  0  0
 10 37  1  0  0  0  0
 13 38  1  0  0  0  0
 18 39  1  0  0  0  0
 19 40  1  0  0  0  0
 21 41  1  0  0  0  0
 22 42  1  0  0  0  0
 23 43  1  0  0  0  0
 23 44  1  0  0  0  0
 23 45  1  0  0  0  0
 24 46  1  0  0  0  0
 26 47  1  0  0  0  0
 26 48  1  0  0  0  0
 26 49  1  0  0  0  0
 28 50  1  0  0  0  0
 29 51  1  0  0  0  0
 32 52  1  0  0  0  0
 33 53  1  0  0  0  0
M  END
>  <result-rank>
59

>  <similarity>
0.900

>  <query-name>


>  <query-smiles>
S(=O)(=O)(Nc1cc2c(NN=C2C=3Nc4c(ccc(c4)C)C3)cc1)c5cc(F)ccc5

>  <source>
REALspace_2019-12

>  <similarity-descriptor>
1.000;0.837;0.938;0.426;0.983;1.000;1.000;1.000;0.100

>  <similarity-descriptor-smiles>
c1ccc(cc1)F;NC1=NC=CS1;c1ccccc1;C=O;c1ccccc1;S(=O)=O;N;C;C

>  <reaction-name>
s_22

>  <reagent1-name>
14522802

>  <reagent1-smiles>
[R1*]NC=1SC(c2ccc(cc2)C)=CN1

>  <reagent2-name>
59626

>  <reagent2-smiles>
[R1*]C(=O)c1cc(NS(=O)(=O)c2ccc(F)cc2)c(cc1)C

$$$$
m_276910____14484250____14486910
          04022017313D 1   1.00000     0.00000     0
            
 47 51  0  0  0  0            999 V2000
   -0.4192    3.1227    1.4635 S   0  0  0  0  0  0  0  0  0  0  0  0
   -1.4932    4.0801    1.5230 O   0  0  0  0  0  0  0  0  0  0  0  0
    0.1369    3.1070    0.1352 O   0  0  0  0  0  0  0  0  0  0  0  0
    0.7390    3.5383    2.5324 N   0  0  0  0  0  0  0  0  0  0  0  0
    1.9763    2.8827    2.5144 C   0  0  0  0  0  0  0  0  0  0  0  0
    3.1726    3.5934    2.5027 C   0  0  0  0  0  0  0  0  0  0  0  0
    4.3857    2.9125    2.4852 C   0  0  0  0  0  0  0  0  0  0  0  0
    4.4026    1.5217    2.4775 C   0  0  0  0  0  0  0  0  0  0  0  0
    3.2065    0.8115    2.4890 C   0  0  0  0  0  0  0  0  0  0  0  0
    1.9934    1.4924    2.5075 C   0  0  0  0  0  0  0  0  0  0  0  0
    3.1550    5.0434    2.5097 C   0  0  0  0  0  0  0  0  0  0  0  0
    2.2276    5.7886    3.0588 N   0  0  0  0  0  0  0  0  0  0  0  0
    2.5979    7.0787    2.8339 C   0  0  0  0  0  0  0  0  0  0  0  0
    3.7242    7.0877    2.1626 N   0  0  0  0  0  0  0  0  0  0  0  0
    4.0967    5.8483    1.9441 N   0  0  0  0  0  0  0  0  0  0  0  0
    1.8672    8.2539    3.2673 C   0  0  0  0  0  0  0  0  0  0  0  0
    0.6556    8.2155    3.9941 C   0  0  0  0  0  0  0  0  0  0  0  0
    0.3303    9.5434    4.1844 C   0  0  0  0  0  0  0  0  0  0  0  0
    1.2894   10.3310    3.6101 N   0  0  0  0  0  0  0  0  0  0  0  0
    2.2439    9.5435    3.0403 C   0  0  0  0  0  0  0  0  0  0  0  0
    1.3007   11.8015    3.5981 C   0  0  0  0  0  0  0  0  0  0  0  0
    2.3986   12.2414    4.2065 F   0  0  0  0  0  0  0  0  0  0  0  0
    1.2868   12.2348    2.3408 F   0  0  0  0  0  0  0  0  0  0  0  0
   -0.8299    9.8833    4.8726 C   0  0  0  0  0  0  0  0  0  0  0  0
   -1.6738    8.9036    5.3800 C   0  0  0  0  0  0  0  0  0  0  0  0
   -1.3534    7.5625    5.1982 C   0  0  0  0  0  0  0  0  0  0  0  0
   -0.1928    7.2357    4.5059 C   0  0  0  0  0  0  0  0  0  0  0  0
   -1.0299    1.5406    1.8555 C   0  0  0  0  0  0  0  0  0  0  0  0
   -1.9794    1.1682    3.2158 S   0  0  0  0  0  0  0  0  0  0  0  0
   -2.1664   -0.5007    2.9222 C   0  0  0  0  0  0  0  0  0  0  0  0
   -1.4808   -0.7357    1.7671 C   0  0  0  0  0  0  0  0  0  0  0  0
   -0.8461    0.3843    1.1618 C   0  0  0  0  0  0  0  0  0  0  0  0
    0.5660    4.2614    3.2012 H   0  0  0  0  0  0  0  0  0  0  0  0
    5.2455    3.4231    2.4780 H   0  0  0  0  0  0  0  0  0  0  0  0
    5.2745    1.0323    2.4637 H   0  0  0  0  0  0  0  0  0  0  0  0
    3.2186   -0.1884    2.4841 H   0  0  0  0  0  0  0  0  0  0  0  0
    1.1336    0.9818    2.5157 H   0  0  0  0  0  0  0  0  0  0  0  0
    4.9167    5.5512    1.4549 H   0  0  0  0  0  0  0  0  0  0  0  0
    3.0603    9.8513    2.5517 H   0  0  0  0  0  0  0  0  0  0  0  0
    0.4934   12.1450    4.0780 H   0  0  0  0  0  0  0  0  0  0  0  0
   -1.0599   10.8476    5.0040 H   0  0  0  0  0  0  0  0  0  0  0  0
   -2.5055    9.1607    5.8723 H   0  0  0  0  0  0  0  0  0  0  0  0
   -1.9483    6.8446    5.5598 H   0  0  0  0  0  0  0  0  0  0  0  0
    0.0391    6.2722    4.3716 H   0  0  0  0  0  0  0  0  0  0  0  0
   -2.6696   -1.1634    3.4767 H   0  0  0  0  0  0  0  0  0  0  0  0
   -1.4270   -1.6499    1.3655 H   0  0  0  0  0  0  0  0  0  0  0  0
   -0.3192    0.3277    0.3138 H   0  0  0  0  0  0  0  0  0  0  0  0
  1  2  2  0  0  0  0
  1  3  2  0  0  0  0
  1  4  1  0  0  0  0
  4  5  1  0  0  0  0
  5  6  1  0  0  0  0
  6  7  2  0  0  0  0
  7  8  1  0  0  0  0
  8  9  2  0  0  0  0
  9 10  1  0  0  0  0
 10  5  2  0  0  0  0
  6 11  1  0  0  0  0
 11 12  2  0  0  0  0
 12 13  1  0  0  0  0
 13 14  2  0  0  0  0
 14 15  1  0  0  0  0
 15 11  1  0  0  0  0
 13 16  1  0  0  0  0
 16 17  1  0  0  0  0
 17 18  1  0  0  0  0
 18 19  1  0  0  0  0
 19 20  1  0  0  0  0
 16 20  2  0  0  0  0
 19 21  1  0  0  0  0
 21 22  1  0  0  0  0
 21 23  1  0  0  0  0
 18 24  2  0  0  0  0
 24 25  1  0  0  0  0
 25 26  2  0  0  0  0
 26 27  1  0  0  0  0
 27 17  2  0  0  0  0
  1 28  1  0  0  0  0
 28 29  1  0  0  0  0
 29 30  1  0  0  0  0
 30 31  2  0  0  0  0
 31 32  1  0  0  0  0
 28 32  2  0  0  0  0
  4 33  1  0  0  0  0
  7 34  1  0  0  0  0
  8 35  1  0  0  0  0
  9 36  1  0  0  0  0
 10 37  1  0  0  0  0
 15 38  1  0  0  0  0
 20 39  1  0  0  0  0
 21 40  1  0  0  0  0
 24 41  1  0  0  0  0
 25 42  1  0  0  0  0
 26 43  1  0  0  0  0
 27 44  1  0  0  0  0
 30 45  1  0  0  0  0
 31 46  1  0  0  0  0
 32 47  1  0  0  0  0
M  END
>  <result-rank>
60

>  <similarity>
0.900

>  <query-name>


>  <query-smiles>
S(=O)(=O)(Nc1cc2c(NN=C2C=3Nc4c(ccc(c4)C)C3)cc1)c5cc(F)ccc5

>  <source>
REALspace_2019-12

>  <similarity-descriptor>
0.907;0.863;0.953;0.848;0.938;0.999;1.000;0.0;0.125

>  <similarity-descriptor-smiles>
C1=CC=CS1;C1=CNcc1;c1ccccc1;C=1NN=CN1;c1ccccc1;S(=O)=O;N;;C(F)F

>  <reaction-name>
m_276910

>  <reagent1-name>
14484250

>  <reagent1-smiles>
[R2*]=NN=C([R1*])c1c(NS(=O)(=O)C=2SC=CC2)cccc1

>  <reagent2-name>
14486910

>  <reagent2-smiles>
[R2*]=C(N[R1*])C=1c2c(N(C1)C(F)F)cccc2

$$$$
s_270196____8771128____8772766
          04022017313D 1   1.00000     0.00000     0
            
 51 55  0  0  0  0            999 V2000
    8.4098   -7.5598    5.9384 Br  0  0  0  0  0  0  0  0  0  0  0  0
    8.7168   -6.3097    4.4611 C   0  0  0  0  0  0  0  0  0  0  0  0
    8.0732   -5.0793    4.4902 C   0  0  0  0  0  0  0  0  0  0  0  0
    8.2521   -4.1502    3.4702 C   0  0  0  0  0  0  0  0  0  0  0  0
    9.0939   -4.4739    2.4077 C   0  0  0  0  0  0  0  0  0  0  0  0
    9.2712   -3.5569    1.4005 N   0  0  0  0  0  0  0  0  0  0  0  0
    8.6528   -2.3329    1.3963 C   0  0  0  0  0  0  0  0  0  0  0  0
    7.8180   -1.9829    2.4266 C   0  0  0  0  0  0  0  0  0  0  0  0
    7.5946   -2.8894    3.4974 C   0  0  0  0  0  0  0  0  0  0  0  0
    6.8453   -2.5568    4.4055 O   0  0  0  0  0  0  0  0  0  0  0  0
    7.1543   -0.6937    2.4417 C   0  0  0  0  0  0  0  0  0  0  0  0
    7.7400    0.4807    2.4430 N   0  0  0  0  0  0  0  0  0  0  0  0
    6.8470    1.3801    2.4552 O   0  0  0  0  0  0  0  0  0  0  0  0
    5.6615    0.8207    2.4636 C   0  0  0  0  0  0  0  0  0  0  0  0
    5.8126   -0.4794    2.4541 N   0  0  0  0  0  0  0  0  0  0  0  0
    4.3941    1.5247    2.4794 C   0  0  0  0  0  0  0  0  0  0  0  0
    4.3966    2.9151    2.4867 C   0  0  0  0  0  0  0  0  0  0  0  0
    3.1792    3.5864    2.5020 C   0  0  0  0  0  0  0  0  0  0  0  0
    3.1519    4.9853    2.5098 N   0  0  0  0  0  0  0  0  0  0  0  0
    4.2637    5.8175    3.3632 S   0  0  0  0  0  0  0  0  0  0  0  0
    3.7808    7.1518    3.6081 O   0  0  0  0  0  0  0  0  0  0  0  0
    4.4995    5.1542    4.6195 O   0  0  0  0  0  0  0  0  0  0  0  0
    5.7489    5.8948    2.4606 C   0  0  0  0  0  0  0  0  0  0  0  0
    5.8004    6.6307    1.2815 C   0  0  0  0  0  0  0  0  0  0  0  0
    6.9903    6.6883    0.5640 C   0  0  0  0  0  0  0  0  0  0  0  0
    8.1126    6.0126    1.0311 C   0  0  0  0  0  0  0  0  0  0  0  0
    9.2473    6.0723    0.3395 F   0  0  0  0  0  0  0  0  0  0  0  0
    8.0544    5.2785    2.2104 C   0  0  0  0  0  0  0  0  0  0  0  0
    6.8675    5.2166    2.9327 C   0  0  0  0  0  0  0  0  0  0  0  0
    1.9828    2.8757    2.5094 C   0  0  0  0  0  0  0  0  0  0  0  0
    0.4299    3.7470    2.5290 Cl  0  0  0  0  0  0  0  0  0  0  0  0
    1.9858    1.4848    2.5024 C   0  0  0  0  0  0  0  0  0  0  0  0
    3.2015    0.8092    2.4872 C   0  0  0  0  0  0  0  0  0  0  0  0
    9.7385   -5.7088    2.3802 C   0  0  0  0  0  0  0  0  0  0  0  0
    9.5575   -6.6349    3.4020 C   0  0  0  0  0  0  0  0  0  0  0  0
   10.6653   -6.0997    1.2392 C   0  0  0  0  0  0  0  0  0  0  0  0
    7.4711   -4.8574    5.2572 H   0  0  0  0  0  0  0  0  0  0  0  0
    9.8758   -3.7915    0.6393 H   0  0  0  0  0  0  0  0  0  0  0  0
    8.8105   -1.6956    0.6421 H   0  0  0  0  0  0  0  0  0  0  0  0
    5.2581    3.4228    2.4809 H   0  0  0  0  0  0  0  0  0  0  0  0
    2.4503    5.4747    1.9918 H   0  0  0  0  0  0  0  0  0  0  0  0
    4.9891    7.1141    0.9526 H   0  0  0  0  0  0  0  0  0  0  0  0
    7.0388    7.2139   -0.2853 H   0  0  0  0  0  0  0  0  0  0  0  0
    8.8657    4.7951    2.5392 H   0  0  0  0  0  0  0  0  0  0  0  0
    6.8190    4.6904    3.7817 H   0  0  0  0  0  0  0  0  0  0  0  0
    1.1245    0.9768    2.5084 H   0  0  0  0  0  0  0  0  0  0  0  0
    3.2180   -0.1907    2.4817 H   0  0  0  0  0  0  0  0  0  0  0  0
   10.0238   -7.5192    3.3756 H   0  0  0  0  0  0  0  0  0  0  0  0
   11.0269   -7.0176    1.4030 H   0  0  0  0  0  0  0  0  0  0  0  0
   10.1564   -6.0907    0.3784 H   0  0  0  0  0  0  0  0  0  0  0  0
   11.4219   -5.4480    1.1860 H   0  0  0  0  0  0  0  0  0  0  0  0
  1  2  1  0  0  0  0
  2  3  1  0  0  0  0
  3  4  2  0  0  0  0
  4  5  1  0  0  0  0
  5  6  1  0  0  0  0
  6  7  1  0  0  0  0
  7  8  2  0  0  0  0
  8  9  1  0  0  0  0
  9  4  1  0  0  0  0
  9 10  2  0  0  0  0
  8 11  1  0  0  0  0
 11 12  2  0  0  0  0
 12 13  1  0  0  0  0
 13 14  1  0  0  0  0
 14 15  2  0  0  0  0
 15 11  1  0  0  0  0
 14 16  1  0  0  0  0
 16 17  1  0  0  0  0
 17 18  2  0  0  0  0
 18 19  1  0  0  0  0
 19 20  1  0  0  0  0
 20 21  2  0  0  0  0
 20 22  2  0  0  0  0
 20 23  1  0  0  0  0
 23 24  1  0  0  0  0
 24 25  2  0  0  0  0
 25 26  1  0  0  0  0
 26 27  1  0  0  0  0
 26 28  2  0  0  0  0
 28 29  1  0  0  0  0
 29 23  2  0  0  0  0
 18 30  1  0  0  0  0
 30 31  1  0  0  0  0
 30 32  2  0  0  0  0
 32 33  1  0  0  0  0
 33 16  2  0  0  0  0
  5 34  2  0  0  0  0
 34 35  1  0  0  0  0
 35  2  2  0  0  0  0
 34 36  1  0  0  0  0
  3 37  1  0  0  0  0
  6 38  1  0  0  0  0
  7 39  1  0  0  0  0
 17 40  1  0  0  0  0
 19 41  1  0  0  0  0
 24 42  1  0  0  0  0
 25 43  1  0  0  0  0
 28 44  1  0  0  0  0
 29 45  1  0  0  0  0
 32 46  1  0  0  0  0
 33 47  1  0  0  0  0
 35 48  1  0  0  0  0
 36 49  1  0  0  0  0
 36 50  1  0  0  0  0
 36 51  1  0  0  0  0
M  END
>  <result-rank>
61

>  <similarity>
0.900

>  <query-name>


>  <query-smiles>
S(=O)(=O)(Nc1cc2c(NN=C2C=3Nc4c(ccc(c4)C)C3)cc1)c5cc(F)ccc5

>  <source>
REALspace_2019-12

>  <similarity-descriptor>
1.000;0.762;0.932;0.680;0.948;1.000;1.000;1.000;0.0

>  <similarity-descriptor-smiles>
c1ccc(cc1)F;c1C(C=CNc1)=O;Brc1ccccc1;C=1N=CON1;c1ccc(cc1)Cl;S(=O)=O;N;C;

>  <reaction-name>
s_270196

>  <reagent1-name>
8771128

>  <reagent1-smiles>
[R1*]=NC(=NO[R2*])c1c(O)c2c(nc1)c(cc(Br)c2)C

>  <reagent2-name>
8772766

>  <reagent2-smiles>
[R1*]C([R2*])c1cc(NS(=O)(=O)c2ccc(F)cc2)c(Cl)cc1

$$$$
s_232682____15766234____3005030
          04022017313D 1   1.00000     0.00000     0
            
 39 42  0  0  0  0            999 V2000
    0.1850   -0.4116    0.9966 S   0  0  0  0  0  0  0  0  0  0  0  0
   -1.2129   -0.1582    0.7615 O   0  0  0  0  0  0  0  0  0  0  0  0
    0.7008   -1.2612   -0.0454 O   0  0  0  0  0  0  0  0  0  0  0  0
    1.0000    1.0000    1.0000 N   0  0  0  0  0  0  0  0  0  0  0  0
    2.3980    1.0000    1.0000 C   0  0  0  0  0  0  0  0  0  0  0  0
    3.0244    1.6175    2.0693 C   0  0  0  0  0  0  0  0  0  0  0  0
    4.4079    1.6034    2.0428 C   0  0  0  0  0  0  0  0  0  0  0  0
    5.4237    2.2905    3.2193 S   0  0  0  0  0  0  0  0  0  0  0  0
    6.8844    1.8543    2.4629 C   0  0  0  0  0  0  0  0  0  0  0  0
    6.5750    1.2140    1.3627 N   0  0  0  0  0  0  0  0  0  0  0  0
    5.2377    1.0532    1.0913 C   0  0  0  0  0  0  0  0  0  0  0  0
    4.5583    0.4499    0.0407 C   0  0  0  0  0  0  0  0  0  0  0  0
    3.1669    0.4223   -0.0062 C   0  0  0  0  0  0  0  0  0  0  0  0
    8.2111    2.1487    2.9672 C   0  0  0  0  0  0  0  0  0  0  0  0
    9.6443    1.7038    2.1707 S   0  0  0  0  0  0  0  0  0  0  0  0
   10.7162    2.3652    3.3103 C   0  0  0  0  0  0  0  0  0  0  0  0
    9.9547    2.9227    4.2905 C   0  0  0  0  0  0  0  0  0  0  0  0
    8.5502    2.8125    4.1110 C   0  0  0  0  0  0  0  0  0  0  0  0
   12.2328    2.3268    3.2321 C   0  0  0  0  0  0  0  0  0  0  0  0
    0.3809   -1.1983    2.5365 C   0  0  0  0  0  0  0  0  0  0  0  0
   -0.5242   -0.9436    3.5614 C   0  0  0  0  0  0  0  0  0  0  0  0
   -0.3502   -1.5817    4.7848 C   0  0  0  0  0  0  0  0  0  0  0  0
   -1.2135   -1.3403    5.7671 F   0  0  0  0  0  0  0  0  0  0  0  0
    0.7091   -2.4607    4.9866 C   0  0  0  0  0  0  0  0  0  0  0  0
    1.6075   -2.7065    3.9534 C   0  0  0  0  0  0  0  0  0  0  0  0
    1.4448   -2.0746    2.7248 C   0  0  0  0  0  0  0  0  0  0  0  0
    0.5000    1.8660    1.0021 H   0  0  0  0  0  0  0  0  0  0  0  0
    2.5105    2.0458    2.8126 H   0  0  0  0  0  0  0  0  0  0  0  0
    5.0805    0.0255   -0.6991 H   0  0  0  0  0  0  0  0  0  0  0  0
    2.7112   -0.0213   -0.7779 H   0  0  0  0  0  0  0  0  0  0  0  0
   10.3570    3.3794    5.0840 H   0  0  0  0  0  0  0  0  0  0  0  0
    7.8801    3.1821    4.7547 H   0  0  0  0  0  0  0  0  0  0  0  0
   12.6196    2.7884    4.0304 H   0  0  0  0  0  0  0  0  0  0  0  0
   12.5417    1.3758    3.2148 H   0  0  0  0  0  0  0  0  0  0  0  0
   12.5355    2.7907    2.3995 H   0  0  0  0  0  0  0  0  0  0  0  0
   -1.2871   -0.3125    3.4209 H   0  0  0  0  0  0  0  0  0  0  0  0
    0.8242   -2.9138    5.8706 H   0  0  0  0  0  0  0  0  0  0  0  0
    2.3705   -3.3375    4.0939 H   0  0  0  0  0  0  0  0  0  0  0  0
    2.0894   -2.2495    1.9806 H   0  0  0  0  0  0  0  0  0  0  0  0
  1  2  2  0  0  0  0
  1  3  2  0  0  0  0
  1  4  1  0  0  0  0
  4  5  1  0  0  0  0
  5  6  1  0  0  0  0
  6  7  2  0  0  0  0
  7  8  1  0  0  0  0
  8  9  1  0  0  0  0
  9 10  2  0  0  0  0
 10 11  1  0  0  0  0
 11  7  1  0  0  0  0
 11 12  2  0  0  0  0
 12 13  1  0  0  0  0
 13  5  2  0  0  0  0
  9 14  1  0  0  0  0
 14 15  1  0  0  0  0
 15 16  1  0  0  0  0
 16 17  2  0  0  0  0
 17 18  1  0  0  0  0
 14 18  2  0  0  0  0
 16 19  1  0  0  0  0
  1 20  1  0  0  0  0
 20 21  1  0  0  0  0
 21 22  2  0  0  0  0
 22 23  1  0  0  0  0
 22 24  1  0  0  0  0
 24 25  2  0  0  0  0
 25 26  1  0  0  0  0
 26 20  2  0  0  0  0
  4 27  1  0  0  0  0
  6 28  1  0  0  0  0
 12 29  1  0  0  0  0
 13 30  1  0  0  0  0
 17 31  1  0  0  0  0
 18 32  1  0  0  0  0
 19 33  1  0  0  0  0
 19 34  1  0  0  0  0
 19 35  1  0  0  0  0
 21 36  1  0  0  0  0
 24 37  1  0  0  0  0
 25 38  1  0  0  0  0
 26 39  1  0  0  0  0
M  END
>  <result-rank>
62

>  <similarity>
0.900

>  <query-name>


>  <query-smiles>
S(=O)(=O)(Nc1cc2c(NN=C2C=3Nc4c(ccc(c4)C)C3)cc1)c5cc(F)ccc5

>  <source>
REALspace_2019-12

>  <similarity-descriptor>
1.000;0.594;0.925;0.594;1.000;1.000;1.000;1.000;0.0

>  <similarity-descriptor-smiles>
c1cccc(c1)F;c1cN=CS1;C1=CC=CS1;c1cN=CS1;c1ccccc1;S(=O)=O;N;C;

>  <reaction-name>
s_232682

>  <reagent1-name>
15766234

>  <reagent1-smiles>
[R1*]Nc1cc2SC(=Nc2cc1)C=3SC(=CC3)C

>  <reagent2-name>
3005030

>  <reagent2-smiles>
[R1*]S(=O)(=O)c1cc(F)ccc1

$$$$
s_22____58831____15504564
          04022017313D 1   1.00000     0.00000     0
            
 47 50  0  0  0  0            999 V2000
    8.6233   -1.0701    0.4220 Cl  0  0  0  0  0  0  0  0  0  0  0  0
    8.2196   -0.6036   -1.2474 C   0  0  0  0  0  0  0  0  0  0  0  0
    7.6695    0.6473   -1.5062 C   0  0  0  0  0  0  0  0  0  0  0  0
    7.3795    1.7579   -0.1981 S   0  0  0  0  0  0  0  0  0  0  0  0
    6.6012    2.8708   -0.6769 O   0  0  0  0  0  0  0  0  0  0  0  0
    8.6378    2.2367    0.3128 O   0  0  0  0  0  0  0  0  0  0  0  0
    6.5648    0.9964    0.9906 N   0  0  0  0  0  0  0  0  0  0  0  0
    5.1649    0.9962    0.9910 C   0  0  0  0  0  0  0  0  0  0  0  0
    4.4697    0.4426   -0.0789 C   0  0  0  0  0  0  0  0  0  0  0  0
    3.0785    0.4423   -0.0788 C   0  0  0  0  0  0  0  0  0  0  0  0
    2.3998    1.0000    1.0000 C   0  0  0  0  0  0  0  0  0  0  0  0
    1.0000    1.0000    1.0000 N   0  0  0  0  0  0  0  0  0  0  0  0
    0.3150    2.1852    1.0551 C   0  0  0  0  0  0  0  0  0  0  0  0
    0.7944    3.1779    0.5811 O   0  0  0  0  0  0  0  0  0  0  0  0
   -1.0523    2.2427    1.7167 C   0  0  0  0  0  0  0  0  0  0  0  0
   -1.9942    1.7135    1.1945 O   0  0  0  0  0  0  0  0  0  0  0  0
   -1.2184    2.9371    2.9790 C   0  0  0  0  0  0  0  0  0  0  0  0
   -2.4287    3.0660    3.6988 C   0  0  0  0  0  0  0  0  0  0  0  0
   -2.1179    3.8093    4.8240 C   0  0  0  0  0  0  0  0  0  0  0  0
   -0.7811    4.0899    4.7931 N   0  0  0  0  0  0  0  0  0  0  0  0
   -0.2233    3.5659    3.6656 C   0  0  0  0  0  0  0  0  0  0  0  0
   -3.0690    4.1575    5.7785 C   0  0  0  0  0  0  0  0  0  0  0  0
   -4.3920    3.7586    5.6162 C   0  0  0  0  0  0  0  0  0  0  0  0
   -4.7386    3.0073    4.4977 C   0  0  0  0  0  0  0  0  0  0  0  0
   -6.0031    2.6161    4.3458 F   0  0  0  0  0  0  0  0  0  0  0  0
   -3.7608    2.6770    3.5625 C   0  0  0  0  0  0  0  0  0  0  0  0
    3.0952    1.5535    2.0701 C   0  0  0  0  0  0  0  0  0  0  0  0
    4.4865    1.5541    2.0700 C   0  0  0  0  0  0  0  0  0  0  0  0
    7.3547    1.0121   -2.8110 C   0  0  0  0  0  0  0  0  0  0  0  0
    6.6530    2.6140   -3.1436 Cl  0  0  0  0  0  0  0  0  0  0  0  0
    7.5885    0.1246   -3.8565 C   0  0  0  0  0  0  0  0  0  0  0  0
    8.1382   -1.1272   -3.5967 C   0  0  0  0  0  0  0  0  0  0  0  0
    8.4533   -1.4908   -2.2920 C   0  0  0  0  0  0  0  0  0  0  0  0
    7.0650    0.5294    1.7198 H   0  0  0  0  0  0  0  0  0  0  0  0
    4.9698    0.0449   -0.8481 H   0  0  0  0  0  0  0  0  0  0  0  0
    2.5725    0.0460   -0.8449 H   0  0  0  0  0  0  0  0  0  0  0  0
    0.5000    0.1349    0.9598 H   0  0  0  0  0  0  0  0  0  0  0  0
   -0.2857    4.6034    5.4937 H   0  0  0  0  0  0  0  0  0  0  0  0
    0.7366    3.6307    3.3930 H   0  0  0  0  0  0  0  0  0  0  0  0
   -2.8020    4.6933    6.5795 H   0  0  0  0  0  0  0  0  0  0  0  0
   -5.0838    4.0084    6.2937 H   0  0  0  0  0  0  0  0  0  0  0  0
   -4.0246    2.1396    2.7615 H   0  0  0  0  0  0  0  0  0  0  0  0
    2.5951    1.9509    2.8395 H   0  0  0  0  0  0  0  0  0  0  0  0
    4.9925    1.9506    2.8360 H   0  0  0  0  0  0  0  0  0  0  0  0
    7.3616    0.3861   -4.7947 H   0  0  0  0  0  0  0  0  0  0  0  0
    8.3066   -1.7651   -4.3481 H   0  0  0  0  0  0  0  0  0  0  0  0
    8.8479   -2.3905   -2.1051 H   0  0  0  0  0  0  0  0  0  0  0  0
  1  2  1  0  0  0  0
  2  3  1  0  0  0  0
  3  4  1  0  0  0  0
  4  5  2  0  0  0  0
  4  6  2  0  0  0  0
  4  7  1  0  0  0  0
  7  8  1  0  0  0  0
  8  9  1  0  0  0  0
  9 10  2  0  0  0  0
 10 11  1  0  0  0  0
 11 12  1  0  0  0  0
 12 13  1  0  0  0  0
 13 14  2  0  0  0  0
 13 15  1  0  0  0  0
 15 16  2  0  0  0  0
 15 17  1  0  0  0  0
 17 18  1  0  0  0  0
 18 19  1  0  0  0  0
 19 20  1  0  0  0  0
 20 21  1  0  0  0  0
 17 21  2  0  0  0  0
 19 22  2  0  0  0  0
 22 23  1  0  0  0  0
 23 24  2  0  0  0  0
 24 25  1  0  0  0  0
 24 26  1  0  0  0  0
 26 18  2  0  0  0  0
 11 27  2  0  0  0  0
 27 28  1  0  0  0  0
 28  8  2  0  0  0  0
  3 29  2  0  0  0  0
 29 30  1  0  0  0  0
 29 31  1  0  0  0  0
 31 32  2  0  0  0  0
 32 33  1  0  0  0  0
 33  2  2  0  0  0  0
  7 34  1  0  0  0  0
  9 35  1  0  0  0  0
 10 36  1  0  0  0  0
 12 37  1  0  0  0  0
 20 38  1  0  0  0  0
 21 39  1  0  0  0  0
 22 40  1  0  0  0  0
 23 41  1  0  0  0  0
 26 42  1  0  0  0  0
 27 43  1  0  0  0  0
 28 44  1  0  0  0  0
 31 45  1  0  0  0  0
 32 46  1  0  0  0  0
 33 47  1  0  0  0  0
M  END
>  <result-rank>
63

>  <similarity>
0.899

>  <query-name>


>  <query-smiles>
S(=O)(=O)(Nc1cc2c(NN=C2C=3Nc4c(ccc(c4)C)C3)cc1)c5cc(F)ccc5

>  <source>
REALspace_2019-12

>  <similarity-descriptor>
0.937;1.000;0.977;0.545;0.936;1.000;1.000;0.0;0.0

>  <similarity-descriptor-smiles>
Clc1cccc(c1)Cl;C1=CNcc1;c1cc(ccc1)F;NC(=O)C=O;c1ccccc1;S(=O)=O;N;;

>  <reaction-name>
s_22

>  <reagent1-name>
58831

>  <reagent1-smiles>
[R1*]Nc1ccc(NS(=O)(=O)c2c(Cl)cccc2Cl)cc1

>  <reagent2-name>
15504564

>  <reagent2-smiles>
[R1*]C(=O)C(=O)C=1c2c(NC1)ccc(F)c2

$$$$
s_270196____11403542____8772766
          04022017313D 1   1.00000     0.00000     0
            
 49 53  0  0  0  0            999 V2000
    0.4299    3.7470    2.5290 Cl  0  0  0  0  0  0  0  0  0  0  0  0
    1.9828    2.8757    2.5094 C   0  0  0  0  0  0  0  0  0  0  0  0
    3.1792    3.5864    2.5020 C   0  0  0  0  0  0  0  0  0  0  0  0
    3.1519    4.9853    2.5098 N   0  0  0  0  0  0  0  0  0  0  0  0
    3.7994    5.8062    3.7604 S   0  0  0  0  0  0  0  0  0  0  0  0
    3.3497    7.1736    3.7213 O   0  0  0  0  0  0  0  0  0  0  0  0
    3.3847    5.1996    4.9988 O   0  0  0  0  0  0  0  0  0  0  0  0
    5.5348    5.7630    3.6460 C   0  0  0  0  0  0  0  0  0  0  0  0
    6.1929    6.6661    2.8178 C   0  0  0  0  0  0  0  0  0  0  0  0
    7.5802    6.6262    2.7301 C   0  0  0  0  0  0  0  0  0  0  0  0
    8.2930    5.6880    3.4690 C   0  0  0  0  0  0  0  0  0  0  0  0
    9.6198    5.6559    3.3800 F   0  0  0  0  0  0  0  0  0  0  0  0
    7.6290    4.7878    4.2948 C   0  0  0  0  0  0  0  0  0  0  0  0
    6.2418    4.8221    4.3870 C   0  0  0  0  0  0  0  0  0  0  0  0
    4.3966    2.9151    2.4867 C   0  0  0  0  0  0  0  0  0  0  0  0
    4.3941    1.5247    2.4794 C   0  0  0  0  0  0  0  0  0  0  0  0
    3.2015    0.8092    2.4872 C   0  0  0  0  0  0  0  0  0  0  0  0
    1.9858    1.4848    2.5024 C   0  0  0  0  0  0  0  0  0  0  0  0
    5.6615    0.8207    2.4636 C   0  0  0  0  0  0  0  0  0  0  0  0
    6.8470    1.3801    2.4552 O   0  0  0  0  0  0  0  0  0  0  0  0
    7.7400    0.4807    2.4430 N   0  0  0  0  0  0  0  0  0  0  0  0
    7.1543   -0.6937    2.4417 C   0  0  0  0  0  0  0  0  0  0  0  0
    5.8126   -0.4794    2.4541 N   0  0  0  0  0  0  0  0  0  0  0  0
    7.8180   -1.9829    2.4266 C   0  0  0  0  0  0  0  0  0  0  0  0
    7.1447   -3.2256    2.4219 C   0  0  0  0  0  0  0  0  0  0  0  0
    8.1585   -4.1624    2.4064 C   0  0  0  0  0  0  0  0  0  0  0  0
    9.3665   -3.5215    2.3988 N   0  0  0  0  0  0  0  0  0  0  0  0
    9.1670   -2.1740    2.4113 C   0  0  0  0  0  0  0  0  0  0  0  0
   10.6851   -4.1725    2.3830 C   0  0  0  0  0  0  0  0  0  0  0  0
   11.3502   -3.8005    1.2929 F   0  0  0  0  0  0  0  0  0  0  0  0
   11.3702   -3.8126    3.4646 F   0  0  0  0  0  0  0  0  0  0  0  0
    7.8515   -5.5191    2.4033 C   0  0  0  0  0  0  0  0  0  0  0  0
    6.5324   -5.9543    2.4122 C   0  0  0  0  0  0  0  0  0  0  0  0
    5.5029   -5.0192    2.4231 C   0  0  0  0  0  0  0  0  0  0  0  0
    5.8227   -3.6661    2.4294 C   0  0  0  0  0  0  0  0  0  0  0  0
    2.7351    5.4816    1.7482 H   0  0  0  0  0  0  0  0  0  0  0  0
    5.6731    7.3380    2.2901 H   0  0  0  0  0  0  0  0  0  0  0  0
    8.0639    7.2703    2.1374 H   0  0  0  0  0  0  0  0  0  0  0  0
    8.1488    4.1160    4.8224 H   0  0  0  0  0  0  0  0  0  0  0  0
    5.7582    4.1775    4.9792 H   0  0  0  0  0  0  0  0  0  0  0  0
    5.2581    3.4228    2.4809 H   0  0  0  0  0  0  0  0  0  0  0  0
    3.2180   -0.1907    2.4817 H   0  0  0  0  0  0  0  0  0  0  0  0
    1.1245    0.9768    2.5084 H   0  0  0  0  0  0  0  0  0  0  0  0
    9.8719   -1.4646    2.4096 H   0  0  0  0  0  0  0  0  0  0  0  0
   10.5666   -5.1654    2.3785 H   0  0  0  0  0  0  0  0  0  0  0  0
    8.5917   -6.1914    2.3947 H   0  0  0  0  0  0  0  0  0  0  0  0
    6.3246   -6.9325    2.4107 H   0  0  0  0  0  0  0  0  0  0  0  0
    4.5477   -5.3153    2.4264 H   0  0  0  0  0  0  0  0  0  0  0  0
    5.0847   -2.9914    2.4395 H   0  0  0  0  0  0  0  0  0  0  0  0
  1  2  1  0  0  0  0
  2  3  1  0  0  0  0
  3  4  1  0  0  0  0
  4  5  1  0  0  0  0
  5  6  2  0  0  0  0
  5  7  2  0  0  0  0
  5  8  1  0  0  0  0
  8  9  1  0  0  0  0
  9 10  2  0  0  0  0
 10 11  1  0  0  0  0
 11 12  1  0  0  0  0
 11 13  2  0  0  0  0
 13 14  1  0  0  0  0
 14  8  2  0  0  0  0
  3 15  2  0  0  0  0
 15 16  1  0  0  0  0
 16 17  2  0  0  0  0
 17 18  1  0  0  0  0
 18  2  2  0  0  0  0
 16 19  1  0  0  0  0
 19 20  1  0  0  0  0
 20 21  1  0  0  0  0
 21 22  2  0  0  0  0
 22 23  1  0  0  0  0
 19 23  2  0  0  0  0
 22 24  1  0  0  0  0
 24 25  1  0  0  0  0
 25 26  1  0  0  0  0
 26 27  1  0  0  0  0
 27 28  1  0  0  0  0
 24 28  2  0  0  0  0
 27 29  1  0  0  0  0
 29 30  1  0  0  0  0
 29 31  1  0  0  0  0
 26 32  2  0  0  0  0
 32 33  1  0  0  0  0
 33 34  2  0  0  0  0
 34 35  1  0  0  0  0
 35 25  2  0  0  0  0
  4 36  1  0  0  0  0
  9 37  1  0  0  0  0
 10 38  1  0  0  0  0
 13 39  1  0  0  0  0
 14 40  1  0  0  0  0
 15 41  1  0  0  0  0
 17 42  1  0  0  0  0
 18 43  1  0  0  0  0
 28 44  1  0  0  0  0
 29 45  1  0  0  0  0
 32 46  1  0  0  0  0
 33 47  1  0  0  0  0
 34 48  1  0  0  0  0
 35 49  1  0  0  0  0
M  END
>  <result-rank>
64

>  <similarity>
0.899

>  <query-name>


>  <query-smiles>
S(=O)(=O)(Nc1cc2c(NN=C2C=3Nc4c(ccc(c4)C)C3)cc1)c5cc(F)ccc5

>  <source>
REALspace_2019-12

>  <similarity-descriptor>
1.000;0.863;0.953;0.680;0.948;1.000;1.000;0.0;0.125

>  <similarity-descriptor-smiles>
c1ccc(cc1)F;C1=CNcc1;c1ccccc1;C1=NC=NO1;Clc1ccccc1;S(=O)=O;N;;C(F)F

>  <reaction-name>
s_270196

>  <reagent1-name>
11403542

>  <reagent1-smiles>
[R1*]=NC(=NO[R2*])C=1c2c(N(C1)C(F)F)cccc2

>  <reagent2-name>
8772766

>  <reagent2-smiles>
[R1*]C([R2*])c1cc(NS(=O)(=O)c2ccc(F)cc2)c(Cl)cc1

$$$$
m_270942____9828416____9831356____14067606
          04022017313D 1   1.00000     0.00000     0
            
 64 68  0  0  0  0            999 V2000
   -0.6361    2.7229    2.5367 S   0  0  0  0  0  0  0  0  0  0  0  0
   -1.6597    3.4865    1.8713 O   0  0  0  0  0  0  0  0  0  0  0  0
   -0.4500    1.4701    1.8515 O   0  0  0  0  0  0  0  0  0  0  0  0
    0.7615    3.5615    2.5249 N   0  0  0  0  0  0  0  0  0  0  0  0
    1.9850    2.8822    2.5096 C   0  0  0  0  0  0  0  0  0  0  0  0
    3.1774    3.5986    2.4996 C   0  0  0  0  0  0  0  0  0  0  0  0
    4.3889    2.9151    2.4847 C   0  0  0  0  0  0  0  0  0  0  0  0
    4.3934    1.5238    2.4792 C   0  0  0  0  0  0  0  0  0  0  0  0
    3.2017    0.8073    2.4891 C   0  0  0  0  0  0  0  0  0  0  0  0
    1.9902    1.4907    2.5042 C   0  0  0  0  0  0  0  0  0  0  0  0
    5.6621    0.8203    2.4636 C   0  0  0  0  0  0  0  0  0  0  0  0
    6.0899   -0.0228    3.3762 N   0  0  0  0  0  0  0  0  0  0  0  0
    7.2780   -0.4478    3.0080 N   0  0  0  0  0  0  0  0  0  0  0  0
    7.6459    0.0942    1.8734 C   0  0  0  0  0  0  0  0  0  0  0  0
    6.6242    0.9107    1.5071 N   0  0  0  0  0  0  0  0  0  0  0  0
    6.5710    1.7419    0.2950 C   0  0  0  0  0  0  0  0  0  0  0  0
    5.5376    1.1738   -0.6639 C   0  0  0  0  0  0  0  0  0  0  0  0
    8.8442   -0.1272    1.1808 N   0  0  0  0  0  0  0  0  0  0  0  0
    9.8611    0.9322    1.1141 C   0  0  0  0  0  0  0  0  0  0  0  0
   10.9501    0.6546    2.1380 C   0  0  0  0  0  0  0  0  0  0  0  0
   12.1620    0.0915    1.8661 N   0  0  0  0  0  0  0  0  0  0  0  0
   12.8590    0.0080    3.0365 C   0  0  0  0  0  0  0  0  0  0  0  0
   12.0851    0.5185    4.0516 C   0  0  0  0  0  0  0  0  0  0  0  0
   12.5932    0.5330    5.3469 C   0  0  0  0  0  0  0  0  0  0  0  0
   13.8644    0.0409    5.6273 C   0  0  0  0  0  0  0  0  0  0  0  0
   14.6411   -0.4755    4.5946 C   0  0  0  0  0  0  0  0  0  0  0  0
   14.1313   -0.4887    3.3004 C   0  0  0  0  0  0  0  0  0  0  0  0
   10.8650    0.9312    3.4698 C   0  0  0  0  0  0  0  0  0  0  0  0
    9.0841   -1.4188    0.5213 C   0  0  0  0  0  0  0  0  0  0  0  0
   -1.1161    2.4188    4.1811 C   0  0  0  0  0  0  0  0  0  0  0  0
   -1.9276    3.3323    4.8451 C   0  0  0  0  0  0  0  0  0  0  0  0
   -2.3127    3.0914    6.1600 C   0  0  0  0  0  0  0  0  0  0  0  0
   -1.8769    1.9333    6.7949 C   0  0  0  0  0  0  0  0  0  0  0  0
   -1.0648    1.0202    6.1301 C   0  0  0  0  0  0  0  0  0  0  0  0
   -0.6801    1.2601    4.8156 C   0  0  0  0  0  0  0  0  0  0  0  0
   -2.2939    1.6659    8.2319 C   0  0  0  0  0  0  0  0  0  0  0  0
    0.7447    4.5613    2.5285 H   0  0  0  0  0  0  0  0  0  0  0  0
    3.1638    4.5985    2.5030 H   0  0  0  0  0  0  0  0  0  0  0  0
    5.2515    3.4208    2.4781 H   0  0  0  0  0  0  0  0  0  0  0  0
    3.2155   -0.1926    2.4853 H   0  0  0  0  0  0  0  0  0  0  0  0
    1.1277    0.9848    2.5111 H   0  0  0  0  0  0  0  0  0  0  0  0
    7.4685    1.7457   -0.1461 H   0  0  0  0  0  0  0  0  0  0  0  0
    6.3174    2.6769    0.5428 H   0  0  0  0  0  0  0  0  0  0  0  0
    5.5014    1.7389   -1.4881 H   0  0  0  0  0  0  0  0  0  0  0  0
    5.7912    0.2388   -0.9117 H   0  0  0  0  0  0  0  0  0  0  0  0
    4.6401    1.1699   -0.2228 H   0  0  0  0  0  0  0  0  0  0  0  0
    9.4357    1.8155    1.3111 H   0  0  0  0  0  0  0  0  0  0  0  0
   10.2621    0.9522    0.1982 H   0  0  0  0  0  0  0  0  0  0  0  0
   12.4833   -0.2076    0.9676 H   0  0  0  0  0  0  0  0  0  0  0  0
   12.0351    0.9036    6.0894 H   0  0  0  0  0  0  0  0  0  0  0  0
   14.2167    0.0582    6.5630 H   0  0  0  0  0  0  0  0  0  0  0  0
   15.5561   -0.8333    4.7809 H   0  0  0  0  0  0  0  0  0  0  0  0
   14.6840   -0.8583    2.5535 H   0  0  0  0  0  0  0  0  0  0  0  0
   10.0887    1.3463    3.9441 H   0  0  0  0  0  0  0  0  0  0  0  0
    9.9804   -1.4054    0.0780 H   0  0  0  0  0  0  0  0  0  0  0  0
    9.0600   -2.1505    1.2025 H   0  0  0  0  0  0  0  0  0  0  0  0
    8.3750   -1.5792   -0.1654 H   0  0  0  0  0  0  0  0  0  0  0  0
   -2.2340    4.1616    4.3778 H   0  0  0  0  0  0  0  0  0  0  0  0
   -2.8965    3.7438    6.6434 H   0  0  0  0  0  0  0  0  0  0  0  0
   -0.7578    0.1913    6.5976 H   0  0  0  0  0  0  0  0  0  0  0  0
   -0.0968    0.6075    4.3321 H   0  0  0  0  0  0  0  0  0  0  0  0
   -1.8998    0.7992    8.5376 H   0  0  0  0  0  0  0  0  0  0  0  0
   -1.9651    2.4067    8.8177 H   0  0  0  0  0  0  0  0  0  0  0  0
   -3.2912    1.6160    8.2858 H   0  0  0  0  0  0  0  0  0  0  0  0
  1  2  2  0  0  0  0
  1  3  2  0  0  0  0
  1  4  1  0  0  0  0
  4  5  1  0  0  0  0
  5  6  1  0  0  0  0
  6  7  2  0  0  0  0
  7  8  1  0  0  0  0
  8  9  2  0  0  0  0
  9 10  1  0  0  0  0
 10  5  2  0  0  0  0
  8 11  1  0  0  0  0
 11 12  2  0  0  0  0
 12 13  1  0  0  0  0
 13 14  2  0  0  0  0
 14 15  1  0  0  0  0
 15 11  1  0  0  0  0
 15 16  1  0  0  0  0
 16 17  1  0  0  0  0
 14 18  1  0  0  0  0
 18 19  1  0  0  0  0
 19 20  1  0  0  0  0
 20 21  1  0  0  0  0
 21 22  1  0  0  0  0
 22 23  1  0  0  0  0
 23 24  2  0  0  0  0
 24 25  1  0  0  0  0
 25 26  2  0  0  0  0
 26 27  1  0  0  0  0
 27 22  2  0  0  0  0
 23 28  1  0  0  0  0
 20 28  2  0  0  0  0
 18 29  1  0  0  0  0
  1 30  1  0  0  0  0
 30 31  1  0  0  0  0
 31 32  2  0  0  0  0
 32 33  1  0  0  0  0
 33 34  2  0  0  0  0
 34 35  1  0  0  0  0
 35 30  2  0  0  0  0
 33 36  1  0  0  0  0
  4 37  1  0  0  0  0
  6 38  1  0  0  0  0
  7 39  1  0  0  0  0
  9 40  1  0  0  0  0
 10 41  1  0  0  0  0
 16 42  1  0  0  0  0
 16 43  1  0  0  0  0
 17 44  1  0  0  0  0
 17 45  1  0  0  0  0
 17 46  1  0  0  0  0
 19 47  1  0  0  0  0
 19 48  1  0  0  0  0
 21 49  1  0  0  0  0
 24 50  1  0  0  0  0
 25 51  1  0  0  0  0
 26 52  1  0  0  0  0
 27 53  1  0  0  0  0
 28 54  1  0  0  0  0
 29 55  1  0  0  0  0
 29 56  1  0  0  0  0
 29 57  1  0  0  0  0
 31 58  1  0  0  0  0
 32 59  1  0  0  0  0
 34 60  1  0  0  0  0
 35 61  1  0  0  0  0
 36 62  1  0  0  0  0
 36 63  1  0  0  0  0
 36 64  1  0  0  0  0
M  END
>  <result-rank>
65

>  <similarity>
0.899

>  <query-name>


>  <query-smiles>
S(=O)(=O)(Nc1cc2c(NN=C2C=3Nc4c(ccc(c4)C)C3)cc1)c5cc(F)ccc5

>  <source>
REALspace_2019-12

>  <similarity-descriptor>
0.982;0.894;0.953;0.737;0.938;1.000;1.000;0.0;0.308

>  <similarity-descriptor-smiles>
c1ccccc1;NCC1=CccN1;c1ccccc1;C=1NC=NN1;c1ccccc1;S(=O)=O;N;;C.C.C.C

>  <reaction-name>
m_270942

>  <reagent1-name>
9828416

>  <reagent1-smiles>
[R3*]=C([R2*])N([R1*])CC

>  <reagent2-name>
9831356

>  <reagent2-smiles>
[R2*]N(CC=1Nc2c(cccc2)C1)C

>  <reagent3-name>
14067606

>  <reagent3-smiles>
[R3*]=NN=C([R1*])c1ccc(NS(=O)(=O)c2ccc(cc2)C)cc1

$$$$
s_2708____5343244____15361692
          04022017313D 1   1.00000     0.00000     0
            
 62 65  0  0  0  0            999 V2000
    9.2214    4.8483    1.2743 Cl  0  0  0  0  0  0  0  0  0  0  0  0
    8.1373    4.5413   -0.1044 C   0  0  0  0  0  0  0  0  0  0  0  0
    8.0093    3.2510   -0.6074 C   0  0  0  0  0  0  0  0  0  0  0  0
    7.1603    3.0197   -1.6848 C   0  0  0  0  0  0  0  0  0  0  0  0
    6.4514    4.0774   -2.2452 C   0  0  0  0  0  0  0  0  0  0  0  0
    5.3914    3.7784   -3.5925 S   0  0  0  0  0  0  0  0  0  0  0  0
    5.8956    2.6715   -4.3634 O   0  0  0  0  0  0  0  0  0  0  0  0
    5.3282    4.9528   -4.4233 O   0  0  0  0  0  0  0  0  0  0  0  0
    3.8995    3.4218   -3.0413 N   0  0  0  0  0  0  0  0  0  0  0  0
    3.6674    2.2072   -2.3856 C   0  0  0  0  0  0  0  0  0  0  0  0
    3.2034    2.2132   -1.0744 C   0  0  0  0  0  0  0  0  0  0  0  0
    2.9767    1.0000   -0.4332 C   0  0  0  0  0  0  0  0  0  0  0  0
    3.2078   -0.2070   -1.0845 C   0  0  0  0  0  0  0  0  0  0  0  0
    3.6716   -0.1881   -2.3961 C   0  0  0  0  0  0  0  0  0  0  0  0
    3.9052    1.0128   -3.0570 C   0  0  0  0  0  0  0  0  0  0  0  0
    2.4700    1.0000    1.0000 C   0  0  0  0  0  0  0  0  0  0  0  0
    1.0000    1.0000    1.0000 N   0  0  0  0  0  0  0  0  0  0  0  0
    0.3150    1.0000    2.1865 C   0  0  0  0  0  0  0  0  0  0  0  0
    0.9150    1.0000    3.2257 O   0  0  0  0  0  0  0  0  0  0  0  0
   -1.0550    1.0000    2.1865 N   0  0  0  0  0  0  0  0  0  0  0  0
   -1.7900    1.0000    3.4595 C   0  0  0  0  0  0  0  0  0  0  0  0
   -3.2844    1.0000    3.1818 C   0  0  0  0  0  0  0  0  0  0  0  0
   -4.0361    1.3712    4.4511 C   0  0  0  0  0  0  0  0  0  0  0  0
   -4.9018    2.4822    4.6257 C   0  0  0  0  0  0  0  0  0  0  0  0
   -5.3341    2.3869    5.9297 C   0  0  0  0  0  0  0  0  0  0  0  0
   -4.7625    1.2884    6.5065 N   0  0  0  0  0  0  0  0  0  0  0  0
   -3.9611    0.6536    5.6062 C   0  0  0  0  0  0  0  0  0  0  0  0
   -4.9738    0.8447    7.8919 C   0  0  0  0  0  0  0  0  0  0  0  0
   -6.2167    3.3377    6.4350 C   0  0  0  0  0  0  0  0  0  0  0  0
   -6.6732    4.3860    5.6431 C   0  0  0  0  0  0  0  0  0  0  0  0
   -6.2432    4.4881    4.3241 C   0  0  0  0  0  0  0  0  0  0  0  0
   -5.3612    3.5344    3.8286 C   0  0  0  0  0  0  0  0  0  0  0  0
   -4.9305    3.7016    2.3803 C   0  0  0  0  0  0  0  0  0  0  0  0
    6.5778    5.3688   -1.7438 C   0  0  0  0  0  0  0  0  0  0  0  0
    7.4278    5.5974   -0.6668 C   0  0  0  0  0  0  0  0  0  0  0  0
    8.5228    2.4967   -0.1985 H   0  0  0  0  0  0  0  0  0  0  0  0
    7.0598    2.0962   -2.0552 H   0  0  0  0  0  0  0  0  0  0  0  0
    3.1499    4.0708   -3.1716 H   0  0  0  0  0  0  0  0  0  0  0  0
    3.0353    3.0772   -0.5997 H   0  0  0  0  0  0  0  0  0  0  0  0
    3.0430   -1.0755   -0.6169 H   0  0  0  0  0  0  0  0  0  0  0  0
    3.8396   -1.0519   -2.8711 H   0  0  0  0  0  0  0  0  0  0  0  0
    4.2387    1.0175   -3.9997 H   0  0  0  0  0  0  0  0  0  0  0  0
    2.8033    0.1835    1.4714 H   0  0  0  0  0  0  0  0  0  0  0  0
    2.8033    1.8165    1.4714 H   0  0  0  0  0  0  0  0  0  0  0  0
    0.5000    1.0000    0.1340 H   0  0  0  0  0  0  0  0  0  0  0  0
   -1.5550    1.0000    1.3204 H   0  0  0  0  0  0  0  0  0  0  0  0
   -1.5484    1.8165    3.9839 H   0  0  0  0  0  0  0  0  0  0  0  0
   -1.5484    0.1835    3.9839 H   0  0  0  0  0  0  0  0  0  0  0  0
   -3.4903    1.6667    2.4654 H   0  0  0  0  0  0  0  0  0  0  0  0
   -3.5675    0.0893    2.8809 H   0  0  0  0  0  0  0  0  0  0  0  0
   -3.4240   -0.1753    5.7625 H   0  0  0  0  0  0  0  0  0  0  0  0
   -4.4406    0.0159    8.0615 H   0  0  0  0  0  0  0  0  0  0  0  0
   -4.6800    1.5645    8.5209 H   0  0  0  0  0  0  0  0  0  0  0  0
   -5.9444    0.6519    8.0359 H   0  0  0  0  0  0  0  0  0  0  0  0
   -6.5274    3.2658    7.3827 H   0  0  0  0  0  0  0  0  0  0  0  0
   -7.3066    5.0621    6.0196 H   0  0  0  0  0  0  0  0  0  0  0  0
   -6.5633    5.2354    3.7418 H   0  0  0  0  0  0  0  0  0  0  0  0
   -5.3706    4.5118    1.9931 H   0  0  0  0  0  0  0  0  0  0  0  0
   -3.9372    3.8097    2.3383 H   0  0  0  0  0  0  0  0  0  0  0  0
   -5.2002    2.8934    1.8569 H   0  0  0  0  0  0  0  0  0  0  0  0
    6.0641    6.1231   -2.1525 H   0  0  0  0  0  0  0  0  0  0  0  0
    7.5288    6.5209   -0.2968 H   0  0  0  0  0  0  0  0  0  0  0  0
  1  2  1  0  0  0  0
  2  3  1  0  0  0  0
  3  4  2  0  0  0  0
  4  5  1  0  0  0  0
  5  6  1  0  0  0  0
  6  7  2  0  0  0  0
  6  8  2  0  0  0  0
  6  9  1  0  0  0  0
  9 10  1  0  0  0  0
 10 11  1  0  0  0  0
 11 12  2  0  0  0  0
 12 13  1  0  0  0  0
 13 14  2  0  0  0  0
 14 15  1  0  0  0  0
 15 10  2  0  0  0  0
 12 16  1  0  0  0  0
 16 17  1  0  0  0  0
 17 18  1  0  0  0  0
 18 19  2  0  0  0  0
 18 20  1  0  0  0  0
 20 21  1  0  0  0  0
 21 22  1  0  0  0  0
 22 23  1  0  0  0  0
 23 24  1  0  0  0  0
 24 25  1  0  0  0  0
 25 26  1  0  0  0  0
 26 27  1  0  0  0  0
 23 27  2  0  0  0  0
 26 28  1  0  0  0  0
 25 29  2  0  0  0  0
 29 30  1  0  0  0  0
 30 31  2  0  0  0  0
 31 32  1  0  0  0  0
 32 24  2  0  0  0  0
 32 33  1  0  0  0  0
  5 34  2  0  0  0  0
 34 35  1  0  0  0  0
 35  2  2  0  0  0  0
  3 36  1  0  0  0  0
  4 37  1  0  0  0  0
  9 38  1  0  0  0  0
 11 39  1  0  0  0  0
 13 40  1  0  0  0  0
 14 41  1  0  0  0  0
 15 42  1  0  0  0  0
 16 43  1  0  0  0  0
 16 44  1  0  0  0  0
 17 45  1  0  0  0  0
 20 46  1  0  0  0  0
 21 47  1  0  0  0  0
 21 48  1  0  0  0  0
 22 49  1  0  0  0  0
 22 50  1  0  0  0  0
 27 51  1  0  0  0  0
 28 52  1  0  0  0  0
 28 53  1  0  0  0  0
 28 54  1  0  0  0  0
 29 55  1  0  0  0  0
 30 56  1  0  0  0  0
 31 57  1  0  0  0  0
 33 58  1  0  0  0  0
 33 59  1  0  0  0  0
 33 60  1  0  0  0  0
 34 61  1  0  0  0  0
 35 62  1  0  0  0  0
M  END
>  <result-rank>
66

>  <similarity>
0.899

>  <query-name>


>  <query-smiles>
S(=O)(=O)(Nc1cc2c(NN=C2C=3Nc4c(ccc(c4)C)C3)cc1)c5cc(F)ccc5

>  <source>
REALspace_2019-12

>  <similarity-descriptor>
0.985;0.828;1.000;0.573;0.938;1.000;1.000;1.000;0.071

>  <similarity-descriptor-smiles>
Clc1ccccc1;NCCC1=CNcc1;c1ccccc1;CNC=O;c1ccccc1;S(=O)=O;N;C;C

>  <reaction-name>
s_2708

>  <reagent1-name>
5343244

>  <reagent1-smiles>
[R1*]C(=O)NCc1cc(NS(=O)(=O)c2ccc(Cl)cc2)ccc1

>  <reagent2-name>
15361692

>  <reagent2-smiles>
[R1*]NCCC=1c2c(N(C1)C)cccc2C

$$$$
s_60____90601____7842574
          04022017313D 1   1.00000     0.00000     0
            
 53 57  0  0  0  0            999 V2000
    1.0000    1.0000    1.0000 S   0  0  0  0  0  0  0  0  0  0  0  0
   -0.2735    1.6418    0.8003 O   0  0  0  0  0  0  0  0  0  0  0  0
    0.8003   -0.2735    1.6418 O   0  0  0  0  0  0  0  0  0  0  0  0
    1.7265    0.7739   -0.4415 N   0  0  0  0  0  0  0  0  0  0  0  0
    2.8148   -0.1002   -0.5474 C   0  0  0  0  0  0  0  0  0  0  0  0
    2.6559   -1.3022   -1.2296 C   0  0  0  0  0  0  0  0  0  0  0  0
    3.7375   -2.1707   -1.3350 C   0  0  0  0  0  0  0  0  0  0  0  0
    4.9591   -1.8327   -0.7622 C   0  0  0  0  0  0  0  0  0  0  0  0
    6.0085   -2.6755   -0.8647 O   0  0  0  0  0  0  0  0  0  0  0  0
    7.2056   -2.4091   -0.1488 C   0  0  0  0  0  0  0  0  0  0  0  0
    5.1183   -0.6306   -0.0799 C   0  0  0  0  0  0  0  0  0  0  0  0
    4.0364    0.2377    0.0257 C   0  0  0  0  0  0  0  0  0  0  0  0
    2.0045    2.0045    2.0045 C   0  0  0  0  0  0  0  0  0  0  0  0
    1.7372    3.3673    2.0800 C   0  0  0  0  0  0  0  0  0  0  0  0
    2.5208    4.1981    2.8736 C   0  0  0  0  0  0  0  0  0  0  0  0
    2.4797    5.5395    3.1211 N   0  0  0  0  0  0  0  0  0  0  0  0
    3.4543    5.8309    3.9515 C   0  0  0  0  0  0  0  0  0  0  0  0
    4.1511    4.7016    4.2641 N   0  0  0  0  0  0  0  0  0  0  0  0
    3.5683    3.6712    3.5881 C   0  0  0  0  0  0  0  0  0  0  0  0
    3.8391    2.3090    3.5165 C   0  0  0  0  0  0  0  0  0  0  0  0
    3.0636    1.4660    2.7275 C   0  0  0  0  0  0  0  0  0  0  0  0
    3.7461    7.1571    4.4603 C   0  0  0  0  0  0  0  0  0  0  0  0
    4.6742    7.4688    5.4160 N   0  0  0  0  0  0  0  0  0  0  0  0
    4.6075    8.7710    5.5873 C   0  0  0  0  0  0  0  0  0  0  0  0
    3.6959    9.2796    4.7829 O   0  0  0  0  0  0  0  0  0  0  0  0
    3.1383    8.3138    4.0781 C   0  0  0  0  0  0  0  0  0  0  0  0
    5.4242    9.5117    6.5292 C   0  0  0  0  0  0  0  0  0  0  0  0
    6.3509    8.8372    7.3176 C   0  0  0  0  0  0  0  0  0  0  0  0
    7.1309    9.5523    8.2200 C   0  0  0  0  0  0  0  0  0  0  0  0
    6.9766   10.9313    8.3227 C   0  0  0  0  0  0  0  0  0  0  0  0
    6.0511   11.6054    7.5319 C   0  0  0  0  0  0  0  0  0  0  0  0
    5.2699   10.8901    6.6304 C   0  0  0  0  0  0  0  0  0  0  0  0
    7.8312   11.7073    9.3121 C   0  0  0  0  0  0  0  0  0  0  0  0
    1.3948    1.2596   -1.2502 H   0  0  0  0  0  0  0  0  0  0  0  0
    1.7749   -1.5391   -1.6392 H   0  0  0  0  0  0  0  0  0  0  0  0
    3.6368   -3.0380   -1.8226 H   0  0  0  0  0  0  0  0  0  0  0  0
    7.8740   -3.1285   -0.3379 H   0  0  0  0  0  0  0  0  0  0  0  0
    7.5762   -1.5259   -0.4360 H   0  0  0  0  0  0  0  0  0  0  0  0
    7.0095   -2.3855    0.8315 H   0  0  0  0  0  0  0  0  0  0  0  0
    5.9994   -0.3937    0.3294 H   0  0  0  0  0  0  0  0  0  0  0  0
    4.1370    1.1048    0.5136 H   0  0  0  0  0  0  0  0  0  0  0  0
    0.9753    3.7528    1.5594 H   0  0  0  0  0  0  0  0  0  0  0  0
    4.9410    4.6406    4.8744 H   0  0  0  0  0  0  0  0  0  0  0  0
    4.6024    1.9302    4.0398 H   0  0  0  0  0  0  0  0  0  0  0  0
    3.2644    0.4875    2.6809 H   0  0  0  0  0  0  0  0  0  0  0  0
    2.4124    8.4121    3.3973 H   0  0  0  0  0  0  0  0  0  0  0  0
    6.4553    7.8460    7.2362 H   0  0  0  0  0  0  0  0  0  0  0  0
    7.7996    9.0777    8.7923 H   0  0  0  0  0  0  0  0  0  0  0  0
    5.9484   12.5970    7.6111 H   0  0  0  0  0  0  0  0  0  0  0  0
    4.6009   11.3643    6.0581 H   0  0  0  0  0  0  0  0  0  0  0  0
    7.5993   12.6788    9.2626 H   0  0  0  0  0  0  0  0  0  0  0  0
    7.6588   11.3701   10.2376 H   0  0  0  0  0  0  0  0  0  0  0  0
    8.7975   11.5833    9.0867 H   0  0  0  0  0  0  0  0  0  0  0  0
  1  2  2  0  0  0  0
  1  3  2  0  0  0  0
  1  4  1  0  0  0  0
  4  5  1  0  0  0  0
  5  6  1  0  0  0  0
  6  7  2  0  0  0  0
  7  8  1  0  0  0  0
  8  9  1  0  0  0  0
  9 10  1  0  0  0  0
  8 11  2  0  0  0  0
 11 12  1  0  0  0  0
 12  5  2  0  0  0  0
  1 13  1  0  0  0  0
 13 14  1  0  0  0  0
 14 15  2  0  0  0  0
 15 16  1  0  0  0  0
 16 17  2  0  0  0  0
 17 18  1  0  0  0  0
 18 19  1  0  0  0  0
 19 15  1  0  0  0  0
 19 20  2  0  0  0  0
 20 21  1  0  0  0  0
 21 13  2  0  0  0  0
 17 22  1  0  0  0  0
 22 23  1  0  0  0  0
 23 24  2  0  0  0  0
 24 25  1  0  0  0  0
 25 26  1  0  0  0  0
 22 26  2  0  0  0  0
 24 27  1  0  0  0  0
 27 28  1  0  0  0  0
 28 29  2  0  0  0  0
 29 30  1  0  0  0  0
 30 31  2  0  0  0  0
 31 32  1  0  0  0  0
 32 27  2  0  0  0  0
 30 33  1  0  0  0  0
  4 34  1  0  0  0  0
  6 35  1  0  0  0  0
  7 36  1  0  0  0  0
 10 37  1  0  0  0  0
 10 38  1  0  0  0  0
 10 39  1  0  0  0  0
 11 40  1  0  0  0  0
 12 41  1  0  0  0  0
 14 42  1  0  0  0  0
 18 43  1  0  0  0  0
 20 44  1  0  0  0  0
 21 45  1  0  0  0  0
 26 46  1  0  0  0  0
 28 47  1  0  0  0  0
 29 48  1  0  0  0  0
 31 49  1  0  0  0  0
 32 50  1  0  0  0  0
 33 51  1  0  0  0  0
 33 52  1  0  0  0  0
 33 53  1  0  0  0  0
M  END
>  <result-rank>
67

>  <similarity>
0.898

>  <query-name>


>  <query-smiles>
S(=O)(=O)(Nc1cc2c(NN=C2C=3Nc4c(ccc(c4)C)C3)cc1)c5cc(F)ccc5

>  <source>
REALspace_2019-12

>  <similarity-descriptor>
0.922;0.656;0.938;0.999;1.000;0.888;0.888;1.000;0.200

>  <similarity-descriptor-smiles>
Nc1ccccc1;C1=COC=N1;c1ccccc1;c1cNC=N1;c1ccccc1;S(=O)=O;S(=O)=O;C;O.C

>  <reaction-name>
s_60

>  <reagent1-name>
90601

>  <reagent1-smiles>
[R1*]C1=Nc2c(N1)ccc(S(=O)(=O)Nc3ccc(OC)cc3)c2

>  <reagent2-name>
7842574

>  <reagent2-smiles>
[R1*]C=1N=C(OC1)c2ccc(cc2)C

$$$$
s_22____12058770____60255
          04022017313D 1   1.00000     0.00000     0
            
 50 53  0  0  0  0            999 V2000
    3.9217    5.8589    4.4765 S   0  0  0  0  0  0  0  0  0  0  0  0
    2.5347    5.9885    4.8413 O   0  0  0  0  0  0  0  0  0  0  0  0
    4.7460    6.4143    5.5184 O   0  0  0  0  0  0  0  0  0  0  0  0
    4.2862    4.2827    4.2774 N   0  0  0  0  0  0  0  0  0  0  0  0
    3.4775    3.4736    3.4698 C   0  0  0  0  0  0  0  0  0  0  0  0
    4.0219    2.8420    2.3566 C   0  0  0  0  0  0  0  0  0  0  0  0
    3.2206    2.0382    1.5520 C   0  0  0  0  0  0  0  0  0  0  0  0
    1.8776    1.8776    1.8776 C   0  0  0  0  0  0  0  0  0  0  0  0
    1.3306    2.5081    2.9902 C   0  0  0  0  0  0  0  0  0  0  0  0
    2.1342    3.3114    3.7925 C   0  0  0  0  0  0  0  0  0  0  0  0
    1.0000    1.0000    1.0000 C   0  0  0  0  0  0  0  0  0  0  0  0
    1.0389   -0.4301    1.5136 C   0  0  0  0  0  0  0  0  0  0  0  0
    1.8955   -1.1804    1.1350 O   0  0  0  0  0  0  0  0  0  0  0  0
    0.0961   -0.8624    2.4087 N   0  0  0  0  0  0  0  0  0  0  0  0
   -0.1427   -2.2340    2.5670 C   0  0  0  0  0  0  0  0  0  0  0  0
   -0.3729   -2.8747    3.7470 N   0  0  0  0  0  0  0  0  0  0  0  0
   -0.5537   -4.1812    3.4322 C   0  0  0  0  0  0  0  0  0  0  0  0
   -0.4426   -4.3605    2.1346 N   0  0  0  0  0  0  0  0  0  0  0  0
   -0.1840   -3.1522    1.5600 C   0  0  0  0  0  0  0  0  0  0  0  0
   -0.8209   -5.1205    4.4633 C   0  0  0  0  0  0  0  0  0  0  0  0
   -0.8966   -4.7175    5.7698 C   0  0  0  0  0  0  0  0  0  0  0  0
   -0.7004   -3.3427    6.0713 C   0  0  0  0  0  0  0  0  0  0  0  0
   -0.4440   -2.4609    5.0537 C   0  0  0  0  0  0  0  0  0  0  0  0
   -1.0295   -6.5883    4.1320 C   0  0  0  0  0  0  0  0  0  0  0  0
    4.2124    6.7136    2.9894 C   0  0  0  0  0  0  0  0  0  0  0  0
    3.1910    6.8330    2.0529 C   0  0  0  0  0  0  0  0  0  0  0  0
    3.4297    7.5169    0.8657 C   0  0  0  0  0  0  0  0  0  0  0  0
    4.6822    8.0730    0.6280 C   0  0  0  0  0  0  0  0  0  0  0  0
    4.9030    8.7258   -0.5098 F   0  0  0  0  0  0  0  0  0  0  0  0
    5.6990    7.9498    1.5682 C   0  0  0  0  0  0  0  0  0  0  0  0
    5.4671    7.2670    2.7574 C   0  0  0  0  0  0  0  0  0  0  0  0
    5.0873    3.8935    4.7320 H   0  0  0  0  0  0  0  0  0  0  0  0
    4.9891    2.9657    2.1346 H   0  0  0  0  0  0  0  0  0  0  0  0
    3.6052    1.5816    0.7498 H   0  0  0  0  0  0  0  0  0  0  0  0
    0.3634    2.3844    3.2123 H   0  0  0  0  0  0  0  0  0  0  0  0
    1.7495    3.7683    4.5946 H   0  0  0  0  0  0  0  0  0  0  0  0
    1.3379    1.0256    0.0592 H   0  0  0  0  0  0  0  0  0  0  0  0
    0.0592    1.3379    1.0256 H   0  0  0  0  0  0  0  0  0  0  0  0
   -0.4216   -0.1990    2.9490 H   0  0  0  0  0  0  0  0  0  0  0  0
   -0.0500   -2.9731    0.5853 H   0  0  0  0  0  0  0  0  0  0  0  0
   -1.0861   -5.3773    6.4970 H   0  0  0  0  0  0  0  0  0  0  0  0
   -0.7489   -3.0215    7.0170 H   0  0  0  0  0  0  0  0  0  0  0  0
   -0.3056   -1.4941    5.2683 H   0  0  0  0  0  0  0  0  0  0  0  0
   -1.2050   -7.0984    4.9740 H   0  0  0  0  0  0  0  0  0  0  0  0
   -1.8114   -6.6831    3.5158 H   0  0  0  0  0  0  0  0  0  0  0  0
   -0.2096   -6.9497    3.6881 H   0  0  0  0  0  0  0  0  0  0  0  0
    2.2931    6.4307    2.2316 H   0  0  0  0  0  0  0  0  0  0  0  0
    2.7030    7.6085    0.1850 H   0  0  0  0  0  0  0  0  0  0  0  0
    6.5969    8.3521    1.3895 H   0  0  0  0  0  0  0  0  0  0  0  0
    6.1941    7.1750    3.4378 H   0  0  0  0  0  0  0  0  0  0  0  0
  1  2  2  0  0  0  0
  1  3  2  0  0  0  0
  1  4  1  0  0  0  0
  4  5  1  0  0  0  0
  5  6  1  0  0  0  0
  6  7  2  0  0  0  0
  7  8  1  0  0  0  0
  8  9  2  0  0  0  0
  9 10  1  0  0  0  0
 10  5  2  0  0  0  0
  8 11  1  0  0  0  0
 11 12  1  0  0  0  0
 12 13  2  0  0  0  0
 12 14  1  0  0  0  0
 14 15  1  0  0  0  0
 15 16  1  0  0  0  0
 16 17  1  0  0  0  0
 17 18  2  0  0  0  0
 18 19  1  0  0  0  0
 15 19  2  0  0  0  0
 17 20  1  0  0  0  0
 20 21  2  0  0  0  0
 21 22  1  0  0  0  0
 22 23  2  0  0  0  0
 23 16  1  0  0  0  0
 20 24  1  0  0  0  0
  1 25  1  0  0  0  0
 25 26  1  0  0  0  0
 26 27  2  0  0  0  0
 27 28  1  0  0  0  0
 28 29  1  0  0  0  0
 28 30  2  0  0  0  0
 30 31  1  0  0  0  0
 31 25  2  0  0  0  0
  4 32  1  0  0  0  0
  6 33  1  0  0  0  0
  7 34  1  0  0  0  0
  9 35  1  0  0  0  0
 10 36  1  0  0  0  0
 11 37  1  0  0  0  0
 11 38  1  0  0  0  0
 14 39  1  0  0  0  0
 19 40  1  0  0  0  0
 21 41  1  0  0  0  0
 22 42  1  0  0  0  0
 23 43  1  0  0  0  0
 24 44  1  0  0  0  0
 24 45  1  0  0  0  0
 24 46  1  0  0  0  0
 26 47  1  0  0  0  0
 27 48  1  0  0  0  0
 30 49  1  0  0  0  0
 31 50  1  0  0  0  0
M  END
>  <result-rank>
68

>  <similarity>
0.898

>  <query-name>


>  <query-smiles>
S(=O)(=O)(Nc1cc2c(NN=C2C=3Nc4c(ccc(c4)C)C3)cc1)c5cc(F)ccc5

>  <source>
REALspace_2019-12

>  <similarity-descriptor>
1.000;0.849;0.966;0.451;0.938;1.000;1.000;1.000;0.0

>  <similarity-descriptor-smiles>
c1ccc(cc1)F;NC1=CN=CN1;N1C=CC=CC1;CC=O;c1ccccc1;S(=O)=O;N;C;

>  <reaction-name>
s_22

>  <reagent1-name>
12058770

>  <reagent1-smiles>
[R1*]NC=1N2C(=NC1)C(=CC=C2)C

>  <reagent2-name>
60255

>  <reagent2-smiles>
[R1*]C(=O)Cc1ccc(NS(=O)(=O)c2ccc(F)cc2)cc1

$$$$
s_527a____14056576____157860
          04022017313D 1   1.00000     0.00000     0
            
 45 48  0  0  0  0            999 V2000
    6.0357   -8.7030   -0.5601 Br  0  0  0  0  0  0  0  0  0  0  0  0
    6.8116   -7.0341    0.1123 C   0  0  0  0  0  0  0  0  0  0  0  0
    5.9316   -5.9844    0.3075 C   0  0  0  0  0  0  0  0  0  0  0  0
    6.4960   -4.8133    0.7826 C   0  0  0  0  0  0  0  0  0  0  0  0
    5.6312   -3.3869    1.1033 S   0  0  0  0  0  0  0  0  0  0  0  0
    6.9807   -2.4893    1.6169 C   0  0  0  0  0  0  0  0  0  0  0  0
    8.0315   -3.2655    1.5388 N   0  0  0  0  0  0  0  0  0  0  0  0
    7.8140   -4.5476    1.0887 C   0  0  0  0  0  0  0  0  0  0  0  0
    8.6496   -5.6403    0.8734 C   0  0  0  0  0  0  0  0  0  0  0  0
    8.1624   -6.8542    0.3966 C   0  0  0  0  0  0  0  0  0  0  0  0
    6.9252   -1.1555    2.0373 N   0  0  0  0  0  0  0  0  0  0  0  0
    5.7158   -0.4849    2.0521 N   0  0  0  0  0  0  0  0  0  0  0  0
    5.6615    0.8207    2.4636 C   0  0  0  0  0  0  0  0  0  0  0  0
    6.6633    1.3824    2.8112 O   0  0  0  0  0  0  0  0  0  0  0  0
    4.3934    1.5238    2.4792 C   0  0  0  0  0  0  0  0  0  0  0  0
    4.3889    2.9151    2.4847 C   0  0  0  0  0  0  0  0  0  0  0  0
    3.1774    3.5986    2.4996 C   0  0  0  0  0  0  0  0  0  0  0  0
    1.9850    2.8822    2.5096 C   0  0  0  0  0  0  0  0  0  0  0  0
    0.7615    3.5615    2.5249 N   0  0  0  0  0  0  0  0  0  0  0  0
   -0.2810    3.3352    3.7573 S   0  0  0  0  0  0  0  0  0  0  0  0
   -1.5443    3.9470    3.4359 O   0  0  0  0  0  0  0  0  0  0  0  0
   -0.4718    1.9241    3.9717 O   0  0  0  0  0  0  0  0  0  0  0  0
    0.3633    4.0596    5.2025 C   0  0  0  0  0  0  0  0  0  0  0  0
    0.4380    5.4443    5.3129 C   0  0  0  0  0  0  0  0  0  0  0  0
   -0.1262    6.4759    3.9764 Cl  0  0  0  0  0  0  0  0  0  0  0  0
    0.9522    6.0229    6.4687 C   0  0  0  0  0  0  0  0  0  0  0  0
    1.3930    5.2166    7.5134 C   0  0  0  0  0  0  0  0  0  0  0  0
    1.3137    3.8329    7.3898 C   0  0  0  0  0  0  0  0  0  0  0  0
    1.8776    2.7997    8.7252 Cl  0  0  0  0  0  0  0  0  0  0  0  0
    0.8006    3.2428    6.2396 C   0  0  0  0  0  0  0  0  0  0  0  0
    1.9902    1.4907    2.5042 C   0  0  0  0  0  0  0  0  0  0  0  0
    3.2017    0.8073    2.4891 C   0  0  0  0  0  0  0  0  0  0  0  0
    4.9531   -6.0664    0.1181 H   0  0  0  0  0  0  0  0  0  0  0  0
    9.6267   -5.5506    1.0665 H   0  0  0  0  0  0  0  0  0  0  0  0
    8.7971   -7.6139    0.2551 H   0  0  0  0  0  0  0  0  0  0  0  0
    7.7601   -0.6875    2.3270 H   0  0  0  0  0  0  0  0  0  0  0  0
    4.8810   -0.9530    1.7625 H   0  0  0  0  0  0  0  0  0  0  0  0
    5.2515    3.4208    2.4781 H   0  0  0  0  0  0  0  0  0  0  0  0
    3.1638    4.5985    2.5030 H   0  0  0  0  0  0  0  0  0  0  0  0
    0.5269    4.1857    1.7797 H   0  0  0  0  0  0  0  0  0  0  0  0
    1.0050    7.0183    6.5487 H   0  0  0  0  0  0  0  0  0  0  0  0
    1.7637    5.6280    8.3461 H   0  0  0  0  0  0  0  0  0  0  0  0
    0.7470    2.2474    6.1597 H   0  0  0  0  0  0  0  0  0  0  0  0
    1.1277    0.9848    2.5111 H   0  0  0  0  0  0  0  0  0  0  0  0
    3.2155   -0.1926    2.4853 H   0  0  0  0  0  0  0  0  0  0  0  0
  1  2  1  0  0  0  0
  2  3  1  0  0  0  0
  3  4  2  0  0  0  0
  4  5  1  0  0  0  0
  5  6  1  0  0  0  0
  6  7  2  0  0  0  0
  7  8  1  0  0  0  0
  8  4  1  0  0  0  0
  8  9  2  0  0  0  0
  9 10  1  0  0  0  0
 10  2  2  0  0  0  0
  6 11  1  0  0  0  0
 11 12  1  0  0  0  0
 12 13  1  0  0  0  0
 13 14  2  0  0  0  0
 13 15  1  0  0  0  0
 15 16  1  0  0  0  0
 16 17  2  0  0  0  0
 17 18  1  0  0  0  0
 18 19  1  0  0  0  0
 19 20  1  0  0  0  0
 20 21  2  0  0  0  0
 20 22  2  0  0  0  0
 20 23  1  0  0  0  0
 23 24  1  0  0  0  0
 24 25  1  0  0  0  0
 24 26  2  0  0  0  0
 26 27  1  0  0  0  0
 27 28  2  0  0  0  0
 28 29  1  0  0  0  0
 28 30  1  0  0  0  0
 30 23  2  0  0  0  0
 18 31  2  0  0  0  0
 31 32  1  0  0  0  0
 32 15  2  0  0  0  0
  3 33  1  0  0  0  0
  9 34  1  0  0  0  0
 10 35  1  0  0  0  0
 11 36  1  0  0  0  0
 12 37  1  0  0  0  0
 16 38  1  0  0  0  0
 17 39  1  0  0  0  0
 19 40  1  0  0  0  0
 26 41  1  0  0  0  0
 27 42  1  0  0  0  0
 30 43  1  0  0  0  0
 31 44  1  0  0  0  0
 32 45  1  0  0  0  0
M  END
>  <result-rank>
69

>  <similarity>
0.898

>  <query-name>


>  <query-smiles>
S(=O)(=O)(Nc1cc2c(NN=C2C=3Nc4c(ccc(c4)C)C3)cc1)c5cc(F)ccc5

>  <source>
REALspace_2019-12

>  <similarity-descriptor>
0.937;0.835;0.961;0.606;0.938;1.000;1.000;0.961;0.0

>  <similarity-descriptor-smiles>
c1cc(ccc1Cl)Cl;c1cN=C(S1)N;Brc1ccccc1;NC=O;c1ccccc1;S(=O)=O;N;Brc1ccccc1;

>  <reaction-name>
s_527a

>  <reagent1-name>
14056576

>  <reagent1-smiles>
[R1*]NNC=1Sc2c(N1)ccc(Br)c2

>  <reagent2-name>
157860

>  <reagent2-smiles>
[R1*]C(=O)c1ccc(NS(=O)(=O)c2c(Cl)ccc(Cl)c2)cc1

$$$$
s_22____10266916____59626
          04022017313D 1   1.00000     0.00000     0
            
 60 63  0  0  0  0            999 V2000
    4.8059   -0.4179   -2.4561 S   0  0  0  0  0  0  0  0  0  0  0  0
    5.7828   -1.1179   -3.2494 O   0  0  0  0  0  0  0  0  0  0  0  0
    3.5078   -1.0050   -2.6653 O   0  0  0  0  0  0  0  0  0  0  0  0
    5.2051   -0.5297   -0.8796 N   0  0  0  0  0  0  0  0  0  0  0  0
    4.5272    0.2436    0.0707 C   0  0  0  0  0  0  0  0  0  0  0  0
    5.2222    1.0044    1.0063 C   0  0  0  0  0  0  0  0  0  0  0  0
    4.5255    1.7651    1.9405 C   0  0  0  0  0  0  0  0  0  0  0  0
    3.1345    1.7648    1.9398 C   0  0  0  0  0  0  0  0  0  0  0  0
    2.4504    1.0000    1.0000 C   0  0  0  0  0  0  0  0  0  0  0  0
    3.1363    0.2359    0.0611 C   0  0  0  0  0  0  0  0  0  0  0  0
    1.0000    1.0000    1.0000 C   0  0  0  0  0  0  0  0  0  0  0  0
    0.4000    2.0391    1.0156 O   0  0  0  0  0  0  0  0  0  0  0  0
    0.3150   -0.1863    0.9822 N   0  0  0  0  0  0  0  0  0  0  0  0
   -0.9441   -0.2584    0.3749 C   0  0  0  0  0  0  0  0  0  0  0  0
   -2.2388    0.7933    0.7148 S   0  0  0  0  0  0  0  0  0  0  0  0
   -3.3113    0.0564   -0.3791 C   0  0  0  0  0  0  0  0  0  0  0  0
   -2.6376   -0.9846   -0.9795 C   0  0  0  0  0  0  0  0  0  0  0  0
   -1.3422   -1.1166   -0.5336 N   0  0  0  0  0  0  0  0  0  0  0  0
   -3.4054   -1.6749   -1.9119 C   0  0  0  0  0  0  0  0  0  0  0  0
   -4.7249   -1.3210   -2.1778 C   0  0  0  0  0  0  0  0  0  0  0  0
   -5.3291   -0.2574   -1.5155 C   0  0  0  0  0  0  0  0  0  0  0  0
   -6.6502    0.1410   -1.7395 N   0  0  0  0  0  0  0  0  0  0  0  0
   -7.6947   -0.8691   -1.9626 C   0  0  0  0  0  0  0  0  0  0  0  0
   -8.4741   -1.0847   -0.6755 C   0  0  0  0  0  0  0  0  0  0  0  0
   -6.9949    1.5699   -1.7520 C   0  0  0  0  0  0  0  0  0  0  0  0
   -7.1017    2.0528   -3.1893 C   0  0  0  0  0  0  0  0  0  0  0  0
   -4.6160    0.4693   -0.5792 C   0  0  0  0  0  0  0  0  0  0  0  0
    6.7418    1.0060    1.0065 C   0  0  0  0  0  0  0  0  0  0  0  0
    4.7680    1.2562   -2.9273 C   0  0  0  0  0  0  0  0  0  0  0  0
    5.9222    1.8608   -3.4140 C   0  0  0  0  0  0  0  0  0  0  0  0
    5.8858    3.1996   -3.7886 C   0  0  0  0  0  0  0  0  0  0  0  0
    4.7002    3.9176   -3.6739 C   0  0  0  0  0  0  0  0  0  0  0  0
    4.6730    5.1978   -4.0342 F   0  0  0  0  0  0  0  0  0  0  0  0
    3.5500    3.3074   -3.1864 C   0  0  0  0  0  0  0  0  0  0  0  0
    3.5795    1.9689   -2.8098 C   0  0  0  0  0  0  0  0  0  0  0  0
    5.9340   -1.1505   -0.5912 H   0  0  0  0  0  0  0  0  0  0  0  0
    5.0250    2.3120    2.6123 H   0  0  0  0  0  0  0  0  0  0  0  0
    2.6301    2.3100    2.6094 H   0  0  0  0  0  0  0  0  0  0  0  0
    2.6366   -0.3108   -0.6107 H   0  0  0  0  0  0  0  0  0  0  0  0
    0.7145   -1.0007    1.4030 H   0  0  0  0  0  0  0  0  0  0  0  0
   -2.9989   -2.4449   -2.4036 H   0  0  0  0  0  0  0  0  0  0  0  0
   -5.2466   -1.8393   -2.8554 H   0  0  0  0  0  0  0  0  0  0  0  0
   -7.2712   -1.7301   -2.2440 H   0  0  0  0  0  0  0  0  0  0  0  0
   -8.3161   -0.5532   -2.6796 H   0  0  0  0  0  0  0  0  0  0  0  0
   -9.1847   -1.7718   -0.8273 H   0  0  0  0  0  0  0  0  0  0  0  0
   -7.8528   -1.4005    0.0415 H   0  0  0  0  0  0  0  0  0  0  0  0
   -8.8977   -0.2237   -0.3941 H   0  0  0  0  0  0  0  0  0  0  0  0
   -6.2833    2.0886   -1.2780 H   0  0  0  0  0  0  0  0  0  0  0  0
   -7.8707    1.7056   -1.2888 H   0  0  0  0  0  0  0  0  0  0  0  0
   -7.3362    3.0249   -3.1978 H   0  0  0  0  0  0  0  0  0  0  0  0
   -6.2258    1.9171   -3.6524 H   0  0  0  0  0  0  0  0  0  0  0  0
   -7.8132    1.5341   -3.6632 H   0  0  0  0  0  0  0  0  0  0  0  0
   -5.0158    1.2392   -0.0819 H   0  0  0  0  0  0  0  0  0  0  0  0
    7.0745    1.6009    1.7383 H   0  0  0  0  0  0  0  0  0  0  0  0
    7.0761    0.0754    1.1555 H   0  0  0  0  0  0  0  0  0  0  0  0
    7.0749    1.3428    0.1258 H   0  0  0  0  0  0  0  0  0  0  0  0
    6.7706    1.3375   -3.4939 H   0  0  0  0  0  0  0  0  0  0  0  0
    6.7097    3.6448   -4.1393 H   0  0  0  0  0  0  0  0  0  0  0  0
    2.7016    3.8307   -3.1065 H   0  0  0  0  0  0  0  0  0  0  0  0
    2.7556    1.5241   -2.4586 H   0  0  0  0  0  0  0  0  0  0  0  0
  1  2  2  0  0  0  0
  1  3  2  0  0  0  0
  1  4  1  0  0  0  0
  4  5  1  0  0  0  0
  5  6  1  0  0  0  0
  6  7  2  0  0  0  0
  7  8  1  0  0  0  0
  8  9  2  0  0  0  0
  9 10  1  0  0  0  0
 10  5  2  0  0  0  0
  9 11  1  0  0  0  0
 11 12  2  0  0  0  0
 11 13  1  0  0  0  0
 13 14  1  0  0  0  0
 14 15  1  0  0  0  0
 15 16  1  0  0  0  0
 16 17  1  0  0  0  0
 17 18  1  0  0  0  0
 14 18  2  0  0  0  0
 17 19  2  0  0  0  0
 19 20  1  0  0  0  0
 20 21  2  0  0  0  0
 21 22  1  0  0  0  0
 22 23  1  0  0  0  0
 23 24  1  0  0  0  0
 22 25  1  0  0  0  0
 25 26  1  0  0  0  0
 21 27  1  0  0  0  0
 27 16  2  0  0  0  0
  6 28  1  0  0  0  0
  1 29  1  0  0  0  0
 29 30  1  0  0  0  0
 30 31  2  0  0  0  0
 31 32  1  0  0  0  0
 32 33  1  0  0  0  0
 32 34  2  0  0  0  0
 34 35  1  0  0  0  0
 35 29  2  0  0  0  0
  4 36  1  0  0  0  0
  7 37  1  0  0  0  0
  8 38  1  0  0  0  0
 10 39  1  0  0  0  0
 13 40  1  0  0  0  0
 19 41  1  0  0  0  0
 20 42  1  0  0  0  0
 23 43  1  0  0  0  0
 23 44  1  0  0  0  0
 24 45  1  0  0  0  0
 24 46  1  0  0  0  0
 24 47  1  0  0  0  0
 25 48  1  0  0  0  0
 25 49  1  0  0  0  0
 26 50  1  0  0  0  0
 26 51  1  0  0  0  0
 26 52  1  0  0  0  0
 27 53  1  0  0  0  0
 28 54  1  0  0  0  0
 28 55  1  0  0  0  0
 28 56  1  0  0  0  0
 30 57  1  0  0  0  0
 31 58  1  0  0  0  0
 34 59  1  0  0  0  0
 35 60  1  0  0  0  0
M  END
>  <result-rank>
70

>  <similarity>
0.898

>  <query-name>


>  <query-smiles>
S(=O)(=O)(Nc1cc2c(NN=C2C=3Nc4c(ccc(c4)C)C3)cc1)c5cc(F)ccc5

>  <source>
REALspace_2019-12

>  <similarity-descriptor>
1.000;0.838;0.997;0.426;0.983;1.000;1.000;0.983;0.286

>  <similarity-descriptor-smiles>
c1ccc(cc1)F;NC1=NccS1;c1ccccc1;C=O;c1ccccc1;S(=O)=O;N;NC;C.C.C.C

>  <reaction-name>
s_22

>  <reagent1-name>
10266916

>  <reagent1-smiles>
[R1*]NC=1Sc2c(N1)ccc(N(CC)CC)c2

>  <reagent2-name>
59626

>  <reagent2-smiles>
[R1*]C(=O)c1cc(NS(=O)(=O)c2ccc(F)cc2)c(cc1)C

$$$$
s_527a____14797418____644968
          04022017313D 1   1.00000     0.00000     0
            
 44 47  0  0  0  0            999 V2000
    8.4335    0.5523    2.2899 F   0  0  0  0  0  0  0  0  0  0  0  0
    9.3794    1.4662    2.0821 C   0  0  0  0  0  0  0  0  0  0  0  0
    9.1090    2.8169    2.2926 C   0  0  0  0  0  0  0  0  0  0  0  0
   10.1197    3.7330    2.0629 C   0  0  0  0  0  0  0  0  0  0  0  0
    9.6745    4.9987    2.3167 N   0  0  0  0  0  0  0  0  0  0  0  0
    8.3728    4.9234    2.7170 C   0  0  0  0  0  0  0  0  0  0  0  0
    8.0115    3.6073    2.7087 C   0  0  0  0  0  0  0  0  0  0  0  0
    6.7446    3.1220    3.0593 N   0  0  0  0  0  0  0  0  0  0  0  0
    5.6230    3.6528    2.4786 C   0  0  0  0  0  0  0  0  0  0  0  0
    5.6693    4.7355    1.9633 O   0  0  0  0  0  0  0  0  0  0  0  0
    4.3800    2.9062    2.4867 C   0  0  0  0  0  0  0  0  0  0  0  0
    3.1728    3.5972    2.5008 C   0  0  0  0  0  0  0  0  0  0  0  0
    1.9830    2.8768    2.5101 C   0  0  0  0  0  0  0  0  0  0  0  0
    0.7615    3.5615    2.5249 N   0  0  0  0  0  0  0  0  0  0  0  0
   -0.2727    3.1008    3.2963 C   0  0  0  0  0  0  0  0  0  0  0  0
   -0.0441    2.5060    4.3131 O   0  0  0  0  0  0  0  0  0  0  0  0
   -1.6437    3.3318    2.8839 C   0  0  0  0  0  0  0  0  0  0  0  0
   -2.6821    2.8575    3.6785 C   0  0  0  0  0  0  0  0  0  0  0  0
   -4.0030    3.0710    3.2974 C   0  0  0  0  0  0  0  0  0  0  0  0
   -4.2658    3.7595    2.1182 C   0  0  0  0  0  0  0  0  0  0  0  0
   -5.5241    3.9703    1.7425 F   0  0  0  0  0  0  0  0  0  0  0  0
   -3.2277    4.2334    1.3235 C   0  0  0  0  0  0  0  0  0  0  0  0
   -1.9072    4.0203    1.7039 C   0  0  0  0  0  0  0  0  0  0  0  0
    1.9867    1.4860    2.5051 C   0  0  0  0  0  0  0  0  0  0  0  0
    3.2053    0.8159    2.4905 C   0  0  0  0  0  0  0  0  0  0  0  0
    4.4072    1.5158    2.4809 C   0  0  0  0  0  0  0  0  0  0  0  0
   11.3773    3.3239    1.6332 C   0  0  0  0  0  0  0  0  0  0  0  0
   11.6353    1.9723    1.4264 C   0  0  0  0  0  0  0  0  0  0  0  0
   10.6309    1.0370    1.6523 C   0  0  0  0  0  0  0  0  0  0  0  0
   10.2112    5.8374    2.2248 H   0  0  0  0  0  0  0  0  0  0  0  0
    7.7883    5.6940    2.9709 H   0  0  0  0  0  0  0  0  0  0  0  0
    6.6592    2.3883    3.7333 H   0  0  0  0  0  0  0  0  0  0  0  0
    3.1605    4.5971    2.5042 H   0  0  0  0  0  0  0  0  0  0  0  0
    0.6442    4.3867    1.9724 H   0  0  0  0  0  0  0  0  0  0  0  0
   -2.4793    2.3630    4.5237 H   0  0  0  0  0  0  0  0  0  0  0  0
   -4.7542    2.7336    3.8646 H   0  0  0  0  0  0  0  0  0  0  0  0
   -3.4309    4.7276    0.4782 H   0  0  0  0  0  0  0  0  0  0  0  0
   -1.1563    4.3578    1.1363 H   0  0  0  0  0  0  0  0  0  0  0  0
    1.1266    0.9758    2.5119 H   0  0  0  0  0  0  0  0  0  0  0  0
    3.2176   -0.1840    2.4868 H   0  0  0  0  0  0  0  0  0  0  0  0
    5.2790    1.0260    2.4700 H   0  0  0  0  0  0  0  0  0  0  0  0
   12.0958    4.0007    1.4729 H   0  0  0  0  0  0  0  0  0  0  0  0
   12.5385    1.6749    1.1169 H   0  0  0  0  0  0  0  0  0  0  0  0
   10.8071    0.0635    1.5068 H   0  0  0  0  0  0  0  0  0  0  0  0
  1  2  1  0  0  0  0
  2  3  1  0  0  0  0
  3  4  2  0  0  0  0
  4  5  1  0  0  0  0
  5  6  1  0  0  0  0
  6  7  2  0  0  0  0
  7  3  1  0  0  0  0
  7  8  1  0  0  0  0
  8  9  1  0  0  0  0
  9 10  2  0  0  0  0
  9 11  1  0  0  0  0
 11 12  1  0  0  0  0
 12 13  2  0  0  0  0
 13 14  1  0  0  0  0
 14 15  1  0  0  0  0
 15 16  2  0  0  0  0
 15 17  1  0  0  0  0
 17 18  1  0  0  0  0
 18 19  2  0  0  0  0
 19 20  1  0  0  0  0
 20 21  1  0  0  0  0
 20 22  2  0  0  0  0
 22 23  1  0  0  0  0
 23 17  2  0  0  0  0
 13 24  1  0  0  0  0
 24 25  2  0  0  0  0
 25 26  1  0  0  0  0
 26 11  2  0  0  0  0
  4 27  1  0  0  0  0
 27 28  2  0  0  0  0
 28 29  1  0  0  0  0
 29  2  2  0  0  0  0
  5 30  1  0  0  0  0
  6 31  1  0  0  0  0
  8 32  1  0  0  0  0
 12 33  1  0  0  0  0
 14 34  1  0  0  0  0
 18 35  1  0  0  0  0
 19 36  1  0  0  0  0
 22 37  1  0  0  0  0
 23 38  1  0  0  0  0
 24 39  1  0  0  0  0
 25 40  1  0  0  0  0
 26 41  1  0  0  0  0
 27 42  1  0  0  0  0
 28 43  1  0  0  0  0
 29 44  1  0  0  0  0
M  END
>  <result-rank>
71

>  <similarity>
0.898

>  <query-name>


>  <query-smiles>
S(=O)(=O)(Nc1cc2c(NN=C2C=3Nc4c(ccc(c4)C)C3)cc1)c5cc(F)ccc5

>  <source>
REALspace_2019-12

>  <similarity-descriptor>
0.999;0.996;0.977;0.603;0.938;0.626;0.982;0.0;0.0

>  <similarity-descriptor-smiles>
c1ccc(cc1)F;c1C=CNc1;Fc1ccccc1;NC=O;c1ccccc1;C=O;N;;

>  <reaction-name>
s_527a

>  <reagent1-name>
14797418

>  <reagent1-smiles>
[R1*]NC=1c2c(F)cccc2NC1

>  <reagent2-name>
644968

>  <reagent2-smiles>
[R1*]C(=O)c1cc(NC(=O)c2ccc(F)cc2)ccc1

$$$$
s_270196____9422972____8772164
          04022017313D 1   1.00000     0.00000     0
            
 52 56  0  0  0  0            999 V2000
    1.0000    1.0000    1.0000 S   0  0  0  0  0  0  0  0  0  0  0  0
   -0.2684    1.6482    0.7889 O   0  0  0  0  0  0  0  0  0  0  0  0
    0.7889   -0.2684    1.6482 O   0  0  0  0  0  0  0  0  0  0  0  0
    1.7337    0.7610   -0.4358 N   0  0  0  0  0  0  0  0  0  0  0  0
    1.3494    1.5137   -1.5522 C   0  0  0  0  0  0  0  0  0  0  0  0
    1.9848    2.7220   -1.8200 C   0  0  0  0  0  0  0  0  0  0  0  0
    1.6004    3.4668   -2.9301 C   0  0  0  0  0  0  0  0  0  0  0  0
    0.5878    3.0022   -3.7625 C   0  0  0  0  0  0  0  0  0  0  0  0
   -0.0401    1.7924   -3.4854 C   0  0  0  0  0  0  0  0  0  0  0  0
    0.3357    1.0392   -2.3781 C   0  0  0  0  0  0  0  0  0  0  0  0
    2.7988   -0.2446   -0.5586 C   0  0  0  0  0  0  0  0  0  0  0  0
    2.1890   -1.5852   -0.9347 C   0  0  0  0  0  0  0  0  0  0  0  0
    2.0045    2.0045    2.0045 C   0  0  0  0  0  0  0  0  0  0  0  0
    1.8584    3.3870    1.9602 C   0  0  0  0  0  0  0  0  0  0  0  0
    2.6665    4.1805    2.7676 C   0  0  0  0  0  0  0  0  0  0  0  0
    3.6073    3.5898    3.6054 C   0  0  0  0  0  0  0  0  0  0  0  0
    3.7498    2.2066    3.6463 C   0  0  0  0  0  0  0  0  0  0  0  0
    2.9434    1.4091    2.8407 C   0  0  0  0  0  0  0  0  0  0  0  0
    4.4444    4.4288    4.4414 C   0  0  0  0  0  0  0  0  0  0  0  0
    4.4060    5.7381    4.4926 O   0  0  0  0  0  0  0  0  0  0  0  0
    5.2668    6.1553    5.3241 N   0  0  0  0  0  0  0  0  0  0  0  0
    5.8918    5.1215    5.8370 C   0  0  0  0  0  0  0  0  0  0  0  0
    5.3650    4.0049    5.2697 N   0  0  0  0  0  0  0  0  0  0  0  0
    6.9519    5.1643    6.8253 C   0  0  0  0  0  0  0  0  0  0  0  0
    7.6139    4.0371    7.3650 C   0  0  0  0  0  0  0  0  0  0  0  0
    8.5279    4.5531    8.2573 C   0  0  0  0  0  0  0  0  0  0  0  0
    8.4300    5.9187    8.2506 N   0  0  0  0  0  0  0  0  0  0  0  0
    7.4611    6.3028    7.3737 C   0  0  0  0  0  0  0  0  0  0  0  0
    9.3564    3.7031    8.9815 C   0  0  0  0  0  0  0  0  0  0  0  0
    9.2772    2.3235    8.8239 C   0  0  0  0  0  0  0  0  0  0  0  0
    8.3550    1.7927    7.9277 C   0  0  0  0  0  0  0  0  0  0  0  0
    7.5346    2.6557    7.2096 C   0  0  0  0  0  0  0  0  0  0  0  0
    2.7123    3.0526   -1.2189 H   0  0  0  0  0  0  0  0  0  0  0  0
    2.0522    4.3364   -3.1297 H   0  0  0  0  0  0  0  0  0  0  0  0
    0.3111    3.5379   -4.5603 H   0  0  0  0  0  0  0  0  0  0  0  0
   -0.7673    1.4617   -4.0869 H   0  0  0  0  0  0  0  0  0  0  0  0
   -0.1160    0.1696   -2.1789 H   0  0  0  0  0  0  0  0  0  0  0  0
    3.2789   -0.3300    0.3145 H   0  0  0  0  0  0  0  0  0  0  0  0
    3.4445    0.0386   -1.2677 H   0  0  0  0  0  0  0  0  0  0  0  0
    2.9135   -2.2693   -1.0182 H   0  0  0  0  0  0  0  0  0  0  0  0
    1.5433   -1.8684   -0.2255 H   0  0  0  0  0  0  0  0  0  0  0  0
    1.7089   -1.4998   -1.8078 H   0  0  0  0  0  0  0  0  0  0  0  0
    1.1807    3.8052    1.3553 H   0  0  0  0  0  0  0  0  0  0  0  0
    2.5713    5.1758    2.7459 H   0  0  0  0  0  0  0  0  0  0  0  0
    4.4274    1.7882    4.2511 H   0  0  0  0  0  0  0  0  0  0  0  0
    3.0382    0.4138    2.8624 H   0  0  0  0  0  0  0  0  0  0  0  0
    8.9850    6.5392    8.8047 H   0  0  0  0  0  0  0  0  0  0  0  0
    7.1778    7.2403    7.1713 H   0  0  0  0  0  0  0  0  0  0  0  0
   10.0181    4.0890    9.6244 H   0  0  0  0  0  0  0  0  0  0  0  0
    9.8768    1.7197    9.3490 H   0  0  0  0  0  0  0  0  0  0  0  0
    8.2831    0.8033    7.8017 H   0  0  0  0  0  0  0  0  0  0  0  0
    6.8712    2.2748    6.5655 H   0  0  0  0  0  0  0  0  0  0  0  0
  1  2  2  0  0  0  0
  1  3  2  0  0  0  0
  1  4  1  0  0  0  0
  4  5  1  0  0  0  0
  5  6  1  0  0  0  0
  6  7  2  0  0  0  0
  7  8  1  0  0  0  0
  8  9  2  0  0  0  0
  9 10  1  0  0  0  0
 10  5  2  0  0  0  0
  4 11  1  0  0  0  0
 11 12  1  0  0  0  0
  1 13  1  0  0  0  0
 13 14  1  0  0  0  0
 14 15  2  0  0  0  0
 15 16  1  0  0  0  0
 16 17  2  0  0  0  0
 17 18  1  0  0  0  0
 18 13  2  0  0  0  0
 16 19  1  0  0  0  0
 19 20  1  0  0  0  0
 20 21  1  0  0  0  0
 21 22  2  0  0  0  0
 22 23  1  0  0  0  0
 19 23  2  0  0  0  0
 22 24  1  0  0  0  0
 24 25  1  0  0  0  0
 25 26  1  0  0  0  0
 26 27  1  0  0  0  0
 27 28  1  0  0  0  0
 24 28  2  0  0  0  0
 26 29  2  0  0  0  0
 29 30  1  0  0  0  0
 30 31  2  0  0  0  0
 31 32  1  0  0  0  0
 32 25  2  0  0  0  0
  6 33  1  0  0  0  0
  7 34  1  0  0  0  0
  8 35  1  0  0  0  0
  9 36  1  0  0  0  0
 10 37  1  0  0  0  0
 11 38  1  0  0  0  0
 11 39  1  0  0  0  0
 12 40  1  0  0  0  0
 12 41  1  0  0  0  0
 12 42  1  0  0  0  0
 14 43  1  0  0  0  0
 15 44  1  0  0  0  0
 17 45  1  0  0  0  0
 18 46  1  0  0  0  0
 27 47  1  0  0  0  0
 28 48  1  0  0  0  0
 29 49  1  0  0  0  0
 30 50  1  0  0  0  0
 31 51  1  0  0  0  0
 32 52  1  0  0  0  0
M  END
>  <result-rank>
72

>  <similarity>
0.897

>  <query-name>


>  <query-smiles>
S(=O)(=O)(Nc1cc2c(NN=C2C=3Nc4c(ccc(c4)C)C3)cc1)c5cc(F)ccc5

>  <source>
REALspace_2019-12

>  <similarity-descriptor>
0.967;1.000;0.953;0.680;0.881;1.000;0.881;0.0;0.222

>  <similarity-descriptor-smiles>
Nc1ccccc1;C1=CNcc1;c1ccccc1;C1=NC=NO1;c1ccccc1;S(=O)=O;c1ccccc1;;C.C

>  <reaction-name>
s_270196

>  <reagent1-name>
9422972

>  <reagent1-smiles>
[R1*]=NC(=NO[R2*])C=1c2c(NC1)cccc2

>  <reagent2-name>
8772164

>  <reagent2-smiles>
[R1*]C([R2*])c1ccc(S(=O)(=O)N(c2ccccc2)CC)cc1

$$$$
s_27c____5343226____17322582
          04022017313D 1   1.00000     0.00000     0
            
 45 48  0  0  0  0            999 V2000
   10.5876   -0.0384    8.8059 Br  0  0  0  0  0  0  0  0  0  0  0  0
    9.6091    0.4661    7.1845 C   0  0  0  0  0  0  0  0  0  0  0  0
    8.8737    1.6472    7.1380 C   0  0  0  0  0  0  0  0  0  0  0  0
    8.1710    2.0244    5.9975 C   0  0  0  0  0  0  0  0  0  0  0  0
    7.4008    3.1187    5.7353 N   0  0  0  0  0  0  0  0  0  0  0  0
    6.9465    3.0148    4.5098 C   0  0  0  0  0  0  0  0  0  0  0  0
    7.4188    1.8585    3.9698 N   0  0  0  0  0  0  0  0  0  0  0  0
    8.2028    1.2163    4.8889 C   0  0  0  0  0  0  0  0  0  0  0  0
    8.9340    0.0282    4.9270 C   0  0  0  0  0  0  0  0  0  0  0  0
    9.6412   -0.3554    6.0625 C   0  0  0  0  0  0  0  0  0  0  0  0
    6.1168    3.9364    3.8607 N   0  0  0  0  0  0  0  0  0  0  0  0
    5.6831    3.6886    2.4782 C   0  0  0  0  0  0  0  0  0  0  0  0
    4.3794    2.9069    2.4885 C   0  0  0  0  0  0  0  0  0  0  0  0
    3.1724    3.5978    2.5023 C   0  0  0  0  0  0  0  0  0  0  0  0
    1.9825    2.8774    2.5113 C   0  0  0  0  0  0  0  0  0  0  0  0
    0.7615    3.5615    2.5249 N   0  0  0  0  0  0  0  0  0  0  0  0
   -0.2830    3.3401    3.7565 S   0  0  0  0  0  0  0  0  0  0  0  0
   -1.5436    3.9566    3.4334 O   0  0  0  0  0  0  0  0  0  0  0  0
   -0.4795    1.9299    3.9717 O   0  0  0  0  0  0  0  0  0  0  0  0
    0.3627    4.0630    5.2017 C   0  0  0  0  0  0  0  0  0  0  0  0
    0.0682    5.3912    5.4924 C   0  0  0  0  0  0  0  0  0  0  0  0
    0.5810    5.9759    6.6458 C   0  0  0  0  0  0  0  0  0  0  0  0
    1.3837    5.2211    7.4945 C   0  0  0  0  0  0  0  0  0  0  0  0
    2.0451    5.9598    8.9733 Cl  0  0  0  0  0  0  0  0  0  0  0  0
    1.6763    3.8930    7.2018 C   0  0  0  0  0  0  0  0  0  0  0  0
    1.1653    3.3060    6.0490 C   0  0  0  0  0  0  0  0  0  0  0  0
    1.9858    1.4868    2.5068 C   0  0  0  0  0  0  0  0  0  0  0  0
    3.2044    0.8172    2.4929 C   0  0  0  0  0  0  0  0  0  0  0  0
    4.4073    1.5164    2.4834 C   0  0  0  0  0  0  0  0  0  0  0  0
    8.8498    2.2391    7.9437 H   0  0  0  0  0  0  0  0  0  0  0  0
    7.2234    1.5296    3.0459 H   0  0  0  0  0  0  0  0  0  0  0  0
    8.9502   -0.5613    4.1194 H   0  0  0  0  0  0  0  0  0  0  0  0
   10.1641   -1.2078    6.0716 H   0  0  0  0  0  0  0  0  0  0  0  0
    5.8191    4.7635    4.3375 H   0  0  0  0  0  0  0  0  0  0  0  0
    6.3843    3.1611    1.9984 H   0  0  0  0  0  0  0  0  0  0  0  0
    5.5447    4.5616    2.0107 H   0  0  0  0  0  0  0  0  0  0  0  0
    3.1601    4.5977    2.5056 H   0  0  0  0  0  0  0  0  0  0  0  0
    0.5300    4.1861    1.7790 H   0  0  0  0  0  0  0  0  0  0  0  0
   -0.5100    5.9237    4.8744 H   0  0  0  0  0  0  0  0  0  0  0  0
    0.3744    6.9299    6.8627 H   0  0  0  0  0  0  0  0  0  0  0  0
    2.2540    3.3603    7.8203 H   0  0  0  0  0  0  0  0  0  0  0  0
    1.3722    2.3520    5.8320 H   0  0  0  0  0  0  0  0  0  0  0  0
    1.1257    0.9766    2.5134 H   0  0  0  0  0  0  0  0  0  0  0  0
    3.2165   -0.1827    2.4898 H   0  0  0  0  0  0  0  0  0  0  0  0
    5.2790    1.0264    2.4730 H   0  0  0  0  0  0  0  0  0  0  0  0
  1  2  1  0  0  0  0
  2  3  1  0  0  0  0
  3  4  2  0  0  0  0
  4  5  1  0  0  0  0
  5  6  2  0  0  0  0
  6  7  1  0  0  0  0
  7  8  1  0  0  0  0
  8  4  1  0  0  0  0
  8  9  2  0  0  0  0
  9 10  1  0  0  0  0
 10  2  2  0  0  0  0
  6 11  1  0  0  0  0
 11 12  1  0  0  0  0
 12 13  1  0  0  0  0
 13 14  1  0  0  0  0
 14 15  2  0  0  0  0
 15 16  1  0  0  0  0
 16 17  1  0  0  0  0
 17 18  2  0  0  0  0
 17 19  2  0  0  0  0
 17 20  1  0  0  0  0
 20 21  1  0  0  0  0
 21 22  2  0  0  0  0
 22 23  1  0  0  0  0
 23 24  1  0  0  0  0
 23 25  2  0  0  0  0
 25 26  1  0  0  0  0
 26 20  2  0  0  0  0
 15 27  1  0  0  0  0
 27 28  2  0  0  0  0
 28 29  1  0  0  0  0
 29 13  2  0  0  0  0
  3 30  1  0  0  0  0
  7 31  1  0  0  0  0
  9 32  1  0  0  0  0
 10 33  1  0  0  0  0
 11 34  1  0  0  0  0
 12 35  1  0  0  0  0
 12 36  1  0  0  0  0
 14 37  1  0  0  0  0
 16 38  1  0  0  0  0
 21 39  1  0  0  0  0
 22 40  1  0  0  0  0
 25 41  1  0  0  0  0
 26 42  1  0  0  0  0
 27 43  1  0  0  0  0
 28 44  1  0  0  0  0
 29 45  1  0  0  0  0
M  END
>  <result-rank>
73

>  <similarity>
0.897

>  <query-name>


>  <query-smiles>
S(=O)(=O)(Nc1cc2c(NN=C2C=3Nc4c(ccc(c4)C)C3)cc1)c5cc(F)ccc5

>  <source>
REALspace_2019-12

>  <similarity-descriptor>
0.985;0.811;0.962;0.464;0.938;1.000;1.000;0.962;0.0

>  <similarity-descriptor-smiles>
c1ccc(cc1)Cl;c1cNC=N1;Brc1ccccc1;NC;c1ccccc1;S(=O)=O;N;Brc1ccccc1;

>  <reaction-name>
s_27c

>  <reagent1-name>
5343226

>  <reagent1-smiles>
[R1*]NCc1cc(NS(=O)(=O)c2ccc(Cl)cc2)ccc1

>  <reagent2-name>
17322582

>  <reagent2-smiles>
[R1*]C1=Nc2c(N1)ccc(Br)c2

$$$$
s_22____818092____59626
          04022017313D 1   1.00000     0.00000     0
            
 62 66  0  0  0  0            999 V2000
   -0.1350    3.5946    3.9005 S   0  0  0  0  0  0  0  0  0  0  0  0
   -1.2321    4.5122    3.7328 O   0  0  0  0  0  0  0  0  0  0  0  0
   -0.6480    2.2819    4.1958 O   0  0  0  0  0  0  0  0  0  0  0  0
    0.7417    3.5392    2.5275 N   0  0  0  0  0  0  0  0  0  0  0  0
    1.9769    2.8800    2.5117 C   0  0  0  0  0  0  0  0  0  0  0  0
    3.1722    3.5930    2.5023 C   0  0  0  0  0  0  0  0  0  0  0  0
    4.3872    2.9146    2.4871 C   0  0  0  0  0  0  0  0  0  0  0  0
    4.4074    1.5237    2.4807 C   0  0  0  0  0  0  0  0  0  0  0  0
    3.2062    0.8215    2.4897 C   0  0  0  0  0  0  0  0  0  0  0  0
    1.9856    1.4890    2.5053 C   0  0  0  0  0  0  0  0  0  0  0  0
    3.2280   -0.6288    2.4827 C   0  0  0  0  0  0  0  0  0  0  0  0
    3.4958   -1.2200    1.4734 O   0  0  0  0  0  0  0  0  0  0  0  0
    2.9365   -1.3395    3.6547 N   0  0  0  0  0  0  0  0  0  0  0  0
    2.4196   -2.7142    3.6440 C   0  0  0  0  0  0  0  0  0  0  0  0
    3.0667   -3.5107    4.7648 C   0  0  0  0  0  0  0  0  0  0  0  0
    3.9181   -2.9561    5.6109 C   0  0  0  0  0  0  0  0  0  0  0  0
    4.4950   -3.7930    6.6447 C   0  0  0  0  0  0  0  0  0  0  0  0
    3.8676   -4.9139    7.2360 C   0  0  0  0  0  0  0  0  0  0  0  0
    4.7891   -5.3811    8.1492 C   0  0  0  0  0  0  0  0  0  0  0  0
    5.9077   -4.5989    8.1239 N   0  0  0  0  0  0  0  0  0  0  0  0
    5.7299   -3.6159    7.1948 C   0  0  0  0  0  0  0  0  0  0  0  0
    4.4986   -6.4988    8.9246 C   0  0  0  0  0  0  0  0  0  0  0  0
    3.2826   -7.1622    8.7956 C   0  0  0  0  0  0  0  0  0  0  0  0
    2.3476   -6.6962    7.8767 C   0  0  0  0  0  0  0  0  0  0  0  0
    2.6514   -5.5773    7.1071 C   0  0  0  0  0  0  0  0  0  0  0  0
    2.9824   -8.3831    9.6494 C   0  0  0  0  0  0  0  0  0  0  0  0
    4.3388   -1.4970    5.5673 C   0  0  0  0  0  0  0  0  0  0  0  0
    3.1234   -0.7821    4.9938 C   0  0  0  0  0  0  0  0  0  0  0  0
    3.1505    5.1125    2.5107 C   0  0  0  0  0  0  0  0  0  0  0  0
    0.8744    4.1312    5.2118 C   0  0  0  0  0  0  0  0  0  0  0  0
    0.9738    5.4898    5.4928 C   0  0  0  0  0  0  0  0  0  0  0  0
    1.7828    5.9126    6.5420 C   0  0  0  0  0  0  0  0  0  0  0  0
    2.4812    4.9765    7.2972 C   0  0  0  0  0  0  0  0  0  0  0  0
    3.2530    5.3884    8.2992 F   0  0  0  0  0  0  0  0  0  0  0  0
    2.3777    3.6199    7.0109 C   0  0  0  0  0  0  0  0  0  0  0  0
    1.5706    3.1902    5.9629 C   0  0  0  0  0  0  0  0  0  0  0  0
    0.3974    3.9760    1.6964 H   0  0  0  0  0  0  0  0  0  0  0  0
    5.2458    3.4271    2.4808 H   0  0  0  0  0  0  0  0  0  0  0  0
    5.2783    1.0324    2.4696 H   0  0  0  0  0  0  0  0  0  0  0  0
    1.1270    0.9763    2.5117 H   0  0  0  0  0  0  0  0  0  0  0  0
    2.6317   -3.1427    2.7657 H   0  0  0  0  0  0  0  0  0  0  0  0
    1.4285   -2.6981    3.7763 H   0  0  0  0  0  0  0  0  0  0  0  0
    2.8426   -4.4801    4.8650 H   0  0  0  0  0  0  0  0  0  0  0  0
    6.7213   -4.7254    8.6915 H   0  0  0  0  0  0  0  0  0  0  0  0
    6.3849   -2.8976    6.9604 H   0  0  0  0  0  0  0  0  0  0  0  0
    5.1733   -6.8301    9.5841 H   0  0  0  0  0  0  0  0  0  0  0  0
    1.4679   -7.1598    7.7706 H   0  0  0  0  0  0  0  0  0  0  0  0
    1.9799   -5.2421    6.4462 H   0  0  0  0  0  0  0  0  0  0  0  0
    2.0712   -8.7297    9.4266 H   0  0  0  0  0  0  0  0  0  0  0  0
    3.6628   -9.0929    9.4671 H   0  0  0  0  0  0  0  0  0  0  0  0
    3.0155   -8.1300   10.6163 H   0  0  0  0  0  0  0  0  0  0  0  0
    5.1357   -1.3741    4.9759 H   0  0  0  0  0  0  0  0  0  0  0  0
    4.5495   -1.1600    6.4849 H   0  0  0  0  0  0  0  0  0  0  0  0
    2.3173   -0.9549    5.5597 H   0  0  0  0  0  0  0  0  0  0  0  0
    3.2896    0.2026    4.9422 H   0  0  0  0  0  0  0  0  0  0  0  0
    4.0884    5.4593    2.5022 H   0  0  0  0  0  0  0  0  0  0  0  0
    2.6653    5.4434    1.7013 H   0  0  0  0  0  0  0  0  0  0  0  0
    2.6834    5.4346    3.3342 H   0  0  0  0  0  0  0  0  0  0  0  0
    0.4680    6.1565    4.9454 H   0  0  0  0  0  0  0  0  0  0  0  0
    1.8622    6.8869    6.7528 H   0  0  0  0  0  0  0  0  0  0  0  0
    2.8835    2.9532    7.5583 H   0  0  0  0  0  0  0  0  0  0  0  0
    1.4918    2.2159    5.7519 H   0  0  0  0  0  0  0  0  0  0  0  0
  1  2  2  0  0  0  0
  1  3  2  0  0  0  0
  1  4  1  0  0  0  0
  4  5  1  0  0  0  0
  5  6  1  0  0  0  0
  6  7  2  0  0  0  0
  7  8  1  0  0  0  0
  8  9  2  0  0  0  0
  9 10  1  0  0  0  0
 10  5  2  0  0  0  0
  9 11  1  0  0  0  0
 11 12  2  0  0  0  0
 11 13  1  0  0  0  0
 13 14  1  0  0  0  0
 14 15  1  0  0  0  0
 15 16  2  0  0  0  0
 16 17  1  0  0  0  0
 17 18  1  0  0  0  0
 18 19  1  0  0  0  0
 19 20  1  0  0  0  0
 20 21  1  0  0  0  0
 17 21  2  0  0  0  0
 19 22  2  0  0  0  0
 22 23  1  0  0  0  0
 23 24  2  0  0  0  0
 24 25  1  0  0  0  0
 25 18  2  0  0  0  0
 23 26  1  0  0  0  0
 16 27  1  0  0  0  0
 27 28  1  0  0  0  0
 28 13  1  0  0  0  0
  6 29  1  0  0  0  0
  1 30  1  0  0  0  0
 30 31  1  0  0  0  0
 31 32  2  0  0  0  0
 32 33  1  0  0  0  0
 33 34  1  0  0  0  0
 33 35  2  0  0  0  0
 35 36  1  0  0  0  0
 36 30  2  0  0  0  0
  4 37  1  0  0  0  0
  7 38  1  0  0  0  0
  8 39  1  0  0  0  0
 10 40  1  0  0  0  0
 14 41  1  0  0  0  0
 14 42  1  0  0  0  0
 15 43  1  0  0  0  0
 20 44  1  0  0  0  0
 21 45  1  0  0  0  0
 22 46  1  0  0  0  0
 24 47  1  0  0  0  0
 25 48  1  0  0  0  0
 26 49  1  0  0  0  0
 26 50  1  0  0  0  0
 26 51  1  0  0  0  0
 27 52  1  0  0  0  0
 27 53  1  0  0  0  0
 28 54  1  0  0  0  0
 28 55  1  0  0  0  0
 29 56  1  0  0  0  0
 29 57  1  0  0  0  0
 29 58  1  0  0  0  0
 31 59  1  0  0  0  0
 32 60  1  0  0  0  0
 35 61  1  0  0  0  0
 36 62  1  0  0  0  0
M  END
>  <result-rank>
74

>  <similarity>
0.897

>  <query-name>


>  <query-smiles>
S(=O)(=O)(Nc1cc2c(NN=C2C=3Nc4c(ccc(c4)C)C3)cc1)c5cc(F)ccc5

>  <source>
REALspace_2019-12

>  <similarity-descriptor>
1.000;1.000;1.000;0.479;0.983;1.000;1.000;1.000;0.100

>  <similarity-descriptor-smiles>
c1ccc(cc1)F;C1=CNcc1;c1ccccc1;C(=O)N1CCC=CC1;c1ccccc1;S(=O)=O;N;C;C

>  <reaction-name>
s_22

>  <reagent1-name>
818092

>  <reagent1-smiles>
[R1*]N1CC=C(C=2c3c(NC2)cc(cc3)C)CC1

>  <reagent2-name>
59626

>  <reagent2-smiles>
[R1*]C(=O)c1cc(NS(=O)(=O)c2ccc(F)cc2)c(cc1)C

$$$$
s_22____803220____59922
          04022017313D 1   1.00000     0.00000     0
            
 47 50  0  0  0  0            999 V2000
    0.4299    3.7470    2.5290 Cl  0  0  0  0  0  0  0  0  0  0  0  0
    1.9828    2.8757    2.5094 C   0  0  0  0  0  0  0  0  0  0  0  0
    3.1792    3.5864    2.5020 C   0  0  0  0  0  0  0  0  0  0  0  0
    3.1519    4.9853    2.5098 N   0  0  0  0  0  0  0  0  0  0  0  0
    3.7994    5.8062    3.7604 S   0  0  0  0  0  0  0  0  0  0  0  0
    3.3497    7.1736    3.7213 O   0  0  0  0  0  0  0  0  0  0  0  0
    3.3847    5.1996    4.9988 O   0  0  0  0  0  0  0  0  0  0  0  0
    5.5348    5.7630    3.6460 C   0  0  0  0  0  0  0  0  0  0  0  0
    6.1929    6.6661    2.8178 C   0  0  0  0  0  0  0  0  0  0  0  0
    7.5802    6.6262    2.7301 C   0  0  0  0  0  0  0  0  0  0  0  0
    8.2930    5.6880    3.4690 C   0  0  0  0  0  0  0  0  0  0  0  0
    9.6198    5.6559    3.3800 F   0  0  0  0  0  0  0  0  0  0  0  0
    7.6290    4.7878    4.2948 C   0  0  0  0  0  0  0  0  0  0  0  0
    6.2418    4.8221    4.3870 C   0  0  0  0  0  0  0  0  0  0  0  0
    4.3966    2.9151    2.4867 C   0  0  0  0  0  0  0  0  0  0  0  0
    4.3941    1.5247    2.4794 C   0  0  0  0  0  0  0  0  0  0  0  0
    3.2015    0.8092    2.4872 C   0  0  0  0  0  0  0  0  0  0  0  0
    1.9858    1.4848    2.5024 C   0  0  0  0  0  0  0  0  0  0  0  0
    5.6615    0.8207    2.4636 C   0  0  0  0  0  0  0  0  0  0  0  0
    6.6568    1.3849    2.1016 O   0  0  0  0  0  0  0  0  0  0  0  0
    5.7228   -0.4887    2.8620 N   0  0  0  0  0  0  0  0  0  0  0  0
    7.0077   -1.2025    2.8460 C   0  0  0  0  0  0  0  0  0  0  0  0
    7.6999   -1.0274    4.1840 C   0  0  0  0  0  0  0  0  0  0  0  0
    7.5673   -1.8726    5.3224 C   0  0  0  0  0  0  0  0  0  0  0  0
    8.3236   -1.4636    6.3989 C   0  0  0  0  0  0  0  0  0  0  0  0
    9.1371   -0.0535    5.8967 S   0  0  0  0  0  0  0  0  0  0  0  0
    8.5322    0.0407    4.3067 C   0  0  0  0  0  0  0  0  0  0  0  0
    8.4058   -2.0728    7.6421 C   0  0  0  0  0  0  0  0  0  0  0  0
    7.6442   -3.2187    7.8151 C   0  0  0  0  0  0  0  0  0  0  0  0
    6.8552   -3.6910    6.7707 C   0  0  0  0  0  0  0  0  0  0  0  0
    6.8225   -3.0247    5.5501 C   0  0  0  0  0  0  0  0  0  0  0  0
    2.7351    5.4816    1.7482 H   0  0  0  0  0  0  0  0  0  0  0  0
    5.6731    7.3380    2.2901 H   0  0  0  0  0  0  0  0  0  0  0  0
    8.0639    7.2703    2.1374 H   0  0  0  0  0  0  0  0  0  0  0  0
    8.1488    4.1160    4.8224 H   0  0  0  0  0  0  0  0  0  0  0  0
    5.7582    4.1775    4.9792 H   0  0  0  0  0  0  0  0  0  0  0  0
    5.2581    3.4228    2.4809 H   0  0  0  0  0  0  0  0  0  0  0  0
    3.2180   -0.1907    2.4817 H   0  0  0  0  0  0  0  0  0  0  0  0
    1.1245    0.9768    2.5084 H   0  0  0  0  0  0  0  0  0  0  0  0
    4.8933   -0.9588    3.1637 H   0  0  0  0  0  0  0  0  0  0  0  0
    7.5865   -0.8308    2.1202 H   0  0  0  0  0  0  0  0  0  0  0  0
    6.8467   -2.1751    2.6788 H   0  0  0  0  0  0  0  0  0  0  0  0
    8.7433    0.7309    3.6146 H   0  0  0  0  0  0  0  0  0  0  0  0
    8.9819   -1.7063    8.3727 H   0  0  0  0  0  0  0  0  0  0  0  0
    7.6620   -3.7048    8.6888 H   0  0  0  0  0  0  0  0  0  0  0  0
    6.3066   -4.5173    6.8989 H   0  0  0  0  0  0  0  0  0  0  0  0
    6.2470   -3.3843    4.8156 H   0  0  0  0  0  0  0  0  0  0  0  0
  1  2  1  0  0  0  0
  2  3  1  0  0  0  0
  3  4  1  0  0  0  0
  4  5  1  0  0  0  0
  5  6  2  0  0  0  0
  5  7  2  0  0  0  0
  5  8  1  0  0  0  0
  8  9  1  0  0  0  0
  9 10  2  0  0  0  0
 10 11  1  0  0  0  0
 11 12  1  0  0  0  0
 11 13  2  0  0  0  0
 13 14  1  0  0  0  0
 14  8  2  0  0  0  0
  3 15  2  0  0  0  0
 15 16  1  0  0  0  0
 16 17  2  0  0  0  0
 17 18  1  0  0  0  0
 18  2  2  0  0  0  0
 16 19  1  0  0  0  0
 19 20  2  0  0  0  0
 19 21  1  0  0  0  0
 21 22  1  0  0  0  0
 22 23  1  0  0  0  0
 23 24  1  0  0  0  0
 24 25  1  0  0  0  0
 25 26  1  0  0  0  0
 26 27  1  0  0  0  0
 23 27  2  0  0  0  0
 25 28  2  0  0  0  0
 28 29  1  0  0  0  0
 29 30  2  0  0  0  0
 30 31  1  0  0  0  0
 31 24  2  0  0  0  0
  4 32  1  0  0  0  0
  9 33  1  0  0  0  0
 10 34  1  0  0  0  0
 13 35  1  0  0  0  0
 14 36  1  0  0  0  0
 15 37  1  0  0  0  0
 17 38  1  0  0  0  0
 18 39  1  0  0  0  0
 21 40  1  0  0  0  0
 22 41  1  0  0  0  0
 22 42  1  0  0  0  0
 27 43  1  0  0  0  0
 28 44  1  0  0  0  0
 29 45  1  0  0  0  0
 30 46  1  0  0  0  0
 31 47  1  0  0  0  0
M  END
>  <result-rank>
75

>  <similarity>
0.896

>  <query-name>


>  <query-smiles>
S(=O)(=O)(Nc1cc2c(NN=C2C=3Nc4c(ccc(c4)C)C3)cc1)c5cc(F)ccc5

>  <source>
REALspace_2019-12

>  <similarity-descriptor>
1.000;0.816;0.953;0.574;0.948;1.000;1.000;0.0;0.0

>  <similarity-descriptor-smiles>
c1ccc(cc1)F;C1=CScc1;c1ccccc1;C(=O)NC;Clc1ccccc1;S(=O)=O;N;;

>  <reaction-name>
s_22

>  <reagent1-name>
803220

>  <reagent1-smiles>
[R1*]NCC=1c2c(SC1)cccc2

>  <reagent2-name>
59922

>  <reagent2-smiles>
[R1*]C(=O)c1cc(NS(=O)(=O)c2ccc(F)cc2)c(Cl)cc1

$$$$
m_275030____14114132____14126682____14145804
          04022017313D 1   1.00000     0.00000     0
            
 64 67  0  0  0  0            999 V2000
    9.1596    0.2154    2.2608 Cl  0  0  0  0  0  0  0  0  0  0  0  0
    7.8362   -0.3769    1.2274 C   0  0  0  0  0  0  0  0  0  0  0  0
    6.7598   -1.0457    1.8005 C   0  0  0  0  0  0  0  0  0  0  0  0
    5.7299   -1.5053    0.9861 C   0  0  0  0  0  0  0  0  0  0  0  0
    5.7878   -1.2919   -0.3874 C   0  0  0  0  0  0  0  0  0  0  0  0
    4.4948   -1.8702   -1.3982 S   0  0  0  0  0  0  0  0  0  0  0  0
    3.9139   -3.0481   -0.8077 O   0  0  0  0  0  0  0  0  0  0  0  0
    5.0127   -2.1927   -2.7025 O   0  0  0  0  0  0  0  0  0  0  0  0
    3.2289   -0.5857   -1.5524 C   0  0  0  0  0  0  0  0  0  0  0  0
    2.6822   -0.2452   -0.1756 C   0  0  0  0  0  0  0  0  0  0  0  0
    1.6541    0.7980   -0.3008 N   0  3  3  0  0  0  0  0  0  0  0  0
    1.0000    1.0000    1.0000 C   0  0  0  0  0  0  0  0  0  0  0  0
    1.8777    1.8777    1.8777 C   0  0  0  0  0  0  0  0  0  0  0  0
    1.9410    3.2560    1.6958 C   0  0  0  0  0  0  0  0  0  0  0  0
    2.7550    4.0292    2.5171 C   0  0  0  0  0  0  0  0  0  0  0  0
    3.5060    3.4245    3.5205 C   0  0  0  0  0  0  0  0  0  0  0  0
    3.4421    2.0467    3.7028 C   0  0  0  0  0  0  0  0  0  0  0  0
    2.6283    1.2734    2.8811 C   0  0  0  0  0  0  0  0  0  0  0  0
    1.1204    3.9166    0.5998 C   0  0  0  0  0  0  0  0  0  0  0  0
   -0.2428    4.1650    1.0904 N   0  0  0  0  0  0  0  0  0  0  0  0
   -0.5422    5.3490    1.7114 C   0  0  0  0  0  0  0  0  0  0  0  0
    0.3084    6.1832    1.8548 O   0  0  0  0  0  0  0  0  0  0  0  0
   -1.8873    5.5941    2.1955 C   0  0  0  0  0  0  0  0  0  0  0  0
   -2.3012    6.7297    2.8263 N   0  0  0  0  0  0  0  0  0  0  0  0
   -3.6231    6.5809    3.1285 C   0  0  0  0  0  0  0  0  0  0  0  0
   -4.0504    5.3513    2.6862 C   0  0  0  0  0  0  0  0  0  0  0  0
   -5.3793    4.9918    2.8949 C   0  0  0  0  0  0  0  0  0  0  0  0
   -6.2880    5.8354    3.5279 C   0  0  0  0  0  0  0  0  0  0  0  0
   -5.8365    7.0767    3.9641 C   0  0  0  0  0  0  0  0  0  0  0  0
   -4.5097    7.4436    3.7644 C   0  0  0  0  0  0  0  0  0  0  0  0
   -7.7452    5.4540    3.7565 C   0  0  0  0  0  0  0  0  0  0  0  0
   -2.9298    4.7211    2.0936 C   0  0  0  0  0  0  0  0  0  0  0  0
    0.6528    0.3825   -1.2936 C   0  0  0  0  0  0  0  0  0  0  0  0
    6.8633   -0.6233   -0.9629 C   0  0  0  0  0  0  0  0  0  0  0  0
    7.8920   -0.1652   -0.1463 C   0  0  0  0  0  0  0  0  0  0  0  0
    2.0810    1.6529   -0.5957 H   0  0  0  0  0  0  0  0  0  0  0  0
    6.7265   -1.1947    2.7888 H   0  0  0  0  0  0  0  0  0  0  0  0
    4.9507   -1.9874    1.3865 H   0  0  0  0  0  0  0  0  0  0  0  0
    2.4859   -0.9180   -2.1333 H   0  0  0  0  0  0  0  0  0  0  0  0
    3.6323    0.2323   -1.9625 H   0  0  0  0  0  0  0  0  0  0  0  0
    2.2788   -1.0632    0.2345 H   0  0  0  0  0  0  0  0  0  0  0  0
    3.4253    0.0871    0.4053 H   0  0  0  0  0  0  0  0  0  0  0  0
    0.8626    0.1151    1.4450 H   0  0  0  0  0  0  0  0  0  0  0  0
    0.1151    1.4450    0.8626 H   0  0  0  0  0  0  0  0  0  0  0  0
    2.8005    5.0196    2.3865 H   0  0  0  0  0  0  0  0  0  0  0  0
    4.0917    3.9803    4.1105 H   0  0  0  0  0  0  0  0  0  0  0  0
    3.9810    1.6123    4.4244 H   0  0  0  0  0  0  0  0  0  0  0  0
    2.5829    0.2830    3.0117 H   0  0  0  0  0  0  0  0  0  0  0  0
    1.5454    4.7844    0.3424 H   0  0  0  0  0  0  0  0  0  0  0  0
    1.0831    3.3143   -0.1976 H   0  0  0  0  0  0  0  0  0  0  0  0
   -0.9517    3.4699    0.9709 H   0  0  0  0  0  0  0  0  0  0  0  0
   -1.7364    7.5292    3.0309 H   0  0  0  0  0  0  0  0  0  0  0  0
   -5.6920    4.0961    2.5790 H   0  0  0  0  0  0  0  0  0  0  0  0
   -6.4657    7.7053    4.4213 H   0  0  0  0  0  0  0  0  0  0  0  0
   -4.1901    8.3366    4.0812 H   0  0  0  0  0  0  0  0  0  0  0  0
   -8.2158    6.2015    4.2253 H   0  0  0  0  0  0  0  0  0  0  0  0
   -8.1868    5.2822    2.8759 H   0  0  0  0  0  0  0  0  0  0  0  0
   -7.7893    4.6280    4.3184 H   0  0  0  0  0  0  0  0  0  0  0  0
   -2.9072    3.8110    1.6799 H   0  0  0  0  0  0  0  0  0  0  0  0
    1.0978    0.2451   -2.1785 H   0  0  0  0  0  0  0  0  0  0  0  0
    0.2260   -0.4725   -0.9988 H   0  0  0  0  0  0  0  0  0  0  0  0
   -0.0466    1.0921   -1.3788 H   0  0  0  0  0  0  0  0  0  0  0  0
    6.8965   -0.4739   -1.9511 H   0  0  0  0  0  0  0  0  0  0  0  0
    8.6716    0.3163   -0.5468 H   0  0  0  0  0  0  0  0  0  0  0  0
  1  2  1  0  0  0  0
  2  3  1  0  0  0  0
  3  4  2  0  0  0  0
  4  5  1  0  0  0  0
  5  6  1  0  0  0  0
  6  7  2  0  0  0  0
  6  8  2  0  0  0  0
  6  9  1  0  0  0  0
  9 10  1  0  0  0  0
 10 11  1  0  0  0  0
 11 12  1  0  0  0  0
 12 13  1  0  0  0  0
 13 14  1  0  0  0  0
 14 15  2  0  0  0  0
 15 16  1  0  0  0  0
 16 17  2  0  0  0  0
 17 18  1  0  0  0  0
 18 13  2  0  0  0  0
 14 19  1  0  0  0  0
 19 20  1  0  0  0  0
 20 21  1  0  0  0  0
 21 22  2  0  0  0  0
 21 23  1  0  0  0  0
 23 24  1  0  0  0  0
 24 25  1  0  0  0  0
 25 26  1  0  0  0  0
 26 27  2  0  0  0  0
 27 28  1  0  0  0  0
 28 29  2  0  0  0  0
 29 30  1  0  0  0  0
 30 25  2  0  0  0  0
 28 31  1  0  0  0  0
 26 32  1  0  0  0  0
 23 32  2  0  0  0  0
 11 33  1  0  0  0  0
  5 34  2  0  0  0  0
 34 35  1  0  0  0  0
 35  2  2  0  0  0  0
 11 36  1  0  0  0  0
  3 37  1  0  0  0  0
  4 38  1  0  0  0  0
  9 39  1  0  0  0  0
  9 40  1  0  0  0  0
 10 41  1  0  0  0  0
 10 42  1  0  0  0  0
 12 43  1  0  0  0  0
 12 44  1  0  0  0  0
 15 45  1  0  0  0  0
 16 46  1  0  0  0  0
 17 47  1  0  0  0  0
 18 48  1  0  0  0  0
 19 49  1  0  0  0  0
 19 50  1  0  0  0  0
 20 51  1  0  0  0  0
 24 52  1  0  0  0  0
 27 53  1  0  0  0  0
 29 54  1  0  0  0  0
 30 55  1  0  0  0  0
 31 56  1  0  0  0  0
 31 57  1  0  0  0  0
 31 58  1  0  0  0  0
 32 59  1  0  0  0  0
 33 60  1  0  0  0  0
 33 61  1  0  0  0  0
 33 62  1  0  0  0  0
 34 63  1  0  0  0  0
 35 64  1  0  0  0  0
M  CHG  1  11   1
M  END
>  <result-rank>
76

>  <similarity>
0.896

>  <query-name>


>  <query-smiles>
S(=O)(=O)(Nc1cc2c(NN=C2C=3Nc4c(ccc(c4)C)C3)cc1)c5cc(F)ccc5

>  <source>
REALspace_2019-12

>  <similarity-descriptor>
0.985;1.000;1.000;0.574;0.940;0.829;0.748;1.000;0.071

>  <similarity-descriptor-smiles>
Clc1ccccc1;C1=CccN1;c1ccccc1;CNC=O;c1ccccc1;S(=O)(=O)CC;[NH+]C;C;C

>  <reaction-name>
m_275030

>  <reagent1-name>
14114132

>  <reagent1-smiles>
[R2*]N(Cc1c(cccc1)CN[R1*])C

>  <reagent2-name>
14126682

>  <reagent2-smiles>
[R1*]C(=O)C=1Nc2c(cc(cc2)C)C1

>  <reagent3-name>
14145804

>  <reagent3-smiles>
[R2*]CCS(=O)(=O)c1ccc(Cl)cc1

$$$$
s_60____90616____5455734
          04022017313D 1   1.00000     0.00000     0
            
 47 51  0  0  0  0            999 V2000
    3.1541    4.7750    2.5015 O   0  0  0  0  0  0  0  0  0  0  0  0
    3.1617    3.5542    2.5011 C   0  0  0  0  0  0  0  0  0  0  0  0
    2.0033    2.8211    2.5106 N   0  0  0  0  0  0  0  0  0  0  0  0
    2.0168    1.4521    2.5105 C   0  0  0  0  0  0  0  0  0  0  0  0
    0.9800    0.5612    2.5127 N   0  0  0  0  0  0  0  0  0  0  0  0
    1.4690   -0.6559    2.5039 C   0  0  0  0  0  0  0  0  0  0  0  0
    2.8275   -0.5660    2.5051 N   0  0  0  0  0  0  0  0  0  0  0  0
    3.1805    0.7630    2.5012 C   0  0  0  0  0  0  0  0  0  0  0  0
    4.3794    1.5239    2.4957 C   0  0  0  0  0  0  0  0  0  0  0  0
    5.4731    0.9825    2.4900 O   0  0  0  0  0  0  0  0  0  0  0  0
    4.3622    2.8944    2.4901 N   0  0  0  0  0  0  0  0  0  0  0  0
    3.7413   -1.7206    2.4951 C   0  0  0  0  0  0  0  0  0  0  0  0
    0.6914   -1.8804    2.5023 C   0  0  0  0  0  0  0  0  0  0  0  0
    0.9714   -2.9568    1.8085 O   0  0  0  0  0  0  0  0  0  0  0  0
    0.0621   -3.8859    2.0343 C   0  0  0  0  0  0  0  0  0  0  0  0
   -0.8726   -3.4105    2.9265 C   0  0  0  0  0  0  0  0  0  0  0  0
   -1.9256   -4.2352    3.3148 C   0  0  0  0  0  0  0  0  0  0  0  0
   -2.0663   -5.5323    2.8267 C   0  0  0  0  0  0  0  0  0  0  0  0
   -1.1142   -5.9980    1.9259 C   0  0  0  0  0  0  0  0  0  0  0  0
   -0.0605   -5.1789    1.5350 C   0  0  0  0  0  0  0  0  0  0  0  0
   -3.2159   -6.4375    3.2497 C   0  0  0  0  0  0  0  0  0  0  0  0
   -0.4452   -2.0967    3.2220 C   0  0  0  0  0  0  0  0  0  0  0  0
    0.7177    3.5348    2.5208 C   0  0  0  0  0  0  0  0  0  0  0  0
    0.2631    3.7805    1.0909 C   0  0  0  0  0  0  0  0  0  0  0  0
    0.6436    4.9483    0.4379 C   0  0  0  0  0  0  0  0  0  0  0  0
    0.2248    5.1694   -0.8700 C   0  0  0  0  0  0  0  0  0  0  0  0
   -0.5673    4.2258   -1.5157 C   0  0  0  0  0  0  0  0  0  0  0  0
   -0.9408    3.0627   -0.8537 C   0  0  0  0  0  0  0  0  0  0  0  0
   -0.5290    2.8302    0.4545 C   0  0  0  0  0  0  0  0  0  0  0  0
    5.2197    3.4089    2.4780 H   0  0  0  0  0  0  0  0  0  0  0  0
    4.6875   -1.3968    2.4983 H   0  0  0  0  0  0  0  0  0  0  0  0
    3.5783   -2.2818    3.3065 H   0  0  0  0  0  0  0  0  0  0  0  0
    3.5788   -2.2671    1.6736 H   0  0  0  0  0  0  0  0  0  0  0  0
   -2.6013   -3.8856    3.9638 H   0  0  0  0  0  0  0  0  0  0  0  0
   -1.1877   -6.9250    1.5582 H   0  0  0  0  0  0  0  0  0  0  0  0
    0.6180   -5.5237    0.8865 H   0  0  0  0  0  0  0  0  0  0  0  0
   -3.1325   -7.3203    2.7874 H   0  0  0  0  0  0  0  0  0  0  0  0
   -3.1846   -6.5754    4.2397 H   0  0  0  0  0  0  0  0  0  0  0  0
   -4.0852   -6.0112    2.9998 H   0  0  0  0  0  0  0  0  0  0  0  0
   -0.8912   -1.4498    3.8405 H   0  0  0  0  0  0  0  0  0  0  0  0
    0.8264    4.4106    2.9911 H   0  0  0  0  0  0  0  0  0  0  0  0
    0.0338    2.9829    2.9978 H   0  0  0  0  0  0  0  0  0  0  0  0
    1.2139    5.6238    0.9053 H   0  0  0  0  0  0  0  0  0  0  0  0
    0.4932    6.0069   -1.3461 H   0  0  0  0  0  0  0  0  0  0  0  0
   -0.8679    4.3845   -2.4562 H   0  0  0  0  0  0  0  0  0  0  0  0
   -1.5105    2.3871   -1.3217 H   0  0  0  0  0  0  0  0  0  0  0  0
   -0.7983    1.9928    0.9302 H   0  0  0  0  0  0  0  0  0  0  0  0
  1  2  2  0  0  0  0
  2  3  1  0  0  0  0
  3  4  1  0  0  0  0
  4  5  1  0  0  0  0
  5  6  2  0  0  0  0
  6  7  1  0  0  0  0
  7  8  1  0  0  0  0
  4  8  2  0  0  0  0
  8  9  1  0  0  0  0
  9 10  2  0  0  0  0
  9 11  1  0  0  0  0
 11  2  1  0  0  0  0
  7 12  1  0  0  0  0
  6 13  1  0  0  0  0
 13 14  1  0  0  0  0
 14 15  1  0  0  0  0
 15 16  1  0  0  0  0
 16 17  2  0  0  0  0
 17 18  1  0  0  0  0
 18 19  2  0  0  0  0
 19 20  1  0  0  0  0
 20 15  2  0  0  0  0
 18 21  1  0  0  0  0
 16 22  1  0  0  0  0
 13 22  2  0  0  0  0
  3 23  1  0  0  0  0
 23 24  1  0  0  0  0
 24 25  1  0  0  0  0
 25 26  2  0  0  0  0
 26 27  1  0  0  0  0
 27 28  2  0  0  0  0
 28 29  1  0  0  0  0
 29 24  2  0  0  0  0
 11 30  1  0  0  0  0
 12 31  1  0  0  0  0
 12 32  1  0  0  0  0
 12 33  1  0  0  0  0
 17 34  1  0  0  0  0
 19 35  1  0  0  0  0
 20 36  1  0  0  0  0
 21 37  1  0  0  0  0
 21 38  1  0  0  0  0
 21 39  1  0  0  0  0
 22 40  1  0  0  0  0
 23 41  1  0  0  0  0
 23 42  1  0  0  0  0
 25 43  1  0  0  0  0
 26 44  1  0  0  0  0
 27 45  1  0  0  0  0
 28 46  1  0  0  0  0
 29 47  1  0  0  0  0
M  END
>  <result-rank>
77

>  <similarity>
0.896

>  <query-name>


>  <query-smiles>
S(=O)(=O)(Nc1cc2c(NN=C2C=3Nc4c(ccc(c4)C)C3)cc1)c5cc(F)ccc5

>  <source>
REALspace_2019-12

>  <similarity-descriptor>
0.918;0.785;1.000;0.871;0.883;0.883;0.883;1.000;0.125

>  <similarity-descriptor-smiles>
Cc1ccccc1;C1=CccO1;c1ccccc1;C1=CNC=N1;O=C1NC(C=CN1)=O;O=C1NC(C=CN1)=O;O=C1NC(C=CN1)=O;C;C

>  <reaction-name>
s_60

>  <reagent1-name>
90616

>  <reagent1-smiles>
[R1*]C1=NC=2N(C(=O)NC(=O)C2N1C)Cc3ccccc3

>  <reagent2-name>
5455734

>  <reagent2-smiles>
[R1*]C=1Oc2c(cc(cc2)C)C1

$$$$
m_270942____8687892____15115194____14067606
          04022017313D 1   1.00000     0.00000     0
            
 61 65  0  0  0  0            999 V2000
   -0.2810    3.3352    3.7573 S   0  0  0  0  0  0  0  0  0  0  0  0
   -1.5443    3.9470    3.4359 O   0  0  0  0  0  0  0  0  0  0  0  0
   -0.4718    1.9241    3.9717 O   0  0  0  0  0  0  0  0  0  0  0  0
    0.7615    3.5615    2.5249 N   0  0  0  0  0  0  0  0  0  0  0  0
    1.9850    2.8822    2.5096 C   0  0  0  0  0  0  0  0  0  0  0  0
    3.1774    3.5986    2.4996 C   0  0  0  0  0  0  0  0  0  0  0  0
    4.3889    2.9151    2.4847 C   0  0  0  0  0  0  0  0  0  0  0  0
    4.3934    1.5238    2.4792 C   0  0  0  0  0  0  0  0  0  0  0  0
    3.2017    0.8073    2.4891 C   0  0  0  0  0  0  0  0  0  0  0  0
    1.9902    1.4907    2.5042 C   0  0  0  0  0  0  0  0  0  0  0  0
    5.6621    0.8203    2.4636 C   0  0  0  0  0  0  0  0  0  0  0  0
    6.7898    1.2480    2.9852 N   0  0  0  0  0  0  0  0  0  0  0  0
    7.7080    0.3331    2.7674 N   0  0  0  0  0  0  0  0  0  0  0  0
    7.2143   -0.6896    2.1142 C   0  0  0  0  0  0  0  0  0  0  0  0
    5.9037   -0.3975    1.9094 N   0  0  0  0  0  0  0  0  0  0  0  0
    4.9253   -1.2464    1.2130 C   0  0  0  0  0  0  0  0  0  0  0  0
    7.8976   -1.8462    1.7143 N   0  0  0  0  0  0  0  0  0  0  0  0
    9.2843   -1.8082    1.5189 C   0  0  0  0  0  0  0  0  0  0  0  0
    9.9534   -0.8308    0.9602 N   0  0  0  0  0  0  0  0  0  0  0  0
   11.2308   -1.1223    0.9375 N   0  0  0  0  0  0  0  0  0  0  0  0
   11.4129   -2.3445    1.5081 C   0  0  0  0  0  0  0  0  0  0  0  0
   12.6812   -3.0265    1.6791 C   0  0  0  0  0  0  0  0  0  0  0  0
   13.1393   -3.8728    0.6747 C   0  0  0  0  0  0  0  0  0  0  0  0
   14.3541   -4.5344    0.8229 C   0  0  0  0  0  0  0  0  0  0  0  0
   15.0960   -4.3385    1.9827 C   0  0  0  0  0  0  0  0  0  0  0  0
   16.2588   -4.9649    2.1367 F   0  0  0  0  0  0  0  0  0  0  0  0
   14.6379   -3.4928    2.9870 C   0  0  0  0  0  0  0  0  0  0  0  0
   13.4238   -2.8312    2.8394 C   0  0  0  0  0  0  0  0  0  0  0  0
   10.1970   -2.8179    1.8912 C   0  0  0  0  0  0  0  0  0  0  0  0
   12.2932   -0.2667    0.3899 C   0  0  0  0  0  0  0  0  0  0  0  0
    0.3631    4.0594    5.2021 C   0  0  0  0  0  0  0  0  0  0  0  0
    0.0691    5.3851    5.5018 C   0  0  0  0  0  0  0  0  0  0  0  0
    0.5829    5.9665    6.6565 C   0  0  0  0  0  0  0  0  0  0  0  0
    1.3889    5.2080    7.4989 C   0  0  0  0  0  0  0  0  0  0  0  0
    1.6829    3.8821    7.1982 C   0  0  0  0  0  0  0  0  0  0  0  0
    1.1691    3.3003    6.0445 C   0  0  0  0  0  0  0  0  0  0  0  0
    1.9537    5.8387    8.7610 C   0  0  0  0  0  0  0  0  0  0  0  0
    0.5269    4.1857    1.7797 H   0  0  0  0  0  0  0  0  0  0  0  0
    3.1638    4.5985    2.5030 H   0  0  0  0  0  0  0  0  0  0  0  0
    5.2515    3.4208    2.4781 H   0  0  0  0  0  0  0  0  0  0  0  0
    3.2155   -0.1926    2.4853 H   0  0  0  0  0  0  0  0  0  0  0  0
    1.1277    0.9848    2.5111 H   0  0  0  0  0  0  0  0  0  0  0  0
    4.0351   -0.7911    1.2048 H   0  0  0  0  0  0  0  0  0  0  0  0
    5.2287   -1.4024    0.2730 H   0  0  0  0  0  0  0  0  0  0  0  0
    4.8470   -2.1230    1.6878 H   0  0  0  0  0  0  0  0  0  0  0  0
    7.3953   -2.6985    1.5686 H   0  0  0  0  0  0  0  0  0  0  0  0
   12.5954   -4.0056   -0.1539 H   0  0  0  0  0  0  0  0  0  0  0  0
   14.6897   -5.1433    0.1043 H   0  0  0  0  0  0  0  0  0  0  0  0
   15.1818   -3.3604    3.8157 H   0  0  0  0  0  0  0  0  0  0  0  0
   13.0884   -2.2224    3.5584 H   0  0  0  0  0  0  0  0  0  0  0  0
    9.9944   -3.6893    2.3381 H   0  0  0  0  0  0  0  0  0  0  0  0
   13.1767   -0.7228    0.4966 H   0  0  0  0  0  0  0  0  0  0  0  0
   12.1195   -0.0996   -0.5806 H   0  0  0  0  0  0  0  0  0  0  0  0
   12.3061    0.6042    0.8810 H   0  0  0  0  0  0  0  0  0  0  0  0
   -0.5113    5.9201    4.8878 H   0  0  0  0  0  0  0  0  0  0  0  0
    0.3752    6.9191    6.8785 H   0  0  0  0  0  0  0  0  0  0  0  0
    2.2639    3.3473    7.8117 H   0  0  0  0  0  0  0  0  0  0  0  0
    1.3764    2.3474    5.8229 H   0  0  0  0  0  0  0  0  0  0  0  0
    2.5071    5.1653    9.2512 H   0  0  0  0  0  0  0  0  0  0  0  0
    2.5233    6.6231    8.5155 H   0  0  0  0  0  0  0  0  0  0  0  0
    1.2024    6.1426    9.3467 H   0  0  0  0  0  0  0  0  0  0  0  0
  1  2  2  0  0  0  0
  1  3  2  0  0  0  0
  1  4  1  0  0  0  0
  4  5  1  0  0  0  0
  5  6  1  0  0  0  0
  6  7  2  0  0  0  0
  7  8  1  0  0  0  0
  8  9  2  0  0  0  0
  9 10  1  0  0  0  0
 10  5  2  0  0  0  0
  8 11  1  0  0  0  0
 11 12  2  0  0  0  0
 12 13  1  0  0  0  0
 13 14  2  0  0  0  0
 14 15  1  0  0  0  0
 15 11  1  0  0  0  0
 15 16  1  0  0  0  0
 14 17  1  0  0  0  0
 17 18  1  0  0  0  0
 18 19  2  0  0  0  0
 19 20  1  0  0  0  0
 20 21  1  0  0  0  0
 21 22  1  0  0  0  0
 22 23  1  0  0  0  0
 23 24  2  0  0  0  0
 24 25  1  0  0  0  0
 25 26  1  0  0  0  0
 25 27  2  0  0  0  0
 27 28  1  0  0  0  0
 28 22  2  0  0  0  0
 21 29  2  0  0  0  0
 29 18  1  0  0  0  0
 20 30  1  0  0  0  0
  1 31  1  0  0  0  0
 31 32  1  0  0  0  0
 32 33  2  0  0  0  0
 33 34  1  0  0  0  0
 34 35  2  0  0  0  0
 35 36  1  0  0  0  0
 36 31  2  0  0  0  0
 34 37  1  0  0  0  0
  4 38  1  0  0  0  0
  6 39  1  0  0  0  0
  7 40  1  0  0  0  0
  9 41  1  0  0  0  0
 10 42  1  0  0  0  0
 16 43  1  0  0  0  0
 16 44  1  0  0  0  0
 16 45  1  0  0  0  0
 17 46  1  0  0  0  0
 23 47  1  0  0  0  0
 24 48  1  0  0  0  0
 27 49  1  0  0  0  0
 28 50  1  0  0  0  0
 29 51  1  0  0  0  0
 30 52  1  0  0  0  0
 30 53  1  0  0  0  0
 30 54  1  0  0  0  0
 32 55  1  0  0  0  0
 33 56  1  0  0  0  0
 35 57  1  0  0  0  0
 36 58  1  0  0  0  0
 37 59  1  0  0  0  0
 37 60  1  0  0  0  0
 37 61  1  0  0  0  0
M  END
>  <result-rank>
78

>  <similarity>
0.896

>  <query-name>


>  <query-smiles>
S(=O)(=O)(Nc1cc2c(NN=C2C=3Nc4c(ccc(c4)C)C3)cc1)c5cc(F)ccc5

>  <source>
REALspace_2019-12

>  <similarity-descriptor>
0.982;0.826;0.935;0.737;0.938;1.000;1.000;0.935;0.273

>  <similarity-descriptor-smiles>
c1ccccc1;NC=1C=CNN1;c1ccc(cc1)F;C=1NC=NN1;c1ccccc1;S(=O)=O;N;c1ccc(cc1)F;C.C.C

>  <reaction-name>
m_270942

>  <reagent1-name>
8687892

>  <reagent1-smiles>
[R3*]=C([R2*])N([R1*])C

>  <reagent2-name>
15115194

>  <reagent2-smiles>
[R2*]NC1=NN(C(c2ccc(F)cc2)=C1)C

>  <reagent3-name>
14067606

>  <reagent3-smiles>
[R3*]=NN=C([R1*])c1ccc(NS(=O)(=O)c2ccc(cc2)C)cc1

$$$$
s_271570____11829988____13286704
          04022017313D 1   1.00000     0.00000     0
            
 52 56  0  0  0  0            999 V2000
    6.6338    3.4353    1.2502 S   0  0  0  0  0  0  0  0  0  0  0  0
    7.8799    4.0761    1.5820 O   0  0  0  0  0  0  0  0  0  0  0  0
    6.8607    2.0308    1.0274 O   0  0  0  0  0  0  0  0  0  0  0  0
    5.5801    3.6272    2.4789 N   0  0  0  0  0  0  0  0  0  0  0  0
    4.3737    2.9176    2.4835 C   0  0  0  0  0  0  0  0  0  0  0  0
    3.1433    3.5664    2.4932 C   0  0  0  0  0  0  0  0  0  0  0  0
    2.0017    2.8611    2.4979 N   0  0  0  0  0  0  0  0  0  0  0  0
    1.9994    1.5191    2.4940 C   0  0  0  0  0  0  0  0  0  0  0  0
    3.2043    0.8207    2.4847 C   0  0  0  0  0  0  0  0  0  0  0  0
    3.2281   -0.6335    2.4827 C   0  0  0  0  0  0  0  0  0  0  0  0
    4.2669   -1.3556    3.0651 C   0  0  0  0  0  0  0  0  0  0  0  0
    4.2786   -2.6981    3.0588 N   0  0  0  0  0  0  0  0  0  0  0  0
    3.2958   -3.4183    2.4945 C   0  0  0  0  0  0  0  0  0  0  0  0
    3.1248   -4.7698    2.3879 N   0  0  0  0  0  0  0  0  0  0  0  0
    1.9556   -5.0129    1.7298 C   0  0  0  0  0  0  0  0  0  0  0  0
    1.3996   -3.8056    1.4251 C   0  0  0  0  0  0  0  0  0  0  0  0
    2.2353   -2.7681    1.8989 C   0  0  0  0  0  0  0  0  0  0  0  0
    2.2089   -1.3766    1.8976 C   0  0  0  0  0  0  0  0  0  0  0  0
    0.0840   -3.6105    0.6876 C   0  0  0  0  0  0  0  0  0  0  0  0
    0.3638   -3.2930   -0.7726 C   0  0  0  0  0  0  0  0  0  0  0  0
    0.4625   -4.3285   -1.6962 C   0  0  0  0  0  0  0  0  0  0  0  0
    0.7195   -4.0337   -3.0312 C   0  0  0  0  0  0  0  0  0  0  0  0
    0.8744   -2.7114   -3.4341 C   0  0  0  0  0  0  0  0  0  0  0  0
    0.7733   -1.6852   -2.5028 C   0  0  0  0  0  0  0  0  0  0  0  0
    0.5173   -1.9670   -1.1649 C   0  0  0  0  0  0  0  0  0  0  0  0
    4.4026    1.5272    2.4796 C   0  0  0  0  0  0  0  0  0  0  0  0
    5.9788    4.1530   -0.1929 C   0  0  0  0  0  0  0  0  0  0  0  0
    6.2413    5.4881   -0.4825 C   0  0  0  0  0  0  0  0  0  0  0  0
    5.7115    6.0495   -1.6400 C   0  0  0  0  0  0  0  0  0  0  0  0
    4.9273    5.2855   -2.4979 C   0  0  0  0  0  0  0  0  0  0  0  0
    4.6703    3.9517   -2.1986 C   0  0  0  0  0  0  0  0  0  0  0  0
    5.1951    3.3802   -1.0442 C   0  0  0  0  0  0  0  0  0  0  0  0
    5.7955    4.2519    3.2294 H   0  0  0  0  0  0  0  0  0  0  0  0
    3.1092    4.5658    2.4968 H   0  0  0  0  0  0  0  0  0  0  0  0
    1.1326    1.0206    2.4977 H   0  0  0  0  0  0  0  0  0  0  0  0
    5.0216   -0.8627    3.4980 H   0  0  0  0  0  0  0  0  0  0  0  0
    3.7534   -5.4657    2.7351 H   0  0  0  0  0  0  0  0  0  0  0  0
    1.5756   -5.9116    1.5109 H   0  0  0  0  0  0  0  0  0  0  0  0
    1.4415   -0.9016    1.4670 H   0  0  0  0  0  0  0  0  0  0  0  0
   -0.4596   -4.4476    0.7485 H   0  0  0  0  0  0  0  0  0  0  0  0
   -0.4215   -2.8539    1.1023 H   0  0  0  0  0  0  0  0  0  0  0  0
    0.3495   -5.2777   -1.4027 H   0  0  0  0  0  0  0  0  0  0  0  0
    0.7928   -4.7724   -3.7012 H   0  0  0  0  0  0  0  0  0  0  0  0
    1.0586   -2.4994   -4.3939 H   0  0  0  0  0  0  0  0  0  0  0  0
    0.8855   -0.7361   -2.7969 H   0  0  0  0  0  0  0  0  0  0  0  0
    0.4446   -1.2279   -0.4953 H   0  0  0  0  0  0  0  0  0  0  0  0
    5.2759    1.0402    2.4732 H   0  0  0  0  0  0  0  0  0  0  0  0
    6.8043    6.0381    0.1344 H   0  0  0  0  0  0  0  0  0  0  0  0
    5.8956    7.0083   -1.8566 H   0  0  0  0  0  0  0  0  0  0  0  0
    4.5490    5.6944   -3.3284 H   0  0  0  0  0  0  0  0  0  0  0  0
    4.1065    3.4021   -2.8151 H   0  0  0  0  0  0  0  0  0  0  0  0
    5.0107    2.4215   -0.8278 H   0  0  0  0  0  0  0  0  0  0  0  0
  1  2  2  0  0  0  0
  1  3  2  0  0  0  0
  1  4  1  0  0  0  0
  4  5  1  0  0  0  0
  5  6  1  0  0  0  0
  6  7  2  0  0  0  0
  7  8  1  0  0  0  0
  8  9  2  0  0  0  0
  9 10  1  0  0  0  0
 10 11  1  0  0  0  0
 11 12  2  0  0  0  0
 12 13  1  0  0  0  0
 13 14  1  0  0  0  0
 14 15  1  0  0  0  0
 15 16  2  0  0  0  0
 16 17  1  0  0  0  0
 17 13  2  0  0  0  0
 17 18  1  0  0  0  0
 18 10  2  0  0  0  0
 16 19  1  0  0  0  0
 19 20  1  0  0  0  0
 20 21  1  0  0  0  0
 21 22  2  0  0  0  0
 22 23  1  0  0  0  0
 23 24  2  0  0  0  0
 24 25  1  0  0  0  0
 25 20  2  0  0  0  0
  9 26  1  0  0  0  0
 26  5  2  0  0  0  0
  1 27  1  0  0  0  0
 27 28  1  0  0  0  0
 28 29  2  0  0  0  0
 29 30  1  0  0  0  0
 30 31  2  0  0  0  0
 31 32  1  0  0  0  0
 32 27  2  0  0  0  0
  4 33  1  0  0  0  0
  6 34  1  0  0  0  0
  8 35  1  0  0  0  0
 11 36  1  0  0  0  0
 14 37  1  0  0  0  0
 15 38  1  0  0  0  0
 18 39  1  0  0  0  0
 19 40  1  0  0  0  0
 19 41  1  0  0  0  0
 21 42  1  0  0  0  0
 22 43  1  0  0  0  0
 23 44  1  0  0  0  0
 24 45  1  0  0  0  0
 25 46  1  0  0  0  0
 26 47  1  0  0  0  0
 28 48  1  0  0  0  0
 29 49  1  0  0  0  0
 30 50  1  0  0  0  0
 31 51  1  0  0  0  0
 32 52  1  0  0  0  0
M  END
>  <result-rank>
79

>  <similarity>
0.896

>  <query-name>


>  <query-smiles>
S(=O)(=O)(Nc1cc2c(NN=C2C=3Nc4c(ccc(c4)C)C3)cc1)c5cc(F)ccc5

>  <source>
REALspace_2019-12

>  <similarity-descriptor>
0.967;0.905;0.905;0.716;0.864;1.000;1.000;0.905;0.0

>  <similarity-descriptor-smiles>
c1ccccc1;c1cC(=CN1)C;c1ccccc1;c1cccnc1;c1cccnc1;S(=O)=O;N;c1ccccc1;

>  <reaction-name>
s_271570

>  <reagent1-name>
11829988

>  <reagent1-smiles>
[R1*]c1cncc(NS(=O)(=O)c2ccccc2)c1

>  <reagent2-name>
13286704

>  <reagent2-smiles>
[R1*]c1cnc2NC=C(c2c1)Cc3ccccc3

$$$$
s_2740a____2161826____3308412
          04022017313D 1   1.00000     0.00000     0
            
 50 53  0  0  0  0            999 V2000
   -1.3150    1.0000    2.1865 S   0  0  0  0  0  0  0  0  0  0  0  0
   -1.7950    0.1273    1.1464 O   0  0  0  0  0  0  0  0  0  0  0  0
   -1.7950    0.5357    3.4622 O   0  0  0  0  0  0  0  0  0  0  0  0
    0.3150    1.0000    2.1865 N   0  0  0  0  0  0  0  0  0  0  0  0
    1.0149    1.0000    3.3988 C   0  0  0  0  0  0  0  0  0  0  0  0
    1.3541    2.2145    3.9866 C   0  0  0  0  0  0  0  0  0  0  0  0
    2.0494    2.2144    5.1916 C   0  0  0  0  0  0  0  0  0  0  0  0
    2.3968    1.0097    5.7938 C   0  0  0  0  0  0  0  0  0  0  0  0
    3.0714    1.0099    6.9629 O   0  0  0  0  0  0  0  0  0  0  0  0
    2.0577   -0.2050    5.2061 C   0  0  0  0  0  0  0  0  0  0  0  0
    1.3626   -0.2047    4.0010 C   0  0  0  0  0  0  0  0  0  0  0  0
    1.0000    1.0000    1.0000 C   0  0  0  0  0  0  0  0  0  0  0  0
    0.4000    1.0000   -0.0392 O   0  0  0  0  0  0  0  0  0  0  0  0
    2.5200    1.0000    1.0000 C   0  0  0  0  0  0  0  0  0  0  0  0
    3.0272    1.0000   -0.4344 C   0  0  0  0  0  0  0  0  0  0  0  0
    3.1244   -0.1186   -1.3012 C   0  0  0  0  0  0  0  0  0  0  0  0
    3.6409    0.3851   -2.4718 C   0  0  0  0  0  0  0  0  0  0  0  0
    3.8396    1.7278   -2.3259 N   0  0  0  0  0  0  0  0  0  0  0  0
    3.4669    2.1180   -1.0760 C   0  0  0  0  0  0  0  0  0  0  0  0
    3.8732   -0.4745   -3.5412 C   0  0  0  0  0  0  0  0  0  0  0  0
    3.5924   -1.8336   -3.4485 C   0  0  0  0  0  0  0  0  0  0  0  0
    3.0702   -2.3514   -2.2686 C   0  0  0  0  0  0  0  0  0  0  0  0
    2.8420   -1.4832   -1.2072 C   0  0  0  0  0  0  0  0  0  0  0  0
    2.2736   -2.1048    0.0589 C   0  0  0  0  0  0  0  0  0  0  0  0
   -1.8949    2.6153    1.9016 C   0  0  0  0  0  0  0  0  0  0  0  0
   -2.1257    3.0485    0.6000 C   0  0  0  0  0  0  0  0  0  0  0  0
   -2.5896    4.3427    0.3864 C   0  0  0  0  0  0  0  0  0  0  0  0
   -2.8193    5.1947    1.4616 C   0  0  0  0  0  0  0  0  0  0  0  0
   -2.5846    4.7519    2.7591 C   0  0  0  0  0  0  0  0  0  0  0  0
   -2.1210    3.4599    2.9841 C   0  0  0  0  0  0  0  0  0  0  0  0
    1.1011    3.0770    3.5483 H   0  0  0  0  0  0  0  0  0  0  0  0
    2.2994    3.0804    5.6247 H   0  0  0  0  0  0  0  0  0  0  0  0
    3.3213    0.1439    7.3961 H   0  0  0  0  0  0  0  0  0  0  0  0
    2.3105   -1.0675    5.6446 H   0  0  0  0  0  0  0  0  0  0  0  0
    1.1129   -1.0707    3.5677 H   0  0  0  0  0  0  0  0  0  0  0  0
    2.8533    0.1835    1.4714 H   0  0  0  0  0  0  0  0  0  0  0  0
    2.8533    1.8165    1.4714 H   0  0  0  0  0  0  0  0  0  0  0  0
    4.2046    2.3345   -3.0321 H   0  0  0  0  0  0  0  0  0  0  0  0
    3.5080    3.0445   -0.7020 H   0  0  0  0  0  0  0  0  0  0  0  0
    4.2492   -0.1082   -4.3924 H   0  0  0  0  0  0  0  0  0  0  0  0
    3.7654   -2.4361   -4.2276 H   0  0  0  0  0  0  0  0  0  0  0  0
    2.8635   -3.3263   -2.1854 H   0  0  0  0  0  0  0  0  0  0  0  0
    2.1448   -3.0866   -0.0805 H   0  0  0  0  0  0  0  0  0  0  0  0
    2.9084   -1.9563    0.8172 H   0  0  0  0  0  0  0  0  0  0  0  0
    1.3938   -1.6803    0.2727 H   0  0  0  0  0  0  0  0  0  0  0  0
   -1.9599    2.4366   -0.1735 H   0  0  0  0  0  0  0  0  0  0  0  0
   -2.7590    4.6623   -0.5459 H   0  0  0  0  0  0  0  0  0  0  0  0
   -3.1526    6.1239    1.3020 H   0  0  0  0  0  0  0  0  0  0  0  0
   -2.7496    5.3641    3.5323 H   0  0  0  0  0  0  0  0  0  0  0  0
   -1.9515    3.1406    3.9165 H   0  0  0  0  0  0  0  0  0  0  0  0
  1  2  2  0  0  0  0
  1  3  2  0  0  0  0
  1  4  1  0  0  0  0
  4  5  1  0  0  0  0
  5  6  1  0  0  0  0
  6  7  2  0  0  0  0
  7  8  1  0  0  0  0
  8  9  1  0  0  0  0
  8 10  2  0  0  0  0
 10 11  1  0  0  0  0
 11  5  2  0  0  0  0
  4 12  1  0  0  0  0
 12 13  2  0  0  0  0
 12 14  1  0  0  0  0
 14 15  1  0  0  0  0
 15 16  1  0  0  0  0
 16 17  1  0  0  0  0
 17 18  1  0  0  0  0
 18 19  1  0  0  0  0
 15 19  2  0  0  0  0
 17 20  2  0  0  0  0
 20 21  1  0  0  0  0
 21 22  2  0  0  0  0
 22 23  1  0  0  0  0
 23 16  2  0  0  0  0
 23 24  1  0  0  0  0
  1 25  1  0  0  0  0
 25 26  1  0  0  0  0
 26 27  2  0  0  0  0
 27 28  1  0  0  0  0
 28 29  2  0  0  0  0
 29 30  1  0  0  0  0
 30 25  2  0  0  0  0
  6 31  1  0  0  0  0
  7 32  1  0  0  0  0
  9 33  1  0  0  0  0
 10 34  1  0  0  0  0
 11 35  1  0  0  0  0
 14 36  1  0  0  0  0
 14 37  1  0  0  0  0
 18 38  1  0  0  0  0
 19 39  1  0  0  0  0
 20 40  1  0  0  0  0
 21 41  1  0  0  0  0
 22 42  1  0  0  0  0
 24 43  1  0  0  0  0
 24 44  1  0  0  0  0
 24 45  1  0  0  0  0
 26 46  1  0  0  0  0
 27 47  1  0  0  0  0
 28 48  1  0  0  0  0
 29 49  1  0  0  0  0
 30 50  1  0  0  0  0
M  END
>  <result-rank>
80

>  <similarity>
0.895

>  <query-name>


>  <query-smiles>
S(=O)(=O)(Nc1cc2c(NN=C2C=3Nc4c(ccc(c4)C)C3)cc1)c5cc(F)ccc5

>  <source>
REALspace_2019-12

>  <similarity-descriptor>
0.967;1.000;1.000;0.452;0.928;0.888;0.888;1.000;0.100

>  <similarity-descriptor-smiles>
c1ccccc1;C1=CNcc1;c1ccccc1;C(=O)C;Nc1ccccc1;S(=O)=O;S(=O)=O;C;O

>  <reaction-name>
s_2740a

>  <reagent1-name>
2161826

>  <reagent1-smiles>
[R1*]N(S(=O)(=O)c1ccccc1)c2ccc(O)cc2

>  <reagent2-name>
3308412

>  <reagent2-smiles>
[R1*]C(=O)CC=1c2c(NC1)cccc2C

$$$$
s_22____11678532____59379
          04022017313D 1   1.00000     0.00000     0
            
 55 58  0  0  0  0            999 V2000
    0.1850   -0.4116    0.9985 S   0  0  0  0  0  0  0  0  0  0  0  0
   -1.1907   -0.1712    0.6474 O   0  0  0  0  0  0  0  0  0  0  0  0
    0.7764   -1.3063    0.0375 O   0  0  0  0  0  0  0  0  0  0  0  0
    1.0000    1.0000    1.0000 N   0  0  0  0  0  0  0  0  0  0  0  0
    2.4004    1.0000    1.0000 C   0  0  0  0  0  0  0  0  0  0  0  0
    3.0860    1.6953    0.0095 C   0  0  0  0  0  0  0  0  0  0  0  0
    4.4770    1.6887    0.0201 C   0  0  0  0  0  0  0  0  0  0  0  0
    5.1807    0.9991    1.0016 C   0  0  0  0  0  0  0  0  0  0  0  0
    4.4744    0.3107    1.9824 C   0  0  0  0  0  0  0  0  0  0  0  0
    3.0836    0.3041    1.9916 C   0  0  0  0  0  0  0  0  0  0  0  0
    5.1963    2.4134   -1.0094 C   0  0  0  0  0  0  0  0  0  0  0  0
    4.6603    2.6621   -2.0539 O   0  0  0  0  0  0  0  0  0  0  0  0
    6.4878    2.8142   -0.7897 N   0  0  0  0  0  0  0  0  0  0  0  0
    7.1825    3.5142   -1.7840 C   0  0  0  0  0  0  0  0  0  0  0  0
    7.9747    2.9447   -2.8046 C   0  0  0  0  0  0  0  0  0  0  0  0
    8.4598    3.9977   -3.5421 C   0  0  0  0  0  0  0  0  0  0  0  0
    7.9911    5.1611   -3.0062 N   0  0  0  0  0  0  0  0  0  0  0  0
    7.2092    4.8673   -1.9321 C   0  0  0  0  0  0  0  0  0  0  0  0
    6.4905    5.8730   -1.0480 C   0  0  0  0  0  0  0  0  0  0  0  0
    9.2908    3.7546   -4.6310 C   0  0  0  0  0  0  0  0  0  0  0  0
    9.6400    2.4568   -4.9900 C   0  0  0  0  0  0  0  0  0  0  0  0
    9.1497    1.3893   -4.2447 C   0  0  0  0  0  0  0  0  0  0  0  0
    8.3207    1.6439   -3.1569 C   0  0  0  0  0  0  0  0  0  0  0  0
    0.2627   -1.1277    2.5820 C   0  0  0  0  0  0  0  0  0  0  0  0
   -0.6227   -0.7109    3.5704 C   0  0  0  0  0  0  0  0  0  0  0  0
   -0.5553   -1.2866    4.8345 C   0  0  0  0  0  0  0  0  0  0  0  0
    0.3925   -2.2701    5.0965 C   0  0  0  0  0  0  0  0  0  0  0  0
    0.4519   -2.8246    6.3262 O   0  0  0  0  0  0  0  0  0  0  0  0
   -0.5255   -2.4942    7.3019 C   0  0  0  0  0  0  0  0  0  0  0  0
   -0.2320   -3.2484    8.5886 C   0  0  0  0  0  0  0  0  0  0  0  0
    1.2749   -2.6822    4.1042 C   0  0  0  0  0  0  0  0  0  0  0  0
    1.2131   -2.1104    2.8380 C   0  0  0  0  0  0  0  0  0  0  0  0
    0.5000    1.8660    1.0009 H   0  0  0  0  0  0  0  0  0  0  0  0
    2.5864    2.1927   -0.6997 H   0  0  0  0  0  0  0  0  0  0  0  0
    6.1807    0.9982    1.0023 H   0  0  0  0  0  0  0  0  0  0  0  0
    4.9741   -0.1869    2.6914 H   0  0  0  0  0  0  0  0  0  0  0  0
    2.5828   -0.1932    2.7000 H   0  0  0  0  0  0  0  0  0  0  0  0
    6.9344    2.6070    0.0807 H   0  0  0  0  0  0  0  0  0  0  0  0
    8.1896    6.0800   -3.3471 H   0  0  0  0  0  0  0  0  0  0  0  0
    5.9872    5.3882   -0.3327 H   0  0  0  0  0  0  0  0  0  0  0  0
    7.1599    6.4856   -0.6278 H   0  0  0  0  0  0  0  0  0  0  0  0
    5.8515    6.4069   -1.6017 H   0  0  0  0  0  0  0  0  0  0  0  0
    9.6423    4.5244   -5.1638 H   0  0  0  0  0  0  0  0  0  0  0  0
   10.2370    2.2930   -5.7753 H   0  0  0  0  0  0  0  0  0  0  0  0
    9.3905    0.4498   -4.4882 H   0  0  0  0  0  0  0  0  0  0  0  0
    7.9674    0.8786   -2.6188 H   0  0  0  0  0  0  0  0  0  0  0  0
   -1.3017   -0.0035    3.3737 H   0  0  0  0  0  0  0  0  0  0  0  0
   -1.1865   -0.9944    5.5529 H   0  0  0  0  0  0  0  0  0  0  0  0
   -1.4320   -2.7494    6.9654 H   0  0  0  0  0  0  0  0  0  0  0  0
   -0.5005   -1.5104    7.4791 H   0  0  0  0  0  0  0  0  0  0  0  0
   -0.9203   -3.0157    9.2757 H   0  0  0  0  0  0  0  0  0  0  0  0
   -0.2570   -4.2322    8.4115 H   0  0  0  0  0  0  0  0  0  0  0  0
    0.6745   -2.9932    8.9252 H   0  0  0  0  0  0  0  0  0  0  0  0
    1.9538   -3.3895    4.3009 H   0  0  0  0  0  0  0  0  0  0  0  0
    1.8447   -2.4024    2.1198 H   0  0  0  0  0  0  0  0  0  0  0  0
  1  2  2  0  0  0  0
  1  3  2  0  0  0  0
  1  4  1  0  0  0  0
  4  5  1  0  0  0  0
  5  6  1  0  0  0  0
  6  7  2  0  0  0  0
  7  8  1  0  0  0  0
  8  9  2  0  0  0  0
  9 10  1  0  0  0  0
 10  5  2  0  0  0  0
  7 11  1  0  0  0  0
 11 12  2  0  0  0  0
 11 13  1  0  0  0  0
 13 14  1  0  0  0  0
 14 15  1  0  0  0  0
 15 16  1  0  0  0  0
 16 17  1  0  0  0  0
 17 18  1  0  0  0  0
 14 18  2  0  0  0  0
 18 19  1  0  0  0  0
 16 20  2  0  0  0  0
 20 21  1  0  0  0  0
 21 22  2  0  0  0  0
 22 23  1  0  0  0  0
 23 15  2  0  0  0  0
  1 24  1  0  0  0  0
 24 25  1  0  0  0  0
 25 26  2  0  0  0  0
 26 27  1  0  0  0  0
 27 28  1  0  0  0  0
 28 29  1  0  0  0  0
 29 30  1  0  0  0  0
 27 31  2  0  0  0  0
 31 32  1  0  0  0  0
 32 24  2  0  0  0  0
  4 33  1  0  0  0  0
  6 34  1  0  0  0  0
  8 35  1  0  0  0  0
  9 36  1  0  0  0  0
 10 37  1  0  0  0  0
 13 38  1  0  0  0  0
 17 39  1  0  0  0  0
 19 40  1  0  0  0  0
 19 41  1  0  0  0  0
 19 42  1  0  0  0  0
 20 43  1  0  0  0  0
 21 44  1  0  0  0  0
 22 45  1  0  0  0  0
 23 46  1  0  0  0  0
 25 47  1  0  0  0  0
 26 48  1  0  0  0  0
 29 49  1  0  0  0  0
 29 50  1  0  0  0  0
 30 51  1  0  0  0  0
 30 52  1  0  0  0  0
 30 53  1  0  0  0  0
 31 54  1  0  0  0  0
 32 55  1  0  0  0  0
M  END
>  <result-rank>
81

>  <similarity>
0.895

>  <query-name>


>  <query-smiles>
S(=O)(=O)(Nc1cc2c(NN=C2C=3Nc4c(ccc(c4)C)C3)cc1)c5cc(F)ccc5

>  <source>
REALspace_2019-12

>  <similarity-descriptor>
0.984;0.937;0.953;0.603;0.938;1.000;1.000;0.0;0.333

>  <similarity-descriptor-smiles>
c1ccccc1;C1=CNcc1;c1ccccc1;C(=O)N;c1ccccc1;S(=O)=O;N;;C.O.C.C

>  <reaction-name>
s_22

>  <reagent1-name>
11678532

>  <reagent1-smiles>
[R1*]NC=1c2c(NC1C)cccc2

>  <reagent2-name>
59379

>  <reagent2-smiles>
[R1*]C(=O)c1cc(NS(=O)(=O)c2ccc(OCC)cc2)ccc1

$$$$
m_271722____10195452____14936398
          04022017313D 1   1.00000     0.00000     0
            
 52 56  0  0  0  0            999 V2000
    6.0525   -1.2423    3.5491 S   0  0  0  0  0  0  0  0  0  0  0  0
    6.0753   -0.6762    4.8729 O   0  0  0  0  0  0  0  0  0  0  0  0
    5.1103   -2.3306    3.5086 O   0  0  0  0  0  0  0  0  0  0  0  0
    5.6076   -0.0983    2.4766 N   0  0  0  0  0  0  0  0  0  0  0  0
    6.2451    1.1485    2.4780 C   0  0  0  0  0  0  0  0  0  0  0  0
    5.5172    2.3343    2.4891 C   0  0  0  0  0  0  0  0  0  0  0  0
    6.1803    3.5573    2.4905 C   0  0  0  0  0  0  0  0  0  0  0  0
    7.5708    3.5945    2.4791 C   0  0  0  0  0  0  0  0  0  0  0  0
    8.2982    2.4089    2.4678 C   0  0  0  0  0  0  0  0  0  0  0  0
    7.6351    1.1859    2.4672 C   0  0  0  0  0  0  0  0  0  0  0  0
    4.0675    2.2955    2.5001 C   0  0  0  0  0  0  0  0  0  0  0  0
    3.2769    3.3431    2.5096 O   0  0  0  0  0  0  0  0  0  0  0  0
    2.0450    2.8920    2.5156 C   0  0  0  0  0  0  0  0  0  0  0  0
    2.0754    1.5792    2.5111 N   0  0  0  0  0  0  0  0  0  0  0  0
    3.3354    1.2067    2.5006 N   0  0  0  0  0  0  0  0  0  0  0  0
    0.8459    3.7074    2.5274 C   0  0  0  0  0  0  0  0  0  0  0  0
   -0.4333    3.2327    2.5355 N   0  0  0  0  0  0  0  0  0  0  0  0
   -1.2779    4.3043    2.5464 C   0  0  0  0  0  0  0  0  0  0  0  0
   -0.5374    5.4696    2.5447 C   0  0  0  0  0  0  0  0  0  0  0  0
   -1.2056    6.6917    2.5560 C   0  0  0  0  0  0  0  0  0  0  0  0
   -2.5959    6.7404    2.5667 C   0  0  0  0  0  0  0  0  0  0  0  0
   -3.3212    5.5534    2.5672 C   0  0  0  0  0  0  0  0  0  0  0  0
   -2.6680    4.3257    2.5572 C   0  0  0  0  0  0  0  0  0  0  0  0
   -4.7716    5.5644    2.5763 C   0  0  0  0  0  0  0  0  0  0  0  0
   -5.3795    4.5298    2.5753 O   0  0  0  0  0  0  0  0  0  0  0  0
   -5.4179    6.7038    2.5846 O   0  0  0  0  0  0  0  0  0  0  0  0
   -6.8379    6.7146    2.5923 C   0  0  0  0  0  0  0  0  0  0  0  0
   -0.4460    8.0091    2.5561 C   0  0  0  0  0  0  0  0  0  0  0  0
    0.8193    5.0710    2.5330 C   0  0  0  0  0  0  0  0  0  0  0  0
    7.6387   -1.8328    3.1431 C   0  0  0  0  0  0  0  0  0  0  0  0
    8.0093   -2.7870    1.7856 S   0  0  0  0  0  0  0  0  0  0  0  0
    9.6818   -2.9581    2.0681 C   0  0  0  0  0  0  0  0  0  0  0  0
    9.9186   -2.2677    3.2199 C   0  0  0  0  0  0  0  0  0  0  0  0
    8.7981   -1.6368    3.8283 C   0  0  0  0  0  0  0  0  0  0  0  0
    4.8795   -0.2869    1.8176 H   0  0  0  0  0  0  0  0  0  0  0  0
    5.6574    4.4096    2.4998 H   0  0  0  0  0  0  0  0  0  0  0  0
    8.0474    4.4736    2.4789 H   0  0  0  0  0  0  0  0  0  0  0  0
    9.2978    2.4356    2.4600 H   0  0  0  0  0  0  0  0  0  0  0  0
    8.1581    0.3336    2.4591 H   0  0  0  0  0  0  0  0  0  0  0  0
   -0.7039    2.2700    2.5338 H   0  0  0  0  0  0  0  0  0  0  0  0
   -3.0697    7.6210    2.5739 H   0  0  0  0  0  0  0  0  0  0  0  0
   -3.1895    3.4724    2.5578 H   0  0  0  0  0  0  0  0  0  0  0  0
   -7.1640    7.6599    2.5980 H   0  0  0  0  0  0  0  0  0  0  0  0
   -7.1792    6.2492    1.7756 H   0  0  0  0  0  0  0  0  0  0  0  0
   -7.1704    6.2423    3.4086 H   0  0  0  0  0  0  0  0  0  0  0  0
   -1.0962    8.7688    2.5651 H   0  0  0  0  0  0  0  0  0  0  0  0
    0.1355    8.0585    3.3682 H   0  0  0  0  0  0  0  0  0  0  0  0
    0.1222    8.0663    1.7353 H   0  0  0  0  0  0  0  0  0  0  0  0
    1.6140    5.6779    2.5294 H   0  0  0  0  0  0  0  0  0  0  0  0
   10.3452   -3.4566    1.5101 H   0  0  0  0  0  0  0  0  0  0  0  0
   10.8343   -2.2079    3.6172 H   0  0  0  0  0  0  0  0  0  0  0  0
    8.8564   -1.1041    4.6726 H   0  0  0  0  0  0  0  0  0  0  0  0
  1  2  2  0  0  0  0
  1  3  2  0  0  0  0
  1  4  1  0  0  0  0
  4  5  1  0  0  0  0
  5  6  1  0  0  0  0
  6  7  2  0  0  0  0
  7  8  1  0  0  0  0
  8  9  2  0  0  0  0
  9 10  1  0  0  0  0
 10  5  2  0  0  0  0
  6 11  1  0  0  0  0
 11 12  1  0  0  0  0
 12 13  1  0  0  0  0
 13 14  2  0  0  0  0
 14 15  1  0  0  0  0
 11 15  2  0  0  0  0
 13 16  1  0  0  0  0
 16 17  1  0  0  0  0
 17 18  1  0  0  0  0
 18 19  1  0  0  0  0
 19 20  2  0  0  0  0
 20 21  1  0  0  0  0
 21 22  2  0  0  0  0
 22 23  1  0  0  0  0
 23 18  2  0  0  0  0
 22 24  1  0  0  0  0
 24 25  2  0  0  0  0
 24 26  1  0  0  0  0
 26 27  1  0  0  0  0
 20 28  1  0  0  0  0
 19 29  1  0  0  0  0
 16 29  2  0  0  0  0
  1 30  1  0  0  0  0
 30 31  1  0  0  0  0
 31 32  1  0  0  0  0
 32 33  2  0  0  0  0
 33 34  1  0  0  0  0
 30 34  2  0  0  0  0
  4 35  1  0  0  0  0
  7 36  1  0  0  0  0
  8 37  1  0  0  0  0
  9 38  1  0  0  0  0
 10 39  1  0  0  0  0
 17 40  1  0  0  0  0
 21 41  1  0  0  0  0
 23 42  1  0  0  0  0
 27 43  1  0  0  0  0
 27 44  1  0  0  0  0
 27 45  1  0  0  0  0
 28 46  1  0  0  0  0
 28 47  1  0  0  0  0
 28 48  1  0  0  0  0
 29 49  1  0  0  0  0
 32 50  1  0  0  0  0
 33 51  1  0  0  0  0
 34 52  1  0  0  0  0
M  END
>  <result-rank>
82

>  <similarity>
0.895

>  <query-name>


>  <query-smiles>
S(=O)(=O)(Nc1cc2c(NN=C2C=3Nc4c(ccc(c4)C)C3)cc1)c5cc(F)ccc5

>  <source>
REALspace_2019-12

>  <similarity-descriptor>
0.907;1.000;0.948;0.676;0.938;0.999;1.000;1.000;0.273

>  <similarity-descriptor-smiles>
C1=CC=CS1;C1=CccN1;c1ccccc1;C1=NN=CO1;c1ccccc1;S(=O)=O;N;C;C=O.O.C

>  <reaction-name>
m_271722

>  <reagent1-name>
10195452

>  <reagent1-smiles>
[R1*]=NN=C(O[R2*])c1c(NS(=O)(=O)C=2SC=CC2)cccc1

>  <reagent2-name>
14936398

>  <reagent2-smiles>
[R1*]C([R2*])C=1Nc2c(c(cc(c2)C(=O)OC)C)C1

$$$$
m_271722____10195450____10188152
          04022017313D 1   1.00000     0.00000     0
            
 56 60  0  0  0  0            999 V2000
   -0.2810    3.3352    3.7573 S   0  0  0  0  0  0  0  0  0  0  0  0
   -1.5443    3.9470    3.4359 O   0  0  0  0  0  0  0  0  0  0  0  0
   -0.4718    1.9241    3.9717 O   0  0  0  0  0  0  0  0  0  0  0  0
    0.7615    3.5615    2.5249 N   0  0  0  0  0  0  0  0  0  0  0  0
    1.9850    2.8822    2.5096 C   0  0  0  0  0  0  0  0  0  0  0  0
    3.1774    3.5986    2.4996 C   0  0  0  0  0  0  0  0  0  0  0  0
    4.3889    2.9151    2.4847 C   0  0  0  0  0  0  0  0  0  0  0  0
    4.3934    1.5238    2.4792 C   0  0  0  0  0  0  0  0  0  0  0  0
    3.2017    0.8073    2.4891 C   0  0  0  0  0  0  0  0  0  0  0  0
    1.9902    1.4907    2.5042 C   0  0  0  0  0  0  0  0  0  0  0  0
    5.6622    0.8203    2.4636 C   0  0  0  0  0  0  0  0  0  0  0  0
    6.8470    1.3850    2.4539 O   0  0  0  0  0  0  0  0  0  0  0  0
    7.7317    0.4165    2.4431 C   0  0  0  0  0  0  0  0  0  0  0  0
    7.0991   -0.7343    2.4449 N   0  0  0  0  0  0  0  0  0  0  0  0
    5.8093   -0.4834    2.4585 N   0  0  0  0  0  0  0  0  0  0  0  0
    9.1719    0.5867    2.4294 C   0  0  0  0  0  0  0  0  0  0  0  0
    9.8388    1.7705    2.4255 C   0  0  0  0  0  0  0  0  0  0  0  0
   11.1713    1.4982    2.4149 N   0  0  0  0  0  0  0  0  0  0  0  0
   12.1973    2.4510    2.4075 C   0  0  0  0  0  0  0  0  0  0  0  0
   12.6846    2.9153    1.1903 C   0  0  0  0  0  0  0  0  0  0  0  0
   13.7029    3.8614    1.1658 C   0  0  0  0  0  0  0  0  0  0  0  0
   14.2234    4.3314    2.3673 C   0  0  0  0  0  0  0  0  0  0  0  0
   15.1974    5.2371    2.3563 F   0  0  0  0  0  0  0  0  0  0  0  0
   13.7377    3.8678    3.5853 C   0  0  0  0  0  0  0  0  0  0  0  0
   12.7186    2.9215    3.6083 C   0  0  0  0  0  0  0  0  0  0  0  0
   11.3445    0.1484    2.4113 C   0  0  0  0  0  0  0  0  0  0  0  0
   10.1246   -0.4553    2.4200 C   0  0  0  0  0  0  0  0  0  0  0  0
   12.6825   -0.5735    2.4007 C   0  0  0  0  0  0  0  0  0  0  0  0
    9.2084    3.1543    2.4348 C   0  0  0  0  0  0  0  0  0  0  0  0
    0.3631    4.0594    5.2021 C   0  0  0  0  0  0  0  0  0  0  0  0
    0.0690    5.3856    5.5020 C   0  0  0  0  0  0  0  0  0  0  0  0
    0.5905    5.9522    6.6608 C   0  0  0  0  0  0  0  0  0  0  0  0
    1.3977    5.2021    7.5097 C   0  0  0  0  0  0  0  0  0  0  0  0
    1.6863    3.8772    7.2001 C   0  0  0  0  0  0  0  0  0  0  0  0
    1.1700    3.3006    6.0444 C   0  0  0  0  0  0  0  0  0  0  0  0
    0.5269    4.1857    1.7797 H   0  0  0  0  0  0  0  0  0  0  0  0
    3.1638    4.5985    2.5030 H   0  0  0  0  0  0  0  0  0  0  0  0
    5.2515    3.4208    2.4781 H   0  0  0  0  0  0  0  0  0  0  0  0
    3.2155   -0.1926    2.4853 H   0  0  0  0  0  0  0  0  0  0  0  0
    1.1277    0.9848    2.5111 H   0  0  0  0  0  0  0  0  0  0  0  0
   12.3028    2.5687    0.3334 H   0  0  0  0  0  0  0  0  0  0  0  0
   14.0572    4.2004    0.2943 H   0  0  0  0  0  0  0  0  0  0  0  0
   14.1201    4.2139    4.4421 H   0  0  0  0  0  0  0  0  0  0  0  0
   12.3641    2.5827    4.4798 H   0  0  0  0  0  0  0  0  0  0  0  0
    9.9403   -1.4382    2.4198 H   0  0  0  0  0  0  0  0  0  0  0  0
   12.5283   -1.5615    2.4000 H   0  0  0  0  0  0  0  0  0  0  0  0
   13.1940   -0.3154    1.5811 H   0  0  0  0  0  0  0  0  0  0  0  0
   13.2054   -0.3183    3.2140 H   0  0  0  0  0  0  0  0  0  0  0  0
    8.2123    3.0668    2.4417 H   0  0  0  0  0  0  0  0  0  0  0  0
    9.5051    3.6503    3.2509 H   0  0  0  0  0  0  0  0  0  0  0  0
    9.4933    3.6559    1.6179 H   0  0  0  0  0  0  0  0  0  0  0  0
   -0.5106    5.9255    4.8917 H   0  0  0  0  0  0  0  0  0  0  0  0
    0.3837    6.9046    6.8848 H   0  0  0  0  0  0  0  0  0  0  0  0
    1.7699    5.6148    8.3411 H   0  0  0  0  0  0  0  0  0  0  0  0
    2.2665    3.3376    7.8101 H   0  0  0  0  0  0  0  0  0  0  0  0
    1.3771    2.3482    5.8205 H   0  0  0  0  0  0  0  0  0  0  0  0
  1  2  2  0  0  0  0
  1  3  2  0  0  0  0
  1  4  1  0  0  0  0
  4  5  1  0  0  0  0
  5  6  1  0  0  0  0
  6  7  2  0  0  0  0
  7  8  1  0  0  0  0
  8  9  2  0  0  0  0
  9 10  1  0  0  0  0
 10  5  2  0  0  0  0
  8 11  1  0  0  0  0
 11 12  1  0  0  0  0
 12 13  1  0  0  0  0
 13 14  2  0  0  0  0
 14 15  1  0  0  0  0
 11 15  2  0  0  0  0
 13 16  1  0  0  0  0
 16 17  2  0  0  0  0
 17 18  1  0  0  0  0
 18 19  1  0  0  0  0
 19 20  1  0  0  0  0
 20 21  2  0  0  0  0
 21 22  1  0  0  0  0
 22 23  1  0  0  0  0
 22 24  2  0  0  0  0
 24 25  1  0  0  0  0
 25 19  2  0  0  0  0
 18 26  1  0  0  0  0
 26 27  2  0  0  0  0
 27 16  1  0  0  0  0
 26 28  1  0  0  0  0
 17 29  1  0  0  0  0
  1 30  1  0  0  0  0
 30 31  1  0  0  0  0
 31 32  2  0  0  0  0
 32 33  1  0  0  0  0
 33 34  2  0  0  0  0
 34 35  1  0  0  0  0
 35 30  2  0  0  0  0
  4 36  1  0  0  0  0
  6 37  1  0  0  0  0
  7 38  1  0  0  0  0
  9 39  1  0  0  0  0
 10 40  1  0  0  0  0
 20 41  1  0  0  0  0
 21 42  1  0  0  0  0
 24 43  1  0  0  0  0
 25 44  1  0  0  0  0
 27 45  1  0  0  0  0
 28 46  1  0  0  0  0
 28 47  1  0  0  0  0
 28 48  1  0  0  0  0
 29 49  1  0  0  0  0
 29 50  1  0  0  0  0
 29 51  1  0  0  0  0
 31 52  1  0  0  0  0
 32 53  1  0  0  0  0
 33 54  1  0  0  0  0
 34 55  1  0  0  0  0
 35 56  1  0  0  0  0
M  END
>  <result-rank>
83

>  <similarity>
0.895

>  <query-name>


>  <query-smiles>
S(=O)(=O)(Nc1cc2c(NN=C2C=3Nc4c(ccc(c4)C)C3)cc1)c5cc(F)ccc5

>  <source>
REALspace_2019-12

>  <similarity-descriptor>
0.967;0.860;0.937;0.676;0.938;1.000;1.000;0.937;0.222

>  <similarity-descriptor-smiles>
c1ccccc1;C=1C=CNC1;c1ccc(cc1)F;C1=NN=CO1;c1ccccc1;S(=O)=O;N;c1ccc(cc1)F;C.C

>  <reaction-name>
m_271722

>  <reagent1-name>
10195450

>  <reagent1-smiles>
[R1*]=NN=C(O[R2*])C1=C(N(c2ccc(F)cc2)C(=C1)C)C

>  <reagent2-name>
10188152

>  <reagent2-smiles>
[R1*]C([R2*])c1ccc(NS(=O)(=O)c2ccccc2)cc1

$$$$
s_22____16946154____59094
          04022017313D 1   1.00000     0.00000     0
            
 54 57  0  0  0  0            999 V2000
   14.1913   -0.8397    1.9499 Br  0  0  0  0  0  0  0  0  0  0  0  0
   12.3805   -0.4156    2.5668 C   0  0  0  0  0  0  0  0  0  0  0  0
   11.4635    0.0498    1.6321 C   0  0  0  0  0  0  0  0  0  0  0  0
   10.1762    0.3541    2.0615 C   0  0  0  0  0  0  0  0  0  0  0  0
    9.0903    0.8167    1.3779 N   0  0  0  0  0  0  0  0  0  0  0  0
    8.0468    0.9572    2.2434 C   0  0  0  0  0  0  0  0  0  0  0  0
    6.7653    1.4111    1.9070 N   0  0  0  0  0  0  0  0  0  0  0  0
    5.6615    0.8207    2.4636 C   0  0  0  0  0  0  0  0  0  0  0  0
    5.7440   -0.2783    2.9384 O   0  0  0  0  0  0  0  0  0  0  0  0
    4.3934    1.5238    2.4792 C   0  0  0  0  0  0  0  0  0  0  0  0
    4.3889    2.9151    2.4847 C   0  0  0  0  0  0  0  0  0  0  0  0
    3.1774    3.5986    2.4996 C   0  0  0  0  0  0  0  0  0  0  0  0
    1.9850    2.8822    2.5096 C   0  0  0  0  0  0  0  0  0  0  0  0
    0.7615    3.5615    2.5249 N   0  0  0  0  0  0  0  0  0  0  0  0
   -0.3062    3.3447    1.3125 S   0  0  0  0  0  0  0  0  0  0  0  0
   -1.0810    4.5454    1.1348 O   0  0  0  0  0  0  0  0  0  0  0  0
    0.4036    3.0470    0.0954 O   0  0  0  0  0  0  0  0  0  0  0  0
   -1.3673    2.0222    1.7035 C   0  0  0  0  0  0  0  0  0  0  0  0
   -2.2471    2.0973    2.7794 C   0  0  0  0  0  0  0  0  0  0  0  0
   -3.0838    1.0251    3.0694 C   0  0  0  0  0  0  0  0  0  0  0  0
   -3.0413   -0.1220    2.2842 C   0  0  0  0  0  0  0  0  0  0  0  0
   -2.1606   -0.1921    1.2101 C   0  0  0  0  0  0  0  0  0  0  0  0
   -1.3212    0.8772    0.9152 C   0  0  0  0  0  0  0  0  0  0  0  0
   -2.1101   -1.4437    0.3480 C   0  0  0  0  0  0  0  0  0  0  0  0
   -2.3196    3.3359    3.6579 C   0  0  0  0  0  0  0  0  0  0  0  0
    1.9902    1.4907    2.5042 C   0  0  0  0  0  0  0  0  0  0  0  0
    3.2017    0.8073    2.4891 C   0  0  0  0  0  0  0  0  0  0  0  0
    8.4535    0.5856    3.4894 C   0  0  0  0  0  0  0  0  0  0  0  0
    9.8080    0.2010    3.3762 C   0  0  0  0  0  0  0  0  0  0  0  0
   10.7367   -0.2660    4.3001 C   0  0  0  0  0  0  0  0  0  0  0  0
   12.0326   -0.5782    3.9035 C   0  0  0  0  0  0  0  0  0  0  0  0
    9.0439    1.1212   -0.0603 C   0  0  0  0  0  0  0  0  0  0  0  0
   11.7231    0.1631    0.6731 H   0  0  0  0  0  0  0  0  0  0  0  0
    6.6560    2.1661    1.2605 H   0  0  0  0  0  0  0  0  0  0  0  0
    5.2515    3.4208    2.4781 H   0  0  0  0  0  0  0  0  0  0  0  0
    3.1638    4.5985    2.5030 H   0  0  0  0  0  0  0  0  0  0  0  0
    0.5423    4.1798    3.2796 H   0  0  0  0  0  0  0  0  0  0  0  0
   -3.7159    1.0788    3.8424 H   0  0  0  0  0  0  0  0  0  0  0  0
   -3.6421   -0.8940    2.4914 H   0  0  0  0  0  0  0  0  0  0  0  0
   -0.6892    0.8231    0.1422 H   0  0  0  0  0  0  0  0  0  0  0  0
   -2.7705   -2.1117    0.6912 H   0  0  0  0  0  0  0  0  0  0  0  0
   -2.3358   -1.2070   -0.5970 H   0  0  0  0  0  0  0  0  0  0  0  0
   -1.1907   -1.8356    0.3830 H   0  0  0  0  0  0  0  0  0  0  0  0
   -3.0062    3.1985    4.3718 H   0  0  0  0  0  0  0  0  0  0  0  0
   -1.4276    3.4978    4.0800 H   0  0  0  0  0  0  0  0  0  0  0  0
   -2.5726    4.1261    3.0998 H   0  0  0  0  0  0  0  0  0  0  0  0
    1.1277    0.9848    2.5111 H   0  0  0  0  0  0  0  0  0  0  0  0
    3.2155   -0.1926    2.4853 H   0  0  0  0  0  0  0  0  0  0  0  0
    7.9005    0.5853    4.3226 H   0  0  0  0  0  0  0  0  0  0  0  0
   10.4705   -0.3782    5.2575 H   0  0  0  0  0  0  0  0  0  0  0  0
   12.7017   -0.9133    4.5668 H   0  0  0  0  0  0  0  0  0  0  0  0
    8.1291    1.4436   -0.3034 H   0  0  0  0  0  0  0  0  0  0  0  0
    9.7150    1.8315   -0.2725 H   0  0  0  0  0  0  0  0  0  0  0  0
    9.2561    0.2954   -0.5829 H   0  0  0  0  0  0  0  0  0  0  0  0
  1  2  1  0  0  0  0
  2  3  1  0  0  0  0
  3  4  2  0  0  0  0
  4  5  1  0  0  0  0
  5  6  1  0  0  0  0
  6  7  1  0  0  0  0
  7  8  1  0  0  0  0
  8  9  2  0  0  0  0
  8 10  1  0  0  0  0
 10 11  1  0  0  0  0
 11 12  2  0  0  0  0
 12 13  1  0  0  0  0
 13 14  1  0  0  0  0
 14 15  1  0  0  0  0
 15 16  2  0  0  0  0
 15 17  2  0  0  0  0
 15 18  1  0  0  0  0
 18 19  1  0  0  0  0
 19 20  2  0  0  0  0
 20 21  1  0  0  0  0
 21 22  2  0  0  0  0
 22 23  1  0  0  0  0
 23 18  2  0  0  0  0
 22 24  1  0  0  0  0
 19 25  1  0  0  0  0
 13 26  2  0  0  0  0
 26 27  1  0  0  0  0
 27 10  2  0  0  0  0
  6 28  2  0  0  0  0
 28 29  1  0  0  0  0
 29  4  1  0  0  0  0
 29 30  2  0  0  0  0
 30 31  1  0  0  0  0
 31  2  2  0  0  0  0
  5 32  1  0  0  0  0
  3 33  1  0  0  0  0
  7 34  1  0  0  0  0
 11 35  1  0  0  0  0
 12 36  1  0  0  0  0
 14 37  1  0  0  0  0
 20 38  1  0  0  0  0
 21 39  1  0  0  0  0
 23 40  1  0  0  0  0
 24 41  1  0  0  0  0
 24 42  1  0  0  0  0
 24 43  1  0  0  0  0
 25 44  1  0  0  0  0
 25 45  1  0  0  0  0
 25 46  1  0  0  0  0
 26 47  1  0  0  0  0
 27 48  1  0  0  0  0
 28 49  1  0  0  0  0
 30 50  1  0  0  0  0
 31 51  1  0  0  0  0
 32 52  1  0  0  0  0
 32 53  1  0  0  0  0
 32 54  1  0  0  0  0
M  END
>  <result-rank>
84

>  <similarity>
0.894

>  <query-name>


>  <query-smiles>
S(=O)(=O)(Nc1cc2c(NN=C2C=3Nc4c(ccc(c4)C)C3)cc1)c5cc(F)ccc5

>  <source>
REALspace_2019-12

>  <similarity-descriptor>
0.924;0.983;0.961;0.426;0.938;1.000;1.000;0.961;0.182

>  <similarity-descriptor-smiles>
c1ccccc1C;c1cC=C(N1)N;Brc1ccccc1;C=O;c1ccccc1;S(=O)=O;N;Brc1ccccc1;C.C

>  <reaction-name>
s_22

>  <reagent1-name>
16946154

>  <reagent1-smiles>
[R1*]NC=1N(c2c(ccc(Br)c2)C1)C

>  <reagent2-name>
59094

>  <reagent2-smiles>
[R1*]C(=O)c1ccc(NS(=O)(=O)c2c(ccc(c2)C)C)cc1

$$$$
s_2430a____1029012____12054266
          04022017313D 1   1.00000     0.00000     0
            
 50 53  0  0  0  0            999 V2000
    5.4574   -4.0126    9.2194 Br  0  0  0  0  0  0  0  0  0  0  0  0
    5.4092   -3.9522    7.2611 C   0  0  0  0  0  0  0  0  0  0  0  0
    4.3625   -4.5606    6.5753 C   0  0  0  0  0  0  0  0  0  0  0  0
    4.3365   -4.5129    5.1854 C   0  0  0  0  0  0  0  0  0  0  0  0
    5.3550   -3.8596    4.4986 C   0  0  0  0  0  0  0  0  0  0  0  0
    5.3144   -3.8063    2.7595 S   0  0  0  0  0  0  0  0  0  0  0  0
    4.6538   -4.9837    2.2585 O   0  0  0  0  0  0  0  0  0  0  0  0
    6.6601   -3.7571    2.2492 O   0  0  0  0  0  0  0  0  0  0  0  0
    4.4462   -2.3902    2.2428 C   0  0  0  0  0  0  0  0  0  0  0  0
    3.4507   -1.8582    3.0556 C   0  0  0  0  0  0  0  0  0  0  0  0
    2.7597   -0.7263    2.6369 C   0  0  0  0  0  0  0  0  0  0  0  0
    3.0701   -0.1395    1.4147 C   0  0  0  0  0  0  0  0  0  0  0  0
    2.3700    1.0000    1.0000 N   0  0  0  0  0  0  0  0  0  0  0  0
    1.0000    1.0000    1.0000 C   0  0  0  0  0  0  0  0  0  0  0  0
    0.4000   -0.0392    1.0000 O   0  0  0  0  0  0  0  0  0  0  0  0
    0.3150    2.1865    1.0000 N   0  0  0  0  0  0  0  0  0  0  0  0
   -1.1550    2.1865    1.0000 C   0  0  0  0  0  0  0  0  0  0  0  0
   -1.6626    2.1865    2.4356 C   0  0  0  0  0  0  0  0  0  0  0  0
   -1.9230    3.2406    3.1723 O   0  0  0  0  0  0  0  0  0  0  0  0
   -2.3313    2.8806    4.3783 C   0  0  0  0  0  0  0  0  0  0  0  0
   -2.3948    1.5036    4.4745 C   0  0  0  0  0  0  0  0  0  0  0  0
   -2.8279    0.9425    5.6772 C   0  0  0  0  0  0  0  0  0  0  0  0
   -3.1925    1.7205    6.7752 C   0  0  0  0  0  0  0  0  0  0  0  0
   -3.1207    3.1057    6.6691 C   0  0  0  0  0  0  0  0  0  0  0  0
   -2.6909    3.6696    5.4702 C   0  0  0  0  0  0  0  0  0  0  0  0
   -3.6639    1.0852    8.0746 C   0  0  0  0  0  0  0  0  0  0  0  0
   -1.9406    1.0838    3.2009 C   0  0  0  0  0  0  0  0  0  0  0  0
    4.0662   -0.6764    0.6068 C   0  0  0  0  0  0  0  0  0  0  0  0
    4.7609   -1.8083    1.0194 C   0  0  0  0  0  0  0  0  0  0  0  0
    6.4018   -3.2514    5.1839 C   0  0  0  0  0  0  0  0  0  0  0  0
    6.4273   -3.2991    6.5734 C   0  0  0  0  0  0  0  0  0  0  0  0
    3.6350   -5.0281    7.0774 H   0  0  0  0  0  0  0  0  0  0  0  0
    3.5890   -4.9464    4.6819 H   0  0  0  0  0  0  0  0  0  0  0  0
    3.2338   -2.2858    3.9332 H   0  0  0  0  0  0  0  0  0  0  0  0
    2.0416   -0.3355    3.2128 H   0  0  0  0  0  0  0  0  0  0  0  0
    2.8700    1.8138    0.7038 H   0  0  0  0  0  0  0  0  0  0  0  0
    0.8150    3.0525    1.0000 H   0  0  0  0  0  0  0  0  0  0  0  0
   -1.4883    1.3700    0.5286 H   0  0  0  0  0  0  0  0  0  0  0  0
   -1.4883    3.0030    0.5286 H   0  0  0  0  0  0  0  0  0  0  0  0
   -2.8785   -0.0532    5.7540 H   0  0  0  0  0  0  0  0  0  0  0  0
   -3.3737    3.6878    7.4418 H   0  0  0  0  0  0  0  0  0  0  0  0
   -2.6390    4.6651    5.3906 H   0  0  0  0  0  0  0  0  0  0  0  0
   -3.8778    1.8023    8.7379 H   0  0  0  0  0  0  0  0  0  0  0  0
   -4.4823    0.5376    7.9002 H   0  0  0  0  0  0  0  0  0  0  0  0
   -2.9416    0.4980    8.4399 H   0  0  0  0  0  0  0  0  0  0  0  0
   -1.8388    0.1336    2.9064 H   0  0  0  0  0  0  0  0  0  0  0  0
    4.2829   -0.2488   -0.2707 H   0  0  0  0  0  0  0  0  0  0  0  0
    5.4785   -2.1993    0.4431 H   0  0  0  0  0  0  0  0  0  0  0  0
    7.1294   -2.7841    4.6818 H   0  0  0  0  0  0  0  0  0  0  0  0
    7.1748   -2.8655    7.0766 H   0  0  0  0  0  0  0  0  0  0  0  0
  1  2  1  0  0  0  0
  2  3  1  0  0  0  0
  3  4  2  0  0  0  0
  4  5  1  0  0  0  0
  5  6  1  0  0  0  0
  6  7  2  0  0  0  0
  6  8  2  0  0  0  0
  6  9  1  0  0  0  0
  9 10  1  0  0  0  0
 10 11  2  0  0  0  0
 11 12  1  0  0  0  0
 12 13  1  0  0  0  0
 13 14  1  0  0  0  0
 14 15  2  0  0  0  0
 14 16  1  0  0  0  0
 16 17  1  0  0  0  0
 17 18  1  0  0  0  0
 18 19  1  0  0  0  0
 19 20  1  0  0  0  0
 20 21  1  0  0  0  0
 21 22  2  0  0  0  0
 22 23  1  0  0  0  0
 23 24  2  0  0  0  0
 24 25  1  0  0  0  0
 25 20  2  0  0  0  0
 23 26  1  0  0  0  0
 21 27  1  0  0  0  0
 18 27  2  0  0  0  0
 12 28  2  0  0  0  0
 28 29  1  0  0  0  0
 29  9  2  0  0  0  0
  5 30  2  0  0  0  0
 30 31  1  0  0  0  0
 31  2  2  0  0  0  0
  3 32  1  0  0  0  0
  4 33  1  0  0  0  0
 10 34  1  0  0  0  0
 11 35  1  0  0  0  0
 13 36  1  0  0  0  0
 16 37  1  0  0  0  0
 17 38  1  0  0  0  0
 17 39  1  0  0  0  0
 22 40  1  0  0  0  0
 24 41  1  0  0  0  0
 25 42  1  0  0  0  0
 26 43  1  0  0  0  0
 26 44  1  0  0  0  0
 26 45  1  0  0  0  0
 27 46  1  0  0  0  0
 28 47  1  0  0  0  0
 29 48  1  0  0  0  0
 30 49  1  0  0  0  0
 31 50  1  0  0  0  0
M  END
>  <result-rank>
85

>  <similarity>
0.894

>  <query-name>


>  <query-smiles>
S(=O)(=O)(Nc1cc2c(NN=C2C=3Nc4c(ccc(c4)C)C3)cc1)c5cc(F)ccc5

>  <source>
REALspace_2019-12

>  <similarity-descriptor>
0.978;0.807;1.000;0.605;0.879;0.997;0.879;1.000;0.0

>  <similarity-descriptor-smiles>
Brc1ccccc1;NCC1=CccO1;c1ccccc1;NC=O;c1ccccc1;S(=O)=O;c1ccccc1;C;

>  <reaction-name>
s_2430a

>  <reagent1-name>
1029012

>  <reagent1-smiles>
[R1*]C(=O)Nc1ccc(S(=O)(=O)c2ccc(Br)cc2)cc1

>  <reagent2-name>
12054266

>  <reagent2-smiles>
[R1*]NCC=1Oc2c(cc(cc2)C)C1

$$$$
s_274090____12938270____16902232
          04022017313D 1   1.00000     0.00000     0
            
 51 55  0  0  0  0            999 V2000
    0.4035    3.7617    2.5294 S   0  0  0  0  0  0  0  0  0  0  0  0
   -0.5815    2.9669    3.2162 O   0  0  0  0  0  0  0  0  0  0  0  0
    0.5645    5.0203    3.2102 O   0  0  0  0  0  0  0  0  0  0  0  0
    1.9839    2.8796    2.5102 C   0  0  0  0  0  0  0  0  0  0  0  0
    3.1759    3.5959    2.4998 C   0  0  0  0  0  0  0  0  0  0  0  0
    4.3919    2.9202    2.4850 C   0  0  0  0  0  0  0  0  0  0  0  0
    4.3969    1.5294    2.4802 C   0  0  0  0  0  0  0  0  0  0  0  0
    3.2042    0.8137    2.4901 C   0  0  0  0  0  0  0  0  0  0  0  0
    1.9884    1.4885    2.5055 C   0  0  0  0  0  0  0  0  0  0  0  0
    5.7228    0.7864    2.4629 C   0  0  0  0  0  0  0  0  0  0  0  0
    6.1656    0.5421    3.8430 N   0  0  0  0  0  0  0  0  0  0  0  0
    5.8761   -0.5129    4.5640 N   0  0  0  0  0  0  0  0  0  0  0  0
    6.3982   -0.4461    5.7120 N   0  0  0  0  0  0  0  0  0  0  0  0
    7.0847    0.7275    5.7788 C   0  0  0  0  0  0  0  0  0  0  0  0
    7.8379    1.2094    6.9199 C   0  0  0  0  0  0  0  0  0  0  0  0
    8.5204    2.3887    6.9697 N   0  0  0  0  0  0  0  0  0  0  0  0
    9.0958    2.4836    8.2046 C   0  0  0  0  0  0  0  0  0  0  0  0
    8.7780    1.3658    8.9365 C   0  0  0  0  0  0  0  0  0  0  0  0
    9.2562    1.2312   10.2357 C   0  0  0  0  0  0  0  0  0  0  0  0
   10.0528    2.2192   10.8053 C   0  0  0  0  0  0  0  0  0  0  0  0
   10.3722    3.3521   10.0640 C   0  0  0  0  0  0  0  0  0  0  0  0
    9.8893    3.4771    8.7656 C   0  0  0  0  0  0  0  0  0  0  0  0
    7.9711    0.5542    8.1071 C   0  0  0  0  0  0  0  0  0  0  0  0
    6.9449    1.3691    4.5865 C   0  0  0  0  0  0  0  0  0  0  0  0
   -0.1201    4.0491    0.8953 C   0  0  0  0  0  0  0  0  0  0  0  0
   -0.9162    3.1100    0.2486 C   0  0  0  0  0  0  0  0  0  0  0  0
   -1.3361    3.3375   -1.0580 C   0  0  0  0  0  0  0  0  0  0  0  0
   -0.9502    4.5082   -1.7021 C   0  0  0  0  0  0  0  0  0  0  0  0
   -0.1535    5.4468   -1.0547 C   0  0  0  0  0  0  0  0  0  0  0  0
    0.2660    5.2203    0.2515 C   0  0  0  0  0  0  0  0  0  0  0  0
   -1.4054    4.7610   -3.1301 C   0  0  0  0  0  0  0  0  0  0  0  0
    3.1590    4.5957    2.5029 H   0  0  0  0  0  0  0  0  0  0  0  0
    5.2528    3.4289    2.4779 H   0  0  0  0  0  0  0  0  0  0  0  0
    3.2210   -0.1861    2.4862 H   0  0  0  0  0  0  0  0  0  0  0  0
    1.1275    0.9798    2.5132 H   0  0  0  0  0  0  0  0  0  0  0  0
    5.6092   -0.0872    1.9897 H   0  0  0  0  0  0  0  0  0  0  0  0
    6.4074    1.3374    1.9857 H   0  0  0  0  0  0  0  0  0  0  0  0
    8.5876    3.0629    6.2342 H   0  0  0  0  0  0  0  0  0  0  0  0
    9.0249    0.4155   10.7659 H   0  0  0  0  0  0  0  0  0  0  0  0
   10.3930    2.1159   11.7400 H   0  0  0  0  0  0  0  0  0  0  0  0
   10.9438    4.0701   10.4610 H   0  0  0  0  0  0  0  0  0  0  0  0
   10.1156    4.2906    8.2299 H   0  0  0  0  0  0  0  0  0  0  0  0
    7.5737   -0.3319    8.3460 H   0  0  0  0  0  0  0  0  0  0  0  0
    7.3300    2.2521    4.3181 H   0  0  0  0  0  0  0  0  0  0  0  0
   -1.1866    2.2719    0.7224 H   0  0  0  0  0  0  0  0  0  0  0  0
   -1.9091    2.6667   -1.5289 H   0  0  0  0  0  0  0  0  0  0  0  0
    0.1176    6.2846   -1.5287 H   0  0  0  0  0  0  0  0  0  0  0  0
    0.8385    5.8914    0.7226 H   0  0  0  0  0  0  0  0  0  0  0  0
   -1.0451    5.6394   -3.4442 H   0  0  0  0  0  0  0  0  0  0  0  0
   -1.0658    4.0305   -3.7225 H   0  0  0  0  0  0  0  0  0  0  0  0
   -2.4046    4.7796   -3.1632 H   0  0  0  0  0  0  0  0  0  0  0  0
  1  2  2  0  0  0  0
  1  3  2  0  0  0  0
  1  4  1  0  0  0  0
  4  5  1  0  0  0  0
  5  6  2  0  0  0  0
  6  7  1  0  0  0  0
  7  8  2  0  0  0  0
  8  9  1  0  0  0  0
  9  4  2  0  0  0  0
  7 10  1  0  0  0  0
 10 11  1  0  0  0  0
 11 12  1  0  0  0  0
 12 13  2  0  0  0  0
 13 14  1  0  0  0  0
 14 15  1  0  0  0  0
 15 16  1  0  0  0  0
 16 17  1  0  0  0  0
 17 18  1  0  0  0  0
 18 19  2  0  0  0  0
 19 20  1  0  0  0  0
 20 21  2  0  0  0  0
 21 22  1  0  0  0  0
 22 17  2  0  0  0  0
 18 23  1  0  0  0  0
 15 23  2  0  0  0  0
 14 24  2  0  0  0  0
 24 11  1  0  0  0  0
  1 25  1  0  0  0  0
 25 26  1  0  0  0  0
 26 27  2  0  0  0  0
 27 28  1  0  0  0  0
 28 29  2  0  0  0  0
 29 30  1  0  0  0  0
 30 25  2  0  0  0  0
 28 31  1  0  0  0  0
  5 32  1  0  0  0  0
  6 33  1  0  0  0  0
  8 34  1  0  0  0  0
  9 35  1  0  0  0  0
 10 36  1  0  0  0  0
 10 37  1  0  0  0  0
 16 38  1  0  0  0  0
 19 39  1  0  0  0  0
 20 40  1  0  0  0  0
 21 41  1  0  0  0  0
 22 42  1  0  0  0  0
 23 43  1  0  0  0  0
 24 44  1  0  0  0  0
 26 45  1  0  0  0  0
 27 46  1  0  0  0  0
 29 47  1  0  0  0  0
 30 48  1  0  0  0  0
 31 49  1  0  0  0  0
 31 50  1  0  0  0  0
 31 51  1  0  0  0  0
M  END
>  <result-rank>
86

>  <similarity>
0.894

>  <query-name>


>  <query-smiles>
S(=O)(=O)(Nc1cc2c(NN=C2C=3Nc4c(ccc(c4)C)C3)cc1)c5cc(F)ccc5

>  <source>
REALspace_2019-12

>  <similarity-descriptor>
0.982;1.000;0.953;0.698;0.876;0.884;0.884;0.0;0.125

>  <similarity-descriptor-smiles>
c1ccccc1;C1=CccN1;c1ccccc1;N1C=CN=N1;c1ccc(cc1)C;S(=O)=O;S(=O)=O;;C

>  <reaction-name>
s_274090

>  <reagent1-name>
12938270

>  <reagent1-smiles>
[R1*]N=NN([R2*])Cc1ccc(S(=O)(=O)c2ccc(cc2)C)cc1

>  <reagent2-name>
16902232

>  <reagent2-smiles>
[R1*]C(C=1Nc2c(cccc2)C1)=C[R2*]

$$$$
s_232682____11680614____4549212
          04022017313D 1   1.00000     0.00000     0
            
 49 52  0  0  0  0            999 V2000
    1.0000    1.0000    1.0000 S   0  0  0  0  0  0  0  0  0  0  0  0
    0.1686    1.8314    0.1686 O   0  0  0  0  0  0  0  0  0  0  0  0
    0.1686    0.1686    1.8314 O   0  0  0  0  0  0  0  0  0  0  0  0
    1.9411    0.0589    0.0589 N   0  0  0  0  0  0  0  0  0  0  0  0
    2.9818   -0.6840    0.6298 C   0  0  0  0  0  0  0  0  0  0  0  0
    4.3110   -0.2987    0.4851 C   0  0  0  0  0  0  0  0  0  0  0  0
    5.3222   -1.0582    1.0649 C   0  0  0  0  0  0  0  0  0  0  0  0
    5.0045   -2.2034    1.7876 C   0  0  0  0  0  0  0  0  0  0  0  0
    3.6756   -2.5885    1.9320 C   0  0  0  0  0  0  0  0  0  0  0  0
    2.6643   -1.8285    1.3529 C   0  0  0  0  0  0  0  0  0  0  0  0
    4.6423    0.8948   -0.2692 C   0  0  0  0  0  0  0  0  0  0  0  0
    3.8288    1.5162   -1.0918 N   0  0  0  0  0  0  0  0  0  0  0  0
    4.4923    2.5892   -1.6103 C   0  0  0  0  0  0  0  0  0  0  0  0
    5.7563    2.6042   -1.0719 C   0  0  0  0  0  0  0  0  0  0  0  0
    5.8440    1.5360   -0.2281 N   0  0  0  0  0  0  0  0  0  0  0  0
    6.6364    3.6138   -1.4485 C   0  0  0  0  0  0  0  0  0  0  0  0
    6.2533    4.5962   -2.3559 C   0  0  0  0  0  0  0  0  0  0  0  0
    4.9737    4.5785   -2.9012 C   0  0  0  0  0  0  0  0  0  0  0  0
    4.1013    3.5655   -2.5185 C   0  0  0  0  0  0  0  0  0  0  0  0
    4.5117    5.6317   -3.8968 C   0  0  0  0  0  0  0  0  0  0  0  0
    2.0450    2.0450    2.0450 C   0  0  0  0  0  0  0  0  0  0  0  0
    1.1673    2.9227    2.9227 C   0  0  0  0  0  0  0  0  0  0  0  0
    0.7755    2.4558    4.1731 C   0  0  0  0  0  0  0  0  0  0  0  0
   -0.0271    3.2618    4.9737 C   0  0  0  0  0  0  0  0  0  0  0  0
   -0.4368    4.5180    4.5390 C   0  0  0  0  0  0  0  0  0  0  0  0
   -0.0336    4.9660    3.2852 C   0  0  0  0  0  0  0  0  0  0  0  0
    0.7689    4.1758    2.4689 C   0  0  0  0  0  0  0  0  0  0  0  0
   -0.4630    2.7634    6.3421 C   0  0  0  0  0  0  0  0  0  0  0  0
    0.4341    3.1289    7.2535 F   0  0  0  0  0  0  0  0  0  0  0  0
   -1.6459    3.2881    6.6490 F   0  0  0  0  0  0  0  0  0  0  0  0
   -0.5584    1.4370    6.3211 F   0  0  0  0  0  0  0  0  0  0  0  0
    1.7752    0.0121   -0.9261 H   0  0  0  0  0  0  0  0  0  0  0  0
    6.2774   -0.7808    0.9620 H   0  0  0  0  0  0  0  0  0  0  0  0
    5.7314   -2.7500    2.2034 H   0  0  0  0  0  0  0  0  0  0  0  0
    3.4472   -3.4115    2.4520 H   0  0  0  0  0  0  0  0  0  0  0  0
    1.7090   -2.1053    1.4567 H   0  0  0  0  0  0  0  0  0  0  0  0
    6.6398    1.2731    0.3175 H   0  0  0  0  0  0  0  0  0  0  0  0
    7.5581    3.6335   -1.0612 H   0  0  0  0  0  0  0  0  0  0  0  0
    6.8978    5.3152   -2.6162 H   0  0  0  0  0  0  0  0  0  0  0  0
    3.1785    3.5392   -2.9028 H   0  0  0  0  0  0  0  0  0  0  0  0
    5.2534    6.2816   -4.0628 H   0  0  0  0  0  0  0  0  0  0  0  0
    4.2578    5.1889   -4.7567 H   0  0  0  0  0  0  0  0  0  0  0  0
    3.7202    6.1170   -3.5253 H   0  0  0  0  0  0  0  0  0  0  0  0
    2.6224    2.6224    1.4677 H   0  0  0  0  0  0  0  0  0  0  0  0
    2.6224    1.4677    2.6224 H   0  0  0  0  0  0  0  0  0  0  0  0
    1.0667    1.5538    4.4918 H   0  0  0  0  0  0  0  0  0  0  0  0
   -1.0139    5.0916    5.1203 H   0  0  0  0  0  0  0  0  0  0  0  0
   -0.3245    5.8682    2.9666 H   0  0  0  0  0  0  0  0  0  0  0  0
    1.0552    4.5039    1.5686 H   0  0  0  0  0  0  0  0  0  0  0  0
  1  2  2  0  0  0  0
  1  3  2  0  0  0  0
  1  4  1  0  0  0  0
  4  5  1  0  0  0  0
  5  6  1  0  0  0  0
  6  7  2  0  0  0  0
  7  8  1  0  0  0  0
  8  9  2  0  0  0  0
  9 10  1  0  0  0  0
 10  5  2  0  0  0  0
  6 11  1  0  0  0  0
 11 12  2  0  0  0  0
 12 13  1  0  0  0  0
 13 14  1  0  0  0  0
 14 15  1  0  0  0  0
 15 11  1  0  0  0  0
 14 16  2  0  0  0  0
 16 17  1  0  0  0  0
 17 18  2  0  0  0  0
 18 19  1  0  0  0  0
 19 13  2  0  0  0  0
 18 20  1  0  0  0  0
  1 21  1  0  0  0  0
 21 22  1  0  0  0  0
 22 23  1  0  0  0  0
 23 24  2  0  0  0  0
 24 25  1  0  0  0  0
 25 26  2  0  0  0  0
 26 27  1  0  0  0  0
 27 22  2  0  0  0  0
 24 28  1  0  0  0  0
 28 29  1  0  0  0  0
 28 30  1  0  0  0  0
 28 31  1  0  0  0  0
  4 32  1  0  0  0  0
  7 33  1  0  0  0  0
  8 34  1  0  0  0  0
  9 35  1  0  0  0  0
 10 36  1  0  0  0  0
 15 37  1  0  0  0  0
 16 38  1  0  0  0  0
 17 39  1  0  0  0  0
 19 40  1  0  0  0  0
 20 41  1  0  0  0  0
 20 42  1  0  0  0  0
 20 43  1  0  0  0  0
 21 44  1  0  0  0  0
 21 45  1  0  0  0  0
 23 46  1  0  0  0  0
 25 47  1  0  0  0  0
 26 48  1  0  0  0  0
 27 49  1  0  0  0  0
M  END
>  <result-rank>
87

>  <similarity>
0.894

>  <query-name>


>  <query-smiles>
S(=O)(=O)(Nc1cc2c(NN=C2C=3Nc4c(ccc(c4)C)C3)cc1)c5cc(F)ccc5

>  <source>
REALspace_2019-12

>  <similarity-descriptor>
0.961;0.632;0.999;0.632;0.938;0.899;1.000;1.000;0.0

>  <similarity-descriptor-smiles>
c1cccc(c1)C(F)(F)F;C=1NccN1;c1ccccc1;C=1NccN1;c1ccccc1;S(=O)(=O)C;N;C;

>  <reaction-name>
s_232682

>  <reagent1-name>
11680614

>  <reagent1-smiles>
[R1*]Nc1c(cccc1)C2=Nc3c(N2)ccc(c3)C

>  <reagent2-name>
4549212

>  <reagent2-smiles>
[R1*]S(=O)(=O)Cc1cc(ccc1)C(F)(F)F

$$$$
s_22____3049244____8798980
          04022017313D 1   1.00000     0.00000     0
            
 54 57  0  0  0  0            999 V2000
   -1.8365    7.7707   -2.8175 Cl  0  0  0  0  0  0  0  0  0  0  0  0
   -1.4776    6.0856   -2.3676 C   0  0  0  0  0  0  0  0  0  0  0  0
   -0.1862    5.5655   -2.3938 C   0  0  0  0  0  0  0  0  0  0  0  0
    0.0856    4.2456   -2.0418 C   0  0  0  0  0  0  0  0  0  0  0  0
   -0.9770    3.4540   -1.6624 C   0  0  0  0  0  0  0  0  0  0  0  0
   -0.5093    2.2051   -1.3709 N   0  0  0  0  0  0  0  0  0  0  0  0
    0.8416    2.1990   -1.5588 C   0  0  0  0  0  0  0  0  0  0  0  0
    1.7140    1.0588   -1.3534 C   0  0  0  0  0  0  0  0  0  0  0  0
    2.3638    0.6285   -2.2658 O   0  0  0  0  0  0  0  0  0  0  0  0
    1.7961    0.4729   -0.1177 N   0  0  0  0  0  0  0  0  0  0  0  0
    1.0000    1.0000    1.0000 C   0  0  0  0  0  0  0  0  0  0  0  0
    1.8777    1.8777    1.8777 C   0  0  0  0  0  0  0  0  0  0  0  0
    1.9718    3.2376    1.6016 C   0  0  0  0  0  0  0  0  0  0  0  0
    2.7760    4.0359    2.4082 C   0  0  0  0  0  0  0  0  0  0  0  0
    2.8786    5.4058    2.1404 N   0  0  0  0  0  0  0  0  0  0  0  0
    2.4259    6.4927    3.2676 S   0  0  0  0  0  0  0  0  0  0  0  0
    3.0449    6.1654    4.5259 O   0  0  0  0  0  0  0  0  0  0  0  0
    2.8390    7.8098    2.8576 O   0  0  0  0  0  0  0  0  0  0  0  0
    0.6957    6.4569    3.4458 C   0  0  0  0  0  0  0  0  0  0  0  0
    0.1129    5.5988    4.3728 C   0  0  0  0  0  0  0  0  0  0  0  0
   -1.2720    5.5805    4.5053 C   0  0  0  0  0  0  0  0  0  0  0  0
   -2.0655    6.4095    3.7193 C   0  0  0  0  0  0  0  0  0  0  0  0
   -1.4728    7.2631    2.7949 C   0  0  0  0  0  0  0  0  0  0  0  0
   -0.0892    7.2899    2.6544 C   0  0  0  0  0  0  0  0  0  0  0  0
    3.4808    3.4949    3.4779 C   0  0  0  0  0  0  0  0  0  0  0  0
    3.3715    2.1327    3.7352 C   0  0  0  0  0  0  0  0  0  0  0  0
    2.5730    1.3144    2.9424 C   0  0  0  0  0  0  0  0  0  0  0  0
    2.6803   -0.6828    0.0904 C   0  0  0  0  0  0  0  0  0  0  0  0
    1.2437    3.4363   -1.9685 C   0  0  0  0  0  0  0  0  0  0  0  0
   -2.2790    3.9389   -1.6236 C   0  0  0  0  0  0  0  0  0  0  0  0
   -2.5270    5.2606   -1.9790 C   0  0  0  0  0  0  0  0  0  0  0  0
   -3.4252    3.0339   -1.2024 C   0  0  0  0  0  0  0  0  0  0  0  0
    0.5692    6.1578   -2.6739 H   0  0  0  0  0  0  0  0  0  0  0  0
   -1.0624    1.4278   -1.0711 H   0  0  0  0  0  0  0  0  0  0  0  0
    0.6414    0.2396    1.5416 H   0  0  0  0  0  0  0  0  0  0  0  0
    0.2396    1.5416    0.6414 H   0  0  0  0  0  0  0  0  0  0  0  0
    1.4687    3.6355    0.8344 H   0  0  0  0  0  0  0  0  0  0  0  0
    3.2295    5.7178    1.2575 H   0  0  0  0  0  0  0  0  0  0  0  0
    0.6828    5.0020    4.9375 H   0  0  0  0  0  0  0  0  0  0  0  0
   -1.6995    4.9674    5.1697 H   0  0  0  0  0  0  0  0  0  0  0  0
   -3.0604    6.3919    3.8188 H   0  0  0  0  0  0  0  0  0  0  0  0
   -2.0430    7.8593    2.2297 H   0  0  0  0  0  0  0  0  0  0  0  0
    0.3380    7.9029    1.9898 H   0  0  0  0  0  0  0  0  0  0  0  0
    4.0568    4.0760    4.0528 H   0  0  0  0  0  0  0  0  0  0  0  0
    3.8749    1.7349    4.5023 H   0  0  0  0  0  0  0  0  0  0  0  0
    2.5001    0.3359    3.1352 H   0  0  0  0  0  0  0  0  0  0  0  0
    2.6187   -0.9825    1.0425 H   0  0  0  0  0  0  0  0  0  0  0  0
    2.4004   -1.4296   -0.5129 H   0  0  0  0  0  0  0  0  0  0  0  0
    3.6234   -0.4226   -0.1167 H   0  0  0  0  0  0  0  0  0  0  0  0
    2.1801    3.7181   -2.1777 H   0  0  0  0  0  0  0  0  0  0  0  0
   -3.4608    5.6177   -1.9549 H   0  0  0  0  0  0  0  0  0  0  0  0
   -4.2832    3.5465   -1.2329 H   0  0  0  0  0  0  0  0  0  0  0  0
   -3.4805    2.2539   -1.8258 H   0  0  0  0  0  0  0  0  0  0  0  0
   -3.2659    2.7057   -0.2713 H   0  0  0  0  0  0  0  0  0  0  0  0
  1  2  1  0  0  0  0
  2  3  1  0  0  0  0
  3  4  2  0  0  0  0
  4  5  1  0  0  0  0
  5  6  1  0  0  0  0
  6  7  1  0  0  0  0
  7  8  1  0  0  0  0
  8  9  2  0  0  0  0
  8 10  1  0  0  0  0
 10 11  1  0  0  0  0
 11 12  1  0  0  0  0
 12 13  1  0  0  0  0
 13 14  2  0  0  0  0
 14 15  1  0  0  0  0
 15 16  1  0  0  0  0
 16 17  2  0  0  0  0
 16 18  2  0  0  0  0
 16 19  1  0  0  0  0
 19 20  1  0  0  0  0
 20 21  2  0  0  0  0
 21 22  1  0  0  0  0
 22 23  2  0  0  0  0
 23 24  1  0  0  0  0
 24 19  2  0  0  0  0
 14 25  1  0  0  0  0
 25 26  2  0  0  0  0
 26 27  1  0  0  0  0
 27 12  2  0  0  0  0
 10 28  1  0  0  0  0
  7 29  2  0  0  0  0
 29  4  1  0  0  0  0
  5 30  2  0  0  0  0
 30 31  1  0  0  0  0
 31  2  2  0  0  0  0
 30 32  1  0  0  0  0
  3 33  1  0  0  0  0
  6 34  1  0  0  0  0
 11 35  1  0  0  0  0
 11 36  1  0  0  0  0
 13 37  1  0  0  0  0
 15 38  1  0  0  0  0
 20 39  1  0  0  0  0
 21 40  1  0  0  0  0
 22 41  1  0  0  0  0
 23 42  1  0  0  0  0
 24 43  1  0  0  0  0
 25 44  1  0  0  0  0
 26 45  1  0  0  0  0
 27 46  1  0  0  0  0
 28 47  1  0  0  0  0
 28 48  1  0  0  0  0
 28 49  1  0  0  0  0
 29 50  1  0  0  0  0
 31 51  1  0  0  0  0
 32 52  1  0  0  0  0
 32 53  1  0  0  0  0
 32 54  1  0  0  0  0
M  END
>  <result-rank>
88

>  <similarity>
0.894

>  <query-name>


>  <query-smiles>
S(=O)(=O)(Nc1cc2c(NN=C2C=3Nc4c(ccc(c4)C)C3)cc1)c5cc(F)ccc5

>  <source>
REALspace_2019-12

>  <similarity-descriptor>
0.967;1.000;0.940;0.425;0.869;1.000;1.000;1.000;0.091

>  <similarity-descriptor-smiles>
c1ccccc1;c1C=CNc1;Clc1ccccc1;C=O;NCc1ccccc1;S(=O)=O;N;C;C

>  <reaction-name>
s_22

>  <reagent1-name>
3049244

>  <reagent1-smiles>
[R1*]N(Cc1cc(NS(=O)(=O)c2ccccc2)ccc1)C

>  <reagent2-name>
8798980

>  <reagent2-smiles>
[R1*]C(=O)C=1Nc2c(cc(Cl)cc2C)C1

$$$$
m_276096____13707002____13711292
          04022017313D 1   1.00000     0.00000     0
            
 54 58  0  0  0  0            999 V2000
   -1.2699    0.0458    2.9670 S   0  0  0  0  0  0  0  0  0  0  0  0
    0.1076   -0.8094    2.4495 C   0  0  0  0  0  0  0  0  0  0  0  0
    0.1202   -1.9304    3.1261 N   0  0  0  0  0  0  0  0  0  0  0  0
   -0.9151   -2.1045    4.0057 C   0  0  0  0  0  0  0  0  0  0  0  0
   -1.0938   -3.2684    4.8519 C   0  0  0  0  0  0  0  0  0  0  0  0
   -0.8474   -3.3373    6.2455 C   0  0  0  0  0  0  0  0  0  0  0  0
   -1.1613   -4.6380    6.5877 C   0  0  0  0  0  0  0  0  0  0  0  0
   -1.5655   -5.2967    5.4596 N   0  0  0  0  0  0  0  0  0  0  0  0
   -1.5306   -4.4686    4.3821 C   0  0  0  0  0  0  0  0  0  0  0  0
   -1.0150   -5.0561    7.9067 C   0  0  0  0  0  0  0  0  0  0  0  0
   -0.5604   -4.1826    8.8881 C   0  0  0  0  0  0  0  0  0  0  0  0
   -0.2373   -2.8721    8.5553 C   0  0  0  0  0  0  0  0  0  0  0  0
   -0.3845   -2.4648    7.2335 C   0  0  0  0  0  0  0  0  0  0  0  0
   -0.0122   -1.0220    6.9303 C   0  0  0  0  0  0  0  0  0  0  0  0
   -1.8333   -1.1069    4.0870 C   0  0  0  0  0  0  0  0  0  0  0  0
    1.0378   -0.3831    1.4966 N   0  0  0  0  0  0  0  0  0  0  0  0
    1.0000    1.0000    1.0000 C   0  0  0  0  0  0  0  0  0  0  0  0
    1.8778    1.8778    1.8778 C   0  0  0  0  0  0  0  0  0  0  0  0
    3.2214    2.0410    1.5554 C   0  0  0  0  0  0  0  0  0  0  0  0
    4.0287    2.8439    2.3540 C   0  0  0  0  0  0  0  0  0  0  0  0
    3.4804    3.4749    3.4660 C   0  0  0  0  0  0  0  0  0  0  0  0
    2.1378    3.3115    3.7896 C   0  0  0  0  0  0  0  0  0  0  0  0
    1.3307    2.5074    2.9916 C   0  0  0  0  0  0  0  0  0  0  0  0
    4.3577    4.3544    4.3420 C   0  0  0  0  0  0  0  0  0  0  0  0
    4.3209    5.6895    3.8597 O   0  0  0  0  0  0  0  0  0  0  0  0
    5.0299    6.6532    4.4856 C   0  0  0  0  0  0  0  0  0  0  0  0
    4.9895    7.9589    4.0081 C   0  0  0  0  0  0  0  0  0  0  0  0
    5.7231    8.9480    4.6566 C   0  0  0  0  0  0  0  0  0  0  0  0
    6.4882    8.6279    5.7737 C   0  0  0  0  0  0  0  0  0  0  0  0
    6.5247    7.3197    6.2451 C   0  0  0  0  0  0  0  0  0  0  0  0
    5.7938    6.3262    5.6013 C   0  0  0  0  0  0  0  0  0  0  0  0
   -1.8480   -6.2556    5.4312 H   0  0  0  0  0  0  0  0  0  0  0  0
   -1.7753   -4.6946    3.4392 H   0  0  0  0  0  0  0  0  0  0  0  0
   -1.2403   -5.9989    8.1525 H   0  0  0  0  0  0  0  0  0  0  0  0
   -0.4659   -4.4968    9.8328 H   0  0  0  0  0  0  0  0  0  0  0  0
    0.0941   -2.2355    9.2517 H   0  0  0  0  0  0  0  0  0  0  0  0
    0.2933   -0.5730    7.7700 H   0  0  0  0  0  0  0  0  0  0  0  0
    0.7250   -1.0028    6.2549 H   0  0  0  0  0  0  0  0  0  0  0  0
   -0.8100   -0.5412    6.5665 H   0  0  0  0  0  0  0  0  0  0  0  0
   -2.6469   -1.0603    4.6666 H   0  0  0  0  0  0  0  0  0  0  0  0
    1.7288   -1.0190    1.1529 H   0  0  0  0  0  0  0  0  0  0  0  0
    0.0591    1.3378    1.0257 H   0  0  0  0  0  0  0  0  0  0  0  0
    1.3378    1.0257    0.0591 H   0  0  0  0  0  0  0  0  0  0  0  0
    3.6048    1.5833    0.7533 H   0  0  0  0  0  0  0  0  0  0  0  0
    4.9957    2.9667    2.1307 H   0  0  0  0  0  0  0  0  0  0  0  0
    1.7547    3.7697    4.5916 H   0  0  0  0  0  0  0  0  0  0  0  0
    0.3644    2.3826    3.2167 H   0  0  0  0  0  0  0  0  0  0  0  0
    4.0198    4.3305    5.2829 H   0  0  0  0  0  0  0  0  0  0  0  0
    5.2987    4.0168    4.3170 H   0  0  0  0  0  0  0  0  0  0  0  0
    4.4378    8.1851    3.2053 H   0  0  0  0  0  0  0  0  0  0  0  0
    5.7002    9.8892    4.3196 H   0  0  0  0  0  0  0  0  0  0  0  0
    7.0134    9.3404    6.2390 H   0  0  0  0  0  0  0  0  0  0  0  0
    7.0768    7.0931    7.0474 H   0  0  0  0  0  0  0  0  0  0  0  0
    5.8174    5.3848    5.9379 H   0  0  0  0  0  0  0  0  0  0  0  0
  1  2  1  0  0  0  0
  2  3  2  0  0  0  0
  3  4  1  0  0  0  0
  4  5  1  0  0  0  0
  5  6  1  0  0  0  0
  6  7  1  0  0  0  0
  7  8  1  0  0  0  0
  8  9  1  0  0  0  0
  5  9  2  0  0  0  0
  7 10  2  0  0  0  0
 10 11  1  0  0  0  0
 11 12  2  0  0  0  0
 12 13  1  0  0  0  0
 13  6  2  0  0  0  0
 13 14  1  0  0  0  0
  4 15  2  0  0  0  0
 15  1  1  0  0  0  0
  2 16  1  0  0  0  0
 16 17  1  0  0  0  0
 17 18  1  0  0  0  0
 18 19  1  0  0  0  0
 19 20  2  0  0  0  0
 20 21  1  0  0  0  0
 21 22  2  0  0  0  0
 22 23  1  0  0  0  0
 23 18  2  0  0  0  0
 21 24  1  0  0  0  0
 24 25  1  0  0  0  0
 25 26  1  0  0  0  0
 26 27  1  0  0  0  0
 27 28  2  0  0  0  0
 28 29  1  0  0  0  0
 29 30  2  0  0  0  0
 30 31  1  0  0  0  0
 31 26  2  0  0  0  0
  8 32  1  0  0  0  0
  9 33  1  0  0  0  0
 10 34  1  0  0  0  0
 11 35  1  0  0  0  0
 12 36  1  0  0  0  0
 14 37  1  0  0  0  0
 14 38  1  0  0  0  0
 14 39  1  0  0  0  0
 15 40  1  0  0  0  0
 16 41  1  0  0  0  0
 17 42  1  0  0  0  0
 17 43  1  0  0  0  0
 19 44  1  0  0  0  0
 20 45  1  0  0  0  0
 22 46  1  0  0  0  0
 23 47  1  0  0  0  0
 24 48  1  0  0  0  0
 24 49  1  0  0  0  0
 27 50  1  0  0  0  0
 28 51  1  0  0  0  0
 29 52  1  0  0  0  0
 30 53  1  0  0  0  0
 31 54  1  0  0  0  0
M  END
>  <result-rank>
89

>  <similarity>
0.893

>  <query-name>


>  <query-smiles>
S(=O)(=O)(Nc1cc2c(NN=C2C=3Nc4c(ccc(c4)C)C3)cc1)c5cc(F)ccc5

>  <source>
REALspace_2019-12

>  <similarity-descriptor>
0.969;1.000;1.000;0.784;0.881;0.542;0.881;1.000;0.0

>  <similarity-descriptor-smiles>
c1ccccc1;C1=CNcc1;c1ccccc1;S1C=CN=C1NC;c1ccccc1;CO;c1ccccc1;C;

>  <reaction-name>
m_276096

>  <reagent1-name>
13707002

>  <reagent1-smiles>
[R1*]SC(=N[R2*])NCc1ccc(cc1)COc2ccccc2

>  <reagent2-name>
13711292

>  <reagent2-smiles>
[R2*]C(C=1c2c(NC1)cccc2C)=C[R1*]

$$$$
s_270196____8770982____8773732
          04022017313D 1   1.00000     0.00000     0
            
 48 52  0  0  0  0            999 V2000
    0.2107    7.6505    7.0374 Cl  0  0  0  0  0  0  0  0  0  0  0  0
    0.5833    5.9537    6.6485 C   0  0  0  0  0  0  0  0  0  0  0  0
    1.3914    5.2063    7.4984 C   0  0  0  0  0  0  0  0  0  0  0  0
    1.8819    5.7674    8.5998 F   0  0  0  0  0  0  0  0  0  0  0  0
    1.6844    3.8808    7.1972 C   0  0  0  0  0  0  0  0  0  0  0  0
    1.1693    3.2989    6.0427 C   0  0  0  0  0  0  0  0  0  0  0  0
    0.3631    4.0594    5.2022 C   0  0  0  0  0  0  0  0  0  0  0  0
   -0.2810    3.3352    3.7573 S   0  0  0  0  0  0  0  0  0  0  0  0
   -1.5443    3.9470    3.4359 O   0  0  0  0  0  0  0  0  0  0  0  0
   -0.4718    1.9241    3.9717 O   0  0  0  0  0  0  0  0  0  0  0  0
    0.7615    3.5615    2.5249 N   0  0  0  0  0  0  0  0  0  0  0  0
    1.9850    2.8822    2.5096 C   0  0  0  0  0  0  0  0  0  0  0  0
    3.1774    3.5986    2.4996 C   0  0  0  0  0  0  0  0  0  0  0  0
    4.3889    2.9151    2.4847 C   0  0  0  0  0  0  0  0  0  0  0  0
    4.3934    1.5238    2.4792 C   0  0  0  0  0  0  0  0  0  0  0  0
    3.2017    0.8073    2.4891 C   0  0  0  0  0  0  0  0  0  0  0  0
    1.9902    1.4907    2.5042 C   0  0  0  0  0  0  0  0  0  0  0  0
    5.6621    0.8204    2.4636 C   0  0  0  0  0  0  0  0  0  0  0  0
    6.8482    1.3820    2.4539 O   0  0  0  0  0  0  0  0  0  0  0  0
    7.7419    0.4850    2.4422 N   0  0  0  0  0  0  0  0  0  0  0  0
    7.1590   -0.6873    2.4417 C   0  0  0  0  0  0  0  0  0  0  0  0
    5.8127   -0.4819    2.4562 N   0  0  0  0  0  0  0  0  0  0  0  0
    7.8599   -2.0348    2.4274 C   0  0  0  0  0  0  0  0  0  0  0  0
    8.1080   -2.4919    3.8551 C   0  0  0  0  0  0  0  0  0  0  0  0
    7.1511   -3.0957    4.7043 C   0  0  0  0  0  0  0  0  0  0  0  0
    7.8124   -3.3367    5.8845 C   0  0  0  0  0  0  0  0  0  0  0  0
    7.1516   -3.9125    6.9046 N   0  0  0  0  0  0  0  0  0  0  0  0
    5.8612   -4.2713    6.8249 C   0  0  0  0  0  0  0  0  0  0  0  0
    5.1498   -4.0490    5.6518 C   0  0  0  0  0  0  0  0  0  0  0  0
    5.8123   -3.4530    4.5845 C   0  0  0  0  0  0  0  0  0  0  0  0
    9.1049   -2.9041    5.7647 N   0  0  0  0  0  0  0  0  0  0  0  0
    9.2936   -2.3835    4.5192 C   0  0  0  0  0  0  0  0  0  0  0  0
    0.0620    5.3857    5.4910 C   0  0  0  0  0  0  0  0  0  0  0  0
    2.2654    3.3455    7.8103 H   0  0  0  0  0  0  0  0  0  0  0  0
    1.3761    2.3461    5.8203 H   0  0  0  0  0  0  0  0  0  0  0  0
    0.5269    4.1857    1.7797 H   0  0  0  0  0  0  0  0  0  0  0  0
    3.1638    4.5985    2.5030 H   0  0  0  0  0  0  0  0  0  0  0  0
    5.2515    3.4208    2.4781 H   0  0  0  0  0  0  0  0  0  0  0  0
    3.2155   -0.1926    2.4853 H   0  0  0  0  0  0  0  0  0  0  0  0
    1.1277    0.9848    2.5111 H   0  0  0  0  0  0  0  0  0  0  0  0
    8.7333   -1.9511    1.9476 H   0  0  0  0  0  0  0  0  0  0  0  0
    7.2846   -2.7047    1.9581 H   0  0  0  0  0  0  0  0  0  0  0  0
    5.4114   -4.6985    7.6093 H   0  0  0  0  0  0  0  0  0  0  0  0
    4.1875   -4.3106    5.5773 H   0  0  0  0  0  0  0  0  0  0  0  0
    5.3249   -3.2808    3.7285 H   0  0  0  0  0  0  0  0  0  0  0  0
    9.8021   -2.9611    6.4793 H   0  0  0  0  0  0  0  0  0  0  0  0
   10.1422   -1.9951    4.1601 H   0  0  0  0  0  0  0  0  0  0  0  0
   -0.5186    5.9213    4.8778 H   0  0  0  0  0  0  0  0  0  0  0  0
  1  2  1  0  0  0  0
  2  3  1  0  0  0  0
  3  4  1  0  0  0  0
  3  5  2  0  0  0  0
  5  6  1  0  0  0  0
  6  7  2  0  0  0  0
  7  8  1  0  0  0  0
  8  9  2  0  0  0  0
  8 10  2  0  0  0  0
  8 11  1  0  0  0  0
 11 12  1  0  0  0  0
 12 13  1  0  0  0  0
 13 14  2  0  0  0  0
 14 15  1  0  0  0  0
 15 16  2  0  0  0  0
 16 17  1  0  0  0  0
 17 12  2  0  0  0  0
 15 18  1  0  0  0  0
 18 19  1  0  0  0  0
 19 20  1  0  0  0  0
 20 21  2  0  0  0  0
 21 22  1  0  0  0  0
 18 22  2  0  0  0  0
 21 23  1  0  0  0  0
 23 24  1  0  0  0  0
 24 25  1  0  0  0  0
 25 26  1  0  0  0  0
 26 27  2  0  0  0  0
 27 28  1  0  0  0  0
 28 29  2  0  0  0  0
 29 30  1  0  0  0  0
 30 25  2  0  0  0  0
 26 31  1  0  0  0  0
 31 32  1  0  0  0  0
 24 32  2  0  0  0  0
  7 33  1  0  0  0  0
 33  2  2  0  0  0  0
  5 34  1  0  0  0  0
  6 35  1  0  0  0  0
 11 36  1  0  0  0  0
 13 37  1  0  0  0  0
 14 38  1  0  0  0  0
 16 39  1  0  0  0  0
 17 40  1  0  0  0  0
 23 41  1  0  0  0  0
 23 42  1  0  0  0  0
 28 43  1  0  0  0  0
 29 44  1  0  0  0  0
 30 45  1  0  0  0  0
 31 46  1  0  0  0  0
 32 47  1  0  0  0  0
 33 48  1  0  0  0  0
M  END
>  <result-rank>
90

>  <similarity>
0.893

>  <query-name>


>  <query-smiles>
S(=O)(=O)(Nc1cc2c(NN=C2C=3Nc4c(ccc(c4)C)C3)cc1)c5cc(F)ccc5

>  <source>
REALspace_2019-12

>  <similarity-descriptor>
0.950;0.905;0.882;0.680;0.938;1.000;1.000;0.0;0.0

>  <similarity-descriptor-smiles>
Clc1ccccc1F;CC1=CNcc1;c1cccnc1;C1=NC=NO1;c1ccccc1;S(=O)=O;N;;

>  <reaction-name>
s_270196

>  <reagent1-name>
8770982

>  <reagent1-smiles>
[R1*]=NC(=NO[R2*])CC=1c2c(nccc2)NC1

>  <reagent2-name>
8773732

>  <reagent2-smiles>
[R1*]C([R2*])c1ccc(NS(=O)(=O)c2cc(Cl)c(F)cc2)cc1

$$$$
m_275592____14114784____15840316____15856734
          04022017313D 1   1.00000     0.00000     0
            
 52 55  0  0  0  0            999 V2000
   -0.4962    0.3768    6.3176 F   0  0  0  0  0  0  0  0  0  0  0  0
   -1.1168    1.5001    6.6737 C   0  0  0  0  0  0  0  0  0  0  0  0
   -1.0163    2.6565    5.8967 C   0  0  0  0  0  0  0  0  0  0  0  0
   -1.6854    3.7837    6.3250 C   0  0  0  0  0  0  0  0  0  0  0  0
   -1.4693    4.8057    5.4485 N   0  0  0  0  0  0  0  0  0  0  0  0
   -0.6589    4.3566    4.4457 C   0  0  0  0  0  0  0  0  0  0  0  0
   -0.3718    3.0484    4.7008 C   0  0  0  0  0  0  0  0  0  0  0  0
    0.4652    2.2114    3.8639 C   0  0  0  0  0  0  0  0  0  0  0  0
    0.6642    1.0677    4.1675 O   0  0  0  0  0  0  0  0  0  0  0  0
    1.0289    2.7263    2.7263 N   0  0  0  0  0  0  0  0  0  0  0  0
    1.8776    1.8776    1.8776 C   0  0  0  0  0  0  0  0  0  0  0  0
    1.0000    1.0000    1.0000 C   0  0  3  0  0  0  0  0  0  0  0  0
    1.8487    0.1513    0.1513 N   0  0  0  0  0  0  0  0  0  0  0  0
    1.7598   -1.2129    0.2402 C   0  0  0  0  0  0  0  0  0  0  0  0
    0.9891   -1.7150    1.0109 O   0  0  0  0  0  0  0  0  0  0  0  0
    2.6374   -2.0905   -0.6374 C   0  0  0  0  0  0  0  0  0  0  0  0
    2.4384   -2.1467   -1.8194 O   0  0  0  0  0  0  0  0  0  0  0  0
    3.7151   -2.8598   -0.0462 C   0  0  0  0  0  0  0  0  0  0  0  0
    4.5089   -3.6579   -0.8633 C   0  0  0  0  0  0  0  0  0  0  0  0
    5.5472   -4.4020   -0.3120 C   0  0  0  0  0  0  0  0  0  0  0  0
    5.7755   -4.3364    1.0581 C   0  0  0  0  0  0  0  0  0  0  0  0
    6.7647   -5.0426    1.5976 F   0  0  0  0  0  0  0  0  0  0  0  0
    4.9818   -3.5389    1.8752 C   0  0  0  0  0  0  0  0  0  0  0  0
    3.9438   -2.7948    1.3247 C   0  0  0  0  0  0  0  0  0  0  0  0
    0.1223    1.8777    0.1223 C   0  0  0  0  0  0  0  0  0  0  0  0
    0.6961    2.6130   -0.9098 C   0  0  0  0  0  0  0  0  0  0  0  0
   -0.1106    3.4156   -1.7100 C   0  0  0  0  0  0  0  0  0  0  0  0
   -1.4803    3.4775   -1.4763 C   0  0  0  0  0  0  0  0  0  0  0  0
   -2.0426    2.7383   -0.4428 C   0  0  0  0  0  0  0  0  0  0  0  0
   -1.2466    1.9325    0.3648 C   0  0  0  0  0  0  0  0  0  0  0  0
   -2.4354    3.7700    7.4970 C   0  0  0  0  0  0  0  0  0  0  0  0
   -2.5296    2.6137    8.2648 C   0  0  0  0  0  0  0  0  0  0  0  0
   -1.8631    1.4666    7.8476 C   0  0  0  0  0  0  0  0  0  0  0  0
   -1.8424    5.7302    5.5270 H   0  0  0  0  0  0  0  0  0  0  0  0
   -0.3344    4.8907    3.6650 H   0  0  0  0  0  0  0  0  0  0  0  0
    0.8630    3.6794    2.4733 H   0  0  0  0  0  0  0  0  0  0  0  0
    2.4549    1.3002    2.4549 H   0  0  0  0  0  0  0  0  0  0  0  0
    2.4549    2.4549    1.3002 H   0  0  0  0  0  0  0  0  0  0  0  0
    0.4226    0.4226    1.5774 H   0  0  0  0  0  0  0  0  0  0  0  0
    2.4909    0.5697   -0.4909 H   0  0  0  0  0  0  0  0  0  0  0  0
    4.3333   -3.6969   -1.8470 H   0  0  0  0  0  0  0  0  0  0  0  0
    6.1223   -4.9770   -0.8940 H   0  0  0  0  0  0  0  0  0  0  0  0
    5.1574   -3.5004    2.8589 H   0  0  0  0  0  0  0  0  0  0  0  0
    3.3689   -2.2201    1.9071 H   0  0  0  0  0  0  0  0  0  0  0  0
    1.6811    2.5650   -1.0752 H   0  0  0  0  0  0  0  0  0  0  0  0
    0.2943    3.9480   -2.4533 H   0  0  0  0  0  0  0  0  0  0  0  0
   -2.0603    4.0539   -2.0519 H   0  0  0  0  0  0  0  0  0  0  0  0
   -3.0278    2.7859   -0.2783 H   0  0  0  0  0  0  0  0  0  0  0  0
   -1.6521    1.4008    1.1083 H   0  0  0  0  0  0  0  0  0  0  0  0
   -2.9114    4.5992    7.7901 H   0  0  0  0  0  0  0  0  0  0  0  0
   -3.0697    2.6075    9.1063 H   0  0  0  0  0  0  0  0  0  0  0  0
   -1.9197    0.6259    8.3860 H   0  0  0  0  0  0  0  0  0  0  0  0
  1  2  1  0  0  0  0
  2  3  1  0  0  0  0
  3  4  2  0  0  0  0
  4  5  1  0  0  0  0
  5  6  1  0  0  0  0
  6  7  2  0  0  0  0
  7  3  1  0  0  0  0
  7  8  1  0  0  0  0
  8  9  2  0  0  0  0
  8 10  1  0  0  0  0
 10 11  1  0  0  0  0
 11 12  1  0  0  0  0
 12 13  1  0  0  0  0
 13 14  1  0  0  0  0
 14 15  2  0  0  0  0
 14 16  1  0  0  0  0
 16 17  2  0  0  0  0
 16 18  1  0  0  0  0
 18 19  1  0  0  0  0
 19 20  2  0  0  0  0
 20 21  1  0  0  0  0
 21 22  1  0  0  0  0
 21 23  2  0  0  0  0
 23 24  1  0  0  0  0
 24 18  2  0  0  0  0
 12 25  1  0  0  0  0
 25 26  1  0  0  0  0
 26 27  2  0  0  0  0
 27 28  1  0  0  0  0
 28 29  2  0  0  0  0
 29 30  1  0  0  0  0
 30 25  2  0  0  0  0
  4 31  1  0  0  0  0
 31 32  2  0  0  0  0
 32 33  1  0  0  0  0
 33  2  2  0  0  0  0
  5 34  1  0  0  0  0
  6 35  1  0  0  0  0
 10 36  1  0  0  0  0
 11 37  1  0  0  0  0
 11 38  1  0  0  0  0
 12 39  1  0  0  0  0
 13 40  1  0  0  0  0
 19 41  1  0  0  0  0
 20 42  1  0  0  0  0
 23 43  1  0  0  0  0
 24 44  1  0  0  0  0
 26 45  1  0  0  0  0
 27 46  1  0  0  0  0
 28 47  1  0  0  0  0
 29 48  1  0  0  0  0
 30 49  1  0  0  0  0
 31 50  1  0  0  0  0
 32 51  1  0  0  0  0
 33 52  1  0  0  0  0
M  END
>  <result-rank>
91

>  <similarity>
0.893

>  <query-name>


>  <query-smiles>
S(=O)(=O)(Nc1cc2c(NN=C2C=3Nc4c(ccc(c4)C)C3)cc1)c5cc(F)ccc5

>  <source>
REALspace_2019-12

>  <similarity-descriptor>
0.999;1.000;0.977;0.574;0.851;0.876;0.982;0.0;0.0

>  <similarity-descriptor-smiles>
c1ccc(cc1)F;c1C=CNc1;Fc1ccccc1;C(=O)NC;Cc1ccccc1;C(=O)C=O;N;;

>  <reaction-name>
m_275592

>  <reagent1-name>
14114784

>  <reagent1-smiles>
[R2*]NC(c1ccccc1)CN[R1*]

>  <reagent2-name>
15840316

>  <reagent2-smiles>
[R1*]C(=O)C=1c2c(F)cccc2NC1

>  <reagent3-name>
15856734

>  <reagent3-smiles>
[R2*]C(=O)C(=O)c1ccc(F)cc1

$$$$
EN300-97624
          04022017313D 1   1.00000     0.00000     0
            
 34 36  0  0  0  0            999 V2000
    0.2728    3.8349    2.5310 Br  0  0  0  0  0  0  0  0  0  0  0  0
    1.9821    2.8757    2.5101 C   0  0  0  0  0  0  0  0  0  0  0  0
    3.1788    3.5859    2.5020 C   0  0  0  0  0  0  0  0  0  0  0  0
    3.1526    4.9354    2.5095 O   0  0  0  0  0  0  0  0  0  0  0  0
    4.3682    5.6692    2.5014 C   0  0  0  0  0  0  0  0  0  0  0  0
    4.3963    2.9144    2.4866 C   0  0  0  0  0  0  0  0  0  0  0  0
    4.3934    1.5238    2.4793 C   0  0  0  0  0  0  0  0  0  0  0  0
    5.9146    0.6791    2.4604 S   0  0  0  0  0  0  0  0  0  0  0  0
    5.7570   -0.5782    1.7764 O   0  0  0  0  0  0  0  0  0  0  0  0
    6.8985    1.4776    1.7764 O   0  0  0  0  0  0  0  0  0  0  0  0
    6.4042    0.4073    3.9912 N   0  0  0  0  0  0  0  0  0  0  0  0
    5.7203   -0.5172    4.7917 C   0  0  0  0  0  0  0  0  0  0  0  0
    5.1215   -0.1223    5.9840 C   0  0  0  0  0  0  0  0  0  0  0  0
    4.4456   -1.0497    6.7715 C   0  0  0  0  0  0  0  0  0  0  0  0
    3.7920   -0.8966    7.9572 N   0  0  0  0  0  0  0  0  0  0  0  0
    3.2960   -2.0642    8.3306 N   0  0  0  0  0  0  0  0  0  0  0  0
    3.5910   -2.9857    7.4418 C   0  0  0  0  0  0  0  0  0  0  0  0
    4.3401   -2.3711    6.4106 C   0  0  0  0  0  0  0  0  0  0  0  0
    4.9420   -2.7622    5.2180 C   0  0  0  0  0  0  0  0  0  0  0  0
    5.6236   -1.8529    4.4137 C   0  0  0  0  0  0  0  0  0  0  0  0
    3.1998    0.8088    2.4869 C   0  0  0  0  0  0  0  0  0  0  0  0
    1.9842    1.4849    2.5023 C   0  0  0  0  0  0  0  0  0  0  0  0
    4.1665    6.6486    2.5087 H   0  0  0  0  0  0  0  0  0  0  0  0
    4.9053    5.4335    3.3114 H   0  0  0  0  0  0  0  0  0  0  0  0
    4.8891    5.4422    1.6785 H   0  0  0  0  0  0  0  0  0  0  0  0
    5.2579    3.4220    2.4809 H   0  0  0  0  0  0  0  0  0  0  0  0
    7.1926    0.9003    4.3590 H   0  0  0  0  0  0  0  0  0  0  0  0
    5.1770    0.8323    6.2765 H   0  0  0  0  0  0  0  0  0  0  0  0
    3.7019   -0.0391    8.4637 H   0  0  0  0  0  0  0  0  0  0  0  0
    3.3320   -3.9505    7.4862 H   0  0  0  0  0  0  0  0  0  0  0  0
    4.8834   -3.7187    4.9322 H   0  0  0  0  0  0  0  0  0  0  0  0
    6.0454   -2.1609    3.5609 H   0  0  0  0  0  0  0  0  0  0  0  0
    3.2158   -0.1911    2.4813 H   0  0  0  0  0  0  0  0  0  0  0  0
    1.1226    0.9774    2.5078 H   0  0  0  0  0  0  0  0  0  0  0  0
  1  2  1  0  0  0  0
  2  3  1  0  0  0  0
  3  4  1  0  0  0  0
  4  5  1  0  0  0  0
  3  6  2  0  0  0  0
  6  7  1  0  0  0  0
  7  8  1  0  0  0  0
  8  9  2  0  0  0  0
  8 10  2  0  0  0  0
  8 11  1  0  0  0  0
 11 12  1  0  0  0  0
 12 13  1  0  0  0  0
 13 14  2  0  0  0  0
 14 15  1  0  0  0  0
 15 16  1  0  0  0  0
 16 17  2  0  0  0  0
 17 18  1  0  0  0  0
 18 14  1  0  0  0  0
 18 19  2  0  0  0  0
 19 20  1  0  0  0  0
 20 12  2  0  0  0  0
  7 21  2  0  0  0  0
 21 22  1  0  0  0  0
 22  2  2  0  0  0  0
  5 23  1  0  0  0  0
  5 24  1  0  0  0  0
  5 25  1  0  0  0  0
  6 26  1  0  0  0  0
 11 27  1  0  0  0  0
 13 28  1  0  0  0  0
 15 29  1  0  0  0  0
 17 30  1  0  0  0  0
 19 31  1  0  0  0  0
 20 32  1  0  0  0  0
 21 33  1  0  0  0  0
 22 34  1  0  0  0  0
M  END
>  <result-rank>
92

>  <similarity>
0.893

>  <query-name>


>  <query-smiles>
S(=O)(=O)(Nc1cc2c(NN=C2C=3Nc4c(ccc(c4)C)C3)cc1)c5cc(F)ccc5

>  <source>
REALspace_2019-12

>  <similarity-descriptor>
0.958;0.0;0.0;0.939;1.000;1.000;1.000;0.0;0.286

>  <similarity-descriptor-smiles>
Brc1ccccc1;;;c1cC=NN1;c1ccccc1;S(=O)=O;N;;O.C

$$$$
s_6____1308954____71241
          04022017313D 1   1.00000     0.00000     0
            
 57 60  0  0  0  0            999 V2000
   -0.0135    3.7233    1.1859 S   0  0  0  0  0  0  0  0  0  0  0  0
    0.7831    4.4526    0.2335 O   0  0  0  0  0  0  0  0  0  0  0  0
   -0.3471    2.4317    0.6436 O   0  0  0  0  0  0  0  0  0  0  0  0
    0.8052    3.5371    2.5243 O   0  0  0  0  0  0  0  0  0  0  0  0
    1.9815    2.8761    2.5093 C   0  0  0  0  0  0  0  0  0  0  0  0
    3.1771    3.5857    2.5018 C   0  0  0  0  0  0  0  0  0  0  0  0
    3.1526    4.9354    2.5095 O   0  0  0  0  0  0  0  0  0  0  0  0
    4.3692    5.6677    2.5019 C   0  0  0  0  0  0  0  0  0  0  0  0
    4.3943    2.9118    2.4874 C   0  0  0  0  0  0  0  0  0  0  0  0
    4.3925    1.5210    2.4801 C   0  0  0  0  0  0  0  0  0  0  0  0
    3.2037    0.7990    2.4875 C   0  0  0  0  0  0  0  0  0  0  0  0
    1.9930    1.4848    2.5026 C   0  0  0  0  0  0  0  0  0  0  0  0
    5.6615    0.8207    2.4636 C   0  0  0  0  0  0  0  0  0  0  0  0
    5.6865   -0.4791    2.4566 C   0  0  0  0  0  0  0  0  0  0  0  0
    5.4791   -1.1717    1.2694 C   0  0  0  0  0  0  0  0  0  0  0  0
    5.3089   -1.7398    0.2958 N   0  0  0  0  0  0  0  0  0  0  0  0
    5.9427   -1.2413    3.7464 C   0  0  0  0  0  0  0  0  0  0  0  0
    5.0244   -1.7187    4.3537 O   0  0  0  0  0  0  0  0  0  0  0  0
    7.2965   -1.3916    4.2430 C   0  0  0  0  0  0  0  0  0  0  0  0
    7.6643   -2.0750    5.4251 C   0  0  0  0  0  0  0  0  0  0  0  0
    9.0368   -1.9543    5.4788 C   0  0  0  0  0  0  0  0  0  0  0  0
    9.4841   -1.2421    4.4033 N   0  0  0  0  0  0  0  0  0  0  0  0
    8.4112   -0.8925    3.6367 C   0  0  0  0  0  0  0  0  0  0  0  0
    9.7469   -2.5224    6.5312 C   0  0  0  0  0  0  0  0  0  0  0  0
    9.0922   -3.2180    7.5425 C   0  0  0  0  0  0  0  0  0  0  0  0
    7.7074   -3.3434    7.4956 C   0  0  0  0  0  0  0  0  0  0  0  0
    7.0094   -2.7704    6.4367 C   0  0  0  0  0  0  0  0  0  0  0  0
    9.8839   -3.8342    8.6842 C   0  0  0  0  0  0  0  0  0  0  0  0
   -1.4744    4.6078    1.5179 C   0  0  0  0  0  0  0  0  0  0  0  0
   -1.4756    5.9962    1.4396 C   0  0  0  0  0  0  0  0  0  0  0  0
   -2.6425    6.7057    1.7047 C   0  0  0  0  0  0  0  0  0  0  0  0
   -3.7977    6.0110    2.0470 C   0  0  0  0  0  0  0  0  0  0  0  0
   -3.7956    4.6222    2.1256 C   0  0  0  0  0  0  0  0  0  0  0  0
   -2.6297    3.9124    1.8601 C   0  0  0  0  0  0  0  0  0  0  0  0
   -5.0748    6.7814    2.3387 C   0  0  0  0  0  0  0  0  0  0  0  0
    4.1686    6.6473    2.5093 H   0  0  0  0  0  0  0  0  0  0  0  0
    4.9056    5.4312    3.3120 H   0  0  0  0  0  0  0  0  0  0  0  0
    4.8900    5.4402    1.6791 H   0  0  0  0  0  0  0  0  0  0  0  0
    5.2561    3.4190    2.4823 H   0  0  0  0  0  0  0  0  0  0  0  0
    3.2188   -0.2008    2.4821 H   0  0  0  0  0  0  0  0  0  0  0  0
    1.1312    0.9777    2.5085 H   0  0  0  0  0  0  0  0  0  0  0  0
    6.5177    1.3373    2.4578 H   0  0  0  0  0  0  0  0  0  0  0  0
   10.4385   -1.0147    4.2099 H   0  0  0  0  0  0  0  0  0  0  0  0
    8.4374   -0.3668    2.7864 H   0  0  0  0  0  0  0  0  0  0  0  0
   10.7421   -2.4296    6.5612 H   0  0  0  0  0  0  0  0  0  0  0  0
    7.2195   -3.8392    8.2141 H   0  0  0  0  0  0  0  0  0  0  0  0
    6.0141   -2.8606    6.4021 H   0  0  0  0  0  0  0  0  0  0  0  0
    9.2576   -4.2922    9.3151 H   0  0  0  0  0  0  0  0  0  0  0  0
   10.5339   -4.5000    8.3179 H   0  0  0  0  0  0  0  0  0  0  0  0
   10.3811   -3.1159    9.1709 H   0  0  0  0  0  0  0  0  0  0  0  0
   -0.6383    6.4842    1.1929 H   0  0  0  0  0  0  0  0  0  0  0  0
   -2.6506    7.7042    1.6498 H   0  0  0  0  0  0  0  0  0  0  0  0
   -4.6327    4.1342    2.3730 H   0  0  0  0  0  0  0  0  0  0  0  0
   -2.6218    2.9140    1.9145 H   0  0  0  0  0  0  0  0  0  0  0  0
   -5.8067    6.1393    2.5669 H   0  0  0  0  0  0  0  0  0  0  0  0
   -4.9222    7.4004    3.1091 H   0  0  0  0  0  0  0  0  0  0  0  0
   -5.3360    7.3115    1.5319 H   0  0  0  0  0  0  0  0  0  0  0  0
  1  2  2  0  0  0  0
  1  3  2  0  0  0  0
  1  4  1  0  0  0  0
  4  5  1  0  0  0  0
  5  6  1  0  0  0  0
  6  7  1  0  0  0  0
  7  8  1  0  0  0  0
  6  9  2  0  0  0  0
  9 10  1  0  0  0  0
 10 11  2  0  0  0  0
 11 12  1  0  0  0  0
 12  5  2  0  0  0  0
 10 13  1  0  0  0  0
 13 14  2  0  0  0  0
 14 15  1  0  0  0  0
 15 16  3  0  0  0  0
 14 17  1  0  0  0  0
 17 18  2  0  0  0  0
 17 19  1  0  0  0  0
 19 20  1  0  0  0  0
 20 21  1  0  0  0  0
 21 22  1  0  0  0  0
 22 23  1  0  0  0  0
 19 23  2  0  0  0  0
 21 24  2  0  0  0  0
 24 25  1  0  0  0  0
 25 26  2  0  0  0  0
 26 27  1  0  0  0  0
 27 20  2  0  0  0  0
 25 28  1  0  0  0  0
  1 29  1  0  0  0  0
 29 30  1  0  0  0  0
 30 31  2  0  0  0  0
 31 32  1  0  0  0  0
 32 33  2  0  0  0  0
 33 34  1  0  0  0  0
 34 29  2  0  0  0  0
 32 35  1  0  0  0  0
  8 36  1  0  0  0  0
  8 37  1  0  0  0  0
  8 38  1  0  0  0  0
  9 39  1  0  0  0  0
 11 40  1  0  0  0  0
 12 41  1  0  0  0  0
 13 42  1  0  0  0  0
 22 43  1  0  0  0  0
 23 44  1  0  0  0  0
 24 45  1  0  0  0  0
 26 46  1  0  0  0  0
 27 47  1  0  0  0  0
 28 48  1  0  0  0  0
 28 49  1  0  0  0  0
 28 50  1  0  0  0  0
 30 51  1  0  0  0  0
 31 52  1  0  0  0  0
 33 53  1  0  0  0  0
 34 54  1  0  0  0  0
 35 55  1  0  0  0  0
 35 56  1  0  0  0  0
 35 57  1  0  0  0  0
M  END
>  <result-rank>
93

>  <similarity>
0.892

>  <query-name>


>  <query-smiles>
S(=O)(=O)(Nc1cc2c(NN=C2C=3Nc4c(ccc(c4)C)C3)cc1)c5cc(F)ccc5

>  <source>
REALspace_2019-12

>  <similarity-descriptor>
0.982;1.000;1.000;0.600;0.981;0.999;0.263;1.000;0.286

>  <similarity-descriptor-smiles>
c1ccccc1;C1=CNcc1;c1ccccc1;C=CC=O;c1ccccc1;S(=O)=O;O;C;O.C.C#N.C

>  <reaction-name>
s_6

>  <reagent1-name>
1308954

>  <reagent1-smiles>
[R1*]=C(C#N)C(=O)C=1c2c(NC1)cc(cc2)C

>  <reagent2-name>
71241

>  <reagent2-smiles>
[R1*]=Cc1cc(OC)c(OS(=O)(=O)c2ccc(cc2)C)cc1

$$$$
s_60____14805780____10747216
          04022017313D 1   1.00000     0.00000     0
            
 44 48  0  0  0  0            999 V2000
    2.9100    2.0392    1.0000 O   0  0  0  0  0  0  0  0  0  0  0  0
    2.3100    1.0000    1.0000 C   0  0  0  0  0  0  0  0  0  0  0  0
    1.0000    1.0000    1.0000 O   0  0  0  0  0  0  0  0  0  0  0  0
    0.2900    2.2298    1.0000 C   0  0  0  0  0  0  0  0  0  0  0  0
   -1.2047    1.9520    1.0000 C   0  0  0  0  0  0  0  0  0  0  0  0
   -1.8822    1.8260    2.2084 C   0  0  0  0  0  0  0  0  0  0  0  0
   -3.2497    1.5710    2.2038 C   0  0  0  0  0  0  0  0  0  0  0  0
   -3.9297    1.4451    0.9971 C   0  0  0  0  0  0  0  0  0  0  0  0
   -3.2428    1.5733   -0.2039 C   0  0  0  0  0  0  0  0  0  0  0  0
   -1.8752    1.8277   -0.2127 C   0  0  0  0  0  0  0  0  0  0  0  0
    3.0349   -0.2556    1.0000 C   0  0  0  0  0  0  0  0  0  0  0  0
    4.3939   -0.3837    1.0000 N   0  0  0  0  0  0  0  0  0  0  0  0
    4.7088   -1.7097    0.9986 C   0  0  0  0  0  0  0  0  0  0  0  0
    3.5408   -2.4143    0.9994 C   0  0  0  0  0  0  0  0  0  0  0  0
    3.4194   -3.8597    0.9917 C   0  0  0  0  0  0  0  0  0  0  0  0
    2.2859   -4.5247    0.9928 N   0  0  0  0  0  0  0  0  0  0  0  0
    2.5846   -5.8563    0.9852 C   0  0  0  0  0  0  0  0  0  0  0  0
    3.9506   -6.0017    0.9702 C   0  0  0  0  0  0  0  0  0  0  0  0
    4.4641   -4.7360    0.9824 N   0  0  0  0  0  0  0  0  0  0  0  0
    4.4245   -7.3112    0.9615 C   0  0  0  0  0  0  0  0  0  0  0  0
    3.5953   -8.3678    0.9639 N   0  0  0  0  0  0  0  0  0  0  0  0
    2.2593   -8.2253    0.9750 C   0  0  0  0  0  0  0  0  0  0  0  0
    1.7196   -6.9443    0.9866 C   0  0  0  0  0  0  0  0  0  0  0  0
    0.3424   -6.7527    1.0011 C   0  0  0  0  0  0  0  0  0  0  0  0
   -0.5120   -7.8495    1.0032 C   0  0  0  0  0  0  0  0  0  0  0  0
    0.0115   -9.1371    0.9906 C   0  0  0  0  0  0  0  0  0  0  0  0
    1.3915   -9.3133    0.9757 C   0  0  0  0  0  0  0  0  0  0  0  0
    2.4678   -1.4942    0.9998 C   0  0  0  0  0  0  0  0  0  0  0  0
    0.5316    2.7541    0.1835 H   0  0  0  0  0  0  0  0  0  0  0  0
    0.5316    2.7541    1.8165 H   0  0  0  0  0  0  0  0  0  0  0  0
   -1.3898    1.9182    3.0739 H   0  0  0  0  0  0  0  0  0  0  0  0
   -3.7438    1.4782    3.0683 H   0  0  0  0  0  0  0  0  0  0  0  0
   -4.9129    1.2624    0.9938 H   0  0  0  0  0  0  0  0  0  0  0  0
   -3.7357    1.4819   -1.0691 H   0  0  0  0  0  0  0  0  0  0  0  0
   -1.3816    1.9198   -1.0775 H   0  0  0  0  0  0  0  0  0  0  0  0
    5.0501    0.3709    1.0009 H   0  0  0  0  0  0  0  0  0  0  0  0
    5.6308   -2.0968    0.9972 H   0  0  0  0  0  0  0  0  0  0  0  0
    5.4346   -4.4948    0.9842 H   0  0  0  0  0  0  0  0  0  0  0  0
    5.4119   -7.4695    0.9533 H   0  0  0  0  0  0  0  0  0  0  0  0
   -0.0335   -5.8261    1.0099 H   0  0  0  0  0  0  0  0  0  0  0  0
   -1.5024   -7.7122    1.0139 H   0  0  0  0  0  0  0  0  0  0  0  0
   -0.5983   -9.9297    0.9921 H   0  0  0  0  0  0  0  0  0  0  0  0
    1.7672  -10.2400    0.9654 H   0  0  0  0  0  0  0  0  0  0  0  0
    1.4911   -1.7088    0.9999 H   0  0  0  0  0  0  0  0  0  0  0  0
  1  2  2  0  0  0  0
  2  3  1  0  0  0  0
  3  4  1  0  0  0  0
  4  5  1  0  0  0  0
  5  6  1  0  0  0  0
  6  7  2  0  0  0  0
  7  8  1  0  0  0  0
  8  9  2  0  0  0  0
  9 10  1  0  0  0  0
 10  5  2  0  0  0  0
  2 11  1  0  0  0  0
 11 12  1  0  0  0  0
 12 13  1  0  0  0  0
 13 14  2  0  0  0  0
 14 15  1  0  0  0  0
 15 16  2  0  0  0  0
 16 17  1  0  0  0  0
 17 18  1  0  0  0  0
 18 19  1  0  0  0  0
 19 15  1  0  0  0  0
 18 20  2  0  0  0  0
 20 21  1  0  0  0  0
 21 22  2  0  0  0  0
 22 23  1  0  0  0  0
 23 17  2  0  0  0  0
 23 24  1  0  0  0  0
 24 25  2  0  0  0  0
 25 26  1  0  0  0  0
 26 27  2  0  0  0  0
 27 22  1  0  0  0  0
 14 28  1  0  0  0  0
 11 28  2  0  0  0  0
  4 29  1  0  0  0  0
  4 30  1  0  0  0  0
  6 31  1  0  0  0  0
  7 32  1  0  0  0  0
  8 33  1  0  0  0  0
  9 34  1  0  0  0  0
 10 35  1  0  0  0  0
 12 36  1  0  0  0  0
 13 37  1  0  0  0  0
 19 38  1  0  0  0  0
 20 39  1  0  0  0  0
 24 40  1  0  0  0  0
 25 41  1  0  0  0  0
 26 42  1  0  0  0  0
 27 43  1  0  0  0  0
 28 44  1  0  0  0  0
M  END
>  <result-rank>
94

>  <similarity>
0.892

>  <query-name>


>  <query-smiles>
S(=O)(=O)(Nc1cc2c(NN=C2C=3Nc4c(ccc(c4)C)C3)cc1)c5cc(F)ccc5

>  <source>
REALspace_2019-12

>  <similarity-descriptor>
0.967;0.765;0.953;0.999;0.880;0.747;0.880;0.0;0.0

>  <similarity-descriptor-smiles>
c1ccccc1;c1ccncc1;c1ccccc1;C=1NccN1;C1=CC=CN1;O=COC;C1=CC=CN1;;

>  <reaction-name>
s_60

>  <reagent1-name>
14805780

>  <reagent1-smiles>
[R1*]C1=Nc2c(N1)c3c(nc2)cccc3

>  <reagent2-name>
10747216

>  <reagent2-smiles>
[R1*]C1=CNC(C(=O)OCc2ccccc2)=C1

$$$$
s_27c____3049248____12433864
          04022017313D 1   1.00000     0.00000     0
            
 53 56  0  0  0  0            999 V2000
    2.7732   -3.4423    2.7930 Cl  0  0  0  0  0  0  0  0  0  0  0  0
    3.2389   -2.5222    1.3393 C   0  0  0  0  0  0  0  0  0  0  0  0
    2.4585   -1.4565    1.1203 N   0  0  0  0  0  0  0  0  0  0  0  0
    2.6384   -0.6280    0.0806 C   0  0  0  0  0  0  0  0  0  0  0  0
    1.7961    0.4729   -0.1177 N   0  0  0  0  0  0  0  0  0  0  0  0
    1.0000    1.0000    1.0000 C   0  0  0  0  0  0  0  0  0  0  0  0
    1.8777    1.8777    1.8777 C   0  0  0  0  0  0  0  0  0  0  0  0
    1.9718    3.2376    1.6016 C   0  0  0  0  0  0  0  0  0  0  0  0
    2.7760    4.0359    2.4082 C   0  0  0  0  0  0  0  0  0  0  0  0
    2.8786    5.4058    2.1404 N   0  0  0  0  0  0  0  0  0  0  0  0
    2.4259    6.4927    3.2676 S   0  0  0  0  0  0  0  0  0  0  0  0
    3.0449    6.1654    4.5259 O   0  0  0  0  0  0  0  0  0  0  0  0
    2.8390    7.8098    2.8576 O   0  0  0  0  0  0  0  0  0  0  0  0
    0.6957    6.4569    3.4458 C   0  0  0  0  0  0  0  0  0  0  0  0
    0.1129    5.5988    4.3728 C   0  0  0  0  0  0  0  0  0  0  0  0
   -1.2720    5.5805    4.5053 C   0  0  0  0  0  0  0  0  0  0  0  0
   -2.0655    6.4095    3.7193 C   0  0  0  0  0  0  0  0  0  0  0  0
   -1.4728    7.2631    2.7949 C   0  0  0  0  0  0  0  0  0  0  0  0
   -0.0892    7.2899    2.6544 C   0  0  0  0  0  0  0  0  0  0  0  0
    3.4808    3.4949    3.4779 C   0  0  0  0  0  0  0  0  0  0  0  0
    3.3715    2.1327    3.7352 C   0  0  0  0  0  0  0  0  0  0  0  0
    2.5730    1.3144    2.9424 C   0  0  0  0  0  0  0  0  0  0  0  0
    1.7080    1.1016   -1.4436 C   0  0  0  0  0  0  0  0  0  0  0  0
    3.6742   -0.8621   -0.8179 C   0  0  0  0  0  0  0  0  0  0  0  0
    4.5058   -1.9590   -0.6180 C   0  0  0  0  0  0  0  0  0  0  0  0
    4.3030   -2.8129    0.4666 C   0  0  0  0  0  0  0  0  0  0  0  0
    5.1853   -3.8968    0.5970 C   0  0  0  0  0  0  0  0  0  0  0  0
    6.2185   -4.1234   -0.3075 C   0  0  0  0  0  0  0  0  0  0  0  0
    6.3889   -3.2504   -1.3773 C   0  0  0  0  0  0  0  0  0  0  0  0
    5.5322   -2.1661   -1.5340 C   0  0  0  0  0  0  0  0  0  0  0  0
    5.1411   -4.9385    1.7071 C   0  0  0  0  0  0  0  0  0  0  0  0
    0.6414    0.2396    1.5416 H   0  0  0  0  0  0  0  0  0  0  0  0
    0.2396    1.5416    0.6414 H   0  0  0  0  0  0  0  0  0  0  0  0
    1.4687    3.6355    0.8344 H   0  0  0  0  0  0  0  0  0  0  0  0
    3.2295    5.7178    1.2575 H   0  0  0  0  0  0  0  0  0  0  0  0
    0.6828    5.0020    4.9375 H   0  0  0  0  0  0  0  0  0  0  0  0
   -1.6995    4.9674    5.1697 H   0  0  0  0  0  0  0  0  0  0  0  0
   -3.0604    6.3919    3.8188 H   0  0  0  0  0  0  0  0  0  0  0  0
   -2.0430    7.8593    2.2297 H   0  0  0  0  0  0  0  0  0  0  0  0
    0.3380    7.9029    1.9898 H   0  0  0  0  0  0  0  0  0  0  0  0
    4.0568    4.0760    4.0528 H   0  0  0  0  0  0  0  0  0  0  0  0
    3.8749    1.7349    4.5023 H   0  0  0  0  0  0  0  0  0  0  0  0
    2.5001    0.3359    3.1352 H   0  0  0  0  0  0  0  0  0  0  0  0
    1.0658    1.8673   -1.4074 H   0  0  0  0  0  0  0  0  0  0  0  0
    2.6106    1.4361   -1.7146 H   0  0  0  0  0  0  0  0  0  0  0  0
    1.3876    0.4290   -2.1107 H   0  0  0  0  0  0  0  0  0  0  0  0
    3.8187   -0.2508   -1.5960 H   0  0  0  0  0  0  0  0  0  0  0  0
    6.8314   -4.9048   -0.1898 H   0  0  0  0  0  0  0  0  0  0  0  0
    7.1277   -3.4026   -2.0338 H   0  0  0  0  0  0  0  0  0  0  0  0
    5.6536   -1.5376   -2.3023 H   0  0  0  0  0  0  0  0  0  0  0  0
    5.8767   -5.6020    1.5711 H   0  0  0  0  0  0  0  0  0  0  0  0
    5.2581   -4.4877    2.5920 H   0  0  0  0  0  0  0  0  0  0  0  0
    4.2593   -5.4097    1.6870 H   0  0  0  0  0  0  0  0  0  0  0  0
  1  2  1  0  0  0  0
  2  3  1  0  0  0  0
  3  4  2  0  0  0  0
  4  5  1  0  0  0  0
  5  6  1  0  0  0  0
  6  7  1  0  0  0  0
  7  8  1  0  0  0  0
  8  9  2  0  0  0  0
  9 10  1  0  0  0  0
 10 11  1  0  0  0  0
 11 12  2  0  0  0  0
 11 13  2  0  0  0  0
 11 14  1  0  0  0  0
 14 15  1  0  0  0  0
 15 16  2  0  0  0  0
 16 17  1  0  0  0  0
 17 18  2  0  0  0  0
 18 19  1  0  0  0  0
 19 14  2  0  0  0  0
  9 20  1  0  0  0  0
 20 21  2  0  0  0  0
 21 22  1  0  0  0  0
 22  7  2  0  0  0  0
  5 23  1  0  0  0  0
  4 24  1  0  0  0  0
 24 25  2  0  0  0  0
 25 26  1  0  0  0  0
 26  2  2  0  0  0  0
 26 27  1  0  0  0  0
 27 28  2  0  0  0  0
 28 29  1  0  0  0  0
 29 30  2  0  0  0  0
 30 25  1  0  0  0  0
 27 31  1  0  0  0  0
  6 32  1  0  0  0  0
  6 33  1  0  0  0  0
  8 34  1  0  0  0  0
 10 35  1  0  0  0  0
 15 36  1  0  0  0  0
 16 37  1  0  0  0  0
 17 38  1  0  0  0  0
 18 39  1  0  0  0  0
 19 40  1  0  0  0  0
 20 41  1  0  0  0  0
 21 42  1  0  0  0  0
 22 43  1  0  0  0  0
 23 44  1  0  0  0  0
 23 45  1  0  0  0  0
 23 46  1  0  0  0  0
 24 47  1  0  0  0  0
 28 48  1  0  0  0  0
 29 49  1  0  0  0  0
 30 50  1  0  0  0  0
 31 51  1  0  0  0  0
 31 52  1  0  0  0  0
 31 53  1  0  0  0  0
M  END
>  <result-rank>
95

>  <similarity>
0.892

>  <query-name>


>  <query-smiles>
S(=O)(=O)(Nc1cc2c(NN=C2C=3Nc4c(ccc(c4)C)C3)cc1)c5cc(F)ccc5

>  <source>
REALspace_2019-12

>  <similarity-descriptor>
0.967;0.710;0.998;0.710;0.869;1.000;1.000;1.000;0.100

>  <similarity-descriptor-smiles>
c1ccccc1;Clc1ccccn1;c1ccccc1;Clc1ccccn1;NCc1ccccc1;S(=O)=O;N;C;C

>  <reaction-name>
s_27c

>  <reagent1-name>
3049248

>  <reagent1-smiles>
[R1*]N(Cc1cc(NS(=O)(=O)c2ccccc2)ccc1)C

>  <reagent2-name>
12433864

>  <reagent2-smiles>
[R1*]c1nc(Cl)c2c(c1)cccc2C

$$$$
s_240690b____7357692____14038776
          04022017313D 1   1.00000     0.00000     0
            
 57 60  0  0  0  0            999 V2000
    7.3802    1.6398    2.2587 S   0  0  0  0  0  0  0  0  0  0  0  0
    8.7780    1.7328    1.9255 O   0  0  0  0  0  0  0  0  0  0  0  0
    6.8647    2.9551    2.5379 O   0  0  0  0  0  0  0  0  0  0  0  0
    6.5648    0.9914    1.0051 N   0  0  0  0  0  0  0  0  0  0  0  0
    5.1649    0.9918    1.0053 C   0  0  0  0  0  0  0  0  0  0  0  0
    4.4697    0.0343    1.7363 C   0  0  0  0  0  0  0  0  0  0  0  0
    3.0785    0.0344    1.7366 C   0  0  0  0  0  0  0  0  0  0  0  0
    2.3998    1.0000    1.0000 C   0  0  0  0  0  0  0  0  0  0  0  0
    1.0000    1.0000    1.0000 N   0  0  0  0  0  0  0  0  0  0  0  0
    0.3150    2.1852    1.0551 C   0  0  0  0  0  0  0  0  0  0  0  0
    0.7944    3.1296    1.6192 O   0  0  0  0  0  0  0  0  0  0  0  0
   -1.0523    2.3038    0.4017 C   0  0  3  0  0  0  0  0  0  0  0  0
   -1.2600    1.1692   -0.5095 N   0  3  0  0  0  0  0  0  0  0  0  0
   -2.5823    1.2839   -1.1413 C   0  0  0  0  0  0  0  0  0  0  0  0
   -2.1289    2.2958    1.4746 C   0  0  0  0  0  0  0  0  0  0  0  0
   -2.4075    3.7211    1.9236 C   0  0  0  0  0  0  0  0  0  0  0  0
   -1.9752    4.2874    3.1458 C   0  0  0  0  0  0  0  0  0  0  0  0
   -2.4556    5.5791    3.1109 C   0  0  0  0  0  0  0  0  0  0  0  0
   -3.1427    5.7831    1.9435 N   0  0  0  0  0  0  0  0  0  0  0  0
   -3.1160    4.6368    1.2059 C   0  0  0  0  0  0  0  0  0  0  0  0
   -2.2119    6.4469    4.1706 C   0  0  0  0  0  0  0  0  0  0  0  0
   -1.4820    6.0321    5.2799 C   0  0  0  0  0  0  0  0  0  0  0  0
   -0.9924    4.7308    5.3233 C   0  0  0  0  0  0  0  0  0  0  0  0
   -1.2446    3.8747    4.2560 C   0  0  0  0  0  0  0  0  0  0  0  0
    3.0952    1.9577    0.2691 C   0  0  0  0  0  0  0  0  0  0  0  0
    4.4865    1.9575    0.2685 C   0  0  0  0  0  0  0  0  0  0  0  0
    7.1845    0.6303    3.6622 C   0  0  0  0  0  0  0  0  0  0  0  0
    8.0965   -0.3946    3.8931 C   0  0  0  0  0  0  0  0  0  0  0  0
    7.9331   -1.1975    5.0168 C   0  0  0  0  0  0  0  0  0  0  0  0
    8.7965   -2.1819    5.2527 F   0  0  0  0  0  0  0  0  0  0  0  0
    6.8748   -0.9762    5.8913 C   0  0  0  0  0  0  0  0  0  0  0  0
    6.7341   -1.7532    6.9614 F   0  0  0  0  0  0  0  0  0  0  0  0
    5.9645    0.0490    5.6566 C   0  0  0  0  0  0  0  0  0  0  0  0
    6.1244    0.8547    4.5341 C   0  0  0  0  0  0  0  0  0  0  0  0
   -1.2102    0.3139    0.0064 H   0  0  0  0  0  0  0  0  0  0  0  0
   -0.5517    1.1745   -1.2153 H   0  0  0  0  0  0  0  0  0  0  0  0
    7.0645    0.5933    0.2359 H   0  0  0  0  0  0  0  0  0  0  0  0
    4.9698   -0.6542    2.2615 H   0  0  0  0  0  0  0  0  0  0  0  0
    2.5725   -0.6512    2.2599 H   0  0  0  0  0  0  0  0  0  0  0  0
    0.5000    0.1349    0.9598 H   0  0  0  0  0  0  0  0  0  0  0  0
   -1.1021    3.1591   -0.1141 H   0  0  0  0  0  0  0  0  0  0  0  0
   -2.7237    0.5120   -1.7612 H   0  0  0  0  0  0  0  0  0  0  0  0
   -3.2907    1.2786   -0.4355 H   0  0  0  0  0  0  0  0  0  0  0  0
   -2.6322    2.1392   -1.6572 H   0  0  0  0  0  0  0  0  0  0  0  0
   -2.9660    1.8935    1.1039 H   0  0  0  0  0  0  0  0  0  0  0  0
   -1.8169    1.7552    2.2559 H   0  0  0  0  0  0  0  0  0  0  0  0
   -3.5916    6.6355    1.6754 H   0  0  0  0  0  0  0  0  0  0  0  0
   -3.5361    4.4953    0.3096 H   0  0  0  0  0  0  0  0  0  0  0  0
   -2.5660    7.3814    4.1345 H   0  0  0  0  0  0  0  0  0  0  0  0
   -1.3113    6.6622    6.0374 H   0  0  0  0  0  0  0  0  0  0  0  0
   -0.4654    4.4144    6.1121 H   0  0  0  0  0  0  0  0  0  0  0  0
   -0.8921    2.9394    4.2873 H   0  0  0  0  0  0  0  0  0  0  0  0
    2.5951    2.6464   -0.2558 H   0  0  0  0  0  0  0  0  0  0  0  0
    4.9925    2.6430   -0.2550 H   0  0  0  0  0  0  0  0  0  0  0  0
    8.8563   -0.5512    3.2620 H   0  0  0  0  0  0  0  0  0  0  0  0
    5.2042    0.2048    6.2873 H   0  0  0  0  0  0  0  0  0  0  0  0
    5.4772    1.5954    4.3540 H   0  0  0  0  0  0  0  0  0  0  0  0
  1  2  2  0  0  0  0
  1  3  2  0  0  0  0
  1  4  1  0  0  0  0
  4  5  1  0  0  0  0
  5  6  1  0  0  0  0
  6  7  2  0  0  0  0
  7  8  1  0  0  0  0
  8  9  1  0  0  0  0
  9 10  1  0  0  0  0
 10 11  2  0  0  0  0
 10 12  1  0  0  0  0
 12 13  1  0  0  0  0
 13 14  1  0  0  0  0
 12 15  1  0  0  0  0
 15 16  1  0  0  0  0
 16 17  1  0  0  0  0
 17 18  1  0  0  0  0
 18 19  1  0  0  0  0
 19 20  1  0  0  0  0
 16 20  2  0  0  0  0
 18 21  2  0  0  0  0
 21 22  1  0  0  0  0
 22 23  2  0  0  0  0
 23 24  1  0  0  0  0
 24 17  2  0  0  0  0
  8 25  2  0  0  0  0
 25 26  1  0  0  0  0
 26  5  2  0  0  0  0
  1 27  1  0  0  0  0
 27 28  1  0  0  0  0
 28 29  2  0  0  0  0
 29 30  1  0  0  0  0
 29 31  1  0  0  0  0
 31 32  1  0  0  0  0
 31 33  2  0  0  0  0
 33 34  1  0  0  0  0
 34 27  2  0  0  0  0
 13 35  1  0  0  0  0
 13 36  1  0  0  0  0
  4 37  1  0  0  0  0
  6 38  1  0  0  0  0
  7 39  1  0  0  0  0
  9 40  1  0  0  0  0
 12 41  1  0  0  0  0
 14 42  1  0  0  0  0
 14 43  1  0  0  0  0
 14 44  1  0  0  0  0
 15 45  1  0  0  0  0
 15 46  1  0  0  0  0
 19 47  1  0  0  0  0
 20 48  1  0  0  0  0
 21 49  1  0  0  0  0
 22 50  1  0  0  0  0
 23 51  1  0  0  0  0
 24 52  1  0  0  0  0
 25 53  1  0  0  0  0
 26 54  1  0  0  0  0
 28 55  1  0  0  0  0
 33 56  1  0  0  0  0
 34 57  1  0  0  0  0
M  CHG  1  13   1
M  END
>  <result-rank>
96

>  <similarity>
0.892

>  <query-name>


>  <query-smiles>
S(=O)(=O)(Nc1cc2c(NN=C2C=3Nc4c(ccc(c4)C)C3)cc1)c5cc(F)ccc5

>  <source>
REALspace_2019-12

>  <similarity-descriptor>
0.965;0.906;0.953;0.592;0.936;1.000;1.000;0.0;0.167

>  <similarity-descriptor-smiles>
c1ccc(c(c1)F)F;CC1=CNcc1;c1ccccc1;NC(=O)C;c1ccccc1;S(=O)=O;N;;[NH2+].C

>  <reaction-name>
s_240690b

>  <reagent1-name>
7357692

>  <reagent1-smiles>
[R1*]Nc1ccc(NS(=O)(=O)c2cc(F)c(F)cc2)cc1

>  <reagent2-name>
14038776

>  <reagent2-smiles>
[R1*]C(=O)C(NC)CC=1c2c(NC1)cccc2

$$$$
s_11a____52494____954394
          04022017313D 1   1.00000     0.00000     0
            
 50 54  0  0  0  0            999 V2000
    3.3831    3.5589    2.4991 S   0  0  0  0  0  0  0  0  0  0  0  0
    4.2670    2.1059    2.4948 C   0  0  0  0  0  0  0  0  0  0  0  0
    5.6624    1.9886    2.4971 N   0  0  0  0  0  0  0  0  0  0  0  0
    6.2457    0.7490    2.4930 C   0  0  0  0  0  0  0  0  0  0  0  0
    5.6182   -0.2081    2.1322 O   0  0  0  0  0  0  0  0  0  0  0  0
    7.6208    0.5935    2.9245 C   0  0  0  0  0  0  0  0  0  0  0  0
    8.1936   -0.6739    2.9125 C   0  0  0  0  0  0  0  0  0  0  0  0
    9.5129   -0.8181    3.3275 C   0  0  0  0  0  0  0  0  0  0  0  0
   10.0786   -2.0218    3.3218 F   0  0  0  0  0  0  0  0  0  0  0  0
   10.2517    0.2821    3.7497 C   0  0  0  0  0  0  0  0  0  0  0  0
    9.6674    1.5446    3.7574 C   0  0  0  0  0  0  0  0  0  0  0  0
    8.3491    1.7024    3.3442 C   0  0  0  0  0  0  0  0  0  0  0  0
    3.3653    1.0868    2.4927 C   0  0  0  0  0  0  0  0  0  0  0  0
    2.0179    1.5312    2.4897 C   0  0  0  0  0  0  0  0  0  0  0  0
    1.8232    2.8844    2.4936 C   0  0  0  0  0  0  0  0  0  0  0  0
    0.5644    3.6017    2.4880 C   0  0  0  0  0  0  0  0  0  0  0  0
    0.4907    4.6802    1.9671 O   0  0  0  0  0  0  0  0  0  0  0  0
   -0.5418    3.0486    3.0773 N   0  0  0  0  0  0  0  0  0  0  0  0
   -1.5708    3.8722    3.5441 C   0  0  0  0  0  0  0  0  0  0  0  0
   -2.9274    4.3916    2.6572 S   0  0  0  0  0  0  0  0  0  0  0  0
   -3.6517    5.3169    3.8900 C   0  0  0  0  0  0  0  0  0  0  0  0
   -2.7960    5.1787    4.9357 C   0  0  0  0  0  0  0  0  0  0  0  0
   -1.6845    4.4040    4.7353 N   0  0  0  0  0  0  0  0  0  0  0  0
   -3.1164    5.8592    6.1754 C   0  0  0  0  0  0  0  0  0  0  0  0
   -4.4218    6.1407    6.6410 C   0  0  0  0  0  0  0  0  0  0  0  0
   -4.2400    6.7946    7.8398 C   0  0  0  0  0  0  0  0  0  0  0  0
   -2.8975    6.8949    8.0898 N   0  0  0  0  0  0  0  0  0  0  0  0
   -2.1991    6.3236    7.0694 C   0  0  0  0  0  0  0  0  0  0  0  0
   -5.3379    7.2274    8.5751 C   0  0  0  0  0  0  0  0  0  0  0  0
   -6.6334    7.0138    8.1166 C   0  0  0  0  0  0  0  0  0  0  0  0
   -6.8272    6.3574    6.9054 C   0  0  0  0  0  0  0  0  0  0  0  0
   -5.7193    5.9291    6.1824 C   0  0  0  0  0  0  0  0  0  0  0  0
    0.8383    0.5810    2.4818 C   0  0  0  0  0  0  0  0  0  0  0  0
    6.2332    2.8097    2.5017 H   0  0  0  0  0  0  0  0  0  0  0  0
    7.6658   -1.4678    2.6106 H   0  0  0  0  0  0  0  0  0  0  0  0
   11.1995    0.1661    4.0466 H   0  0  0  0  0  0  0  0  0  0  0  0
   10.1952    2.3383    4.0599 H   0  0  0  0  0  0  0  0  0  0  0  0
    7.9263    2.6086    3.3487 H   0  0  0  0  0  0  0  0  0  0  0  0
    3.6262    0.1214    2.4933 H   0  0  0  0  0  0  0  0  0  0  0  0
   -0.6133    2.0558    3.1737 H   0  0  0  0  0  0  0  0  0  0  0  0
   -4.5043    5.8381    3.8528 H   0  0  0  0  0  0  0  0  0  0  0  0
   -2.4919    7.3222    8.8978 H   0  0  0  0  0  0  0  0  0  0  0  0
   -1.2043    6.2577    6.9914 H   0  0  0  0  0  0  0  0  0  0  0  0
   -5.1940    7.6986    9.4453 H   0  0  0  0  0  0  0  0  0  0  0  0
   -7.4173    7.3287    8.6518 H   0  0  0  0  0  0  0  0  0  0  0  0
   -7.7513    6.1955    6.5593 H   0  0  0  0  0  0  0  0  0  0  0  0
   -5.8579    5.4576    5.3115 H   0  0  0  0  0  0  0  0  0  0  0  0
    1.1701   -0.3623    2.4798 H   0  0  0  0  0  0  0  0  0  0  0  0
    0.2798    0.7362    3.2966 H   0  0  0  0  0  0  0  0  0  0  0  0
    0.2862    0.7418    1.6637 H   0  0  0  0  0  0  0  0  0  0  0  0
  1  2  1  0  0  0  0
  2  3  1  0  0  0  0
  3  4  1  0  0  0  0
  4  5  2  0  0  0  0
  4  6  1  0  0  0  0
  6  7  1  0  0  0  0
  7  8  2  0  0  0  0
  8  9  1  0  0  0  0
  8 10  1  0  0  0  0
 10 11  2  0  0  0  0
 11 12  1  0  0  0  0
 12  6  2  0  0  0  0
  2 13  2  0  0  0  0
 13 14  1  0  0  0  0
 14 15  2  0  0  0  0
 15  1  1  0  0  0  0
 15 16  1  0  0  0  0
 16 17  2  0  0  0  0
 16 18  1  0  0  0  0
 18 19  1  0  0  0  0
 19 20  1  0  0  0  0
 20 21  1  0  0  0  0
 21 22  2  0  0  0  0
 22 23  1  0  0  0  0
 19 23  2  0  0  0  0
 22 24  1  0  0  0  0
 24 25  1  0  0  0  0
 25 26  1  0  0  0  0
 26 27  1  0  0  0  0
 27 28  1  0  0  0  0
 24 28  2  0  0  0  0
 26 29  2  0  0  0  0
 29 30  1  0  0  0  0
 30 31  2  0  0  0  0
 31 32  1  0  0  0  0
 32 25  2  0  0  0  0
 14 33  1  0  0  0  0
  3 34  1  0  0  0  0
  7 35  1  0  0  0  0
 10 36  1  0  0  0  0
 11 37  1  0  0  0  0
 12 38  1  0  0  0  0
 13 39  1  0  0  0  0
 18 40  1  0  0  0  0
 21 41  1  0  0  0  0
 27 42  1  0  0  0  0
 28 43  1  0  0  0  0
 29 44  1  0  0  0  0
 30 45  1  0  0  0  0
 31 46  1  0  0  0  0
 32 47  1  0  0  0  0
 33 48  1  0  0  0  0
 33 49  1  0  0  0  0
 33 50  1  0  0  0  0
M  END
>  <result-rank>
97

>  <similarity>
0.891

>  <query-name>


>  <query-smiles>
S(=O)(=O)(Nc1cc2c(NN=C2C=3Nc4c(ccc(c4)C)C3)cc1)c5cc(F)ccc5

>  <source>
REALspace_2019-12

>  <similarity-descriptor>
0.999;1.000;0.953;0.846;0.820;0.626;0.982;0.0;0.100

>  <similarity-descriptor-smiles>
c1cccc(c1)F;C1=CNcc1;c1ccccc1;NC1=NC=CS1;S1C(=CC=C1)C=O;C=O;N;;C

>  <reaction-name>
s_11a

>  <reagent1-name>
52494

>  <reagent1-smiles>
[R1*]NC=1SC=C(N1)C=2c3c(NC2)cccc3

>  <reagent2-name>
954394

>  <reagent2-smiles>
[R1*]C(=O)C=1SC(NC(=O)c2cc(F)ccc2)=CC1C

$$$$
s_270196____8770754____8773206
          04022017313D 1   1.00000     0.00000     0
            
 48 52  0  0  0  0            999 V2000
   -0.2812    3.3391    3.7578 S   0  0  0  0  0  0  0  0  0  0  0  0
   -1.5431    3.9538    3.4361 O   0  0  0  0  0  0  0  0  0  0  0  0
   -0.4756    1.9287    3.9736 O   0  0  0  0  0  0  0  0  0  0  0  0
    0.7615    3.5615    2.5249 N   0  0  0  0  0  0  0  0  0  0  0  0
    1.9840    2.8787    2.5100 C   0  0  0  0  0  0  0  0  0  0  0  0
    3.1767    3.5941    2.4993 C   0  0  0  0  0  0  0  0  0  0  0  0
    4.3927    2.9183    2.4838 C   0  0  0  0  0  0  0  0  0  0  0  0
    4.3954    1.5271    2.4800 C   0  0  0  0  0  0  0  0  0  0  0  0
    3.2040    0.8092    2.4905 C   0  0  0  0  0  0  0  0  0  0  0  0
    1.9898    1.4877    2.5058 C   0  0  0  0  0  0  0  0  0  0  0  0
    5.7226    0.7865    2.4629 C   0  0  0  0  0  0  0  0  0  0  0  0
    6.1814    0.5358    3.8900 C   0  0  0  0  0  0  0  0  0  0  0  0
    5.8965   -0.5161    4.6137 O   0  0  0  0  0  0  0  0  0  0  0  0
    6.4359   -0.4138    5.7544 N   0  0  0  0  0  0  0  0  0  0  0  0
    7.0885    0.7219    5.8017 C   0  0  0  0  0  0  0  0  0  0  0  0
    6.9311    1.3415    4.6019 N   0  0  0  0  0  0  0  0  0  0  0  0
    7.8463    1.2257    6.9326 C   0  0  0  0  0  0  0  0  0  0  0  0
    8.5004    2.3583    6.9790 N   0  0  0  0  0  0  0  0  0  0  0  0
    9.0821    2.5142    8.1492 N   0  0  0  0  0  0  0  0  0  0  0  0
    8.8005    1.4278    8.9286 C   0  0  0  0  0  0  0  0  0  0  0  0
    8.0112    0.5905    8.1820 C   0  0  0  0  0  0  0  0  0  0  0  0
    7.5709   -0.6045    8.7421 C   0  0  0  0  0  0  0  0  0  0  0  0
    7.9181   -0.9592   10.0417 C   0  0  0  0  0  0  0  0  0  0  0  0
    8.7181   -0.1058   10.7949 C   0  0  0  0  0  0  0  0  0  0  0  0
    9.1554    1.0878   10.2299 C   0  0  0  0  0  0  0  0  0  0  0  0
    0.3650    4.0630    5.2016 C   0  0  0  0  0  0  0  0  0  0  0  0
    0.0722    5.3903    5.4968 C   0  0  0  0  0  0  0  0  0  0  0  0
    0.5923    5.9636    6.6522 C   0  0  0  0  0  0  0  0  0  0  0  0
    1.3963    5.2068    7.4979 C   0  0  0  0  0  0  0  0  0  0  0  0
    1.8901    5.7620    8.6013 F   0  0  0  0  0  0  0  0  0  0  0  0
    1.6854    3.8806    7.1969 C   0  0  0  0  0  0  0  0  0  0  0  0
    1.1688    3.3011    6.0431 C   0  0  0  0  0  0  0  0  0  0  0  0
    0.5283    4.1856    1.7791 H   0  0  0  0  0  0  0  0  0  0  0  0
    3.1602    4.5940    2.5029 H   0  0  0  0  0  0  0  0  0  0  0  0
    5.2541    3.4262    2.4754 H   0  0  0  0  0  0  0  0  0  0  0  0
    3.2204   -0.1906    2.4871 H   0  0  0  0  0  0  0  0  0  0  0  0
    1.1284    0.9798    2.5138 H   0  0  0  0  0  0  0  0  0  0  0  0
    6.4061    1.3384    1.9851 H   0  0  0  0  0  0  0  0  0  0  0  0
    5.6104   -0.0877    1.9904 H   0  0  0  0  0  0  0  0  0  0  0  0
    9.6386    3.2987    8.4229 H   0  0  0  0  0  0  0  0  0  0  0  0
    6.9955   -1.2184    8.2017 H   0  0  0  0  0  0  0  0  0  0  0  0
    7.5949   -1.8214   10.4318 H   0  0  0  0  0  0  0  0  0  0  0  0
    8.9756   -0.3474   11.7305 H   0  0  0  0  0  0  0  0  0  0  0  0
    9.7304    1.7073   10.7643 H   0  0  0  0  0  0  0  0  0  0  0  0
   -0.5071    5.9275    4.8838 H   0  0  0  0  0  0  0  0  0  0  0  0
    0.3888    6.9171    6.8742 H   0  0  0  0  0  0  0  0  0  0  0  0
    2.2647    3.3434    7.8100 H   0  0  0  0  0  0  0  0  0  0  0  0
    1.3728    2.3477    5.8209 H   0  0  0  0  0  0  0  0  0  0  0  0
  1  2  2  0  0  0  0
  1  3  2  0  0  0  0
  1  4  1  0  0  0  0
  4  5  1  0  0  0  0
  5  6  1  0  0  0  0
  6  7  2  0  0  0  0
  7  8  1  0  0  0  0
  8  9  2  0  0  0  0
  9 10  1  0  0  0  0
 10  5  2  0  0  0  0
  8 11  1  0  0  0  0
 11 12  1  0  0  0  0
 12 13  1  0  0  0  0
 13 14  1  0  0  0  0
 14 15  2  0  0  0  0
 15 16  1  0  0  0  0
 12 16  2  0  0  0  0
 15 17  1  0  0  0  0
 17 18  2  0  0  0  0
 18 19  1  0  0  0  0
 19 20  1  0  0  0  0
 20 21  1  0  0  0  0
 21 17  1  0  0  0  0
 21 22  2  0  0  0  0
 22 23  1  0  0  0  0
 23 24  2  0  0  0  0
 24 25  1  0  0  0  0
 25 20  2  0  0  0  0
  1 26  1  0  0  0  0
 26 27  1  0  0  0  0
 27 28  2  0  0  0  0
 28 29  1  0  0  0  0
 29 30  1  0  0  0  0
 29 31  2  0  0  0  0
 31 32  1  0  0  0  0
 32 26  2  0  0  0  0
  4 33  1  0  0  0  0
  6 34  1  0  0  0  0
  7 35  1  0  0  0  0
  9 36  1  0  0  0  0
 10 37  1  0  0  0  0
 11 38  1  0  0  0  0
 11 39  1  0  0  0  0
 19 40  1  0  0  0  0
 22 41  1  0  0  0  0
 23 42  1  0  0  0  0
 24 43  1  0  0  0  0
 25 44  1  0  0  0  0
 27 45  1  0  0  0  0
 28 46  1  0  0  0  0
 31 47  1  0  0  0  0
 32 48  1  0  0  0  0
M  END
>  <result-rank>
98

>  <similarity>
0.891

>  <query-name>


>  <query-smiles>
S(=O)(=O)(Nc1cc2c(NN=C2C=3Nc4c(ccc(c4)C)C3)cc1)c5cc(F)ccc5

>  <source>
REALspace_2019-12

>  <similarity-descriptor>
1.000;0.808;0.953;0.681;0.876;1.000;1.000;0.0;0.0

>  <similarity-descriptor-smiles>
c1ccc(cc1)F;C=1ccNN1;c1ccccc1;C1=NC=NO1;c1ccc(cc1)C;S(=O)=O;N;;

>  <reaction-name>
s_270196

>  <reagent1-name>
8770754

>  <reagent1-smiles>
[R1*]=NC(=NO[R2*])C1=NNc2c1cccc2

>  <reagent2-name>
8773206

>  <reagent2-smiles>
[R1*]C([R2*])Cc1ccc(NS(=O)(=O)c2ccc(F)cc2)cc1

$$$$
s_22____8126070____59100
          04022017313D 1   1.00000     0.00000     0
            
 53 57  0  0  0  0            999 V2000
   -0.2810    3.3352    3.7573 S   0  0  0  0  0  0  0  0  0  0  0  0
   -1.5443    3.9470    3.4359 O   0  0  0  0  0  0  0  0  0  0  0  0
   -0.4718    1.9241    3.9717 O   0  0  0  0  0  0  0  0  0  0  0  0
    0.7615    3.5615    2.5249 N   0  0  0  0  0  0  0  0  0  0  0  0
    1.9850    2.8822    2.5096 C   0  0  0  0  0  0  0  0  0  0  0  0
    3.1774    3.5986    2.4996 C   0  0  0  0  0  0  0  0  0  0  0  0
    4.3889    2.9151    2.4847 C   0  0  0  0  0  0  0  0  0  0  0  0
    4.3934    1.5238    2.4792 C   0  0  0  0  0  0  0  0  0  0  0  0
    3.2017    0.8073    2.4891 C   0  0  0  0  0  0  0  0  0  0  0  0
    1.9902    1.4907    2.5042 C   0  0  0  0  0  0  0  0  0  0  0  0
    5.6615    0.8207    2.4636 C   0  0  0  0  0  0  0  0  0  0  0  0
    5.7162   -0.3257    2.8140 O   0  0  0  0  0  0  0  0  0  0  0  0
    6.7971    1.4652    2.0489 N   0  0  0  0  0  0  0  0  0  0  0  0
    8.0241    0.7848    2.0339 C   0  0  0  0  0  0  0  0  0  0  0  0
    9.5082    1.4588    1.5448 S   0  0  0  0  0  0  0  0  0  0  0  0
   10.4314    0.0597    1.8226 C   0  0  0  0  0  0  0  0  0  0  0  0
    9.5548   -0.8790    2.2804 C   0  0  0  0  0  0  0  0  0  0  0  0
    8.2516   -0.4605    2.3824 N   0  0  0  0  0  0  0  0  0  0  0  0
    9.9994   -2.2146    2.6287 C   0  0  0  0  0  0  0  0  0  0  0  0
   10.4478   -2.6275    3.9057 C   0  0  0  0  0  0  0  0  0  0  0  0
   10.7594   -3.9606    3.7637 C   0  0  0  0  0  0  0  0  0  0  0  0
   11.2208   -4.6481    4.8232 N   0  0  0  0  0  0  0  0  0  0  0  0
   11.3972   -4.0956    6.0316 C   0  0  0  0  0  0  0  0  0  0  0  0
   11.0988   -2.7524    6.2310 C   0  0  0  0  0  0  0  0  0  0  0  0
   10.6210   -2.0265    5.1476 C   0  0  0  0  0  0  0  0  0  0  0  0
   10.5162   -4.3408    2.4733 N   0  0  0  0  0  0  0  0  0  0  0  0
   10.0480   -3.2714    1.7692 C   0  0  0  0  0  0  0  0  0  0  0  0
   11.9267   -0.0928    1.6058 C   0  0  0  0  0  0  0  0  0  0  0  0
    0.3632    4.0594    5.2022 C   0  0  0  0  0  0  0  0  0  0  0  0
    0.0603    5.3866    5.4888 C   0  0  0  0  0  0  0  0  0  0  0  0
    0.5793    5.9586    6.6453 C   0  0  0  0  0  0  0  0  0  0  0  0
    0.2993    7.2266    6.9346 F   0  0  0  0  0  0  0  0  0  0  0  0
    1.3868    5.2129    7.4972 C   0  0  0  0  0  0  0  0  0  0  0  0
    1.8741    5.7756    8.5993 F   0  0  0  0  0  0  0  0  0  0  0  0
    1.6881    3.8864    7.2068 C   0  0  0  0  0  0  0  0  0  0  0  0
    1.1707    3.3103    6.0513 C   0  0  0  0  0  0  0  0  0  0  0  0
    0.5269    4.1857    1.7797 H   0  0  0  0  0  0  0  0  0  0  0  0
    3.1638    4.5985    2.5030 H   0  0  0  0  0  0  0  0  0  0  0  0
    5.2515    3.4208    2.4781 H   0  0  0  0  0  0  0  0  0  0  0  0
    3.2155   -0.1926    2.4853 H   0  0  0  0  0  0  0  0  0  0  0  0
    1.1277    0.9848    2.5111 H   0  0  0  0  0  0  0  0  0  0  0  0
    6.7515    2.4205    1.7570 H   0  0  0  0  0  0  0  0  0  0  0  0
   11.7432   -4.6491    6.7892 H   0  0  0  0  0  0  0  0  0  0  0  0
   11.2240   -2.3229    7.1254 H   0  0  0  0  0  0  0  0  0  0  0  0
   10.3986   -1.0583    5.2623 H   0  0  0  0  0  0  0  0  0  0  0  0
   10.6593   -5.2590    2.1038 H   0  0  0  0  0  0  0  0  0  0  0  0
    9.7889   -3.2637    0.8034 H   0  0  0  0  0  0  0  0  0  0  0  0
   12.2058   -1.0216    1.8494 H   0  0  0  0  0  0  0  0  0  0  0  0
   12.1434    0.0793    0.6449 H   0  0  0  0  0  0  0  0  0  0  0  0
   12.4154    0.5637    2.1805 H   0  0  0  0  0  0  0  0  0  0  0  0
   -0.5204    5.9201    4.8739 H   0  0  0  0  0  0  0  0  0  0  0  0
    2.2697    3.3533    7.8214 H   0  0  0  0  0  0  0  0  0  0  0  0
    1.3794    2.3574    5.8311 H   0  0  0  0  0  0  0  0  0  0  0  0
  1  2  2  0  0  0  0
  1  3  2  0  0  0  0
  1  4  1  0  0  0  0
  4  5  1  0  0  0  0
  5  6  1  0  0  0  0
  6  7  2  0  0  0  0
  7  8  1  0  0  0  0
  8  9  2  0  0  0  0
  9 10  1  0  0  0  0
 10  5  2  0  0  0  0
  8 11  1  0  0  0  0
 11 12  2  0  0  0  0
 11 13  1  0  0  0  0
 13 14  1  0  0  0  0
 14 15  1  0  0  0  0
 15 16  1  0  0  0  0
 16 17  2  0  0  0  0
 17 18  1  0  0  0  0
 14 18  2  0  0  0  0
 17 19  1  0  0  0  0
 19 20  1  0  0  0  0
 20 21  1  0  0  0  0
 21 22  2  0  0  0  0
 22 23  1  0  0  0  0
 23 24  2  0  0  0  0
 24 25  1  0  0  0  0
 25 20  2  0  0  0  0
 21 26  1  0  0  0  0
 26 27  1  0  0  0  0
 19 27  2  0  0  0  0
 16 28  1  0  0  0  0
  1 29  1  0  0  0  0
 29 30  1  0  0  0  0
 30 31  2  0  0  0  0
 31 32  1  0  0  0  0
 31 33  1  0  0  0  0
 33 34  1  0  0  0  0
 33 35  2  0  0  0  0
 35 36  1  0  0  0  0
 36 29  2  0  0  0  0
  4 37  1  0  0  0  0
  6 38  1  0  0  0  0
  7 39  1  0  0  0  0
  9 40  1  0  0  0  0
 10 41  1  0  0  0  0
 13 42  1  0  0  0  0
 23 43  1  0  0  0  0
 24 44  1  0  0  0  0
 25 45  1  0  0  0  0
 26 46  1  0  0  0  0
 27 47  1  0  0  0  0
 28 48  1  0  0  0  0
 28 49  1  0  0  0  0
 28 50  1  0  0  0  0
 30 51  1  0  0  0  0
 35 52  1  0  0  0  0
 36 53  1  0  0  0  0
M  END
>  <result-rank>
99

>  <similarity>
0.891

>  <query-name>


>  <query-smiles>
S(=O)(=O)(Nc1cc2c(NN=C2C=3Nc4c(ccc(c4)C)C3)cc1)c5cc(F)ccc5

>  <source>
REALspace_2019-12

>  <similarity-descriptor>
0.965;0.998;0.882;0.664;0.938;1.000;1.000;0.0;0.100

>  <similarity-descriptor-smiles>
c1ccc(c(c1)F)F;C1=CNcc1;c1cccnc1;C(=O)NC1=NC=CS1;c1ccccc1;S(=O)=O;N;;C

>  <reaction-name>
s_22

>  <reagent1-name>
8126070

>  <reagent1-smiles>
[R1*]NC=1SC(=C(N1)C=2c3c(nccc3)NC2)C

>  <reagent2-name>
59100

>  <reagent2-smiles>
[R1*]C(=O)c1ccc(NS(=O)(=O)c2cc(F)c(F)cc2)cc1

$$$$
m_275536a____17109990____17090172
          04022017313D 1   1.00000     0.00000     0
            
 51 55  0  0  0  0            999 V2000
    0.1850   -0.4116    0.9985 S   0  0  0  0  0  0  0  0  0  0  0  0
   -1.1907   -0.1712    0.6474 O   0  0  0  0  0  0  0  0  0  0  0  0
    0.7764   -1.3063    0.0375 O   0  0  0  0  0  0  0  0  0  0  0  0
    1.0000    1.0000    1.0000 N   0  0  0  0  0  0  0  0  0  0  0  0
    2.4004    1.0000    1.0000 C   0  0  0  0  0  0  0  0  0  0  0  0
    3.0860    1.6953    0.0095 C   0  0  0  0  0  0  0  0  0  0  0  0
    4.4770    1.6887    0.0201 C   0  0  0  0  0  0  0  0  0  0  0  0
    5.1807    0.9991    1.0016 C   0  0  0  0  0  0  0  0  0  0  0  0
    4.4744    0.3107    1.9824 C   0  0  0  0  0  0  0  0  0  0  0  0
    3.0836    0.3041    1.9916 C   0  0  0  0  0  0  0  0  0  0  0  0
    5.1963    2.4134   -1.0094 C   0  0  0  0  0  0  0  0  0  0  0  0
    6.5837    2.5228   -1.1022 N   0  5  0  0  0  0  0  0  0  0  0  0
    6.8594    2.9070   -2.4304 N   0  0  0  0  0  0  0  0  0  0  0  0
    5.6845    3.6151   -2.7591 N   0  0  0  0  0  0  0  0  0  0  0  0
    4.6445    3.0625   -2.0131 C   0  0  0  0  0  0  0  0  0  0  0  0
    5.5864    4.7322   -3.7092 C   0  0  0  0  0  0  0  0  0  0  0  0
    5.5396    4.1880   -5.1283 C   0  0  0  0  0  0  0  0  0  0  0  0
    4.4604    3.8610   -5.7938 N   0  0  0  0  0  0  0  0  0  0  0  0
    4.7560    3.4195   -6.9977 N   0  0  0  0  0  0  0  0  0  0  0  0
    6.1131    3.4556   -7.1436 C   0  0  0  0  0  0  0  0  0  0  0  0
    6.6449    3.9374   -5.9717 C   0  0  0  0  0  0  0  0  0  0  0  0
    8.0263    4.0663   -5.8643 C   0  0  0  0  0  0  0  0  0  0  0  0
    8.8746    3.7205   -6.9111 C   0  0  0  0  0  0  0  0  0  0  0  0
    8.3254    3.2334   -8.0932 C   0  0  0  0  0  0  0  0  0  0  0  0
    6.9446    3.1038   -8.2008 C   0  0  0  0  0  0  0  0  0  0  0  0
    0.2627   -1.1278    2.5821 C   0  0  0  0  0  0  0  0  0  0  0  0
   -0.6209   -0.7136    3.5729 C   0  0  0  0  0  0  0  0  0  0  0  0
   -0.5607   -1.2847    4.8400 C   0  0  0  0  0  0  0  0  0  0  0  0
    0.3890   -2.2673    5.0985 C   0  0  0  0  0  0  0  0  0  0  0  0
    0.4596   -2.8936    6.4814 C   0  0  0  0  0  0  0  0  0  0  0  0
    0.5126   -3.3634    7.5187 N   0  0  0  0  0  0  0  0  0  0  0  0
    1.2728   -2.6808    4.1070 C   0  0  0  0  0  0  0  0  0  0  0  0
    1.2127   -2.1108    2.8402 C   0  0  0  0  0  0  0  0  0  0  0  0
    0.5000    1.8660    1.0009 H   0  0  0  0  0  0  0  0  0  0  0  0
    2.5864    2.1927   -0.6997 H   0  0  0  0  0  0  0  0  0  0  0  0
    6.1807    0.9982    1.0023 H   0  0  0  0  0  0  0  0  0  0  0  0
    4.9741   -0.1869    2.6914 H   0  0  0  0  0  0  0  0  0  0  0  0
    2.5828   -0.1932    2.7000 H   0  0  0  0  0  0  0  0  0  0  0  0
    6.9862    2.1118   -3.0232 H   0  0  0  0  0  0  0  0  0  0  0  0
    3.6662    3.1436   -2.2039 H   0  0  0  0  0  0  0  0  0  0  0  0
    6.3830    5.3279   -3.6067 H   0  0  0  0  0  0  0  0  0  0  0  0
    4.7537    5.2544   -3.5248 H   0  0  0  0  0  0  0  0  0  0  0  0
    4.1001    3.1108   -7.6866 H   0  0  0  0  0  0  0  0  0  0  0  0
    8.4189    4.4160   -5.0137 H   0  0  0  0  0  0  0  0  0  0  0  0
    9.8650    3.8206   -6.8156 H   0  0  0  0  0  0  0  0  0  0  0  0
    8.9175    2.9790   -8.8578 H   0  0  0  0  0  0  0  0  0  0  0  0
    6.5456    2.7535   -9.0482 H   0  0  0  0  0  0  0  0  0  0  0  0
   -1.2990   -0.0058    3.3747 H   0  0  0  0  0  0  0  0  0  0  0  0
   -1.1933   -0.9920    5.5570 H   0  0  0  0  0  0  0  0  0  0  0  0
    1.9514   -3.3880    4.3054 H   0  0  0  0  0  0  0  0  0  0  0  0
    1.8450   -2.4039    2.1230 H   0  0  0  0  0  0  0  0  0  0  0  0
  1  2  2  0  0  0  0
  1  3  2  0  0  0  0
  1  4  1  0  0  0  0
  4  5  1  0  0  0  0
  5  6  1  0  0  0  0
  6  7  2  0  0  0  0
  7  8  1  0  0  0  0
  8  9  2  0  0  0  0
  9 10  1  0  0  0  0
 10  5  2  0  0  0  0
  7 11  1  0  0  0  0
 11 12  1  0  0  0  0
 12 13  1  0  0  0  0
 13 14  1  0  0  0  0
 14 15  1  0  0  0  0
 11 15  2  0  0  0  0
 14 16  1  0  0  0  0
 16 17  1  0  0  0  0
 17 18  2  0  0  0  0
 18 19  1  0  0  0  0
 19 20  1  0  0  0  0
 20 21  1  0  0  0  0
 21 17  1  0  0  0  0
 21 22  2  0  0  0  0
 22 23  1  0  0  0  0
 23 24  2  0  0  0  0
 24 25  1  0  0  0  0
 25 20  2  0  0  0  0
  1 26  1  0  0  0  0
 26 27  1  0  0  0  0
 27 28  2  0  0  0  0
 28 29  1  0  0  0  0
 29 30  1  0  0  0  0
 30 31  3  0  0  0  0
 29 32  2  0  0  0  0
 32 33  1  0  0  0  0
 33 26  2  0  0  0  0
  4 34  1  0  0  0  0
  6 35  1  0  0  0  0
  8 36  1  0  0  0  0
  9 37  1  0  0  0  0
 10 38  1  0  0  0  0
 13 39  1  0  0  0  0
 15 40  1  0  0  0  0
 16 41  1  0  0  0  0
 16 42  1  0  0  0  0
 19 43  1  0  0  0  0
 22 44  1  0  0  0  0
 23 45  1  0  0  0  0
 24 46  1  0  0  0  0
 25 47  1  0  0  0  0
 27 48  1  0  0  0  0
 28 49  1  0  0  0  0
 32 50  1  0  0  0  0
 33 51  1  0  0  0  0
M  CHG  1  12  -1
M  END
>  <result-rank>
100

>  <similarity>
0.891

>  <query-name>


>  <query-smiles>
S(=O)(=O)(Nc1cc2c(NN=C2C=3Nc4c(ccc(c4)C)C3)cc1)c5cc(F)ccc5

>  <source>
REALspace_2019-12

>  <similarity-descriptor>
0.982;0.762;0.953;0.756;0.938;1.000;1.000;0.0;0.111

>  <similarity-descriptor-smiles>
c1ccccc1;CC=1ccNN1;c1ccccc1;C1=CNN[N-]1;c1ccccc1;S(=O)=O;N;;C#N

>  <reaction-name>
m_275536a

>  <reagent1-name>
17109990

>  <reagent1-smiles>
[R1*]N=NN([R2*])CC1=NNc2c1cccc2

>  <reagent2-name>
17090172

>  <reagent2-smiles>
[R1*]C(c1cc(NS(=O)(=O)c2ccc(C#N)cc2)ccc1)=C[R2*]

$$$$
