s_42a____8624698____125168
          04022017333D 1   1.00000     0.00000     0
            
 62 67  0  0  0  0            999 V2000
   -0.7080    7.3320   -0.1409 Cl  0  0  0  0  0  0  0  0  0  0  0  0
   -0.2461    6.1872   -1.4233 C   0  0  0  0  0  0  0  0  0  0  0  0
    0.5255    5.0682   -1.1281 C   0  0  0  0  0  0  0  0  0  0  0  0
    0.8792    4.1814   -2.1396 C   0  0  0  0  0  0  0  0  0  0  0  0
    0.4593    4.4176   -3.4443 C   0  0  0  0  0  0  0  0  0  0  0  0
   -0.3115    5.5382   -3.7339 C   0  0  0  0  0  0  0  0  0  0  0  0
   -0.6683    6.4288   -2.7266 C   0  0  0  0  0  0  0  0  0  0  0  0
    0.9815    4.8140    0.2998 C   0  0  0  0  0  0  0  0  0  0  0  0
   -0.0241    4.0000    0.9977 N   0  0  0  0  0  0  0  0  0  0  0  0
    0.4648    3.7275    2.5286 S   0  0  0  0  0  0  0  0  0  0  0  0
   -0.5203    2.9301    3.2123 O   0  0  0  0  0  0  0  0  0  0  0  0
    0.6237    4.9846    3.2127 O   0  0  0  0  0  0  0  0  0  0  0  0
    1.9848    2.8811    2.5100 C   0  0  0  0  0  0  0  0  0  0  0  0
    3.1740    3.6024    2.5029 C   0  0  0  0  0  0  0  0  0  0  0  0
    4.3836    2.9156    2.4883 C   0  0  0  0  0  0  0  0  0  0  0  0
    4.3937    1.5243    2.4800 C   0  0  0  0  0  0  0  0  0  0  0  0
    5.6574    0.8229    2.4637 C   0  0  0  0  0  0  0  0  0  0  0  0
    5.6553   -0.5110    2.4559 N   0  0  0  0  0  0  0  0  0  0  0  0
    6.8564   -1.0851    2.4434 C   0  0  0  0  0  0  0  0  0  0  0  0
    6.9720   -2.7811    2.4199 S   0  0  0  0  0  0  0  0  0  0  0  0
    8.6720   -2.7874    2.3755 C   0  0  0  0  0  0  0  0  0  0  0  0
    9.1353   -1.5323    2.3989 C   0  0  0  0  0  0  0  0  0  0  0  0
    8.1141   -0.5129    2.4380 C   0  0  0  0  0  0  0  0  0  0  0  0
    8.0554    0.8788    2.4408 C   0  0  0  0  0  0  0  0  0  0  0  0
    9.2767    1.6605    2.4267 C   0  0  0  0  0  0  0  0  0  0  0  0
    9.4272    2.6877    1.5007 C   0  0  0  0  0  0  0  0  0  0  0  0
   10.6008    3.4338    1.4910 C   0  0  0  0  0  0  0  0  0  0  0  0
   11.6083    3.1454    2.4062 C   0  0  0  0  0  0  0  0  0  0  0  0
   11.4559    2.1193    3.3337 C   0  0  0  0  0  0  0  0  0  0  0  0
   10.2826    1.3722    3.3425 C   0  0  0  0  0  0  0  0  0  0  0  0
   12.8896    3.9636    2.3896 C   0  0  0  0  0  0  0  0  0  0  0  0
   12.7573    5.0120    3.1972 F   0  0  0  0  0  0  0  0  0  0  0  0
   13.9037    3.2096    2.8043 F   0  0  0  0  0  0  0  0  0  0  0  0
   13.1282    4.3853    1.1510 F   0  0  0  0  0  0  0  0  0  0  0  0
    6.8394    1.5570    2.4549 C   0  0  0  0  0  0  0  0  0  0  0  0
   10.6302   -1.7798    2.3660 C   0  0  0  0  0  0  0  0  0  0  0  0
   10.8155   -3.1450    2.9901 C   0  0  0  0  0  0  0  0  0  0  0  0
    9.6994   -3.8926    2.3029 C   0  0  0  0  0  0  0  0  0  0  0  0
    3.2017    0.8072    2.4872 C   0  0  0  0  0  0  0  0  0  0  0  0
    1.9898    1.4900    2.5021 C   0  0  0  0  0  0  0  0  0  0  0  0
    1.4337    3.3763   -1.9293 H   0  0  0  0  0  0  0  0  0  0  0  0
    0.7116    3.7819   -4.1739 H   0  0  0  0  0  0  0  0  0  0  0  0
   -0.6115    5.7051   -4.6731 H   0  0  0  0  0  0  0  0  0  0  0  0
   -1.2225    7.2342   -2.9371 H   0  0  0  0  0  0  0  0  0  0  0  0
    1.8552    4.3276    0.2891 H   0  0  0  0  0  0  0  0  0  0  0  0
    1.0919    5.6870    0.7749 H   0  0  0  0  0  0  0  0  0  0  0  0
   -0.8977    4.4864    1.0084 H   0  0  0  0  0  0  0  0  0  0  0  0
    3.1597    4.6022    2.5083 H   0  0  0  0  0  0  0  0  0  0  0  0
    5.2459    3.4219    2.4837 H   0  0  0  0  0  0  0  0  0  0  0  0
    8.6972    2.8881    0.8472 H   0  0  0  0  0  0  0  0  0  0  0  0
   10.7201    4.1740    0.8292 H   0  0  0  0  0  0  0  0  0  0  0  0
   12.1845    1.9205    3.9891 H   0  0  0  0  0  0  0  0  0  0  0  0
   10.1632    0.6317    4.0039 H   0  0  0  0  0  0  0  0  0  0  0  0
    6.8159    2.5567    2.4586 H   0  0  0  0  0  0  0  0  0  0  0  0
   11.1135   -1.0828    2.8957 H   0  0  0  0  0  0  0  0  0  0  0  0
   10.9663   -1.7755    1.4242 H   0  0  0  0  0  0  0  0  0  0  0  0
   11.7114   -3.5339    2.7754 H   0  0  0  0  0  0  0  0  0  0  0  0
   10.6917   -3.1207    3.9821 H   0  0  0  0  0  0  0  0  0  0  0  0
    9.9278   -4.1422    1.3619 H   0  0  0  0  0  0  0  0  0  0  0  0
    9.4190   -4.7101    2.8060 H   0  0  0  0  0  0  0  0  0  0  0  0
    3.2159   -0.1927    2.4818 H   0  0  0  0  0  0  0  0  0  0  0  0
    1.1273    0.9839    2.5071 H   0  0  0  0  0  0  0  0  0  0  0  0
  1  2  1  0  0  0  0
  2  3  1  0  0  0  0
  3  4  2  0  0  0  0
  4  5  1  0  0  0  0
  5  6  2  0  0  0  0
  6  7  1  0  0  0  0
  7  2  2  0  0  0  0
  3  8  1  0  0  0  0
  8  9  1  0  0  0  0
  9 10  1  0  0  0  0
 10 11  2  0  0  0  0
 10 12  2  0  0  0  0
 10 13  1  0  0  0  0
 13 14  1  0  0  0  0
 14 15  2  0  0  0  0
 15 16  1  0  0  0  0
 16 17  1  0  0  0  0
 17 18  1  0  0  0  0
 18 19  2  0  0  0  0
 19 20  1  0  0  0  0
 20 21  1  0  0  0  0
 21 22  2  0  0  0  0
 22 23  1  0  0  0  0
 23 19  1  0  0  0  0
 23 24  2  0  0  0  0
 24 25  1  0  0  0  0
 25 26  1  0  0  0  0
 26 27  2  0  0  0  0
 27 28  1  0  0  0  0
 28 29  2  0  0  0  0
 29 30  1  0  0  0  0
 30 25  2  0  0  0  0
 28 31  1  0  0  0  0
 31 32  1  0  0  0  0
 31 33  1  0  0  0  0
 31 34  1  0  0  0  0
 24 35  1  0  0  0  0
 35 17  2  0  0  0  0
 22 36  1  0  0  0  0
 36 37  1  0  0  0  0
 37 38  1  0  0  0  0
 38 21  1  0  0  0  0
 16 39  2  0  0  0  0
 39 40  1  0  0  0  0
 40 13  2  0  0  0  0
  4 41  1  0  0  0  0
  5 42  1  0  0  0  0
  6 43  1  0  0  0  0
  7 44  1  0  0  0  0
  8 45  1  0  0  0  0
  8 46  1  0  0  0  0
  9 47  1  0  0  0  0
 14 48  1  0  0  0  0
 15 49  1  0  0  0  0
 26 50  1  0  0  0  0
 27 51  1  0  0  0  0
 29 52  1  0  0  0  0
 30 53  1  0  0  0  0
 35 54  1  0  0  0  0
 36 55  1  0  0  0  0
 36 56  1  0  0  0  0
 37 57  1  0  0  0  0
 37 58  1  0  0  0  0
 38 59  1  0  0  0  0
 38 60  1  0  0  0  0
 39 61  1  0  0  0  0
 40 62  1  0  0  0  0
M  END
>  <result-rank>
1

>  <similarity>
0.900

>  <query-name>


>  <query-smiles>
Clc1ccc(cc1)CS(=O)(=O)c2cc3N=C(c4c(N(c3cc2)C)cc5c(c4)C(CCC5(C)C)(C)C)c6ccc(cc6)C([O-])=O

>  <source>
REALspace_2019-12

>  <similarity-descriptor>
1.000;0.942;0.939;0.830;0.965;0.855;0.996;0.822;0.0;0.965;0.0;0.0;0.0;0.0;0.0

>  <similarity-descriptor-smiles>
Clc1ccccc1;c1ccc(cc1)C(F)(F)F;c1ccccc1;c1cC=CS1;C=1CCCC1;c1ccccn1;C;NS(=O)=O;;C=1CCCC1;;;;;

>  <reaction-name>
s_42a

>  <reagent1-name>
8624698

>  <reagent1-smiles>
[R1*]=NC=1SC2=C(C1C(=[R2*])c3ccc(cc3)C(F)(F)F)CCC2

>  <reagent2-name>
125168

>  <reagent2-smiles>
[R1*]=C(c1ccc(S(=O)(=O)NCc2c(Cl)cccc2)cc1)C=[R2*]

$$$$
s_42a____8631722____87884
          04022017333D 1   1.00000     0.00000     0
            
 69 74  0  0  0  0            999 V2000
   -0.2810    3.3352    3.7573 S   0  0  0  0  0  0  0  0  0  0  0  0
   -1.5443    3.9470    3.4359 O   0  0  0  0  0  0  0  0  0  0  0  0
   -0.4718    1.9241    3.9717 O   0  0  0  0  0  0  0  0  0  0  0  0
    0.7615    3.5615    2.5249 N   0  0  0  0  0  0  0  0  0  0  0  0
    1.9850    2.8822    2.5096 C   0  0  0  0  0  0  0  0  0  0  0  0
    3.1774    3.5986    2.4996 C   0  0  0  0  0  0  0  0  0  0  0  0
    4.3889    2.9151    2.4847 C   0  0  0  0  0  0  0  0  0  0  0  0
    4.3934    1.5238    2.4792 C   0  0  0  0  0  0  0  0  0  0  0  0
    5.6600    0.8215    2.4637 C   0  0  0  0  0  0  0  0  0  0  0  0
    6.8139    1.4828    2.6044 N   0  0  0  0  0  0  0  0  0  0  0  0
    7.9223    0.7537    2.5810 C   0  0  0  0  0  0  0  0  0  0  0  0
    9.4222    1.5563    2.7165 S   0  0  0  0  0  0  0  0  0  0  0  0
   10.3278    0.1303    2.5950 C   0  0  0  0  0  0  0  0  0  0  0  0
    9.5061   -0.9561    2.4818 C   0  0  0  0  0  0  0  0  0  0  0  0
    8.1209   -0.6077    2.4476 C   0  0  0  0  0  0  0  0  0  0  0  0
    6.8906   -1.2450    2.2909 C   0  0  0  0  0  0  0  0  0  0  0  0
    6.8579   -2.6838    2.1132 C   0  0  0  0  0  0  0  0  0  0  0  0
    6.3558   -3.4814    3.1357 C   0  0  0  0  0  0  0  0  0  0  0  0
    6.3213   -4.8629    2.9752 C   0  0  0  0  0  0  0  0  0  0  0  0
    6.7888   -5.4292    1.7939 C   0  0  0  0  0  0  0  0  0  0  0  0
    6.7580   -6.7686    1.6284 O   0  0  0  0  0  0  0  0  0  0  0  0
    5.9482   -7.5702    2.4758 C   0  0  0  0  0  0  0  0  0  0  0  0
    7.2912   -4.6308    0.7715 C   0  0  0  0  0  0  0  0  0  0  0  0
    7.3262   -3.2496    0.9318 C   0  0  0  0  0  0  0  0  0  0  0  0
    5.6795   -0.5584    2.2978 C   0  0  0  0  0  0  0  0  0  0  0  0
   10.2733   -2.2670    2.4232 C   0  0  0  0  0  0  0  0  0  0  0  0
   11.7433   -2.1185    2.0583 C   0  0  0  0  0  0  0  0  0  0  0  0
   12.3892   -1.0649    2.9446 C   0  0  3  0  0  0  0  0  0  0  0  0
   11.8311    0.3053    2.6065 C   0  0  0  0  0  0  0  0  0  0  0  0
   13.8885   -1.0319    2.6927 C   0  0  0  0  0  0  0  0  0  0  0  0
    3.2017    0.8073    2.4891 C   0  0  0  0  0  0  0  0  0  0  0  0
    1.9902    1.4907    2.5042 C   0  0  0  0  0  0  0  0  0  0  0  0
    0.3631    4.0594    5.2021 C   0  0  0  0  0  0  0  0  0  0  0  0
    0.0691    5.3851    5.5018 C   0  0  0  0  0  0  0  0  0  0  0  0
    0.5829    5.9665    6.6565 C   0  0  0  0  0  0  0  0  0  0  0  0
    1.3889    5.2080    7.4989 C   0  0  0  0  0  0  0  0  0  0  0  0
    1.6829    3.8821    7.1982 C   0  0  0  0  0  0  0  0  0  0  0  0
    1.1691    3.3003    6.0445 C   0  0  0  0  0  0  0  0  0  0  0  0
    1.9537    5.8387    8.7610 C   0  0  0  0  0  0  0  0  0  0  0  0
    0.5269    4.1857    1.7797 H   0  0  0  0  0  0  0  0  0  0  0  0
    3.1638    4.5985    2.5030 H   0  0  0  0  0  0  0  0  0  0  0  0
    5.2515    3.4208    2.4781 H   0  0  0  0  0  0  0  0  0  0  0  0
    6.0215   -3.0646    3.9810 H   0  0  0  0  0  0  0  0  0  0  0  0
    5.9626   -5.4453    3.7047 H   0  0  0  0  0  0  0  0  0  0  0  0
    6.0436   -8.5312    2.2164 H   0  0  0  0  0  0  0  0  0  0  0  0
    6.2388   -7.4507    3.4251 H   0  0  0  0  0  0  0  0  0  0  0  0
    4.9919   -7.2932    2.3826 H   0  0  0  0  0  0  0  0  0  0  0  0
    7.6254   -5.0475   -0.0739 H   0  0  0  0  0  0  0  0  0  0  0  0
    7.6856   -2.6671    0.2027 H   0  0  0  0  0  0  0  0  0  0  0  0
    4.8215   -1.0592    2.1832 H   0  0  0  0  0  0  0  0  0  0  0  0
    9.8390   -2.8534    1.7395 H   0  0  0  0  0  0  0  0  0  0  0  0
   10.2164   -2.7032    3.3212 H   0  0  0  0  0  0  0  0  0  0  0  0
   12.2083   -2.9939    2.1901 H   0  0  0  0  0  0  0  0  0  0  0  0
   11.8214   -1.8404    1.1009 H   0  0  0  0  0  0  0  0  0  0  0  0
   12.2115   -1.2755    3.9059 H   0  0  0  0  0  0  0  0  0  0  0  0
   12.1009    0.9744    3.2989 H   0  0  0  0  0  0  0  0  0  0  0  0
   12.1561    0.6046    1.7093 H   0  0  0  0  0  0  0  0  0  0  0  0
   14.2825   -1.9253    2.9084 H   0  0  0  0  0  0  0  0  0  0  0  0
   14.0604   -0.8149    1.7318 H   0  0  0  0  0  0  0  0  0  0  0  0
   14.3086   -0.3337    3.2724 H   0  0  0  0  0  0  0  0  0  0  0  0
    3.2155   -0.1926    2.4853 H   0  0  0  0  0  0  0  0  0  0  0  0
    1.1277    0.9848    2.5111 H   0  0  0  0  0  0  0  0  0  0  0  0
   -0.5113    5.9201    4.8878 H   0  0  0  0  0  0  0  0  0  0  0  0
    0.3752    6.9191    6.8785 H   0  0  0  0  0  0  0  0  0  0  0  0
    2.2639    3.3473    7.8117 H   0  0  0  0  0  0  0  0  0  0  0  0
    1.3764    2.3474    5.8229 H   0  0  0  0  0  0  0  0  0  0  0  0
    2.5071    5.1653    9.2512 H   0  0  0  0  0  0  0  0  0  0  0  0
    2.5233    6.6231    8.5155 H   0  0  0  0  0  0  0  0  0  0  0  0
    1.2024    6.1426    9.3467 H   0  0  0  0  0  0  0  0  0  0  0  0
  1  2  2  0  0  0  0
  1  3  2  0  0  0  0
  1  4  1  0  0  0  0
  4  5  1  0  0  0  0
  5  6  1  0  0  0  0
  6  7  2  0  0  0  0
  7  8  1  0  0  0  0
  8  9  1  0  0  0  0
  9 10  1  0  0  0  0
 10 11  2  0  0  0  0
 11 12  1  0  0  0  0
 12 13  1  0  0  0  0
 13 14  2  0  0  0  0
 14 15  1  0  0  0  0
 15 11  1  0  0  0  0
 15 16  2  0  0  0  0
 16 17  1  0  0  0  0
 17 18  1  0  0  0  0
 18 19  2  0  0  0  0
 19 20  1  0  0  0  0
 20 21  1  0  0  0  0
 21 22  1  0  0  0  0
 20 23  2  0  0  0  0
 23 24  1  0  0  0  0
 24 17  2  0  0  0  0
 16 25  1  0  0  0  0
 25  9  2  0  0  0  0
 14 26  1  0  0  0  0
 26 27  1  0  0  0  0
 27 28  1  0  0  0  0
 28 29  1  0  0  0  0
 29 13  1  0  0  0  0
 28 30  1  0  0  0  0
  8 31  2  0  0  0  0
 31 32  1  0  0  0  0
 32  5  2  0  0  0  0
  1 33  1  0  0  0  0
 33 34  1  0  0  0  0
 34 35  2  0  0  0  0
 35 36  1  0  0  0  0
 36 37  2  0  0  0  0
 37 38  1  0  0  0  0
 38 33  2  0  0  0  0
 36 39  1  0  0  0  0
  4 40  1  0  0  0  0
  6 41  1  0  0  0  0
  7 42  1  0  0  0  0
 18 43  1  0  0  0  0
 19 44  1  0  0  0  0
 22 45  1  0  0  0  0
 22 46  1  0  0  0  0
 22 47  1  0  0  0  0
 23 48  1  0  0  0  0
 24 49  1  0  0  0  0
 25 50  1  0  0  0  0
 26 51  1  0  0  0  0
 26 52  1  0  0  0  0
 27 53  1  0  0  0  0
 27 54  1  0  0  0  0
 28 55  1  0  0  0  0
 29 56  1  0  0  0  0
 29 57  1  0  0  0  0
 30 58  1  0  0  0  0
 30 59  1  0  0  0  0
 30 60  1  0  0  0  0
 31 61  1  0  0  0  0
 32 62  1  0  0  0  0
 34 63  1  0  0  0  0
 35 64  1  0  0  0  0
 37 65  1  0  0  0  0
 38 66  1  0  0  0  0
 39 67  1  0  0  0  0
 39 68  1  0  0  0  0
 39 69  1  0  0  0  0
M  END
>  <result-rank>
2

>  <similarity>
0.883

>  <query-name>


>  <query-smiles>
Clc1ccc(cc1)CS(=O)(=O)c2cc3N=C(c4c(N(c3cc2)C)cc5c(c4)C(CCC5(C)C)(C)C)c6ccc(cc6)C([O-])=O

>  <source>
REALspace_2019-12

>  <similarity-descriptor>
0.911;0.998;0.938;0.830;0.947;0.855;0.911;0.885;0.0;0.947;0.947;0.0;1.000;0.490;0.083

>  <similarity-descriptor-smiles>
c1ccccc1;c1ccccc1;c1ccccc1;c1cC=CS1;C=1CCCCC1;c1ccccn1;c1ccccc1;S(=O)(=O)N;;C=1CCCCC1;C=1CCCCC1;;C;OC;C

>  <reaction-name>
s_42a

>  <reagent1-name>
8631722

>  <reagent1-smiles>
[R1*]=NC=1SC2=C(C1C(=[R2*])c3ccc(OC)cc3)CCC2

>  <reagent2-name>
87884

>  <reagent2-smiles>
[R1*]=C(c1ccc(NS(=O)(=O)c2ccc(cc2)C)cc1)C=[R2*]

$$$$
s_42a____8631722____125005
          04022017333D 1   1.00000     0.00000     0
            
 71 76  0  0  0  0            999 V2000
    1.0000    1.0000    1.0000 S   0  0  0  0  0  0  0  0  0  0  0  0
   -0.2684    1.6482    0.7889 O   0  0  0  0  0  0  0  0  0  0  0  0
    0.7889   -0.2684    1.6482 O   0  0  0  0  0  0  0  0  0  0  0  0
    1.7337    0.7610   -0.4358 N   0  0  0  0  0  0  0  0  0  0  0  0
    1.9492    2.0559   -1.0975 C   0  0  0  0  0  0  0  0  0  0  0  0
    2.6335    1.8330   -2.4366 C   0  0  0  0  0  0  0  0  0  0  0  0
    1.8593    1.6384   -3.5762 C   0  0  0  0  0  0  0  0  0  0  0  0
    2.4799    1.4354   -4.8041 C   0  0  0  0  0  0  0  0  0  0  0  0
    3.8692    1.4307   -4.8765 C   0  0  0  0  0  0  0  0  0  0  0  0
    4.6438    1.6242   -3.7379 C   0  0  0  0  0  0  0  0  0  0  0  0
    4.0231    1.8258   -2.5096 C   0  0  0  0  0  0  0  0  0  0  0  0
    4.5217    1.2205   -6.1543 C   0  0  0  0  0  0  0  0  0  0  0  0
    5.7297    1.2145   -6.2231 O   0  5  0  0  0  0  0  0  0  0  0  0
    3.8361    1.0455   -7.1848 O   0  0  0  0  0  0  0  0  0  0  0  0
    2.0045    2.0045    2.0045 C   0  0  0  0  0  0  0  0  0  0  0  0
    1.8584    3.3870    1.9602 C   0  0  0  0  0  0  0  0  0  0  0  0
    2.6665    4.1805    2.7676 C   0  0  0  0  0  0  0  0  0  0  0  0
    3.6073    3.5898    3.6054 C   0  0  0  0  0  0  0  0  0  0  0  0
    4.4432    4.4276    4.4402 C   0  0  0  0  0  0  0  0  0  0  0  0
    5.5198    5.0416    3.9378 N   0  0  0  0  0  0  0  0  0  0  0  0
    6.2218    5.7910    4.7782 C   0  0  0  0  0  0  0  0  0  0  0  0
    7.6273    6.5628    4.1942 S   0  0  0  0  0  0  0  0  0  0  0  0
    8.0014    7.2676    5.6881 C   0  0  0  0  0  0  0  0  0  0  0  0
    7.0563    6.9496    6.6229 C   0  0  0  0  0  0  0  0  0  0  0  0
    6.0410    6.0805    6.1177 C   0  0  0  0  0  0  0  0  0  0  0  0
    4.9166    5.4063    6.5926 C   0  0  0  0  0  0  0  0  0  0  0  0
    4.5444    5.5482    7.9869 C   0  0  0  0  0  0  0  0  0  0  0  0
    3.3955    6.2609    8.3122 C   0  0  0  0  0  0  0  0  0  0  0  0
    3.0306    6.4036    9.6472 C   0  0  0  0  0  0  0  0  0  0  0  0
    3.8191    5.8311   10.6398 C   0  0  0  0  0  0  0  0  0  0  0  0
    3.4723    5.9629   11.9377 O   0  0  0  0  0  0  0  0  0  0  0  0
    2.9125    7.1823   12.4028 C   0  0  0  0  0  0  0  0  0  0  0  0
    4.9685    5.1185   10.3138 C   0  0  0  0  0  0  0  0  0  0  0  0
    5.3337    4.9760    8.9792 C   0  0  0  0  0  0  0  0  0  0  0  0
    4.1257    4.5956    5.7830 C   0  0  0  0  0  0  0  0  0  0  0  0
    7.3208    7.6040    7.9691 C   0  0  0  0  0  0  0  0  0  0  0  0
    8.7489    8.0942    8.1593 C   0  0  0  0  0  0  0  0  0  0  0  0
    9.1637    8.9440    6.9683 C   0  0  3  0  0  0  0  0  0  0  0  0
    9.2817    8.0736    5.7306 C   0  0  0  0  0  0  0  0  0  0  0  0
   10.5263    9.5657    7.2316 C   0  0  0  0  0  0  0  0  0  0  0  0
    3.7498    2.2066    3.6463 C   0  0  0  0  0  0  0  0  0  0  0  0
    2.9434    1.4091    2.8407 C   0  0  0  0  0  0  0  0  0  0  0  0
    1.1563    0.1837   -1.0131 H   0  0  0  0  0  0  0  0  0  0  0  0
    2.5265    2.6333   -0.5201 H   0  0  0  0  0  0  0  0  0  0  0  0
    1.0683    2.5060   -1.2441 H   0  0  0  0  0  0  0  0  0  0  0  0
    0.8614    1.6444   -3.5126 H   0  0  0  0  0  0  0  0  0  0  0  0
    1.9319    1.2938   -5.6285 H   0  0  0  0  0  0  0  0  0  0  0  0
    5.6418    1.6184   -3.8019 H   0  0  0  0  0  0  0  0  0  0  0  0
    4.5714    1.9646   -1.6849 H   0  0  0  0  0  0  0  0  0  0  0  0
    1.1807    3.8052    1.3553 H   0  0  0  0  0  0  0  0  0  0  0  0
    2.5713    5.1758    2.7459 H   0  0  0  0  0  0  0  0  0  0  0  0
    2.8350    6.6682    7.5912 H   0  0  0  0  0  0  0  0  0  0  0  0
    2.2065    6.9146    9.8916 H   0  0  0  0  0  0  0  0  0  0  0  0
    2.7160    7.1074   13.3804 H   0  0  0  0  0  0  0  0  0  0  0  0
    3.5619    7.9271   12.2494 H   0  0  0  0  0  0  0  0  0  0  0  0
    2.0654    7.3710   11.9060 H   0  0  0  0  0  0  0  0  0  0  0  0
    5.5289    4.7110   11.0348 H   0  0  0  0  0  0  0  0  0  0  0  0
    6.1582    4.4657    8.7348 H   0  0  0  0  0  0  0  0  0  0  0  0
    3.3273    4.1330    6.1684 H   0  0  0  0  0  0  0  0  0  0  0  0
    7.1211    6.9363    8.6863 H   0  0  0  0  0  0  0  0  0  0  0  0
    6.7061    8.3873    8.0624 H   0  0  0  0  0  0  0  0  0  0  0  0
    8.8035    8.6426    8.9937 H   0  0  0  0  0  0  0  0  0  0  0  0
    9.3624    7.3082    8.2362 H   0  0  0  0  0  0  0  0  0  0  0  0
    8.4870    9.6637    6.8133 H   0  0  0  0  0  0  0  0  0  0  0  0
    9.3669    8.6398    4.9107 H   0  0  0  0  0  0  0  0  0  0  0  0
   10.0747    7.4686    5.8017 H   0  0  0  0  0  0  0  0  0  0  0  0
   10.4764   10.1460    8.0445 H   0  0  0  0  0  0  0  0  0  0  0  0
   11.2000    8.8418    7.3797 H   0  0  0  0  0  0  0  0  0  0  0  0
   10.7984   10.1183    6.4438 H   0  0  0  0  0  0  0  0  0  0  0  0
    4.4274    1.7882    4.2511 H   0  0  0  0  0  0  0  0  0  0  0  0
    3.0382    0.4138    2.8624 H   0  0  0  0  0  0  0  0  0  0  0  0
  1  2  2  0  0  0  0
  1  3  2  0  0  0  0
  1  4  1  0  0  0  0
  4  5  1  0  0  0  0
  5  6  1  0  0  0  0
  6  7  1  0  0  0  0
  7  8  2  0  0  0  0
  8  9  1  0  0  0  0
  9 10  2  0  0  0  0
 10 11  1  0  0  0  0
 11  6  2  0  0  0  0
  9 12  1  0  0  0  0
 12 13  1  0  0  0  0
 12 14  2  0  0  0  0
  1 15  1  0  0  0  0
 15 16  1  0  0  0  0
 16 17  2  0  0  0  0
 17 18  1  0  0  0  0
 18 19  1  0  0  0  0
 19 20  1  0  0  0  0
 20 21  2  0  0  0  0
 21 22  1  0  0  0  0
 22 23  1  0  0  0  0
 23 24  2  0  0  0  0
 24 25  1  0  0  0  0
 25 21  1  0  0  0  0
 25 26  2  0  0  0  0
 26 27  1  0  0  0  0
 27 28  1  0  0  0  0
 28 29  2  0  0  0  0
 29 30  1  0  0  0  0
 30 31  1  0  0  0  0
 31 32  1  0  0  0  0
 30 33  2  0  0  0  0
 33 34  1  0  0  0  0
 34 27  2  0  0  0  0
 26 35  1  0  0  0  0
 35 19  2  0  0  0  0
 24 36  1  0  0  0  0
 36 37  1  0  0  0  0
 37 38  1  0  0  0  0
 38 39  1  0  0  0  0
 39 23  1  0  0  0  0
 38 40  1  0  0  0  0
 18 41  2  0  0  0  0
 41 42  1  0  0  0  0
 42 15  2  0  0  0  0
  4 43  1  0  0  0  0
  5 44  1  0  0  0  0
  5 45  1  0  0  0  0
  7 46  1  0  0  0  0
  8 47  1  0  0  0  0
 10 48  1  0  0  0  0
 11 49  1  0  0  0  0
 16 50  1  0  0  0  0
 17 51  1  0  0  0  0
 28 52  1  0  0  0  0
 29 53  1  0  0  0  0
 32 54  1  0  0  0  0
 32 55  1  0  0  0  0
 32 56  1  0  0  0  0
 33 57  1  0  0  0  0
 34 58  1  0  0  0  0
 35 59  1  0  0  0  0
 36 60  1  0  0  0  0
 36 61  1  0  0  0  0
 37 62  1  0  0  0  0
 37 63  1  0  0  0  0
 38 64  1  0  0  0  0
 39 65  1  0  0  0  0
 39 66  1  0  0  0  0
 40 67  1  0  0  0  0
 40 68  1  0  0  0  0
 40 69  1  0  0  0  0
 41 70  1  0  0  0  0
 42 71  1  0  0  0  0
M  CHG  1  13  -1
M  END
>  <result-rank>
3

>  <similarity>
0.882

>  <query-name>


>  <query-smiles>
Clc1ccc(cc1)CS(=O)(=O)c2cc3N=C(c4c(N(c3cc2)C)cc5c(c4)C(CCC5(C)C)(C)C)c6ccc(cc6)C([O-])=O

>  <source>
REALspace_2019-12

>  <similarity-descriptor>
0.967;0.998;0.939;0.830;0.947;0.855;0.996;0.822;0.0;0.947;0.947;0.0;1.000;0.490;0.077

>  <similarity-descriptor-smiles>
c1ccccc1;c1ccccc1;c1ccccc1;c1cC=CS1;C=1CCCCC1;c1ccccn1;C;S(=O)(=O)N;;C=1CCCCC1;C=1CCCCC1;;C;OC;C([O-])=O

>  <reaction-name>
s_42a

>  <reagent1-name>
8631722

>  <reagent1-smiles>
[R1*]=NC=1SC2=C(C1C(=[R2*])c3ccc(OC)cc3)CCC2

>  <reagent2-name>
125005

>  <reagent2-smiles>
[R1*]=C(c1ccc(S(=O)(=O)NCc2ccc(cc2)C(=O)O)cc1)C=[R2*]

$$$$
s_42a____8624686____125209
          04022017333D 1   1.00000     0.00000     0
            
 63 68  0  0  0  0            999 V2000
    1.0000    1.0000    1.0000 S   0  0  0  0  0  0  0  0  0  0  0  0
   -0.2684    1.6482    0.7889 O   0  0  0  0  0  0  0  0  0  0  0  0
    0.7889   -0.2684    1.6482 O   0  0  0  0  0  0  0  0  0  0  0  0
    1.7337    0.7610   -0.4358 N   0  0  0  0  0  0  0  0  0  0  0  0
    2.8173   -0.1201   -0.5300 C   0  0  0  0  0  0  0  0  0  0  0  0
    2.6059   -1.4062   -1.0167 C   0  0  0  0  0  0  0  0  0  0  0  0
    3.6830   -2.2817   -1.1106 C   0  0  0  0  0  0  0  0  0  0  0  0
    4.9521   -1.8672   -0.7203 C   0  0  0  0  0  0  0  0  0  0  0  0
    5.9969   -2.7169   -0.8116 O   0  0  0  0  0  0  0  0  0  0  0  0
    5.9017   -3.8742   -1.6289 C   0  0  0  0  0  0  0  0  0  0  0  0
    5.1637   -0.5811   -0.2336 C   0  0  0  0  0  0  0  0  0  0  0  0
    4.0865    0.2942   -0.1395 C   0  0  0  0  0  0  0  0  0  0  0  0
    2.0045    2.0045    2.0045 C   0  0  0  0  0  0  0  0  0  0  0  0
    1.9705    3.3862    1.8488 C   0  0  0  0  0  0  0  0  0  0  0  0
    2.7776    4.1798    2.6572 C   0  0  0  0  0  0  0  0  0  0  0  0
    3.6061    3.5897    3.6066 C   0  0  0  0  0  0  0  0  0  0  0  0
    4.4431    4.4285    4.4423 C   0  0  0  0  0  0  0  0  0  0  0  0
    5.3417    3.8514    5.2416 N   0  0  0  0  0  0  0  0  0  0  0  0
    6.0705    4.6858    5.9799 C   0  0  0  0  0  0  0  0  0  0  0  0
    7.2554    4.0593    7.0258 S   0  0  0  0  0  0  0  0  0  0  0  0
    7.7651    5.5899    7.5642 C   0  0  0  0  0  0  0  0  0  0  0  0
    7.0374    6.5474    6.9775 C   0  0  0  0  0  0  0  0  0  0  0  0
    6.0422    6.0655    6.0496 C   0  0  0  0  0  0  0  0  0  0  0  0
    5.0914    6.6131    5.1915 C   0  0  0  0  0  0  0  0  0  0  0  0
    4.9185    8.0503    5.1162 C   0  0  0  0  0  0  0  0  0  0  0  0
    3.6414    8.5904    5.2257 C   0  0  0  0  0  0  0  0  0  0  0  0
    3.4858    9.9706    5.1524 C   0  0  0  0  0  0  0  0  0  0  0  0
    2.2730   10.5039    5.2551 F   0  0  0  0  0  0  0  0  0  0  0  0
    4.5916   10.7933    4.9725 C   0  0  0  0  0  0  0  0  0  0  0  0
    5.8672   10.2503    4.8639 C   0  0  0  0  0  0  0  0  0  0  0  0
    6.0273    8.8702    4.9364 C   0  0  0  0  0  0  0  0  0  0  0  0
    4.4102   12.3002    4.8947 C   0  0  0  0  0  0  0  0  0  0  0  0
    4.2875    5.8100    4.3866 C   0  0  0  0  0  0  0  0  0  0  0  0
    7.6435    7.7884    7.6015 C   0  0  0  0  0  0  0  0  0  0  0  0
    8.1808    7.3320    8.9396 C   0  0  0  0  0  0  0  0  0  0  0  0
    8.8425    6.0420    8.5216 C   0  0  0  0  0  0  0  0  0  0  0  0
    3.6366    2.2073    3.7588 C   0  0  0  0  0  0  0  0  0  0  0  0
    2.8309    1.4098    2.9525 C   0  0  0  0  0  0  0  0  0  0  0  0
    1.4097    1.2439   -1.2494 H   0  0  0  0  0  0  0  0  0  0  0  0
    1.6909   -1.6977   -1.2957 H   0  0  0  0  0  0  0  0  0  0  0  0
    3.5448   -3.2089   -1.4587 H   0  0  0  0  0  0  0  0  0  0  0  0
    6.7586   -4.3875   -1.5811 H   0  0  0  0  0  0  0  0  0  0  0  0
    5.1501   -4.4493   -1.3061 H   0  0  0  0  0  0  0  0  0  0  0  0
    5.7294   -3.6006   -2.5752 H   0  0  0  0  0  0  0  0  0  0  0  0
    6.0788   -0.2896    0.0451 H   0  0  0  0  0  0  0  0  0  0  0  0
    4.2246    1.2213    0.2089 H   0  0  0  0  0  0  0  0  0  0  0  0
    1.3733    3.8039    1.1640 H   0  0  0  0  0  0  0  0  0  0  0  0
    2.7623    5.1746    2.5561 H   0  0  0  0  0  0  0  0  0  0  0  0
    2.8478    7.9959    5.3550 H   0  0  0  0  0  0  0  0  0  0  0  0
    6.6607   10.8451    4.7351 H   0  0  0  0  0  0  0  0  0  0  0  0
    6.9395    8.4679    4.8593 H   0  0  0  0  0  0  0  0  0  0  0  0
    5.3004   12.7368    4.7646 H   0  0  0  0  0  0  0  0  0  0  0  0
    3.8131   12.5247    4.1246 H   0  0  0  0  0  0  0  0  0  0  0  0
    3.9977   12.6306    5.7437 H   0  0  0  0  0  0  0  0  0  0  0  0
    3.6085    6.2200    3.7776 H   0  0  0  0  0  0  0  0  0  0  0  0
    6.9472    8.4954    7.7251 H   0  0  0  0  0  0  0  0  0  0  0  0
    8.3822    8.1444    7.0292 H   0  0  0  0  0  0  0  0  0  0  0  0
    8.8393    7.9827    9.3178 H   0  0  0  0  0  0  0  0  0  0  0  0
    7.4477    7.1768    9.6018 H   0  0  0  0  0  0  0  0  0  0  0  0
    9.7208    6.1914    8.0674 H   0  0  0  0  0  0  0  0  0  0  0  0
    8.9660    5.4093    9.2862 H   0  0  0  0  0  0  0  0  0  0  0  0
    4.2338    1.7895    4.4435 H   0  0  0  0  0  0  0  0  0  0  0  0
    2.8457    0.4151    3.0537 H   0  0  0  0  0  0  0  0  0  0  0  0
  1  2  2  0  0  0  0
  1  3  2  0  0  0  0
  1  4  1  0  0  0  0
  4  5  1  0  0  0  0
  5  6  1  0  0  0  0
  6  7  2  0  0  0  0
  7  8  1  0  0  0  0
  8  9  1  0  0  0  0
  9 10  1  0  0  0  0
  8 11  2  0  0  0  0
 11 12  1  0  0  0  0
 12  5  2  0  0  0  0
  1 13  1  0  0  0  0
 13 14  1  0  0  0  0
 14 15  2  0  0  0  0
 15 16  1  0  0  0  0
 16 17  1  0  0  0  0
 17 18  1  0  0  0  0
 18 19  2  0  0  0  0
 19 20  1  0  0  0  0
 20 21  1  0  0  0  0
 21 22  2  0  0  0  0
 22 23  1  0  0  0  0
 23 19  1  0  0  0  0
 23 24  2  0  0  0  0
 24 25  1  0  0  0  0
 25 26  1  0  0  0  0
 26 27  2  0  0  0  0
 27 28  1  0  0  0  0
 27 29  1  0  0  0  0
 29 30  2  0  0  0  0
 30 31  1  0  0  0  0
 31 25  2  0  0  0  0
 29 32  1  0  0  0  0
 24 33  1  0  0  0  0
 33 17  2  0  0  0  0
 22 34  1  0  0  0  0
 34 35  1  0  0  0  0
 35 36  1  0  0  0  0
 36 21  1  0  0  0  0
 16 37  2  0  0  0  0
 37 38  1  0  0  0  0
 38 13  2  0  0  0  0
  4 39  1  0  0  0  0
  6 40  1  0  0  0  0
  7 41  1  0  0  0  0
 10 42  1  0  0  0  0
 10 43  1  0  0  0  0
 10 44  1  0  0  0  0
 11 45  1  0  0  0  0
 12 46  1  0  0  0  0
 14 47  1  0  0  0  0
 15 48  1  0  0  0  0
 26 49  1  0  0  0  0
 30 50  1  0  0  0  0
 31 51  1  0  0  0  0
 32 52  1  0  0  0  0
 32 53  1  0  0  0  0
 32 54  1  0  0  0  0
 33 55  1  0  0  0  0
 34 56  1  0  0  0  0
 34 57  1  0  0  0  0
 35 58  1  0  0  0  0
 35 59  1  0  0  0  0
 36 60  1  0  0  0  0
 36 61  1  0  0  0  0
 37 62  1  0  0  0  0
 38 63  1  0  0  0  0
M  END
>  <result-rank>
4

>  <similarity>
0.878

>  <query-name>


>  <query-smiles>
Clc1ccc(cc1)CS(=O)(=O)c2cc3N=C(c4c(N(c3cc2)C)cc5c(c4)C(CCC5(C)C)(C)C)c6ccc(cc6)C([O-])=O

>  <source>
REALspace_2019-12

>  <similarity-descriptor>
0.908;0.964;0.939;0.830;0.965;0.855;0.901;0.901;0.0;0.965;0.0;0.0;0.0;0.0;0.273

>  <similarity-descriptor-smiles>
Nc1ccccc1;c1cccc(c1)F;c1ccccc1;c1cC=CS1;C=1CCCC1;c1ccccn1;S(=O)=O;S(=O)=O;;C=1CCCC1;;;;;O.C.C

>  <reaction-name>
s_42a

>  <reagent1-name>
8624686

>  <reagent1-smiles>
[R1*]=NC=1SC2=C(C1C(=[R2*])c3cc(F)c(cc3)C)CCC2

>  <reagent2-name>
125209

>  <reagent2-smiles>
[R1*]=C(c1ccc(S(=O)(=O)Nc2ccc(OC)cc2)cc1)C=[R2*]

$$$$
s_42a____8631722____125135
          04022017333D 1   1.00000     0.00000     0
            
 78 83  0  0  0  0            999 V2000
    9.4941    3.4862    1.2955 S   0  0  0  0  0  0  0  0  0  0  0  0
    8.5731    2.0574    1.1456 C   0  0  0  0  0  0  0  0  0  0  0  0
    7.2499    2.1576    1.1547 N   0  0  0  0  0  0  0  0  0  0  0  0
    6.5630    1.0202    1.0029 C   0  0  0  0  0  0  0  0  0  0  0  0
    5.1146    1.0204    1.0025 C   0  0  0  0  0  0  0  0  0  0  0  0
    4.4370   -0.1940    1.0004 C   0  0  0  0  0  0  0  0  0  0  0  0
    3.0459   -0.2044    0.9987 C   0  0  0  0  0  0  0  0  0  0  0  0
    2.3499    1.0000    1.0000 C   0  0  0  0  0  0  0  0  0  0  0  0
    1.0000    1.0000    1.0000 O   0  0  0  0  0  0  0  0  0  0  0  0
    0.2900   -0.2298    0.9987 C   0  0  0  0  0  0  0  0  0  0  0  0
   -1.2044    0.0480    0.9990 C   0  0  0  0  0  0  0  0  0  0  0  0
   -1.6044    1.1794    1.0002 O   0  0  0  0  0  0  0  0  0  0  0  0
   -2.0947   -0.9933    0.9979 N   0  0  0  0  0  0  0  0  0  0  0  0
   -3.3478   -0.8424    0.3918 C   0  0  0  0  0  0  0  0  0  0  0  0
   -4.4924   -0.7887    1.1807 C   0  0  0  0  0  0  0  0  0  0  0  0
   -5.7356   -0.6385    0.5750 C   0  0  0  0  0  0  0  0  0  0  0  0
   -5.8275   -0.5434   -0.8095 C   0  0  0  0  0  0  0  0  0  0  0  0
   -4.6764   -0.5977   -1.5883 C   0  0  0  0  0  0  0  0  0  0  0  0
   -3.4279   -0.7478   -0.9937 C   0  0  0  0  0  0  0  0  0  0  0  0
   -1.7343   -2.2691    1.6331 C   0  0  0  0  0  0  0  0  0  0  0  0
   -2.3169   -2.3189    3.0361 C   0  0  0  0  0  0  0  0  0  0  0  0
   -2.2926   -3.4196    0.8115 C   0  0  0  0  0  0  0  0  0  0  0  0
    3.0283    2.2145    1.0019 C   0  0  0  0  0  0  0  0  0  0  0  0
    4.4192    2.2251    1.0031 C   0  0  0  0  0  0  0  0  0  0  0  0
    7.2509   -0.1767    0.8411 C   0  0  0  0  0  0  0  0  0  0  0  0
    8.6430   -0.1900    0.8495 C   0  0  0  0  0  0  0  0  0  0  0  0
    9.4083    0.9634    1.0181 C   0  0  0  0  0  0  0  0  0  0  0  0
   10.7882    1.3302    1.0686 C   0  0  0  0  0  0  0  0  0  0  0  0
   10.9788    2.6784    1.1880 C   0  0  0  0  0  0  0  0  0  0  0  0
   12.2086    3.5603    1.2156 C   0  0  0  0  0  0  0  0  0  0  0  0
   13.3573    2.6314    1.5637 C   0  0  3  0  0  0  0  0  0  0  0  0
   13.3130    1.3995    0.6732 C   0  0  0  0  0  0  0  0  0  0  0  0
   12.0954    0.5558    1.0221 C   0  0  0  0  0  0  0  0  0  0  0  0
   14.6552    3.3879    1.3284 C   0  0  0  0  0  0  0  0  0  0  0  0
    9.3140   -1.4637    0.6755 C   0  0  0  0  0  0  0  0  0  0  0  0
    9.2502   -2.4078    1.6944 C   0  0  0  0  0  0  0  0  0  0  0  0
    9.8916   -3.6323    1.5374 C   0  0  0  0  0  0  0  0  0  0  0  0
   10.5881   -3.8974    0.3629 C   0  0  0  0  0  0  0  0  0  0  0  0
   11.2123   -5.0833    0.2008 O   0  0  0  0  0  0  0  0  0  0  0  0
   12.1978   -5.2345   -0.8103 C   0  0  0  0  0  0  0  0  0  0  0  0
   10.6517   -2.9525   -0.6560 C   0  0  0  0  0  0  0  0  0  0  0  0
   10.0108   -1.7280   -0.4991 C   0  0  0  0  0  0  0  0  0  0  0  0
    4.9466   -1.0545    1.0000 H   0  0  0  0  0  0  0  0  0  0  0  0
    2.5493   -1.0723    0.9966 H   0  0  0  0  0  0  0  0  0  0  0  0
    0.5316   -0.7550    1.8146 H   0  0  0  0  0  0  0  0  0  0  0  0
    0.5316   -0.7533    0.1817 H   0  0  0  0  0  0  0  0  0  0  0  0
   -4.4220   -0.8576    2.1759 H   0  0  0  0  0  0  0  0  0  0  0  0
   -6.5631   -0.5989    1.1349 H   0  0  0  0  0  0  0  0  0  0  0  0
   -6.7212   -0.4359   -1.2450 H   0  0  0  0  0  0  0  0  0  0  0  0
   -4.7469   -0.5283   -2.5834 H   0  0  0  0  0  0  0  0  0  0  0  0
   -2.6004   -0.7872   -1.5538 H   0  0  0  0  0  0  0  0  0  0  0  0
   -0.7386   -2.3472    1.6826 H   0  0  0  0  0  0  0  0  0  0  0  0
   -2.0718   -3.1868    3.4682 H   0  0  0  0  0  0  0  0  0  0  0  0
   -1.9496   -1.5620    3.5766 H   0  0  0  0  0  0  0  0  0  0  0  0
   -3.3126   -2.2408    2.9866 H   0  0  0  0  0  0  0  0  0  0  0  0
   -2.0474   -4.2875    1.2436 H   0  0  0  0  0  0  0  0  0  0  0  0
   -3.2883   -3.3415    0.7619 H   0  0  0  0  0  0  0  0  0  0  0  0
   -1.9093   -3.3869   -0.1115 H   0  0  0  0  0  0  0  0  0  0  0  0
    2.5188    3.0750    1.0024 H   0  0  0  0  0  0  0  0  0  0  0  0
    4.9159    3.0930    1.0044 H   0  0  0  0  0  0  0  0  0  0  0  0
    6.7446   -1.0303    0.7184 H   0  0  0  0  0  0  0  0  0  0  0  0
   12.1125    4.2742    1.9092 H   0  0  0  0  0  0  0  0  0  0  0  0
   12.3576    3.9822    0.3213 H   0  0  0  0  0  0  0  0  0  0  0  0
   13.2934    2.3583    2.5235 H   0  0  0  0  0  0  0  0  0  0  0  0
   14.1426    0.8589    0.8126 H   0  0  0  0  0  0  0  0  0  0  0  0
   13.2570    1.6834   -0.2840 H   0  0  0  0  0  0  0  0  0  0  0  0
   12.0074   -0.1657    0.3353 H   0  0  0  0  0  0  0  0  0  0  0  0
   12.2472    0.1440    1.9207 H   0  0  0  0  0  0  0  0  0  0  0  0
   15.4306    2.7969    1.5508 H   0  0  0  0  0  0  0  0  0  0  0  0
   14.7109    3.6639    0.3688 H   0  0  0  0  0  0  0  0  0  0  0  0
   14.6777    4.2005    1.9108 H   0  0  0  0  0  0  0  0  0  0  0  0
    8.7465   -2.2078    2.5348 H   0  0  0  0  0  0  0  0  0  0  0  0
    9.8523   -4.3177    2.2645 H   0  0  0  0  0  0  0  0  0  0  0  0
   12.5548   -6.1684   -0.7908 H   0  0  0  0  0  0  0  0  0  0  0  0
   11.7887   -5.0527   -1.7045 H   0  0  0  0  0  0  0  0  0  0  0  0
   12.9440   -4.5890   -0.6477 H   0  0  0  0  0  0  0  0  0  0  0  0
   11.1552   -3.1524   -1.4965 H   0  0  0  0  0  0  0  0  0  0  0  0
   10.0508   -1.0422   -1.2258 H   0  0  0  0  0  0  0  0  0  0  0  0
  1  2  1  0  0  0  0
  2  3  1  0  0  0  0
  3  4  2  0  0  0  0
  4  5  1  0  0  0  0
  5  6  1  0  0  0  0
  6  7  2  0  0  0  0
  7  8  1  0  0  0  0
  8  9  1  0  0  0  0
  9 10  1  0  0  0  0
 10 11  1  0  0  0  0
 11 12  2  0  0  0  0
 11 13  1  0  0  0  0
 13 14  1  0  0  0  0
 14 15  1  0  0  0  0
 15 16  2  0  0  0  0
 16 17  1  0  0  0  0
 17 18  2  0  0  0  0
 18 19  1  0  0  0  0
 19 14  2  0  0  0  0
 13 20  1  0  0  0  0
 20 21  1  0  0  0  0
 20 22  1  0  0  0  0
  8 23  2  0  0  0  0
 23 24  1  0  0  0  0
 24  5  2  0  0  0  0
  4 25  1  0  0  0  0
 25 26  2  0  0  0  0
 26 27  1  0  0  0  0
 27  2  2  0  0  0  0
 27 28  1  0  0  0  0
 28 29  2  0  0  0  0
 29  1  1  0  0  0  0
 29 30  1  0  0  0  0
 30 31  1  0  0  0  0
 31 32  1  0  0  0  0
 32 33  1  0  0  0  0
 33 28  1  0  0  0  0
 31 34  1  0  0  0  0
 26 35  1  0  0  0  0
 35 36  1  0  0  0  0
 36 37  2  0  0  0  0
 37 38  1  0  0  0  0
 38 39  1  0  0  0  0
 39 40  1  0  0  0  0
 38 41  2  0  0  0  0
 41 42  1  0  0  0  0
 42 35  2  0  0  0  0
  6 43  1  0  0  0  0
  7 44  1  0  0  0  0
 10 45  1  0  0  0  0
 10 46  1  0  0  0  0
 15 47  1  0  0  0  0
 16 48  1  0  0  0  0
 17 49  1  0  0  0  0
 18 50  1  0  0  0  0
 19 51  1  0  0  0  0
 20 52  1  0  0  0  0
 21 53  1  0  0  0  0
 21 54  1  0  0  0  0
 21 55  1  0  0  0  0
 22 56  1  0  0  0  0
 22 57  1  0  0  0  0
 22 58  1  0  0  0  0
 23 59  1  0  0  0  0
 24 60  1  0  0  0  0
 25 61  1  0  0  0  0
 30 62  1  0  0  0  0
 30 63  1  0  0  0  0
 31 64  1  0  0  0  0
 32 65  1  0  0  0  0
 32 66  1  0  0  0  0
 33 67  1  0  0  0  0
 33 68  1  0  0  0  0
 34 69  1  0  0  0  0
 34 70  1  0  0  0  0
 34 71  1  0  0  0  0
 36 72  1  0  0  0  0
 37 73  1  0  0  0  0
 40 74  1  0  0  0  0
 40 75  1  0  0  0  0
 40 76  1  0  0  0  0
 41 77  1  0  0  0  0
 42 78  1  0  0  0  0
M  END
>  <result-rank>
5

>  <similarity>
0.877

>  <query-name>


>  <query-smiles>
Clc1ccc(cc1)CS(=O)(=O)c2cc3N=C(c4c(N(c3cc2)C)cc5c(c4)C(CCC5(C)C)(C)C)c6ccc(cc6)C([O-])=O

>  <source>
REALspace_2019-12

>  <similarity-descriptor>
0.954;0.998;0.937;0.830;0.947;0.855;0.973;0.744;0.0;0.947;0.947;0.0;1.000;0.490;0.125

>  <similarity-descriptor-smiles>
c1ccccc1;c1ccccc1;c1ccccc1;S1C=Ccc1;C=1CCCCC1;c1ccccn1;NC;OCC=O;;C=1CCCCC1;C=1CCCCC1;;C;OC;C.C

>  <reaction-name>
s_42a

>  <reagent1-name>
8631722

>  <reagent1-smiles>
[R1*]=NC=1SC2=C(C1C(=[R2*])c3ccc(OC)cc3)CCC2

>  <reagent2-name>
125135

>  <reagent2-smiles>
[R1*]=C(c1ccc(OCC(=O)N(c2ccccc2)C(C)C)cc1)C=[R2*]

$$$$
s_17____15097546____62255
          04022017333D 1   1.00000     0.00000     0
            
 79 84  0  0  0  0            999 V2000
   -1.7398    5.5548    4.8295 S   0  0  0  0  0  0  0  0  0  0  0  0
   -3.1693    5.3815    4.8174 O   0  0  0  0  0  0  0  0  0  0  0  0
   -1.1929    4.9486    6.0157 O   0  0  0  0  0  0  0  0  0  0  0  0
   -1.3852    7.1457    4.8194 N   0  0  0  0  0  0  0  0  0  0  0  0
   -2.1321    8.0244    4.0255 C   0  0  0  0  0  0  0  0  0  0  0  0
   -3.2357    8.6725    4.5694 C   0  0  0  0  0  0  0  0  0  0  0  0
   -3.5757    8.4567    5.8367 F   0  0  0  0  0  0  0  0  0  0  0  0
   -3.9892    9.5491    3.7956 C   0  0  0  0  0  0  0  0  0  0  0  0
   -3.6221    9.7662    2.4719 C   0  0  0  0  0  0  0  0  0  0  0  0
   -2.5197    9.1195    1.9236 C   0  0  0  0  0  0  0  0  0  0  0  0
   -1.7690    8.2447    2.7009 C   0  0  0  0  0  0  0  0  0  0  0  0
   -1.0518    4.7982    3.4214 C   0  0  0  0  0  0  0  0  0  0  0  0
    0.1689    4.1389    3.5195 C   0  0  0  0  0  0  0  0  0  0  0  0
    0.7023    3.5410    2.3828 C   0  0  0  0  0  0  0  0  0  0  0  0
    1.9309    2.8769    2.4773 N   0  0  0  0  0  0  0  0  0  0  0  0
    3.1164    3.6256    2.4609 C   0  0  0  0  0  0  0  0  0  0  0  0
    3.0534    4.8398    2.3993 O   0  0  0  0  0  0  0  0  0  0  0  0
    4.3855    2.9320    2.4986 C   0  0  0  0  0  0  0  0  0  0  0  0
    4.4510    1.5464    2.6070 C   0  0  0  0  0  0  0  0  0  0  0  0
    5.6715    0.8750    2.5931 C   0  0  0  0  0  0  0  0  0  0  0  0
    6.8565    1.5883    2.4894 C   0  0  0  0  0  0  0  0  0  0  0  0
    6.8193    2.9747    2.4197 C   0  0  0  0  0  0  0  0  0  0  0  0
    5.5910    3.6248    2.4127 C   0  0  0  0  0  0  0  0  0  0  0  0
    3.2136    0.8092    2.7554 C   0  0  0  0  0  0  0  0  0  0  0  0
    1.9363    1.4806    2.5853 C   0  0  0  0  0  0  0  0  0  0  0  0
    0.8901    0.8552    2.5327 O   0  0  0  0  0  0  0  0  0  0  0  0
    3.1926   -0.4694    3.1142 C   0  0  0  0  0  0  0  0  0  0  0  0
    3.0297   -1.4445    2.1658 N   0  0  0  0  0  0  0  0  0  0  0  0
    3.0077   -2.7894    2.5432 C   0  0  0  0  0  0  0  0  0  0  0  0
    2.8422   -3.7719    1.5766 C   0  0  0  0  0  0  0  0  0  0  0  0
    2.8155   -5.1164    1.9276 C   0  0  0  0  0  0  0  0  0  0  0  0
    2.9606   -5.4544    3.2745 C   0  0  0  0  0  0  0  0  0  0  0  0
    3.1242   -4.4635    4.2327 C   0  0  0  0  0  0  0  0  0  0  0  0
    3.1496   -3.1186    3.8852 C   0  0  0  0  0  0  0  0  0  0  0  0
    2.9595   -6.9023    3.7505 C   0  0  0  0  0  0  0  0  0  0  0  0
    2.3722   -7.8461    2.7093 C   0  0  0  0  0  0  0  0  0  0  0  0
    2.9507   -7.5693    1.3287 C   0  0  0  0  0  0  0  0  0  0  0  0
    2.6165   -6.1677    0.8363 C   0  0  0  0  0  0  0  0  0  0  0  0
    3.3525   -5.8255   -0.4513 C   0  0  0  0  0  0  0  0  0  0  0  0
    1.1392   -6.1953    0.4852 C   0  0  0  0  0  0  0  0  0  0  0  0
    2.2615   -7.0962    5.0886 C   0  0  0  0  0  0  0  0  0  0  0  0
    4.4100   -7.3400    3.9297 C   0  0  0  0  0  0  0  0  0  0  0  0
    0.0316    3.5980    1.1653 C   0  0  0  0  0  0  0  0  0  0  0  0
   -1.1885    4.2607    1.0806 C   0  0  0  0  0  0  0  0  0  0  0  0
   -1.7330    4.8630    2.2102 C   0  0  0  0  0  0  0  0  0  0  0  0
   -0.6343    7.4942    5.3803 H   0  0  0  0  0  0  0  0  0  0  0  0
   -4.7830   10.0160    4.1852 H   0  0  0  0  0  0  0  0  0  0  0  0
   -4.1572   10.3949    1.9075 H   0  0  0  0  0  0  0  0  0  0  0  0
   -2.2669    9.2837    0.9701 H   0  0  0  0  0  0  0  0  0  0  0  0
   -0.9750    7.7781    2.3112 H   0  0  0  0  0  0  0  0  0  0  0  0
    0.6547    4.0955    4.3925 H   0  0  0  0  0  0  0  0  0  0  0  0
    5.6933   -0.1226    2.6581 H   0  0  0  0  0  0  0  0  0  0  0  0
    7.7326    1.1069    2.4648 H   0  0  0  0  0  0  0  0  0  0  0  0
    7.6687    3.5005    2.3750 H   0  0  0  0  0  0  0  0  0  0  0  0
    5.5719    4.6222    2.3438 H   0  0  0  0  0  0  0  0  0  0  0  0
    3.2958   -0.7203    4.0767 H   0  0  0  0  0  0  0  0  0  0  0  0
    2.9266   -1.1935    1.2033 H   0  0  0  0  0  0  0  0  0  0  0  0
    2.7411   -3.5094    0.6170 H   0  0  0  0  0  0  0  0  0  0  0  0
    3.2259   -4.7231    5.1930 H   0  0  0  0  0  0  0  0  0  0  0  0
    3.2665   -2.4091    4.5801 H   0  0  0  0  0  0  0  0  0  0  0  0
    1.3804   -7.7218    2.6786 H   0  0  0  0  0  0  0  0  0  0  0  0
    2.5821   -8.7890    2.9681 H   0  0  0  0  0  0  0  0  0  0  0  0
    3.9450   -7.6676    1.3703 H   0  0  0  0  0  0  0  0  0  0  0  0
    2.5767   -8.2352    0.6832 H   0  0  0  0  0  0  0  0  0  0  0  0
    3.1895   -6.5425   -1.1290 H   0  0  0  0  0  0  0  0  0  0  0  0
    3.0184   -4.9514   -0.8039 H   0  0  0  0  0  0  0  0  0  0  0  0
    4.3330   -5.7577   -0.2669 H   0  0  0  0  0  0  0  0  0  0  0  0
    0.9789   -6.8767   -0.2290 H   0  0  0  0  0  0  0  0  0  0  0  0
    0.6077   -6.4332    1.2982 H   0  0  0  0  0  0  0  0  0  0  0  0
    0.8581   -5.2941    0.1552 H   0  0  0  0  0  0  0  0  0  0  0  0
    2.2944   -8.0623    5.3448 H   0  0  0  0  0  0  0  0  0  0  0  0
    2.7232   -6.5501    5.7876 H   0  0  0  0  0  0  0  0  0  0  0  0
    1.3083   -6.8037    5.0128 H   0  0  0  0  0  0  0  0  0  0  0  0
    4.4355   -8.2895    4.2425 H   0  0  0  0  0  0  0  0  0  0  0  0
    4.8915   -7.2637    3.0566 H   0  0  0  0  0  0  0  0  0  0  0  0
    4.8538   -6.7537    4.6074 H   0  0  0  0  0  0  0  0  0  0  0  0
    0.4248    3.1643    0.3546 H   0  0  0  0  0  0  0  0  0  0  0  0
   -1.6743    4.3042    0.2076 H   0  0  0  0  0  0  0  0  0  0  0  0
   -2.6098    5.3402    2.1519 H   0  0  0  0  0  0  0  0  0  0  0  0
  1  2  2  0  0  0  0
  1  3  2  0  0  0  0
  1  4  1  0  0  0  0
  4  5  1  0  0  0  0
  5  6  1  0  0  0  0
  6  7  1  0  0  0  0
  6  8  2  0  0  0  0
  8  9  1  0  0  0  0
  9 10  2  0  0  0  0
 10 11  1  0  0  0  0
 11  5  2  0  0  0  0
  1 12  1  0  0  0  0
 12 13  1  0  0  0  0
 13 14  2  0  0  0  0
 14 15  1  0  0  0  0
 15 16  1  0  0  0  0
 16 17  2  0  0  0  0
 16 18  1  0  0  0  0
 18 19  1  0  0  0  0
 19 20  2  0  0  0  0
 20 21  1  0  0  0  0
 21 22  2  0  0  0  0
 22 23  1  0  0  0  0
 23 18  2  0  0  0  0
 19 24  1  0  0  0  0
 24 25  1  0  0  0  0
 25 15  1  0  0  0  0
 25 26  2  0  0  0  0
 24 27  2  0  0  0  0
 27 28  1  0  0  0  0
 28 29  1  0  0  0  0
 29 30  1  0  0  0  0
 30 31  2  0  0  0  0
 31 32  1  0  0  0  0
 32 33  2  0  0  0  0
 33 34  1  0  0  0  0
 34 29  2  0  0  0  0
 32 35  1  0  0  0  0
 35 36  1  0  0  0  0
 36 37  1  0  0  0  0
 37 38  1  0  0  0  0
 38 31  1  0  0  0  0
 38 39  1  0  0  0  0
 38 40  1  0  0  0  0
 35 41  1  0  0  0  0
 35 42  1  0  0  0  0
 14 43  1  0  0  0  0
 43 44  2  0  0  0  0
 44 45  1  0  0  0  0
 45 12  2  0  0  0  0
  4 46  1  0  0  0  0
  8 47  1  0  0  0  0
  9 48  1  0  0  0  0
 10 49  1  0  0  0  0
 11 50  1  0  0  0  0
 13 51  1  0  0  0  0
 20 52  1  0  0  0  0
 21 53  1  0  0  0  0
 22 54  1  0  0  0  0
 23 55  1  0  0  0  0
 27 56  1  0  0  0  0
 28 57  1  0  0  0  0
 30 58  1  0  0  0  0
 33 59  1  0  0  0  0
 34 60  1  0  0  0  0
 36 61  1  0  0  0  0
 36 62  1  0  0  0  0
 37 63  1  0  0  0  0
 37 64  1  0  0  0  0
 39 65  1  0  0  0  0
 39 66  1  0  0  0  0
 39 67  1  0  0  0  0
 40 68  1  0  0  0  0
 40 69  1  0  0  0  0
 40 70  1  0  0  0  0
 41 71  1  0  0  0  0
 41 72  1  0  0  0  0
 41 73  1  0  0  0  0
 42 74  1  0  0  0  0
 42 75  1  0  0  0  0
 42 76  1  0  0  0  0
 43 77  1  0  0  0  0
 44 78  1  0  0  0  0
 45 79  1  0  0  0  0
M  END
>  <result-rank>
6

>  <similarity>
0.877

>  <query-name>


>  <query-smiles>
Clc1ccc(cc1)CS(=O)(=O)c2cc3N=C(c4c(N(c3cc2)C)cc5c(c4)C(CCC5(C)C)(C)C)c6ccc(cc6)C([O-])=O

>  <source>
REALspace_2019-12

>  <similarity-descriptor>
0.922;0.984;0.937;0.770;1.000;0.651;0.901;0.901;0.651;1.000;1.000;1.000;1.000;0.0;0.0

>  <similarity-descriptor-smiles>
Nc1ccccc1F;c1ccccc1;c1ccccc1;CNc1ccccc1;c1CCCCc1;N1C(CccC1=O)=O;S(=O)=O;S(=O)=O;N1C(CccC1=O)=O;C;C;C;C;;

>  <reaction-name>
s_17

>  <reagent1-name>
15097546

>  <reagent1-smiles>
[R1*]Nc1cc2c(cc1)C(CCC2(C)C)(C)C

>  <reagent2-name>
62255

>  <reagent2-smiles>
[R1*]C=C1c2c(cccc2)C(=O)N(c3cc(S(=O)(=O)Nc4c(F)cccc4)ccc3)C1=O

$$$$
s_42a____8631722____9284816
          04022017333D 1   1.00000     0.00000     0
            
 65 71  0  0  0  0            999 V2000
    6.4486   -1.8786    2.4752 Br  0  0  0  0  0  0  0  0  0  0  0  0
    5.4996   -0.1640    2.4661 C   0  0  0  0  0  0  0  0  0  0  0  0
    6.1937    1.0395    2.4522 C   0  0  0  0  0  0  0  0  0  0  0  0
    5.5425    2.2101    2.4411 N   0  0  0  0  0  0  0  0  0  0  0  0
    4.2140    2.1482    2.4405 C   0  0  0  0  0  0  0  0  0  0  0  0
    3.3728    3.6294    2.4000 S   0  0  0  0  0  0  0  0  0  0  0  0
    1.8501    2.8635    2.4241 C   0  0  0  0  0  0  0  0  0  0  0  0
    2.0207    1.5028    2.4906 C   0  0  0  0  0  0  0  0  0  0  0  0
    3.3807    1.0410    2.4658 C   0  0  0  0  0  0  0  0  0  0  0  0
    4.1089   -0.1447    2.4732 C   0  0  0  0  0  0  0  0  0  0  0  0
    3.4115   -1.4160    2.4909 C   0  0  0  0  0  0  0  0  0  0  0  0
    3.0921   -1.9966    3.7135 C   0  0  0  0  0  0  0  0  0  0  0  0
    2.4241   -3.2166    3.7409 C   0  0  0  0  0  0  0  0  0  0  0  0
    2.0833   -3.8402    2.5452 C   0  0  0  0  0  0  0  0  0  0  0  0
    1.4337   -5.0235    2.5617 O   0  0  0  0  0  0  0  0  0  0  0  0
    1.0982   -5.6317    3.8003 C   0  0  0  0  0  0  0  0  0  0  0  0
    2.4032   -3.2591    1.3225 C   0  0  0  0  0  0  0  0  0  0  0  0
    3.0714   -2.0395    1.2948 C   0  0  0  0  0  0  0  0  0  0  0  0
    0.7106    0.7366    2.5998 C   0  0  0  0  0  0  0  0  0  0  0  0
   -0.5022    1.5391    2.1560 C   0  0  0  0  0  0  0  0  0  0  0  0
   -0.4941    2.8329    2.9504 C   0  0  3  0  0  0  0  0  0  0  0  0
    0.5946    3.7126    2.3671 C   0  0  0  0  0  0  0  0  0  0  0  0
   -1.7926    3.5998    2.7587 C   0  0  0  0  0  0  0  0  0  0  0  0
    7.6437    1.0151    2.4489 C   0  0  0  0  0  0  0  0  0  0  0  0
    8.3367    0.9903    1.2425 C   0  0  0  0  0  0  0  0  0  0  0  0
    7.6633    0.9887    0.0150 N   0  0  0  0  0  0  0  0  0  0  0  0
    7.2533   -0.1422   -0.6851 C   0  0  0  0  0  0  0  0  0  0  0  0
    7.4253   -1.2951   -0.3259 O   0  0  0  0  0  0  0  0  0  0  0  0
    6.5983    0.2830   -1.8988 C   0  0  0  0  0  0  0  0  0  0  0  0
    6.6370    1.6526   -1.9064 C   0  0  0  0  0  0  0  0  0  0  0  0
    6.0655    2.2809   -3.0084 C   0  0  0  0  0  0  0  0  0  0  0  0
    5.4890    1.5475   -4.0391 C   0  0  0  0  0  0  0  0  0  0  0  0
    5.4697    0.1572   -3.9958 C   0  0  0  0  0  0  0  0  0  0  0  0
    6.0388   -0.4938   -2.9060 C   0  0  0  0  0  0  0  0  0  0  0  0
    7.2896    2.1187   -0.7059 C   0  0  0  0  0  0  0  0  0  0  0  0
    7.4743    3.2846   -0.3957 O   0  0  0  0  0  0  0  0  0  0  0  0
    9.7270    0.9672    1.2395 C   0  0  0  0  0  0  0  0  0  0  0  0
   10.4255    0.9688    2.4427 C   0  0  0  0  0  0  0  0  0  0  0  0
    9.7330    0.9934    3.6489 C   0  0  0  0  0  0  0  0  0  0  0  0
    8.3422    1.0158    3.6520 C   0  0  0  0  0  0  0  0  0  0  0  0
    3.3410   -1.5400    4.5676 H   0  0  0  0  0  0  0  0  0  0  0  0
    2.1905   -3.6427    4.6149 H   0  0  0  0  0  0  0  0  0  0  0  0
    0.6242   -6.4955    3.6298 H   0  0  0  0  0  0  0  0  0  0  0  0
    1.9329   -5.8068    4.3225 H   0  0  0  0  0  0  0  0  0  0  0  0
    0.5014   -5.0210    4.3207 H   0  0  0  0  0  0  0  0  0  0  0  0
    2.1542   -3.7155    0.4683 H   0  0  0  0  0  0  0  0  0  0  0  0
    3.3059   -1.6137    0.4208 H   0  0  0  0  0  0  0  0  0  0  0  0
    0.5800    0.4678    3.5541 H   0  0  0  0  0  0  0  0  0  0  0  0
    0.7744   -0.0818    2.0287 H   0  0  0  0  0  0  0  0  0  0  0  0
   -0.4438    1.7366    1.1775 H   0  0  0  0  0  0  0  0  0  0  0  0
   -1.3402    1.0265    2.3432 H   0  0  0  0  0  0  0  0  0  0  0  0
   -0.3261    2.6543    3.9198 H   0  0  0  0  0  0  0  0  0  0  0  0
    0.3792    3.9600    1.4224 H   0  0  0  0  0  0  0  0  0  0  0  0
    0.7061    4.5434    2.9122 H   0  0  0  0  0  0  0  0  0  0  0  0
   -2.5530    3.0651    3.1272 H   0  0  0  0  0  0  0  0  0  0  0  0
   -1.7368    4.4751    3.2392 H   0  0  0  0  0  0  0  0  0  0  0  0
   -1.9420    3.7638    1.7836 H   0  0  0  0  0  0  0  0  0  0  0  0
    6.0695    3.2796   -3.0601 H   0  0  0  0  0  0  0  0  0  0  0  0
    5.0840    2.0241   -4.8194 H   0  0  0  0  0  0  0  0  0  0  0  0
    5.0525   -0.3672   -4.7380 H   0  0  0  0  0  0  0  0  0  0  0  0
    6.0451   -1.4921   -2.8491 H   0  0  0  0  0  0  0  0  0  0  0  0
   10.2248    0.9495    0.3724 H   0  0  0  0  0  0  0  0  0  0  0  0
   11.4253    0.9521    2.4404 H   0  0  0  0  0  0  0  0  0  0  0  0
   10.2350    0.9950    4.5137 H   0  0  0  0  0  0  0  0  0  0  0  0
    7.8444    1.0324    4.5192 H   0  0  0  0  0  0  0  0  0  0  0  0
  1  2  1  0  0  0  0
  2  3  1  0  0  0  0
  3  4  2  0  0  0  0
  4  5  1  0  0  0  0
  5  6  1  0  0  0  0
  6  7  1  0  0  0  0
  7  8  2  0  0  0  0
  8  9  1  0  0  0  0
  9  5  2  0  0  0  0
  9 10  1  0  0  0  0
 10  2  2  0  0  0  0
 10 11  1  0  0  0  0
 11 12  1  0  0  0  0
 12 13  2  0  0  0  0
 13 14  1  0  0  0  0
 14 15  1  0  0  0  0
 15 16  1  0  0  0  0
 14 17  2  0  0  0  0
 17 18  1  0  0  0  0
 18 11  2  0  0  0  0
  8 19  1  0  0  0  0
 19 20  1  0  0  0  0
 20 21  1  0  0  0  0
 21 22  1  0  0  0  0
 22  7  1  0  0  0  0
 21 23  1  0  0  0  0
  3 24  1  0  0  0  0
 24 25  1  0  0  0  0
 25 26  1  0  0  0  0
 26 27  1  0  0  0  0
 27 28  2  0  0  0  0
 27 29  1  0  0  0  0
 29 30  1  0  0  0  0
 30 31  2  0  0  0  0
 31 32  1  0  0  0  0
 32 33  2  0  0  0  0
 33 34  1  0  0  0  0
 34 29  2  0  0  0  0
 30 35  1  0  0  0  0
 35 26  1  0  0  0  0
 35 36  2  0  0  0  0
 25 37  2  0  0  0  0
 37 38  1  0  0  0  0
 38 39  2  0  0  0  0
 39 40  1  0  0  0  0
 40 24  2  0  0  0  0
 12 41  1  0  0  0  0
 13 42  1  0  0  0  0
 16 43  1  0  0  0  0
 16 44  1  0  0  0  0
 16 45  1  0  0  0  0
 17 46  1  0  0  0  0
 18 47  1  0  0  0  0
 19 48  1  0  0  0  0
 19 49  1  0  0  0  0
 20 50  1  0  0  0  0
 20 51  1  0  0  0  0
 21 52  1  0  0  0  0
 22 53  1  0  0  0  0
 22 54  1  0  0  0  0
 23 55  1  0  0  0  0
 23 56  1  0  0  0  0
 23 57  1  0  0  0  0
 31 58  1  0  0  0  0
 32 59  1  0  0  0  0
 33 60  1  0  0  0  0
 34 61  1  0  0  0  0
 37 62  1  0  0  0  0
 38 63  1  0  0  0  0
 39 64  1  0  0  0  0
 40 65  1  0  0  0  0
M  END
>  <result-rank>
7

>  <similarity>
0.876

>  <query-name>


>  <query-smiles>
Clc1ccc(cc1)CS(=O)(=O)c2cc3N=C(c4c(N(c3cc2)C)cc5c(c4)C(CCC5(C)C)(C)C)c6ccc(cc6)C([O-])=O

>  <source>
REALspace_2019-12

>  <similarity-descriptor>
0.951;0.998;0.938;0.830;0.947;0.881;0.705;0.705;0.881;0.947;0.947;0.0;1.000;0.490;0.0

>  <similarity-descriptor-smiles>
c1ccccc1;c1ccccc1;c1ccccc1;c1cC=CS1;C=1CCCCC1;Brc1cccnc1;N1C(ccC1=O)=O;N1C(ccC1=O)=O;Brc1cccnc1;C=1CCCCC1;C=1CCCCC1;;C;OC;

>  <reaction-name>
s_42a

>  <reagent1-name>
8631722

>  <reagent1-smiles>
[R1*]=NC=1SC2=C(C1C(=[R2*])c3ccc(OC)cc3)CCC2

>  <reagent2-name>
9284816

>  <reagent2-smiles>
[R2*]=C(Br)C(=[R1*])c1c(N2C(=O)c3c(cccc3)C2=O)cccc1

$$$$
s_42a____8631722____125111
          04022017333D 1   1.00000     0.00000     0
            
 65 70  0  0  0  0            999 V2000
    6.4531   -1.8732    2.4611 Br  0  0  0  0  0  0  0  0  0  0  0  0
    5.4880   -0.1669    2.4584 C   0  0  0  0  0  0  0  0  0  0  0  0
    6.1969    1.0326    2.4518 C   0  0  0  0  0  0  0  0  0  0  0  0
    5.5304    2.1930    2.4486 N   0  0  0  0  0  0  0  0  0  0  0  0
    4.2062    2.1382    2.4537 C   0  0  0  0  0  0  0  0  0  0  0  0
    3.3731    3.6165    2.4443 S   0  0  0  0  0  0  0  0  0  0  0  0
    1.8338    2.9022    2.4038 C   0  0  0  0  0  0  0  0  0  0  0  0
    2.0163    1.5593    2.4095 C   0  0  0  0  0  0  0  0  0  0  0  0
    3.3619    1.0548    2.4518 C   0  0  0  0  0  0  0  0  0  0  0  0
    4.0935   -0.1358    2.4597 C   0  0  0  0  0  0  0  0  0  0  0  0
    3.3848   -1.4009    2.4646 C   0  0  0  0  0  0  0  0  0  0  0  0
    3.0549   -1.9880    3.6813 C   0  0  0  0  0  0  0  0  0  0  0  0
    2.3760   -3.2022    3.6964 C   0  0  0  0  0  0  0  0  0  0  0  0
    2.0349   -3.8136    2.4945 C   0  0  0  0  0  0  0  0  0  0  0  0
    1.3748   -4.9911    2.4991 O   0  0  0  0  0  0  0  0  0  0  0  0
    1.0283   -5.6060    3.7314 C   0  0  0  0  0  0  0  0  0  0  0  0
    2.3653   -3.2260    1.2777 C   0  0  0  0  0  0  0  0  0  0  0  0
    3.0445   -2.0123    1.2622 C   0  0  0  0  0  0  0  0  0  0  0  0
    0.6795    0.8272    2.3619 C   0  0  0  0  0  0  0  0  0  0  0  0
   -0.1905    1.4429    1.2651 C   0  0  0  0  0  0  0  0  0  0  0  0
   -0.1648    2.9652    1.1690 C   0  0  3  0  0  0  0  0  0  0  0  0
    0.5157    3.6440    2.3373 C   0  0  0  0  0  0  0  0  0  0  0  0
   -1.5920    3.4787    1.1123 C   0  0  0  0  0  0  0  0  0  0  0  0
    7.6469    1.0147    2.4477 C   0  0  0  0  0  0  0  0  0  0  0  0
    8.3138    0.3945    1.3967 C   0  0  0  0  0  0  0  0  0  0  0  0
    9.7048    0.3710    1.3844 C   0  0  0  0  0  0  0  0  0  0  0  0
   10.4112    0.9687    2.4229 C   0  0  0  0  0  0  0  0  0  0  0  0
   11.7610    0.9523    2.4187 O   0  0  0  0  0  0  0  0  0  0  0  0
   12.4850    1.8886    3.2033 C   0  0  0  0  0  0  0  0  0  0  0  0
   13.9764    1.6568    3.0209 C   0  0  0  0  0  0  0  0  0  0  0  0
   14.6590    2.3248    2.0095 C   0  0  0  0  0  0  0  0  0  0  0  0
   16.0234    2.1092    1.8455 C   0  0  0  0  0  0  0  0  0  0  0  0
   16.6954    1.2320    2.6904 C   0  0  0  0  0  0  0  0  0  0  0  0
   16.0035    0.5707    3.6975 C   0  0  0  0  0  0  0  0  0  0  0  0
   14.6389    0.7773    3.8713 C   0  0  0  0  0  0  0  0  0  0  0  0
    9.7436    1.5888    3.4740 C   0  0  0  0  0  0  0  0  0  0  0  0
    8.3529    1.6121    3.4868 C   0  0  0  0  0  0  0  0  0  0  0  0
    3.3041   -1.5402    4.5399 H   0  0  0  0  0  0  0  0  0  0  0  0
    2.1347   -3.6328    4.5661 H   0  0  0  0  0  0  0  0  0  0  0  0
    0.5474   -6.4642    3.5520 H   0  0  0  0  0  0  0  0  0  0  0  0
    1.8590   -5.7927    4.2559 H   0  0  0  0  0  0  0  0  0  0  0  0
    0.4346   -4.9941    4.2539 H   0  0  0  0  0  0  0  0  0  0  0  0
    2.1160   -3.6737    0.4189 H   0  0  0  0  0  0  0  0  0  0  0  0
    3.2865   -1.5819    0.3926 H   0  0  0  0  0  0  0  0  0  0  0  0
    0.2178    0.9156    3.2445 H   0  0  0  0  0  0  0  0  0  0  0  0
    0.8347   -0.1403    2.1623 H   0  0  0  0  0  0  0  0  0  0  0  0
    0.1173    1.0754    0.3875 H   0  0  0  0  0  0  0  0  0  0  0  0
   -1.1360    1.1625    1.4307 H   0  0  0  0  0  0  0  0  0  0  0  0
    0.3054    3.2268    0.3260 H   0  0  0  0  0  0  0  0  0  0  0  0
    0.6550    4.6184    2.1612 H   0  0  0  0  0  0  0  0  0  0  0  0
   -0.0092    3.5294    3.1808 H   0  0  0  0  0  0  0  0  0  0  0  0
   -2.0712    3.0478    0.3477 H   0  0  0  0  0  0  0  0  0  0  0  0
   -2.0605    3.2562    1.9673 H   0  0  0  0  0  0  0  0  0  0  0  0
   -1.5846    4.4705    0.9846 H   0  0  0  0  0  0  0  0  0  0  0  0
    7.7968   -0.0319    0.6545 H   0  0  0  0  0  0  0  0  0  0  0  0
   10.1937   -0.0730    0.6334 H   0  0  0  0  0  0  0  0  0  0  0  0
   12.2450    1.7722    4.1670 H   0  0  0  0  0  0  0  0  0  0  0  0
   12.2539    2.8169    2.9120 H   0  0  0  0  0  0  0  0  0  0  0  0
   14.1724    2.9553    1.4048 H   0  0  0  0  0  0  0  0  0  0  0  0
   16.5212    2.5848    1.1202 H   0  0  0  0  0  0  0  0  0  0  0  0
   17.6764    1.0775    2.5729 H   0  0  0  0  0  0  0  0  0  0  0  0
   16.4905   -0.0592    4.3025 H   0  0  0  0  0  0  0  0  0  0  0  0
   14.1416    0.3009    4.5964 H   0  0  0  0  0  0  0  0  0  0  0  0
   10.2605    2.0153    4.2162 H   0  0  0  0  0  0  0  0  0  0  0  0
    7.8638    2.0553    4.2381 H   0  0  0  0  0  0  0  0  0  0  0  0
  1  2  1  0  0  0  0
  2  3  1  0  0  0  0
  3  4  2  0  0  0  0
  4  5  1  0  0  0  0
  5  6  1  0  0  0  0
  6  7  1  0  0  0  0
  7  8  2  0  0  0  0
  8  9  1  0  0  0  0
  9  5  2  0  0  0  0
  9 10  1  0  0  0  0
 10  2  2  0  0  0  0
 10 11  1  0  0  0  0
 11 12  1  0  0  0  0
 12 13  2  0  0  0  0
 13 14  1  0  0  0  0
 14 15  1  0  0  0  0
 15 16  1  0  0  0  0
 14 17  2  0  0  0  0
 17 18  1  0  0  0  0
 18 11  2  0  0  0  0
  8 19  1  0  0  0  0
 19 20  1  0  0  0  0
 20 21  1  0  0  0  0
 21 22  1  0  0  0  0
 22  7  1  0  0  0  0
 21 23  1  0  0  0  0
  3 24  1  0  0  0  0
 24 25  1  0  0  0  0
 25 26  2  0  0  0  0
 26 27  1  0  0  0  0
 27 28  1  0  0  0  0
 28 29  1  0  0  0  0
 29 30  1  0  0  0  0
 30 31  1  0  0  0  0
 31 32  2  0  0  0  0
 32 33  1  0  0  0  0
 33 34  2  0  0  0  0
 34 35  1  0  0  0  0
 35 30  2  0  0  0  0
 27 36  2  0  0  0  0
 36 37  1  0  0  0  0
 37 24  2  0  0  0  0
 12 38  1  0  0  0  0
 13 39  1  0  0  0  0
 16 40  1  0  0  0  0
 16 41  1  0  0  0  0
 16 42  1  0  0  0  0
 17 43  1  0  0  0  0
 18 44  1  0  0  0  0
 19 45  1  0  0  0  0
 19 46  1  0  0  0  0
 20 47  1  0  0  0  0
 20 48  1  0  0  0  0
 21 49  1  0  0  0  0
 22 50  1  0  0  0  0
 22 51  1  0  0  0  0
 23 52  1  0  0  0  0
 23 53  1  0  0  0  0
 23 54  1  0  0  0  0
 25 55  1  0  0  0  0
 26 56  1  0  0  0  0
 29 57  1  0  0  0  0
 29 58  1  0  0  0  0
 31 59  1  0  0  0  0
 32 60  1  0  0  0  0
 33 61  1  0  0  0  0
 34 62  1  0  0  0  0
 35 63  1  0  0  0  0
 36 64  1  0  0  0  0
 37 65  1  0  0  0  0
M  END
>  <result-rank>
8

>  <similarity>
0.873

>  <query-name>


>  <query-smiles>
Clc1ccc(cc1)CS(=O)(=O)c2cc3N=C(c4c(N(c3cc2)C)cc5c(c4)C(CCC5(C)C)(C)C)c6ccc(cc6)C([O-])=O

>  <source>
REALspace_2019-12

>  <similarity-descriptor>
0.952;0.998;0.937;0.830;0.947;0.881;0.540;0.540;0.881;0.947;0.947;0.0;1.000;0.490;0.0

>  <similarity-descriptor-smiles>
c1ccccc1;c1ccccc1;c1ccccc1;c1cC=CS1;C=1CCCCC1;Brc1cccnc1;OC;OC;Brc1cccnc1;C=1CCCCC1;C=1CCCCC1;;C;OC;

>  <reaction-name>
s_42a

>  <reagent1-name>
8631722

>  <reagent1-smiles>
[R1*]=NC=1SC2=C(C1C(=[R2*])c3ccc(OC)cc3)CCC2

>  <reagent2-name>
125111

>  <reagent2-smiles>
[R1*]=C(c1ccc(OCc2ccccc2)cc1)C=[R2*]

$$$$
s_42a____8624698____3048566
          04022017333D 1   1.00000     0.00000     0
            
 58 63  0  0  0  0            999 V2000
    6.9735   -2.7806    2.4256 S   0  0  0  0  0  0  0  0  0  0  0  0
    6.8572   -1.0846    2.4463 C   0  0  0  0  0  0  0  0  0  0  0  0
    5.6558   -0.5109    2.4581 N   0  0  0  0  0  0  0  0  0  0  0  0
    5.6574    0.8229    2.4637 C   0  0  0  0  0  0  0  0  0  0  0  0
    4.3934    1.5238    2.4792 C   0  0  0  0  0  0  0  0  0  0  0  0
    4.3898    2.9144    2.4850 C   0  0  0  0  0  0  0  0  0  0  0  0
    3.1783    3.5981    2.5011 C   0  0  0  0  0  0  0  0  0  0  0  0
    1.9856    2.8824    2.5103 C   0  0  0  0  0  0  0  0  0  0  0  0
    0.8052    3.5371    2.5243 O   0  0  0  0  0  0  0  0  0  0  0  0
    0.7807    4.9569    2.5297 C   0  0  0  0  0  0  0  0  0  0  0  0
   -0.6606    5.4387    2.5457 C   0  0  0  0  0  0  0  0  0  0  0  0
   -1.2963    5.6508    3.7645 C   0  0  0  0  0  0  0  0  0  0  0  0
   -2.6155    6.0919    3.7855 C   0  0  0  0  0  0  0  0  0  0  0  0
   -3.2823    6.3156    2.5852 C   0  0  0  0  0  0  0  0  0  0  0  0
   -4.5435    6.7383    2.5977 F   0  0  0  0  0  0  0  0  0  0  0  0
   -2.6514    6.1041    1.3636 C   0  0  0  0  0  0  0  0  0  0  0  0
   -1.3323    5.6634    1.3488 C   0  0  0  0  0  0  0  0  0  0  0  0
    1.9898    1.4913    2.5046 C   0  0  0  0  0  0  0  0  0  0  0  0
    3.2009    0.8075    2.4890 C   0  0  0  0  0  0  0  0  0  0  0  0
    6.8390    1.5576    2.4533 C   0  0  0  0  0  0  0  0  0  0  0  0
    8.0554    0.8798    2.4399 C   0  0  0  0  0  0  0  0  0  0  0  0
    9.2762    1.6621    2.4241 C   0  0  0  0  0  0  0  0  0  0  0  0
    9.4260    2.6878    1.4964 C   0  0  0  0  0  0  0  0  0  0  0  0
   10.5993    3.4343    1.4850 C   0  0  0  0  0  0  0  0  0  0  0  0
   11.6072    3.1479    2.4005 C   0  0  0  0  0  0  0  0  0  0  0  0
   11.4555    2.1233    3.3297 C   0  0  0  0  0  0  0  0  0  0  0  0
   10.2826    1.3757    3.3402 C   0  0  0  0  0  0  0  0  0  0  0  0
   12.8881    3.9666    2.3821 C   0  0  0  0  0  0  0  0  0  0  0  0
   12.7557    5.0163    3.1880 F   0  0  0  0  0  0  0  0  0  0  0  0
   13.9028    3.2138    2.7977 F   0  0  0  0  0  0  0  0  0  0  0  0
   13.1262    4.3864    1.1427 F   0  0  0  0  0  0  0  0  0  0  0  0
    8.1146   -0.5119    2.4395 C   0  0  0  0  0  0  0  0  0  0  0  0
    9.1363   -1.5309    2.4018 C   0  0  0  0  0  0  0  0  0  0  0  0
    8.6735   -2.7862    2.3806 C   0  0  0  0  0  0  0  0  0  0  0  0
    9.7013   -3.8910    2.3096 C   0  0  0  0  0  0  0  0  0  0  0  0
   10.8173   -3.1418    2.9951 C   0  0  0  0  0  0  0  0  0  0  0  0
   10.6312   -1.7778    2.3688 C   0  0  0  0  0  0  0  0  0  0  0  0
    5.2527    3.4198    2.4778 H   0  0  0  0  0  0  0  0  0  0  0  0
    3.1650    4.5980    2.5060 H   0  0  0  0  0  0  0  0  0  0  0  0
    1.2382    5.3012    1.7099 H   0  0  0  0  0  0  0  0  0  0  0  0
    1.2543    5.2953    3.3428 H   0  0  0  0  0  0  0  0  0  0  0  0
   -0.8076    5.4870    4.6213 H   0  0  0  0  0  0  0  0  0  0  0  0
   -3.0810    6.2471    4.6568 H   0  0  0  0  0  0  0  0  0  0  0  0
   -3.1403    6.2670    0.5066 H   0  0  0  0  0  0  0  0  0  0  0  0
   -0.8668    5.5080    0.4775 H   0  0  0  0  0  0  0  0  0  0  0  0
    1.1270    0.9859    2.5117 H   0  0  0  0  0  0  0  0  0  0  0  0
    3.2144   -0.1924    2.4849 H   0  0  0  0  0  0  0  0  0  0  0  0
    6.8151    2.5573    2.4553 H   0  0  0  0  0  0  0  0  0  0  0  0
    8.6958    2.8867    0.8428 H   0  0  0  0  0  0  0  0  0  0  0  0
   10.7180    4.1734    0.8220 H   0  0  0  0  0  0  0  0  0  0  0  0
   12.1845    1.9259    3.9852 H   0  0  0  0  0  0  0  0  0  0  0  0
   10.1637    0.6363    4.0028 H   0  0  0  0  0  0  0  0  0  0  0  0
    9.9296   -4.1422    1.3689 H   0  0  0  0  0  0  0  0  0  0  0  0
    9.4215   -4.7078    2.8141 H   0  0  0  0  0  0  0  0  0  0  0  0
   11.7133   -3.5307    2.7808 H   0  0  0  0  0  0  0  0  0  0  0  0
   10.6938   -3.1159    3.9871 H   0  0  0  0  0  0  0  0  0  0  0  0
   11.1144   -1.0797    2.8972 H   0  0  0  0  0  0  0  0  0  0  0  0
   10.9671   -1.7749    1.4269 H   0  0  0  0  0  0  0  0  0  0  0  0
  1  2  1  0  0  0  0
  2  3  1  0  0  0  0
  3  4  2  0  0  0  0
  4  5  1  0  0  0  0
  5  6  1  0  0  0  0
  6  7  2  0  0  0  0
  7  8  1  0  0  0  0
  8  9  1  0  0  0  0
  9 10  1  0  0  0  0
 10 11  1  0  0  0  0
 11 12  1  0  0  0  0
 12 13  2  0  0  0  0
 13 14  1  0  0  0  0
 14 15  1  0  0  0  0
 14 16  2  0  0  0  0
 16 17  1  0  0  0  0
 17 11  2  0  0  0  0
  8 18  2  0  0  0  0
 18 19  1  0  0  0  0
 19  5  2  0  0  0  0
  4 20  1  0  0  0  0
 20 21  2  0  0  0  0
 21 22  1  0  0  0  0
 22 23  1  0  0  0  0
 23 24  2  0  0  0  0
 24 25  1  0  0  0  0
 25 26  2  0  0  0  0
 26 27  1  0  0  0  0
 27 22  2  0  0  0  0
 25 28  1  0  0  0  0
 28 29  1  0  0  0  0
 28 30  1  0  0  0  0
 28 31  1  0  0  0  0
 21 32  1  0  0  0  0
 32  2  2  0  0  0  0
 32 33  1  0  0  0  0
 33 34  2  0  0  0  0
 34  1  1  0  0  0  0
 34 35  1  0  0  0  0
 35 36  1  0  0  0  0
 36 37  1  0  0  0  0
 37 33  1  0  0  0  0
  6 38  1  0  0  0  0
  7 39  1  0  0  0  0
 10 40  1  0  0  0  0
 10 41  1  0  0  0  0
 12 42  1  0  0  0  0
 13 43  1  0  0  0  0
 16 44  1  0  0  0  0
 17 45  1  0  0  0  0
 18 46  1  0  0  0  0
 19 47  1  0  0  0  0
 20 48  1  0  0  0  0
 23 49  1  0  0  0  0
 24 50  1  0  0  0  0
 26 51  1  0  0  0  0
 27 52  1  0  0  0  0
 35 53  1  0  0  0  0
 35 54  1  0  0  0  0
 36 55  1  0  0  0  0
 36 56  1  0  0  0  0
 37 57  1  0  0  0  0
 37 58  1  0  0  0  0
M  END
>  <result-rank>
9

>  <similarity>
0.873

>  <query-name>


>  <query-smiles>
Clc1ccc(cc1)CS(=O)(=O)c2cc3N=C(c4c(N(c3cc2)C)cc5c(c4)C(CCC5(C)C)(C)C)c6ccc(cc6)C([O-])=O

>  <source>
REALspace_2019-12

>  <similarity-descriptor>
0.985;0.942;0.937;0.830;0.965;0.855;0.540;0.540;0.0;0.965;0.0;0.0;0.0;0.0;0.0

>  <similarity-descriptor-smiles>
c1ccc(cc1)F;c1ccc(cc1)C(F)(F)F;c1ccccc1;S1C=Ccc1;C=1CCCC1;c1ccccn1;OC;OC;;C=1CCCC1;;;;;

>  <reaction-name>
s_42a

>  <reagent1-name>
8624698

>  <reagent1-smiles>
[R1*]=NC=1SC2=C(C1C(=[R2*])c3ccc(cc3)C(F)(F)F)CCC2

>  <reagent2-name>
3048566

>  <reagent2-smiles>
[R1*]=C(c1ccc(OCc2ccc(F)cc2)cc1)C=[R2*]

$$$$
m_271722____10195674____11365928
          04022017333D 1   1.00000     0.00000     0
            
 58 62  0  0  0  0            999 V2000
    4.6172    4.6351    4.6437 Cl  0  0  0  0  0  0  0  0  0  0  0  0
    3.6085    3.6045    3.6003 C   0  0  0  0  0  0  0  0  0  0  0  0
    4.1074    3.0971    2.4051 C   0  0  0  0  0  0  0  0  0  0  0  0
    3.3045    2.2937    1.6017 C   0  0  0  0  0  0  0  0  0  0  0  0
    2.0048    2.0048    2.0048 C   0  0  0  0  0  0  0  0  0  0  0  0
    1.0000    1.0000    1.0000 S   0  0  0  0  0  0  0  0  0  0  0  0
    1.4883    1.0346   -0.3542 O   0  0  0  0  0  0  0  0  0  0  0  0
   -0.3542    1.4883    1.0346 O   0  0  0  0  0  0  0  0  0  0  0  0
    1.0392   -0.5329    1.5527 N   0  0  0  0  0  0  0  0  0  0  0  0
   -0.0105   -1.0199    2.3412 C   0  0  0  0  0  0  0  0  0  0  0  0
    0.0578   -0.8823    3.7236 C   0  0  0  0  0  0  0  0  0  0  0  0
   -0.9762   -1.3603    4.5206 C   0  0  0  0  0  0  0  0  0  0  0  0
   -2.0701   -1.9744    3.9191 C   0  0  0  0  0  0  0  0  0  0  0  0
   -3.0656   -2.4350    4.6713 F   0  0  0  0  0  0  0  0  0  0  0  0
   -2.1397   -2.1133    2.5370 C   0  0  0  0  0  0  0  0  0  0  0  0
   -1.1047   -1.6342    1.7409 C   0  0  0  0  0  0  0  0  0  0  0  0
    2.1764   -1.4042    1.2233 C   0  0  0  0  0  0  0  0  0  0  0  0
    1.5000    2.5089    3.1992 C   0  0  0  0  0  0  0  0  0  0  0  0
    2.3079    3.3117    3.9981 C   0  0  0  0  0  0  0  0  0  0  0  0
    5.4612    3.3920    1.9748 C   0  0  0  0  0  0  0  0  0  0  0  0
    5.8292    3.6558    0.7429 O   0  0  0  0  0  0  0  0  0  0  0  0
    7.1235    3.8678    0.7678 C   0  0  0  0  0  0  0  0  0  0  0  0
    7.5501    3.7349    2.0027 N   0  0  0  0  0  0  0  0  0  0  0  0
    6.5145    3.4392    2.7556 N   0  0  0  0  0  0  0  0  0  0  0  0
    7.9493    4.1933   -0.3785 C   0  0  0  0  0  0  0  0  0  0  0  0
    9.3208    5.1838   -0.2443 S   0  0  0  0  0  0  0  0  0  0  0  0
    9.7485    5.1137   -1.8896 C   0  0  0  0  0  0  0  0  0  0  0  0
    8.8223    4.3344   -2.5150 C   0  0  0  0  0  0  0  0  0  0  0  0
    7.8061    3.7946   -1.6810 C   0  0  0  0  0  0  0  0  0  0  0  0
    8.9981    4.1731   -4.0186 C   0  0  0  0  0  0  0  0  0  0  0  0
    8.0985    5.1929   -4.7087 C   0  0  0  0  0  0  0  0  0  0  0  0
    8.2911    6.6560   -4.2995 C   0  0  0  0  0  0  0  0  0  0  0  0
    9.7200    7.1961   -4.3829 C   0  0  0  0  0  0  0  0  0  0  0  0
   10.5449    7.1810   -3.0886 C   0  0  0  0  0  0  0  0  0  0  0  0
   10.9506    5.8164   -2.5193 C   0  0  0  0  0  0  0  0  0  0  0  0
    3.6588    1.9270    0.7415 H   0  0  0  0  0  0  0  0  0  0  0  0
    0.8501   -0.4400    4.1440 H   0  0  0  0  0  0  0  0  0  0  0  0
   -0.9341   -1.2637    5.5150 H   0  0  0  0  0  0  0  0  0  0  0  0
   -2.9317   -2.5563    2.1168 H   0  0  0  0  0  0  0  0  0  0  0  0
   -1.1467   -1.7305    0.7464 H   0  0  0  0  0  0  0  0  0  0  0  0
    2.0393   -2.3030    1.6398 H   0  0  0  0  0  0  0  0  0  0  0  0
    2.2436   -1.5035    0.2306 H   0  0  0  0  0  0  0  0  0  0  0  0
    3.0199   -0.9987    1.5756 H   0  0  0  0  0  0  0  0  0  0  0  0
    0.5645    2.2961    3.4811 H   0  0  0  0  0  0  0  0  0  0  0  0
    1.9537    3.6783    4.8585 H   0  0  0  0  0  0  0  0  0  0  0  0
    7.0743    3.1957   -2.0061 H   0  0  0  0  0  0  0  0  0  0  0  0
    8.7364    3.2481   -4.2939 H   0  0  0  0  0  0  0  0  0  0  0  0
    9.9523    4.3379   -4.2686 H   0  0  0  0  0  0  0  0  0  0  0  0
    7.1500    4.9442   -4.5125 H   0  0  0  0  0  0  0  0  0  0  0  0
    8.2635    5.1278   -5.6928 H   0  0  0  0  0  0  0  0  0  0  0  0
    7.9832    6.7514   -3.3529 H   0  0  0  0  0  0  0  0  0  0  0  0
    7.7169    7.2178   -4.8950 H   0  0  0  0  0  0  0  0  0  0  0  0
   10.2109    6.6483   -5.0604 H   0  0  0  0  0  0  0  0  0  0  0  0
    9.6667    8.1442   -4.6962 H   0  0  0  0  0  0  0  0  0  0  0  0
   11.3855    7.6935   -3.2639 H   0  0  0  0  0  0  0  0  0  0  0  0
   10.0087    7.6502   -2.3869 H   0  0  0  0  0  0  0  0  0  0  0  0
   11.3134    5.2476   -3.2574 H   0  0  0  0  0  0  0  0  0  0  0  0
   11.6557    5.9480   -1.8225 H   0  0  0  0  0  0  0  0  0  0  0  0
  1  2  1  0  0  0  0
  2  3  1  0  0  0  0
  3  4  2  0  0  0  0
  4  5  1  0  0  0  0
  5  6  1  0  0  0  0
  6  7  2  0  0  0  0
  6  8  2  0  0  0  0
  6  9  1  0  0  0  0
  9 10  1  0  0  0  0
 10 11  1  0  0  0  0
 11 12  2  0  0  0  0
 12 13  1  0  0  0  0
 13 14  1  0  0  0  0
 13 15  2  0  0  0  0
 15 16  1  0  0  0  0
 16 10  2  0  0  0  0
  9 17  1  0  0  0  0
  5 18  2  0  0  0  0
 18 19  1  0  0  0  0
 19  2  2  0  0  0  0
  3 20  1  0  0  0  0
 20 21  1  0  0  0  0
 21 22  1  0  0  0  0
 22 23  2  0  0  0  0
 23 24  1  0  0  0  0
 20 24  2  0  0  0  0
 22 25  1  0  0  0  0
 25 26  1  0  0  0  0
 26 27  1  0  0  0  0
 27 28  2  0  0  0  0
 28 29  1  0  0  0  0
 25 29  2  0  0  0  0
 28 30  1  0  0  0  0
 30 31  1  0  0  0  0
 31 32  1  0  0  0  0
 32 33  1  0  0  0  0
 33 34  1  0  0  0  0
 34 35  1  0  0  0  0
 35 27  1  0  0  0  0
  4 36  1  0  0  0  0
 11 37  1  0  0  0  0
 12 38  1  0  0  0  0
 15 39  1  0  0  0  0
 16 40  1  0  0  0  0
 17 41  1  0  0  0  0
 17 42  1  0  0  0  0
 17 43  1  0  0  0  0
 18 44  1  0  0  0  0
 19 45  1  0  0  0  0
 29 46  1  0  0  0  0
 30 47  1  0  0  0  0
 30 48  1  0  0  0  0
 31 49  1  0  0  0  0
 31 50  1  0  0  0  0
 32 51  1  0  0  0  0
 32 52  1  0  0  0  0
 33 53  1  0  0  0  0
 33 54  1  0  0  0  0
 34 55  1  0  0  0  0
 34 56  1  0  0  0  0
 35 57  1  0  0  0  0
 35 58  1  0  0  0  0
M  END
>  <result-rank>
10

>  <similarity>
0.872

>  <query-name>


>  <query-smiles>
Clc1ccc(cc1)CS(=O)(=O)c2cc3N=C(c4c(N(c3cc2)C)cc5c(c4)C(CCC5(C)C)(C)C)c6ccc(cc6)C([O-])=O

>  <source>
REALspace_2019-12

>  <similarity-descriptor>
0.987;0.0;0.948;0.916;0.957;0.616;0.925;0.997;0.0;0.957;0.957;0.957;0.957;0.0;0.0

>  <similarity-descriptor-smiles>
c1ccc(cc1)F;;Clc1ccccc1;C1=CC=CS1;C=1CCCCCCC1;C1=NN=CO1;NC;S(=O)=O;;C=1CCCCCCC1;C=1CCCCCCC1;C=1CCCCCCC1;C=1CCCCCCC1;;

>  <reaction-name>
m_271722

>  <reagent1-name>
10195674

>  <reagent1-smiles>
[R1*]=NN=C(O[R2*])C=1SC2=C(C1)CCCCCC2

>  <reagent2-name>
11365928

>  <reagent2-smiles>
[R1*]C([R2*])c1c(Cl)ccc(S(=O)(=O)N(c2ccc(F)cc2)C)c1

$$$$
s_42a____8631722____125253
          04022017333D 1   1.00000     0.00000     0
            
 56 61  0  0  0  0            999 V2000
    7.7654   -1.3915    4.7254 S   0  0  0  0  0  0  0  0  0  0  0  0
    7.2834   -0.4846    3.3626 C   0  0  0  0  0  0  0  0  0  0  0  0
    8.0755   -0.4787    2.2980 N   0  0  0  0  0  0  0  0  0  0  0  0
    7.6487    0.2172    1.2387 C   0  0  0  0  0  0  0  0  0  0  0  0
    6.4266    0.8763    1.3020 C   0  0  0  0  0  0  0  0  0  0  0  0
    5.6613    0.8208    2.4636 C   0  0  0  0  0  0  0  0  0  0  0  0
    4.3934    1.5238    2.4792 C   0  0  0  0  0  0  0  0  0  0  0  0
    4.3898    2.9144    2.4850 C   0  0  0  0  0  0  0  0  0  0  0  0
    3.1783    3.5981    2.5011 C   0  0  0  0  0  0  0  0  0  0  0  0
    1.9856    2.8824    2.5103 C   0  0  0  0  0  0  0  0  0  0  0  0
    0.8052    3.5371    2.5243 O   0  0  0  0  0  0  0  0  0  0  0  0
    0.7807    4.9569    2.5297 C   0  0  0  0  0  0  0  0  0  0  0  0
    1.9898    1.4913    2.5046 C   0  0  0  0  0  0  0  0  0  0  0  0
    3.2009    0.8075    2.4890 C   0  0  0  0  0  0  0  0  0  0  0  0
    6.0646    0.1224    3.6011 C   0  0  0  0  0  0  0  0  0  0  0  0
    5.5695   -0.1597    4.9113 C   0  0  0  0  0  0  0  0  0  0  0  0
    6.3834   -0.9972    5.6214 C   0  0  0  0  0  0  0  0  0  0  0  0
    6.2837   -1.6381    6.9889 C   0  0  0  0  0  0  0  0  0  0  0  0
    5.2587   -0.8109    7.7428 C   0  0  3  0  0  0  0  0  0  0  0  0
    4.0154   -0.6246    6.8872 C   0  0  0  0  0  0  0  0  0  0  0  0
    4.3391    0.2656    5.6961 C   0  0  0  0  0  0  0  0  0  0  0  0
    4.8982   -1.5627    9.0145 C   0  0  0  0  0  0  0  0  0  0  0  0
    8.4408    0.2903    0.0284 C   0  0  0  0  0  0  0  0  0  0  0  0
    7.8856    0.0154   -1.2513 C   0  0  0  0  0  0  0  0  0  0  0  0
    6.7059   -0.2906   -1.3244 O   0  0  0  0  0  0  0  0  0  0  0  0
    8.6341    0.0901   -2.3387 O   0  0  0  0  0  0  0  0  0  0  0  0
    9.9140    0.4191   -2.2894 C   0  0  0  0  0  0  0  0  0  0  0  0
   10.5316    0.7035   -1.0751 C   0  0  0  0  0  0  0  0  0  0  0  0
   11.8762    1.0516   -0.9969 C   0  0  0  0  0  0  0  0  0  0  0  0
   12.6253    1.1174   -2.1667 C   0  0  0  0  0  0  0  0  0  0  0  0
   12.0282    0.8373   -3.3921 C   0  0  0  0  0  0  0  0  0  0  0  0
   10.6820    0.4912   -3.4468 C   0  0  0  0  0  0  0  0  0  0  0  0
    9.7643    0.6345    0.1173 C   0  0  0  0  0  0  0  0  0  0  0  0
    6.0963    1.3916    0.5112 H   0  0  0  0  0  0  0  0  0  0  0  0
    5.2527    3.4198    2.4778 H   0  0  0  0  0  0  0  0  0  0  0  0
    3.1650    4.5980    2.5060 H   0  0  0  0  0  0  0  0  0  0  0  0
   -0.1677    5.2739    2.5402 H   0  0  0  0  0  0  0  0  0  0  0  0
    1.2543    5.2953    3.3428 H   0  0  0  0  0  0  0  0  0  0  0  0
    1.2382    5.3012    1.7099 H   0  0  0  0  0  0  0  0  0  0  0  0
    1.1270    0.9859    2.5117 H   0  0  0  0  0  0  0  0  0  0  0  0
    3.2144   -0.1924    2.4849 H   0  0  0  0  0  0  0  0  0  0  0  0
    7.1682   -1.6099    7.4547 H   0  0  0  0  0  0  0  0  0  0  0  0
    5.9787   -2.5872    6.9099 H   0  0  0  0  0  0  0  0  0  0  0  0
    5.6472    0.0809    7.9749 H   0  0  0  0  0  0  0  0  0  0  0  0
    3.2960   -0.1976    7.4351 H   0  0  0  0  0  0  0  0  0  0  0  0
    3.7007   -1.5156    6.5601 H   0  0  0  0  0  0  0  0  0  0  0  0
    3.5543    0.2568    5.0764 H   0  0  0  0  0  0  0  0  0  0  0  0
    4.4883    1.1956    6.0319 H   0  0  0  0  0  0  0  0  0  0  0  0
    4.2222   -1.0379    9.5318 H   0  0  0  0  0  0  0  0  0  0  0  0
    4.5161   -2.4558    8.7768 H   0  0  0  0  0  0  0  0  0  0  0  0
    5.7192   -1.6890    9.5712 H   0  0  0  0  0  0  0  0  0  0  0  0
   12.2979    1.2516   -0.1125 H   0  0  0  0  0  0  0  0  0  0  0  0
   13.5931    1.3660   -2.1274 H   0  0  0  0  0  0  0  0  0  0  0  0
   12.5668    0.8848   -4.2333 H   0  0  0  0  0  0  0  0  0  0  0  0
   10.2603    0.2912   -4.3312 H   0  0  0  0  0  0  0  0  0  0  0  0
   10.1812    0.8330    1.0042 H   0  0  0  0  0  0  0  0  0  0  0  0
  1  2  1  0  0  0  0
  2  3  1  0  0  0  0
  3  4  2  0  0  0  0
  4  5  1  0  0  0  0
  5  6  2  0  0  0  0
  6  7  1  0  0  0  0
  7  8  1  0  0  0  0
  8  9  2  0  0  0  0
  9 10  1  0  0  0  0
 10 11  1  0  0  0  0
 11 12  1  0  0  0  0
 10 13  2  0  0  0  0
 13 14  1  0  0  0  0
 14  7  2  0  0  0  0
  6 15  1  0  0  0  0
 15  2  2  0  0  0  0
 15 16  1  0  0  0  0
 16 17  2  0  0  0  0
 17  1  1  0  0  0  0
 17 18  1  0  0  0  0
 18 19  1  0  0  0  0
 19 20  1  0  0  0  0
 20 21  1  0  0  0  0
 21 16  1  0  0  0  0
 19 22  1  0  0  0  0
  4 23  1  0  0  0  0
 23 24  1  0  0  0  0
 24 25  2  0  0  0  0
 24 26  1  0  0  0  0
 26 27  1  0  0  0  0
 27 28  1  0  0  0  0
 28 29  2  0  0  0  0
 29 30  1  0  0  0  0
 30 31  2  0  0  0  0
 31 32  1  0  0  0  0
 32 27  2  0  0  0  0
 28 33  1  0  0  0  0
 23 33  2  0  0  0  0
  5 34  1  0  0  0  0
  8 35  1  0  0  0  0
  9 36  1  0  0  0  0
 12 37  1  0  0  0  0
 12 38  1  0  0  0  0
 12 39  1  0  0  0  0
 13 40  1  0  0  0  0
 14 41  1  0  0  0  0
 18 42  1  0  0  0  0
 18 43  1  0  0  0  0
 19 44  1  0  0  0  0
 20 45  1  0  0  0  0
 20 46  1  0  0  0  0
 21 47  1  0  0  0  0
 21 48  1  0  0  0  0
 22 49  1  0  0  0  0
 22 50  1  0  0  0  0
 22 51  1  0  0  0  0
 29 52  1  0  0  0  0
 30 53  1  0  0  0  0
 31 54  1  0  0  0  0
 32 55  1  0  0  0  0
 33 56  1  0  0  0  0
M  END
>  <result-rank>
11

>  <similarity>
0.871

>  <query-name>


>  <query-smiles>
Clc1ccc(cc1)CS(=O)(=O)c2cc3N=C(c4c(N(c3cc2)C)cc5c(c4)C(CCC5(C)C)(C)C)c6ccc(cc6)C([O-])=O

>  <source>
REALspace_2019-12

>  <similarity-descriptor>
0.952;0.998;0.819;0.830;0.947;0.855;0.819;0.819;0.0;0.947;0.947;0.0;1.000;0.490;0.0

>  <similarity-descriptor-smiles>
c1ccccc1;c1ccccc1;C1=CccOC1=O;S1C=Ccc1;C=1CCCCC1;c1ccccn1;C1=CccOC1=O;C1=CccOC1=O;;C=1CCCCC1;C=1CCCCC1;;C;OC;

>  <reaction-name>
s_42a

>  <reagent1-name>
8631722

>  <reagent1-smiles>
[R1*]=NC=1SC2=C(C1C(=[R2*])c3ccc(OC)cc3)CCC2

>  <reagent2-name>
125253

>  <reagent2-smiles>
[R1*]=C(C=1C(=O)Oc2c(cccc2)C1)C=[R2*]

$$$$
m_276010b____17282026____17249466____17280360
          04022017333D 1   1.00000     0.00000     0
            
 78 83  0  0  0  0            999 V2000
    5.5675   10.4480   -5.0604 Cl  0  0  0  0  0  0  0  0  0  0  0  0
    5.6413    9.9104   -3.3653 C   0  0  0  0  0  0  0  0  0  0  0  0
    6.7415    9.1888   -2.9158 C   0  0  0  0  0  0  0  0  0  0  0  0
    6.8029    8.7660   -1.5918 C   0  0  0  0  0  0  0  0  0  0  0  0
    5.7546    9.0747   -0.7315 C   0  0  0  0  0  0  0  0  0  0  0  0
    4.6540    9.7961   -1.1806 C   0  0  0  0  0  0  0  0  0  0  0  0
    4.5926   10.2189   -2.5049 C   0  0  0  0  0  0  0  0  0  0  0  0
    5.8131    8.6163    0.7159 C   0  0  3  0  0  0  0  0  0  0  0  0
    5.3141    9.6445    1.5586 O   0  0  0  0  0  0  0  0  0  0  0  0
    4.9660    7.3664    0.8860 C   0  0  0  0  0  0  0  0  0  0  0  0
    4.7709    6.3972   -0.0516 N   0  0  0  0  0  0  0  0  0  0  0  0
    4.0090    5.5244    0.4521 N   0  0  0  0  0  0  0  0  0  0  0  0
    3.6742    5.8422    1.6784 N   0  0  0  0  0  0  0  0  0  0  0  0
    4.2680    7.0216    2.0001 C   0  0  0  0  0  0  0  0  0  0  0  0
    2.7996    5.0549    2.5596 C   0  0  3  0  0  0  0  0  0  0  0  0
    3.1336    3.5796    2.5325 C   0  0  0  0  0  0  0  0  0  0  0  0
    1.9471    2.8896    2.5745 C   0  0  0  0  0  0  0  0  0  0  0  0
    0.9034    3.8204    2.6258 N   0  0  0  0  0  0  0  0  0  0  0  0
   -0.3863    3.5510    3.1044 C   0  0  0  0  0  0  0  0  0  0  0  0
   -1.3283    4.1452    2.6577 O   0  0  0  0  0  0  0  0  0  0  0  0
   -0.5818    2.5560    4.1372 C   0  0  0  0  0  0  0  0  0  0  0  0
   -0.2370    2.8482    5.4483 C   0  0  0  0  0  0  0  0  0  0  0  0
   -0.4152    1.9082    6.4564 C   0  0  0  0  0  0  0  0  0  0  0  0
   -0.9503    0.6589    6.1133 C   0  0  0  0  0  0  0  0  0  0  0  0
   -1.2926    0.3760    4.7959 C   0  0  0  0  0  0  0  0  0  0  0  0
   -1.1132    1.3208    3.7946 C   0  0  0  0  0  0  0  0  0  0  0  0
   -1.1927   -0.4270    7.1572 C   0  0  0  0  0  0  0  0  0  0  0  0
   -0.4174   -0.1648    8.4387 C   0  0  0  0  0  0  0  0  0  0  0  0
   -0.5842    1.2787    8.8980 C   0  0  0  0  0  0  0  0  0  0  0  0
   -0.0203    2.2680    7.8878 C   0  0  0  0  0  0  0  0  0  0  0  0
   -0.3615    3.7045    8.2584 C   0  0  0  0  0  0  0  0  0  0  0  0
    1.4897    2.1135    7.9799 C   0  0  0  0  0  0  0  0  0  0  0  0
   -0.9188   -1.8309    6.6414 C   0  0  0  0  0  0  0  0  0  0  0  0
   -2.6616   -0.3680    7.5438 C   0  0  0  0  0  0  0  0  0  0  0  0
    1.3497    5.1271    2.1354 C   0  0  0  0  0  0  0  0  0  0  0  0
    0.6358    6.2924    2.7999 C   0  0  0  0  0  0  0  0  0  0  0  0
    1.1799    5.2208    0.6271 C   0  0  0  0  0  0  0  0  0  0  0  0
    1.9847    1.4975    2.5537 C   0  0  0  0  0  0  0  0  0  0  0  0
    3.1952    0.8149    2.4997 C   0  0  0  0  0  0  0  0  0  0  0  0
    4.3914    1.5230    2.4626 C   0  0  0  0  0  0  0  0  0  0  0  0
    4.3543    2.9130    2.4792 C   0  0  0  0  0  0  0  0  0  0  0  0
    7.4889    8.9736   -3.5444 H   0  0  0  0  0  0  0  0  0  0  0  0
    7.5913    8.2463   -1.2626 H   0  0  0  0  0  0  0  0  0  0  0  0
    3.9066   10.0110   -0.5519 H   0  0  0  0  0  0  0  0  0  0  0  0
    3.8041   10.7383   -2.8341 H   0  0  0  0  0  0  0  0  0  0  0  0
    6.7605    8.4131    0.9632 H   0  0  0  0  0  0  0  0  0  0  0  0
    5.3526    9.3428    2.5112 H   0  0  0  0  0  0  0  0  0  0  0  0
    4.2054    7.5232    2.8629 H   0  0  0  0  0  0  0  0  0  0  0  0
    2.8854    5.3942    3.4963 H   0  0  0  0  0  0  0  0  0  0  0  0
    0.1442    3.7455    5.6709 H   0  0  0  0  0  0  0  0  0  0  0  0
   -1.6732   -0.5198    4.5665 H   0  0  0  0  0  0  0  0  0  0  0  0
   -1.3613    1.1159    2.8478 H   0  0  0  0  0  0  0  0  0  0  0  0
    0.5526   -0.3453    8.2759 H   0  0  0  0  0  0  0  0  0  0  0  0
   -0.7546   -0.7760    9.1548 H   0  0  0  0  0  0  0  0  0  0  0  0
   -1.5582    1.4666    9.0246 H   0  0  0  0  0  0  0  0  0  0  0  0
   -0.1058    1.3979    9.7680 H   0  0  0  0  0  0  0  0  0  0  0  0
   -0.0811    3.8808    9.2020 H   0  0  0  0  0  0  0  0  0  0  0  0
    0.1201    4.3304    7.6450 H   0  0  0  0  0  0  0  0  0  0  0  0
   -1.3476    3.8458    8.1718 H   0  0  0  0  0  0  0  0  0  0  0  0
    1.7922    2.3406    8.9056 H   0  0  0  0  0  0  0  0  0  0  0  0
    1.7417    1.1690    7.7692 H   0  0  0  0  0  0  0  0  0  0  0  0
    1.9284    2.7294    7.3255 H   0  0  0  0  0  0  0  0  0  0  0  0
   -1.0953   -2.4937    7.3690 H   0  0  0  0  0  0  0  0  0  0  0  0
   -1.5170   -2.0228    5.8634 H   0  0  0  0  0  0  0  0  0  0  0  0
    0.0361   -1.8994    6.3525 H   0  0  0  0  0  0  0  0  0  0  0  0
   -2.8543   -1.0700    8.2294 H   0  0  0  0  0  0  0  0  0  0  0  0
   -2.8707    0.5338    7.9221 H   0  0  0  0  0  0  0  0  0  0  0  0
   -3.2261   -0.5289    6.7341 H   0  0  0  0  0  0  0  0  0  0  0  0
    0.9818    7.1527    2.4253 H   0  0  0  0  0  0  0  0  0  0  0  0
   -0.3466    6.2244    2.6260 H   0  0  0  0  0  0  0  0  0  0  0  0
    0.8024    6.2671    3.7856 H   0  0  0  0  0  0  0  0  0  0  0  0
    1.4892    6.1180    0.3119 H   0  0  0  0  0  0  0  0  0  0  0  0
    1.7232    4.5068    0.1855 H   0  0  0  0  0  0  0  0  0  0  0  0
    0.2156    5.0991    0.3920 H   0  0  0  0  0  0  0  0  0  0  0  0
    1.1287    0.9812    2.5779 H   0  0  0  0  0  0  0  0  0  0  0  0
    3.2054   -0.1849    2.4876 H   0  0  0  0  0  0  0  0  0  0  0  0
    5.2659    1.0394    2.4245 H   0  0  0  0  0  0  0  0  0  0  0  0
    5.2069    3.4349    2.4527 H   0  0  0  0  0  0  0  0  0  0  0  0
  1  2  1  0  0  0  0
  2  3  1  0  0  0  0
  3  4  2  0  0  0  0
  4  5  1  0  0  0  0
  5  6  2  0  0  0  0
  6  7  1  0  0  0  0
  7  2  2  0  0  0  0
  5  8  1  0  0  0  0
  8  9  1  0  0  0  0
  8 10  1  0  0  0  0
 10 11  1  0  0  0  0
 11 12  2  0  0  0  0
 12 13  1  0  0  0  0
 13 14  1  0  0  0  0
 10 14  2  0  0  0  0
 13 15  1  0  0  0  0
 15 16  1  0  0  0  0
 16 17  1  0  0  0  0
 17 18  1  0  0  0  0
 18 19  1  0  0  0  0
 19 20  2  0  0  0  0
 19 21  1  0  0  0  0
 21 22  1  0  0  0  0
 22 23  2  0  0  0  0
 23 24  1  0  0  0  0
 24 25  2  0  0  0  0
 25 26  1  0  0  0  0
 26 21  2  0  0  0  0
 24 27  1  0  0  0  0
 27 28  1  0  0  0  0
 28 29  1  0  0  0  0
 29 30  1  0  0  0  0
 30 23  1  0  0  0  0
 30 31  1  0  0  0  0
 30 32  1  0  0  0  0
 27 33  1  0  0  0  0
 27 34  1  0  0  0  0
 18 35  1  0  0  0  0
 35 15  1  0  0  0  0
 35 36  1  0  0  0  0
 35 37  1  0  0  0  0
 17 38  2  0  0  0  0
 38 39  1  0  0  0  0
 39 40  2  0  0  0  0
 40 41  1  0  0  0  0
 41 16  2  0  0  0  0
  3 42  1  0  0  0  0
  4 43  1  0  0  0  0
  6 44  1  0  0  0  0
  7 45  1  0  0  0  0
  8 46  1  0  0  0  0
  9 47  1  0  0  0  0
 14 48  1  0  0  0  0
 15 49  1  0  0  0  0
 22 50  1  0  0  0  0
 25 51  1  0  0  0  0
 26 52  1  0  0  0  0
 28 53  1  0  0  0  0
 28 54  1  0  0  0  0
 29 55  1  0  0  0  0
 29 56  1  0  0  0  0
 31 57  1  0  0  0  0
 31 58  1  0  0  0  0
 31 59  1  0  0  0  0
 32 60  1  0  0  0  0
 32 61  1  0  0  0  0
 32 62  1  0  0  0  0
 33 63  1  0  0  0  0
 33 64  1  0  0  0  0
 33 65  1  0  0  0  0
 34 66  1  0  0  0  0
 34 67  1  0  0  0  0
 34 68  1  0  0  0  0
 36 69  1  0  0  0  0
 36 70  1  0  0  0  0
 36 71  1  0  0  0  0
 37 72  1  0  0  0  0
 37 73  1  0  0  0  0
 37 74  1  0  0  0  0
 38 75  1  0  0  0  0
 39 76  1  0  0  0  0
 40 77  1  0  0  0  0
 41 78  1  0  0  0  0
M  END
>  <result-rank>
12

>  <similarity>
0.870

>  <query-name>


>  <query-smiles>
Clc1ccc(cc1)CS(=O)(=O)c2cc3N=C(c4c(N(c3cc2)C)cc5c(c4)C(CCC5(C)C)(C)C)c6ccc(cc6)C([O-])=O

>  <source>
REALspace_2019-12

>  <similarity-descriptor>
1.000;0.985;0.652;0.926;1.000;0.675;0.936;0.652;0.995;1.000;1.000;1.000;1.000;0.0;0.133

>  <similarity-descriptor-smiles>
Clc1ccccc1;c1ccccc1;C1=CNN=N1;c1ccccc1;c1CCCCc1;C1CN(cc1)C=O;C;C1=CNN=N1;C;C;C;C;C;;O.C

>  <reaction-name>
m_276010b

>  <reagent1-name>
17282026

>  <reagent1-smiles>
[R1*]N=NN([R2*])C1c2c(N([R3*])C1(C)C)cccc2

>  <reagent2-name>
17249466

>  <reagent2-smiles>
[R3*]C(=O)c1cc2c(cc1)C(CCC2(C)C)(C)C

>  <reagent3-name>
17280360

>  <reagent3-smiles>
[R1*]C(=C[R2*])C(O)c1ccc(Cl)cc1

$$$$
s_7a____8400____645196
          04022017333D 1   1.00000     0.00000     0
            
 67 72  0  0  0  0            999 V2000
    4.4740    4.4816    4.4796 S   0  0  0  0  0  0  0  0  0  0  0  0
    3.9843    4.4463    5.8334 O   0  0  0  0  0  0  0  0  0  0  0  0
    5.8290    3.9954    4.4466 O   0  0  0  0  0  0  0  0  0  0  0  0
    3.4722    3.4754    3.4742 C   0  0  0  0  0  0  0  0  0  0  0  0
    4.0202    2.8440    2.3629 C   0  0  0  0  0  0  0  0  0  0  0  0
    3.2212    2.0390    1.5574 C   0  0  0  0  0  0  0  0  0  0  0  0
    1.8774    1.8774    1.8774 C   0  0  0  0  0  0  0  0  0  0  0  0
    1.3299    2.5098    2.9889 C   0  0  0  0  0  0  0  0  0  0  0  0
    2.1282    3.3140    3.7948 C   0  0  0  0  0  0  0  0  0  0  0  0
    1.0000    1.0000    1.0000 C   0  0  0  0  0  0  0  0  0  0  0  0
    1.0436   -0.7022    1.6137 S   0  0  0  0  0  0  0  0  0  0  0  0
    0.1488   -0.4820    3.0917 C   0  0  0  0  0  0  0  0  0  0  0  0
    0.8331   -0.1751    4.1739 N   0  0  0  0  0  0  0  0  0  0  0  0
    0.1172   -0.0051    5.3234 C   0  0  0  0  0  0  0  0  0  0  0  0
    0.8790    0.3981    6.7912 S   0  0  0  0  0  0  0  0  0  0  0  0
   -0.5221    0.4439    7.7496 C   0  0  0  0  0  0  0  0  0  0  0  0
   -1.5883    0.1714    6.9156 C   0  0  0  0  0  0  0  0  0  0  0  0
   -1.2190   -0.1045    5.5510 C   0  0  0  0  0  0  0  0  0  0  0  0
   -1.8939   -0.4401    4.3443 C   0  0  0  0  0  0  0  0  0  0  0  0
   -3.1094   -0.5694    4.3590 O   0  0  0  0  0  0  0  0  0  0  0  0
   -1.2152   -0.6175    3.1637 N   0  0  0  0  0  0  0  0  0  0  0  0
   -1.9154   -0.9423    1.9957 C   0  0  0  0  0  0  0  0  0  0  0  0
   -2.1308   -2.2777    1.6727 C   0  0  0  0  0  0  0  0  0  0  0  0
   -1.6734   -3.2372    2.4717 F   0  0  0  0  0  0  0  0  0  0  0  0
   -2.8246   -2.6191    0.5163 C   0  0  0  0  0  0  0  0  0  0  0  0
   -3.2982   -1.6056   -0.3100 C   0  0  0  0  0  0  0  0  0  0  0  0
   -3.0842   -0.2689    0.0087 C   0  0  0  0  0  0  0  0  0  0  0  0
   -2.3909    0.0678    1.1659 C   0  0  0  0  0  0  0  0  0  0  0  0
   -2.9366    0.2246    7.6288 C   0  0  0  0  0  0  0  0  0  0  0  0
   -2.8425    0.1100    9.1462 C   0  0  0  0  0  0  0  0  0  0  0  0
   -1.8293    1.1153    9.6708 C   0  0  3  0  0  0  0  0  0  0  0  0
   -0.4232    0.7348    9.2348 C   0  0  0  0  0  0  0  0  0  0  0  0
   -1.8334    1.1138   11.1904 C   0  0  0  0  0  0  0  0  0  0  0  0
    4.4303    6.1176    3.8895 C   0  0  0  0  0  0  0  0  0  0  0  0
    3.4665    6.9995    4.3662 C   0  0  0  0  0  0  0  0  0  0  0  0
    3.4295    8.3083    3.8959 C   0  0  0  0  0  0  0  0  0  0  0  0
    4.3627    8.7172    2.9492 C   0  0  0  0  0  0  0  0  0  0  0  0
    5.3261    7.8343    2.4725 C   0  0  0  0  0  0  0  0  0  0  0  0
    5.3640    6.5262    2.9427 C   0  0  0  0  0  0  0  0  0  0  0  0
    4.3259   10.1455    2.4312 C   0  0  0  0  0  0  0  0  0  0  0  0
    4.9878    2.9685    2.1431 H   0  0  0  0  0  0  0  0  0  0  0  0
    3.6088    1.5815    0.7570 H   0  0  0  0  0  0  0  0  0  0  0  0
    0.3622    2.3860    3.2083 H   0  0  0  0  0  0  0  0  0  0  0  0
    1.7407    3.7710    4.5955 H   0  0  0  0  0  0  0  0  0  0  0  0
    0.0595    1.3390    1.0241 H   0  0  0  0  0  0  0  0  0  0  0  0
    1.3390    1.0241    0.0595 H   0  0  0  0  0  0  0  0  0  0  0  0
   -2.9805   -3.5788    0.2827 H   0  0  0  0  0  0  0  0  0  0  0  0
   -3.7985   -1.8409   -1.1432 H   0  0  0  0  0  0  0  0  0  0  0  0
   -3.4292    0.4502   -0.5945 H   0  0  0  0  0  0  0  0  0  0  0  0
   -2.2353    1.0276    1.3995 H   0  0  0  0  0  0  0  0  0  0  0  0
   -3.5005   -0.5292    7.2913 H   0  0  0  0  0  0  0  0  0  0  0  0
   -3.3757    1.0950    7.4061 H   0  0  0  0  0  0  0  0  0  0  0  0
   -3.7377    0.2977    9.5505 H   0  0  0  0  0  0  0  0  0  0  0  0
   -2.5526   -0.8146    9.3930 H   0  0  0  0  0  0  0  0  0  0  0  0
   -2.0529    2.0293    9.3325 H   0  0  0  0  0  0  0  0  0  0  0  0
    0.2104    1.4904    9.4012 H   0  0  0  0  0  0  0  0  0  0  0  0
   -0.1117   -0.0765    9.7296 H   0  0  0  0  0  0  0  0  0  0  0  0
   -2.7442    1.3601   11.5216 H   0  0  0  0  0  0  0  0  0  0  0  0
   -1.5929    0.2020   11.5235 H   0  0  0  0  0  0  0  0  0  0  0  0
   -1.1656    1.7781   11.5262 H   0  0  0  0  0  0  0  0  0  0  0  0
    2.8007    6.6933    5.0466 H   0  0  0  0  0  0  0  0  0  0  0  0
    2.7395    8.9479    4.2347 H   0  0  0  0  0  0  0  0  0  0  0  0
    5.9915    8.1402    1.7916 H   0  0  0  0  0  0  0  0  0  0  0  0
    6.0544    5.8868    2.6043 H   0  0  0  0  0  0  0  0  0  0  0  0
    5.0574   10.2764    1.7621 H   0  0  0  0  0  0  0  0  0  0  0  0
    3.4420   10.3200    1.9973 H   0  0  0  0  0  0  0  0  0  0  0  0
    4.4540   10.7799    3.1935 H   0  0  0  0  0  0  0  0  0  0  0  0
  1  2  2  0  0  0  0
  1  3  2  0  0  0  0
  1  4  1  0  0  0  0
  4  5  1  0  0  0  0
  5  6  2  0  0  0  0
  6  7  1  0  0  0  0
  7  8  2  0  0  0  0
  8  9  1  0  0  0  0
  9  4  2  0  0  0  0
  7 10  1  0  0  0  0
 10 11  1  0  0  0  0
 11 12  1  0  0  0  0
 12 13  2  0  0  0  0
 13 14  1  0  0  0  0
 14 15  1  0  0  0  0
 15 16  1  0  0  0  0
 16 17  2  0  0  0  0
 17 18  1  0  0  0  0
 14 18  2  0  0  0  0
 18 19  1  0  0  0  0
 19 20  2  0  0  0  0
 19 21  1  0  0  0  0
 21 12  1  0  0  0  0
 21 22  1  0  0  0  0
 22 23  1  0  0  0  0
 23 24  1  0  0  0  0
 23 25  2  0  0  0  0
 25 26  1  0  0  0  0
 26 27  2  0  0  0  0
 27 28  1  0  0  0  0
 28 22  2  0  0  0  0
 17 29  1  0  0  0  0
 29 30  1  0  0  0  0
 30 31  1  0  0  0  0
 31 32  1  0  0  0  0
 32 16  1  0  0  0  0
 31 33  1  0  0  0  0
  1 34  1  0  0  0  0
 34 35  1  0  0  0  0
 35 36  2  0  0  0  0
 36 37  1  0  0  0  0
 37 38  2  0  0  0  0
 38 39  1  0  0  0  0
 39 34  2  0  0  0  0
 37 40  1  0  0  0  0
  5 41  1  0  0  0  0
  6 42  1  0  0  0  0
  8 43  1  0  0  0  0
  9 44  1  0  0  0  0
 10 45  1  0  0  0  0
 10 46  1  0  0  0  0
 25 47  1  0  0  0  0
 26 48  1  0  0  0  0
 27 49  1  0  0  0  0
 28 50  1  0  0  0  0
 29 51  1  0  0  0  0
 29 52  1  0  0  0  0
 30 53  1  0  0  0  0
 30 54  1  0  0  0  0
 31 55  1  0  0  0  0
 32 56  1  0  0  0  0
 32 57  1  0  0  0  0
 33 58  1  0  0  0  0
 33 59  1  0  0  0  0
 33 60  1  0  0  0  0
 35 61  1  0  0  0  0
 36 62  1  0  0  0  0
 38 63  1  0  0  0  0
 39 64  1  0  0  0  0
 40 65  1  0  0  0  0
 40 66  1  0  0  0  0
 40 67  1  0  0  0  0
M  END
>  <result-rank>
13

>  <similarity>
0.868

>  <query-name>


>  <query-smiles>
Clc1ccc(cc1)CS(=O)(=O)c2cc3N=C(c4c(N(c3cc2)C)cc5c(c4)C(CCC5(C)C)(C)C)c6ccc(cc6)C([O-])=O

>  <source>
REALspace_2019-12

>  <similarity-descriptor>
0.958;0.980;0.876;0.827;0.947;0.648;0.898;0.898;0.0;0.947;0.947;0.0;1.000;0.0;0.0

>  <similarity-descriptor-smiles>
c1ccc(cc1)C;c1ccccc1F;c1ccc(cc1)C;C1=CC=CS1;C=1CCCCC1;SC=1NC(C=CN1)=O;S(=O)=O;S(=O)=O;;C=1CCCCC1;C=1CCCCC1;;C;;

>  <reaction-name>
s_7a

>  <reagent1-name>
8400

>  <reagent1-smiles>
[R1*]SC1=NC=2SC3=C(C2C(=O)N1c4c(F)cccc4)CCC(C3)C

>  <reagent2-name>
645196

>  <reagent2-smiles>
[R1*]Cc1ccc(S(=O)(=O)c2ccc(cc2)C)cc1

$$$$
s_42a____8624686____125362
          04022017333D 1   1.00000     0.00000     0
            
 58 63  0  0  0  0            999 V2000
    4.8183   -0.2563    0.0796 Cl  0  0  0  0  0  0  0  0  0  0  0  0
    5.9766   -0.0345    1.4137 C   0  0  0  0  0  0  0  0  0  0  0  0
    5.6615    0.8207    2.4636 C   0  0  0  0  0  0  0  0  0  0  0  0
    6.5094    1.0234    3.4728 N   0  0  0  0  0  0  0  0  0  0  0  0
    7.6402    0.3362    3.3719 C   0  0  0  0  0  0  0  0  0  0  0  0
    8.7903    0.5654    4.5920 S   0  0  0  0  0  0  0  0  0  0  0  0
    9.9281   -0.5119    3.9372 C   0  0  0  0  0  0  0  0  0  0  0  0
    9.4179   -1.0247    2.8045 C   0  0  0  0  0  0  0  0  0  0  0  0
    8.1237   -0.5597    2.4544 C   0  0  0  0  0  0  0  0  0  0  0  0
    7.1926   -0.7054    1.4240 C   0  0  0  0  0  0  0  0  0  0  0  0
    7.5064   -1.5862    0.3137 C   0  0  0  0  0  0  0  0  0  0  0  0
    7.9786   -1.0422   -0.8762 C   0  0  0  0  0  0  0  0  0  0  0  0
    8.2766   -1.8944   -1.9343 C   0  0  0  0  0  0  0  0  0  0  0  0
    8.7288   -1.3920   -3.0783 F   0  0  0  0  0  0  0  0  0  0  0  0
    8.1037   -3.2670   -1.8004 C   0  0  0  0  0  0  0  0  0  0  0  0
    7.6319   -3.8078   -0.6093 C   0  0  0  0  0  0  0  0  0  0  0  0
    7.3324   -2.9590    0.4515 C   0  0  0  0  0  0  0  0  0  0  0  0
    8.4333   -4.1890   -2.9627 C   0  0  0  0  0  0  0  0  0  0  0  0
   10.5807   -1.8777    2.3356 C   0  0  0  0  0  0  0  0  0  0  0  0
   11.3959   -2.2033    3.5687 C   0  0  0  0  0  0  0  0  0  0  0  0
   11.3193   -0.9125    4.3577 C   0  0  0  0  0  0  0  0  0  0  0  0
    4.3934    1.5238    2.4792 C   0  0  0  0  0  0  0  0  0  0  0  0
    4.3889    2.9151    2.4847 C   0  0  0  0  0  0  0  0  0  0  0  0
    3.1774    3.5986    2.4996 C   0  0  0  0  0  0  0  0  0  0  0  0
    1.9850    2.8822    2.5096 C   0  0  0  0  0  0  0  0  0  0  0  0
    0.7615    3.5615    2.5249 N   0  0  0  0  0  0  0  0  0  0  0  0
    0.4614    4.4091    3.5586 C   0  0  0  0  0  0  0  0  0  0  0  0
    0.9090    4.2030    4.6527 O   0  0  0  0  0  0  0  0  0  0  0  0
   -0.3972    5.5554    3.3304 C   0  0  0  0  0  0  0  0  0  0  0  0
   -1.0353    6.1634    4.4066 C   0  0  0  0  0  0  0  0  0  0  0  0
   -1.8588    7.2621    4.1832 C   0  0  0  0  0  0  0  0  0  0  0  0
   -2.0380    7.7457    2.8914 C   0  0  0  0  0  0  0  0  0  0  0  0
   -1.3952    7.1307    1.8242 C   0  0  0  0  0  0  0  0  0  0  0  0
   -0.5698    6.0309    2.0344 C   0  0  0  0  0  0  0  0  0  0  0  0
    1.9902    1.4907    2.5042 C   0  0  0  0  0  0  0  0  0  0  0  0
    3.2017    0.8073    2.4891 C   0  0  0  0  0  0  0  0  0  0  0  0
    8.1018   -0.0542   -0.9694 H   0  0  0  0  0  0  0  0  0  0  0  0
    7.5093   -4.7959   -0.5162 H   0  0  0  0  0  0  0  0  0  0  0  0
    6.9921   -3.3359    1.3129 H   0  0  0  0  0  0  0  0  0  0  0  0
    8.2527   -5.1364   -2.6982 H   0  0  0  0  0  0  0  0  0  0  0  0
    7.8656   -3.9488   -3.7501 H   0  0  0  0  0  0  0  0  0  0  0  0
    9.3984   -4.0887   -3.2046 H   0  0  0  0  0  0  0  0  0  0  0  0
   11.1373   -1.3717    1.6766 H   0  0  0  0  0  0  0  0  0  0  0  0
   10.2441   -2.7184    1.9115 H   0  0  0  0  0  0  0  0  0  0  0  0
   10.9933   -2.9636    4.0784 H   0  0  0  0  0  0  0  0  0  0  0  0
   12.3410   -2.4258    3.3294 H   0  0  0  0  0  0  0  0  0  0  0  0
   11.3910   -1.0635    5.3436 H   0  0  0  0  0  0  0  0  0  0  0  0
   12.0102   -0.2488    4.0710 H   0  0  0  0  0  0  0  0  0  0  0  0
    5.2515    3.4208    2.4781 H   0  0  0  0  0  0  0  0  0  0  0  0
    3.1638    4.5985    2.5030 H   0  0  0  0  0  0  0  0  0  0  0  0
    0.1063    3.4282    1.7813 H   0  0  0  0  0  0  0  0  0  0  0  0
   -0.9031    5.8133    5.3339 H   0  0  0  0  0  0  0  0  0  0  0  0
   -2.3218    7.7043    4.9513 H   0  0  0  0  0  0  0  0  0  0  0  0
   -2.6294    8.5360    2.7308 H   0  0  0  0  0  0  0  0  0  0  0  0
   -1.5270    7.4816    0.8971 H   0  0  0  0  0  0  0  0  0  0  0  0
   -0.1075    5.5889    1.2657 H   0  0  0  0  0  0  0  0  0  0  0  0
    1.1277    0.9848    2.5111 H   0  0  0  0  0  0  0  0  0  0  0  0
    3.2155   -0.1926    2.4853 H   0  0  0  0  0  0  0  0  0  0  0  0
  1  2  1  0  0  0  0
  2  3  1  0  0  0  0
  3  4  2  0  0  0  0
  4  5  1  0  0  0  0
  5  6  1  0  0  0  0
  6  7  1  0  0  0  0
  7  8  2  0  0  0  0
  8  9  1  0  0  0  0
  9  5  2  0  0  0  0
  9 10  1  0  0  0  0
 10  2  2  0  0  0  0
 10 11  1  0  0  0  0
 11 12  1  0  0  0  0
 12 13  2  0  0  0  0
 13 14  1  0  0  0  0
 13 15  1  0  0  0  0
 15 16  2  0  0  0  0
 16 17  1  0  0  0  0
 17 11  2  0  0  0  0
 15 18  1  0  0  0  0
  8 19  1  0  0  0  0
 19 20  1  0  0  0  0
 20 21  1  0  0  0  0
 21  7  1  0  0  0  0
  3 22  1  0  0  0  0
 22 23  1  0  0  0  0
 23 24  2  0  0  0  0
 24 25  1  0  0  0  0
 25 26  1  0  0  0  0
 26 27  1  0  0  0  0
 27 28  2  0  0  0  0
 27 29  1  0  0  0  0
 29 30  1  0  0  0  0
 30 31  2  0  0  0  0
 31 32  1  0  0  0  0
 32 33  2  0  0  0  0
 33 34  1  0  0  0  0
 34 29  2  0  0  0  0
 25 35  2  0  0  0  0
 35 36  1  0  0  0  0
 36 22  2  0  0  0  0
 12 37  1  0  0  0  0
 16 38  1  0  0  0  0
 17 39  1  0  0  0  0
 18 40  1  0  0  0  0
 18 41  1  0  0  0  0
 18 42  1  0  0  0  0
 19 43  1  0  0  0  0
 19 44  1  0  0  0  0
 20 45  1  0  0  0  0
 20 46  1  0  0  0  0
 21 47  1  0  0  0  0
 21 48  1  0  0  0  0
 23 49  1  0  0  0  0
 24 50  1  0  0  0  0
 26 51  1  0  0  0  0
 30 52  1  0  0  0  0
 31 53  1  0  0  0  0
 32 54  1  0  0  0  0
 33 55  1  0  0  0  0
 34 56  1  0  0  0  0
 35 57  1  0  0  0  0
 36 58  1  0  0  0  0
M  END
>  <result-rank>
14

>  <similarity>
0.866

>  <query-name>


>  <query-smiles>
Clc1ccc(cc1)CS(=O)(=O)c2cc3N=C(c4c(N(c3cc2)C)cc5c(c4)C(CCC5(C)C)(C)C)c6ccc(cc6)C([O-])=O

>  <source>
REALspace_2019-12

>  <similarity-descriptor>
0.898;0.964;0.938;0.830;0.965;0.870;0.898;0.626;0.870;0.965;0.0;0.0;0.0;0.0;0.111

>  <similarity-descriptor-smiles>
c1ccccc1;c1cccc(c1)F;c1ccccc1;c1cC=CS1;C=1CCCC1;Clc1cccnc1;c1ccccc1;NC=O;Clc1cccnc1;C=1CCCC1;;;;;C

>  <reaction-name>
s_42a

>  <reagent1-name>
8624686

>  <reagent1-smiles>
[R1*]=NC=1SC2=C(C1C(=[R2*])c3cc(F)c(cc3)C)CCC2

>  <reagent2-name>
125362

>  <reagent2-smiles>
[R2*]=C(Cl)C(=[R1*])c1ccc(NC(=O)c2ccccc2)cc1

$$$$
s_42a____8624686____17055468
          04022017333D 1   1.00000     0.00000     0
            
 60 65  0  0  0  0            999 V2000
    5.1701    0.5264   -0.3789 Br  0  0  0  0  0  0  0  0  0  0  0  0
    6.1829    0.2966    1.2845 C   0  0  0  0  0  0  0  0  0  0  0  0
    5.6610    0.8209    2.4636 C   0  0  0  0  0  0  0  0  0  0  0  0
    6.3258    0.6866    3.6173 N   0  0  0  0  0  0  0  0  0  0  0  0
    7.4983    0.0405    3.5653 C   0  0  0  0  0  0  0  0  0  0  0  0
    8.4432   -0.1919    4.9636 S   0  0  0  0  0  0  0  0  0  0  0  0
    9.6992   -0.9987    4.1614 C   0  0  0  0  0  0  0  0  0  0  0  0
    9.3959   -1.1218    2.8582 C   0  0  0  0  0  0  0  0  0  0  0  0
    8.1385   -0.5267    2.4825 C   0  0  0  0  0  0  0  0  0  0  0  0
    7.4035   -0.3701    1.3119 C   0  0  0  0  0  0  0  0  0  0  0  0
    7.9146   -0.9030    0.0620 C   0  0  0  0  0  0  0  0  0  0  0  0
    7.9473   -2.2803   -0.1296 C   0  0  0  0  0  0  0  0  0  0  0  0
    8.4385   -2.7812   -1.3306 C   0  0  0  0  0  0  0  0  0  0  0  0
    8.4771   -4.0943   -1.5308 F   0  0  0  0  0  0  0  0  0  0  0  0
    8.8886   -1.9157   -2.3206 C   0  0  0  0  0  0  0  0  0  0  0  0
    8.8541   -0.5391   -2.1261 C   0  0  0  0  0  0  0  0  0  0  0  0
    8.3637   -0.0340   -0.9263 C   0  0  0  0  0  0  0  0  0  0  0  0
    9.4226   -2.4738   -3.6294 C   0  0  0  0  0  0  0  0  0  0  0  0
   10.6093   -1.8795    2.3525 C   0  0  0  0  0  0  0  0  0  0  0  0
   11.1654   -2.6100    3.5544 C   0  0  0  0  0  0  0  0  0  0  0  0
   11.0278   -1.5502    4.6156 C   0  0  0  0  0  0  0  0  0  0  0  0
    4.3931    1.5238    2.4796 C   0  0  0  0  0  0  0  0  0  0  0  0
    4.3920    2.9152    2.4870 C   0  0  0  0  0  0  0  0  0  0  0  0
    3.1737    3.5860    2.5020 C   0  0  0  0  0  0  0  0  0  0  0  0
    3.1519    4.9853    2.5098 N   0  3  0  0  0  0  0  0  0  0  0  0
    3.8290    5.6015    3.3162 O   0  5  0  0  0  0  0  0  0  0  0  0
    2.4615    5.5841    1.7167 O   0  0  0  0  0  0  0  0  0  0  0  0
    1.9805    2.8727    2.5095 C   0  0  0  0  0  0  0  0  0  0  0  0
    0.8052    3.5371    2.5243 O   0  0  0  0  0  0  0  0  0  0  0  0
   -0.4147    2.8194    2.6392 C   0  0  0  0  0  0  0  0  0  0  0  0
   -1.5799    3.7960    2.6315 C   0  0  0  0  0  0  0  0  0  0  0  0
   -2.1713    4.1535    1.4242 C   0  0  0  0  0  0  0  0  0  0  0  0
   -3.2366    5.0480    1.4216 C   0  0  0  0  0  0  0  0  0  0  0  0
   -3.7038    5.5768    2.6202 C   0  0  0  0  0  0  0  0  0  0  0  0
   -3.1056    5.2121    3.8201 C   0  0  0  0  0  0  0  0  0  0  0  0
   -2.0392    4.3191    3.8360 C   0  0  0  0  0  0  0  0  0  0  0  0
    1.9840    1.4816    2.5025 C   0  0  0  0  0  0  0  0  0  0  0  0
    3.2003    0.8073    2.4875 C   0  0  0  0  0  0  0  0  0  0  0  0
    7.6227   -2.9004    0.5846 H   0  0  0  0  0  0  0  0  0  0  0  0
    9.1783    0.0807   -2.8408 H   0  0  0  0  0  0  0  0  0  0  0  0
    8.3342    0.9540   -0.7745 H   0  0  0  0  0  0  0  0  0  0  0  0
    9.7015   -1.7199   -4.2242 H   0  0  0  0  0  0  0  0  0  0  0  0
   10.2104   -3.0614   -3.4445 H   0  0  0  0  0  0  0  0  0  0  0  0
    8.7074   -3.0075   -4.0807 H   0  0  0  0  0  0  0  0  0  0  0  0
   11.2889   -1.2444    1.9853 H   0  0  0  0  0  0  0  0  0  0  0  0
   10.3427   -2.5302    1.6415 H   0  0  0  0  0  0  0  0  0  0  0  0
   10.6256   -3.4228    3.7735 H   0  0  0  0  0  0  0  0  0  0  0  0
   12.1207   -2.8715    3.4168 H   0  0  0  0  0  0  0  0  0  0  0  0
   10.9861   -1.9360    5.5373 H   0  0  0  0  0  0  0  0  0  0  0  0
   11.7588   -0.8692    4.5721 H   0  0  0  0  0  0  0  0  0  0  0  0
    5.2527    3.4243    2.4815 H   0  0  0  0  0  0  0  0  0  0  0  0
   -0.4183    2.3030    3.4956 H   0  0  0  0  0  0  0  0  0  0  0  0
   -0.5038    2.1880    1.8689 H   0  0  0  0  0  0  0  0  0  0  0  0
   -1.8331    3.7703    0.5647 H   0  0  0  0  0  0  0  0  0  0  0  0
   -3.6666    5.3108    0.5578 H   0  0  0  0  0  0  0  0  0  0  0  0
   -4.4700    6.2194    2.6184 H   0  0  0  0  0  0  0  0  0  0  0  0
   -3.4446    5.5949    4.6795 H   0  0  0  0  0  0  0  0  0  0  0  0
   -1.6093    4.0572    4.7001 H   0  0  0  0  0  0  0  0  0  0  0  0
    1.1230    0.9730    2.5081 H   0  0  0  0  0  0  0  0  0  0  0  0
    3.2177   -0.1925    2.4824 H   0  0  0  0  0  0  0  0  0  0  0  0
  1  2  1  0  0  0  0
  2  3  1  0  0  0  0
  3  4  2  0  0  0  0
  4  5  1  0  0  0  0
  5  6  1  0  0  0  0
  6  7  1  0  0  0  0
  7  8  2  0  0  0  0
  8  9  1  0  0  0  0
  9  5  2  0  0  0  0
  9 10  1  0  0  0  0
 10  2  2  0  0  0  0
 10 11  1  0  0  0  0
 11 12  1  0  0  0  0
 12 13  2  0  0  0  0
 13 14  1  0  0  0  0
 13 15  1  0  0  0  0
 15 16  2  0  0  0  0
 16 17  1  0  0  0  0
 17 11  2  0  0  0  0
 15 18  1  0  0  0  0
  8 19  1  0  0  0  0
 19 20  1  0  0  0  0
 20 21  1  0  0  0  0
 21  7  1  0  0  0  0
  3 22  1  0  0  0  0
 22 23  1  0  0  0  0
 23 24  2  0  0  0  0
 24 25  1  0  0  0  0
 25 26  1  0  0  0  0
 25 27  2  0  0  0  0
 24 28  1  0  0  0  0
 28 29  1  0  0  0  0
 29 30  1  0  0  0  0
 30 31  1  0  0  0  0
 31 32  1  0  0  0  0
 32 33  2  0  0  0  0
 33 34  1  0  0  0  0
 34 35  2  0  0  0  0
 35 36  1  0  0  0  0
 36 31  2  0  0  0  0
 28 37  2  0  0  0  0
 37 38  1  0  0  0  0
 38 22  2  0  0  0  0
 12 39  1  0  0  0  0
 16 40  1  0  0  0  0
 17 41  1  0  0  0  0
 18 42  1  0  0  0  0
 18 43  1  0  0  0  0
 18 44  1  0  0  0  0
 19 45  1  0  0  0  0
 19 46  1  0  0  0  0
 20 47  1  0  0  0  0
 20 48  1  0  0  0  0
 21 49  1  0  0  0  0
 21 50  1  0  0  0  0
 23 51  1  0  0  0  0
 30 52  1  0  0  0  0
 30 53  1  0  0  0  0
 32 54  1  0  0  0  0
 33 55  1  0  0  0  0
 34 56  1  0  0  0  0
 35 57  1  0  0  0  0
 36 58  1  0  0  0  0
 37 59  1  0  0  0  0
 38 60  1  0  0  0  0
M  CHG  2  25   1  26  -1
M  END
>  <result-rank>
15

>  <similarity>
0.866

>  <query-name>


>  <query-smiles>
Clc1ccc(cc1)CS(=O)(=O)c2cc3N=C(c4c(N(c3cc2)C)cc5c(c4)C(CCC5(C)C)(C)C)c6ccc(cc6)C([O-])=O

>  <source>
REALspace_2019-12

>  <similarity-descriptor>
0.952;0.964;0.981;0.830;0.965;0.881;0.540;0.540;0.881;0.965;0.0;0.0;0.0;0.0;0.200

>  <similarity-descriptor-smiles>
c1ccccc1;c1cccc(c1)F;c1ccccc1;c1cC=CS1;C=1CCCC1;Brc1cccnc1;OC;OC;Brc1cccnc1;C=1CCCC1;;;;;C.[N+]([O-])=O

>  <reaction-name>
s_42a

>  <reagent1-name>
8624686

>  <reagent1-smiles>
[R1*]=NC=1SC2=C(C1C(=[R2*])c3cc(F)c(cc3)C)CCC2

>  <reagent2-name>
17055468

>  <reagent2-smiles>
[R2*]=C(Br)C(=[R1*])c1cc([N+]([O-])=O)c(OCc2ccccc2)cc1

$$$$
s_42a____8631722____125334
          04022017333D 1   1.00000     0.00000     0
            
 65 69  0  0  0  0            999 V2000
    4.8834   -0.2982    4.8400 Cl  0  0  0  0  0  0  0  0  0  0  0  0
    6.0186   -0.0481    3.4914 C   0  0  0  0  0  0  0  0  0  0  0  0
    5.6614    0.8207    2.4636 C   0  0  0  0  0  0  0  0  0  0  0  0
    6.4904    1.0316    1.4379 N   0  0  0  0  0  0  0  0  0  0  0  0
    7.6512    0.3775    1.4649 C   0  0  0  0  0  0  0  0  0  0  0  0
    8.7907    0.6022    0.2204 S   0  0  0  0  0  0  0  0  0  0  0  0
    9.9747   -0.4265    0.8680 C   0  0  0  0  0  0  0  0  0  0  0  0
    9.4808   -0.9525    2.0263 C   0  0  0  0  0  0  0  0  0  0  0  0
    8.1581   -0.5124    2.3974 C   0  0  0  0  0  0  0  0  0  0  0  0
    7.2519   -0.7004    3.4436 C   0  0  0  0  0  0  0  0  0  0  0  0
    7.5832   -1.5938    4.5374 C   0  0  0  0  0  0  0  0  0  0  0  0
    8.0594   -1.0581    5.7291 C   0  0  0  0  0  0  0  0  0  0  0  0
    8.3810   -1.9067    6.7836 C   0  0  0  0  0  0  0  0  0  0  0  0
    8.2215   -3.2803    6.6331 C   0  0  0  0  0  0  0  0  0  0  0  0
    8.5295   -4.1115    7.6513 O   0  0  0  0  0  0  0  0  0  0  0  0
    8.3666   -5.5137    7.4972 C   0  0  0  0  0  0  0  0  0  0  0  0
    7.7454   -3.8156    5.4407 C   0  0  0  0  0  0  0  0  0  0  0  0
    7.4242   -2.9674    4.3861 C   0  0  0  0  0  0  0  0  0  0  0  0
   10.5155   -1.8707    2.6713 C   0  0  0  0  0  0  0  0  0  0  0  0
   11.9429   -1.3327    2.5867 C   0  0  0  0  0  0  0  0  0  0  0  0
   12.2616   -0.4517    1.3849 C   0  0  3  0  0  0  0  0  0  0  0  0
   11.3251   -0.6370    0.2116 C   0  0  0  0  0  0  0  0  0  0  0  0
   13.6517   -0.8338    0.9100 C   0  0  0  0  0  0  0  0  0  0  0  0
    4.3934    1.5238    2.4792 C   0  0  0  0  0  0  0  0  0  0  0  0
    4.3889    2.9151    2.4847 C   0  0  0  0  0  0  0  0  0  0  0  0
    3.1774    3.5986    2.4996 C   0  0  0  0  0  0  0  0  0  0  0  0
    1.9850    2.8822    2.5096 C   0  0  0  0  0  0  0  0  0  0  0  0
    0.7615    3.5615    2.5249 N   0  0  0  0  0  0  0  0  0  0  0  0
    0.0635    3.9516    3.9453 S   0  0  0  0  0  0  0  0  0  0  0  0
    1.0837    4.1634    4.9393 O   0  0  0  0  0  0  0  0  0  0  0  0
   -0.7087    5.1564    3.7858 O   0  0  0  0  0  0  0  0  0  0  0  0
   -1.0231    2.6040    4.4738 C   0  0  0  0  0  0  0  0  0  0  0  0
    0.1058    3.9232    1.2599 C   0  0  0  0  0  0  0  0  0  0  0  0
    0.5754    5.3008    0.8216 C   0  0  0  0  0  0  0  0  0  0  0  0
    1.9902    1.4907    2.5042 C   0  0  0  0  0  0  0  0  0  0  0  0
    3.2017    0.8073    2.4891 C   0  0  0  0  0  0  0  0  0  0  0  0
    8.1699   -0.0692    5.8275 H   0  0  0  0  0  0  0  0  0  0  0  0
    8.7246   -1.5315    7.6445 H   0  0  0  0  0  0  0  0  0  0  0  0
    8.6391   -5.9757    8.3411 H   0  0  0  0  0  0  0  0  0  0  0  0
    7.4078   -5.7182    7.2999 H   0  0  0  0  0  0  0  0  0  0  0  0
    8.9381   -5.8347    6.7419 H   0  0  0  0  0  0  0  0  0  0  0  0
    7.6346   -4.8046    5.3423 H   0  0  0  0  0  0  0  0  0  0  0  0
    7.0812   -3.3426    3.5250 H   0  0  0  0  0  0  0  0  0  0  0  0
   10.4834   -2.7574    2.2101 H   0  0  0  0  0  0  0  0  0  0  0  0
   10.2778   -1.9878    3.6356 H   0  0  0  0  0  0  0  0  0  0  0  0
   12.1157   -0.7959    3.4125 H   0  0  0  0  0  0  0  0  0  0  0  0
   12.5632   -2.1167    2.5630 H   0  0  0  0  0  0  0  0  0  0  0  0
   12.2578    0.5081    1.6655 H   0  0  0  0  0  0  0  0  0  0  0  0
   11.4944    0.0426   -0.5021 H   0  0  0  0  0  0  0  0  0  0  0  0
   11.4033   -1.5551   -0.1771 H   0  0  0  0  0  0  0  0  0  0  0  0
   14.3025   -0.7240    1.6613 H   0  0  0  0  0  0  0  0  0  0  0  0
   13.6502   -1.7867    0.6069 H   0  0  0  0  0  0  0  0  0  0  0  0
   13.9182   -0.2423    0.1490 H   0  0  0  0  0  0  0  0  0  0  0  0
    5.2515    3.4208    2.4781 H   0  0  0  0  0  0  0  0  0  0  0  0
    3.1638    4.5985    2.5030 H   0  0  0  0  0  0  0  0  0  0  0  0
   -1.7316    2.4568    3.7835 H   0  0  0  0  0  0  0  0  0  0  0  0
   -0.4868    1.7672    4.5846 H   0  0  0  0  0  0  0  0  0  0  0  0
   -1.4513    2.8433    5.3452 H   0  0  0  0  0  0  0  0  0  0  0  0
   -0.8856    3.9347    1.3898 H   0  0  0  0  0  0  0  0  0  0  0  0
    0.3423    3.2515    0.5579 H   0  0  0  0  0  0  0  0  0  0  0  0
    0.1294    5.5469   -0.0389 H   0  0  0  0  0  0  0  0  0  0  0  0
    0.3389    5.9726    1.5237 H   0  0  0  0  0  0  0  0  0  0  0  0
    1.5669    5.2893    0.6918 H   0  0  0  0  0  0  0  0  0  0  0  0
    1.1277    0.9848    2.5111 H   0  0  0  0  0  0  0  0  0  0  0  0
    3.2155   -0.1926    2.4853 H   0  0  0  0  0  0  0  0  0  0  0  0
  1  2  1  0  0  0  0
  2  3  1  0  0  0  0
  3  4  2  0  0  0  0
  4  5  1  0  0  0  0
  5  6  1  0  0  0  0
  6  7  1  0  0  0  0
  7  8  2  0  0  0  0
  8  9  1  0  0  0  0
  9  5  2  0  0  0  0
  9 10  1  0  0  0  0
 10  2  2  0  0  0  0
 10 11  1  0  0  0  0
 11 12  1  0  0  0  0
 12 13  2  0  0  0  0
 13 14  1  0  0  0  0
 14 15  1  0  0  0  0
 15 16  1  0  0  0  0
 14 17  2  0  0  0  0
 17 18  1  0  0  0  0
 18 11  2  0  0  0  0
  8 19  1  0  0  0  0
 19 20  1  0  0  0  0
 20 21  1  0  0  0  0
 21 22  1  0  0  0  0
 22  7  1  0  0  0  0
 21 23  1  0  0  0  0
  3 24  1  0  0  0  0
 24 25  1  0  0  0  0
 25 26  2  0  0  0  0
 26 27  1  0  0  0  0
 27 28  1  0  0  0  0
 28 29  1  0  0  0  0
 29 30  2  0  0  0  0
 29 31  2  0  0  0  0
 29 32  1  0  0  0  0
 28 33  1  0  0  0  0
 33 34  1  0  0  0  0
 27 35  2  0  0  0  0
 35 36  1  0  0  0  0
 36 24  2  0  0  0  0
 12 37  1  0  0  0  0
 13 38  1  0  0  0  0
 16 39  1  0  0  0  0
 16 40  1  0  0  0  0
 16 41  1  0  0  0  0
 17 42  1  0  0  0  0
 18 43  1  0  0  0  0
 19 44  1  0  0  0  0
 19 45  1  0  0  0  0
 20 46  1  0  0  0  0
 20 47  1  0  0  0  0
 21 48  1  0  0  0  0
 22 49  1  0  0  0  0
 22 50  1  0  0  0  0
 23 51  1  0  0  0  0
 23 52  1  0  0  0  0
 23 53  1  0  0  0  0
 25 54  1  0  0  0  0
 26 55  1  0  0  0  0
 32 56  1  0  0  0  0
 32 57  1  0  0  0  0
 32 58  1  0  0  0  0
 33 59  1  0  0  0  0
 33 60  1  0  0  0  0
 34 61  1  0  0  0  0
 34 62  1  0  0  0  0
 34 63  1  0  0  0  0
 35 64  1  0  0  0  0
 36 65  1  0  0  0  0
M  END
>  <result-rank>
16

>  <similarity>
0.866

>  <query-name>


>  <query-smiles>
Clc1ccc(cc1)CS(=O)(=O)c2cc3N=C(c4c(N(c3cc2)C)cc5c(c4)C(CCC5(C)C)(C)C)c6ccc(cc6)C([O-])=O

>  <source>
REALspace_2019-12

>  <similarity-descriptor>
0.0;0.998;0.938;0.830;0.947;0.870;0.996;0.976;0.870;0.947;0.947;0.0;1.000;0.490;0.154

>  <similarity-descriptor-smiles>
;c1ccccc1;c1ccccc1;c1cC=CS1;C=1CCCCC1;Clc1cccnc1;C;NS(=O)=O;Clc1cccnc1;C=1CCCCC1;C=1CCCCC1;;C;OC;C.C

>  <reaction-name>
s_42a

>  <reagent1-name>
8631722

>  <reagent1-smiles>
[R1*]=NC=1SC2=C(C1C(=[R2*])c3ccc(OC)cc3)CCC2

>  <reagent2-name>
125334

>  <reagent2-smiles>
[R2*]=C(Cl)C(=[R1*])c1ccc(N(S(=O)(=O)C)CC)cc1

$$$$
m_271722____10195400____10193694
          04022017333D 1   1.00000     0.00000     0
            
 64 68  0  0  0  0            999 V2000
   -3.1077    3.9215    0.8760 Cl  0  0  0  0  0  0  0  0  0  0  0  0
   -2.0700    2.6055    0.2769 C   0  0  0  0  0  0  0  0  0  0  0  0
   -0.6885    2.6929    0.4078 C   0  0  0  0  0  0  0  0  0  0  0  0
   -0.1219    3.8220    1.0108 N   0  0  0  0  0  0  0  0  0  0  0  0
    0.4648    3.7275    2.5286 S   0  0  0  0  0  0  0  0  0  0  0  0
   -0.4719    3.0192    3.3620 O   0  0  0  0  0  0  0  0  0  0  0  0
    0.6631    5.0550    3.0502 O   0  0  0  0  0  0  0  0  0  0  0  0
    1.9833    2.8783    2.5116 C   0  0  0  0  0  0  0  0  0  0  0  0
    3.1735    3.5977    2.5023 C   0  0  0  0  0  0  0  0  0  0  0  0
    4.3802    2.9056    2.4882 C   0  0  0  0  0  0  0  0  0  0  0  0
    4.4059    1.5148    2.4827 C   0  0  0  0  0  0  0  0  0  0  0  0
    3.2042    0.8141    2.4925 C   0  0  0  0  0  0  0  0  0  0  0  0
    1.9869    1.4870    2.5070 C   0  0  0  0  0  0  0  0  0  0  0  0
    5.6230    3.6528    2.4786 C   0  0  0  0  0  0  0  0  0  0  0  0
    5.7297    4.9602    2.4820 O   0  0  0  0  0  0  0  0  0  0  0  0
    7.0122    5.2392    2.4710 C   0  0  0  0  0  0  0  0  0  0  0  0
    7.6939    4.1182    2.4614 N   0  0  0  0  0  0  0  0  0  0  0  0
    6.8277    3.1302    2.4669 N   0  0  0  0  0  0  0  0  0  0  0  0
    7.5834    6.5691    2.4684 C   0  0  0  0  0  0  0  0  0  0  0  0
    8.9612    6.7263    2.4564 C   0  0  0  0  0  0  0  0  0  0  0  0
    9.5320    7.9934    2.4544 C   0  0  0  0  0  0  0  0  0  0  0  0
    8.6799    9.1063    2.4661 C   0  0  0  0  0  0  0  0  0  0  0  0
    7.2999    8.9378    2.4781 C   0  0  0  0  0  0  0  0  0  0  0  0
    6.7371    7.6686    2.4785 C   0  0  0  0  0  0  0  0  0  0  0  0
    9.2193   10.5333    2.4508 C   0  0  0  0  0  0  0  0  0  0  0  0
   10.6855   10.5895    2.8501 C   0  0  0  0  0  0  0  0  0  0  0  0
   11.5002    9.5394    2.1045 C   0  0  0  0  0  0  0  0  0  0  0  0
   11.0542    8.1241    2.4437 C   0  0  0  0  0  0  0  0  0  0  0  0
   11.7360    7.0928    1.5555 C   0  0  0  0  0  0  0  0  0  0  0  0
   11.5262    7.8893    3.8701 C   0  0  0  0  0  0  0  0  0  0  0  0
    8.3966   11.4977    3.2905 C   0  0  0  0  0  0  0  0  0  0  0  0
    9.1633   11.0265    1.0141 C   0  0  0  0  0  0  0  0  0  0  0  0
    0.1299    1.6690   -0.0580 C   0  0  0  0  0  0  0  0  0  0  0  0
   -0.4459    0.5535   -0.6563 C   0  0  0  0  0  0  0  0  0  0  0  0
   -1.8283    0.4703   -0.7870 C   0  0  0  0  0  0  0  0  0  0  0  0
   -2.6503    1.4923   -0.3233 C   0  0  0  0  0  0  0  0  0  0  0  0
   -0.0771    4.6867    0.5104 H   0  0  0  0  0  0  0  0  0  0  0  0
    3.1621    4.5976    2.5056 H   0  0  0  0  0  0  0  0  0  0  0  0
    5.2775    1.0247    2.4718 H   0  0  0  0  0  0  0  0  0  0  0  0
    3.2157   -0.1859    2.4890 H   0  0  0  0  0  0  0  0  0  0  0  0
    1.1263    0.9778    2.5141 H   0  0  0  0  0  0  0  0  0  0  0  0
    9.5508    5.9186    2.4492 H   0  0  0  0  0  0  0  0  0  0  0  0
    6.7048    9.7414    2.4867 H   0  0  0  0  0  0  0  0  0  0  0  0
    5.7442    7.5496    2.4858 H   0  0  0  0  0  0  0  0  0  0  0  0
   10.7624   10.4244    3.8333 H   0  0  0  0  0  0  0  0  0  0  0  0
   11.0476   11.4965    2.6350 H   0  0  0  0  0  0  0  0  0  0  0  0
   11.3916    9.6850    1.1211 H   0  0  0  0  0  0  0  0  0  0  0  0
   12.4635    9.6424    2.3523 H   0  0  0  0  0  0  0  0  0  0  0  0
   12.7264    7.2271    1.5886 H   0  0  0  0  0  0  0  0  0  0  0  0
   11.5132    6.1736    1.8804 H   0  0  0  0  0  0  0  0  0  0  0  0
   11.4163    7.2001    0.6141 H   0  0  0  0  0  0  0  0  0  0  0  0
   12.5225    7.9661    3.9084 H   0  0  0  0  0  0  0  0  0  0  0  0
   11.1158    8.5727    4.4738 H   0  0  0  0  0  0  0  0  0  0  0  0
   11.2507    6.9747    4.1661 H   0  0  0  0  0  0  0  0  0  0  0  0
    8.7997   12.4115    3.2394 H   0  0  0  0  0  0  0  0  0  0  0  0
    7.4596   11.5268    2.9426 H   0  0  0  0  0  0  0  0  0  0  0  0
    8.3896   11.1892    4.2417 H   0  0  0  0  0  0  0  0  0  0  0  0
    9.5114   11.9629    0.9693 H   0  0  0  0  0  0  0  0  0  0  0  0
    9.7248   10.4342    0.4362 H   0  0  0  0  0  0  0  0  0  0  0  0
    8.2170   11.0069    0.6916 H   0  0  0  0  0  0  0  0  0  0  0  0
    1.1233    1.7345    0.0366 H   0  0  0  0  0  0  0  0  0  0  0  0
    0.1338   -0.1887   -0.9927 H   0  0  0  0  0  0  0  0  0  0  0  0
   -2.2362   -0.3339   -1.2194 H   0  0  0  0  0  0  0  0  0  0  0  0
   -3.6435    1.4279   -0.4198 H   0  0  0  0  0  0  0  0  0  0  0  0
  1  2  1  0  0  0  0
  2  3  1  0  0  0  0
  3  4  1  0  0  0  0
  4  5  1  0  0  0  0
  5  6  2  0  0  0  0
  5  7  2  0  0  0  0
  5  8  1  0  0  0  0
  8  9  1  0  0  0  0
  9 10  2  0  0  0  0
 10 11  1  0  0  0  0
 11 12  2  0  0  0  0
 12 13  1  0  0  0  0
 13  8  2  0  0  0  0
 10 14  1  0  0  0  0
 14 15  1  0  0  0  0
 15 16  1  0  0  0  0
 16 17  2  0  0  0  0
 17 18  1  0  0  0  0
 14 18  2  0  0  0  0
 16 19  1  0  0  0  0
 19 20  1  0  0  0  0
 20 21  2  0  0  0  0
 21 22  1  0  0  0  0
 22 23  2  0  0  0  0
 23 24  1  0  0  0  0
 24 19  2  0  0  0  0
 22 25  1  0  0  0  0
 25 26  1  0  0  0  0
 26 27  1  0  0  0  0
 27 28  1  0  0  0  0
 28 21  1  0  0  0  0
 28 29  1  0  0  0  0
 28 30  1  0  0  0  0
 25 31  1  0  0  0  0
 25 32  1  0  0  0  0
  3 33  2  0  0  0  0
 33 34  1  0  0  0  0
 34 35  2  0  0  0  0
 35 36  1  0  0  0  0
 36  2  2  0  0  0  0
  4 37  1  0  0  0  0
  9 38  1  0  0  0  0
 11 39  1  0  0  0  0
 12 40  1  0  0  0  0
 13 41  1  0  0  0  0
 20 42  1  0  0  0  0
 23 43  1  0  0  0  0
 24 44  1  0  0  0  0
 26 45  1  0  0  0  0
 26 46  1  0  0  0  0
 27 47  1  0  0  0  0
 27 48  1  0  0  0  0
 29 49  1  0  0  0  0
 29 50  1  0  0  0  0
 29 51  1  0  0  0  0
 30 52  1  0  0  0  0
 30 53  1  0  0  0  0
 30 54  1  0  0  0  0
 31 55  1  0  0  0  0
 31 56  1  0  0  0  0
 31 57  1  0  0  0  0
 32 58  1  0  0  0  0
 32 59  1  0  0  0  0
 32 60  1  0  0  0  0
 33 61  1  0  0  0  0
 34 62  1  0  0  0  0
 35 63  1  0  0  0  0
 36 64  1  0  0  0  0
M  END
>  <result-rank>
17

>  <similarity>
0.865

>  <query-name>


>  <query-smiles>
Clc1ccc(cc1)CS(=O)(=O)c2cc3N=C(c4c(N(c3cc2)C)cc5c(c4)C(CCC5(C)C)(C)C)c6ccc(cc6)C([O-])=O

>  <source>
REALspace_2019-12

>  <similarity-descriptor>
0.944;0.0;0.939;0.926;1.000;0.616;0.944;0.885;0.0;1.000;1.000;1.000;1.000;0.0;0.0

>  <similarity-descriptor-smiles>
Clc1ccccc1;;c1ccccc1;c1ccccc1;c1CCCCc1;C1=NN=CO1;Clc1ccccc1;NS(=O)=O;;C;C;C;C;;

>  <reaction-name>
m_271722

>  <reagent1-name>
10195400

>  <reagent1-smiles>
[R1*]=NN=C(O[R2*])c1cc(S(=O)(=O)Nc2c(Cl)cccc2)ccc1

>  <reagent2-name>
10193694

>  <reagent2-smiles>
[R1*]C([R2*])c1cc2c(cc1)C(CCC2(C)C)(C)C

$$$$
m_273170____10757270____10763676____10755794
          04022017333D 1   1.00000     0.00000     0
            
 69 73  0  0  0  0            999 V2000
   -1.5886   -1.5199    6.5957 S   0  0  0  0  0  0  0  0  0  0  0  0
   -0.4437   -1.7011    7.4501 O   0  0  0  0  0  0  0  0  0  0  0  0
   -2.3895   -0.4305    7.0910 O   0  0  0  0  0  0  0  0  0  0  0  0
   -1.0549   -1.1593    4.9796 C   0  0  0  0  0  0  0  0  0  0  0  0
   -1.9884   -1.0121    3.9594 C   0  0  0  0  0  0  0  0  0  0  0  0
   -1.5642   -0.7238    2.6662 C   0  0  0  0  0  0  0  0  0  0  0  0
   -0.2038   -0.5869    2.4116 C   0  0  0  0  0  0  0  0  0  0  0  0
    0.7294   -0.7347    3.4326 C   0  0  0  0  0  0  0  0  0  0  0  0
    0.3059   -1.0223    4.7254 C   0  0  0  0  0  0  0  0  0  0  0  0
    0.2650   -0.2731    1.0004 C   0  0  0  0  0  0  0  0  0  0  0  0
    1.0000    1.0000    1.0000 N   0  0  0  0  0  0  0  0  0  0  0  0
    2.4017    1.0000    1.0000 C   0  0  0  0  0  0  0  0  0  0  0  0
    3.1912    2.0296    1.1812 N   0  0  0  0  0  0  0  0  0  0  0  0
    4.4560    1.6780    1.1153 N   0  0  0  0  0  0  0  0  0  0  0  0
    4.5040    0.3852    0.8853 C   0  0  0  0  0  0  0  0  0  0  0  0
    3.2232   -0.0646    0.8086 N   0  0  0  0  0  0  0  0  0  0  0  0
    2.8010   -1.4518    0.5637 C   0  0  0  0  0  0  0  0  0  0  0  0
    3.0067   -1.7926   -0.9030 C   0  0  0  0  0  0  0  0  0  0  0  0
    3.6827   -2.9554   -1.2545 C   0  0  0  0  0  0  0  0  0  0  0  0
    3.9147   -3.2723   -2.5910 C   0  0  0  0  0  0  0  0  0  0  0  0
    3.4413   -2.4492   -3.6034 C   0  0  0  0  0  0  0  0  0  0  0  0
    3.6745   -2.8172   -4.9379 N   0  0  0  0  0  0  0  0  0  0  0  0
    4.9640   -3.4386   -5.2869 C   0  0  0  0  0  0  0  0  0  0  0  0
    5.6513   -4.1126   -4.1056 C   0  0  0  0  0  0  0  0  0  0  0  0
    4.6925   -4.5175   -2.9934 C   0  0  0  0  0  0  0  0  0  0  0  0
    2.6896   -2.5878   -6.0067 C   0  0  0  0  0  0  0  0  0  0  0  0
    2.7578   -1.2912   -3.2385 C   0  0  0  0  0  0  0  0  0  0  0  0
    2.5367   -0.9521   -1.9073 C   0  0  0  0  0  0  0  0  0  0  0  0
    5.7068   -0.4115    0.7407 C   0  0  0  0  0  0  0  0  0  0  0  0
    5.6846   -1.7499    1.1193 C   0  0  0  0  0  0  0  0  0  0  0  0
    6.8413   -2.5098    0.9802 C   0  0  0  0  0  0  0  0  0  0  0  0
    6.8311   -3.8581    1.3586 N   0  3  0  0  0  0  0  0  0  0  0  0
    7.8831   -4.4563    1.5127 O   0  5  0  0  0  0  0  0  0  0  0  0
    5.7790   -4.4297    1.5326 O   0  0  0  0  0  0  0  0  0  0  0  0
    8.0091   -1.9518    0.4711 C   0  0  0  0  0  0  0  0  0  0  0  0
    8.0083   -0.6118    0.0984 C   0  0  0  0  0  0  0  0  0  0  0  0
    6.8632    0.1669    0.2287 C   0  0  0  0  0  0  0  0  0  0  0  0
    0.2650    2.2731    0.9996 C   0  0  0  0  0  0  0  0  0  0  0  0
   -2.5762   -3.0367    6.5807 C   0  0  0  0  0  0  0  0  0  0  0  0
   -2.9638   -1.1135    4.1551 H   0  0  0  0  0  0  0  0  0  0  0  0
   -2.2300   -0.6162    1.9279 H   0  0  0  0  0  0  0  0  0  0  0  0
    1.7049   -0.6341    3.2367 H   0  0  0  0  0  0  0  0  0  0  0  0
    0.9718   -1.1293    5.4638 H   0  0  0  0  0  0  0  0  0  0  0  0
    0.8656   -1.0048    0.6782 H   0  0  0  0  0  0  0  0  0  0  0  0
   -0.5271   -0.2008    0.3944 H   0  0  0  0  0  0  0  0  0  0  0  0
    1.8337   -1.5520    0.7968 H   0  0  0  0  0  0  0  0  0  0  0  0
    3.3459   -2.0708    1.1293 H   0  0  0  0  0  0  0  0  0  0  0  0
    4.0069   -3.5729   -0.5379 H   0  0  0  0  0  0  0  0  0  0  0  0
    5.5713   -2.7290   -5.6441 H   0  0  0  0  0  0  0  0  0  0  0  0
    4.8029   -4.1267   -5.9944 H   0  0  0  0  0  0  0  0  0  0  0  0
    6.3247   -3.4776   -3.7271 H   0  0  0  0  0  0  0  0  0  0  0  0
    6.1165   -4.9336   -4.4366 H   0  0  0  0  0  0  0  0  0  0  0  0
    4.0640   -5.2220   -3.3230 H   0  0  0  0  0  0  0  0  0  0  0  0
    5.2056   -4.8686   -2.2102 H   0  0  0  0  0  0  0  0  0  0  0  0
    3.0556   -2.9230   -6.8749 H   0  0  0  0  0  0  0  0  0  0  0  0
    1.8438   -3.0758   -5.7910 H   0  0  0  0  0  0  0  0  0  0  0  0
    2.4999   -1.6088   -6.0808 H   0  0  0  0  0  0  0  0  0  0  0  0
    2.4153   -0.6846   -3.9560 H   0  0  0  0  0  0  0  0  0  0  0  0
    2.0451   -0.1129   -1.6747 H   0  0  0  0  0  0  0  0  0  0  0  0
    4.8494   -2.1597    1.4861 H   0  0  0  0  0  0  0  0  0  0  0  0
    8.8363   -2.5053    0.3744 H   0  0  0  0  0  0  0  0  0  0  0  0
    8.8434   -0.2021   -0.2686 H   0  0  0  0  0  0  0  0  0  0  0  0
    6.8714    1.1295   -0.0421 H   0  0  0  0  0  0  0  0  0  0  0  0
   -0.7182    2.0903    0.9996 H   0  0  0  0  0  0  0  0  0  0  0  0
    0.5066    2.7977    1.8159 H   0  0  0  0  0  0  0  0  0  0  0  0
    0.5066    2.7972    0.1829 H   0  0  0  0  0  0  0  0  0  0  0  0
   -3.3713   -2.9109    5.9874 H   0  0  0  0  0  0  0  0  0  0  0  0
   -2.0200   -3.7932    6.2367 H   0  0  0  0  0  0  0  0  0  0  0  0
   -2.8829   -3.2439    7.5096 H   0  0  0  0  0  0  0  0  0  0  0  0
  1  2  2  0  0  0  0
  1  3  2  0  0  0  0
  1  4  1  0  0  0  0
  4  5  1  0  0  0  0
  5  6  2  0  0  0  0
  6  7  1  0  0  0  0
  7  8  2  0  0  0  0
  8  9  1  0  0  0  0
  9  4  2  0  0  0  0
  7 10  1  0  0  0  0
 10 11  1  0  0  0  0
 11 12  1  0  0  0  0
 12 13  2  0  0  0  0
 13 14  1  0  0  0  0
 14 15  2  0  0  0  0
 15 16  1  0  0  0  0
 16 12  1  0  0  0  0
 16 17  1  0  0  0  0
 17 18  1  0  0  0  0
 18 19  1  0  0  0  0
 19 20  2  0  0  0  0
 20 21  1  0  0  0  0
 21 22  1  0  0  0  0
 22 23  1  0  0  0  0
 23 24  1  0  0  0  0
 24 25  1  0  0  0  0
 25 20  1  0  0  0  0
 22 26  1  0  0  0  0
 21 27  2  0  0  0  0
 27 28  1  0  0  0  0
 28 18  2  0  0  0  0
 15 29  1  0  0  0  0
 29 30  1  0  0  0  0
 30 31  2  0  0  0  0
 31 32  1  0  0  0  0
 32 33  1  0  0  0  0
 32 34  2  0  0  0  0
 31 35  1  0  0  0  0
 35 36  2  0  0  0  0
 36 37  1  0  0  0  0
 37 29  2  0  0  0  0
 11 38  1  0  0  0  0
  1 39  1  0  0  0  0
  5 40  1  0  0  0  0
  6 41  1  0  0  0  0
  8 42  1  0  0  0  0
  9 43  1  0  0  0  0
 10 44  1  0  0  0  0
 10 45  1  0  0  0  0
 17 46  1  0  0  0  0
 17 47  1  0  0  0  0
 19 48  1  0  0  0  0
 23 49  1  0  0  0  0
 23 50  1  0  0  0  0
 24 51  1  0  0  0  0
 24 52  1  0  0  0  0
 25 53  1  0  0  0  0
 25 54  1  0  0  0  0
 26 55  1  0  0  0  0
 26 56  1  0  0  0  0
 26 57  1  0  0  0  0
 27 58  1  0  0  0  0
 28 59  1  0  0  0  0
 30 60  1  0  0  0  0
 35 61  1  0  0  0  0
 36 62  1  0  0  0  0
 37 63  1  0  0  0  0
 38 64  1  0  0  0  0
 38 65  1  0  0  0  0
 38 66  1  0  0  0  0
 39 67  1  0  0  0  0
 39 68  1  0  0  0  0
 39 69  1  0  0  0  0
M  CHG  2  32   1  33  -1
M  END
>  <result-rank>
18

>  <similarity>
0.865

>  <query-name>


>  <query-smiles>
Clc1ccc(cc1)CS(=O)(=O)c2cc3N=C(c4c(N(c3cc2)C)cc5c(c4)C(CCC5(C)C)(C)C)c6ccc(cc6)C([O-])=O

>  <source>
REALspace_2019-12

>  <similarity-descriptor>
0.0;0.998;0.875;0.852;0.976;0.660;0.950;1.000;1.000;0.976;0.0;0.0;0.995;0.910;0.0

>  <similarity-descriptor-smiles>
;c1ccccc1;c1ccc(cc1)C;Cc1ccccc1;c1CCCNc1;NC=1NC=NN1;C;S(=O)=O;C;c1CCCNc1;;;C;[N+]([O-])=O;

>  <reaction-name>
m_273170

>  <reagent1-name>
10757270

>  <reagent1-smiles>
[R2*]=C([R1*])N([R3*])Cc1cc2c(N(CCC2)C)cc1

>  <reagent2-name>
10763676

>  <reagent2-smiles>
[R1*]N(Cc1ccc(S(=O)(=O)C)cc1)C

>  <reagent3-name>
10755794

>  <reagent3-smiles>
[R2*]=NN=C([R3*])c1cc([N+]([O-])=O)ccc1

$$$$
s_1____86402____14589724____4065724
          04022017333D 1   1.00000     0.00000     0
            
 70 75  0  0  0  0            999 V2000
    3.3172    3.5669    2.4298 S   0  0  0  0  0  0  0  0  0  0  0  0
    4.2425    2.1363    2.4399 C   0  0  0  0  0  0  0  0  0  0  0  0
    5.5084    2.0468    2.4336 N   0  0  0  0  0  0  0  0  0  0  0  0
    6.2845    3.1294    2.0026 C   0  0  0  0  0  0  0  0  0  0  0  0
    7.1126    2.9833    0.8949 C   0  0  0  0  0  0  0  0  0  0  0  0
    7.1633    1.8207    0.2514 F   0  0  0  0  0  0  0  0  0  0  0  0
    7.8905    4.0482    0.4523 C   0  0  0  0  0  0  0  0  0  0  0  0
    7.8272    5.2587    1.1341 C   0  0  0  0  0  0  0  0  0  0  0  0
    7.0012    5.4090    2.2428 C   0  0  0  0  0  0  0  0  0  0  0  0
    6.2248    4.3422    2.6813 C   0  0  0  0  0  0  0  0  0  0  0  0
    3.3431    1.1160    2.4596 N   0  0  0  0  0  0  0  0  0  0  0  0
    3.7491   -0.1708    2.4697 N   0  0  0  0  0  0  0  0  0  0  0  0
    3.9475   -0.7551    3.5568 C   0  0  0  0  0  0  0  0  0  0  0  0
    4.3832   -2.1361    3.5676 C   0  0  0  0  0  0  0  0  0  0  0  0
    4.5749   -2.7936    2.3583 C   0  0  0  0  0  0  0  0  0  0  0  0
    4.9960   -4.1127    2.4119 C   0  0  0  0  0  0  0  0  0  0  0  0
    5.2166   -4.7643    3.6070 C   0  0  0  0  0  0  0  0  0  0  0  0
    5.0196   -4.0951    4.8113 C   0  0  0  0  0  0  0  0  0  0  0  0
    4.5994   -2.7707    4.7845 C   0  0  0  0  0  0  0  0  0  0  0  0
    5.6670   -6.1849    3.3229 C   0  0  0  0  0  0  0  0  0  0  0  0
    6.3111   -5.9735    1.9674 C   0  0  0  0  0  0  0  0  0  0  0  0
    5.3102   -5.0665    1.2839 C   0  0  0  0  0  0  0  0  0  0  0  0
    6.6744   -6.6922    4.3408 C   0  0  0  0  0  0  0  0  0  0  0  0
    4.5026   -7.1633    3.2901 C   0  0  0  0  0  0  0  0  0  0  0  0
    2.0312    1.5170    2.4703 C   0  0  0  0  0  0  0  0  0  0  0  0
    0.9035    0.6188    2.4910 C   0  0  0  0  0  0  0  0  0  0  0  0
   -0.1026    0.8162    3.4305 C   0  0  0  0  0  0  0  0  0  0  0  0
   -1.1942   -0.0458    3.4593 C   0  0  0  0  0  0  0  0  0  0  0  0
   -1.2662   -1.0939    2.5476 C   0  0  0  0  0  0  0  0  0  0  0  0
   -2.3222   -1.9346    2.5669 O   0  0  0  0  0  0  0  0  0  0  0  0
   -2.3949   -3.0043    1.6359 C   0  0  0  0  0  0  0  0  0  0  0  0
   -3.6731   -3.7935    1.8695 C   0  0  0  0  0  0  0  0  0  0  0  0
   -4.8371   -3.4346    1.1977 C   0  0  0  0  0  0  0  0  0  0  0  0
   -6.0047   -4.1589    1.4151 C   0  0  0  0  0  0  0  0  0  0  0  0
   -6.0022   -5.2339    2.2977 C   0  0  0  0  0  0  0  0  0  0  0  0
   -4.8335   -5.5837    2.9628 C   0  0  0  0  0  0  0  0  0  0  0  0
   -3.6597   -4.8669    2.7546 C   0  0  0  0  0  0  0  0  0  0  0  0
   -0.2593   -1.2910    1.6082 C   0  0  0  0  0  0  0  0  0  0  0  0
    0.8324   -0.4296    1.5795 C   0  0  0  0  0  0  0  0  0  0  0  0
    1.7728    2.8524    2.4604 C   0  0  0  0  0  0  0  0  0  0  0  0
    8.4863    3.9448   -0.3441 H   0  0  0  0  0  0  0  0  0  0  0  0
    8.3823    6.0303    0.8234 H   0  0  0  0  0  0  0  0  0  0  0  0
    6.9656    6.2845    2.7247 H   0  0  0  0  0  0  0  0  0  0  0  0
    5.6287    4.4458    3.4775 H   0  0  0  0  0  0  0  0  0  0  0  0
    3.8053   -0.2689    4.4190 H   0  0  0  0  0  0  0  0  0  0  0  0
    4.4154   -2.3335    1.4849 H   0  0  0  0  0  0  0  0  0  0  0  0
    5.1779   -4.5600    5.6824 H   0  0  0  0  0  0  0  0  0  0  0  0
    4.4528   -2.2748    5.6405 H   0  0  0  0  0  0  0  0  0  0  0  0
    6.4143   -6.8378    1.4750 H   0  0  0  0  0  0  0  0  0  0  0  0
    7.2035   -5.5306    2.0539 H   0  0  0  0  0  0  0  0  0  0  0  0
    5.7140   -4.5934    0.5009 H   0  0  0  0  0  0  0  0  0  0  0  0
    4.4980   -5.5689    0.9872 H   0  0  0  0  0  0  0  0  0  0  0  0
    6.9385   -7.6287    4.1102 H   0  0  0  0  0  0  0  0  0  0  0  0
    7.4839   -6.1052    4.3297 H   0  0  0  0  0  0  0  0  0  0  0  0
    6.2638   -6.6766    5.2525 H   0  0  0  0  0  0  0  0  0  0  0  0
    4.8455   -8.0833    3.1005 H   0  0  0  0  0  0  0  0  0  0  0  0
    4.0369   -7.1569    4.1751 H   0  0  0  0  0  0  0  0  0  0  0  0
    3.8600   -6.8927    2.5733 H   0  0  0  0  0  0  0  0  0  0  0  0
   -0.0419    1.5730    4.0813 H   0  0  0  0  0  0  0  0  0  0  0  0
   -1.9227    0.0872    4.1314 H   0  0  0  0  0  0  0  0  0  0  0  0
   -1.6051   -3.6056    1.7567 H   0  0  0  0  0  0  0  0  0  0  0  0
   -2.3951   -2.6372    0.7057 H   0  0  0  0  0  0  0  0  0  0  0  0
   -4.8345   -2.6617    0.5633 H   0  0  0  0  0  0  0  0  0  0  0  0
   -6.8459   -3.9067    0.9368 H   0  0  0  0  0  0  0  0  0  0  0  0
   -6.8414   -5.7550    2.4535 H   0  0  0  0  0  0  0  0  0  0  0  0
   -4.8363   -6.3572    3.5966 H   0  0  0  0  0  0  0  0  0  0  0  0
   -2.8190   -5.1194    3.2337 H   0  0  0  0  0  0  0  0  0  0  0  0
   -0.3201   -2.0477    0.9573 H   0  0  0  0  0  0  0  0  0  0  0  0
    1.5613   -0.5630    0.9080 H   0  0  0  0  0  0  0  0  0  0  0  0
    0.8828    3.3082    2.4691 H   0  0  0  0  0  0  0  0  0  0  0  0
  1  2  1  0  0  0  0
  2  3  2  0  0  0  0
  3  4  1  0  0  0  0
  4  5  1  0  0  0  0
  5  6  1  0  0  0  0
  5  7  2  0  0  0  0
  7  8  1  0  0  0  0
  8  9  2  0  0  0  0
  9 10  1  0  0  0  0
 10  4  2  0  0  0  0
  2 11  1  0  0  0  0
 11 12  1  0  0  0  0
 12 13  2  0  0  0  0
 13 14  1  0  0  0  0
 14 15  1  0  0  0  0
 15 16  2  0  0  0  0
 16 17  1  0  0  0  0
 17 18  2  0  0  0  0
 18 19  1  0  0  0  0
 19 14  2  0  0  0  0
 17 20  1  0  0  0  0
 20 21  1  0  0  0  0
 21 22  1  0  0  0  0
 22 16  1  0  0  0  0
 20 23  1  0  0  0  0
 20 24  1  0  0  0  0
 11 25  1  0  0  0  0
 25 26  1  0  0  0  0
 26 27  1  0  0  0  0
 27 28  2  0  0  0  0
 28 29  1  0  0  0  0
 29 30  1  0  0  0  0
 30 31  1  0  0  0  0
 31 32  1  0  0  0  0
 32 33  1  0  0  0  0
 33 34  2  0  0  0  0
 34 35  1  0  0  0  0
 35 36  2  0  0  0  0
 36 37  1  0  0  0  0
 37 32  2  0  0  0  0
 29 38  2  0  0  0  0
 38 39  1  0  0  0  0
 39 26  2  0  0  0  0
 25 40  2  0  0  0  0
 40  1  1  0  0  0  0
  7 41  1  0  0  0  0
  8 42  1  0  0  0  0
  9 43  1  0  0  0  0
 10 44  1  0  0  0  0
 13 45  1  0  0  0  0
 15 46  1  0  0  0  0
 18 47  1  0  0  0  0
 19 48  1  0  0  0  0
 21 49  1  0  0  0  0
 21 50  1  0  0  0  0
 22 51  1  0  0  0  0
 22 52  1  0  0  0  0
 23 53  1  0  0  0  0
 23 54  1  0  0  0  0
 23 55  1  0  0  0  0
 24 56  1  0  0  0  0
 24 57  1  0  0  0  0
 24 58  1  0  0  0  0
 27 59  1  0  0  0  0
 28 60  1  0  0  0  0
 31 61  1  0  0  0  0
 31 62  1  0  0  0  0
 33 63  1  0  0  0  0
 34 64  1  0  0  0  0
 35 65  1  0  0  0  0
 36 66  1  0  0  0  0
 37 67  1  0  0  0  0
 38 68  1  0  0  0  0
 39 69  1  0  0  0  0
 40 70  1  0  0  0  0
M  END
>  <result-rank>
19

>  <similarity>
0.864

>  <query-name>


>  <query-smiles>
Clc1ccc(cc1)CS(=O)(=O)c2cc3N=C(c4c(N(c3cc2)C)cc5c(c4)C(CCC5(C)C)(C)C)c6ccc(cc6)C([O-])=O

>  <source>
REALspace_2019-12

>  <similarity-descriptor>
0.952;0.890;0.937;0.926;0.986;0.779;0.540;0.540;0.0;0.0;0.0;1.000;1.000;0.0;0.0

>  <similarity-descriptor-smiles>
c1ccccc1;Nc1ccccc1F;c1ccccc1;c1ccccc1;c1CCCc1;S1C=CN(C1)N=C;OC;OC;;;;C;C;;

>  <reaction-name>
s_1

>  <reagent1-name>
86402

>  <reagent1-smiles>
[R3*]=NN([R2*])C(S[R1*])=Nc1c(F)cccc1

>  <reagent2-name>
14589724

>  <reagent2-smiles>
[R3*]=Cc1cc2c(cc1)C(CC2)(C)C

>  <reagent3-name>
4065724

>  <reagent3-smiles>
[R2*]C(c1ccc(OCc2ccccc2)cc1)=C[R1*]

$$$$
s_42a____8624704____125253
          04022017333D 1   1.00000     0.00000     0
            
 52 57  0  0  0  0            999 V2000
    3.4021    3.5921    2.4874 S   0  0  0  0  0  0  0  0  0  0  0  0
    4.2322    2.1139    2.4839 C   0  0  0  0  0  0  0  0  0  0  0  0
    5.5627    2.1935    2.4661 N   0  0  0  0  0  0  0  0  0  0  0  0
    6.2010    1.0219    2.4596 C   0  0  0  0  0  0  0  0  0  0  0  0
    5.4817   -0.1706    2.4691 C   0  0  0  0  0  0  0  0  0  0  0  0
    4.0879   -0.1443    2.4870 C   0  0  0  0  0  0  0  0  0  0  0  0
    3.3838   -1.4122    2.4907 C   0  0  0  0  0  0  0  0  0  0  0  0
    2.9304   -1.9930    1.3093 C   0  0  0  0  0  0  0  0  0  0  0  0
    2.2583   -3.2105    1.3461 C   0  0  0  0  0  0  0  0  0  0  0  0
    2.0434   -3.8397    2.5682 C   0  0  0  0  0  0  0  0  0  0  0  0
    2.4938   -3.2628    3.7514 C   0  0  0  0  0  0  0  0  0  0  0  0
    3.1656   -2.0452    3.7100 C   0  0  0  0  0  0  0  0  0  0  0  0
    1.3092   -5.1703    2.6096 C   0  0  0  0  0  0  0  0  0  0  0  0
    3.1519   -1.3267   -0.0391 C   0  0  0  0  0  0  0  0  0  0  0  0
    3.3623    1.0487    2.4963 C   0  0  0  0  0  0  0  0  0  0  0  0
    2.0148    1.5017    2.5467 C   0  0  0  0  0  0  0  0  0  0  0  0
    1.8835    2.8345    2.5194 C   0  0  0  0  0  0  0  0  0  0  0  0
    0.4720    3.3942    2.5657 C   0  0  0  0  0  0  0  0  0  0  0  0
   -0.3455    2.1334    2.3395 C   0  0  0  0  0  0  0  0  0  0  0  0
    0.5887    0.9795    2.6492 C   0  0  0  0  0  0  0  0  0  0  0  0
    7.6479    0.9958    2.4498 C   0  0  0  0  0  0  0  0  0  0  0  0
    8.3963    0.4010    3.5022 C   0  0  0  0  0  0  0  0  0  0  0  0
    7.7939   -0.1004    4.4384 O   0  0  0  0  0  0  0  0  0  0  0  0
    9.7180    0.3927    3.4655 O   0  0  0  0  0  0  0  0  0  0  0  0
   10.3964    0.9279    2.4644 C   0  0  0  0  0  0  0  0  0  0  0  0
    9.7372    1.5288    1.3961 C   0  0  0  0  0  0  0  0  0  0  0  0
   10.4281    2.0989    0.3317 C   0  0  0  0  0  0  0  0  0  0  0  0
   11.8184    2.0674    0.3353 C   0  0  0  0  0  0  0  0  0  0  0  0
   12.4982    1.4715    1.3932 C   0  0  0  0  0  0  0  0  0  0  0  0
   11.7871    0.9075    2.4474 C   0  0  0  0  0  0  0  0  0  0  0  0
    8.3180    1.5602    1.3960 C   0  0  0  0  0  0  0  0  0  0  0  0
    5.9651   -1.0460    2.4631 H   0  0  0  0  0  0  0  0  0  0  0  0
    1.9317   -3.6307    0.4995 H   0  0  0  0  0  0  0  0  0  0  0  0
    2.3357   -3.7205    4.6263 H   0  0  0  0  0  0  0  0  0  0  0  0
    3.4916   -1.6251    4.5568 H   0  0  0  0  0  0  0  0  0  0  0  0
    1.2396   -5.4833    3.5568 H   0  0  0  0  0  0  0  0  0  0  0  0
    0.3919   -5.0569    2.2278 H   0  0  0  0  0  0  0  0  0  0  0  0
    1.8131   -5.8460    2.0714 H   0  0  0  0  0  0  0  0  0  0  0  0
    2.7563   -1.8950   -0.7607 H   0  0  0  0  0  0  0  0  0  0  0  0
    2.7121   -0.4286   -0.0434 H   0  0  0  0  0  0  0  0  0  0  0  0
    4.1328   -1.2184   -0.2003 H   0  0  0  0  0  0  0  0  0  0  0  0
    0.3192    4.0662    1.8412 H   0  0  0  0  0  0  0  0  0  0  0  0
    0.2701    3.8089    3.4530 H   0  0  0  0  0  0  0  0  0  0  0  0
   -0.6571    2.0852    1.3905 H   0  0  0  0  0  0  0  0  0  0  0  0
   -1.1364    2.1159    2.9513 H   0  0  0  0  0  0  0  0  0  0  0  0
    0.4157    0.6393    3.5735 H   0  0  0  0  0  0  0  0  0  0  0  0
    0.4479    0.2406    1.9902 H   0  0  0  0  0  0  0  0  0  0  0  0
    9.9322    2.5252   -0.4249 H   0  0  0  0  0  0  0  0  0  0  0  0
   12.3297    2.4730   -0.4224 H   0  0  0  0  0  0  0  0  0  0  0  0
   13.4980    1.4486    1.3956 H   0  0  0  0  0  0  0  0  0  0  0  0
   12.2829    0.4813    3.2040 H   0  0  0  0  0  0  0  0  0  0  0  0
    7.8173    1.9855    0.6421 H   0  0  0  0  0  0  0  0  0  0  0  0
  1  2  1  0  0  0  0
  2  3  1  0  0  0  0
  3  4  2  0  0  0  0
  4  5  1  0  0  0  0
  5  6  2  0  0  0  0
  6  7  1  0  0  0  0
  7  8  1  0  0  0  0
  8  9  2  0  0  0  0
  9 10  1  0  0  0  0
 10 11  2  0  0  0  0
 11 12  1  0  0  0  0
 12  7  2  0  0  0  0
 10 13  1  0  0  0  0
  8 14  1  0  0  0  0
  6 15  1  0  0  0  0
 15  2  2  0  0  0  0
 15 16  1  0  0  0  0
 16 17  2  0  0  0  0
 17  1  1  0  0  0  0
 17 18  1  0  0  0  0
 18 19  1  0  0  0  0
 19 20  1  0  0  0  0
 20 16  1  0  0  0  0
  4 21  1  0  0  0  0
 21 22  1  0  0  0  0
 22 23  2  0  0  0  0
 22 24  1  0  0  0  0
 24 25  1  0  0  0  0
 25 26  1  0  0  0  0
 26 27  2  0  0  0  0
 27 28  1  0  0  0  0
 28 29  2  0  0  0  0
 29 30  1  0  0  0  0
 30 25  2  0  0  0  0
 26 31  1  0  0  0  0
 21 31  2  0  0  0  0
  5 32  1  0  0  0  0
  9 33  1  0  0  0  0
 11 34  1  0  0  0  0
 12 35  1  0  0  0  0
 13 36  1  0  0  0  0
 13 37  1  0  0  0  0
 13 38  1  0  0  0  0
 14 39  1  0  0  0  0
 14 40  1  0  0  0  0
 14 41  1  0  0  0  0
 18 42  1  0  0  0  0
 18 43  1  0  0  0  0
 19 44  1  0  0  0  0
 19 45  1  0  0  0  0
 20 46  1  0  0  0  0
 20 47  1  0  0  0  0
 27 48  1  0  0  0  0
 28 49  1  0  0  0  0
 29 50  1  0  0  0  0
 30 51  1  0  0  0  0
 31 52  1  0  0  0  0
M  END
>  <result-rank>
20

>  <similarity>
0.861

>  <query-name>


>  <query-smiles>
Clc1ccc(cc1)CS(=O)(=O)c2cc3N=C(c4c(N(c3cc2)C)cc5c(c4)C(CCC5(C)C)(C)C)c6ccc(cc6)C([O-])=O

>  <source>
REALspace_2019-12

>  <similarity-descriptor>
0.952;0.954;0.819;0.830;0.965;0.855;0.819;0.819;0.0;0.965;0.0;0.0;0.0;0.0;0.250

>  <similarity-descriptor-smiles>
c1ccccc1;c1ccccc1;C1=CccOC1=O;S1C=Ccc1;C=1CCCC1;c1ccccn1;C1=CccOC1=O;C1=CccOC1=O;;C=1CCCC1;;;;;C.C

>  <reaction-name>
s_42a

>  <reagent1-name>
8624704

>  <reagent1-smiles>
[R1*]=NC=1SC2=C(C1C(=[R2*])c3c(cc(cc3)C)C)CCC2

>  <reagent2-name>
125253

>  <reagent2-smiles>
[R1*]=C(C=1C(=O)Oc2c(cccc2)C1)C=[R2*]

$$$$
s_1____86402____10429790____9284806
          04022017333D 1   1.00000     0.00000     0
            
 67 73  0  0  0  0            999 V2000
    3.3172    3.5669    2.4298 S   0  0  0  0  0  0  0  0  0  0  0  0
    4.2425    2.1363    2.4399 C   0  0  0  0  0  0  0  0  0  0  0  0
    5.5084    2.0468    2.4336 N   0  0  0  0  0  0  0  0  0  0  0  0
    6.2845    3.1294    2.0026 C   0  0  0  0  0  0  0  0  0  0  0  0
    7.1126    2.9833    0.8949 C   0  0  0  0  0  0  0  0  0  0  0  0
    7.1633    1.8207    0.2514 F   0  0  0  0  0  0  0  0  0  0  0  0
    7.8905    4.0482    0.4523 C   0  0  0  0  0  0  0  0  0  0  0  0
    7.8272    5.2587    1.1341 C   0  0  0  0  0  0  0  0  0  0  0  0
    7.0012    5.4090    2.2428 C   0  0  0  0  0  0  0  0  0  0  0  0
    6.2248    4.3422    2.6813 C   0  0  0  0  0  0  0  0  0  0  0  0
    3.3431    1.1160    2.4596 N   0  0  0  0  0  0  0  0  0  0  0  0
    3.7491   -0.1708    2.4697 N   0  0  0  0  0  0  0  0  0  0  0  0
    3.9268   -0.7786    1.3919 C   0  0  0  0  0  0  0  0  0  0  0  0
    4.3621   -2.1581    1.4028 C   0  0  0  0  0  0  0  0  0  0  0  0
    4.5466   -2.7934    0.1823 C   0  0  0  0  0  0  0  0  0  0  0  0
    4.9815   -4.1139    0.1795 C   0  0  0  0  0  0  0  0  0  0  0  0
    5.2021   -4.7792    1.3812 C   0  0  0  0  0  0  0  0  0  0  0  0
    5.0120   -4.1379    2.5990 C   0  0  0  0  0  0  0  0  0  0  0  0
    4.5898   -2.8143    2.6061 C   0  0  0  0  0  0  0  0  0  0  0  0
    5.6398   -6.2313    1.4114 C   0  0  0  0  0  0  0  0  0  0  0  0
    6.2437   -6.6531    0.0825 C   0  0  0  0  0  0  0  0  0  0  0  0
    5.2474   -6.3053   -1.0136 C   0  0  0  0  0  0  0  0  0  0  0  0
    5.2206   -4.7906   -1.1603 C   0  0  0  0  0  0  0  0  0  0  0  0
    2.0312    1.5170    2.4703 C   0  0  0  0  0  0  0  0  0  0  0  0
    0.8969    0.6136    2.4912 C   0  0  0  0  0  0  0  0  0  0  0  0
   -0.0341    0.6413    1.4575 C   0  0  0  0  0  0  0  0  0  0  0  0
    0.0960    1.5293    0.3829 N   0  0  0  0  0  0  0  0  0  0  0  0
    0.9308    1.3563   -0.7174 C   0  0  0  0  0  0  0  0  0  0  0  0
    1.6698    0.4032   -0.8992 O   0  0  0  0  0  0  0  0  0  0  0  0
    0.7727    2.4911   -1.5949 C   0  0  0  0  0  0  0  0  0  0  0  0
   -0.1416    3.3216   -1.0017 C   0  0  0  0  0  0  0  0  0  0  0  0
   -0.4377    4.4997   -1.6800 C   0  0  0  0  0  0  0  0  0  0  0  0
    0.1676    4.8059   -2.8935 C   0  0  0  0  0  0  0  0  0  0  0  0
    1.0923    3.9372   -3.4640 C   0  0  0  0  0  0  0  0  0  0  0  0
    1.4078    2.7549   -2.8024 C   0  0  0  0  0  0  0  0  0  0  0  0
   -0.5913    2.7303    0.2362 C   0  0  0  0  0  0  0  0  0  0  0  0
   -1.4158    3.2051    1.0007 O   0  0  0  0  0  0  0  0  0  0  0  0
   -1.1214   -0.2252    1.4775 C   0  0  0  0  0  0  0  0  0  0  0  0
   -1.2787   -1.1199    2.5312 C   0  0  0  0  0  0  0  0  0  0  0  0
   -0.3482   -1.1478    3.5649 C   0  0  0  0  0  0  0  0  0  0  0  0
    0.7392   -0.2805    3.5453 C   0  0  0  0  0  0  0  0  0  0  0  0
    1.7728    2.8524    2.4604 C   0  0  0  0  0  0  0  0  0  0  0  0
    8.4863    3.9448   -0.3441 H   0  0  0  0  0  0  0  0  0  0  0  0
    8.3823    6.0303    0.8234 H   0  0  0  0  0  0  0  0  0  0  0  0
    6.9656    6.2845    2.7247 H   0  0  0  0  0  0  0  0  0  0  0  0
    5.6287    4.4458    3.4775 H   0  0  0  0  0  0  0  0  0  0  0  0
    3.7681   -0.3112    0.5223 H   0  0  0  0  0  0  0  0  0  0  0  0
    4.3706   -2.3116   -0.6762 H   0  0  0  0  0  0  0  0  0  0  0  0
    5.1767   -4.6221    3.4583 H   0  0  0  0  0  0  0  0  0  0  0  0
    4.4504   -2.3362    3.4733 H   0  0  0  0  0  0  0  0  0  0  0  0
    4.8456   -6.8070    1.6058 H   0  0  0  0  0  0  0  0  0  0  0  0
    6.3225   -6.3509    2.1322 H   0  0  0  0  0  0  0  0  0  0  0  0
    6.4165   -7.6381    0.0849 H   0  0  0  0  0  0  0  0  0  0  0  0
    7.1026   -6.1645   -0.0710 H   0  0  0  0  0  0  0  0  0  0  0  0
    5.5310   -6.7249   -1.8758 H   0  0  0  0  0  0  0  0  0  0  0  0
    4.3381   -6.6383   -0.7640 H   0  0  0  0  0  0  0  0  0  0  0  0
    6.0976   -4.4830   -1.5294 H   0  0  0  0  0  0  0  0  0  0  0  0
    4.4864   -4.5367   -1.7899 H   0  0  0  0  0  0  0  0  0  0  0  0
   -1.0989    5.1387   -1.2870 H   0  0  0  0  0  0  0  0  0  0  0  0
   -0.0640    5.6591   -3.3609 H   0  0  0  0  0  0  0  0  0  0  0  0
    1.5244    4.1597   -4.3380 H   0  0  0  0  0  0  0  0  0  0  0  0
    2.0725    2.1131   -3.1848 H   0  0  0  0  0  0  0  0  0  0  0  0
   -1.7904   -0.2052    0.7345 H   0  0  0  0  0  0  0  0  0  0  0  0
   -2.0608   -1.7430    2.5456 H   0  0  0  0  0  0  0  0  0  0  0  0
   -0.4610   -1.7912    4.3220 H   0  0  0  0  0  0  0  0  0  0  0  0
    1.4075   -0.2998    4.2889 H   0  0  0  0  0  0  0  0  0  0  0  0
    0.8828    3.3082    2.4691 H   0  0  0  0  0  0  0  0  0  0  0  0
  1  2  1  0  0  0  0
  2  3  2  0  0  0  0
  3  4  1  0  0  0  0
  4  5  1  0  0  0  0
  5  6  1  0  0  0  0
  5  7  2  0  0  0  0
  7  8  1  0  0  0  0
  8  9  2  0  0  0  0
  9 10  1  0  0  0  0
 10  4  2  0  0  0  0
  2 11  1  0  0  0  0
 11 12  1  0  0  0  0
 12 13  2  0  0  0  0
 13 14  1  0  0  0  0
 14 15  1  0  0  0  0
 15 16  2  0  0  0  0
 16 17  1  0  0  0  0
 17 18  2  0  0  0  0
 18 19  1  0  0  0  0
 19 14  2  0  0  0  0
 17 20  1  0  0  0  0
 20 21  1  0  0  0  0
 21 22  1  0  0  0  0
 22 23  1  0  0  0  0
 23 16  1  0  0  0  0
 11 24  1  0  0  0  0
 24 25  1  0  0  0  0
 25 26  1  0  0  0  0
 26 27  1  0  0  0  0
 27 28  1  0  0  0  0
 28 29  2  0  0  0  0
 28 30  1  0  0  0  0
 30 31  1  0  0  0  0
 31 32  2  0  0  0  0
 32 33  1  0  0  0  0
 33 34  2  0  0  0  0
 34 35  1  0  0  0  0
 35 30  2  0  0  0  0
 31 36  1  0  0  0  0
 36 27  1  0  0  0  0
 36 37  2  0  0  0  0
 26 38  2  0  0  0  0
 38 39  1  0  0  0  0
 39 40  2  0  0  0  0
 40 41  1  0  0  0  0
 41 25  2  0  0  0  0
 24 42  2  0  0  0  0
 42  1  1  0  0  0  0
  7 43  1  0  0  0  0
  8 44  1  0  0  0  0
  9 45  1  0  0  0  0
 10 46  1  0  0  0  0
 13 47  1  0  0  0  0
 15 48  1  0  0  0  0
 18 49  1  0  0  0  0
 19 50  1  0  0  0  0
 20 51  1  0  0  0  0
 20 52  1  0  0  0  0
 21 53  1  0  0  0  0
 21 54  1  0  0  0  0
 22 55  1  0  0  0  0
 22 56  1  0  0  0  0
 23 57  1  0  0  0  0
 23 58  1  0  0  0  0
 32 59  1  0  0  0  0
 33 60  1  0  0  0  0
 34 61  1  0  0  0  0
 35 62  1  0  0  0  0
 38 63  1  0  0  0  0
 39 64  1  0  0  0  0
 40 65  1  0  0  0  0
 41 66  1  0  0  0  0
 42 67  1  0  0  0  0
M  END
>  <result-rank>
21

>  <similarity>
0.861

>  <query-name>


>  <query-smiles>
Clc1ccc(cc1)CS(=O)(=O)c2cc3N=C(c4c(N(c3cc2)C)cc5c(c4)C(CCC5(C)C)(C)C)c6ccc(cc6)C([O-])=O

>  <source>
REALspace_2019-12

>  <similarity-descriptor>
0.951;0.890;0.938;0.926;0.961;0.779;0.705;0.705;0.0;0.961;0.961;0.0;0.0;0.0;0.0

>  <similarity-descriptor-smiles>
c1ccccc1;Nc1ccccc1F;c1ccccc1;c1ccccc1;c1CCCCc1;S1C=CN(C1)N=C;N1C(ccC1=O)=O;N1C(ccC1=O)=O;;c1CCCCc1;c1CCCCc1;;;;

>  <reaction-name>
s_1

>  <reagent1-name>
86402

>  <reagent1-smiles>
[R3*]=NN([R2*])C(S[R1*])=Nc1c(F)cccc1

>  <reagent2-name>
10429790

>  <reagent2-smiles>
[R3*]=Cc1cc2c(cc1)CCCC2

>  <reagent3-name>
9284806

>  <reagent3-smiles>
[R2*]C(c1c(N2C(=O)c3c(cccc3)C2=O)cccc1)=C[R1*]

$$$$
s_270196____17626302____8772290
          04022017333D 1   1.00000     0.00000     0
            
 56 59  0  0  0  0            999 V2000
   -2.8683    6.3429    2.5805 Cl  0  0  0  0  0  0  0  0  0  0  0  0
   -1.4095    5.3240    2.5624 C   0  0  0  0  0  0  0  0  0  0  0  0
   -1.5312    3.9377    2.5672 C   0  0  0  0  0  0  0  0  0  0  0  0
   -3.1027    3.1909    2.5912 S   0  0  0  0  0  0  0  0  0  0  0  0
   -3.8108    3.6006    3.7762 O   0  0  0  0  0  0  0  0  0  0  0  0
   -3.8442    3.5954    1.4250 O   0  0  0  0  0  0  0  0  0  0  0  0
   -2.9338    1.5697    2.5924 N   0  0  0  0  0  0  0  0  0  0  0  0
   -3.0537    0.8542    3.7901 C   0  0  0  0  0  0  0  0  0  0  0  0
   -4.3010    0.3798    4.1818 C   0  0  0  0  0  0  0  0  0  0  0  0
   -4.4281   -0.3316    5.3700 C   0  0  0  0  0  0  0  0  0  0  0  0
   -3.3014   -0.5602    6.1529 C   0  0  0  0  0  0  0  0  0  0  0  0
   -3.4557   -1.4704    7.6744 Cl  0  0  0  0  0  0  0  0  0  0  0  0
   -2.0513   -0.0889    5.7664 C   0  0  0  0  0  0  0  0  0  0  0  0
   -1.9313    0.6220    4.5771 C   0  0  0  0  0  0  0  0  0  0  0  0
   -2.6556    0.8587    1.3362 C   0  0  0  0  0  0  0  0  0  0  0  0
   -0.3949    3.1345    2.5522 C   0  0  0  0  0  0  0  0  0  0  0  0
    0.8611    3.7331    2.5327 C   0  0  0  0  0  0  0  0  0  0  0  0
    0.9922    5.1183    2.5277 C   0  0  0  0  0  0  0  0  0  0  0  0
   -0.1495    5.9140    2.5424 C   0  0  0  0  0  0  0  0  0  0  0  0
    2.0463    2.8968    2.5180 C   0  0  0  0  0  0  0  0  0  0  0  0
    3.2848    3.3259    2.4991 O   0  0  0  0  0  0  0  0  0  0  0  0
    4.0764    2.3360    2.4914 N   0  0  0  0  0  0  0  0  0  0  0  0
    3.3683    1.2311    2.5037 C   0  0  0  0  0  0  0  0  0  0  0  0
    2.0573    1.5880    2.5200 N   0  0  0  0  0  0  0  0  0  0  0  0
    3.8900   -0.1218    2.4978 C   0  0  0  0  0  0  0  0  0  0  0  0
    3.0075   -1.1968    2.5127 C   0  0  0  0  0  0  0  0  0  0  0  0
    3.5042   -2.4962    2.5063 C   0  0  0  0  0  0  0  0  0  0  0  0
    4.8800   -2.7028    2.4848 C   0  0  0  0  0  0  0  0  0  0  0  0
    5.7633   -1.6279    2.4699 C   0  0  0  0  0  0  0  0  0  0  0  0
    5.2654   -0.3285    2.4764 C   0  0  0  0  0  0  0  0  0  0  0  0
    5.4008   -4.0564    2.4775 C   0  0  0  0  0  0  0  0  0  0  0  0
    6.0870   -4.4304    1.5669 O   0  0  0  0  0  0  0  0  0  0  0  0
    5.1093   -4.9081    3.5103 N   0  0  0  0  0  0  0  0  0  0  0  0
    4.2916   -4.4624    4.5955 O   0  0  0  0  0  0  0  0  0  0  0  0
    4.1340   -5.5168    5.5335 C   0  0  0  0  0  0  0  0  0  0  0  0
    5.6371   -6.2801    3.5029 C   0  0  0  0  0  0  0  0  0  0  0  0
   -5.1042    0.5497    3.6108 H   0  0  0  0  0  0  0  0  0  0  0  0
   -5.3215   -0.6756    5.6590 H   0  0  0  0  0  0  0  0  0  0  0  0
   -1.2479   -0.2592    6.3370 H   0  0  0  0  0  0  0  0  0  0  0  0
   -1.0380    0.9661    4.2880 H   0  0  0  0  0  0  0  0  0  0  0  0
   -2.5828   -0.1220    1.5174 H   0  0  0  0  0  0  0  0  0  0  0  0
   -3.3991    1.0237    0.6882 H   0  0  0  0  0  0  0  0  0  0  0  0
   -1.7957    1.1909    0.9486 H   0  0  0  0  0  0  0  0  0  0  0  0
   -0.4800    2.1381    2.5555 H   0  0  0  0  0  0  0  0  0  0  0  0
    1.8995    5.5387    2.5137 H   0  0  0  0  0  0  0  0  0  0  0  0
   -0.0643    6.9104    2.5386 H   0  0  0  0  0  0  0  0  0  0  0  0
    2.0205   -1.0364    2.5279 H   0  0  0  0  0  0  0  0  0  0  0  0
    2.8777   -3.2754    2.5172 H   0  0  0  0  0  0  0  0  0  0  0  0
    6.7502   -1.7882    2.4547 H   0  0  0  0  0  0  0  0  0  0  0  0
    5.8918    0.4509    2.4658 H   0  0  0  0  0  0  0  0  0  0  0  0
    3.5622   -5.2051    6.2924 H   0  0  0  0  0  0  0  0  0  0  0  0
    3.6982   -6.2981    5.0867 H   0  0  0  0  0  0  0  0  0  0  0  0
    5.0307   -5.7897    5.8820 H   0  0  0  0  0  0  0  0  0  0  0  0
    6.1838   -6.4224    2.6778 H   0  0  0  0  0  0  0  0  0  0  0  0
    6.2095   -6.4214    4.3106 H   0  0  0  0  0  0  0  0  0  0  0  0
    4.8770   -6.9297    3.5153 H   0  0  0  0  0  0  0  0  0  0  0  0
  1  2  1  0  0  0  0
  2  3  1  0  0  0  0
  3  4  1  0  0  0  0
  4  5  2  0  0  0  0
  4  6  2  0  0  0  0
  4  7  1  0  0  0  0
  7  8  1  0  0  0  0
  8  9  1  0  0  0  0
  9 10  2  0  0  0  0
 10 11  1  0  0  0  0
 11 12  1  0  0  0  0
 11 13  2  0  0  0  0
 13 14  1  0  0  0  0
 14  8  2  0  0  0  0
  7 15  1  0  0  0  0
  3 16  2  0  0  0  0
 16 17  1  0  0  0  0
 17 18  2  0  0  0  0
 18 19  1  0  0  0  0
 19  2  2  0  0  0  0
 17 20  1  0  0  0  0
 20 21  1  0  0  0  0
 21 22  1  0  0  0  0
 22 23  2  0  0  0  0
 23 24  1  0  0  0  0
 20 24  2  0  0  0  0
 23 25  1  0  0  0  0
 25 26  1  0  0  0  0
 26 27  2  0  0  0  0
 27 28  1  0  0  0  0
 28 29  2  0  0  0  0
 29 30  1  0  0  0  0
 30 25  2  0  0  0  0
 28 31  1  0  0  0  0
 31 32  2  0  0  0  0
 31 33  1  0  0  0  0
 33 34  1  0  0  0  0
 34 35  1  0  0  0  0
 33 36  1  0  0  0  0
  9 37  1  0  0  0  0
 10 38  1  0  0  0  0
 13 39  1  0  0  0  0
 14 40  1  0  0  0  0
 15 41  1  0  0  0  0
 15 42  1  0  0  0  0
 15 43  1  0  0  0  0
 16 44  1  0  0  0  0
 18 45  1  0  0  0  0
 19 46  1  0  0  0  0
 26 47  1  0  0  0  0
 27 48  1  0  0  0  0
 29 49  1  0  0  0  0
 30 50  1  0  0  0  0
 35 51  1  0  0  0  0
 35 52  1  0  0  0  0
 35 53  1  0  0  0  0
 36 54  1  0  0  0  0
 36 55  1  0  0  0  0
 36 56  1  0  0  0  0
M  END
>  <result-rank>
22

>  <similarity>
0.861

>  <query-name>


>  <query-smiles>
Clc1ccc(cc1)CS(=O)(=O)c2cc3N=C(c4c(N(c3cc2)C)cc5c(c4)C(CCC5(C)C)(C)C)c6ccc(cc6)C([O-])=O

>  <source>
REALspace_2019-12

>  <similarity-descriptor>
0.999;1.000;0.948;0.0;0.0;0.620;0.925;0.997;0.0;0.0;0.0;0.0;0.0;0.989;0.167

>  <similarity-descriptor-smiles>
c1ccc(cc1)Cl;c1ccccc1;Clc1ccccc1;;;C1=NC=NO1;NC;S(=O)=O;;;;;;C(=O)NO;C.C

>  <reaction-name>
s_270196

>  <reagent1-name>
17626302

>  <reagent1-smiles>
[R1*]=NC(=NO[R2*])c1ccc(cc1)C(=O)N(OC)C

>  <reagent2-name>
8772290

>  <reagent2-smiles>
[R1*]C([R2*])c1cc(S(=O)(=O)N(c2ccc(Cl)cc2)C)c(Cl)cc1

$$$$
s_60____90615____14589738
          04022017333D 1   1.00000     0.00000     0
            
 75 80  0  0  0  0            999 V2000
    3.8631    0.3116   -4.7809 O   0  0  0  0  0  0  0  0  0  0  0  0
    3.3717    0.3318   -3.6639 C   0  0  0  0  0  0  0  0  0  0  0  0
    3.5727   -0.6866   -2.7670 N   0  0  0  0  0  0  0  0  0  0  0  0
    3.0108   -0.6420   -1.5167 C   0  0  0  0  0  0  0  0  0  0  0  0
    3.0808   -1.5259   -0.4777 N   0  0  0  0  0  0  0  0  0  0  0  0
    2.3802   -1.0461    0.5236 C   0  0  0  0  0  0  0  0  0  0  0  0
    1.8494    0.1506    0.1506 N   0  0  0  0  0  0  0  0  0  0  0  0
    2.2427    0.4016   -1.1294 C   0  0  0  0  0  0  0  0  0  0  0  0
    2.0346    1.4582   -2.0590 C   0  0  0  0  0  0  0  0  0  0  0  0
    1.3593    2.4376   -1.7906 O   0  0  0  0  0  0  0  0  0  0  0  0
    2.5994    1.4051   -3.3041 N   0  0  0  0  0  0  0  0  0  0  0  0
    1.0000    1.0000    1.0000 C   0  0  0  0  0  0  0  0  0  0  0  0
    1.8776    1.8776    1.8776 C   0  0  0  0  0  0  0  0  0  0  0  0
    1.0003    2.7548    2.7548 C   0  0  0  0  0  0  0  0  0  0  0  0
    0.6077    2.2900    4.0050 C   0  0  0  0  0  0  0  0  0  0  0  0
   -0.1947    3.1009    4.8005 C   0  0  0  0  0  0  0  0  0  0  0  0
   -0.5845    2.6651    6.0173 O   0  0  0  0  0  0  0  0  0  0  0  0
   -0.1759    1.3854    6.4776 C   0  0  0  0  0  0  0  0  0  0  0  0
   -0.5947    4.3544    4.3488 C   0  0  0  0  0  0  0  0  0  0  0  0
   -1.3733    5.1281    5.1357 O   0  0  0  0  0  0  0  0  0  0  0  0
   -1.7875    6.4093    4.6848 C   0  0  0  0  0  0  0  0  0  0  0  0
   -0.1994    4.8162    3.0967 C   0  0  0  0  0  0  0  0  0  0  0  0
    0.6037    4.0067    2.2984 C   0  0  0  0  0  0  0  0  0  0  0  0
    2.2047   -1.6828    1.8086 C   0  0  0  0  0  0  0  0  0  0  0  0
    3.2365   -2.4907    2.2655 C   0  0  0  0  0  0  0  0  0  0  0  0
    3.0310   -3.1068    3.4841 C   0  0  0  0  0  0  0  0  0  0  0  0
    1.8827   -2.9350    4.2216 C   0  0  0  0  0  0  0  0  0  0  0  0
    0.8612   -2.1154    3.7566 C   0  0  0  0  0  0  0  0  0  0  0  0
    1.0359   -1.4832    2.5325 C   0  0  0  0  0  0  0  0  0  0  0  0
    2.0067   -3.7625    5.4841 C   0  0  0  0  0  0  0  0  0  0  0  0
    2.9422   -4.8478    5.0050 C   0  0  0  0  0  0  0  0  0  0  0  0
    3.9556   -4.0497    4.2179 C   0  0  0  0  0  0  0  0  0  0  0  0
    0.6756   -4.3393    5.9381 C   0  0  0  0  0  0  0  0  0  0  0  0
    2.5812   -2.9648    6.6453 C   0  0  0  0  0  0  0  0  0  0  0  0
    4.4064   -1.8282   -3.1719 C   0  0  0  0  0  0  0  0  0  0  0  0
    5.8361   -1.6018   -2.7069 C   0  0  0  0  0  0  0  0  0  0  0  0
    6.7358   -0.9450   -3.5400 C   0  0  0  0  0  0  0  0  0  0  0  0
    8.0432   -0.7407   -3.1109 C   0  0  0  0  0  0  0  0  0  0  0  0
    8.4420   -1.1907   -1.8567 C   0  0  0  0  0  0  0  0  0  0  0  0
    7.5345   -1.8451   -1.0328 C   0  0  0  0  0  0  0  0  0  0  0  0
    6.2245   -2.0561   -1.4505 C   0  0  0  0  0  0  0  0  0  0  0  0
    2.4483    2.1510   -3.9528 H   0  0  0  0  0  0  0  0  0  0  0  0
    0.4226    0.4226    1.5774 H   0  0  0  0  0  0  0  0  0  0  0  0
    0.4226    1.5774    0.4226 H   0  0  0  0  0  0  0  0  0  0  0  0
    2.4549    1.3002    2.4549 H   0  0  0  0  0  0  0  0  0  0  0  0
    2.4549    2.4549    1.3002 H   0  0  0  0  0  0  0  0  0  0  0  0
    0.8971    1.3884    4.3265 H   0  0  0  0  0  0  0  0  0  0  0  0
   -0.5510    1.2241    7.3904 H   0  0  0  0  0  0  0  0  0  0  0  0
   -0.5115    0.6827    5.8503 H   0  0  0  0  0  0  0  0  0  0  0  0
    0.8227    1.3483    6.5162 H   0  0  0  0  0  0  0  0  0  0  0  0
   -2.3536    6.8426    5.3861 H   0  0  0  0  0  0  0  0  0  0  0  0
   -0.9831    6.9766    4.5083 H   0  0  0  0  0  0  0  0  0  0  0  0
   -2.3174    6.3110    3.8425 H   0  0  0  0  0  0  0  0  0  0  0  0
   -0.4887    5.7177    2.7748 H   0  0  0  0  0  0  0  0  0  0  0  0
    0.8955    4.3256    1.3966 H   0  0  0  0  0  0  0  0  0  0  0  0
    4.0794   -2.6191    1.7428 H   0  0  0  0  0  0  0  0  0  0  0  0
    0.0243   -1.9847    4.2881 H   0  0  0  0  0  0  0  0  0  0  0  0
    0.3206   -0.8845    2.1723 H   0  0  0  0  0  0  0  0  0  0  0  0
    2.4672   -5.5087    4.4239 H   0  0  0  0  0  0  0  0  0  0  0  0
    3.3702   -5.3256    5.7721 H   0  0  0  0  0  0  0  0  0  0  0  0
    4.5880   -3.5585    4.8170 H   0  0  0  0  0  0  0  0  0  0  0  0
    4.4743   -4.6270    3.5872 H   0  0  0  0  0  0  0  0  0  0  0  0
    0.8113   -4.8748    6.7717 H   0  0  0  0  0  0  0  0  0  0  0  0
    0.0345   -3.5941    6.1213 H   0  0  0  0  0  0  0  0  0  0  0  0
    0.3053   -4.9286    5.2200 H   0  0  0  0  0  0  0  0  0  0  0  0
    2.6440   -3.5506    7.4533 H   0  0  0  0  0  0  0  0  0  0  0  0
    3.4927   -2.6325    6.4029 H   0  0  0  0  0  0  0  0  0  0  0  0
    1.9845   -2.1871    6.8430 H   0  0  0  0  0  0  0  0  0  0  0  0
    4.3899   -1.9163   -4.1679 H   0  0  0  0  0  0  0  0  0  0  0  0
    4.0496   -2.6652   -2.7572 H   0  0  0  0  0  0  0  0  0  0  0  0
    6.4449   -0.6221   -4.4406 H   0  0  0  0  0  0  0  0  0  0  0  0
    8.6964   -0.2702   -3.7043 H   0  0  0  0  0  0  0  0  0  0  0  0
    9.3816   -1.0433   -1.5479 H   0  0  0  0  0  0  0  0  0  0  0  0
    7.8255   -2.1671   -0.1319 H   0  0  0  0  0  0  0  0  0  0  0  0
    5.5720   -2.5271   -0.8569 H   0  0  0  0  0  0  0  0  0  0  0  0
  1  2  2  0  0  0  0
  2  3  1  0  0  0  0
  3  4  1  0  0  0  0
  4  5  1  0  0  0  0
  5  6  2  0  0  0  0
  6  7  1  0  0  0  0
  7  8  1  0  0  0  0
  4  8  2  0  0  0  0
  8  9  1  0  0  0  0
  9 10  2  0  0  0  0
  9 11  1  0  0  0  0
 11  2  1  0  0  0  0
  7 12  1  0  0  0  0
 12 13  1  0  0  0  0
 13 14  1  0  0  0  0
 14 15  1  0  0  0  0
 15 16  2  0  0  0  0
 16 17  1  0  0  0  0
 17 18  1  0  0  0  0
 16 19  1  0  0  0  0
 19 20  1  0  0  0  0
 20 21  1  0  0  0  0
 19 22  2  0  0  0  0
 22 23  1  0  0  0  0
 23 14  2  0  0  0  0
  6 24  1  0  0  0  0
 24 25  1  0  0  0  0
 25 26  2  0  0  0  0
 26 27  1  0  0  0  0
 27 28  2  0  0  0  0
 28 29  1  0  0  0  0
 29 24  2  0  0  0  0
 27 30  1  0  0  0  0
 30 31  1  0  0  0  0
 31 32  1  0  0  0  0
 32 26  1  0  0  0  0
 30 33  1  0  0  0  0
 30 34  1  0  0  0  0
  3 35  1  0  0  0  0
 35 36  1  0  0  0  0
 36 37  1  0  0  0  0
 37 38  2  0  0  0  0
 38 39  1  0  0  0  0
 39 40  2  0  0  0  0
 40 41  1  0  0  0  0
 41 36  2  0  0  0  0
 11 42  1  0  0  0  0
 12 43  1  0  0  0  0
 12 44  1  0  0  0  0
 13 45  1  0  0  0  0
 13 46  1  0  0  0  0
 15 47  1  0  0  0  0
 18 48  1  0  0  0  0
 18 49  1  0  0  0  0
 18 50  1  0  0  0  0
 21 51  1  0  0  0  0
 21 52  1  0  0  0  0
 21 53  1  0  0  0  0
 22 54  1  0  0  0  0
 23 55  1  0  0  0  0
 25 56  1  0  0  0  0
 28 57  1  0  0  0  0
 29 58  1  0  0  0  0
 31 59  1  0  0  0  0
 31 60  1  0  0  0  0
 32 61  1  0  0  0  0
 32 62  1  0  0  0  0
 33 63  1  0  0  0  0
 33 64  1  0  0  0  0
 33 65  1  0  0  0  0
 34 66  1  0  0  0  0
 34 67  1  0  0  0  0
 34 68  1  0  0  0  0
 35 69  1  0  0  0  0
 35 70  1  0  0  0  0
 37 71  1  0  0  0  0
 38 72  1  0  0  0  0
 39 73  1  0  0  0  0
 40 74  1  0  0  0  0
 41 75  1  0  0  0  0
M  END
>  <result-rank>
23

>  <similarity>
0.861

>  <query-name>


>  <query-smiles>
Clc1ccc(cc1)CS(=O)(=O)c2cc3N=C(c4c(N(c3cc2)C)cc5c(c4)C(CCC5(C)C)(C)C)c6ccc(cc6)C([O-])=O

>  <source>
REALspace_2019-12

>  <similarity-descriptor>
0.952;0.915;0.850;0.926;0.986;0.748;0.996;0.850;0.0;0.0;0.0;1.000;1.000;0.490;0.133

>  <similarity-descriptor-smiles>
c1ccccc1;Cc1ccccc1;O=C1NC(C=CN1)=O;c1ccccc1;c1CCCc1;C1=CN(C=N1)C;C;O=C1NC(C=CN1)=O;;;;C;C;OC;O.C

>  <reaction-name>
s_60

>  <reagent1-name>
90615

>  <reagent1-smiles>
[R1*]C1=NC=2N(C(=O)NC(=O)C2N1CCc3cc(OC)c(OC)cc3)Cc4ccccc4

>  <reagent2-name>
14589738

>  <reagent2-smiles>
[R1*]c1cc2c(cc1)C(CC2)(C)C

$$$$
m_270942____9828420____9830432____9836002
          04022017333D 1   1.00000     0.00000     0
            
 80 85  0  0  0  0            999 V2000
    4.9266   -4.5907   -0.8958 S   0  0  0  0  0  0  0  0  0  0  0  0
    5.8871   -4.8070   -1.9465 O   0  0  0  0  0  0  0  0  0  0  0  0
    5.5764   -4.7200    0.3827 O   0  0  0  0  0  0  0  0  0  0  0  0
    4.2959   -3.0941   -1.0358 N   0  0  0  0  0  0  0  0  0  0  0  0
    3.8650   -2.4068    0.1047 C   0  0  0  0  0  0  0  0  0  0  0  0
    3.4020   -1.1007   -0.0156 C   0  0  0  0  0  0  0  0  0  0  0  0
    2.9767   -0.4278    1.1249 C   0  0  0  0  0  0  0  0  0  0  0  0
    3.0101   -1.0425    2.3720 C   0  0  0  0  0  0  0  0  0  0  0  0
    3.4770   -2.3497    2.4678 C   0  0  0  0  0  0  0  0  0  0  0  0
    3.9072   -3.0419    1.3411 C   0  0  0  0  0  0  0  0  0  0  0  0
    2.4700    1.0000    1.0000 C   0  0  0  0  0  0  0  0  0  0  0  0
    1.0000    1.0000    1.0000 N   0  0  0  0  0  0  0  0  0  0  0  0
    0.2992    1.0000    2.2139 C   0  0  0  0  0  0  0  0  0  0  0  0
    0.6692    1.5596    3.3392 N   0  0  0  0  0  0  0  0  0  0  0  0
   -0.2231    1.3648    4.2845 N   0  0  0  0  0  0  0  0  0  0  0  0
   -1.2065    0.6599    3.7721 C   0  0  0  0  0  0  0  0  0  0  0  0
   -0.9010    0.4177    2.4696 N   0  0  0  0  0  0  0  0  0  0  0  0
   -1.7201   -0.3369    1.5092 C   0  0  0  0  0  0  0  0  0  0  0  0
   -1.4228   -1.8213    1.6461 C   0  0  0  0  0  0  0  0  0  0  0  0
   -2.1753   -2.5900    0.5718 C   0  0  0  0  0  0  0  0  0  0  0  0
   -1.5737   -2.8184   -0.6614 C   0  0  0  0  0  0  0  0  0  0  0  0
   -2.2661   -3.5215   -1.6418 C   0  0  0  0  0  0  0  0  0  0  0  0
   -3.5498   -3.9915   -1.3850 C   0  0  0  0  0  0  0  0  0  0  0  0
   -4.1406   -3.7579   -0.1493 C   0  0  0  0  0  0  0  0  0  0  0  0
   -3.4589   -3.0556    0.8391 C   0  0  0  0  0  0  0  0  0  0  0  0
   -2.3968    0.2233    4.4721 C   0  0  0  0  0  0  0  0  0  0  0  0
   -3.8529   -0.2514    3.7275 S   0  0  0  0  0  0  0  0  0  0  0  0
   -4.7151   -0.6118    5.1490 C   0  0  0  0  0  0  0  0  0  0  0  0
   -3.8625   -0.3585    6.1997 C   0  0  0  0  0  0  0  0  0  0  0  0
   -2.5685    0.1104    5.8212 C   0  0  0  0  0  0  0  0  0  0  0  0
   -4.3223   -0.5785    7.6394 C   0  0  0  0  0  0  0  0  0  0  0  0
   -5.0870    0.5917    8.2513 C   0  0  0  0  0  0  0  0  0  0  0  0
   -6.6088    0.5257    8.1303 C   0  0  0  0  0  0  0  0  0  0  0  0
   -7.1870    0.3611    6.7228 C   0  0  0  0  0  0  0  0  0  0  0  0
   -7.0502   -1.0341    6.1232 C   0  0  0  0  0  0  0  0  0  0  0  0
   -6.1320   -1.1212    4.9029 C   0  0  0  0  0  0  0  0  0  0  0  0
    0.2650    1.0000   -0.2731 C   0  0  0  0  0  0  0  0  0  0  0  0
    3.6540   -5.7703   -1.0215 C   0  0  0  0  0  0  0  0  0  0  0  0
    3.3071   -6.2843   -2.2667 C   0  0  0  0  0  0  0  0  0  0  0  0
    2.2878   -7.2273   -2.3529 C   0  0  0  0  0  0  0  0  0  0  0  0
    1.6218   -7.6509   -1.2076 C   0  0  0  0  0  0  0  0  0  0  0  0
    1.9759   -7.1300    0.0325 C   0  0  0  0  0  0  0  0  0  0  0  0
    2.9937   -6.1870    0.1303 C   0  0  0  0  0  0  0  0  0  0  0  0
    4.2169   -2.6671   -1.9366 H   0  0  0  0  0  0  0  0  0  0  0  0
    3.3754   -0.6521   -0.9089 H   0  0  0  0  0  0  0  0  0  0  0  0
    2.7032   -0.5523    3.1878 H   0  0  0  0  0  0  0  0  0  0  0  0
    3.5036   -2.7985    3.3610 H   0  0  0  0  0  0  0  0  0  0  0  0
    4.2416   -3.9812    1.4187 H   0  0  0  0  0  0  0  0  0  0  0  0
    2.8033    1.5408    1.7723 H   0  0  0  0  0  0  0  0  0  0  0  0
    2.8033    1.3984    0.1455 H   0  0  0  0  0  0  0  0  0  0  0  0
   -1.5041   -0.0380    0.5797 H   0  0  0  0  0  0  0  0  0  0  0  0
   -2.6887   -0.1724    1.6956 H   0  0  0  0  0  0  0  0  0  0  0  0
   -0.4405   -1.9756    1.5401 H   0  0  0  0  0  0  0  0  0  0  0  0
   -1.7145   -2.1378    2.5487 H   0  0  0  0  0  0  0  0  0  0  0  0
   -0.6502   -2.4797   -0.8418 H   0  0  0  0  0  0  0  0  0  0  0  0
   -1.8410   -3.6891   -2.5313 H   0  0  0  0  0  0  0  0  0  0  0  0
   -4.0474   -4.4975   -2.0896 H   0  0  0  0  0  0  0  0  0  0  0  0
   -5.0638   -4.0975    0.0309 H   0  0  0  0  0  0  0  0  0  0  0  0
   -3.8849   -2.8879    1.7282 H   0  0  0  0  0  0  0  0  0  0  0  0
   -1.8538    0.3354    6.4835 H   0  0  0  0  0  0  0  0  0  0  0  0
   -3.5134   -0.7499    8.2018 H   0  0  0  0  0  0  0  0  0  0  0  0
   -4.9170   -1.3822    7.6570 H   0  0  0  0  0  0  0  0  0  0  0  0
   -4.7791    1.4293    7.8001 H   0  0  0  0  0  0  0  0  0  0  0  0
   -4.8578    0.6334    9.2238 H   0  0  0  0  0  0  0  0  0  0  0  0
   -6.9788    1.3731    8.5113 H   0  0  0  0  0  0  0  0  0  0  0  0
   -6.9217   -0.2504    8.6778 H   0  0  0  0  0  0  0  0  0  0  0  0
   -8.1602    0.5878    6.7598 H   0  0  0  0  0  0  0  0  0  0  0  0
   -6.7175    1.0049    6.1184 H   0  0  0  0  0  0  0  0  0  0  0  0
   -6.6872   -1.6419    6.8294 H   0  0  0  0  0  0  0  0  0  0  0  0
   -7.9603   -1.3460    5.8505 H   0  0  0  0  0  0  0  0  0  0  0  0
   -6.0764   -2.0787    4.6199 H   0  0  0  0  0  0  0  0  0  0  0  0
   -6.5367   -0.5790    4.1665 H   0  0  0  0  0  0  0  0  0  0  0  0
    0.9148    1.0000   -1.0331 H   0  0  0  0  0  0  0  0  0  0  0  0
   -0.3099    0.1835   -0.3260 H   0  0  0  0  0  0  0  0  0  0  0  0
   -0.3099    1.8165   -0.3260 H   0  0  0  0  0  0  0  0  0  0  0  0
    3.7850   -5.9795   -3.0906 H   0  0  0  0  0  0  0  0  0  0  0  0
    2.0323   -7.6028   -3.2438 H   0  0  0  0  0  0  0  0  0  0  0  0
    0.8898   -8.3288   -1.2757 H   0  0  0  0  0  0  0  0  0  0  0  0
    1.4973   -7.4343    0.8562 H   0  0  0  0  0  0  0  0  0  0  0  0
    3.2488   -5.8115    1.0213 H   0  0  0  0  0  0  0  0  0  0  0  0
  1  2  2  0  0  0  0
  1  3  2  0  0  0  0
  1  4  1  0  0  0  0
  4  5  1  0  0  0  0
  5  6  1  0  0  0  0
  6  7  2  0  0  0  0
  7  8  1  0  0  0  0
  8  9  2  0  0  0  0
  9 10  1  0  0  0  0
 10  5  2  0  0  0  0
  7 11  1  0  0  0  0
 11 12  1  0  0  0  0
 12 13  1  0  0  0  0
 13 14  2  0  0  0  0
 14 15  1  0  0  0  0
 15 16  2  0  0  0  0
 16 17  1  0  0  0  0
 17 13  1  0  0  0  0
 17 18  1  0  0  0  0
 18 19  1  0  0  0  0
 19 20  1  0  0  0  0
 20 21  1  0  0  0  0
 21 22  2  0  0  0  0
 22 23  1  0  0  0  0
 23 24  2  0  0  0  0
 24 25  1  0  0  0  0
 25 20  2  0  0  0  0
 16 26  1  0  0  0  0
 26 27  1  0  0  0  0
 27 28  1  0  0  0  0
 28 29  2  0  0  0  0
 29 30  1  0  0  0  0
 26 30  2  0  0  0  0
 29 31  1  0  0  0  0
 31 32  1  0  0  0  0
 32 33  1  0  0  0  0
 33 34  1  0  0  0  0
 34 35  1  0  0  0  0
 35 36  1  0  0  0  0
 36 28  1  0  0  0  0
 12 37  1  0  0  0  0
  1 38  1  0  0  0  0
 38 39  1  0  0  0  0
 39 40  2  0  0  0  0
 40 41  1  0  0  0  0
 41 42  2  0  0  0  0
 42 43  1  0  0  0  0
 43 38  2  0  0  0  0
  4 44  1  0  0  0  0
  6 45  1  0  0  0  0
  8 46  1  0  0  0  0
  9 47  1  0  0  0  0
 10 48  1  0  0  0  0
 11 49  1  0  0  0  0
 11 50  1  0  0  0  0
 18 51  1  0  0  0  0
 18 52  1  0  0  0  0
 19 53  1  0  0  0  0
 19 54  1  0  0  0  0
 21 55  1  0  0  0  0
 22 56  1  0  0  0  0
 23 57  1  0  0  0  0
 24 58  1  0  0  0  0
 25 59  1  0  0  0  0
 30 60  1  0  0  0  0
 31 61  1  0  0  0  0
 31 62  1  0  0  0  0
 32 63  1  0  0  0  0
 32 64  1  0  0  0  0
 33 65  1  0  0  0  0
 33 66  1  0  0  0  0
 34 67  1  0  0  0  0
 34 68  1  0  0  0  0
 35 69  1  0  0  0  0
 35 70  1  0  0  0  0
 36 71  1  0  0  0  0
 36 72  1  0  0  0  0
 37 73  1  0  0  0  0
 37 74  1  0  0  0  0
 37 75  1  0  0  0  0
 39 76  1  0  0  0  0
 40 77  1  0  0  0  0
 41 78  1  0  0  0  0
 42 79  1  0  0  0  0
 43 80  1  0  0  0  0
M  END
>  <result-rank>
24

>  <similarity>
0.861

>  <query-name>


>  <query-smiles>
Clc1ccc(cc1)CS(=O)(=O)c2cc3N=C(c4c(N(c3cc2)C)cc5c(c4)C(CCC5(C)C)(C)C)c6ccc(cc6)C([O-])=O

>  <source>
REALspace_2019-12

>  <similarity-descriptor>
0.898;0.850;0.875;0.916;0.957;0.661;0.898;0.885;1.000;0.957;0.957;0.957;0.957;0.0;0.0

>  <similarity-descriptor-smiles>
c1ccccc1;CCc1ccccc1;c1cccc(c1)C;C1=CC=CS1;C=1CCCCCCC1;NC=1NC=NN1;c1ccccc1;S(=O)(=O)N;C;C=1CCCCCCC1;C=1CCCCCCC1;C=1CCCCCCC1;C=1CCCCCCC1;;

>  <reaction-name>
m_270942

>  <reagent1-name>
9828420

>  <reagent1-smiles>
[R3*]=C([R2*])N([R1*])CCc1ccccc1

>  <reagent2-name>
9830432

>  <reagent2-smiles>
[R2*]N(Cc1cc(NS(=O)(=O)c2ccccc2)ccc1)C

>  <reagent3-name>
9836002

>  <reagent3-smiles>
[R3*]=NN=C([R1*])C=1SC2=C(C1)CCCCCC2

$$$$
m_273170____10757270____10763556____10755794
          04022017333D 1   1.00000     0.00000     0
            
 71 76  0  0  0  0            999 V2000
   -4.6825    8.1181    7.1515 Cl  0  0  0  0  0  0  0  0  0  0  0  0
   -3.4438    7.9930    5.8795 C   0  0  0  0  0  0  0  0  0  0  0  0
   -2.1004    8.1432    6.2052 C   0  0  0  0  0  0  0  0  0  0  0  0
   -1.1291    8.0469    5.2139 C   0  0  0  0  0  0  0  0  0  0  0  0
   -1.5200    7.7994    3.9023 C   0  0  0  0  0  0  0  0  0  0  0  0
   -2.8633    7.6494    3.5761 C   0  0  0  0  0  0  0  0  0  0  0  0
   -3.8349    7.7458    4.5676 C   0  0  0  0  0  0  0  0  0  0  0  0
   -0.4657    7.6934    2.8133 C   0  0  0  0  0  0  0  0  0  0  0  0
   -0.0274    6.2958    2.6901 N   0  0  0  0  0  0  0  0  0  0  0  0
   -0.2147    5.6149    1.4775 C   0  0  0  0  0  0  0  0  0  0  0  0
   -0.7545    6.1840    0.5427 O   0  0  0  0  0  0  0  0  0  0  0  0
    0.2472    4.1809    1.2566 C   0  0  0  0  0  0  0  0  0  0  0  0
    0.8879    3.7318    2.5048 N   0  0  0  0  0  0  0  0  0  0  0  0
    2.0315    2.9267    2.5008 C   0  0  0  0  0  0  0  0  0  0  0  0
    3.2789    3.3271    2.4974 N   0  0  0  0  0  0  0  0  0  0  0  0
    4.1071    2.3065    2.4903 N   0  0  0  0  0  0  0  0  0  0  0  0
    3.3905    1.2051    2.4893 C   0  0  0  0  0  0  0  0  0  0  0  0
    2.0806    1.5694    2.4959 N   0  0  0  0  0  0  0  0  0  0  0  0
    0.9245    0.6605    2.4981 C   0  0  0  0  0  0  0  0  0  0  0  0
    0.8353   -0.0426    3.8425 C   0  0  0  0  0  0  0  0  0  0  0  0
    0.6995   -1.4253    3.8920 C   0  0  0  0  0  0  0  0  0  0  0  0
    0.5805   -2.0897    5.1106 C   0  0  0  0  0  0  0  0  0  0  0  0
    0.6327   -1.3857    6.3057 C   0  0  0  0  0  0  0  0  0  0  0  0
    0.5341   -2.0955    7.5128 N   0  0  0  0  0  0  0  0  0  0  0  0
   -0.3854   -3.2443    7.5865 C   0  0  0  0  0  0  0  0  0  0  0  0
   -0.6890   -3.8657    6.2286 C   0  0  0  0  0  0  0  0  0  0  0  0
    0.3854   -3.5977    5.1826 C   0  0  0  0  0  0  0  0  0  0  0  0
    1.2979   -1.7247    8.7146 C   0  0  0  0  0  0  0  0  0  0  0  0
    0.7778   -0.0013    6.2431 C   0  0  0  0  0  0  0  0  0  0  0  0
    0.8774    0.6772    5.0325 C   0  0  0  0  0  0  0  0  0  0  0  0
    3.9079   -0.1494    2.4826 C   0  0  0  0  0  0  0  0  0  0  0  0
    4.7215   -0.5709    3.5293 C   0  0  0  0  0  0  0  0  0  0  0  0
    5.2167   -1.8706    3.5178 C   0  0  0  0  0  0  0  0  0  0  0  0
    6.0372   -2.3060    4.5658 N   0  3  0  0  0  0  0  0  0  0  0  0
    6.0355   -3.4809    4.8941 O   0  5  0  0  0  0  0  0  0  0  0  0
    6.7480   -1.5168    5.1456 O   0  0  0  0  0  0  0  0  0  0  0  0
    4.9102   -2.7457    2.4812 C   0  0  0  0  0  0  0  0  0  0  0  0
    4.0946   -2.3031    1.4452 C   0  0  0  0  0  0  0  0  0  0  0  0
    3.5881   -1.0077    1.4363 C   0  0  0  0  0  0  0  0  0  0  0  0
    0.2531    4.1901    3.7459 C   0  0  0  0  0  0  0  0  0  0  0  0
    0.5996    5.6633    3.8556 C   0  0  0  0  0  0  0  0  0  0  0  0
   -1.8324    8.3204    7.1521 H   0  0  0  0  0  0  0  0  0  0  0  0
   -0.1613    8.1543    5.4417 H   0  0  0  0  0  0  0  0  0  0  0  0
   -3.1311    7.4723    2.6291 H   0  0  0  0  0  0  0  0  0  0  0  0
   -4.8026    7.6386    4.3398 H   0  0  0  0  0  0  0  0  0  0  0  0
   -0.8530    7.9992    1.9435 H   0  0  0  0  0  0  0  0  0  0  0  0
    0.3172    8.2686    3.0502 H   0  0  0  0  0  0  0  0  0  0  0  0
   -0.5367    3.5974    1.0447 H   0  0  0  0  0  0  0  0  0  0  0  0
    0.9031    4.1447    0.5026 H   0  0  0  0  0  0  0  0  0  0  0  0
    1.0336   -0.0194    1.7729 H   0  0  0  0  0  0  0  0  0  0  0  0
    0.0878    1.1850    2.3401 H   0  0  0  0  0  0  0  0  0  0  0  0
    0.6870   -1.9502    3.0410 H   0  0  0  0  0  0  0  0  0  0  0  0
   -1.2453   -2.9362    7.9934 H   0  0  0  0  0  0  0  0  0  0  0  0
    0.0276   -3.9438    8.1698 H   0  0  0  0  0  0  0  0  0  0  0  0
   -1.5547   -3.4916    5.8960 H   0  0  0  0  0  0  0  0  0  0  0  0
   -0.7765   -4.8549    6.3459 H   0  0  0  0  0  0  0  0  0  0  0  0
    1.2410   -4.0412    5.4495 H   0  0  0  0  0  0  0  0  0  0  0  0
    0.0918   -3.9477    4.2931 H   0  0  0  0  0  0  0  0  0  0  0  0
    1.0796   -2.3583    9.4569 H   0  0  0  0  0  0  0  0  0  0  0  0
    2.2766   -1.7701    8.5147 H   0  0  0  0  0  0  0  0  0  0  0  0
    1.0565   -0.7939    8.9890 H   0  0  0  0  0  0  0  0  0  0  0  0
    0.8113    0.5211    7.0952 H   0  0  0  0  0  0  0  0  0  0  0  0
    0.9781    1.6720    5.0178 H   0  0  0  0  0  0  0  0  0  0  0  0
    4.9469    0.0513    4.2790 H   0  0  0  0  0  0  0  0  0  0  0  0
    5.2706   -3.6785    2.4807 H   0  0  0  0  0  0  0  0  0  0  0  0
    3.8689   -2.9254    0.6957 H   0  0  0  0  0  0  0  0  0  0  0  0
    3.0020   -0.6978    0.6876 H   0  0  0  0  0  0  0  0  0  0  0  0
    0.6146    3.6863    4.5305 H   0  0  0  0  0  0  0  0  0  0  0  0
   -0.7381    4.0664    3.6984 H   0  0  0  0  0  0  0  0  0  0  0  0
    0.2323    6.0475    4.7026 H   0  0  0  0  0  0  0  0  0  0  0  0
    1.5910    5.7926    3.8333 H   0  0  0  0  0  0  0  0  0  0  0  0
  1  2  1  0  0  0  0
  2  3  1  0  0  0  0
  3  4  2  0  0  0  0
  4  5  1  0  0  0  0
  5  6  2  0  0  0  0
  6  7  1  0  0  0  0
  7  2  2  0  0  0  0
  5  8  1  0  0  0  0
  8  9  1  0  0  0  0
  9 10  1  0  0  0  0
 10 11  2  0  0  0  0
 10 12  1  0  0  0  0
 12 13  1  0  0  0  0
 13 14  1  0  0  0  0
 14 15  2  0  0  0  0
 15 16  1  0  0  0  0
 16 17  2  0  0  0  0
 17 18  1  0  0  0  0
 18 14  1  0  0  0  0
 18 19  1  0  0  0  0
 19 20  1  0  0  0  0
 20 21  1  0  0  0  0
 21 22  2  0  0  0  0
 22 23  1  0  0  0  0
 23 24  1  0  0  0  0
 24 25  1  0  0  0  0
 25 26  1  0  0  0  0
 26 27  1  0  0  0  0
 27 22  1  0  0  0  0
 24 28  1  0  0  0  0
 23 29  2  0  0  0  0
 29 30  1  0  0  0  0
 30 20  2  0  0  0  0
 17 31  1  0  0  0  0
 31 32  1  0  0  0  0
 32 33  2  0  0  0  0
 33 34  1  0  0  0  0
 34 35  1  0  0  0  0
 34 36  2  0  0  0  0
 33 37  1  0  0  0  0
 37 38  2  0  0  0  0
 38 39  1  0  0  0  0
 39 31  2  0  0  0  0
 13 40  1  0  0  0  0
 40 41  1  0  0  0  0
 41  9  1  0  0  0  0
  3 42  1  0  0  0  0
  4 43  1  0  0  0  0
  6 44  1  0  0  0  0
  7 45  1  0  0  0  0
  8 46  1  0  0  0  0
  8 47  1  0  0  0  0
 12 48  1  0  0  0  0
 12 49  1  0  0  0  0
 19 50  1  0  0  0  0
 19 51  1  0  0  0  0
 21 52  1  0  0  0  0
 25 53  1  0  0  0  0
 25 54  1  0  0  0  0
 26 55  1  0  0  0  0
 26 56  1  0  0  0  0
 27 57  1  0  0  0  0
 27 58  1  0  0  0  0
 28 59  1  0  0  0  0
 28 60  1  0  0  0  0
 28 61  1  0  0  0  0
 29 62  1  0  0  0  0
 30 63  1  0  0  0  0
 32 64  1  0  0  0  0
 37 65  1  0  0  0  0
 38 66  1  0  0  0  0
 39 67  1  0  0  0  0
 40 68  1  0  0  0  0
 40 69  1  0  0  0  0
 41 70  1  0  0  0  0
 41 71  1  0  0  0  0
M  CHG  2  34   1  35  -1
M  END
>  <result-rank>
25

>  <similarity>
0.860

>  <query-name>


>  <query-smiles>
Clc1ccc(cc1)CS(=O)(=O)c2cc3N=C(c4c(N(c3cc2)C)cc5c(c4)C(CCC5(C)C)(C)C)c6ccc(cc6)C([O-])=O

>  <source>
REALspace_2019-12

>  <similarity-descriptor>
1.000;0.998;0.655;0.852;0.976;0.675;0.996;0.655;0.0;0.976;0.0;0.0;0.995;0.910;0.0

>  <similarity-descriptor-smiles>
Clc1ccccc1;c1ccccc1;N1CCNCC1=O;Cc1ccccc1;c1CCCNc1;C=1NC=NN1;C;N1CCNCC1=O;;c1CCCNc1;;;C;[N+]([O-])=O;

>  <reaction-name>
m_273170

>  <reagent1-name>
10757270

>  <reagent1-smiles>
[R2*]=C([R1*])N([R3*])Cc1cc2c(N(CCC2)C)cc1

>  <reagent2-name>
10763556

>  <reagent2-smiles>
[R1*]N1CC(=O)N(Cc2ccc(Cl)cc2)CC1

>  <reagent3-name>
10755794

>  <reagent3-smiles>
[R2*]=NN=C([R3*])c1cc([N+]([O-])=O)ccc1

$$$$
s_270196____13909258____8772290
          04022017333D 1   1.00000     0.00000     0
            
 67 71  0  0  0  0            999 V2000
    0.4214    3.7482    2.5312 Cl  0  0  0  0  0  0  0  0  0  0  0  0
    1.9732    2.8775    2.5107 C   0  0  0  0  0  0  0  0  0  0  0  0
    3.1686    3.5899    2.5009 C   0  0  0  0  0  0  0  0  0  0  0  0
    3.1578    5.3300    2.5082 S   0  0  0  0  0  0  0  0  0  0  0  0
    2.4635    5.8106    1.3418 O   0  0  0  0  0  0  0  0  0  0  0  0
    2.4886    5.8008    3.6932 O   0  0  0  0  0  0  0  0  0  0  0  0
    4.6911    5.8829    2.4942 N   0  0  0  0  0  0  0  0  0  0  0  0
    5.2655    6.3234    1.2956 C   0  0  0  0  0  0  0  0  0  0  0  0
    5.1449    7.6597    0.9295 C   0  0  0  0  0  0  0  0  0  0  0  0
    5.7126    8.1047   -0.2595 C   0  0  0  0  0  0  0  0  0  0  0  0
    6.3966    7.2037   -1.0688 C   0  0  0  0  0  0  0  0  0  0  0  0
    7.1266    7.7656   -2.5915 Cl  0  0  0  0  0  0  0  0  0  0  0  0
    6.5211    5.8663   -0.7080 C   0  0  0  0  0  0  0  0  0  0  0  0
    5.9508    5.4279    0.4822 C   0  0  0  0  0  0  0  0  0  0  0  0
    5.4709    5.9191    3.7398 C   0  0  0  0  0  0  0  0  0  0  0  0
    4.3860    2.9159    2.4858 C   0  0  0  0  0  0  0  0  0  0  0  0
    4.3932    1.5244    2.4803 C   0  0  0  0  0  0  0  0  0  0  0  0
    3.2028    0.8039    2.4901 C   0  0  0  0  0  0  0  0  0  0  0  0
    1.9898    1.4862    2.5055 C   0  0  0  0  0  0  0  0  0  0  0  0
    5.6613    0.8208    2.4636 C   0  0  0  0  0  0  0  0  0  0  0  0
    6.8465    1.3808    2.4528 O   0  0  0  0  0  0  0  0  0  0  0  0
    7.7400    0.4818    2.4405 N   0  0  0  0  0  0  0  0  0  0  0  0
    7.1549   -0.6929    2.4416 C   0  0  0  0  0  0  0  0  0  0  0  0
    5.8132   -0.4793    2.4556 N   0  0  0  0  0  0  0  0  0  0  0  0
    7.8192   -1.9815    2.4273 C   0  0  0  0  0  0  0  0  0  0  0  0
    8.0651   -2.6691    3.6425 C   0  0  0  0  0  0  0  0  0  0  0  0
    7.7103   -2.1595    4.6895 O   0  0  0  0  0  0  0  0  0  0  0  0
    8.6954   -3.8821    3.6087 N   0  0  0  0  0  0  0  0  0  0  0  0
    9.1093   -4.4493    2.4373 C   0  0  0  0  0  0  0  0  0  0  0  0
    8.8568   -3.7735    1.2707 C   0  0  0  0  0  0  0  0  0  0  0  0
    8.1995   -2.5126    1.2246 C   0  0  0  0  0  0  0  0  0  0  0  0
    9.2789   -4.4345   -0.0307 C   0  0  0  0  0  0  0  0  0  0  0  0
   10.7549   -4.7075    0.2165 C   0  0  0  0  0  0  0  0  0  0  0  0
   11.0392   -5.4402    1.5178 C   0  0  0  0  0  0  0  0  0  0  0  0
    9.8403   -5.7649    2.4028 C   0  0  0  0  0  0  0  0  0  0  0  0
   11.7824   -6.7338    1.2465 C   0  0  0  0  0  0  0  0  0  0  0  0
   12.0120   -4.5758    2.3099 C   0  0  0  0  0  0  0  0  0  0  0  0
    9.2588   -3.4869   -1.2241 C   0  0  0  0  0  0  0  0  0  0  0  0
    8.4343   -5.6491   -0.4010 C   0  0  0  0  0  0  0  0  0  0  0  0
    4.6513    8.2987    1.5194 H   0  0  0  0  0  0  0  0  0  0  0  0
    5.6299    9.0638   -0.5302 H   0  0  0  0  0  0  0  0  0  0  0  0
    7.0152    5.2273   -1.2976 H   0  0  0  0  0  0  0  0  0  0  0  0
    6.0335    4.4688    0.7529 H   0  0  0  0  0  0  0  0  0  0  0  0
    6.3830    6.2832    3.5516 H   0  0  0  0  0  0  0  0  0  0  0  0
    5.0088    6.5052    4.4054 H   0  0  0  0  0  0  0  0  0  0  0  0
    5.5512    4.9935    4.1098 H   0  0  0  0  0  0  0  0  0  0  0  0
    5.2462    3.4258    2.4789 H   0  0  0  0  0  0  0  0  0  0  0  0
    3.2187   -0.1959    2.4859 H   0  0  0  0  0  0  0  0  0  0  0  0
    1.1297    0.9761    2.5130 H   0  0  0  0  0  0  0  0  0  0  0  0
    8.8580   -4.3683    4.4673 H   0  0  0  0  0  0  0  0  0  0  0  0
    8.0249   -2.0402    0.3606 H   0  0  0  0  0  0  0  0  0  0  0  0
   11.2374   -3.8318    0.2369 H   0  0  0  0  0  0  0  0  0  0  0  0
   11.1028   -5.2623   -0.5392 H   0  0  0  0  0  0  0  0  0  0  0  0
    9.2748   -6.4840    1.9987 H   0  0  0  0  0  0  0  0  0  0  0  0
   10.1298   -6.0436    3.3185 H   0  0  0  0  0  0  0  0  0  0  0  0
   12.5754   -6.5473    0.6664 H   0  0  0  0  0  0  0  0  0  0  0  0
   12.0885   -7.1302    2.1120 H   0  0  0  0  0  0  0  0  0  0  0  0
   11.1736   -7.3769    0.7821 H   0  0  0  0  0  0  0  0  0  0  0  0
   12.8033   -4.3561    1.7394 H   0  0  0  0  0  0  0  0  0  0  0  0
   11.5563   -3.7302    2.5878 H   0  0  0  0  0  0  0  0  0  0  0  0
   12.3149   -5.0739    3.1224 H   0  0  0  0  0  0  0  0  0  0  0  0
    9.5451   -3.9796   -2.0459 H   0  0  0  0  0  0  0  0  0  0  0  0
    8.3325   -3.1331   -1.3533 H   0  0  0  0  0  0  0  0  0  0  0  0
    9.8858   -2.7261   -1.0563 H   0  0  0  0  0  0  0  0  0  0  0  0
    8.7639   -6.0339   -1.2632 H   0  0  0  0  0  0  0  0  0  0  0  0
    8.5064   -6.3378    0.3205 H   0  0  0  0  0  0  0  0  0  0  0  0
    7.4789   -5.3722   -0.5032 H   0  0  0  0  0  0  0  0  0  0  0  0
  1  2  1  0  0  0  0
  2  3  1  0  0  0  0
  3  4  1  0  0  0  0
  4  5  2  0  0  0  0
  4  6  2  0  0  0  0
  4  7  1  0  0  0  0
  7  8  1  0  0  0  0
  8  9  1  0  0  0  0
  9 10  2  0  0  0  0
 10 11  1  0  0  0  0
 11 12  1  0  0  0  0
 11 13  2  0  0  0  0
 13 14  1  0  0  0  0
 14  8  2  0  0  0  0
  7 15  1  0  0  0  0
  3 16  2  0  0  0  0
 16 17  1  0  0  0  0
 17 18  2  0  0  0  0
 18 19  1  0  0  0  0
 19  2  2  0  0  0  0
 17 20  1  0  0  0  0
 20 21  1  0  0  0  0
 21 22  1  0  0  0  0
 22 23  2  0  0  0  0
 23 24  1  0  0  0  0
 20 24  2  0  0  0  0
 23 25  1  0  0  0  0
 25 26  1  0  0  0  0
 26 27  2  0  0  0  0
 26 28  1  0  0  0  0
 28 29  1  0  0  0  0
 29 30  2  0  0  0  0
 30 31  1  0  0  0  0
 25 31  2  0  0  0  0
 30 32  1  0  0  0  0
 32 33  1  0  0  0  0
 33 34  1  0  0  0  0
 34 35  1  0  0  0  0
 35 29  1  0  0  0  0
 34 36  1  0  0  0  0
 34 37  1  0  0  0  0
 32 38  1  0  0  0  0
 32 39  1  0  0  0  0
  9 40  1  0  0  0  0
 10 41  1  0  0  0  0
 13 42  1  0  0  0  0
 14 43  1  0  0  0  0
 15 44  1  0  0  0  0
 15 45  1  0  0  0  0
 15 46  1  0  0  0  0
 16 47  1  0  0  0  0
 18 48  1  0  0  0  0
 19 49  1  0  0  0  0
 28 50  1  0  0  0  0
 31 51  1  0  0  0  0
 33 52  1  0  0  0  0
 33 53  1  0  0  0  0
 35 54  1  0  0  0  0
 35 55  1  0  0  0  0
 36 56  1  0  0  0  0
 36 57  1  0  0  0  0
 36 58  1  0  0  0  0
 37 59  1  0  0  0  0
 37 60  1  0  0  0  0
 37 61  1  0  0  0  0
 38 62  1  0  0  0  0
 38 63  1  0  0  0  0
 38 64  1  0  0  0  0
 39 65  1  0  0  0  0
 39 66  1  0  0  0  0
 39 67  1  0  0  0  0
M  END
>  <result-rank>
26

>  <similarity>
0.859

>  <query-name>


>  <query-smiles>
Clc1ccc(cc1)CS(=O)(=O)c2cc3N=C(c4c(N(c3cc2)C)cc5c(c4)C(CCC5(C)C)(C)C)c6ccc(cc6)C([O-])=O

>  <source>
REALspace_2019-12

>  <similarity-descriptor>
0.999;0.0;0.948;0.700;0.999;0.621;0.925;0.997;0.0;1.000;1.000;1.000;1.000;0.0;0.0

>  <similarity-descriptor-smiles>
c1ccc(cc1)Cl;;Clc1ccccc1;C1=CC=CNC1=O;C=1CCCCC1;C1=NC=NO1;NC;S(=O)=O;;C;C;C;C;;

>  <reaction-name>
s_270196

>  <reagent1-name>
13909258

>  <reagent1-smiles>
[R1*]=NC(=NO[R2*])C=1C(=O)NC2=C(C1)C(CC(C2)(C)C)(C)C

>  <reagent2-name>
8772290

>  <reagent2-smiles>
[R1*]C([R2*])c1cc(S(=O)(=O)N(c2ccc(Cl)cc2)C)c(Cl)cc1

$$$$
s_2____11687950____14411300____9284808
          04022017333D 1   1.00000     0.00000     0
            
 73 79  0  0  0  0            999 V2000
    8.8448    6.5340    0.5944 S   0  0  0  0  0  0  0  0  0  0  0  0
    8.2788    7.7738    1.0595 O   0  0  0  0  0  0  0  0  0  0  0  0
   10.1800    6.3910    1.1143 O   0  0  0  0  0  0  0  0  0  0  0  0
    8.8934    6.5363   -1.0349 N   0  0  0  0  0  0  0  0  0  0  0  0
    7.8635    5.2066    1.1434 C   0  0  0  0  0  0  0  0  0  0  0  0
    8.4222    4.2290    1.9599 C   0  0  0  0  0  0  0  0  0  0  0  0
    7.6328    3.1699    2.3950 C   0  0  0  0  0  0  0  0  0  0  0  0
    6.2978    3.0995    2.0115 C   0  0  0  0  0  0  0  0  0  0  0  0
    5.5094    2.0301    2.4537 N   0  0  0  0  0  0  0  0  0  0  0  0
    4.2406    2.1295    2.4468 C   0  0  0  0  0  0  0  0  0  0  0  0
    3.3299    3.5681    2.4036 S   0  0  0  0  0  0  0  0  0  0  0  0
    1.7813    2.8529    2.4247 C   0  0  0  0  0  0  0  0  0  0  0  0
    2.0334    1.5154    2.4653 C   0  0  0  0  0  0  0  0  0  0  0  0
    3.3388    1.1121    2.4746 N   0  0  0  0  0  0  0  0  0  0  0  0
    3.7804   -0.2891    2.5193 C   0  0  0  0  0  0  0  0  0  0  0  0
    4.0570   -0.7781    1.1078 C   0  0  0  0  0  0  0  0  0  0  0  0
    5.3312   -0.6313    0.5748 C   0  0  0  0  0  0  0  0  0  0  0  0
    5.5664   -1.1115   -0.7096 C   0  0  0  0  0  0  0  0  0  0  0  0
    4.6208   -1.7434   -1.4830 C   0  0  0  0  0  0  0  0  0  0  0  0
    5.1912   -2.1698   -2.6373 O   0  0  0  0  0  0  0  0  0  0  0  0
    6.4533   -1.5686   -2.8703 C   0  0  3  0  0  0  0  0  0  0  0  0
    6.8429   -1.0448   -1.5090 C   0  0  3  0  0  0  0  0  0  0  0  0
    7.4611    0.3469   -1.5603 C   0  0  0  0  0  0  0  0  0  0  0  0
    7.4183   -2.6462   -3.3448 C   0  0  0  0  0  0  0  0  0  0  0  0
    3.3674   -1.8389   -0.9207 C   0  0  0  0  0  0  0  0  0  0  0  0
    3.0551   -1.3815    0.3528 C   0  0  0  0  0  0  0  0  0  0  0  0
    0.9019    0.6087    2.4961 C   0  0  0  0  0  0  0  0  0  0  0  0
   -0.2204    0.8695    1.7160 C   0  0  0  0  0  0  0  0  0  0  0  0
   -0.2882    1.9984    0.8907 N   0  0  0  0  0  0  0  0  0  0  0  0
    0.2973    2.1223   -0.3659 C   0  0  0  0  0  0  0  0  0  0  0  0
    0.9553    1.2611   -0.9256 O   0  0  0  0  0  0  0  0  0  0  0  0
   -0.0047    3.4349   -0.8844 C   0  0  0  0  0  0  0  0  0  0  0  0
   -0.7532    4.0714    0.0706 C   0  0  0  0  0  0  0  0  0  0  0  0
   -1.1481    5.3734   -0.2200 C   0  0  0  0  0  0  0  0  0  0  0  0
   -0.7964    5.9841   -1.4183 C   0  0  0  0  0  0  0  0  0  0  0  0
   -0.0342    5.3052   -2.3635 C   0  0  0  0  0  0  0  0  0  0  0  0
    0.3761    4.0037   -2.0937 C   0  0  0  0  0  0  0  0  0  0  0  0
   -0.9558    3.1821    1.1897 C   0  0  0  0  0  0  0  0  0  0  0  0
   -1.5916    3.4339    2.2008 O   0  0  0  0  0  0  0  0  0  0  0  0
   -1.3051    0.0000    1.7455 C   0  0  0  0  0  0  0  0  0  0  0  0
   -1.2684   -1.1310    2.5550 C   0  0  0  0  0  0  0  0  0  0  0  0
   -0.1465   -1.3919    3.3350 C   0  0  0  0  0  0  0  0  0  0  0  0
    0.9383   -0.5217    3.3062 C   0  0  0  0  0  0  0  0  0  0  0  0
    5.7455    4.0799    1.1948 C   0  0  0  0  0  0  0  0  0  0  0  0
    6.5293    5.1415    0.7559 C   0  0  0  0  0  0  0  0  0  0  0  0
    9.2864    5.6754   -1.3578 H   0  0  0  0  0  0  0  0  0  0  0  0
    7.9662    6.6356   -1.3959 H   0  0  0  0  0  0  0  0  0  0  0  0
    9.3828    4.2871    2.2317 H   0  0  0  0  0  0  0  0  0  0  0  0
    8.0240    2.4610    2.9820 H   0  0  0  0  0  0  0  0  0  0  0  0
    0.8925    3.3109    2.4105 H   0  0  0  0  0  0  0  0  0  0  0  0
    3.0640   -0.8513    2.9324 H   0  0  0  0  0  0  0  0  0  0  0  0
    4.6151   -0.3583    3.0656 H   0  0  0  0  0  0  0  0  0  0  0  0
    6.0600   -0.1922    1.1003 H   0  0  0  0  0  0  0  0  0  0  0  0
    6.3832   -0.8266   -3.5370 H   0  0  0  0  0  0  0  0  0  0  0  0
    7.5063   -1.6736   -1.1033 H   0  0  0  0  0  0  0  0  0  0  0  0
    8.3003    0.3190   -2.1035 H   0  0  0  0  0  0  0  0  0  0  0  0
    6.8140    0.9839   -1.9791 H   0  0  0  0  0  0  0  0  0  0  0  0
    7.6749    0.6511   -0.6320 H   0  0  0  0  0  0  0  0  0  0  0  0
    8.3157   -2.2388   -3.5144 H   0  0  0  0  0  0  0  0  0  0  0  0
    7.5005   -3.3529   -2.6422 H   0  0  0  0  0  0  0  0  0  0  0  0
    7.0727   -3.0546   -4.1896 H   0  0  0  0  0  0  0  0  0  0  0  0
    2.6399   -2.2622   -1.4608 H   0  0  0  0  0  0  0  0  0  0  0  0
    2.1304   -1.4833    0.7196 H   0  0  0  0  0  0  0  0  0  0  0  0
   -1.6956    5.8799    0.4462 H   0  0  0  0  0  0  0  0  0  0  0  0
   -1.0942    6.9208   -1.6027 H   0  0  0  0  0  0  0  0  0  0  0  0
    0.2154    5.7469   -3.2253 H   0  0  0  0  0  0  0  0  0  0  0  0
    0.9292    3.4920   -2.7511 H   0  0  0  0  0  0  0  0  0  0  0  0
   -2.1116    0.1875    1.1848 H   0  0  0  0  0  0  0  0  0  0  0  0
   -2.0485   -1.7563    2.5761 H   0  0  0  0  0  0  0  0  0  0  0  0
   -0.1200   -2.2050    3.9165 H   0  0  0  0  0  0  0  0  0  0  0  0
    1.7443   -0.7087    3.8678 H   0  0  0  0  0  0  0  0  0  0  0  0
    4.7849    4.0216    0.9231 H   0  0  0  0  0  0  0  0  0  0  0  0
    6.1381    5.8500    0.1685 H   0  0  0  0  0  0  0  0  0  0  0  0
  1  2  2  0  0  0  0
  1  3  2  0  0  0  0
  1  4  1  0  0  0  0
  1  5  1  0  0  0  0
  5  6  1  0  0  0  0
  6  7  2  0  0  0  0
  7  8  1  0  0  0  0
  8  9  1  0  0  0  0
  9 10  2  0  0  0  0
 10 11  1  0  0  0  0
 11 12  1  0  0  0  0
 12 13  2  0  0  0  0
 13 14  1  0  0  0  0
 14 10  1  0  0  0  0
 14 15  1  0  0  0  0
 15 16  1  0  0  0  0
 16 17  1  0  0  0  0
 17 18  2  0  0  0  0
 18 19  1  0  0  0  0
 19 20  1  0  0  0  0
 20 21  1  0  0  0  0
 21 22  1  0  0  0  0
 22 18  1  0  0  0  0
 22 23  1  0  0  0  0
 21 24  1  0  0  0  0
 19 25  2  0  0  0  0
 25 26  1  0  0  0  0
 26 16  2  0  0  0  0
 13 27  1  0  0  0  0
 27 28  1  0  0  0  0
 28 29  1  0  0  0  0
 29 30  1  0  0  0  0
 30 31  2  0  0  0  0
 30 32  1  0  0  0  0
 32 33  1  0  0  0  0
 33 34  2  0  0  0  0
 34 35  1  0  0  0  0
 35 36  2  0  0  0  0
 36 37  1  0  0  0  0
 37 32  2  0  0  0  0
 33 38  1  0  0  0  0
 38 29  1  0  0  0  0
 38 39  2  0  0  0  0
 28 40  2  0  0  0  0
 40 41  1  0  0  0  0
 41 42  2  0  0  0  0
 42 43  1  0  0  0  0
 43 27  2  0  0  0  0
  8 44  2  0  0  0  0
 44 45  1  0  0  0  0
 45  5  2  0  0  0  0
  4 46  1  0  0  0  0
  4 47  1  0  0  0  0
  6 48  1  0  0  0  0
  7 49  1  0  0  0  0
 12 50  1  0  0  0  0
 15 51  1  0  0  0  0
 15 52  1  0  0  0  0
 17 53  1  0  0  0  0
 21 54  1  0  0  0  0
 22 55  1  0  0  0  0
 23 56  1  0  0  0  0
 23 57  1  0  0  0  0
 23 58  1  0  0  0  0
 24 59  1  0  0  0  0
 24 60  1  0  0  0  0
 24 61  1  0  0  0  0
 25 62  1  0  0  0  0
 26 63  1  0  0  0  0
 34 64  1  0  0  0  0
 35 65  1  0  0  0  0
 36 66  1  0  0  0  0
 37 67  1  0  0  0  0
 40 68  1  0  0  0  0
 41 69  1  0  0  0  0
 42 70  1  0  0  0  0
 43 71  1  0  0  0  0
 44 72  1  0  0  0  0
 45 73  1  0  0  0  0
M  END
>  <result-rank>
27

>  <similarity>
0.858

>  <query-name>


>  <query-smiles>
Clc1ccc(cc1)CS(=O)(=O)c2cc3N=C(c4c(N(c3cc2)C)cc5c(c4)C(CCC5(C)C)(C)C)c6ccc(cc6)C([O-])=O

>  <source>
REALspace_2019-12

>  <similarity-descriptor>
0.951;0.998;0.938;0.852;0.757;0.768;0.705;0.705;0.0;0.0;0.0;1.000;1.000;0.909;0.077

>  <similarity-descriptor-smiles>
c1ccccc1;c1ccccc1;c1ccccc1;Cc1ccccc1;c1CCOc1;N=C1NC=CS1;N1C(ccC1=O)=O;N1C(ccC1=O)=O;;;;C;C;S(=O)=O;N

>  <reaction-name>
s_2

>  <reagent1-name>
11687950

>  <reagent1-smiles>
[R1*]SC([R3*])=Nc1ccc(S(=O)(=O)N)cc1

>  <reagent2-name>
14411300

>  <reagent2-smiles>
[R2*]N([R3*])Cc1cc2c(OC(C2C)C)cc1

>  <reagent3-name>
9284808

>  <reagent3-smiles>
[R2*]C(c1c(N2C(=O)c3c(cccc3)C2=O)cccc1)=C[R1*]

$$$$
s_42a____8631722____1111390
          04022017333D 1   1.00000     0.00000     0
            
 62 67  0  0  0  0            999 V2000
    7.9494   -0.5126    5.1486 S   0  0  0  0  0  0  0  0  0  0  0  0
    7.3553   -0.1584    3.6011 C   0  0  0  0  0  0  0  0  0  0  0  0
    8.0637   -0.5497    2.5422 N   0  0  0  0  0  0  0  0  0  0  0  0
    7.5387   -0.2511    1.3503 C   0  0  0  0  0  0  0  0  0  0  0  0
    6.3339    0.4474    1.2820 C   0  0  0  0  0  0  0  0  0  0  0  0
    5.6679    0.8171    2.4636 C   0  0  0  0  0  0  0  0  0  0  0  0
    6.1753    0.5375    3.7355 C   0  0  0  0  0  0  0  0  0  0  0  0
    5.8446    0.7584    5.1102 C   0  0  0  0  0  0  0  0  0  0  0  0
    6.7004    0.2197    6.0407 C   0  0  0  0  0  0  0  0  0  0  0  0
    6.6690    0.1893    7.5573 C   0  0  0  0  0  0  0  0  0  0  0  0
    5.6812    1.2630    7.9750 C   0  0  3  0  0  0  0  0  0  0  0  0
    4.3921    1.1450    7.1772 C   0  0  0  0  0  0  0  0  0  0  0  0
    4.6727    1.4993    5.7236 C   0  0  0  0  0  0  0  0  0  0  0  0
    5.4140    1.0282    9.4503 C   0  0  0  0  0  0  0  0  0  0  0  0
    4.3934    1.5238    2.4792 C   0  0  0  0  0  0  0  0  0  0  0  0
    4.3898    2.9144    2.4850 C   0  0  0  0  0  0  0  0  0  0  0  0
    3.1783    3.5981    2.5011 C   0  0  0  0  0  0  0  0  0  0  0  0
    1.9856    2.8824    2.5103 C   0  0  0  0  0  0  0  0  0  0  0  0
    0.8052    3.5371    2.5243 O   0  0  0  0  0  0  0  0  0  0  0  0
    0.7807    4.9569    2.5297 C   0  0  0  0  0  0  0  0  0  0  0  0
    1.9898    1.4913    2.5046 C   0  0  0  0  0  0  0  0  0  0  0  0
    3.2009    0.8075    2.4890 C   0  0  0  0  0  0  0  0  0  0  0  0
    5.8672    0.7419   -0.0695 C   0  0  0  0  0  0  0  0  0  0  0  0
    5.0681    1.6325   -0.3174 O   0  0  0  0  0  0  0  0  0  0  0  0
    6.3184    0.0255   -1.1828 N   0  0  0  0  0  0  0  0  0  0  0  0
    5.8058    0.3258   -2.5239 C   0  0  0  0  0  0  0  0  0  0  0  0
    6.8098    1.1917   -3.2680 C   0  0  0  0  0  0  0  0  0  0  0  0
    7.8039    0.5911   -4.0335 C   0  0  0  0  0  0  0  0  0  0  0  0
    8.7210    1.3871   -4.7120 C   0  0  0  0  0  0  0  0  0  0  0  0
    8.6391    2.7728   -4.6232 C   0  0  0  0  0  0  0  0  0  0  0  0
    7.6416    3.3617   -3.8559 C   0  0  0  0  0  0  0  0  0  0  0  0
    6.7189    2.5767   -3.1721 C   0  0  0  0  0  0  0  0  0  0  0  0
    7.3346   -1.0264   -1.0200 C   0  0  0  0  0  0  0  0  0  0  0  0
    8.2971   -0.7040    0.1134 C   0  0  0  0  0  0  0  0  0  0  0  0
    7.5762    0.3883    7.9280 H   0  0  0  0  0  0  0  0  0  0  0  0
    6.3659   -0.7070    7.8810 H   0  0  0  0  0  0  0  0  0  0  0  0
    6.0841    2.1684    7.8408 H   0  0  0  0  0  0  0  0  0  0  0  0
    3.7091    1.7736    7.5494 H   0  0  0  0  0  0  0  0  0  0  0  0
    4.0481    0.2077    7.2332 H   0  0  0  0  0  0  0  0  0  0  0  0
    3.8551    1.2888    5.1876 H   0  0  0  0  0  0  0  0  0  0  0  0
    4.8617    2.4799    5.6721 H   0  0  0  0  0  0  0  0  0  0  0  0
    4.7645    1.7113    9.7843 H   0  0  0  0  0  0  0  0  0  0  0  0
    5.0309    0.1134    9.5782 H   0  0  0  0  0  0  0  0  0  0  0  0
    6.2706    1.1052    9.9606 H   0  0  0  0  0  0  0  0  0  0  0  0
    5.2527    3.4198    2.4778 H   0  0  0  0  0  0  0  0  0  0  0  0
    3.1650    4.5980    2.5060 H   0  0  0  0  0  0  0  0  0  0  0  0
   -0.1677    5.2739    2.5402 H   0  0  0  0  0  0  0  0  0  0  0  0
    1.2543    5.2953    3.3428 H   0  0  0  0  0  0  0  0  0  0  0  0
    1.2382    5.3012    1.7099 H   0  0  0  0  0  0  0  0  0  0  0  0
    1.1270    0.9859    2.5117 H   0  0  0  0  0  0  0  0  0  0  0  0
    3.2144   -0.1924    2.4849 H   0  0  0  0  0  0  0  0  0  0  0  0
    4.9367    0.8144   -2.4469 H   0  0  0  0  0  0  0  0  0  0  0  0
    5.6652   -0.5276   -3.0258 H   0  0  0  0  0  0  0  0  0  0  0  0
    7.8588   -0.4055   -4.0956 H   0  0  0  0  0  0  0  0  0  0  0  0
    9.4392    0.9631   -5.2637 H   0  0  0  0  0  0  0  0  0  0  0  0
    9.2979    3.3450   -5.1114 H   0  0  0  0  0  0  0  0  0  0  0  0
    7.5865    4.3583   -3.7947 H   0  0  0  0  0  0  0  0  0  0  0  0
    6.0013    3.0014   -2.6201 H   0  0  0  0  0  0  0  0  0  0  0  0
    7.8525   -1.1120   -1.8712 H   0  0  0  0  0  0  0  0  0  0  0  0
    6.8763   -1.8924   -0.8202 H   0  0  0  0  0  0  0  0  0  0  0  0
    8.8285   -1.5216    0.3352 H   0  0  0  0  0  0  0  0  0  0  0  0
    8.9150    0.0261   -0.1784 H   0  0  0  0  0  0  0  0  0  0  0  0
  1  2  1  0  0  0  0
  2  3  1  0  0  0  0
  3  4  2  0  0  0  0
  4  5  1  0  0  0  0
  5  6  2  0  0  0  0
  6  7  1  0  0  0  0
  7  2  2  0  0  0  0
  7  8  1  0  0  0  0
  8  9  2  0  0  0  0
  9  1  1  0  0  0  0
  9 10  1  0  0  0  0
 10 11  1  0  0  0  0
 11 12  1  0  0  0  0
 12 13  1  0  0  0  0
 13  8  1  0  0  0  0
 11 14  1  0  0  0  0
  6 15  1  0  0  0  0
 15 16  1  0  0  0  0
 16 17  2  0  0  0  0
 17 18  1  0  0  0  0
 18 19  1  0  0  0  0
 19 20  1  0  0  0  0
 18 21  2  0  0  0  0
 21 22  1  0  0  0  0
 22 15  2  0  0  0  0
  5 23  1  0  0  0  0
 23 24  2  0  0  0  0
 23 25  1  0  0  0  0
 25 26  1  0  0  0  0
 26 27  1  0  0  0  0
 27 28  1  0  0  0  0
 28 29  2  0  0  0  0
 29 30  1  0  0  0  0
 30 31  2  0  0  0  0
 31 32  1  0  0  0  0
 32 27  2  0  0  0  0
 25 33  1  0  0  0  0
 33 34  1  0  0  0  0
 34  4  1  0  0  0  0
 10 35  1  0  0  0  0
 10 36  1  0  0  0  0
 11 37  1  0  0  0  0
 12 38  1  0  0  0  0
 12 39  1  0  0  0  0
 13 40  1  0  0  0  0
 13 41  1  0  0  0  0
 14 42  1  0  0  0  0
 14 43  1  0  0  0  0
 14 44  1  0  0  0  0
 16 45  1  0  0  0  0
 17 46  1  0  0  0  0
 20 47  1  0  0  0  0
 20 48  1  0  0  0  0
 20 49  1  0  0  0  0
 21 50  1  0  0  0  0
 22 51  1  0  0  0  0
 26 52  1  0  0  0  0
 26 53  1  0  0  0  0
 28 54  1  0  0  0  0
 29 55  1  0  0  0  0
 30 56  1  0  0  0  0
 31 57  1  0  0  0  0
 32 58  1  0  0  0  0
 33 59  1  0  0  0  0
 33 60  1  0  0  0  0
 34 61  1  0  0  0  0
 34 62  1  0  0  0  0
M  END
>  <result-rank>
28

>  <similarity>
0.858

>  <query-name>


>  <query-smiles>
Clc1ccc(cc1)CS(=O)(=O)c2cc3N=C(c4c(N(c3cc2)C)cc5c(c4)C(CCC5(C)C)(C)C)c6ccc(cc6)C([O-])=O

>  <source>
REALspace_2019-12

>  <similarity-descriptor>
0.952;0.998;0.690;0.830;0.947;0.896;0.996;0.690;0.0;0.947;0.947;0.0;1.000;0.490;0.0

>  <similarity-descriptor-smiles>
c1ccccc1;c1ccccc1;c1CCNC(c1)=O;S1C=Ccc1;C=1CCCCC1;c1ccccn1;C;c1CCNC(c1)=O;;C=1CCCCC1;C=1CCCCC1;;C;OC;

>  <reaction-name>
s_42a

>  <reagent1-name>
8631722

>  <reagent1-smiles>
[R1*]=NC=1SC2=C(C1C(=[R2*])c3ccc(OC)cc3)CCC2

>  <reagent2-name>
1111390

>  <reagent2-smiles>
[R2*]=C([N+]([O-])=O)C(=[R1*])Cc1ccccc1

$$$$
s_42a____8624686____1111534
          04022017333D 1   1.00000     0.00000     0
            
 61 65  0  0  0  0            999 V2000
    0.9903    5.9204    3.6369 S   0  0  0  0  0  0  0  0  0  0  0  0
    1.4207    5.1800    2.1642 C   0  0  0  0  0  0  0  0  0  0  0  0
    2.0674    4.0219    2.1826 N   0  0  0  0  0  0  0  0  0  0  0  0
    2.3762    3.4617    1.0049 C   0  0  0  0  0  0  0  0  0  0  0  0
    3.0732    2.1889    1.0028 C   0  0  0  0  0  0  0  0  0  0  0  0
    2.3502    1.0000    1.0000 C   0  0  0  0  0  0  0  0  0  0  0  0
    1.0000    1.0000    1.0000 O   0  0  0  0  0  0  0  0  0  0  0  0
    0.2900   -0.2298    0.9971 C   0  0  0  0  0  0  0  0  0  0  0  0
   -1.2044    0.0480    0.9978 C   0  0  0  0  0  0  0  0  0  0  0  0
   -1.6044    1.1794    1.0004 O   0  0  0  0  0  0  0  0  0  0  0  0
   -2.0947   -0.9933    0.9953 N   0  0  0  0  0  0  0  0  0  0  0  0
   -3.5399   -0.7247    0.9959 C   0  0  0  0  0  0  0  0  0  0  0  0
   -1.6047   -2.3792    0.9920 C   0  0  0  0  0  0  0  0  0  0  0  0
    3.0187   -0.2201    0.9976 C   0  0  0  0  0  0  0  0  0  0  0  0
    4.4095   -0.2514    0.9972 C   0  0  0  0  0  0  0  0  0  0  0  0
    5.1323    0.9371    0.9992 C   0  0  0  0  0  0  0  0  0  0  0  0
    4.4645    2.1572    1.0024 C   0  0  0  0  0  0  0  0  0  0  0  0
    2.0305    4.1013   -0.1822 C   0  0  0  0  0  0  0  0  0  0  0  0
    1.3542    5.3159   -0.1165 C   0  0  0  0  0  0  0  0  0  0  0  0
    1.0058    5.9632   -1.3658 C   0  0  0  0  0  0  0  0  0  0  0  0
    1.8983    6.8621   -1.9404 C   0  0  0  0  0  0  0  0  0  0  0  0
    1.5550    7.4779   -3.1393 C   0  0  0  0  0  0  0  0  0  0  0  0
    2.3955    8.3394   -3.7025 F   0  0  0  0  0  0  0  0  0  0  0  0
    0.3385    7.1967   -3.7500 C   0  0  0  0  0  0  0  0  0  0  0  0
   -0.5515    6.2971   -3.1733 C   0  0  0  0  0  0  0  0  0  0  0  0
   -0.2121    5.6791   -1.9740 C   0  0  0  0  0  0  0  0  0  0  0  0
   -0.0261    7.8747   -5.0604 C   0  0  0  0  0  0  0  0  0  0  0  0
    0.9911    5.9345    1.0815 C   0  0  0  0  0  0  0  0  0  0  0  0
    0.3065    7.1056    1.5433 C   0  0  0  0  0  0  0  0  0  0  0  0
    0.2205    7.2400    2.8793 C   0  0  0  0  0  0  0  0  0  0  0  0
   -0.5363    8.4643    3.3546 C   0  0  0  0  0  0  0  0  0  0  0  0
   -0.5323    9.3151    2.1086 C   0  0  0  0  0  0  0  0  0  0  0  0
   -0.4475    8.2977    0.9914 C   0  0  0  0  0  0  0  0  0  0  0  0
    2.3934    3.4640   -1.5137 C   0  0  0  0  0  0  0  0  0  0  0  0
    0.5316   -0.7561    1.8124 H   0  0  0  0  0  0  0  0  0  0  0  0
    0.5316   -0.7522    0.1794 H   0  0  0  0  0  0  0  0  0  0  0  0
   -4.0399   -1.5907    0.9939 H   0  0  0  0  0  0  0  0  0  0  0  0
   -3.7815   -0.2022    1.8137 H   0  0  0  0  0  0  0  0  0  0  0  0
   -3.7815   -0.1984    0.1807 H   0  0  0  0  0  0  0  0  0  0  0  0
   -2.3825   -3.0078    0.9905 H   0  0  0  0  0  0  0  0  0  0  0  0
   -1.0491   -2.5344    0.1752 H   0  0  0  0  0  0  0  0  0  0  0  0
   -1.0491   -2.5383    1.8082 H   0  0  0  0  0  0  0  0  0  0  0  0
    2.4994   -1.0747    0.9963 H   0  0  0  0  0  0  0  0  0  0  0  0
    4.8898   -1.1285    0.9954 H   0  0  0  0  0  0  0  0  0  0  0  0
    6.1320    0.9143    0.9983 H   0  0  0  0  0  0  0  0  0  0  0  0
    4.9841    3.0116    1.0043 H   0  0  0  0  0  0  0  0  0  0  0  0
    2.7727    7.0624   -1.4986 H   0  0  0  0  0  0  0  0  0  0  0  0
   -1.4256    6.0966   -3.6157 H   0  0  0  0  0  0  0  0  0  0  0  0
   -0.8438    5.0306   -1.5493 H   0  0  0  0  0  0  0  0  0  0  0  0
   -0.9279    7.5615   -5.3582 H   0  0  0  0  0  0  0  0  0  0  0  0
   -0.0441    8.8659   -4.9292 H   0  0  0  0  0  0  0  0  0  0  0  0
    0.6538    7.6429   -5.7561 H   0  0  0  0  0  0  0  0  0  0  0  0
   -0.0622    8.9178    4.1093 H   0  0  0  0  0  0  0  0  0  0  0  0
   -1.4673    8.2327    3.6369 H   0  0  0  0  0  0  0  0  0  0  0  0
    0.2581    9.9276    2.0958 H   0  0  0  0  0  0  0  0  0  0  0  0
   -1.3723    9.8533    2.0398 H   0  0  0  0  0  0  0  0  0  0  0  0
   -1.3655    8.0225    0.7058 H   0  0  0  0  0  0  0  0  0  0  0  0
    0.0429    8.6840    0.2102 H   0  0  0  0  0  0  0  0  0  0  0  0
    2.0753    4.0480   -2.2605 H   0  0  0  0  0  0  0  0  0  0  0  0
    3.3860    3.3580   -1.5731 H   0  0  0  0  0  0  0  0  0  0  0  0
    1.9577    2.5666   -1.5835 H   0  0  0  0  0  0  0  0  0  0  0  0
  1  2  1  0  0  0  0
  2  3  1  0  0  0  0
  3  4  2  0  0  0  0
  4  5  1  0  0  0  0
  5  6  1  0  0  0  0
  6  7  1  0  0  0  0
  7  8  1  0  0  0  0
  8  9  1  0  0  0  0
  9 10  2  0  0  0  0
  9 11  1  0  0  0  0
 11 12  1  0  0  0  0
 11 13  1  0  0  0  0
  6 14  2  0  0  0  0
 14 15  1  0  0  0  0
 15 16  2  0  0  0  0
 16 17  1  0  0  0  0
 17  5  2  0  0  0  0
  4 18  1  0  0  0  0
 18 19  2  0  0  0  0
 19 20  1  0  0  0  0
 20 21  1  0  0  0  0
 21 22  2  0  0  0  0
 22 23  1  0  0  0  0
 22 24  1  0  0  0  0
 24 25  2  0  0  0  0
 25 26  1  0  0  0  0
 26 20  2  0  0  0  0
 24 27  1  0  0  0  0
 19 28  1  0  0  0  0
 28  2  2  0  0  0  0
 28 29  1  0  0  0  0
 29 30  2  0  0  0  0
 30  1  1  0  0  0  0
 30 31  1  0  0  0  0
 31 32  1  0  0  0  0
 32 33  1  0  0  0  0
 33 29  1  0  0  0  0
 18 34  1  0  0  0  0
  8 35  1  0  0  0  0
  8 36  1  0  0  0  0
 12 37  1  0  0  0  0
 12 38  1  0  0  0  0
 12 39  1  0  0  0  0
 13 40  1  0  0  0  0
 13 41  1  0  0  0  0
 13 42  1  0  0  0  0
 14 43  1  0  0  0  0
 15 44  1  0  0  0  0
 16 45  1  0  0  0  0
 17 46  1  0  0  0  0
 21 47  1  0  0  0  0
 25 48  1  0  0  0  0
 26 49  1  0  0  0  0
 27 50  1  0  0  0  0
 27 51  1  0  0  0  0
 27 52  1  0  0  0  0
 31 53  1  0  0  0  0
 31 54  1  0  0  0  0
 32 55  1  0  0  0  0
 32 56  1  0  0  0  0
 33 57  1  0  0  0  0
 33 58  1  0  0  0  0
 34 59  1  0  0  0  0
 34 60  1  0  0  0  0
 34 61  1  0  0  0  0
M  END
>  <result-rank>
29

>  <similarity>
0.858

>  <query-name>


>  <query-smiles>
Clc1ccc(cc1)CS(=O)(=O)c2cc3N=C(c4c(N(c3cc2)C)cc5c(c4)C(CCC5(C)C)(C)C)c6ccc(cc6)C([O-])=O

>  <source>
REALspace_2019-12

>  <similarity-descriptor>
0.0;0.998;0.965;0.830;0.965;0.914;0.0;0.0;0.995;0.965;0.0;0.0;0.0;0.820;0.231

>  <similarity-descriptor-smiles>
;c1ccccc1;c1cccc(c1)F;S1C=Ccc1;C=1CCCC1;c1ccccn1;;;C;C=1CCCC1;;;;OCC(=O)N;C.C.C

>  <reaction-name>
s_42a

>  <reagent1-name>
8624686

>  <reagent1-smiles>
[R1*]=NC=1SC2=C(C1C(=[R2*])c3cc(F)c(cc3)C)CCC2

>  <reagent2-name>
1111534

>  <reagent2-smiles>
[R1*]=C(c1c(OCC(=O)N(C)C)cccc1)C(=[R2*])C

$$$$
s_42a____8624698____125250
          04022017333D 1   1.00000     0.00000     0
            
 61 65  0  0  0  0            999 V2000
    4.7159   -0.2985   -0.0385 Br  0  0  0  0  0  0  0  0  0  0  0  0
    5.9960   -0.0434    1.4249 C   0  0  0  0  0  0  0  0  0  0  0  0
    5.6613    0.8208    2.4636 C   0  0  0  0  0  0  0  0  0  0  0  0
    6.5113    1.0225    3.4774 N   0  0  0  0  0  0  0  0  0  0  0  0
    7.6771    0.3644    3.4262 C   0  0  0  0  0  0  0  0  0  0  0  0
    8.8464    0.5395    4.6527 S   0  0  0  0  0  0  0  0  0  0  0  0
    9.9752   -0.4979    3.9304 C   0  0  0  0  0  0  0  0  0  0  0  0
    9.4644   -0.9979    2.7926 C   0  0  0  0  0  0  0  0  0  0  0  0
    8.1456   -0.5145    2.4712 C   0  0  0  0  0  0  0  0  0  0  0  0
    7.2230   -0.6984    1.4465 C   0  0  0  0  0  0  0  0  0  0  0  0
    7.5355   -1.5916    0.3457 C   0  0  0  0  0  0  0  0  0  0  0  0
    7.9924   -1.0675   -0.8592 C   0  0  0  0  0  0  0  0  0  0  0  0
    8.2895   -1.9277   -1.9108 C   0  0  0  0  0  0  0  0  0  0  0  0
    8.1276   -3.2997   -1.7456 C   0  0  0  0  0  0  0  0  0  0  0  0
    7.6728   -3.8233   -0.5392 C   0  0  0  0  0  0  0  0  0  0  0  0
    7.3743   -2.9629    0.5121 C   0  0  0  0  0  0  0  0  0  0  0  0
    8.4526   -4.2348   -2.8995 C   0  0  0  0  0  0  0  0  0  0  0  0
    9.7301   -4.5981   -2.8293 F   0  0  0  0  0  0  0  0  0  0  0  0
    7.6799   -5.3148   -2.8260 F   0  0  0  0  0  0  0  0  0  0  0  0
    8.2322   -3.6096   -4.0524 F   0  0  0  0  0  0  0  0  0  0  0  0
   10.5988   -1.8989    2.3415 C   0  0  0  0  0  0  0  0  0  0  0  0
   11.3667   -2.2492    3.5965 C   0  0  0  0  0  0  0  0  0  0  0  0
   11.3760   -0.9179    4.3008 C   0  0  0  0  0  0  0  0  0  0  0  0
    4.3937    1.5243    2.4800 C   0  0  0  0  0  0  0  0  0  0  0  0
    4.3836    2.9156    2.4883 C   0  0  0  0  0  0  0  0  0  0  0  0
    3.1740    3.6024    2.5029 C   0  0  0  0  0  0  0  0  0  0  0  0
    1.9848    2.8811    2.5100 C   0  0  0  0  0  0  0  0  0  0  0  0
    0.4648    3.7275    2.5286 S   0  0  0  0  0  0  0  0  0  0  0  0
    0.6112    4.9918    1.8552 O   0  0  0  0  0  0  0  0  0  0  0  0
   -0.5328    2.9373    1.8547 O   0  0  0  0  0  0  0  0  0  0  0  0
    0.0043    3.9835    4.0711 N   0  0  0  0  0  0  0  0  0  0  0  0
    1.0227    4.7901    4.7590 C   0  0  0  0  0  0  0  0  0  0  0  0
    1.0366    4.4354    6.2370 C   0  0  0  0  0  0  0  0  0  0  0  0
   -1.2799    4.6986    4.0868 C   0  0  0  0  0  0  0  0  0  0  0  0
   -2.4197    3.6930    4.0919 C   0  0  0  0  0  0  0  0  0  0  0  0
    1.9898    1.4900    2.5021 C   0  0  0  0  0  0  0  0  0  0  0  0
    3.2017    0.8072    2.4872 C   0  0  0  0  0  0  0  0  0  0  0  0
    8.1063   -0.0800   -0.9683 H   0  0  0  0  0  0  0  0  0  0  0  0
    8.6179   -1.5619   -2.7816 H   0  0  0  0  0  0  0  0  0  0  0  0
    7.5614   -4.8109   -0.4289 H   0  0  0  0  0  0  0  0  0  0  0  0
    7.0456   -3.3284    1.3830 H   0  0  0  0  0  0  0  0  0  0  0  0
   11.1897   -1.4178    1.6940 H   0  0  0  0  0  0  0  0  0  0  0  0
   10.2372   -2.7262    1.9116 H   0  0  0  0  0  0  0  0  0  0  0  0
   10.8941   -2.9471    4.1346 H   0  0  0  0  0  0  0  0  0  0  0  0
   12.2933   -2.5610    3.3863 H   0  0  0  0  0  0  0  0  0  0  0  0
   11.4983   -1.0097    5.2890 H   0  0  0  0  0  0  0  0  0  0  0  0
   12.0698   -0.2975    3.9352 H   0  0  0  0  0  0  0  0  0  0  0  0
    5.2459    3.4219    2.4837 H   0  0  0  0  0  0  0  0  0  0  0  0
    3.1597    4.6022    2.5083 H   0  0  0  0  0  0  0  0  0  0  0  0
    0.8079    5.7608    4.6512 H   0  0  0  0  0  0  0  0  0  0  0  0
    1.9211    4.6015    4.3625 H   0  0  0  0  0  0  0  0  0  0  0  0
    1.7294    4.9841    6.7050 H   0  0  0  0  0  0  0  0  0  0  0  0
    0.1382    4.6241    6.6335 H   0  0  0  0  0  0  0  0  0  0  0  0
    1.2514    3.4648    6.3448 H   0  0  0  0  0  0  0  0  0  0  0  0
   -1.3494    5.2770    3.2740 H   0  0  0  0  0  0  0  0  0  0  0  0
   -1.3343    5.2682    4.9069 H   0  0  0  0  0  0  0  0  0  0  0  0
   -3.2934    4.1795    4.1026 H   0  0  0  0  0  0  0  0  0  0  0  0
   -2.3654    3.1234    3.2718 H   0  0  0  0  0  0  0  0  0  0  0  0
   -2.3503    3.1146    4.9047 H   0  0  0  0  0  0  0  0  0  0  0  0
    1.1273    0.9839    2.5071 H   0  0  0  0  0  0  0  0  0  0  0  0
    3.2159   -0.1927    2.4818 H   0  0  0  0  0  0  0  0  0  0  0  0
  1  2  1  0  0  0  0
  2  3  1  0  0  0  0
  3  4  2  0  0  0  0
  4  5  1  0  0  0  0
  5  6  1  0  0  0  0
  6  7  1  0  0  0  0
  7  8  2  0  0  0  0
  8  9  1  0  0  0  0
  9  5  2  0  0  0  0
  9 10  1  0  0  0  0
 10  2  2  0  0  0  0
 10 11  1  0  0  0  0
 11 12  1  0  0  0  0
 12 13  2  0  0  0  0
 13 14  1  0  0  0  0
 14 15  2  0  0  0  0
 15 16  1  0  0  0  0
 16 11  2  0  0  0  0
 14 17  1  0  0  0  0
 17 18  1  0  0  0  0
 17 19  1  0  0  0  0
 17 20  1  0  0  0  0
  8 21  1  0  0  0  0
 21 22  1  0  0  0  0
 22 23  1  0  0  0  0
 23  7  1  0  0  0  0
  3 24  1  0  0  0  0
 24 25  1  0  0  0  0
 25 26  2  0  0  0  0
 26 27  1  0  0  0  0
 27 28  1  0  0  0  0
 28 29  2  0  0  0  0
 28 30  2  0  0  0  0
 28 31  1  0  0  0  0
 31 32  1  0  0  0  0
 32 33  1  0  0  0  0
 31 34  1  0  0  0  0
 34 35  1  0  0  0  0
 27 36  2  0  0  0  0
 36 37  1  0  0  0  0
 37 24  2  0  0  0  0
 12 38  1  0  0  0  0
 13 39  1  0  0  0  0
 15 40  1  0  0  0  0
 16 41  1  0  0  0  0
 21 42  1  0  0  0  0
 21 43  1  0  0  0  0
 22 44  1  0  0  0  0
 22 45  1  0  0  0  0
 23 46  1  0  0  0  0
 23 47  1  0  0  0  0
 25 48  1  0  0  0  0
 26 49  1  0  0  0  0
 32 50  1  0  0  0  0
 32 51  1  0  0  0  0
 33 52  1  0  0  0  0
 33 53  1  0  0  0  0
 33 54  1  0  0  0  0
 34 55  1  0  0  0  0
 34 56  1  0  0  0  0
 35 57  1  0  0  0  0
 35 58  1  0  0  0  0
 35 59  1  0  0  0  0
 36 60  1  0  0  0  0
 37 61  1  0  0  0  0
M  END
>  <result-rank>
30

>  <similarity>
0.855

>  <query-name>


>  <query-smiles>
Clc1ccc(cc1)CS(=O)(=O)c2cc3N=C(c4c(N(c3cc2)C)cc5c(c4)C(CCC5(C)C)(C)C)c6ccc(cc6)C([O-])=O

>  <source>
REALspace_2019-12

>  <similarity-descriptor>
0.0;0.942;0.939;0.830;0.965;0.881;0.996;0.898;0.881;0.965;0.0;0.0;0.0;0.0;0.250

>  <similarity-descriptor-smiles>
;c1ccc(cc1)C(F)(F)F;c1ccccc1;c1cC=CS1;C=1CCCC1;Brc1cccnc1;C;S(=O)(=O)N;Brc1cccnc1;C=1CCCC1;;;;;C.C.C

>  <reaction-name>
s_42a

>  <reagent1-name>
8624698

>  <reagent1-smiles>
[R1*]=NC=1SC2=C(C1C(=[R2*])c3ccc(cc3)C(F)(F)F)CCC2

>  <reagent2-name>
125250

>  <reagent2-smiles>
[R2*]=C(Br)C(=[R1*])c1ccc(S(=O)(=O)N(CC)CC)cc1

$$$$
m_276010b____17282026____17248832____17280900
          04022017333D 1   1.00000     0.00000     0
            
 81 86  0  0  0  0            999 V2000
   -1.9704    6.0052   -0.2586 S   0  0  0  0  0  0  0  0  0  0  0  0
   -2.2110    6.7369    0.9581 O   0  0  0  0  0  0  0  0  0  0  0  0
   -1.1917    6.8147   -1.1596 O   0  0  0  0  0  0  0  0  0  0  0  0
   -1.1007    4.5431    0.1062 C   0  0  0  0  0  0  0  0  0  0  0  0
   -0.2328    4.0048   -0.8379 C   0  0  0  0  0  0  0  0  0  0  0  0
    0.4575    2.8357   -0.5357 C   0  0  0  0  0  0  0  0  0  0  0  0
    0.2750    2.2189    0.6980 C   0  0  0  0  0  0  0  0  0  0  0  0
   -0.5941    2.7611    1.6392 C   0  0  0  0  0  0  0  0  0  0  0  0
   -1.2864    3.9303    1.3413 C   0  0  0  0  0  0  0  0  0  0  0  0
    1.0000    1.0000    1.0000 C   0  0  0  0  0  0  0  0  0  0  0  0
    0.4000   -0.0087    1.2499 O   0  0  0  0  0  0  0  0  0  0  0  0
    2.4018    1.0000    1.0000 N   0  0  0  0  0  0  0  0  0  0  0  0
    3.2007    2.1152    0.7237 C   0  0  0  0  0  0  0  0  0  0  0  0
    4.4393    1.6680    0.3345 C   0  0  0  0  0  0  0  0  0  0  0  0
    5.4525    2.5582   -0.0094 C   0  0  0  0  0  0  0  0  0  0  0  0
    5.2251    3.9291    0.0410 C   0  0  0  0  0  0  0  0  0  0  0  0
    3.9758    4.3924    0.4387 C   0  0  0  0  0  0  0  0  0  0  0  0
    2.9748    3.4885    0.7780 C   0  0  0  0  0  0  0  0  0  0  0  0
    4.4063    0.1560    0.3727 C   0  0  3  0  0  0  0  0  0  0  0  0
    5.6631   -0.4180    0.8749 N   0  0  0  0  0  0  0  0  0  0  0  0
    6.1854   -0.1977    2.0562 N   0  0  0  0  0  0  0  0  0  0  0  0
    7.2689   -0.8312    2.1993 N   0  0  0  0  0  0  0  0  0  0  0  0
    7.4979   -1.5241    1.0487 C   0  0  0  0  0  0  0  0  0  0  0  0
    6.4750   -1.2670    0.1914 C   0  0  0  0  0  0  0  0  0  0  0  0
    8.6874   -2.4294    0.7720 C   0  0  0  0  0  0  0  0  0  0  0  0
    9.3713   -1.9556   -0.3791 O   0  0  0  0  0  0  0  0  0  0  0  0
    9.5842   -2.4334    1.9989 C   0  0  0  0  0  0  0  0  0  0  0  0
   10.4125   -3.7097    2.0042 C   0  0  0  0  0  0  0  0  0  0  0  0
    9.5072   -4.8635    2.4052 C   0  0  3  0  0  0  0  0  0  0  0  0
    8.1180   -4.6072    1.8451 C   0  0  0  0  0  0  0  0  0  0  0  0
    8.2636   -3.8698    0.5217 C   0  0  0  0  0  0  0  0  0  0  0  0
   10.1082   -6.1512    1.8626 C   0  0  0  0  0  0  0  0  0  0  0  0
    9.3934   -4.9986    3.9151 C   0  0  0  0  0  0  0  0  0  0  0  0
    3.2309   -0.1791    1.2636 C   0  0  0  0  0  0  0  0  0  0  0  0
    2.5713   -1.4819    0.8434 C   0  0  0  0  0  0  0  0  0  0  0  0
    3.6077   -0.2520    2.7351 C   0  0  0  0  0  0  0  0  0  0  0  0
   -3.5515    5.5889   -1.0350 C   0  0  0  0  0  0  0  0  0  0  0  0
   -4.3115    6.8665   -1.3538 C   0  0  0  0  0  0  0  0  0  0  0  0
   -4.1321    7.4855   -2.5865 C   0  0  0  0  0  0  0  0  0  0  0  0
   -4.8287    8.6548   -2.8738 C   0  0  0  0  0  0  0  0  0  0  0  0
   -5.6980    9.1958   -1.9323 C   0  0  0  0  0  0  0  0  0  0  0  0
   -5.8696    8.5685   -0.7044 C   0  0  0  0  0  0  0  0  0  0  0  0
   -5.1783    7.3992   -0.4049 C   0  0  0  0  0  0  0  0  0  0  0  0
   -0.1067    4.4528   -1.7230 H   0  0  0  0  0  0  0  0  0  0  0  0
    1.0851    2.4384   -1.2053 H   0  0  0  0  0  0  0  0  0  0  0  0
   -0.7204    2.3132    2.5244 H   0  0  0  0  0  0  0  0  0  0  0  0
   -1.9138    4.3280    2.0108 H   0  0  0  0  0  0  0  0  0  0  0  0
    6.3463    2.2110   -0.2934 H   0  0  0  0  0  0  0  0  0  0  0  0
    5.9497    4.5727   -0.2053 H   0  0  0  0  0  0  0  0  0  0  0  0
    3.7971    5.3754    0.4808 H   0  0  0  0  0  0  0  0  0  0  0  0
    2.0797    3.8295    1.0651 H   0  0  0  0  0  0  0  0  0  0  0  0
    4.2306   -0.1924   -0.5481 H   0  0  0  0  0  0  0  0  0  0  0  0
    6.3482   -1.6227   -0.7346 H   0  0  0  0  0  0  0  0  0  0  0  0
   10.1558   -2.5464   -0.5676 H   0  0  0  0  0  0  0  0  0  0  0  0
    9.0221   -2.3954    2.8250 H   0  0  0  0  0  0  0  0  0  0  0  0
   10.1919   -1.6397    1.9724 H   0  0  0  0  0  0  0  0  0  0  0  0
   10.7861   -3.8744    1.0913 H   0  0  0  0  0  0  0  0  0  0  0  0
   11.1620   -3.6239    2.6606 H   0  0  0  0  0  0  0  0  0  0  0  0
    7.5925   -4.0488    2.4870 H   0  0  0  0  0  0  0  0  0  0  0  0
    7.6474   -5.4771    1.6973 H   0  0  0  0  0  0  0  0  0  0  0  0
    8.9558   -4.3263   -0.0373 H   0  0  0  0  0  0  0  0  0  0  0  0
    7.3874   -3.8782    0.0399 H   0  0  0  0  0  0  0  0  0  0  0  0
    9.5259   -6.9236    2.1164 H   0  0  0  0  0  0  0  0  0  0  0  0
   10.1722   -6.0953    0.8662 H   0  0  0  0  0  0  0  0  0  0  0  0
   11.0215   -6.2813    2.2485 H   0  0  0  0  0  0  0  0  0  0  0  0
    8.7915   -5.7659    4.1367 H   0  0  0  0  0  0  0  0  0  0  0  0
   10.2997   -5.1627    4.3044 H   0  0  0  0  0  0  0  0  0  0  0  0
    9.0139   -4.1561    4.2975 H   0  0  0  0  0  0  0  0  0  0  0  0
    3.1828   -2.2463    1.0477 H   0  0  0  0  0  0  0  0  0  0  0  0
    1.7137   -1.5981    1.3444 H   0  0  0  0  0  0  0  0  0  0  0  0
    2.3832   -1.4587   -0.1385 H   0  0  0  0  0  0  0  0  0  0  0  0
    4.1723   -1.0617    2.8949 H   0  0  0  0  0  0  0  0  0  0  0  0
    4.1211    0.5678    2.9888 H   0  0  0  0  0  0  0  0  0  0  0  0
    2.7773   -0.3100    3.2893 H   0  0  0  0  0  0  0  0  0  0  0  0
   -4.0923    5.0267   -0.4093 H   0  0  0  0  0  0  0  0  0  0  0  0
   -3.3845    5.0808   -1.8799 H   0  0  0  0  0  0  0  0  0  0  0  0
   -3.5070    7.0929   -3.2611 H   0  0  0  0  0  0  0  0  0  0  0  0
   -4.7046    9.1065   -3.7573 H   0  0  0  0  0  0  0  0  0  0  0  0
   -6.1992   10.0360   -2.1390 H   0  0  0  0  0  0  0  0  0  0  0  0
   -6.4954    8.9610   -0.0304 H   0  0  0  0  0  0  0  0  0  0  0  0
   -5.3025    6.9483    0.4791 H   0  0  0  0  0  0  0  0  0  0  0  0
  1  2  2  0  0  0  0
  1  3  2  0  0  0  0
  1  4  1  0  0  0  0
  4  5  1  0  0  0  0
  5  6  2  0  0  0  0
  6  7  1  0  0  0  0
  7  8  2  0  0  0  0
  8  9  1  0  0  0  0
  9  4  2  0  0  0  0
  7 10  1  0  0  0  0
 10 11  2  0  0  0  0
 10 12  1  0  0  0  0
 12 13  1  0  0  0  0
 13 14  1  0  0  0  0
 14 15  2  0  0  0  0
 15 16  1  0  0  0  0
 16 17  2  0  0  0  0
 17 18  1  0  0  0  0
 18 13  2  0  0  0  0
 14 19  1  0  0  0  0
 19 20  1  0  0  0  0
 20 21  1  0  0  0  0
 21 22  2  0  0  0  0
 22 23  1  0  0  0  0
 23 24  2  0  0  0  0
 24 20  1  0  0  0  0
 23 25  1  0  0  0  0
 25 26  1  0  0  0  0
 25 27  1  0  0  0  0
 27 28  1  0  0  0  0
 28 29  1  0  0  0  0
 29 30  1  0  0  0  0
 30 31  1  0  0  0  0
 31 25  1  0  0  0  0
 29 32  1  0  0  0  0
 29 33  1  0  0  0  0
 19 34  1  0  0  0  0
 34 12  1  0  0  0  0
 34 35  1  0  0  0  0
 34 36  1  0  0  0  0
  1 37  1  0  0  0  0
 37 38  1  0  0  0  0
 38 39  1  0  0  0  0
 39 40  2  0  0  0  0
 40 41  1  0  0  0  0
 41 42  2  0  0  0  0
 42 43  1  0  0  0  0
 43 38  2  0  0  0  0
  5 44  1  0  0  0  0
  6 45  1  0  0  0  0
  8 46  1  0  0  0  0
  9 47  1  0  0  0  0
 15 48  1  0  0  0  0
 16 49  1  0  0  0  0
 17 50  1  0  0  0  0
 18 51  1  0  0  0  0
 19 52  1  0  0  0  0
 24 53  1  0  0  0  0
 26 54  1  0  0  0  0
 27 55  1  0  0  0  0
 27 56  1  0  0  0  0
 28 57  1  0  0  0  0
 28 58  1  0  0  0  0
 30 59  1  0  0  0  0
 30 60  1  0  0  0  0
 31 61  1  0  0  0  0
 31 62  1  0  0  0  0
 32 63  1  0  0  0  0
 32 64  1  0  0  0  0
 32 65  1  0  0  0  0
 33 66  1  0  0  0  0
 33 67  1  0  0  0  0
 33 68  1  0  0  0  0
 35 69  1  0  0  0  0
 35 70  1  0  0  0  0
 35 71  1  0  0  0  0
 36 72  1  0  0  0  0
 36 73  1  0  0  0  0
 36 74  1  0  0  0  0
 37 75  1  0  0  0  0
 37 76  1  0  0  0  0
 39 77  1  0  0  0  0
 40 78  1  0  0  0  0
 41 79  1  0  0  0  0
 42 80  1  0  0  0  0
 43 81  1  0  0  0  0
M  END
>  <result-rank>
31

>  <similarity>
0.855

>  <query-name>


>  <query-smiles>
Clc1ccc(cc1)CS(=O)(=O)c2cc3N=C(c4c(N(c3cc2)C)cc5c(c4)C(CCC5(C)C)(C)C)c6ccc(cc6)C([O-])=O

>  <source>
REALspace_2019-12

>  <similarity-descriptor>
0.952;0.985;0.939;0.632;0.826;0.675;1.000;1.000;0.995;0.826;0.826;1.000;1.000;0.0;0.143

>  <similarity-descriptor-smiles>
c1ccccc1;c1ccccc1;c1ccccc1;N1C=CN=N1;C1CCCCC1;C(=O)N1CCcc1;C;S(=O)=O;C;C1CCCCC1;C1CCCCC1;C;C;;O.C

>  <reaction-name>
m_276010b

>  <reagent1-name>
17282026

>  <reagent1-smiles>
[R1*]N=NN([R2*])C1c2c(N([R3*])C1(C)C)cccc2

>  <reagent2-name>
17248832

>  <reagent2-smiles>
[R3*]C(=O)c1ccc(S(=O)(=O)Cc2ccccc2)cc1

>  <reagent3-name>
17280900

>  <reagent3-smiles>
[R1*]C(=C[R2*])C1(O)CCC(CC1)(C)C

$$$$
s_270196____17314194____8779494
          04022017333D 1   1.00000     0.00000     0
            
 64 68  0  0  0  0            999 V2000
    4.0713    0.3232    1.3155 Cl  0  0  0  0  0  0  0  0  0  0  0  0
    3.3588    1.7213    2.1547 C   0  0  0  0  0  0  0  0  0  0  0  0
    2.0047    2.0047    2.0047 C   0  0  0  0  0  0  0  0  0  0  0  0
    1.0000    1.0000    1.0000 S   0  0  0  0  0  0  0  0  0  0  0  0
    1.0136   -0.3489    1.5039 O   0  0  0  0  0  0  0  0  0  0  0  0
    1.5039    1.0136   -0.3489 O   0  0  0  0  0  0  0  0  0  0  0  0
   -0.5269    1.5704    1.0154 N   0  0  0  0  0  0  0  0  0  0  0  0
   -0.9927    2.3520   -0.0482 C   0  0  0  0  0  0  0  0  0  0  0  0
   -0.8423    3.7340   -0.0012 C   0  0  0  0  0  0  0  0  0  0  0  0
   -1.3093    4.5002   -1.0639 C   0  0  0  0  0  0  0  0  0  0  0  0
   -1.9195    3.9032   -2.1619 C   0  0  0  0  0  0  0  0  0  0  0  0
   -2.0586    2.5190   -2.1868 C   0  0  0  0  0  0  0  0  0  0  0  0
   -1.5992    1.7330   -1.1357 C   0  0  0  0  0  0  0  0  0  0  0  0
   -1.1482    6.0111   -1.0182 C   0  0  0  0  0  0  0  0  0  0  0  0
    0.0142    6.3498   -1.5686 F   0  0  0  0  0  0  0  0  0  0  0  0
   -2.1415    6.5834   -1.6925 F   0  0  0  0  0  0  0  0  0  0  0  0
   -1.1764    6.4219    0.2465 F   0  0  0  0  0  0  0  0  0  0  0  0
   -1.4146    1.2640    2.1462 C   0  0  0  0  0  0  0  0  0  0  0  0
   -2.1693   -0.0247    1.8631 C   0  0  0  0  0  0  0  0  0  0  0  0
   -2.0392   -1.0429    2.6609 C   0  0  0  0  0  0  0  0  0  0  0  0
    1.4403    3.0958    2.6585 C   0  0  0  0  0  0  0  0  0  0  0  0
    2.2448    3.8981    3.4618 C   0  0  0  0  0  0  0  0  0  0  0  0
    3.5997    3.6223    3.6176 C   0  0  0  0  0  0  0  0  0  0  0  0
    4.1557    2.5288    2.9603 C   0  0  0  0  0  0  0  0  0  0  0  0
    1.6579    5.0362    4.1431 C   0  0  0  0  0  0  0  0  0  0  0  0
    2.2964    5.8711    4.9264 O   0  0  0  0  0  0  0  0  0  0  0  0
    1.4901    6.7492    5.3570 N   0  0  0  0  0  0  0  0  0  0  0  0
    0.2991    6.5052    4.8627 C   0  0  0  0  0  0  0  0  0  0  0  0
    0.4023    5.4000    4.0792 N   0  0  0  0  0  0  0  0  0  0  0  0
   -0.9066    7.2736    5.1105 C   0  0  0  0  0  0  0  0  0  0  0  0
   -2.0947    6.9626    4.5676 N   0  0  0  0  0  0  0  0  0  0  0  0
   -3.1931    7.6949    4.8168 C   0  0  0  0  0  0  0  0  0  0  0  0
   -3.1479    8.8248    5.6245 C   0  0  0  0  0  0  0  0  0  0  0  0
   -1.9276    9.1490    6.2033 C   0  0  0  0  0  0  0  0  0  0  0  0
   -0.7986    8.3767    5.9509 C   0  0  0  0  0  0  0  0  0  0  0  0
   -4.3758    9.6859    5.8595 C   0  0  0  0  0  0  0  0  0  0  0  0
   -5.6539    8.9227    5.5582 C   0  0  3  0  0  0  0  0  0  0  0  0
   -5.5307    8.3731    4.1455 C   0  0  0  0  0  0  0  0  0  0  0  0
   -4.5053    7.2531    4.1919 C   0  0  0  0  0  0  0  0  0  0  0  0
   -6.8234    9.8876    5.6671 C   0  0  0  0  0  0  0  0  0  0  0  0
   -0.4048    4.1703    0.7851 H   0  0  0  0  0  0  0  0  0  0  0  0
   -2.2534    4.4605   -2.9221 H   0  0  0  0  0  0  0  0  0  0  0  0
   -2.4959    2.0825   -2.9731 H   0  0  0  0  0  0  0  0  0  0  0  0
   -1.7033    0.7387   -1.1615 H   0  0  0  0  0  0  0  0  0  0  0  0
   -2.0668    2.0118    2.2702 H   0  0  0  0  0  0  0  0  0  0  0  0
   -0.8699    1.1554    2.9778 H   0  0  0  0  0  0  0  0  0  0  0  0
   -2.7660   -0.0893    1.0632 H   0  0  0  0  0  0  0  0  0  0  0  0
   -2.5357   -1.8907    2.4747 H   0  0  0  0  0  0  0  0  0  0  0  0
   -1.4426   -0.9782    3.4608 H   0  0  0  0  0  0  0  0  0  0  0  0
    0.4674    3.3011    2.5522 H   0  0  0  0  0  0  0  0  0  0  0  0
    4.1693    4.2051    4.1972 H   0  0  0  0  0  0  0  0  0  0  0  0
    5.1286    2.3233    3.0671 H   0  0  0  0  0  0  0  0  0  0  0  0
   -1.8601    9.9439    6.8062 H   0  0  0  0  0  0  0  0  0  0  0  0
    0.0793    8.6115    6.3683 H   0  0  0  0  0  0  0  0  0  0  0  0
   -4.3286   10.4890    5.2654 H   0  0  0  0  0  0  0  0  0  0  0  0
   -4.3896    9.9789    6.8156 H   0  0  0  0  0  0  0  0  0  0  0  0
   -5.7668    8.1723    6.2094 H   0  0  0  0  0  0  0  0  0  0  0  0
   -5.2248    9.0930    3.5225 H   0  0  0  0  0  0  0  0  0  0  0  0
   -6.4132    8.0181    3.8370 H   0  0  0  0  0  0  0  0  0  0  0  0
   -4.8790    6.4976    4.7301 H   0  0  0  0  0  0  0  0  0  0  0  0
   -4.3277    6.9414    3.2585 H   0  0  0  0  0  0  0  0  0  0  0  0
   -7.6755    9.4021    5.4715 H   0  0  0  0  0  0  0  0  0  0  0  0
   -6.8595   10.2646    6.5926 H   0  0  0  0  0  0  0  0  0  0  0  0
   -6.7047   10.6309    5.0088 H   0  0  0  0  0  0  0  0  0  0  0  0
  1  2  1  0  0  0  0
  2  3  1  0  0  0  0
  3  4  1  0  0  0  0
  4  5  2  0  0  0  0
  4  6  2  0  0  0  0
  4  7  1  0  0  0  0
  7  8  1  0  0  0  0
  8  9  1  0  0  0  0
  9 10  2  0  0  0  0
 10 11  1  0  0  0  0
 11 12  2  0  0  0  0
 12 13  1  0  0  0  0
 13  8  2  0  0  0  0
 10 14  1  0  0  0  0
 14 15  1  0  0  0  0
 14 16  1  0  0  0  0
 14 17  1  0  0  0  0
  7 18  1  0  0  0  0
 18 19  1  0  0  0  0
 19 20  2  0  0  0  0
  3 21  2  0  0  0  0
 21 22  1  0  0  0  0
 22 23  2  0  0  0  0
 23 24  1  0  0  0  0
 24  2  2  0  0  0  0
 22 25  1  0  0  0  0
 25 26  1  0  0  0  0
 26 27  1  0  0  0  0
 27 28  2  0  0  0  0
 28 29  1  0  0  0  0
 25 29  2  0  0  0  0
 28 30  1  0  0  0  0
 30 31  1  0  0  0  0
 31 32  2  0  0  0  0
 32 33  1  0  0  0  0
 33 34  2  0  0  0  0
 34 35  1  0  0  0  0
 35 30  2  0  0  0  0
 33 36  1  0  0  0  0
 36 37  1  0  0  0  0
 37 38  1  0  0  0  0
 38 39  1  0  0  0  0
 39 32  1  0  0  0  0
 37 40  1  0  0  0  0
  9 41  1  0  0  0  0
 11 42  1  0  0  0  0
 12 43  1  0  0  0  0
 13 44  1  0  0  0  0
 18 45  1  0  0  0  0
 18 46  1  0  0  0  0
 19 47  1  0  0  0  0
 20 48  1  0  0  0  0
 20 49  1  0  0  0  0
 21 50  1  0  0  0  0
 23 51  1  0  0  0  0
 24 52  1  0  0  0  0
 34 53  1  0  0  0  0
 35 54  1  0  0  0  0
 36 55  1  0  0  0  0
 36 56  1  0  0  0  0
 37 57  1  0  0  0  0
 38 58  1  0  0  0  0
 38 59  1  0  0  0  0
 39 60  1  0  0  0  0
 39 61  1  0  0  0  0
 40 62  1  0  0  0  0
 40 63  1  0  0  0  0
 40 64  1  0  0  0  0
M  END
>  <result-rank>
32

>  <similarity>
0.855

>  <query-name>


>  <query-smiles>
Clc1ccc(cc1)CS(=O)(=O)c2cc3N=C(c4c(N(c3cc2)C)cc5c(c4)C(CCC5(C)C)(C)C)c6ccc(cc6)C([O-])=O

>  <source>
REALspace_2019-12

>  <similarity-descriptor>
0.974;0.0;0.948;0.849;0.948;0.620;0.966;0.997;0.0;0.948;0.948;0.0;1.000;0.0;0.167

>  <similarity-descriptor-smiles>
c1cccc(c1)C(F)(F)F;;Clc1ccccc1;c1ccccn1;c1CCCCc1;C1=NC=NO1;NC;S(=O)=O;;c1CCCCc1;c1CCCCc1;;C;;C.C

>  <reaction-name>
s_270196

>  <reagent1-name>
17314194

>  <reagent1-smiles>
[R1*]=NC(=NO[R2*])c1nc2c(cc1)CC(CC2)C

>  <reagent2-name>
8779494

>  <reagent2-smiles>
[R1*]C([R2*])c1cc(S(=O)(=O)N(c2cc(ccc2)C(F)(F)F)CC=C)c(Cl)cc1

$$$$
s_42a____8709406____12433056
          04022017333D 1   1.00000     0.00000     0
            
 52 57  0  0  0  0            999 V2000
    5.6469    1.3987   -0.3874 Br  0  0  0  0  0  0  0  0  0  0  0  0
    6.3701    0.6672    1.2803 C   0  0  0  0  0  0  0  0  0  0  0  0
    5.6612    0.8208    2.4636 C   0  0  0  0  0  0  0  0  0  0  0  0
    6.1239    0.3320    3.6166 N   0  0  0  0  0  0  0  0  0  0  0  0
    7.2929   -0.3090    3.5561 C   0  0  0  0  0  0  0  0  0  0  0  0
    7.9668   -0.9890    4.9580 S   0  0  0  0  0  0  0  0  0  0  0  0
    9.3178   -1.6108    4.1523 C   0  0  0  0  0  0  0  0  0  0  0  0
    9.2791   -1.2917    2.8489 C   0  0  0  0  0  0  0  0  0  0  0  0
    8.1066   -0.5405    2.4696 C   0  0  0  0  0  0  0  0  0  0  0  0
    7.5856   -0.0094    1.2983 C   0  0  0  0  0  0  0  0  0  0  0  0
    8.3033   -0.1550    0.0456 C   0  0  0  0  0  0  0  0  0  0  0  0
    9.4850    0.5531   -0.1469 C   0  0  0  0  0  0  0  0  0  0  0  0
   10.1661    0.4078   -1.3510 C   0  0  0  0  0  0  0  0  0  0  0  0
   11.2977    1.0783   -1.5503 F   0  0  0  0  0  0  0  0  0  0  0  0
    9.6702   -0.4318   -2.3426 C   0  0  0  0  0  0  0  0  0  0  0  0
   10.5584   -0.6028   -3.8757 Cl  0  0  0  0  0  0  0  0  0  0  0  0
    8.4883   -1.1388   -2.1460 C   0  0  0  0  0  0  0  0  0  0  0  0
    7.8045   -0.9976   -0.9435 C   0  0  0  0  0  0  0  0  0  0  0  0
   10.5697   -1.9165    2.3600 C   0  0  0  0  0  0  0  0  0  0  0  0
   11.4638   -1.9206    3.5828 C   0  0  0  0  0  0  0  0  0  0  0  0
   10.4909   -2.4386    4.6175 C   0  0  0  0  0  0  0  0  0  0  0  0
    4.3934    1.5238    2.4792 C   0  0  0  0  0  0  0  0  0  0  0  0
    4.3898    2.9144    2.4850 C   0  0  0  0  0  0  0  0  0  0  0  0
    3.1783    3.5981    2.5011 C   0  0  0  0  0  0  0  0  0  0  0  0
    1.9856    2.8824    2.5103 C   0  0  0  0  0  0  0  0  0  0  0  0
    0.8052    3.5371    2.5243 O   0  0  0  0  0  0  0  0  0  0  0  0
    0.2263    3.8603    3.7006 C   0  0  0  0  0  0  0  0  0  0  0  0
   -0.6542    2.9651    4.2987 C   0  0  0  0  0  0  0  0  0  0  0  0
   -1.2544    3.2908    5.5102 C   0  0  0  0  0  0  0  0  0  0  0  0
   -0.9640    4.5119    6.1096 C   0  0  0  0  0  0  0  0  0  0  0  0
   -1.7274    4.9356    7.6604 Cl  0  0  0  0  0  0  0  0  0  0  0  0
   -0.0839    5.4110    5.5169 C   0  0  0  0  0  0  0  0  0  0  0  0
    0.5126    5.0791    4.3052 C   0  0  0  0  0  0  0  0  0  0  0  0
    1.9898    1.4913    2.5046 C   0  0  0  0  0  0  0  0  0  0  0  0
    3.2009    0.8075    2.4890 C   0  0  0  0  0  0  0  0  0  0  0  0
    9.8388    1.1562    0.5680 H   0  0  0  0  0  0  0  0  0  0  0  0
    8.1346   -1.7416   -2.8613 H   0  0  0  0  0  0  0  0  0  0  0  0
    6.9544   -1.5012   -0.7895 H   0  0  0  0  0  0  0  0  0  0  0  0
   10.9735   -1.3695    1.6267 H   0  0  0  0  0  0  0  0  0  0  0  0
   10.4116   -2.8480    2.0326 H   0  0  0  0  0  0  0  0  0  0  0  0
   12.2456   -2.5337    3.4688 H   0  0  0  0  0  0  0  0  0  0  0  0
   11.7902   -1.0024    3.8070 H   0  0  0  0  0  0  0  0  0  0  0  0
   10.3271   -3.4218    4.5368 H   0  0  0  0  0  0  0  0  0  0  0  0
   10.7699   -2.2229    5.5533 H   0  0  0  0  0  0  0  0  0  0  0  0
    5.2527    3.4198    2.4778 H   0  0  0  0  0  0  0  0  0  0  0  0
    3.1650    4.5980    2.5060 H   0  0  0  0  0  0  0  0  0  0  0  0
   -0.8552    2.0898    3.8588 H   0  0  0  0  0  0  0  0  0  0  0  0
   -1.8890    2.6529    5.9464 H   0  0  0  0  0  0  0  0  0  0  0  0
    0.1176    6.2861    5.9569 H   0  0  0  0  0  0  0  0  0  0  0  0
    1.1473    5.7170    3.8690 H   0  0  0  0  0  0  0  0  0  0  0  0
    1.1270    0.9859    2.5117 H   0  0  0  0  0  0  0  0  0  0  0  0
    3.2144   -0.1924    2.4849 H   0  0  0  0  0  0  0  0  0  0  0  0
  1  2  1  0  0  0  0
  2  3  1  0  0  0  0
  3  4  2  0  0  0  0
  4  5  1  0  0  0  0
  5  6  1  0  0  0  0
  6  7  1  0  0  0  0
  7  8  2  0  0  0  0
  8  9  1  0  0  0  0
  9  5  2  0  0  0  0
  9 10  1  0  0  0  0
 10  2  2  0  0  0  0
 10 11  1  0  0  0  0
 11 12  1  0  0  0  0
 12 13  2  0  0  0  0
 13 14  1  0  0  0  0
 13 15  1  0  0  0  0
 15 16  1  0  0  0  0
 15 17  2  0  0  0  0
 17 18  1  0  0  0  0
 18 11  2  0  0  0  0
  8 19  1  0  0  0  0
 19 20  1  0  0  0  0
 20 21  1  0  0  0  0
 21  7  1  0  0  0  0
  3 22  1  0  0  0  0
 22 23  1  0  0  0  0
 23 24  2  0  0  0  0
 24 25  1  0  0  0  0
 25 26  1  0  0  0  0
 26 27  1  0  0  0  0
 27 28  1  0  0  0  0
 28 29  2  0  0  0  0
 29 30  1  0  0  0  0
 30 31  1  0  0  0  0
 30 32  2  0  0  0  0
 32 33  1  0  0  0  0
 33 27  2  0  0  0  0
 25 34  2  0  0  0  0
 34 35  1  0  0  0  0
 35 22  2  0  0  0  0
 12 36  1  0  0  0  0
 17 37  1  0  0  0  0
 18 38  1  0  0  0  0
 19 39  1  0  0  0  0
 19 40  1  0  0  0  0
 20 41  1  0  0  0  0
 20 42  1  0  0  0  0
 21 43  1  0  0  0  0
 21 44  1  0  0  0  0
 23 45  1  0  0  0  0
 24 46  1  0  0  0  0
 28 47  1  0  0  0  0
 29 48  1  0  0  0  0
 32 49  1  0  0  0  0
 33 50  1  0  0  0  0
 34 51  1  0  0  0  0
 35 52  1  0  0  0  0
M  END
>  <result-rank>
33

>  <similarity>
0.855

>  <query-name>


>  <query-smiles>
Clc1ccc(cc1)CS(=O)(=O)c2cc3N=C(c4c(N(c3cc2)C)cc5c(c4)C(CCC5(C)C)(C)C)c6ccc(cc6)C([O-])=O

>  <source>
REALspace_2019-12

>  <similarity-descriptor>
0.988;0.932;0.670;0.830;0.965;0.881;0.670;0.670;0.881;0.965;0.0;0.0;0.0;0.0;0.0

>  <similarity-descriptor-smiles>
Oc1ccc(cc1)Cl;c1ccc(c(c1)F)Cl;c1ccccc1;c1cC=CS1;C=1CCCC1;Brc1cccnc1;c1ccccc1;c1ccccc1;Brc1cccnc1;C=1CCCC1;;;;;

>  <reaction-name>
s_42a

>  <reagent1-name>
8709406

>  <reagent1-smiles>
[R1*]=NC=1SC2=C(C1C(=[R2*])c3cc(F)c(Cl)cc3)CCC2

>  <reagent2-name>
12433056

>  <reagent2-smiles>
[R2*]=C(Br)C(=[R1*])c1ccc(Oc2ccc(Cl)cc2)cc1

$$$$
s_42a____9450124____125184
          04022017333D 1   1.00000     0.00000     0
            
 63 68  0  0  0  0            999 V2000
    9.4589   -1.5333    0.9823 S   0  0  0  0  0  0  0  0  0  0  0  0
    8.5345   -0.1065    0.9972 C   0  0  0  0  0  0  0  0  0  0  0  0
    7.2056   -0.1875    0.9951 N   0  0  0  0  0  0  0  0  0  0  0  0
    6.5600    0.9798    0.9971 C   0  0  0  0  0  0  0  0  0  0  0  0
    5.1146    0.9796    0.9975 C   0  0  0  0  0  0  0  0  0  0  0  0
    4.4370    2.1940    0.9996 C   0  0  0  0  0  0  0  0  0  0  0  0
    3.0459    2.2044    1.0013 C   0  0  0  0  0  0  0  0  0  0  0  0
    2.3499    1.0000    1.0000 C   0  0  0  0  0  0  0  0  0  0  0  0
    1.0000    1.0000    1.0000 O   0  0  0  0  0  0  0  0  0  0  0  0
    0.2900   -0.2298    0.9987 C   0  0  0  0  0  0  0  0  0  0  0  0
   -1.2044    0.0480    0.9990 C   0  0  0  0  0  0  0  0  0  0  0  0
   -1.6044    1.1794    1.0002 O   0  0  0  0  0  0  0  0  0  0  0  0
   -2.0947   -0.9933    0.9979 N   0  0  0  0  0  0  0  0  0  0  0  0
   -3.4714   -0.7374    0.9982 C   0  0  0  0  0  0  0  0  0  0  0  0
   -4.2839   -1.1919   -0.0352 C   0  0  0  0  0  0  0  0  0  0  0  0
   -5.6490   -0.9278   -0.0139 C   0  0  0  0  0  0  0  0  0  0  0  0
   -6.2017   -0.2080    1.0400 C   0  0  0  0  0  0  0  0  0  0  0  0
   -5.3894    0.2465    2.0731 C   0  0  0  0  0  0  0  0  0  0  0  0
   -4.0242   -0.0184    2.0523 C   0  0  0  0  0  0  0  0  0  0  0  0
   -3.6798   -1.9779   -1.1876 C   0  0  0  0  0  0  0  0  0  0  0  0
    3.0283   -0.2145    0.9981 C   0  0  0  0  0  0  0  0  0  0  0  0
    4.4192   -0.2251    0.9969 C   0  0  0  0  0  0  0  0  0  0  0  0
    7.2372    2.1953    0.9969 C   0  0  0  0  0  0  0  0  0  0  0  0
    8.6297    2.1925    0.9981 C   0  0  0  0  0  0  0  0  0  0  0  0
    9.3182    3.4690    0.9929 C   0  0  0  0  0  0  0  0  0  0  0  0
    8.9576    4.4377    0.0619 C   0  0  0  0  0  0  0  0  0  0  0  0
    9.6173    5.6627    0.0560 C   0  0  0  0  0  0  0  0  0  0  0  0
   10.6286    5.9027    0.9808 C   0  0  0  0  0  0  0  0  0  0  0  0
   11.3497    7.2411    0.9752 C   0  0  0  0  0  0  0  0  0  0  0  0
   11.8905    8.2446    0.9715 N   0  0  0  0  0  0  0  0  0  0  0  0
   10.9883    4.9339    1.9118 C   0  0  0  0  0  0  0  0  0  0  0  0
   10.3290    3.7087    1.9181 C   0  0  0  0  0  0  0  0  0  0  0  0
    9.3564    1.0042    1.0020 C   0  0  0  0  0  0  0  0  0  0  0  0
   10.7444    0.6086    0.9777 C   0  0  0  0  0  0  0  0  0  0  0  0
   10.9488   -0.7136    0.9551 C   0  0  0  0  0  0  0  0  0  0  0  0
   12.3841   -1.1812    0.8976 C   0  0  0  0  0  0  0  0  0  0  0  0
   12.9895    0.0134    1.5928 C   0  0  0  0  0  0  0  0  0  0  0  0
   12.1718    1.1178    0.9609 C   0  0  0  0  0  0  0  0  0  0  0  0
    4.9466    3.0545    1.0000 H   0  0  0  0  0  0  0  0  0  0  0  0
    2.5493    3.0723    1.0034 H   0  0  0  0  0  0  0  0  0  0  0  0
    0.5316   -0.7550    1.8146 H   0  0  0  0  0  0  0  0  0  0  0  0
    0.5316   -0.7533    0.1817 H   0  0  0  0  0  0  0  0  0  0  0  0
   -1.7613   -1.9361    0.9969 H   0  0  0  0  0  0  0  0  0  0  0  0
   -6.2334   -1.2555   -0.7563 H   0  0  0  0  0  0  0  0  0  0  0  0
   -7.1832   -0.0173    1.0548 H   0  0  0  0  0  0  0  0  0  0  0  0
   -5.7869    0.7638    2.8310 H   0  0  0  0  0  0  0  0  0  0  0  0
   -3.4401    0.3082    2.7954 H   0  0  0  0  0  0  0  0  0  0  0  0
   -4.3997   -2.2245   -1.8365 H   0  0  0  0  0  0  0  0  0  0  0  0
   -2.9925   -1.4172   -1.6494 H   0  0  0  0  0  0  0  0  0  0  0  0
   -3.2499   -2.8091   -0.8350 H   0  0  0  0  0  0  0  0  0  0  0  0
    2.5188   -1.0750    0.9976 H   0  0  0  0  0  0  0  0  0  0  0  0
    4.9159   -1.0930    0.9956 H   0  0  0  0  0  0  0  0  0  0  0  0
    6.7314    3.0579    0.9961 H   0  0  0  0  0  0  0  0  0  0  0  0
    8.2292    4.2549   -0.5984 H   0  0  0  0  0  0  0  0  0  0  0  0
    9.3662    6.3662   -0.6089 H   0  0  0  0  0  0  0  0  0  0  0  0
   11.7162    5.1169    2.5726 H   0  0  0  0  0  0  0  0  0  0  0  0
   10.5800    3.0053    2.5831 H   0  0  0  0  0  0  0  0  0  0  0  0
   12.7153   -1.2876   -0.0399 H   0  0  0  0  0  0  0  0  0  0  0  0
   12.5302   -2.0325    1.4015 H   0  0  0  0  0  0  0  0  0  0  0  0
   13.9639    0.1085    1.3888 H   0  0  0  0  0  0  0  0  0  0  0  0
   12.8586   -0.0265    2.5834 H   0  0  0  0  0  0  0  0  0  0  0  0
   12.2502    1.9612    1.4924 H   0  0  0  0  0  0  0  0  0  0  0  0
   12.4739    1.2857    0.0225 H   0  0  0  0  0  0  0  0  0  0  0  0
  1  2  1  0  0  0  0
  2  3  1  0  0  0  0
  3  4  2  0  0  0  0
  4  5  1  0  0  0  0
  5  6  1  0  0  0  0
  6  7  2  0  0  0  0
  7  8  1  0  0  0  0
  8  9  1  0  0  0  0
  9 10  1  0  0  0  0
 10 11  1  0  0  0  0
 11 12  2  0  0  0  0
 11 13  1  0  0  0  0
 13 14  1  0  0  0  0
 14 15  1  0  0  0  0
 15 16  2  0  0  0  0
 16 17  1  0  0  0  0
 17 18  2  0  0  0  0
 18 19  1  0  0  0  0
 19 14  2  0  0  0  0
 15 20  1  0  0  0  0
  8 21  2  0  0  0  0
 21 22  1  0  0  0  0
 22  5  2  0  0  0  0
  4 23  1  0  0  0  0
 23 24  2  0  0  0  0
 24 25  1  0  0  0  0
 25 26  1  0  0  0  0
 26 27  2  0  0  0  0
 27 28  1  0  0  0  0
 28 29  1  0  0  0  0
 29 30  3  0  0  0  0
 28 31  2  0  0  0  0
 31 32  1  0  0  0  0
 32 25  2  0  0  0  0
 24 33  1  0  0  0  0
 33  2  2  0  0  0  0
 33 34  1  0  0  0  0
 34 35  2  0  0  0  0
 35  1  1  0  0  0  0
 35 36  1  0  0  0  0
 36 37  1  0  0  0  0
 37 38  1  0  0  0  0
 38 34  1  0  0  0  0
  6 39  1  0  0  0  0
  7 40  1  0  0  0  0
 10 41  1  0  0  0  0
 10 42  1  0  0  0  0
 13 43  1  0  0  0  0
 16 44  1  0  0  0  0
 17 45  1  0  0  0  0
 18 46  1  0  0  0  0
 19 47  1  0  0  0  0
 20 48  1  0  0  0  0
 20 49  1  0  0  0  0
 20 50  1  0  0  0  0
 21 51  1  0  0  0  0
 22 52  1  0  0  0  0
 23 53  1  0  0  0  0
 26 54  1  0  0  0  0
 27 55  1  0  0  0  0
 31 56  1  0  0  0  0
 32 57  1  0  0  0  0
 36 58  1  0  0  0  0
 36 59  1  0  0  0  0
 37 60  1  0  0  0  0
 37 61  1  0  0  0  0
 38 62  1  0  0  0  0
 38 63  1  0  0  0  0
M  END
>  <result-rank>
34

>  <similarity>
0.855

>  <query-name>


>  <query-smiles>
Clc1ccc(cc1)CS(=O)(=O)c2cc3N=C(c4c(N(c3cc2)C)cc5c(c4)C(CCC5(C)C)(C)C)c6ccc(cc6)C([O-])=O

>  <source>
REALspace_2019-12

>  <similarity-descriptor>
0.957;1.000;0.937;0.830;0.965;0.855;0.159;0.744;0.0;0.965;0.0;0.0;0.0;0.493;0.0

>  <similarity-descriptor-smiles>
c1ccccc1C;c1ccccc1;c1ccccc1;S1C=Ccc1;C=1CCCC1;c1ccccn1;N;OCC=O;;C=1CCCC1;;;;C#N;

>  <reaction-name>
s_42a

>  <reagent1-name>
9450124

>  <reagent1-smiles>
[R1*]=NC=1SC2=C(C1C(=[R2*])c3ccc(C#N)cc3)CCC2

>  <reagent2-name>
125184

>  <reagent2-smiles>
[R1*]=C(c1ccc(OCC(=O)Nc2c(cccc2)C)cc1)C=[R2*]

$$$$
s_2____11687950____2785940____7793932
          04022017333D 1   1.00000     0.00000     0
            
 73 78  0  0  0  0            999 V2000
    7.1901   -5.0555   -0.5212 S   0  0  0  0  0  0  0  0  0  0  0  0
    6.6238   -6.3706   -0.3676 O   0  0  0  0  0  0  0  0  0  0  0  0
    7.7263   -4.9161   -1.8504 O   0  0  0  0  0  0  0  0  0  0  0  0
    8.3824   -4.8465    0.5704 N   0  0  0  0  0  0  0  0  0  0  0  0
    5.9539   -3.8584   -0.2661 C   0  0  0  0  0  0  0  0  0  0  0  0
    4.8727   -3.7885   -1.1382 C   0  0  0  0  0  0  0  0  0  0  0  0
    3.8880   -2.8290   -0.9295 C   0  0  0  0  0  0  0  0  0  0  0  0
    3.9934   -1.9527    0.1454 C   0  0  0  0  0  0  0  0  0  0  0  0
    2.9979   -0.9893    0.3491 N   0  0  0  0  0  0  0  0  0  0  0  0
    2.0224   -1.2372    1.1281 C   0  0  0  0  0  0  0  0  0  0  0  0
    1.6926   -2.7123    1.9131 S   0  0  0  0  0  0  0  0  0  0  0  0
    0.2720   -2.2228    2.7207 C   0  0  0  0  0  0  0  0  0  0  0  0
    0.1074   -0.9240    2.3464 C   0  0  0  0  0  0  0  0  0  0  0  0
    1.0330   -0.3817    1.5001 N   0  0  0  0  0  0  0  0  0  0  0  0
    1.0000    1.0000    1.0000 C   0  0  0  0  0  0  0  0  0  0  0  0
    1.8776    1.8776    1.8776 C   0  0  0  0  0  0  0  0  0  0  0  0
    3.1598    2.2074    1.4510 C   0  0  0  0  0  0  0  0  0  0  0  0
    3.9661    3.0108    2.2503 C   0  0  0  0  0  0  0  0  0  0  0  0
    3.4787    3.4751    3.4679 C   0  0  0  0  0  0  0  0  0  0  0  0
    4.2580    4.2548    4.2469 O   0  0  0  0  0  0  0  0  0  0  0  0
    3.7036    4.9051    5.3810 C   0  0  0  0  0  0  0  0  0  0  0  0
    4.7838    5.7136    6.0796 C   0  0  0  0  0  0  0  0  0  0  0  0
    4.9867    7.0369    5.7016 C   0  0  0  0  0  0  0  0  0  0  0  0
    5.9752    7.7754    6.3428 C   0  0  0  0  0  0  0  0  0  0  0  0
    6.1864    9.0415    5.9961 F   0  0  0  0  0  0  0  0  0  0  0  0
    6.7490    7.2001    7.3455 C   0  0  0  0  0  0  0  0  0  0  0  0
    6.5372    5.8751    7.7140 C   0  0  0  0  0  0  0  0  0  0  0  0
    5.5507    5.1262    7.0808 C   0  0  0  0  0  0  0  0  0  0  0  0
    2.1972    3.1480    3.8994 C   0  0  0  0  0  0  0  0  0  0  0  0
    1.3951    2.3447    3.0959 C   0  0  0  0  0  0  0  0  0  0  0  0
   -1.0392   -0.2019    2.8703 C   0  0  0  0  0  0  0  0  0  0  0  0
   -1.5733   -0.3708    4.4804 S   0  0  0  0  0  0  0  0  0  0  0  0
   -2.8638    0.7312    4.3450 C   0  0  0  0  0  0  0  0  0  0  0  0
   -2.8730    1.1787    3.0596 C   0  0  0  0  0  0  0  0  0  0  0  0
   -1.8478    0.6866    2.2100 C   0  0  0  0  0  0  0  0  0  0  0  0
   -3.9707    2.1484    2.6640 C   0  0  0  0  0  0  0  0  0  0  0  0
   -4.5992    2.6111    3.9048 N   0  0  0  0  0  0  0  0  0  0  0  0
   -4.7719    3.9630    4.2171 C   0  0  0  0  0  0  0  0  0  0  0  0
   -5.6274    4.2957    4.9900 O   0  0  0  0  0  0  0  0  0  0  0  0
   -3.8760    5.0113    3.5776 C   0  0  0  0  0  0  0  0  0  0  0  0
   -5.0339    1.5070    4.7676 C   0  0  0  0  0  0  0  0  0  0  0  0
   -3.7684    1.1057    5.4961 C   0  0  0  0  0  0  0  0  0  0  0  0
    5.0769   -2.0277    1.0134 C   0  0  0  0  0  0  0  0  0  0  0  0
    6.0653   -2.9847    0.8103 C   0  0  0  0  0  0  0  0  0  0  0  0
    8.7757   -3.9333    0.4637 H   0  0  0  0  0  0  0  0  0  0  0  0
    8.0101   -4.9434    1.4934 H   0  0  0  0  0  0  0  0  0  0  0  0
    4.8040   -4.4226   -1.9085 H   0  0  0  0  0  0  0  0  0  0  0  0
    3.1064   -2.7692   -1.5504 H   0  0  0  0  0  0  0  0  0  0  0  0
   -0.3071   -2.7653    3.3294 H   0  0  0  0  0  0  0  0  0  0  0  0
    0.0599    1.3403    1.0225 H   0  0  0  0  0  0  0  0  0  0  0  0
    1.3403    1.0225    0.0599 H   0  0  0  0  0  0  0  0  0  0  0  0
    3.5002    1.8685    0.5739 H   0  0  0  0  0  0  0  0  0  0  0  0
    4.8894    3.2528    1.9521 H   0  0  0  0  0  0  0  0  0  0  0  0
    3.3386    4.2208    6.0123 H   0  0  0  0  0  0  0  0  0  0  0  0
    2.9672    5.5152    5.0886 H   0  0  0  0  0  0  0  0  0  0  0  0
    4.4308    7.4503    4.9805 H   0  0  0  0  0  0  0  0  0  0  0  0
    7.4574    7.7388    7.8016 H   0  0  0  0  0  0  0  0  0  0  0  0
    7.0943    5.4612    8.4340 H   0  0  0  0  0  0  0  0  0  0  0  0
    5.3940    4.1740    7.3430 H   0  0  0  0  0  0  0  0  0  0  0  0
    1.8569    3.4863    4.7767 H   0  0  0  0  0  0  0  0  0  0  0  0
    0.4717    2.1029    3.3939 H   0  0  0  0  0  0  0  0  0  0  0  0
   -1.7306    0.9535    1.2534 H   0  0  0  0  0  0  0  0  0  0  0  0
   -3.5816    2.9234    2.1660 H   0  0  0  0  0  0  0  0  0  0  0  0
   -4.6457    1.6872    2.0881 H   0  0  0  0  0  0  0  0  0  0  0  0
   -3.2243    4.5639    2.9651 H   0  0  0  0  0  0  0  0  0  0  0  0
   -4.4360    5.6549    3.0558 H   0  0  0  0  0  0  0  0  0  0  0  0
   -3.3785    5.5046    4.2910 H   0  0  0  0  0  0  0  0  0  0  0  0
   -5.3890    0.7469    4.2234 H   0  0  0  0  0  0  0  0  0  0  0  0
   -5.7353    1.8120    5.4118 H   0  0  0  0  0  0  0  0  0  0  0  0
   -3.3927    1.8682    6.0227 H   0  0  0  0  0  0  0  0  0  0  0  0
   -3.9277    0.3275    6.1035 H   0  0  0  0  0  0  0  0  0  0  0  0
    5.1456   -1.3936    1.7836 H   0  0  0  0  0  0  0  0  0  0  0  0
    6.8471   -3.0440    1.4310 H   0  0  0  0  0  0  0  0  0  0  0  0
  1  2  2  0  0  0  0
  1  3  2  0  0  0  0
  1  4  1  0  0  0  0
  1  5  1  0  0  0  0
  5  6  1  0  0  0  0
  6  7  2  0  0  0  0
  7  8  1  0  0  0  0
  8  9  1  0  0  0  0
  9 10  2  0  0  0  0
 10 11  1  0  0  0  0
 11 12  1  0  0  0  0
 12 13  2  0  0  0  0
 13 14  1  0  0  0  0
 14 10  1  0  0  0  0
 14 15  1  0  0  0  0
 15 16  1  0  0  0  0
 16 17  1  0  0  0  0
 17 18  2  0  0  0  0
 18 19  1  0  0  0  0
 19 20  1  0  0  0  0
 20 21  1  0  0  0  0
 21 22  1  0  0  0  0
 22 23  1  0  0  0  0
 23 24  2  0  0  0  0
 24 25  1  0  0  0  0
 24 26  1  0  0  0  0
 26 27  2  0  0  0  0
 27 28  1  0  0  0  0
 28 22  2  0  0  0  0
 19 29  2  0  0  0  0
 29 30  1  0  0  0  0
 30 16  2  0  0  0  0
 13 31  1  0  0  0  0
 31 32  1  0  0  0  0
 32 33  1  0  0  0  0
 33 34  2  0  0  0  0
 34 35  1  0  0  0  0
 31 35  2  0  0  0  0
 34 36  1  0  0  0  0
 36 37  1  0  0  0  0
 37 38  1  0  0  0  0
 38 39  2  0  0  0  0
 38 40  1  0  0  0  0
 37 41  1  0  0  0  0
 41 42  1  0  0  0  0
 42 33  1  0  0  0  0
  8 43  2  0  0  0  0
 43 44  1  0  0  0  0
 44  5  2  0  0  0  0
  4 45  1  0  0  0  0
  4 46  1  0  0  0  0
  6 47  1  0  0  0  0
  7 48  1  0  0  0  0
 12 49  1  0  0  0  0
 15 50  1  0  0  0  0
 15 51  1  0  0  0  0
 17 52  1  0  0  0  0
 18 53  1  0  0  0  0
 21 54  1  0  0  0  0
 21 55  1  0  0  0  0
 23 56  1  0  0  0  0
 26 57  1  0  0  0  0
 27 58  1  0  0  0  0
 28 59  1  0  0  0  0
 29 60  1  0  0  0  0
 30 61  1  0  0  0  0
 35 62  1  0  0  0  0
 36 63  1  0  0  0  0
 36 64  1  0  0  0  0
 40 65  1  0  0  0  0
 40 66  1  0  0  0  0
 40 67  1  0  0  0  0
 41 68  1  0  0  0  0
 41 69  1  0  0  0  0
 42 70  1  0  0  0  0
 42 71  1  0  0  0  0
 43 72  1  0  0  0  0
 44 73  1  0  0  0  0
M  END
>  <result-rank>
35

>  <similarity>
0.854

>  <query-name>


>  <query-smiles>
Clc1ccc(cc1)CS(=O)(=O)c2cc3N=C(c4c(N(c3cc2)C)cc5c(c4)C(CCC5(C)C)(C)C)c6ccc(cc6)C([O-])=O

>  <source>
REALspace_2019-12

>  <similarity-descriptor>
0.985;0.998;0.874;0.916;0.976;0.768;0.540;0.540;0.0;0.976;0.0;0.0;0.243;0.909;0.143

>  <similarity-descriptor-smiles>
c1cccc(c1)F;c1ccccc1;Cc1ccccc1;C1=CC=CS1;C=1CCNCC1;N=C1NC=CS1;OC;OC;;C=1CCNCC1;;;C=O;S(=O)=O;N.C

>  <reaction-name>
s_2

>  <reagent1-name>
11687950

>  <reagent1-smiles>
[R1*]SC([R3*])=Nc1ccc(S(=O)(=O)N)cc1

>  <reagent2-name>
2785940

>  <reagent2-smiles>
[R2*]N([R3*])Cc1ccc(OCc2cc(F)ccc2)cc1

>  <reagent3-name>
7793932

>  <reagent3-smiles>
[R2*]C(C=1SC2=C(C1)CN(C(=O)C)CC2)=C[R1*]

$$$$
s_22____15097550____59237
          04022017333D 1   1.00000     0.00000     0
            
 74 79  0  0  0  0            999 V2000
   -1.4746    4.8035    3.2676 O   0  0  0  0  0  0  0  0  0  0  0  0
   -1.3069    5.3772    2.2030 C   0  0  0  0  0  0  0  0  0  0  0  0
   -0.9316    6.6447    2.1689 O   0  0  0  0  0  0  0  0  0  0  0  0
   -0.7424    7.2910    1.0309 C   0  0  0  0  0  0  0  0  0  0  0  0
   -0.9332    6.6543   -0.1918 C   0  0  0  0  0  0  0  0  0  0  0  0
   -0.7410    7.3124   -1.4023 C   0  0  0  0  0  0  0  0  0  0  0  0
   -0.3464    8.6459   -1.3902 C   0  0  0  0  0  0  0  0  0  0  0  0
   -0.1495    9.3023   -0.1790 C   0  0  0  0  0  0  0  0  0  0  0  0
   -0.3477    8.6247    1.0196 C   0  0  0  0  0  0  0  0  0  0  0  0
   -1.3369    5.2934   -0.2007 C   0  0  0  0  0  0  0  0  0  0  0  0
   -1.5236    4.6551    0.9976 C   0  0  0  0  0  0  0  0  0  0  0  0
   -1.9357    3.2646    1.0000 C   0  0  0  0  0  0  0  0  0  0  0  0
   -3.1675    2.8055    1.0035 N   0  0  0  0  0  0  0  0  0  0  0  0
   -3.1893    1.4941    0.9985 N   0  0  0  0  0  0  0  0  0  0  0  0
   -4.3398    0.6962    0.9986 C   0  0  0  0  0  0  0  0  0  0  0  0
   -5.5946    1.2970    1.0043 C   0  0  0  0  0  0  0  0  0  0  0  0
   -6.7353    0.5010    1.0041 C   0  0  0  0  0  0  0  0  0  0  0  0
   -6.6163   -0.8846    0.9985 C   0  0  0  0  0  0  0  0  0  0  0  0
   -5.3566   -1.4745    0.9922 C   0  0  0  0  0  0  0  0  0  0  0  0
   -4.2090   -0.6886    0.9925 C   0  0  0  0  0  0  0  0  0  0  0  0
   -1.9089    1.0304    1.0018 C   0  0  0  0  0  0  0  0  0  0  0  0
   -1.1013    2.1258    1.0000 C   0  0  0  0  0  0  0  0  0  0  0  0
    0.3500    2.1258    1.0000 C   0  0  0  0  0  0  0  0  0  0  0  0
    1.0000    1.0000    1.0000 C   0  0  0  0  0  0  0  0  0  0  0  0
    2.5200    1.0000    1.0000 C   0  0  0  0  0  0  0  0  0  0  0  0
    3.1200    1.6680    1.7961 O   0  0  0  0  0  0  0  0  0  0  0  0
    3.2050    0.2374    0.0911 N   0  0  0  0  0  0  0  0  0  0  0  0
    4.5388   -0.1031    0.3292 C   0  0  0  0  0  0  0  0  0  0  0  0
    5.4964    0.8971    0.4279 C   0  0  0  0  0  0  0  0  0  0  0  0
    6.8298    0.5834    0.6628 C   0  0  0  0  0  0  0  0  0  0  0  0
    7.1821   -0.7608    0.7985 C   0  0  0  0  0  0  0  0  0  0  0  0
    6.2164   -1.7527    0.6966 C   0  0  0  0  0  0  0  0  0  0  0  0
    4.8830   -1.4424    0.4602 C   0  0  0  0  0  0  0  0  0  0  0  0
    8.6161   -1.1983    1.0728 C   0  0  0  0  0  0  0  0  0  0  0  0
    9.6202   -0.0978    0.7559 C   0  0  0  0  0  0  0  0  0  0  0  0
    9.1766    1.2356    1.3413 C   0  0  0  0  0  0  0  0  0  0  0  0
    7.8568    1.7119    0.7502 C   0  0  0  0  0  0  0  0  0  0  0  0
    7.3203    2.9408    1.4704 C   0  0  0  0  0  0  0  0  0  0  0  0
    8.1760    2.1569   -0.6664 C   0  0  0  0  0  0  0  0  0  0  0  0
    9.0016   -2.4838    0.3559 C   0  0  0  0  0  0  0  0  0  0  0  0
    8.7506   -1.4580    2.5702 C   0  0  0  0  0  0  0  0  0  0  0  0
   -0.8844    6.8336   -2.2684 H   0  0  0  0  0  0  0  0  0  0  0  0
   -0.2041    9.1331   -2.2518 H   0  0  0  0  0  0  0  0  0  0  0  0
    0.1344   10.2611   -0.1703 H   0  0  0  0  0  0  0  0  0  0  0  0
   -0.2042    9.1034    1.8857 H   0  0  0  0  0  0  0  0  0  0  0  0
   -1.4821    4.8101   -1.0640 H   0  0  0  0  0  0  0  0  0  0  0  0
   -5.6758    2.2937    1.0085 H   0  0  0  0  0  0  0  0  0  0  0  0
   -7.6409    0.9250    1.0081 H   0  0  0  0  0  0  0  0  0  0  0  0
   -7.4363   -1.4569    0.9989 H   0  0  0  0  0  0  0  0  0  0  0  0
   -5.2755   -2.4712    0.9876 H   0  0  0  0  0  0  0  0  0  0  0  0
   -3.3034   -1.1128    0.9883 H   0  0  0  0  0  0  0  0  0  0  0  0
   -1.6191    0.0733    1.0050 H   0  0  0  0  0  0  0  0  0  0  0  0
    0.8500    2.9919    1.0000 H   0  0  0  0  0  0  0  0  0  0  0  0
    0.5000    0.1340    1.0000 H   0  0  0  0  0  0  0  0  0  0  0  0
    2.7502   -0.0756   -0.7427 H   0  0  0  0  0  0  0  0  0  0  0  0
    5.2238    1.8541    0.3288 H   0  0  0  0  0  0  0  0  0  0  0  0
    6.4860   -2.7106    0.7955 H   0  0  0  0  0  0  0  0  0  0  0  0
    4.1919   -2.1614    0.3866 H   0  0  0  0  0  0  0  0  0  0  0  0
    9.7027   -0.0072   -0.2366 H   0  0  0  0  0  0  0  0  0  0  0  0
   10.5084   -0.3450    1.1430 H   0  0  0  0  0  0  0  0  0  0  0  0
    9.0685    1.1333    2.3302 H   0  0  0  0  0  0  0  0  0  0  0  0
    9.8802    1.9206    1.1520 H   0  0  0  0  0  0  0  0  0  0  0  0
    8.0289    3.6458    1.4997 H   0  0  0  0  0  0  0  0  0  0  0  0
    6.5214    3.2913    0.9816 H   0  0  0  0  0  0  0  0  0  0  0  0
    7.0582    2.6927    2.4030 H   0  0  0  0  0  0  0  0  0  0  0  0
    8.8478    2.8971   -0.6398 H   0  0  0  0  0  0  0  0  0  0  0  0
    8.5498    1.3858   -1.1817 H   0  0  0  0  0  0  0  0  0  0  0  0
    7.3405    2.4808   -1.1103 H   0  0  0  0  0  0  0  0  0  0  0  0
    9.9491   -2.7166    0.5753 H   0  0  0  0  0  0  0  0  0  0  0  0
    8.3991   -3.2246    0.6527 H   0  0  0  0  0  0  0  0  0  0  0  0
    8.9101   -2.3551   -0.6316 H   0  0  0  0  0  0  0  0  0  0  0  0
    9.6856   -1.7472    2.7757 H   0  0  0  0  0  0  0  0  0  0  0  0
    8.5427   -0.6196    3.0740 H   0  0  0  0  0  0  0  0  0  0  0  0
    8.1117   -2.1775    2.8424 H   0  0  0  0  0  0  0  0  0  0  0  0
  1  2  2  0  0  0  0
  2  3  1  0  0  0  0
  3  4  1  0  0  0  0
  4  5  1  0  0  0  0
  5  6  2  0  0  0  0
  6  7  1  0  0  0  0
  7  8  2  0  0  0  0
  8  9  1  0  0  0  0
  9  4  2  0  0  0  0
  5 10  1  0  0  0  0
 10 11  2  0  0  0  0
 11  2  1  0  0  0  0
 11 12  1  0  0  0  0
 12 13  2  0  0  0  0
 13 14  1  0  0  0  0
 14 15  1  0  0  0  0
 15 16  1  0  0  0  0
 16 17  2  0  0  0  0
 17 18  1  0  0  0  0
 18 19  2  0  0  0  0
 19 20  1  0  0  0  0
 20 15  2  0  0  0  0
 14 21  1  0  0  0  0
 21 22  2  0  0  0  0
 22 12  1  0  0  0  0
 22 23  1  0  0  0  0
 23 24  2  0  0  0  0
 24 25  1  0  0  0  0
 25 26  2  0  0  0  0
 25 27  1  0  0  0  0
 27 28  1  0  0  0  0
 28 29  1  0  0  0  0
 29 30  2  0  0  0  0
 30 31  1  0  0  0  0
 31 32  2  0  0  0  0
 32 33  1  0  0  0  0
 33 28  2  0  0  0  0
 31 34  1  0  0  0  0
 34 35  1  0  0  0  0
 35 36  1  0  0  0  0
 36 37  1  0  0  0  0
 37 30  1  0  0  0  0
 37 38  1  0  0  0  0
 37 39  1  0  0  0  0
 34 40  1  0  0  0  0
 34 41  1  0  0  0  0
  6 42  1  0  0  0  0
  7 43  1  0  0  0  0
  8 44  1  0  0  0  0
  9 45  1  0  0  0  0
 10 46  1  0  0  0  0
 16 47  1  0  0  0  0
 17 48  1  0  0  0  0
 18 49  1  0  0  0  0
 19 50  1  0  0  0  0
 20 51  1  0  0  0  0
 21 52  1  0  0  0  0
 23 53  1  0  0  0  0
 24 54  1  0  0  0  0
 27 55  1  0  0  0  0
 29 56  1  0  0  0  0
 32 57  1  0  0  0  0
 33 58  1  0  0  0  0
 35 59  1  0  0  0  0
 35 60  1  0  0  0  0
 36 61  1  0  0  0  0
 36 62  1  0  0  0  0
 38 63  1  0  0  0  0
 38 64  1  0  0  0  0
 38 65  1  0  0  0  0
 39 66  1  0  0  0  0
 39 67  1  0  0  0  0
 39 68  1  0  0  0  0
 40 69  1  0  0  0  0
 40 70  1  0  0  0  0
 40 71  1  0  0  0  0
 41 72  1  0  0  0  0
 41 73  1  0  0  0  0
 41 74  1  0  0  0  0
M  END
>  <result-rank>
36

>  <similarity>
0.854

>  <query-name>


>  <query-smiles>
Clc1ccc(cc1)CS(=O)(=O)c2cc3N=C(c4c(N(c3cc2)C)cc5c(c4)C(CCC5(C)C)(C)C)c6ccc(cc6)C([O-])=O

>  <source>
REALspace_2019-12

>  <similarity-descriptor>
0.952;0.956;0.819;0.630;1.000;0.788;0.819;0.819;0.0;1.000;1.000;1.000;1.000;0.0;0.0

>  <similarity-descriptor-smiles>
c1ccccc1;c1ccccc1;O=C1C=CccO1;C(=O)Nc1ccccc1;c1CCCCc1;C=1C(=CNN1)C=C;O=C1C=CccO1;O=C1C=CccO1;;C;C;C;C;;

>  <reaction-name>
s_22

>  <reagent1-name>
15097550

>  <reagent1-smiles>
[R1*]Nc1cc2c(cc1)C(CCC2(C)C)(C)C

>  <reagent2-name>
59237

>  <reagent2-smiles>
[R1*]C(=O)C=CC=1C(=NN(c2ccccc2)C1)C=3C(=O)Oc4c(cccc4)C3

$$$$
m_276010b____17282026____17249466____17280474
          04022017333D 1   1.00000     0.00000     0
            
 92 97  0  0  0  0            999 V2000
    0.7249   -0.2785    4.1324 O   0  0  0  0  0  0  0  0  0  0  0  0
    0.1492    0.1602    3.1753 C   0  0  0  0  0  0  0  0  0  0  0  0
   -0.8564    0.9841    3.3366 O   0  0  0  0  0  0  0  0  0  0  0  0
   -1.2652    1.3581    4.6441 C   0  0  0  0  0  0  0  0  0  0  0  0
   -2.4434    2.3146    4.5525 C   0  0  0  0  0  0  0  0  0  0  0  0
   -3.7401    1.8114    4.5404 C   0  0  0  0  0  0  0  0  0  0  0  0
   -4.8153    2.6900    4.4557 C   0  0  0  0  0  0  0  0  0  0  0  0
   -4.5895    4.0607    4.3852 C   0  0  0  0  0  0  0  0  0  0  0  0
   -3.2899    4.5520    4.3985 C   0  0  0  0  0  0  0  0  0  0  0  0
   -2.2063    3.6837    4.4823 C   0  0  0  0  0  0  0  0  0  0  0  0
    0.5868   -0.2401    1.7758 C   0  0  0  0  0  0  0  0  0  0  0  0
    1.0000    1.0000    1.0000 C   0  0  0  0  0  0  0  0  0  0  0  0
    1.8772    1.8772    1.8772 C   0  0  0  0  0  0  0  0  0  0  0  0
    1.4645    2.9583    2.5965 N   0  0  0  0  0  0  0  0  0  0  0  0
    2.4732    3.4294    3.1936 N   0  0  0  0  0  0  0  0  0  0  0  0
    3.5490    2.7319    2.9235 N   0  0  0  0  0  0  0  0  0  0  0  0
    3.2123    1.7217    2.0791 C   0  0  0  0  0  0  0  0  0  0  0  0
    4.8971    2.9989    3.4454 C   0  0  3  0  0  0  0  0  0  0  0  0
    4.8913    3.2954    4.9289 C   0  0  0  0  0  0  0  0  0  0  0  0
    5.8076    4.2937    5.1513 C   0  0  0  0  0  0  0  0  0  0  0  0
    6.3817    4.6397    3.9228 N   0  0  0  0  0  0  0  0  0  0  0  0
    7.6221    5.2745    3.7696 C   0  0  0  0  0  0  0  0  0  0  0  0
    7.8145    5.9970    2.8310 O   0  0  0  0  0  0  0  0  0  0  0  0
    8.6708    5.0585    4.7436 C   0  0  0  0  0  0  0  0  0  0  0  0
    9.3687    3.8600    4.7490 C   0  0  0  0  0  0  0  0  0  0  0  0
   10.3790    3.6302    5.6752 C   0  0  0  0  0  0  0  0  0  0  0  0
   10.6726    4.6392    6.6028 C   0  0  0  0  0  0  0  0  0  0  0  0
    9.9670    5.8370    6.5889 C   0  0  0  0  0  0  0  0  0  0  0  0
    8.9600    6.0599    5.6594 C   0  0  0  0  0  0  0  0  0  0  0  0
   11.7745    4.4781    7.6456 C   0  0  0  0  0  0  0  0  0  0  0  0
   12.1735    3.0223    7.8286 C   0  0  0  0  0  0  0  0  0  0  0  0
   12.3946    2.3385    6.4847 C   0  0  0  0  0  0  0  0  0  0  0  0
   11.1224    2.2956    5.6499 C   0  0  0  0  0  0  0  0  0  0  0  0
   11.3932    1.7894    4.2401 C   0  0  0  0  0  0  0  0  0  0  0  0
   10.2268    1.2796    6.3413 C   0  0  0  0  0  0  0  0  0  0  0  0
   11.4352    5.1144    8.9843 C   0  0  0  0  0  0  0  0  0  0  0  0
   13.0123    5.1818    7.1134 C   0  0  0  0  0  0  0  0  0  0  0  0
    5.5209    4.2228    2.8126 C   0  0  0  0  0  0  0  0  0  0  0  0
    6.2956    3.8626    1.5560 C   0  0  0  0  0  0  0  0  0  0  0  0
    4.5018    5.3041    2.4887 C   0  0  0  0  0  0  0  0  0  0  0  0
    5.9872    4.7556    6.4528 C   0  0  0  0  0  0  0  0  0  0  0  0
    5.2629    4.2158    7.5102 C   0  0  0  0  0  0  0  0  0  0  0  0
    4.3410    3.2017    7.2751 C   0  0  0  0  0  0  0  0  0  0  0  0
    4.1582    2.7429    5.9752 C   0  0  0  0  0  0  0  0  0  0  0  0
   -0.5668   -0.9242    1.0605 C   0  0  0  0  0  0  0  0  0  0  0  0
    1.7647   -1.1964    1.8673 C   0  0  0  0  0  0  0  0  0  0  0  0
   -0.5063    1.8081    5.1147 H   0  0  0  0  0  0  0  0  0  0  0  0
   -1.5371    0.5422    5.1544 H   0  0  0  0  0  0  0  0  0  0  0  0
   -3.8983    0.8253    4.5923 H   0  0  0  0  0  0  0  0  0  0  0  0
   -5.7505    2.3362    4.4455 H   0  0  0  0  0  0  0  0  0  0  0  0
   -5.3624    4.6924    4.3249 H   0  0  0  0  0  0  0  0  0  0  0  0
   -3.1322    5.5382    4.3475 H   0  0  0  0  0  0  0  0  0  0  0  0
   -1.2713    4.0382    4.4918 H   0  0  0  0  0  0  0  0  0  0  0  0
    1.5104    0.7281    0.1842 H   0  0  0  0  0  0  0  0  0  0  0  0
    0.1842    1.5104    0.7281 H   0  0  0  0  0  0  0  0  0  0  0  0
    3.8123    1.0210    1.6928 H   0  0  0  0  0  0  0  0  0  0  0  0
    5.4802    2.2054    3.2711 H   0  0  0  0  0  0  0  0  0  0  0  0
    9.1423    3.1532    4.0789 H   0  0  0  0  0  0  0  0  0  0  0  0
   10.1876    6.5474    7.2571 H   0  0  0  0  0  0  0  0  0  0  0  0
    8.4545    6.9227    5.6502 H   0  0  0  0  0  0  0  0  0  0  0  0
   11.4468    2.5444    8.3221 H   0  0  0  0  0  0  0  0  0  0  0  0
   13.0201    2.9803    8.3592 H   0  0  0  0  0  0  0  0  0  0  0  0
   13.0959    2.8405    5.9787 H   0  0  0  0  0  0  0  0  0  0  0  0
   12.7062    1.4021    6.6464 H   0  0  0  0  0  0  0  0  0  0  0  0
   11.8797    0.9169    4.2869 H   0  0  0  0  0  0  0  0  0  0  0  0
   10.5257    1.6619    3.7593 H   0  0  0  0  0  0  0  0  0  0  0  0
   11.9522    2.4567    3.7479 H   0  0  0  0  0  0  0  0  0  0  0  0
   10.6777    0.3871    6.3469 H   0  0  0  0  0  0  0  0  0  0  0  0
   10.0551    1.5722    7.2820 H   0  0  0  0  0  0  0  0  0  0  0  0
    9.3586    1.2115    5.8497 H   0  0  0  0  0  0  0  0  0  0  0  0
   12.1934    4.9751    9.6212 H   0  0  0  0  0  0  0  0  0  0  0  0
   11.2816    6.0945    8.8581 H   0  0  0  0  0  0  0  0  0  0  0  0
   10.6075    4.6921    9.3538 H   0  0  0  0  0  0  0  0  0  0  0  0
   13.7561    5.0945    7.7760 H   0  0  0  0  0  0  0  0  0  0  0  0
   13.2867    4.7641    6.2472 H   0  0  0  0  0  0  0  0  0  0  0  0
   12.8083    6.1497    6.9668 H   0  0  0  0  0  0  0  0  0  0  0  0
    5.6565    3.5876    0.8377 H   0  0  0  0  0  0  0  0  0  0  0  0
    6.8206    4.6564    1.2490 H   0  0  0  0  0  0  0  0  0  0  0  0
    6.9195    3.1067    1.7543 H   0  0  0  0  0  0  0  0  0  0  0  0
    3.9247    5.0017    1.7300 H   0  0  0  0  0  0  0  0  0  0  0  0
    3.9323    5.4769    3.2923 H   0  0  0  0  0  0  0  0  0  0  0  0
    4.9782    6.1446    2.2306 H   0  0  0  0  0  0  0  0  0  0  0  0
    6.6467    5.4861    6.6297 H   0  0  0  0  0  0  0  0  0  0  0  0
    5.4050    4.5568    8.4394 H   0  0  0  0  0  0  0  0  0  0  0  0
    3.8169    2.8078    8.0302 H   0  0  0  0  0  0  0  0  0  0  0  0
    3.4984    2.0143    5.7916 H   0  0  0  0  0  0  0  0  0  0  0  0
   -0.2790   -1.1875    0.1397 H   0  0  0  0  0  0  0  0  0  0  0  0
   -0.8387   -1.7400    1.5708 H   0  0  0  0  0  0  0  0  0  0  0  0
   -1.3418   -0.2950    1.0002 H   0  0  0  0  0  0  0  0  0  0  0  0
    2.0526   -1.4597    0.9466 H   0  0  0  0  0  0  0  0  0  0  0  0
    2.5236   -0.7463    2.3379 H   0  0  0  0  0  0  0  0  0  0  0  0
    1.4928   -2.0122    2.3777 H   0  0  0  0  0  0  0  0  0  0  0  0
  1  2  2  0  0  0  0
  2  3  1  0  0  0  0
  3  4  1  0  0  0  0
  4  5  1  0  0  0  0
  5  6  1  0  0  0  0
  6  7  2  0  0  0  0
  7  8  1  0  0  0  0
  8  9  2  0  0  0  0
  9 10  1  0  0  0  0
 10  5  2  0  0  0  0
  2 11  1  0  0  0  0
 11 12  1  0  0  0  0
 12 13  1  0  0  0  0
 13 14  1  0  0  0  0
 14 15  2  0  0  0  0
 15 16  1  0  0  0  0
 16 17  1  0  0  0  0
 13 17  2  0  0  0  0
 16 18  1  0  0  0  0
 18 19  1  0  0  0  0
 19 20  1  0  0  0  0
 20 21  1  0  0  0  0
 21 22  1  0  0  0  0
 22 23  2  0  0  0  0
 22 24  1  0  0  0  0
 24 25  1  0  0  0  0
 25 26  2  0  0  0  0
 26 27  1  0  0  0  0
 27 28  2  0  0  0  0
 28 29  1  0  0  0  0
 29 24  2  0  0  0  0
 27 30  1  0  0  0  0
 30 31  1  0  0  0  0
 31 32  1  0  0  0  0
 32 33  1  0  0  0  0
 33 26  1  0  0  0  0
 33 34  1  0  0  0  0
 33 35  1  0  0  0  0
 30 36  1  0  0  0  0
 30 37  1  0  0  0  0
 21 38  1  0  0  0  0
 38 18  1  0  0  0  0
 38 39  1  0  0  0  0
 38 40  1  0  0  0  0
 20 41  2  0  0  0  0
 41 42  1  0  0  0  0
 42 43  2  0  0  0  0
 43 44  1  0  0  0  0
 44 19  2  0  0  0  0
 11 45  1  0  0  0  0
 11 46  1  0  0  0  0
  4 47  1  0  0  0  0
  4 48  1  0  0  0  0
  6 49  1  0  0  0  0
  7 50  1  0  0  0  0
  8 51  1  0  0  0  0
  9 52  1  0  0  0  0
 10 53  1  0  0  0  0
 12 54  1  0  0  0  0
 12 55  1  0  0  0  0
 17 56  1  0  0  0  0
 18 57  1  0  0  0  0
 25 58  1  0  0  0  0
 28 59  1  0  0  0  0
 29 60  1  0  0  0  0
 31 61  1  0  0  0  0
 31 62  1  0  0  0  0
 32 63  1  0  0  0  0
 32 64  1  0  0  0  0
 34 65  1  0  0  0  0
 34 66  1  0  0  0  0
 34 67  1  0  0  0  0
 35 68  1  0  0  0  0
 35 69  1  0  0  0  0
 35 70  1  0  0  0  0
 36 71  1  0  0  0  0
 36 72  1  0  0  0  0
 36 73  1  0  0  0  0
 37 74  1  0  0  0  0
 37 75  1  0  0  0  0
 37 76  1  0  0  0  0
 39 77  1  0  0  0  0
 39 78  1  0  0  0  0
 39 79  1  0  0  0  0
 40 80  1  0  0  0  0
 40 81  1  0  0  0  0
 40 82  1  0  0  0  0
 41 83  1  0  0  0  0
 42 84  1  0  0  0  0
 43 85  1  0  0  0  0
 44 86  1  0  0  0  0
 45 87  1  0  0  0  0
 45 88  1  0  0  0  0
 45 89  1  0  0  0  0
 46 90  1  0  0  0  0
 46 91  1  0  0  0  0
 46 92  1  0  0  0  0
M  END
>  <result-rank>
37

>  <similarity>
0.854

>  <query-name>


>  <query-smiles>
Clc1ccc(cc1)CS(=O)(=O)c2cc3N=C(c4c(N(c3cc2)C)cc5c(c4)C(CCC5(C)C)(C)C)c6ccc(cc6)C([O-])=O

>  <source>
REALspace_2019-12

>  <similarity-descriptor>
0.952;0.985;0.594;0.926;1.000;0.675;0.995;0.824;0.995;1.000;1.000;1.000;1.000;0.0;0.150

>  <similarity-descriptor-smiles>
c1ccccc1;c1ccccc1;CC1=CNN=N1;c1ccccc1;c1CCCCc1;C1CN(cc1)C=O;C;O=C(O)C;C;C;C;C;C;;C.C.C

>  <reaction-name>
m_276010b

>  <reagent1-name>
17282026

>  <reagent1-smiles>
[R1*]N=NN([R2*])C1c2c(N([R3*])C1(C)C)cccc2

>  <reagent2-name>
17249466

>  <reagent2-smiles>
[R3*]C(=O)c1cc2c(cc1)C(CCC2(C)C)(C)C

>  <reagent3-name>
17280474

>  <reagent3-smiles>
[R1*]C(=C[R2*])CC(C(=O)OCc1ccccc1)(C)C

$$$$
m_273170____10759172____14470030____10755794
          04022017333D 1   1.00000     0.00000     0
            
 68 73  0  0  0  0            999 V2000
    4.2511   -0.8506    2.9105 S   0  0  0  0  0  0  0  0  0  0  0  0
    4.8569   -0.1801    1.7893 O   0  0  0  0  0  0  0  0  0  0  0  0
    5.0758   -0.6747    4.0778 O   0  0  0  0  0  0  0  0  0  0  0  0
    2.6114   -0.1491    3.2191 C   0  0  0  0  0  0  0  0  0  0  0  0
    2.6325    1.3405    2.9166 C   0  0  0  0  0  0  0  0  0  0  0  0
    1.8777    1.8777    1.8777 C   0  0  0  0  0  0  0  0  0  0  0  0
    1.9164    3.2449    1.6235 C   0  0  0  0  0  0  0  0  0  0  0  0
    2.7143    4.0634    2.4169 C   0  0  0  0  0  0  0  0  0  0  0  0
    2.7560    5.3720    2.1801 F   0  0  0  0  0  0  0  0  0  0  0  0
    3.4711    3.5338    3.4572 C   0  0  0  0  0  0  0  0  0  0  0  0
    3.4277    2.1659    3.7055 C   0  0  0  0  0  0  0  0  0  0  0  0
    1.0000    1.0000    1.0000 C   0  0  0  0  0  0  0  0  0  0  0  0
   -0.3450    0.9084    1.5875 N   0  0  0  0  0  0  0  0  0  0  0  0
   -0.8593   -0.1622    2.2465 C   0  0  0  0  0  0  0  0  0  0  0  0
   -2.0727    0.1860    2.5969 N   0  0  0  0  0  0  0  0  0  0  0  0
   -2.3519    1.4073    2.1991 N   0  0  0  0  0  0  0  0  0  0  0  0
   -1.2981    1.8780    1.5710 C   0  0  0  0  0  0  0  0  0  0  0  0
   -1.1790    3.1928    0.9714 C   0  0  0  0  0  0  0  0  0  0  0  0
   -1.8889    4.2561    1.5195 C   0  0  0  0  0  0  0  0  0  0  0  0
   -1.7727    5.5152    0.9400 C   0  0  0  0  0  0  0  0  0  0  0  0
   -2.4831    6.5931    1.4828 N   0  3  0  0  0  0  0  0  0  0  0  0
   -2.3181    7.7176    1.0393 O   0  5  0  0  0  0  0  0  0  0  0  0
   -3.2604    6.4092    2.3916 O   0  0  0  0  0  0  0  0  0  0  0  0
   -0.9618    5.7213   -0.1710 C   0  0  0  0  0  0  0  0  0  0  0  0
   -0.2608    4.6439   -0.7021 C   0  0  0  0  0  0  0  0  0  0  0  0
   -0.3619    3.3762   -0.1389 C   0  0  0  0  0  0  0  0  0  0  0  0
   -0.2264   -1.3876    2.4972 N   0  0  0  0  0  0  0  0  0  0  0  0
    0.1935   -2.3207    1.4364 C   0  0  0  0  0  0  0  0  0  0  0  0
   -0.1958   -3.7585    1.7597 C   0  0  0  0  0  0  0  0  0  0  0  0
   -0.5933   -4.1493    3.0306 C   0  0  0  0  0  0  0  0  0  0  0  0
   -0.9925   -5.4468    3.3276 C   0  0  0  0  0  0  0  0  0  0  0  0
   -0.9384   -6.3826    2.2949 C   0  0  0  0  0  0  0  0  0  0  0  0
   -0.5191   -6.0411    1.0121 C   0  0  0  0  0  0  0  0  0  0  0  0
   -0.1551   -4.7223    0.7557 C   0  0  0  0  0  0  0  0  0  0  0  0
   -1.4427   -5.6393    4.7694 C   0  0  0  0  0  0  0  0  0  0  0  0
   -2.4956   -4.5834    5.0825 C   0  0  0  0  0  0  0  0  0  0  0  0
   -2.0592   -3.1836    4.6742 C   0  0  0  0  0  0  0  0  0  0  0  0
   -0.6222   -3.1487    4.1749 C   0  0  3  0  0  0  0  0  0  0  0  0
    0.1011   -1.8599    3.8517 C   0  0  0  0  0  0  0  0  0  0  0  0
    4.0928   -2.6161    2.5441 C   0  0  0  0  0  0  0  0  0  0  0  0
    2.3629   -0.2911    4.1772 H   0  0  0  0  0  0  0  0  0  0  0  0
    1.9400   -0.5993    2.6303 H   0  0  0  0  0  0  0  0  0  0  0  0
    1.3763    3.6355    0.8781 H   0  0  0  0  0  0  0  0  0  0  0  0
    4.0411    4.1311    4.0214 H   0  0  0  0  0  0  0  0  0  0  0  0
    3.9681    1.7756    4.4509 H   0  0  0  0  0  0  0  0  0  0  0  0
    0.9377    1.3995    0.0854 H   0  0  0  0  0  0  0  0  0  0  0  0
    1.3995    0.0854    0.9377 H   0  0  0  0  0  0  0  0  0  0  0  0
   -2.4741    4.1174    2.3185 H   0  0  0  0  0  0  0  0  0  0  0  0
   -0.8841    6.6299   -0.5814 H   0  0  0  0  0  0  0  0  0  0  0  0
    0.3246    4.7827   -1.5009 H   0  0  0  0  0  0  0  0  0  0  0  0
    0.1460    2.6071   -0.5269 H   0  0  0  0  0  0  0  0  0  0  0  0
    1.1870   -2.2694    1.3350 H   0  0  0  0  0  0  0  0  0  0  0  0
   -0.2435   -2.0524    0.5779 H   0  0  0  0  0  0  0  0  0  0  0  0
   -1.2089   -7.3271    2.4815 H   0  0  0  0  0  0  0  0  0  0  0  0
   -0.4802   -6.7302    0.2885 H   0  0  0  0  0  0  0  0  0  0  0  0
    0.1403   -4.4631   -0.1639 H   0  0  0  0  0  0  0  0  0  0  0  0
   -0.6621   -5.5325    5.3852 H   0  0  0  0  0  0  0  0  0  0  0  0
   -1.8344   -6.5524    4.8829 H   0  0  0  0  0  0  0  0  0  0  0  0
   -2.6727   -4.5895    6.0667 H   0  0  0  0  0  0  0  0  0  0  0  0
   -3.3357   -4.8131    4.5912 H   0  0  0  0  0  0  0  0  0  0  0  0
   -2.6611   -2.8593    3.9445 H   0  0  0  0  0  0  0  0  0  0  0  0
   -2.1391   -2.5782    5.4661 H   0  0  0  0  0  0  0  0  0  0  0  0
   -0.0841   -3.5724    4.9035 H   0  0  0  0  0  0  0  0  0  0  0  0
   -0.1676   -1.1607    4.5143 H   0  0  0  0  0  0  0  0  0  0  0  0
    1.0870   -2.0157    3.9128 H   0  0  0  0  0  0  0  0  0  0  0  0
    3.6721   -3.0817    3.3228 H   0  0  0  0  0  0  0  0  0  0  0  0
    3.5201   -2.7382    1.7335 H   0  0  0  0  0  0  0  0  0  0  0  0
    4.9987   -3.0037    2.3737 H   0  0  0  0  0  0  0  0  0  0  0  0
  1  2  2  0  0  0  0
  1  3  2  0  0  0  0
  1  4  1  0  0  0  0
  4  5  1  0  0  0  0
  5  6  1  0  0  0  0
  6  7  2  0  0  0  0
  7  8  1  0  0  0  0
  8  9  1  0  0  0  0
  8 10  2  0  0  0  0
 10 11  1  0  0  0  0
 11  5  2  0  0  0  0
  6 12  1  0  0  0  0
 12 13  1  0  0  0  0
 13 14  1  0  0  0  0
 14 15  2  0  0  0  0
 15 16  1  0  0  0  0
 16 17  2  0  0  0  0
 17 13  1  0  0  0  0
 17 18  1  0  0  0  0
 18 19  1  0  0  0  0
 19 20  2  0  0  0  0
 20 21  1  0  0  0  0
 21 22  1  0  0  0  0
 21 23  2  0  0  0  0
 20 24  1  0  0  0  0
 24 25  2  0  0  0  0
 25 26  1  0  0  0  0
 26 18  2  0  0  0  0
 14 27  1  0  0  0  0
 27 28  1  0  0  0  0
 28 29  1  0  0  0  0
 29 30  1  0  0  0  0
 30 31  2  0  0  0  0
 31 32  1  0  0  0  0
 32 33  2  0  0  0  0
 33 34  1  0  0  0  0
 34 29  2  0  0  0  0
 31 35  1  0  0  0  0
 35 36  1  0  0  0  0
 36 37  1  0  0  0  0
 37 38  1  0  0  0  0
 38 30  1  0  0  0  0
 38 39  1  0  0  0  0
 39 27  1  0  0  0  0
  1 40  1  0  0  0  0
  4 41  1  0  0  0  0
  4 42  1  0  0  0  0
  7 43  1  0  0  0  0
 10 44  1  0  0  0  0
 11 45  1  0  0  0  0
 12 46  1  0  0  0  0
 12 47  1  0  0  0  0
 19 48  1  0  0  0  0
 24 49  1  0  0  0  0
 25 50  1  0  0  0  0
 26 51  1  0  0  0  0
 28 52  1  0  0  0  0
 28 53  1  0  0  0  0
 32 54  1  0  0  0  0
 33 55  1  0  0  0  0
 34 56  1  0  0  0  0
 35 57  1  0  0  0  0
 35 58  1  0  0  0  0
 36 59  1  0  0  0  0
 36 60  1  0  0  0  0
 37 61  1  0  0  0  0
 37 62  1  0  0  0  0
 38 63  1  0  0  0  0
 39 64  1  0  0  0  0
 39 65  1  0  0  0  0
 40 66  1  0  0  0  0
 40 67  1  0  0  0  0
 40 68  1  0  0  0  0
M  CHG  2  21   1  22  -1
M  END
>  <result-rank>
38

>  <similarity>
0.853

>  <query-name>


>  <query-smiles>
Clc1ccc(cc1)CS(=O)(=O)c2cc3N=C(c4c(N(c3cc2)C)cc5c(c4)C(CCC5(C)C)(C)C)c6ccc(cc6)C([O-])=O

>  <source>
REALspace_2019-12

>  <similarity-descriptor>
0.0;0.998;0.900;0.878;0.878;0.675;0.950;0.898;0.0;0.878;0.878;0.878;0.878;0.910;0.0

>  <similarity-descriptor-smiles>
;c1ccccc1;c1ccc(cc1C)F;N1CC2CCCc3c2c(C1)ccc3;N1CC2CCCc3c2c(C1)ccc3;N1C=NN=C1;C;S(=O)(=O)C;;N1CC2CCCc3c2c(C1)ccc3;N1CC2CCCc3c2c(C1)ccc3;N1CC2CCCc3c2c(C1)ccc3;N1CC2CCCc3c2c(C1)ccc3;[N+]([O-])=O;

>  <reaction-name>
m_273170

>  <reagent1-name>
10759172

>  <reagent1-smiles>
[R2*]=C([R1*])N([R3*])Cc1c(ccc(F)c1)CS(=O)(=O)C

>  <reagent2-name>
14470030

>  <reagent2-smiles>
[R1*]N1Cc2c3c(ccc2)CCCC3C1

>  <reagent3-name>
10755794

>  <reagent3-smiles>
[R2*]=NN=C([R3*])c1cc([N+]([O-])=O)ccc1

$$$$
s_42a____8709406____2228250
          04022017333D 1   1.00000     0.00000     0
            
 56 60  0  0  0  0            999 V2000
    5.8867    5.9415   -1.3213 Cl  0  0  0  0  0  0  0  0  0  0  0  0
    5.8484    4.2065   -0.9254 C   0  0  0  0  0  0  0  0  0  0  0  0
    4.6384    3.5215   -0.9548 C   0  0  0  0  0  0  0  0  0  0  0  0
    3.5180    4.1619   -1.2776 F   0  0  0  0  0  0  0  0  0  0  0  0
    4.5902    2.1656   -0.6480 C   0  0  0  0  0  0  0  0  0  0  0  0
    5.7707    1.5108   -0.3124 C   0  0  0  0  0  0  0  0  0  0  0  0
    5.7303    0.0981    0.0081 C   0  0  0  0  0  0  0  0  0  0  0  0
    5.7345   -0.8606   -1.0088 C   0  0  0  0  0  0  0  0  0  0  0  0
    5.6869   -2.1425   -0.4958 C   0  0  0  0  0  0  0  0  0  0  0  0
    5.6810   -3.2542   -1.7796 S   0  0  0  0  0  0  0  0  0  0  0  0
    5.7786   -2.0705   -3.0002 C   0  0  0  0  0  0  0  0  0  0  0  0
    5.8196   -0.8436   -2.4338 C   0  0  0  0  0  0  0  0  0  0  0  0
    5.9269    0.1072   -3.6070 C   0  0  0  0  0  0  0  0  0  0  0  0
    5.4240   -0.6555   -4.8134 C   0  0  0  0  0  0  0  0  0  0  0  0
    5.8535   -2.0717   -4.5079 C   0  0  0  0  0  0  0  0  0  0  0  0
    5.6547   -2.5504    0.7678 N   0  0  0  0  0  0  0  0  0  0  0  0
    5.6735   -1.6036    1.7151 C   0  0  0  0  0  0  0  0  0  0  0  0
    5.7063   -0.2582    1.3574 C   0  0  0  0  0  0  0  0  0  0  0  0
    5.7226    0.7865    2.4629 C   0  0  0  0  0  0  0  0  0  0  0  0
    4.3950    1.5267    2.4801 C   0  0  0  0  0  0  0  0  0  0  0  0
    4.3871    2.9176    2.4894 C   0  0  0  0  0  0  0  0  0  0  0  0
    3.1748    3.5992    2.5044 C   0  0  0  0  0  0  0  0  0  0  0  0
    1.9840    2.8796    2.5094 C   0  0  0  0  0  0  0  0  0  0  0  0
    0.8052    3.5371    2.5243 O   0  0  0  0  0  0  0  0  0  0  0  0
   -0.4139    2.8089    2.5295 C   0  0  3  0  0  0  0  0  0  0  0  0
   -1.2056    3.1552    3.7800 C   0  0  0  0  0  0  0  0  0  0  0  0
   -2.3967    2.9458    3.8192 O   0  5  0  0  0  0  0  0  0  0  0  0
   -0.6262    3.6562    4.7678 O   0  0  0  0  0  0  0  0  0  0  0  0
   -1.2269    3.1732    1.2980 C   0  0  0  0  0  0  0  0  0  0  0  0
    1.9864    1.4885    2.5005 C   0  0  0  0  0  0  0  0  0  0  0  0
    3.2015    0.8121    2.4851 C   0  0  0  0  0  0  0  0  0  0  0  0
    5.6608   -2.0526    3.1675 C   0  0  0  0  0  0  0  0  0  0  0  0
    6.9834    2.1930   -0.2804 C   0  0  0  0  0  0  0  0  0  0  0  0
    7.0268    3.5482   -0.5888 C   0  0  0  0  0  0  0  0  0  0  0  0
    3.7218    1.6701   -0.6684 H   0  0  0  0  0  0  0  0  0  0  0  0
    6.8780    0.3841   -3.7434 H   0  0  0  0  0  0  0  0  0  0  0  0
    5.3630    0.9179   -3.4493 H   0  0  0  0  0  0  0  0  0  0  0  0
    4.4295   -0.5890   -4.8941 H   0  0  0  0  0  0  0  0  0  0  0  0
    5.8497   -0.3223   -5.6547 H   0  0  0  0  0  0  0  0  0  0  0  0
    5.2266   -2.7407   -4.9071 H   0  0  0  0  0  0  0  0  0  0  0  0
    6.7829   -2.2521   -4.8301 H   0  0  0  0  0  0  0  0  0  0  0  0
    6.4644    1.4362    2.2966 H   0  0  0  0  0  0  0  0  0  0  0  0
    5.8649    0.3366    3.3446 H   0  0  0  0  0  0  0  0  0  0  0  0
    5.2488    3.4251    2.4854 H   0  0  0  0  0  0  0  0  0  0  0  0
    3.1591    4.5990    2.5116 H   0  0  0  0  0  0  0  0  0  0  0  0
   -0.2166    1.8286    2.5207 H   0  0  0  0  0  0  0  0  0  0  0  0
   -2.0854    2.6604    1.3017 H   0  0  0  0  0  0  0  0  0  0  0  0
   -1.4242    4.1535    1.3068 H   0  0  0  0  0  0  0  0  0  0  0  0
   -0.7061    2.9454    0.4753 H   0  0  0  0  0  0  0  0  0  0  0  0
    1.1247    0.9810    2.5051 H   0  0  0  0  0  0  0  0  0  0  0  0
    3.2172   -0.1877    2.4775 H   0  0  0  0  0  0  0  0  0  0  0  0
    5.6771   -1.2505    3.7645 H   0  0  0  0  0  0  0  0  0  0  0  0
    4.8321   -2.5834    3.3451 H   0  0  0  0  0  0  0  0  0  0  0  0
    6.4647   -2.6191    3.3484 H   0  0  0  0  0  0  0  0  0  0  0  0
    7.8233    1.7087   -0.0356 H   0  0  0  0  0  0  0  0  0  0  0  0
    7.8951    4.0439   -0.5688 H   0  0  0  0  0  0  0  0  0  0  0  0
  1  2  1  0  0  0  0
  2  3  1  0  0  0  0
  3  4  1  0  0  0  0
  3  5  2  0  0  0  0
  5  6  1  0  0  0  0
  6  7  1  0  0  0  0
  7  8  1  0  0  0  0
  8  9  2  0  0  0  0
  9 10  1  0  0  0  0
 10 11  1  0  0  0  0
 11 12  2  0  0  0  0
 12  8  1  0  0  0  0
 12 13  1  0  0  0  0
 13 14  1  0  0  0  0
 14 15  1  0  0  0  0
 15 11  1  0  0  0  0
  9 16  1  0  0  0  0
 16 17  2  0  0  0  0
 17 18  1  0  0  0  0
 18  7  2  0  0  0  0
 18 19  1  0  0  0  0
 19 20  1  0  0  0  0
 20 21  1  0  0  0  0
 21 22  2  0  0  0  0
 22 23  1  0  0  0  0
 23 24  1  0  0  0  0
 24 25  1  0  0  0  0
 25 26  1  0  0  0  0
 26 27  1  0  0  0  0
 26 28  2  0  0  0  0
 25 29  1  0  0  0  0
 23 30  2  0  0  0  0
 30 31  1  0  0  0  0
 31 20  2  0  0  0  0
 17 32  1  0  0  0  0
  6 33  2  0  0  0  0
 33 34  1  0  0  0  0
 34  2  2  0  0  0  0
  5 35  1  0  0  0  0
 13 36  1  0  0  0  0
 13 37  1  0  0  0  0
 14 38  1  0  0  0  0
 14 39  1  0  0  0  0
 15 40  1  0  0  0  0
 15 41  1  0  0  0  0
 19 42  1  0  0  0  0
 19 43  1  0  0  0  0
 21 44  1  0  0  0  0
 22 45  1  0  0  0  0
 25 46  1  0  0  0  0
 29 47  1  0  0  0  0
 29 48  1  0  0  0  0
 29 49  1  0  0  0  0
 30 50  1  0  0  0  0
 31 51  1  0  0  0  0
 32 52  1  0  0  0  0
 32 53  1  0  0  0  0
 32 54  1  0  0  0  0
 33 55  1  0  0  0  0
 34 56  1  0  0  0  0
M  CHG  1  27  -1
M  END
>  <result-rank>
39

>  <similarity>
0.853

>  <query-name>


>  <query-smiles>
Clc1ccc(cc1)CS(=O)(=O)c2cc3N=C(c4c(N(c3cc2)C)cc5c(c4)C(CCC5(C)C)(C)C)c6ccc(cc6)C([O-])=O

>  <source>
REALspace_2019-12

>  <similarity-descriptor>
0.0;0.935;0.933;0.830;0.965;0.914;0.0;0.0;0.995;0.965;0.0;0.0;0.0;0.841;0.091

>  <similarity-descriptor-smiles>
;Cc1ccccc1;Clc1ccccc1F;c1C=CSc1;C=1CCCC1;c1ccncc1;;;C;C=1CCCC1;;;;OCC([O-])=O;C

>  <reaction-name>
s_42a

>  <reagent1-name>
8709406

>  <reagent1-smiles>
[R1*]=NC=1SC2=C(C1C(=[R2*])c3cc(F)c(Cl)cc3)CCC2

>  <reagent2-name>
2228250

>  <reagent2-smiles>
[R2*]=C(C(=[R1*])C)Cc1ccc(OC(C(=O)O)C)cc1

$$$$
m_273170____10757270____10761548____10766594
          04022017333D 1   1.00000     0.00000     0
            
 74 79  0  0  0  0            999 V2000
   -2.7869    0.8690   -1.0570 O   0  5  0  0  0  0  0  0  0  0  0  0
   -2.2201   -0.0012   -0.4169 N   0  3  0  0  0  0  0  0  0  0  0  0
   -1.6426   -0.8959   -0.9914 O   0  0  0  0  0  0  0  0  0  0  0  0
   -2.2379    0.0354    0.9829 C   0  0  0  0  0  0  0  0  0  0  0  0
   -1.0632   -0.0910    1.7170 C   0  0  0  0  0  0  0  0  0  0  0  0
   -1.1038   -0.0502    3.1063 C   0  0  0  0  0  0  0  0  0  0  0  0
   -2.3191    0.1155    3.7619 C   0  0  0  0  0  0  0  0  0  0  0  0
   -3.4935    0.2417    3.0281 C   0  0  0  0  0  0  0  0  0  0  0  0
   -3.4529    0.2019    1.6384 C   0  0  0  0  0  0  0  0  0  0  0  0
    0.2650   -0.2731    1.0004 C   0  0  0  0  0  0  0  0  0  0  0  0
    1.0000    1.0000    1.0000 N   0  0  0  0  0  0  0  0  0  0  0  0
    2.4017    1.0000    1.0000 C   0  0  0  0  0  0  0  0  0  0  0  0
    3.1912    2.0415    1.0908 N   0  0  0  0  0  0  0  0  0  0  0  0
    4.4560    1.6855    1.0558 N   0  0  0  0  0  0  0  0  0  0  0  0
    4.5040    0.3775    0.9393 C   0  0  0  0  0  0  0  0  0  0  0  0
    3.2232   -0.0772    0.9021 N   0  0  0  0  0  0  0  0  0  0  0  0
    2.8010   -1.4805    0.7791 C   0  0  0  0  0  0  0  0  0  0  0  0
    2.7795   -2.1260    2.1561 C   0  0  0  0  0  0  0  0  0  0  0  0
    3.4271   -3.3445    2.3320 C   0  0  0  0  0  0  0  0  0  0  0  0
    3.4723   -3.9500    3.5836 C   0  0  0  0  0  0  0  0  0  0  0  0
    2.8411   -3.3622    4.6683 C   0  0  0  0  0  0  0  0  0  0  0  0
    2.9090   -4.0249    5.9037 N   0  0  0  0  0  0  0  0  0  0  0  0
    4.1585   -4.7036    6.2887 C   0  0  0  0  0  0  0  0  0  0  0  0
    5.0073   -5.1216    5.0939 C   0  0  0  0  0  0  0  0  0  0  0  0
    4.2156   -5.2564    3.7983 C   0  0  0  0  0  0  0  0  0  0  0  0
    1.7725   -4.0557    6.8375 C   0  0  0  0  0  0  0  0  0  0  0  0
    2.1801   -2.1482    4.4732 C   0  0  0  0  0  0  0  0  0  0  0  0
    2.1402   -1.5163    3.2314 C   0  0  0  0  0  0  0  0  0  0  0  0
    5.7075   -0.4292    0.8647 C   0  0  0  0  0  0  0  0  0  0  0  0
    6.4799   -0.4626    1.9370 N   0  0  0  0  0  0  0  0  0  0  0  0
    7.5978   -1.1673    1.9713 N   0  0  0  0  0  0  0  0  0  0  0  0
    8.0240   -1.9053    0.8978 C   0  0  0  0  0  0  0  0  0  0  0  0
    9.0678   -2.5349    0.9901 O   0  0  0  0  0  0  0  0  0  0  0  0
    7.2359   -1.9104   -0.2868 C   0  0  0  0  0  0  0  0  0  0  0  0
    6.0630   -1.1622   -0.3040 C   0  0  0  0  0  0  0  0  0  0  0  0
    5.2895   -1.1643   -1.4649 C   0  0  0  0  0  0  0  0  0  0  0  0
    5.6484   -1.8848   -2.5991 C   0  0  0  0  0  0  0  0  0  0  0  0
    6.8216   -2.6313   -2.5769 C   0  0  0  0  0  0  0  0  0  0  0  0
    7.5971   -2.6330   -1.4225 C   0  0  0  0  0  0  0  0  0  0  0  0
    8.4077   -1.1569    3.1983 C   0  0  0  0  0  0  0  0  0  0  0  0
    9.4146   -0.0202    3.1311 C   0  0  0  0  0  0  0  0  0  0  0  0
    0.2650    2.2731    0.9996 C   0  0  0  0  0  0  0  0  0  0  0  0
   -0.2592   -0.1400    3.6341 H   0  0  0  0  0  0  0  0  0  0  0  0
   -2.3484    0.1439    4.7611 H   0  0  0  0  0  0  0  0  0  0  0  0
   -4.3672    0.3612    3.4996 H   0  0  0  0  0  0  0  0  0  0  0  0
   -4.2974    0.2929    1.1107 H   0  0  0  0  0  0  0  0  0  0  0  0
    0.8054   -0.9698    1.4721 H   0  0  0  0  0  0  0  0  0  0  0  0
    0.0983   -0.5621    0.0577 H   0  0  0  0  0  0  0  0  0  0  0  0
    3.4435   -1.9715    0.1908 H   0  0  0  0  0  0  0  0  0  0  0  0
    1.8856   -1.5193    0.3784 H   0  0  0  0  0  0  0  0  0  0  0  0
    3.8646   -3.7897    1.5507 H   0  0  0  0  0  0  0  0  0  0  0  0
    3.9268   -5.5213    6.8156 H   0  0  0  0  0  0  0  0  0  0  0  0
    4.6958   -4.0814    6.8581 H   0  0  0  0  0  0  0  0  0  0  0  0
    5.4292   -6.0046    5.2996 H   0  0  0  0  0  0  0  0  0  0  0  0
    5.7212   -4.4347    4.9578 H   0  0  0  0  0  0  0  0  0  0  0  0
    4.8374   -5.4257    3.0337 H   0  0  0  0  0  0  0  0  0  0  0  0
    3.5647   -6.0120    3.8723 H   0  0  0  0  0  0  0  0  0  0  0  0
    2.0254   -4.5757    7.6534 H   0  0  0  0  0  0  0  0  0  0  0  0
    1.5308   -3.1213    7.0994 H   0  0  0  0  0  0  0  0  0  0  0  0
    0.9887   -4.4910    6.3944 H   0  0  0  0  0  0  0  0  0  0  0  0
    1.7201   -1.7178    5.2498 H   0  0  0  0  0  0  0  0  0  0  0  0
    1.6632   -0.6450    3.1158 H   0  0  0  0  0  0  0  0  0  0  0  0
    4.4457   -0.6279   -1.4823 H   0  0  0  0  0  0  0  0  0  0  0  0
    5.0727   -1.8664   -3.4166 H   0  0  0  0  0  0  0  0  0  0  0  0
    7.1031   -3.1586   -3.3786 H   0  0  0  0  0  0  0  0  0  0  0  0
    8.4407   -3.1698   -1.4067 H   0  0  0  0  0  0  0  0  0  0  0  0
    8.8926   -2.0271    3.2849 H   0  0  0  0  0  0  0  0  0  0  0  0
    7.8111   -1.0274    3.9903 H   0  0  0  0  0  0  0  0  0  0  0  0
    9.9654   -0.0131    3.9657 H   0  0  0  0  0  0  0  0  0  0  0  0
   10.0111   -0.1497    2.3390 H   0  0  0  0  0  0  0  0  0  0  0  0
    8.9296    0.8500    3.0444 H   0  0  0  0  0  0  0  0  0  0  0  0
   -0.7182    2.0903    0.9996 H   0  0  0  0  0  0  0  0  0  0  0  0
    0.5066    2.7977    1.8159 H   0  0  0  0  0  0  0  0  0  0  0  0
    0.5066    2.7972    0.1829 H   0  0  0  0  0  0  0  0  0  0  0  0
  1  2  1  0  0  0  0
  2  3  2  0  0  0  0
  2  4  1  0  0  0  0
  4  5  1  0  0  0  0
  5  6  2  0  0  0  0
  6  7  1  0  0  0  0
  7  8  2  0  0  0  0
  8  9  1  0  0  0  0
  9  4  2  0  0  0  0
  5 10  1  0  0  0  0
 10 11  1  0  0  0  0
 11 12  1  0  0  0  0
 12 13  2  0  0  0  0
 13 14  1  0  0  0  0
 14 15  2  0  0  0  0
 15 16  1  0  0  0  0
 16 12  1  0  0  0  0
 16 17  1  0  0  0  0
 17 18  1  0  0  0  0
 18 19  1  0  0  0  0
 19 20  2  0  0  0  0
 20 21  1  0  0  0  0
 21 22  1  0  0  0  0
 22 23  1  0  0  0  0
 23 24  1  0  0  0  0
 24 25  1  0  0  0  0
 25 20  1  0  0  0  0
 22 26  1  0  0  0  0
 21 27  2  0  0  0  0
 27 28  1  0  0  0  0
 28 18  2  0  0  0  0
 15 29  1  0  0  0  0
 29 30  2  0  0  0  0
 30 31  1  0  0  0  0
 31 32  1  0  0  0  0
 32 33  2  0  0  0  0
 32 34  1  0  0  0  0
 34 35  1  0  0  0  0
 35 29  1  0  0  0  0
 35 36  2  0  0  0  0
 36 37  1  0  0  0  0
 37 38  2  0  0  0  0
 38 39  1  0  0  0  0
 39 34  2  0  0  0  0
 31 40  1  0  0  0  0
 40 41  1  0  0  0  0
 11 42  1  0  0  0  0
  6 43  1  0  0  0  0
  7 44  1  0  0  0  0
  8 45  1  0  0  0  0
  9 46  1  0  0  0  0
 10 47  1  0  0  0  0
 10 48  1  0  0  0  0
 17 49  1  0  0  0  0
 17 50  1  0  0  0  0
 19 51  1  0  0  0  0
 23 52  1  0  0  0  0
 23 53  1  0  0  0  0
 24 54  1  0  0  0  0
 24 55  1  0  0  0  0
 25 56  1  0  0  0  0
 25 57  1  0  0  0  0
 26 58  1  0  0  0  0
 26 59  1  0  0  0  0
 26 60  1  0  0  0  0
 27 61  1  0  0  0  0
 28 62  1  0  0  0  0
 36 63  1  0  0  0  0
 37 64  1  0  0  0  0
 38 65  1  0  0  0  0
 39 66  1  0  0  0  0
 40 67  1  0  0  0  0
 40 68  1  0  0  0  0
 41 69  1  0  0  0  0
 41 70  1  0  0  0  0
 41 71  1  0  0  0  0
 42 72  1  0  0  0  0
 42 73  1  0  0  0  0
 42 74  1  0  0  0  0
M  CHG  2   1  -1   2   1
M  END
>  <result-rank>
40

>  <similarity>
0.853

>  <query-name>


>  <query-smiles>
Clc1ccc(cc1)CS(=O)(=O)c2cc3N=C(c4c(N(c3cc2)C)cc5c(c4)C(CCC5(C)C)(C)C)c6ccc(cc6)C([O-])=O

>  <source>
REALspace_2019-12

>  <similarity-descriptor>
0.895;0.934;0.802;0.852;0.976;0.661;0.895;0.802;1.000;0.976;0.0;0.0;0.995;0.910;0.143

>  <similarity-descriptor-smiles>
c1ccccc1;c1ccccc1C;C=1ccC(NN1)=O;Cc1ccccc1;c1CCCNc1;NC=1NC=NN1;c1ccccc1;C=1ccC(NN1)=O;C;c1CCCNc1;;;C;[O-][N+]=O;C.C

>  <reaction-name>
m_273170

>  <reagent1-name>
10757270

>  <reagent1-smiles>
[R2*]=C([R1*])N([R3*])Cc1cc2c(N(CCC2)C)cc1

>  <reagent2-name>
10761548

>  <reagent2-smiles>
[R1*]N(Cc1c([N+]([O-])=O)cccc1)C

>  <reagent3-name>
10766594

>  <reagent3-smiles>
[R2*]=NN=C([R3*])C1=NN(C(=O)c2c1cccc2)CC

$$$$
s_42a____8624698____1111390
          04022017333D 1   1.00000     0.00000     0
            
 52 57  0  0  0  0            999 V2000
    3.1964    5.1854    2.5641 S   0  0  0  0  0  0  0  0  0  0  0  0
    3.1152    3.4860    2.5135 C   0  0  0  0  0  0  0  0  0  0  0  0
    1.9682    2.7974    2.4791 N   0  0  0  0  0  0  0  0  0  0  0  0
    2.0533    1.4655    2.4513 C   0  0  0  0  0  0  0  0  0  0  0  0
    3.2540    0.7929    2.4764 C   0  0  0  0  0  0  0  0  0  0  0  0
    4.4179    1.5810    2.4959 C   0  0  0  0  0  0  0  0  0  0  0  0
    4.4016    2.9845    2.5132 C   0  0  0  0  0  0  0  0  0  0  0  0
    5.3723    4.0429    2.5536 C   0  0  0  0  0  0  0  0  0  0  0  0
    4.8882    5.2820    2.5934 C   0  0  0  0  0  0  0  0  0  0  0  0
    5.9062    6.3854    2.6770 C   0  0  0  0  0  0  0  0  0  0  0  0
    7.0245    5.6542    1.9724 C   0  0  0  0  0  0  0  0  0  0  0  0
    6.8683    4.2752    2.5761 C   0  0  0  0  0  0  0  0  0  0  0  0
    5.7268    0.9570    2.4971 C   0  0  0  0  0  0  0  0  0  0  0  0
    6.3575    0.6752    1.2896 C   0  0  0  0  0  0  0  0  0  0  0  0
    7.6124    0.0758    1.2966 C   0  0  0  0  0  0  0  0  0  0  0  0
    8.2217   -0.2335    2.5086 C   0  0  0  0  0  0  0  0  0  0  0  0
    7.5912    0.0509    3.7160 C   0  0  0  0  0  0  0  0  0  0  0  0
    6.3354    0.6491    3.7091 C   0  0  0  0  0  0  0  0  0  0  0  0
    9.5930   -0.8900    2.5096 C   0  0  0  0  0  0  0  0  0  0  0  0
   10.5343    0.0494    2.5263 F   0  0  0  0  0  0  0  0  0  0  0  0
    9.7153   -1.6595    3.5875 F   0  0  0  0  0  0  0  0  0  0  0  0
    9.7289   -1.6344    1.4158 F   0  0  0  0  0  0  0  0  0  0  0  0
    3.0158   -0.6297    2.4816 C   0  0  0  0  0  0  0  0  0  0  0  0
    3.8712   -1.4965    2.5275 O   0  0  0  0  0  0  0  0  0  0  0  0
    1.6450   -0.8654    2.4463 N   0  0  0  0  0  0  0  0  0  0  0  0
    0.9534    0.4184    2.3745 C   0  0  0  0  0  0  0  0  0  0  0  0
    1.0029   -2.1908    2.4496 C   0  0  0  0  0  0  0  0  0  0  0  0
    0.5178   -2.5154    3.8535 C   0  0  0  0  0  0  0  0  0  0  0  0
   -0.7664   -2.1474    4.2410 C   0  0  0  0  0  0  0  0  0  0  0  0
   -1.2060   -2.4456    5.5267 C   0  0  0  0  0  0  0  0  0  0  0  0
   -0.3638   -3.1080    6.4135 C   0  0  0  0  0  0  0  0  0  0  0  0
    0.9168   -3.4712    6.0153 C   0  0  0  0  0  0  0  0  0  0  0  0
    1.3684   -3.1781    4.7326 C   0  0  0  0  0  0  0  0  0  0  0  0
    6.1381    6.6218    3.6206 H   0  0  0  0  0  0  0  0  0  0  0  0
    5.6193    7.2090    2.1878 H   0  0  0  0  0  0  0  0  0  0  0  0
    7.9174    6.0517    2.1838 H   0  0  0  0  0  0  0  0  0  0  0  0
    6.8915    5.6414    0.9813 H   0  0  0  0  0  0  0  0  0  0  0  0
    7.3443    3.5889    2.0263 H   0  0  0  0  0  0  0  0  0  0  0  0
    7.2187    4.2538    3.5125 H   0  0  0  0  0  0  0  0  0  0  0  0
    5.9121    0.9018    0.4235 H   0  0  0  0  0  0  0  0  0  0  0  0
    8.0747   -0.1319    0.4345 H   0  0  0  0  0  0  0  0  0  0  0  0
    8.0375   -0.1731    4.5823 H   0  0  0  0  0  0  0  0  0  0  0  0
    5.8727    0.8567    4.5710 H   0  0  0  0  0  0  0  0  0  0  0  0
    0.3189    0.5188    3.1409 H   0  0  0  0  0  0  0  0  0  0  0  0
    0.4514    0.4991    1.5134 H   0  0  0  0  0  0  0  0  0  0  0  0
    1.6637   -2.8820    2.1572 H   0  0  0  0  0  0  0  0  0  0  0  0
    0.2252   -2.1860    1.8210 H   0  0  0  0  0  0  0  0  0  0  0  0
   -1.3692   -1.6721    3.6001 H   0  0  0  0  0  0  0  0  0  0  0  0
   -2.1275   -2.1836    5.8133 H   0  0  0  0  0  0  0  0  0  0  0  0
   -0.6800   -3.3230    7.3376 H   0  0  0  0  0  0  0  0  0  0  0  0
    1.5190   -3.9472    6.6562 H   0  0  0  0  0  0  0  0  0  0  0  0
    2.2903   -3.4399    4.4468 H   0  0  0  0  0  0  0  0  0  0  0  0
  1  2  1  0  0  0  0
  2  3  1  0  0  0  0
  3  4  2  0  0  0  0
  4  5  1  0  0  0  0
  5  6  2  0  0  0  0
  6  7  1  0  0  0  0
  7  2  2  0  0  0  0
  7  8  1  0  0  0  0
  8  9  2  0  0  0  0
  9  1  1  0  0  0  0
  9 10  1  0  0  0  0
 10 11  1  0  0  0  0
 11 12  1  0  0  0  0
 12  8  1  0  0  0  0
  6 13  1  0  0  0  0
 13 14  1  0  0  0  0
 14 15  2  0  0  0  0
 15 16  1  0  0  0  0
 16 17  2  0  0  0  0
 17 18  1  0  0  0  0
 18 13  2  0  0  0  0
 16 19  1  0  0  0  0
 19 20  1  0  0  0  0
 19 21  1  0  0  0  0
 19 22  1  0  0  0  0
  5 23  1  0  0  0  0
 23 24  2  0  0  0  0
 23 25  1  0  0  0  0
 25 26  1  0  0  0  0
 26  4  1  0  0  0  0
 25 27  1  0  0  0  0
 27 28  1  0  0  0  0
 28 29  1  0  0  0  0
 29 30  2  0  0  0  0
 30 31  1  0  0  0  0
 31 32  2  0  0  0  0
 32 33  1  0  0  0  0
 33 28  2  0  0  0  0
 10 34  1  0  0  0  0
 10 35  1  0  0  0  0
 11 36  1  0  0  0  0
 11 37  1  0  0  0  0
 12 38  1  0  0  0  0
 12 39  1  0  0  0  0
 14 40  1  0  0  0  0
 15 41  1  0  0  0  0
 17 42  1  0  0  0  0
 18 43  1  0  0  0  0
 26 44  1  0  0  0  0
 26 45  1  0  0  0  0
 27 46  1  0  0  0  0
 27 47  1  0  0  0  0
 29 48  1  0  0  0  0
 30 49  1  0  0  0  0
 31 50  1  0  0  0  0
 32 51  1  0  0  0  0
 33 52  1  0  0  0  0
M  END
>  <result-rank>
41

>  <similarity>
0.853

>  <query-name>


>  <query-smiles>
Clc1ccc(cc1)CS(=O)(=O)c2cc3N=C(c4c(N(c3cc2)C)cc5c(c4)C(CCC5(C)C)(C)C)c6ccc(cc6)C([O-])=O

>  <source>
REALspace_2019-12

>  <similarity-descriptor>
0.952;0.942;0.656;0.830;0.965;0.896;0.996;0.656;0.0;0.965;0.0;0.0;0.0;0.0;0.0

>  <similarity-descriptor-smiles>
c1ccccc1;c1ccc(cc1)C(F)(F)F;c1CNC(c1)=O;S1C=Ccc1;C=1CCCC1;c1ccccn1;C;c1CNC(c1)=O;;C=1CCCC1;;;;;

>  <reaction-name>
s_42a

>  <reagent1-name>
8624698

>  <reagent1-smiles>
[R1*]=NC=1SC2=C(C1C(=[R2*])c3ccc(cc3)C(F)(F)F)CCC2

>  <reagent2-name>
1111390

>  <reagent2-smiles>
[R2*]=C([N+]([O-])=O)C(=[R1*])Cc1ccccc1

$$$$
s_2740a____1322246____8583856
          04022017333D 1   1.00000     0.00000     0
            
 74 79  0  0  0  0            999 V2000
    0.1850    2.4116    1.0000 S   0  0  0  0  0  0  0  0  0  0  0  0
   -1.1598    2.1894    1.4643 O   0  0  0  0  0  0  0  0  0  0  0  0
    0.8457    3.3473    1.8727 O   0  0  0  0  0  0  0  0  0  0  0  0
    1.0000    1.0000    1.0000 N   0  0  0  0  0  0  0  0  0  0  0  0
    0.3001   -0.2123    1.0000 C   0  0  0  0  0  0  0  0  0  0  0  0
   -0.0394   -0.7999    2.2145 C   0  0  0  0  0  0  0  0  0  0  0  0
   -0.7353   -2.0046    2.2144 C   0  0  0  0  0  0  0  0  0  0  0  0
   -1.0831   -2.6066    1.0097 C   0  0  0  0  0  0  0  0  0  0  0  0
   -1.7583   -3.7754    1.0099 O   0  0  0  0  0  0  0  0  0  0  0  0
   -0.7438   -2.0191   -0.2050 C   0  0  0  0  0  0  0  0  0  0  0  0
   -0.0476   -0.8146   -0.2047 C   0  0  0  0  0  0  0  0  0  0  0  0
    2.3700    1.0000    1.0000 C   0  0  0  0  0  0  0  0  0  0  0  0
    2.9700    2.0392    1.0000 O   0  0  0  0  0  0  0  0  0  0  0  0
    3.0956   -0.2568    1.0000 C   0  0  0  0  0  0  0  0  0  0  0  0
    3.4719   -0.9086   -0.1737 C   0  0  0  0  0  0  0  0  0  0  0  0
    4.1672   -2.1119   -0.0861 C   0  0  0  0  0  0  0  0  0  0  0  0
    4.4656   -2.6279    1.1160 N   0  0  0  0  0  0  0  0  0  0  0  0
    4.1105   -2.0123    2.2543 C   0  0  0  0  0  0  0  0  0  0  0  0
    4.4373   -2.5764    3.5496 C   0  0  0  0  0  0  0  0  0  0  0  0
    5.1324   -3.7792    3.6224 C   0  0  0  0  0  0  0  0  0  0  0  0
    5.4424   -4.3162    4.8673 C   0  0  0  0  0  0  0  0  0  0  0  0
    5.0554   -3.6451    6.0230 C   0  0  0  0  0  0  0  0  0  0  0  0
    4.3622   -2.4407    5.9492 C   0  0  0  0  0  0  0  0  0  0  0  0
    4.0509   -1.9044    4.7042 C   0  0  0  0  0  0  0  0  0  0  0  0
    5.3958   -4.2377    7.3804 C   0  0  0  0  0  0  0  0  0  0  0  0
    6.2660   -3.2699    8.1659 C   0  0  0  0  0  0  0  0  0  0  0  0
    6.6078   -3.8607    9.5242 C   0  0  0  0  0  0  0  0  0  0  0  0
    5.3342   -4.1610   10.2980 C   0  0  0  0  0  0  0  0  0  0  0  0
    4.4644   -5.1300    9.5135 C   0  0  0  0  0  0  0  0  0  0  0  0
    4.1231   -4.5392    8.1550 C   0  0  0  0  0  0  0  0  0  0  0  0
    3.4155   -0.8091    2.2346 C   0  0  0  0  0  0  0  0  0  0  0  0
    4.5466   -2.7704   -1.2516 C   0  0  0  0  0  0  0  0  0  0  0  0
    4.2436   -2.2471   -2.5038 C   0  0  0  0  0  0  0  0  0  0  0  0
    3.5502   -1.0466   -2.6064 C   0  0  0  0  0  0  0  0  0  0  0  0
    3.1753   -0.3967   -1.4356 C   0  0  0  0  0  0  0  0  0  0  0  0
    0.1417    3.0563   -0.6153 C   0  0  0  0  0  0  0  0  0  0  0  0
   -0.9044    2.7186   -1.4672 C   0  0  0  0  0  0  0  0  0  0  0  0
   -0.9412    3.2328   -2.7594 C   0  0  0  0  0  0  0  0  0  0  0  0
    0.0759    4.0818   -3.1825 C   0  0  0  0  0  0  0  0  0  0  0  0
    1.1221    4.4187   -2.3300 C   0  0  0  0  0  0  0  0  0  0  0  0
    1.1592    3.9056   -1.0382 C   0  0  0  0  0  0  0  0  0  0  0  0
    0.0409    4.6452   -4.5936 C   0  0  0  0  0  0  0  0  0  0  0  0
    0.2137   -0.3617    3.0770 H   0  0  0  0  0  0  0  0  0  0  0  0
   -0.9854   -2.4377    3.0804 H   0  0  0  0  0  0  0  0  0  0  0  0
   -2.0085   -4.2084    0.1439 H   0  0  0  0  0  0  0  0  0  0  0  0
   -0.9971   -2.4572   -1.0675 H   0  0  0  0  0  0  0  0  0  0  0  0
    0.2028   -0.3817   -1.0707 H   0  0  0  0  0  0  0  0  0  0  0  0
    5.4071   -4.2540    2.7862 H   0  0  0  0  0  0  0  0  0  0  0  0
    5.9411   -5.1806    4.9314 H   0  0  0  0  0  0  0  0  0  0  0  0
    4.0899   -1.9644    6.7852 H   0  0  0  0  0  0  0  0  0  0  0  0
    3.5519   -1.0401    4.6397 H   0  0  0  0  0  0  0  0  0  0  0  0
    5.9012   -5.0897    7.2440 H   0  0  0  0  0  0  0  0  0  0  0  0
    5.7720   -2.4099    8.2939 H   0  0  0  0  0  0  0  0  0  0  0  0
    7.1101   -3.0971    7.6583 H   0  0  0  0  0  0  0  0  0  0  0  0
    7.1616   -3.2067   10.0396 H   0  0  0  0  0  0  0  0  0  0  0  0
    7.1246   -4.7072    9.3963 H   0  0  0  0  0  0  0  0  0  0  0  0
    4.8299   -3.3107   10.4483 H   0  0  0  0  0  0  0  0  0  0  0  0
    5.5711   -4.5685   11.1800 H   0  0  0  0  0  0  0  0  0  0  0  0
    4.9585   -5.9899    9.3860 H   0  0  0  0  0  0  0  0  0  0  0  0
    3.6202   -5.3026   10.0210 H   0  0  0  0  0  0  0  0  0  0  0  0
    3.5697   -5.1935    7.6396 H   0  0  0  0  0  0  0  0  0  0  0  0
    3.6058   -3.6930    8.2830 H   0  0  0  0  0  0  0  0  0  0  0  0
    3.1529   -0.3533    3.0851 H   0  0  0  0  0  0  0  0  0  0  0  0
    5.0456   -3.6347   -1.1876 H   0  0  0  0  0  0  0  0  0  0  0  0
    4.5246   -2.7344   -3.3306 H   0  0  0  0  0  0  0  0  0  0  0  0
    3.3263   -0.6596   -3.5009 H   0  0  0  0  0  0  0  0  0  0  0  0
    2.6761    0.4673   -1.5013 H   0  0  0  0  0  0  0  0  0  0  0  0
   -1.6295    2.1068   -1.1512 H   0  0  0  0  0  0  0  0  0  0  0  0
   -1.6906    2.9946   -3.3771 H   0  0  0  0  0  0  0  0  0  0  0  0
    1.8477    5.0299   -2.6462 H   0  0  0  0  0  0  0  0  0  0  0  0
    1.9084    4.1443   -0.4203 H   0  0  0  0  0  0  0  0  0  0  0  0
    0.8375    5.2324   -4.7379 H   0  0  0  0  0  0  0  0  0  0  0  0
    0.0569    3.8937   -5.2531 H   0  0  0  0  0  0  0  0  0  0  0  0
   -0.7946    5.1804   -4.7182 H   0  0  0  0  0  0  0  0  0  0  0  0
  1  2  2  0  0  0  0
  1  3  2  0  0  0  0
  1  4  1  0  0  0  0
  4  5  1  0  0  0  0
  5  6  1  0  0  0  0
  6  7  2  0  0  0  0
  7  8  1  0  0  0  0
  8  9  1  0  0  0  0
  8 10  2  0  0  0  0
 10 11  1  0  0  0  0
 11  5  2  0  0  0  0
  4 12  1  0  0  0  0
 12 13  2  0  0  0  0
 12 14  1  0  0  0  0
 14 15  1  0  0  0  0
 15 16  2  0  0  0  0
 16 17  1  0  0  0  0
 17 18  2  0  0  0  0
 18 19  1  0  0  0  0
 19 20  1  0  0  0  0
 20 21  2  0  0  0  0
 21 22  1  0  0  0  0
 22 23  2  0  0  0  0
 23 24  1  0  0  0  0
 24 19  2  0  0  0  0
 22 25  1  0  0  0  0
 25 26  1  0  0  0  0
 26 27  1  0  0  0  0
 27 28  1  0  0  0  0
 28 29  1  0  0  0  0
 29 30  1  0  0  0  0
 30 25  1  0  0  0  0
 18 31  1  0  0  0  0
 31 14  2  0  0  0  0
 16 32  1  0  0  0  0
 32 33  2  0  0  0  0
 33 34  1  0  0  0  0
 34 35  2  0  0  0  0
 35 15  1  0  0  0  0
  1 36  1  0  0  0  0
 36 37  1  0  0  0  0
 37 38  2  0  0  0  0
 38 39  1  0  0  0  0
 39 40  2  0  0  0  0
 40 41  1  0  0  0  0
 41 36  2  0  0  0  0
 39 42  1  0  0  0  0
  6 43  1  0  0  0  0
  7 44  1  0  0  0  0
  9 45  1  0  0  0  0
 10 46  1  0  0  0  0
 11 47  1  0  0  0  0
 20 48  1  0  0  0  0
 21 49  1  0  0  0  0
 23 50  1  0  0  0  0
 24 51  1  0  0  0  0
 25 52  1  0  0  0  0
 26 53  1  0  0  0  0
 26 54  1  0  0  0  0
 27 55  1  0  0  0  0
 27 56  1  0  0  0  0
 28 57  1  0  0  0  0
 28 58  1  0  0  0  0
 29 59  1  0  0  0  0
 29 60  1  0  0  0  0
 30 61  1  0  0  0  0
 30 62  1  0  0  0  0
 31 63  1  0  0  0  0
 32 64  1  0  0  0  0
 33 65  1  0  0  0  0
 34 66  1  0  0  0  0
 35 67  1  0  0  0  0
 37 68  1  0  0  0  0
 38 69  1  0  0  0  0
 40 70  1  0  0  0  0
 41 71  1  0  0  0  0
 42 72  1  0  0  0  0
 42 73  1  0  0  0  0
 42 74  1  0  0  0  0
M  END
>  <result-rank>
42

>  <similarity>
0.852

>  <query-name>


>  <query-smiles>
Clc1ccc(cc1)CS(=O)(=O)c2cc3N=C(c4c(N(c3cc2)C)cc5c(c4)C(CCC5(C)C)(C)C)c6ccc(cc6)C([O-])=O

>  <source>
REALspace_2019-12

>  <similarity-descriptor>
0.958;0.984;0.928;0.863;0.838;0.618;0.901;0.901;0.0;0.838;0.838;0.838;0.838;0.0;0.091

>  <similarity-descriptor-smiles>
c1ccc(cc1)C;c1ccccc1;Nc1ccccc1;c1ccccc1;C1CCCCC1;C(=O)c1ccncc1;S(=O)=O;S(=O)=O;;C1CCCCC1;C1CCCCC1;C1CCCCC1;C1CCCCC1;;O

>  <reaction-name>
s_2740a

>  <reagent1-name>
1322246

>  <reagent1-smiles>
[R1*]N(S(=O)(=O)c1ccc(cc1)C)c2ccc(O)cc2

>  <reagent2-name>
8583856

>  <reagent2-smiles>
[R1*]C(=O)c1c2c(nc(c3ccc(cc3)C4CCCCC4)c1)cccc2

$$$$
s_42a____8631722____7025788
          04022017333D 1   1.00000     0.00000     0
            
 60 65  0  0  0  0            999 V2000
    6.3461   -1.7241    2.4726 Cl  0  0  0  0  0  0  0  0  0  0  0  0
    5.4805   -0.1686    2.4698 C   0  0  0  0  0  0  0  0  0  0  0  0
    6.1973    1.0231    2.4554 C   0  0  0  0  0  0  0  0  0  0  0  0
    5.5286    2.1834    2.4483 N   0  0  0  0  0  0  0  0  0  0  0  0
    4.2024    2.1150    2.4561 C   0  0  0  0  0  0  0  0  0  0  0  0
    3.3772    3.5979    2.4370 S   0  0  0  0  0  0  0  0  0  0  0  0
    1.8532    2.8504    2.4652 C   0  0  0  0  0  0  0  0  0  0  0  0
    2.0166    1.4939    2.5143 C   0  0  0  0  0  0  0  0  0  0  0  0
    3.3594    1.0317    2.4924 C   0  0  0  0  0  0  0  0  0  0  0  0
    4.0901   -0.1562    2.4875 C   0  0  0  0  0  0  0  0  0  0  0  0
    3.3912   -1.4265    2.5074 C   0  0  0  0  0  0  0  0  0  0  0  0
    3.0801   -2.0096    3.7309 C   0  0  0  0  0  0  0  0  0  0  0  0
    2.4107   -3.2288    3.7605 C   0  0  0  0  0  0  0  0  0  0  0  0
    2.0602   -3.8491    2.5658 C   0  0  0  0  0  0  0  0  0  0  0  0
    1.4091   -5.0316    2.5845 O   0  0  0  0  0  0  0  0  0  0  0  0
    1.0516   -5.6642    1.3645 C   0  0  0  0  0  0  0  0  0  0  0  0
    2.3718   -3.2655    1.3421 C   0  0  0  0  0  0  0  0  0  0  0  0
    3.0414   -2.0468    1.3123 C   0  0  0  0  0  0  0  0  0  0  0  0
    0.7009    0.7294    2.5845 C   0  0  0  0  0  0  0  0  0  0  0  0
   -0.4922    1.5479    2.1271 C   0  0  0  0  0  0  0  0  0  0  0  0
   -0.5052    2.8285    2.9457 C   0  0  3  0  0  0  0  0  0  0  0  0
    0.6104    3.7182    2.4284 C   0  0  0  0  0  0  0  0  0  0  0  0
   -1.7931    3.6070    2.7396 C   0  0  0  0  0  0  0  0  0  0  0  0
    7.6479    1.0153    2.4467 C   0  0  0  0  0  0  0  0  0  0  0  0
    8.4512    0.1712    3.1524 N   0  0  0  0  0  0  0  0  0  0  0  0
    9.6503    0.4668    2.8902 N   0  0  0  0  0  0  0  0  0  0  0  0
    9.7125    1.4623    2.0399 N   0  0  0  0  0  0  0  0  0  0  0  0
   10.8879    2.0340    1.5393 C   0  0  0  0  0  0  0  0  0  0  0  0
   10.8071    3.0906    0.6383 C   0  0  0  0  0  0  0  0  0  0  0  0
   11.9819    3.6503    0.1475 C   0  0  0  0  0  0  0  0  0  0  0  0
   13.2243    3.1677    0.5450 C   0  0  0  0  0  0  0  0  0  0  0  0
   13.2803    2.1102    1.4474 C   0  0  0  0  0  0  0  0  0  0  0  0
   12.1188    1.5351    1.9513 C   0  0  0  0  0  0  0  0  0  0  0  0
   11.9002    4.8051   -0.8377 C   0  0  0  0  0  0  0  0  0  0  0  0
   11.8868    5.9561   -0.1715 F   0  0  0  0  0  0  0  0  0  0  0  0
   12.9554    4.7733   -1.6466 F   0  0  0  0  0  0  0  0  0  0  0  0
   10.7868    4.6962   -1.5570 F   0  0  0  0  0  0  0  0  0  0  0  0
    8.4461    1.8461    1.7272 C   0  0  0  0  0  0  0  0  0  0  0  0
    3.3360   -1.5553    4.5842 H   0  0  0  0  0  0  0  0  0  0  0  0
    2.1830   -3.6566    4.6352 H   0  0  0  0  0  0  0  0  0  0  0  0
    0.5797   -6.5237    1.5605 H   0  0  0  0  0  0  0  0  0  0  0  0
    0.4465   -5.0633    0.8422 H   0  0  0  0  0  0  0  0  0  0  0  0
    1.8769   -5.8510    0.8315 H   0  0  0  0  0  0  0  0  0  0  0  0
    2.1158   -3.7196    0.4888 H   0  0  0  0  0  0  0  0  0  0  0  0
    3.2699   -1.6193    0.4377 H   0  0  0  0  0  0  0  0  0  0  0  0
    0.5479    0.4466    3.5314 H   0  0  0  0  0  0  0  0  0  0  0  0
    0.7726   -0.0805    2.0023 H   0  0  0  0  0  0  0  0  0  0  0  0
   -0.4054    1.7647    1.1547 H   0  0  0  0  0  0  0  0  0  0  0  0
   -1.3372    1.0356    2.2803 H   0  0  0  0  0  0  0  0  0  0  0  0
   -0.3701    2.6255    3.9155 H   0  0  0  0  0  0  0  0  0  0  0  0
    0.4174    4.0163    1.4936 H   0  0  0  0  0  0  0  0  0  0  0  0
    0.7231    4.5187    3.0171 H   0  0  0  0  0  0  0  0  0  0  0  0
   -2.5668    3.0637    3.0656 H   0  0  0  0  0  0  0  0  0  0  0  0
   -1.7493    4.4651    3.2512 H   0  0  0  0  0  0  0  0  0  0  0  0
   -1.9110    3.8046    1.7665 H   0  0  0  0  0  0  0  0  0  0  0  0
    9.9174    3.4427    0.3478 H   0  0  0  0  0  0  0  0  0  0  0  0
   14.0649    3.5748    0.1875 H   0  0  0  0  0  0  0  0  0  0  0  0
   14.1699    1.7581    1.7382 H   0  0  0  0  0  0  0  0  0  0  0  0
   12.1679    0.7751    2.5994 H   0  0  0  0  0  0  0  0  0  0  0  0
    8.1650    2.5773    1.1057 H   0  0  0  0  0  0  0  0  0  0  0  0
  1  2  1  0  0  0  0
  2  3  1  0  0  0  0
  3  4  2  0  0  0  0
  4  5  1  0  0  0  0
  5  6  1  0  0  0  0
  6  7  1  0  0  0  0
  7  8  2  0  0  0  0
  8  9  1  0  0  0  0
  9  5  2  0  0  0  0
  9 10  1  0  0  0  0
 10  2  2  0  0  0  0
 10 11  1  0  0  0  0
 11 12  1  0  0  0  0
 12 13  2  0  0  0  0
 13 14  1  0  0  0  0
 14 15  1  0  0  0  0
 15 16  1  0  0  0  0
 14 17  2  0  0  0  0
 17 18  1  0  0  0  0
 18 11  2  0  0  0  0
  8 19  1  0  0  0  0
 19 20  1  0  0  0  0
 20 21  1  0  0  0  0
 21 22  1  0  0  0  0
 22  7  1  0  0  0  0
 21 23  1  0  0  0  0
  3 24  1  0  0  0  0
 24 25  1  0  0  0  0
 25 26  2  0  0  0  0
 26 27  1  0  0  0  0
 27 28  1  0  0  0  0
 28 29  1  0  0  0  0
 29 30  2  0  0  0  0
 30 31  1  0  0  0  0
 31 32  2  0  0  0  0
 32 33  1  0  0  0  0
 33 28  2  0  0  0  0
 30 34  1  0  0  0  0
 34 35  1  0  0  0  0
 34 36  1  0  0  0  0
 34 37  1  0  0  0  0
 27 38  1  0  0  0  0
 24 38  2  0  0  0  0
 12 39  1  0  0  0  0
 13 40  1  0  0  0  0
 16 41  1  0  0  0  0
 16 42  1  0  0  0  0
 16 43  1  0  0  0  0
 17 44  1  0  0  0  0
 18 45  1  0  0  0  0
 19 46  1  0  0  0  0
 19 47  1  0  0  0  0
 20 48  1  0  0  0  0
 20 49  1  0  0  0  0
 21 50  1  0  0  0  0
 22 51  1  0  0  0  0
 22 52  1  0  0  0  0
 23 53  1  0  0  0  0
 23 54  1  0  0  0  0
 23 55  1  0  0  0  0
 29 56  1  0  0  0  0
 31 57  1  0  0  0  0
 32 58  1  0  0  0  0
 33 59  1  0  0  0  0
 38 60  1  0  0  0  0
M  END
>  <result-rank>
43

>  <similarity>
0.851

>  <query-name>


>  <query-smiles>
Clc1ccc(cc1)CS(=O)(=O)c2cc3N=C(c4c(N(c3cc2)C)cc5c(c4)C(CCC5(C)C)(C)C)c6ccc(cc6)C([O-])=O

>  <source>
REALspace_2019-12

>  <similarity-descriptor>
0.974;0.998;0.614;0.830;0.947;0.870;0.614;0.614;0.870;0.947;0.947;0.0;1.000;0.490;0.0

>  <similarity-descriptor-smiles>
c1cccc(c1)C(F)(F)F;c1ccccc1;C1=CNN=N1;c1cC=CS1;C=1CCCCC1;Clc1cccnc1;C1=CNN=N1;C1=CNN=N1;Clc1cccnc1;C=1CCCCC1;C=1CCCCC1;;C;OC;

>  <reaction-name>
s_42a

>  <reagent1-name>
8631722

>  <reagent1-smiles>
[R1*]=NC=1SC2=C(C1C(=[R2*])c3ccc(OC)cc3)CCC2

>  <reagent2-name>
7025788

>  <reagent2-smiles>
[R2*]=C(Cl)C(=[R1*])C=1N=NN(c2cc(ccc2)C(F)(F)F)C1

$$$$
m_274860a____15212662____17209716____15233702
          04022017333D 1   1.00000     0.00000     0
            
 54 57  0  0  0  0            999 V2000
   -6.2905    2.6280    5.8230 O   0  5  0  0  0  0  0  0  0  0  0  0
   -5.2440    2.4472    5.2431 C   0  0  0  0  0  0  0  0  0  0  0  0
   -4.8591    1.2839    4.9962 O   0  0  0  0  0  0  0  0  0  0  0  0
   -4.4364    3.5800    4.8348 C   0  0  0  0  0  0  0  0  0  0  0  0
   -3.2359    3.3600    4.1674 C   0  0  0  0  0  0  0  0  0  0  0  0
   -2.4712    4.4550    3.7793 C   0  0  0  0  0  0  0  0  0  0  0  0
   -2.8899    5.7537    4.0497 C   0  0  0  0  0  0  0  0  0  0  0  0
   -4.0939    5.9488    4.7181 C   0  0  0  0  0  0  0  0  0  0  0  0
   -4.8758    4.8694    5.1155 C   0  0  0  0  0  0  0  0  0  0  0  0
   -1.2178    4.2341    3.0831 C   0  0  0  0  0  0  0  0  0  0  0  0
   -0.8403    4.8076    1.9064 N   0  0  0  0  0  0  0  0  0  0  0  0
    0.3093    4.3746    1.6148 N   0  0  0  0  0  0  0  0  0  0  0  0
    0.7421    3.5413    2.5292 N   0  0  0  0  0  0  0  0  0  0  0  0
    1.9788    2.8838    2.5133 C   0  0  0  0  0  0  0  0  0  0  0  0
    3.1746    3.5961    2.5048 C   0  0  0  0  0  0  0  0  0  0  0  0
    4.3891    2.9166    2.4886 C   0  0  0  0  0  0  0  0  0  0  0  0
    4.4078    1.5254    2.4811 C   0  0  0  0  0  0  0  0  0  0  0  0
    3.2081    0.8214    2.4901 C   0  0  0  0  0  0  0  0  0  0  0  0
    1.9895    1.4925    2.5064 C   0  0  0  0  0  0  0  0  0  0  0  0
    3.2290   -0.6987    2.4825 C   0  0  0  0  0  0  0  0  0  0  0  0
    3.1550    5.0462    2.5117 C   0  0  0  0  0  0  0  0  0  0  0  0
    2.8012    5.6368    3.4946 O   0  0  0  0  0  0  0  0  0  0  0  0
    3.5405    5.7418    1.3962 N   0  0  0  0  0  0  0  0  0  0  0  0
    3.9621    5.0381    0.2249 O   0  0  0  0  0  0  0  0  0  0  0  0
    2.9861    5.1897   -0.7954 C   0  0  0  0  0  0  0  0  0  0  0  0
    3.5206    7.2117    1.4032 C   0  0  0  0  0  0  0  0  0  0  0  0
    4.9277    7.7364    1.6406 C   0  0  0  0  0  0  0  0  0  0  0  0
    5.7634    7.9825    0.5562 C   0  0  0  0  0  0  0  0  0  0  0  0
    7.0503    8.4618    0.7779 C   0  0  0  0  0  0  0  0  0  0  0  0
    7.4925    8.6926    2.0763 C   0  0  0  0  0  0  0  0  0  0  0  0
    6.6488    8.4435    3.1519 C   0  0  0  0  0  0  0  0  0  0  0  0
    5.3599    7.9636    2.9434 C   0  0  0  0  0  0  0  0  0  0  0  0
   -0.2092    3.4221    3.4934 C   0  0  0  0  0  0  0  0  0  0  0  0
   -2.9276    2.4294    3.9698 H   0  0  0  0  0  0  0  0  0  0  0  0
   -2.3337    6.5354    3.7677 H   0  0  0  0  0  0  0  0  0  0  0  0
   -4.4021    6.8793    4.9160 H   0  0  0  0  0  0  0  0  0  0  0  0
   -5.7403    5.0181    5.5956 H   0  0  0  0  0  0  0  0  0  0  0  0
    5.2482    3.4282    2.4825 H   0  0  0  0  0  0  0  0  0  0  0  0
    5.2788    1.0344    2.4692 H   0  0  0  0  0  0  0  0  0  0  0  0
    1.1306    0.9805    2.5131 H   0  0  0  0  0  0  0  0  0  0  0  0
    4.1763   -1.0190    2.4707 H   0  0  0  0  0  0  0  0  0  0  0  0
    2.7710   -1.0425    3.3023 H   0  0  0  0  0  0  0  0  0  0  0  0
    2.7535   -1.0346    1.6694 H   0  0  0  0  0  0  0  0  0  0  0  0
    3.2810    4.6975   -1.6144 H   0  0  0  0  0  0  0  0  0  0  0  0
    2.1131    4.8182   -0.4794 H   0  0  0  0  0  0  0  0  0  0  0  0
    2.8771    6.1601   -1.0108 H   0  0  0  0  0  0  0  0  0  0  0  0
    2.9174    7.5334    2.1330 H   0  0  0  0  0  0  0  0  0  0  0  0
    3.1849    7.5448    0.5221 H   0  0  0  0  0  0  0  0  0  0  0  0
    5.4414    7.8162   -0.3758 H   0  0  0  0  0  0  0  0  0  0  0  0
    7.6576    8.6404    0.0038 H   0  0  0  0  0  0  0  0  0  0  0  0
    8.4174    9.0377    2.2357 H   0  0  0  0  0  0  0  0  0  0  0  0
    6.9709    8.6107    4.0837 H   0  0  0  0  0  0  0  0  0  0  0  0
    4.7534    7.7847    3.7180 H   0  0  0  0  0  0  0  0  0  0  0  0
   -0.1741    2.8612    4.3206 H   0  0  0  0  0  0  0  0  0  0  0  0
  1  2  1  0  0  0  0
  2  3  2  0  0  0  0
  2  4  1  0  0  0  0
  4  5  1  0  0  0  0
  5  6  2  0  0  0  0
  6  7  1  0  0  0  0
  7  8  2  0  0  0  0
  8  9  1  0  0  0  0
  9  4  2  0  0  0  0
  6 10  1  0  0  0  0
 10 11  1  0  0  0  0
 11 12  2  0  0  0  0
 12 13  1  0  0  0  0
 13 14  1  0  0  0  0
 14 15  1  0  0  0  0
 15 16  2  0  0  0  0
 16 17  1  0  0  0  0
 17 18  2  0  0  0  0
 18 19  1  0  0  0  0
 19 14  2  0  0  0  0
 18 20  1  0  0  0  0
 15 21  1  0  0  0  0
 21 22  2  0  0  0  0
 21 23  1  0  0  0  0
 23 24  1  0  0  0  0
 24 25  1  0  0  0  0
 23 26  1  0  0  0  0
 26 27  1  0  0  0  0
 27 28  1  0  0  0  0
 28 29  2  0  0  0  0
 29 30  1  0  0  0  0
 30 31  2  0  0  0  0
 31 32  1  0  0  0  0
 32 27  2  0  0  0  0
 13 33  1  0  0  0  0
 10 33  2  0  0  0  0
  5 34  1  0  0  0  0
  7 35  1  0  0  0  0
  8 36  1  0  0  0  0
  9 37  1  0  0  0  0
 16 38  1  0  0  0  0
 17 39  1  0  0  0  0
 19 40  1  0  0  0  0
 20 41  1  0  0  0  0
 20 42  1  0  0  0  0
 20 43  1  0  0  0  0
 25 44  1  0  0  0  0
 25 45  1  0  0  0  0
 25 46  1  0  0  0  0
 26 47  1  0  0  0  0
 26 48  1  0  0  0  0
 28 49  1  0  0  0  0
 29 50  1  0  0  0  0
 30 51  1  0  0  0  0
 31 52  1  0  0  0  0
 32 53  1  0  0  0  0
 33 54  1  0  0  0  0
M  CHG  1   1  -1
M  END
>  <result-rank>
44

>  <similarity>
0.851

>  <query-name>


>  <query-smiles>
Clc1ccc(cc1)CS(=O)(=O)c2cc3N=C(c4c(N(c3cc2)C)cc5c(c4)C(CCC5(C)C)(C)C)c6ccc(cc6)C([O-])=O

>  <source>
REALspace_2019-12

>  <similarity-descriptor>
0.952;1.000;0.983;0.0;0.0;0.635;0.996;0.921;0.0;0.0;0.0;0.0;0.0;1.000;0.182

>  <similarity-descriptor-smiles>
c1ccccc1;c1ccccc1;c1ccccc1;;;C1=CNN=N1;C;C(=O)NO;;;;;;[O-]C=O;C.C

>  <reaction-name>
m_274860a

>  <reagent1-name>
15212662

>  <reagent1-smiles>
[R3*]N(OC)Cc1ccccc1

>  <reagent2-name>
17209716

>  <reagent2-smiles>
[R1*]N=NN([R2*])c1c(ccc(c1)C)C([R3*])=O

>  <reagent3-name>
15233702

>  <reagent3-smiles>
[R1*]C(c1cc(ccc1)C(=O)O)=C[R2*]

$$$$
s_42a____9450124____1111314
          04022017333D 1   1.00000     0.00000     0
            
 57 62  0  0  0  0            999 V2000
    0.4648    3.7275    2.5286 S   0  0  0  0  0  0  0  0  0  0  0  0
   -0.5203    2.9301    3.2123 O   0  0  0  0  0  0  0  0  0  0  0  0
    0.6237    4.9846    3.2127 O   0  0  0  0  0  0  0  0  0  0  0  0
   -0.0241    4.0000    0.9977 N   0  0  0  0  0  0  0  0  0  0  0  0
    0.9815    4.8140    0.2998 C   0  0  0  0  0  0  0  0  0  0  0  0
    0.5246    5.0687   -1.1311 C   0  0  0  0  0  0  0  0  0  0  0  0
   -0.2037    6.0815   -1.5430 O   0  0  0  0  0  0  0  0  0  0  0  0
   -0.4207    6.0002   -2.8379 C   0  0  0  0  0  0  0  0  0  0  0  0
    0.1925    4.8738   -3.2976 C   0  0  0  0  0  0  0  0  0  0  0  0
    0.8120    4.2580   -2.1853 C   0  0  0  0  0  0  0  0  0  0  0  0
    1.9848    2.8811    2.5100 C   0  0  0  0  0  0  0  0  0  0  0  0
    3.1740    3.6024    2.5029 C   0  0  0  0  0  0  0  0  0  0  0  0
    4.3836    2.9156    2.4883 C   0  0  0  0  0  0  0  0  0  0  0  0
    4.3937    1.5243    2.4800 C   0  0  0  0  0  0  0  0  0  0  0  0
    5.6574    0.8229    2.4637 C   0  0  0  0  0  0  0  0  0  0  0  0
    5.6553   -0.5110    2.4559 N   0  0  0  0  0  0  0  0  0  0  0  0
    6.8564   -1.0851    2.4434 C   0  0  0  0  0  0  0  0  0  0  0  0
    6.9720   -2.7811    2.4199 S   0  0  0  0  0  0  0  0  0  0  0  0
    8.6720   -2.7874    2.3755 C   0  0  0  0  0  0  0  0  0  0  0  0
    9.1353   -1.5323    2.3989 C   0  0  0  0  0  0  0  0  0  0  0  0
    8.1141   -0.5129    2.4380 C   0  0  0  0  0  0  0  0  0  0  0  0
    8.0554    0.8788    2.4408 C   0  0  0  0  0  0  0  0  0  0  0  0
    9.2769    1.6607    2.4267 C   0  0  0  0  0  0  0  0  0  0  0  0
    9.4456    2.6840    3.3537 C   0  0  0  0  0  0  0  0  0  0  0  0
   10.6169    3.4348    3.3412 C   0  0  0  0  0  0  0  0  0  0  0  0
   11.6038    3.1523    2.4022 C   0  0  0  0  0  0  0  0  0  0  0  0
   12.8842    3.9720    2.3881 C   0  0  0  0  0  0  0  0  0  0  0  0
   13.8440    4.5869    2.3774 N   0  0  0  0  0  0  0  0  0  0  0  0
   11.4348    2.1285    1.4759 C   0  0  0  0  0  0  0  0  0  0  0  0
   10.2636    1.3776    1.4878 C   0  0  0  0  0  0  0  0  0  0  0  0
    6.8394    1.5570    2.4549 C   0  0  0  0  0  0  0  0  0  0  0  0
   10.6302   -1.7798    2.3660 C   0  0  0  0  0  0  0  0  0  0  0  0
   10.8155   -3.1450    2.9901 C   0  0  0  0  0  0  0  0  0  0  0  0
    9.6994   -3.8926    2.3029 C   0  0  0  0  0  0  0  0  0  0  0  0
    3.2017    0.8072    2.4872 C   0  0  0  0  0  0  0  0  0  0  0  0
    1.9898    1.4900    2.5021 C   0  0  0  0  0  0  0  0  0  0  0  0
   -0.8977    4.4864    1.0084 H   0  0  0  0  0  0  0  0  0  0  0  0
    1.8552    4.3276    0.2891 H   0  0  0  0  0  0  0  0  0  0  0  0
    1.0919    5.6870    0.7749 H   0  0  0  0  0  0  0  0  0  0  0  0
   -0.9439    6.6510   -3.3882 H   0  0  0  0  0  0  0  0  0  0  0  0
    0.2026    4.5449   -4.2419 H   0  0  0  0  0  0  0  0  0  0  0  0
    1.3447    3.4118   -2.1758 H   0  0  0  0  0  0  0  0  0  0  0  0
    3.1597    4.6022    2.5083 H   0  0  0  0  0  0  0  0  0  0  0  0
    5.2459    3.4219    2.4837 H   0  0  0  0  0  0  0  0  0  0  0  0
    8.7299    2.8787    4.0244 H   0  0  0  0  0  0  0  0  0  0  0  0
   10.7486    4.1728    4.0030 H   0  0  0  0  0  0  0  0  0  0  0  0
   12.1507    1.9334    0.8055 H   0  0  0  0  0  0  0  0  0  0  0  0
   10.1320    0.6395    0.8261 H   0  0  0  0  0  0  0  0  0  0  0  0
    6.8159    2.5567    2.4586 H   0  0  0  0  0  0  0  0  0  0  0  0
   11.1135   -1.0828    2.8957 H   0  0  0  0  0  0  0  0  0  0  0  0
   10.9663   -1.7755    1.4242 H   0  0  0  0  0  0  0  0  0  0  0  0
   11.7114   -3.5339    2.7754 H   0  0  0  0  0  0  0  0  0  0  0  0
   10.6917   -3.1207    3.9821 H   0  0  0  0  0  0  0  0  0  0  0  0
    9.9278   -4.1422    1.3619 H   0  0  0  0  0  0  0  0  0  0  0  0
    9.4190   -4.7101    2.8060 H   0  0  0  0  0  0  0  0  0  0  0  0
    3.2159   -0.1927    2.4818 H   0  0  0  0  0  0  0  0  0  0  0  0
    1.1273    0.9839    2.5071 H   0  0  0  0  0  0  0  0  0  0  0  0
  1  2  2  0  0  0  0
  1  3  2  0  0  0  0
  1  4  1  0  0  0  0
  4  5  1  0  0  0  0
  5  6  1  0  0  0  0
  6  7  1  0  0  0  0
  7  8  1  0  0  0  0
  8  9  2  0  0  0  0
  9 10  1  0  0  0  0
  6 10  2  0  0  0  0
  1 11  1  0  0  0  0
 11 12  1  0  0  0  0
 12 13  2  0  0  0  0
 13 14  1  0  0  0  0
 14 15  1  0  0  0  0
 15 16  1  0  0  0  0
 16 17  2  0  0  0  0
 17 18  1  0  0  0  0
 18 19  1  0  0  0  0
 19 20  2  0  0  0  0
 20 21  1  0  0  0  0
 21 17  1  0  0  0  0
 21 22  2  0  0  0  0
 22 23  1  0  0  0  0
 23 24  1  0  0  0  0
 24 25  2  0  0  0  0
 25 26  1  0  0  0  0
 26 27  1  0  0  0  0
 27 28  3  0  0  0  0
 26 29  2  0  0  0  0
 29 30  1  0  0  0  0
 30 23  2  0  0  0  0
 22 31  1  0  0  0  0
 31 15  2  0  0  0  0
 20 32  1  0  0  0  0
 32 33  1  0  0  0  0
 33 34  1  0  0  0  0
 34 19  1  0  0  0  0
 14 35  2  0  0  0  0
 35 36  1  0  0  0  0
 36 11  2  0  0  0  0
  4 37  1  0  0  0  0
  5 38  1  0  0  0  0
  5 39  1  0  0  0  0
  8 40  1  0  0  0  0
  9 41  1  0  0  0  0
 10 42  1  0  0  0  0
 12 43  1  0  0  0  0
 13 44  1  0  0  0  0
 24 45  1  0  0  0  0
 25 46  1  0  0  0  0
 29 47  1  0  0  0  0
 30 48  1  0  0  0  0
 31 49  1  0  0  0  0
 32 50  1  0  0  0  0
 32 51  1  0  0  0  0
 33 52  1  0  0  0  0
 33 53  1  0  0  0  0
 34 54  1  0  0  0  0
 34 55  1  0  0  0  0
 35 56  1  0  0  0  0
 36 57  1  0  0  0  0
M  END
>  <result-rank>
45

>  <similarity>
0.851

>  <query-name>


>  <query-smiles>
Clc1ccc(cc1)CS(=O)(=O)c2cc3N=C(c4c(N(c3cc2)C)cc5c(c4)C(CCC5(C)C)(C)C)c6ccc(cc6)C([O-])=O

>  <source>
REALspace_2019-12

>  <similarity-descriptor>
0.760;1.000;0.939;0.830;0.965;0.855;0.996;0.822;0.0;0.965;0.0;0.0;0.0;0.493;0.0

>  <similarity-descriptor-smiles>
C1=CC=CO1;c1ccccc1;c1ccccc1;c1cC=CS1;C=1CCCC1;c1ccccn1;C;S(=O)(=O)N;;C=1CCCC1;;;;C#N;

>  <reaction-name>
s_42a

>  <reagent1-name>
9450124

>  <reagent1-smiles>
[R1*]=NC=1SC2=C(C1C(=[R2*])c3ccc(C#N)cc3)CCC2

>  <reagent2-name>
1111314

>  <reagent2-smiles>
[R1*]=C(c1ccc(S(=O)(=O)NCC=2OC=CC2)cc1)C=[R2*]

$$$$
m_276010b____17282026____17249466____17280892
          04022017333D 1   1.00000     0.00000     0
            
 88 93  0  0  0  0            999 V2000
    3.9108   -2.3125    3.8475 S   0  0  0  0  0  0  0  0  0  0  0  0
    4.8833   -2.9288    2.9826 O   0  0  0  0  0  0  0  0  0  0  0  0
    4.0937   -2.7910    5.1933 O   0  0  0  0  0  0  0  0  0  0  0  0
    4.1033   -0.6942    3.8153 N   0  0  0  0  0  0  0  0  0  0  0  0
    3.9166   -0.2057    2.4415 C   0  0  0  0  0  0  0  0  0  0  0  0
    3.3635    1.2089    2.4777 C   0  0  0  0  0  0  0  0  0  0  0  0
    4.0983    2.3562    2.5000 N   0  0  0  0  0  0  0  0  0  0  0  0
    3.2914    3.3277    2.5307 N   0  0  0  0  0  0  0  0  0  0  0  0
    2.0497    2.9093    2.5300 N   0  0  0  0  0  0  0  0  0  0  0  0
    2.0481    1.5507    2.4963 C   0  0  0  0  0  0  0  0  0  0  0  0
    0.8562    3.7669    2.5625 C   0  0  3  0  0  0  0  0  0  0  0  0
    1.0908    5.1046    1.8959 C   0  0  0  0  0  0  0  0  0  0  0  0
    0.4384    6.0549    2.6423 C   0  0  0  0  0  0  0  0  0  0  0  0
   -0.1828    5.4122    3.7191 N   0  0  0  0  0  0  0  0  0  0  0  0
   -1.2690    5.9274    4.4400 C   0  0  0  0  0  0  0  0  0  0  0  0
   -1.4497    5.5883    5.5768 O   0  0  0  0  0  0  0  0  0  0  0  0
   -2.1727    6.8684    3.8131 C   0  0  0  0  0  0  0  0  0  0  0  0
   -3.0985    6.4185    2.8837 C   0  0  0  0  0  0  0  0  0  0  0  0
   -3.9757    7.3039    2.2685 C   0  0  0  0  0  0  0  0  0  0  0  0
   -3.8991    8.6609    2.6107 C   0  0  0  0  0  0  0  0  0  0  0  0
   -2.9672    9.1016    3.5436 C   0  0  0  0  0  0  0  0  0  0  0  0
   -2.0953    8.2109    4.1551 C   0  0  0  0  0  0  0  0  0  0  0  0
   -4.8316    9.7000    1.9955 C   0  0  0  0  0  0  0  0  0  0  0  0
   -5.4956    9.1860    0.7278 C   0  0  0  0  0  0  0  0  0  0  0  0
   -6.0655    7.7875    0.9324 C   0  0  0  0  0  0  0  0  0  0  0  0
   -4.9791    6.7690    1.2480 C   0  0  0  0  0  0  0  0  0  0  0  0
   -5.5697    5.4220    1.6404 C   0  0  0  0  0  0  0  0  0  0  0  0
   -4.2212    6.5785   -0.0565 C   0  0  0  0  0  0  0  0  0  0  0  0
   -4.1586   11.0401    1.7440 C   0  0  0  0  0  0  0  0  0  0  0  0
   -5.9605    9.9416    2.9843 C   0  0  0  0  0  0  0  0  0  0  0  0
    0.4401    4.1108    3.9753 C   0  0  0  0  0  0  0  0  0  0  0  0
   -0.5290    3.0819    4.5331 C   0  0  0  0  0  0  0  0  0  0  0  0
    1.6230    4.2587    4.9195 C   0  0  0  0  0  0  0  0  0  0  0  0
    0.5077    7.3850    2.2354 C   0  0  0  0  0  0  0  0  0  0  0  0
    1.2144    7.7484    1.0940 C   0  0  0  0  0  0  0  0  0  0  0  0
    1.8674    6.7778    0.3424 C   0  0  0  0  0  0  0  0  0  0  0  0
    1.8020    5.4501    0.7504 C   0  0  0  0  0  0  0  0  0  0  0  0
    5.4563   -0.3524    4.2773 C   0  0  0  0  0  0  0  0  0  0  0  0
    2.3095   -2.7170    3.3007 C   0  0  0  0  0  0  0  0  0  0  0  0
    2.0778   -2.9486    1.9492 C   0  0  0  0  0  0  0  0  0  0  0  0
    0.7982   -3.2722    1.5095 C   0  0  0  0  0  0  0  0  0  0  0  0
   -0.2368   -3.3591    2.4344 C   0  0  0  0  0  0  0  0  0  0  0  0
   -0.0043   -3.1268    3.7860 C   0  0  0  0  0  0  0  0  0  0  0  0
    1.2746   -2.8040    4.2262 C   0  0  0  0  0  0  0  0  0  0  0  0
   -1.6367   -3.7111    1.9591 C   0  0  0  0  0  0  0  0  0  0  0  0
    3.2747   -0.8024    1.9599 H   0  0  0  0  0  0  0  0  0  0  0  0
    4.7956   -0.2078    1.9646 H   0  0  0  0  0  0  0  0  0  0  0  0
    1.2566    0.9395    2.4873 H   0  0  0  0  0  0  0  0  0  0  0  0
    0.1020    3.2983    2.1026 H   0  0  0  0  0  0  0  0  0  0  0  0
   -3.1354    5.4461    2.6535 H   0  0  0  0  0  0  0  0  0  0  0  0
   -2.9244   10.0730    3.7773 H   0  0  0  0  0  0  0  0  0  0  0  0
   -1.4267    8.5296    4.8268 H   0  0  0  0  0  0  0  0  0  0  0  0
   -4.8180    9.1579   -0.0070 H   0  0  0  0  0  0  0  0  0  0  0  0
   -6.2375    9.8066    0.4735 H   0  0  0  0  0  0  0  0  0  0  0  0
   -6.7155    7.8118    1.6919 H   0  0  0  0  0  0  0  0  0  0  0  0
   -6.5386    7.5065    0.0975 H   0  0  0  0  0  0  0  0  0  0  0  0
   -6.2161    5.1241    0.9380 H   0  0  0  0  0  0  0  0  0  0  0  0
   -4.8357    4.7481    1.7252 H   0  0  0  0  0  0  0  0  0  0  0  0
   -6.0452    5.5088    2.5158 H   0  0  0  0  0  0  0  0  0  0  0  0
   -4.8440    6.2277   -0.7557 H   0  0  0  0  0  0  0  0  0  0  0  0
   -3.8453    7.4559   -0.3548 H   0  0  0  0  0  0  0  0  0  0  0  0
   -3.4757    5.9268    0.0833 H   0  0  0  0  0  0  0  0  0  0  0  0
   -4.8190   11.6745    1.3421 H   0  0  0  0  0  0  0  0  0  0  0  0
   -3.8230   11.4122    2.6093 H   0  0  0  0  0  0  0  0  0  0  0  0
   -3.3913   10.9149    1.1150 H   0  0  0  0  0  0  0  0  0  0  0  0
   -6.5920   10.6206    2.6098 H   0  0  0  0  0  0  0  0  0  0  0  0
   -6.4502    9.0850    3.1470 H   0  0  0  0  0  0  0  0  0  0  0  0
   -5.5821   10.2782    3.8465 H   0  0  0  0  0  0  0  0  0  0  0  0
   -0.0474    2.2190    4.6863 H   0  0  0  0  0  0  0  0  0  0  0  0
   -0.9043    3.4125    5.3991 H   0  0  0  0  0  0  0  0  0  0  0  0
   -1.2732    2.9370    3.8810 H   0  0  0  0  0  0  0  0  0  0  0  0
    2.0340    3.3617    5.0820 H   0  0  0  0  0  0  0  0  0  0  0  0
    2.3024    4.8675    4.5099 H   0  0  0  0  0  0  0  0  0  0  0  0
    1.3104    4.6443    5.7877 H   0  0  0  0  0  0  0  0  0  0  0  0
    0.0426    8.0892    2.7719 H   0  0  0  0  0  0  0  0  0  0  0  0
    1.2528    8.7076    0.8139 H   0  0  0  0  0  0  0  0  0  0  0  0
    2.3769    7.0311   -0.4800 H   0  0  0  0  0  0  0  0  0  0  0  0
    2.2670    4.7417    0.2195 H   0  0  0  0  0  0  0  0  0  0  0  0
    5.5744    0.6404    4.2576 H   0  0  0  0  0  0  0  0  0  0  0  0
    5.5833   -0.6847    5.2119 H   0  0  0  0  0  0  0  0  0  0  0  0
    6.1317   -0.7804    3.6767 H   0  0  0  0  0  0  0  0  0  0  0  0
    2.8304   -2.8826    1.2939 H   0  0  0  0  0  0  0  0  0  0  0  0
    0.6246   -3.4404    0.5392 H   0  0  0  0  0  0  0  0  0  0  0  0
   -0.7570   -3.1921    4.4412 H   0  0  0  0  0  0  0  0  0  0  0  0
    1.4483   -2.6363    5.1966 H   0  0  0  0  0  0  0  0  0  0  0  0
   -2.2589   -3.7326    2.7417 H   0  0  0  0  0  0  0  0  0  0  0  0
   -1.9490   -3.0234    1.3037 H   0  0  0  0  0  0  0  0  0  0  0  0
   -1.6234   -4.6090    1.5191 H   0  0  0  0  0  0  0  0  0  0  0  0
  1  2  2  0  0  0  0
  1  3  2  0  0  0  0
  1  4  1  0  0  0  0
  4  5  1  0  0  0  0
  5  6  1  0  0  0  0
  6  7  1  0  0  0  0
  7  8  2  0  0  0  0
  8  9  1  0  0  0  0
  9 10  1  0  0  0  0
  6 10  2  0  0  0  0
  9 11  1  0  0  0  0
 11 12  1  0  0  0  0
 12 13  1  0  0  0  0
 13 14  1  0  0  0  0
 14 15  1  0  0  0  0
 15 16  2  0  0  0  0
 15 17  1  0  0  0  0
 17 18  1  0  0  0  0
 18 19  2  0  0  0  0
 19 20  1  0  0  0  0
 20 21  2  0  0  0  0
 21 22  1  0  0  0  0
 22 17  2  0  0  0  0
 20 23  1  0  0  0  0
 23 24  1  0  0  0  0
 24 25  1  0  0  0  0
 25 26  1  0  0  0  0
 26 19  1  0  0  0  0
 26 27  1  0  0  0  0
 26 28  1  0  0  0  0
 23 29  1  0  0  0  0
 23 30  1  0  0  0  0
 14 31  1  0  0  0  0
 31 11  1  0  0  0  0
 31 32  1  0  0  0  0
 31 33  1  0  0  0  0
 13 34  2  0  0  0  0
 34 35  1  0  0  0  0
 35 36  2  0  0  0  0
 36 37  1  0  0  0  0
 37 12  2  0  0  0  0
  4 38  1  0  0  0  0
  1 39  1  0  0  0  0
 39 40  1  0  0  0  0
 40 41  2  0  0  0  0
 41 42  1  0  0  0  0
 42 43  2  0  0  0  0
 43 44  1  0  0  0  0
 44 39  2  0  0  0  0
 42 45  1  0  0  0  0
  5 46  1  0  0  0  0
  5 47  1  0  0  0  0
 10 48  1  0  0  0  0
 11 49  1  0  0  0  0
 18 50  1  0  0  0  0
 21 51  1  0  0  0  0
 22 52  1  0  0  0  0
 24 53  1  0  0  0  0
 24 54  1  0  0  0  0
 25 55  1  0  0  0  0
 25 56  1  0  0  0  0
 27 57  1  0  0  0  0
 27 58  1  0  0  0  0
 27 59  1  0  0  0  0
 28 60  1  0  0  0  0
 28 61  1  0  0  0  0
 28 62  1  0  0  0  0
 29 63  1  0  0  0  0
 29 64  1  0  0  0  0
 29 65  1  0  0  0  0
 30 66  1  0  0  0  0
 30 67  1  0  0  0  0
 30 68  1  0  0  0  0
 32 69  1  0  0  0  0
 32 70  1  0  0  0  0
 32 71  1  0  0  0  0
 33 72  1  0  0  0  0
 33 73  1  0  0  0  0
 33 74  1  0  0  0  0
 34 75  1  0  0  0  0
 35 76  1  0  0  0  0
 36 77  1  0  0  0  0
 37 78  1  0  0  0  0
 38 79  1  0  0  0  0
 38 80  1  0  0  0  0
 38 81  1  0  0  0  0
 40 82  1  0  0  0  0
 41 83  1  0  0  0  0
 43 84  1  0  0  0  0
 44 85  1  0  0  0  0
 45 86  1  0  0  0  0
 45 87  1  0  0  0  0
 45 88  1  0  0  0  0
M  END
>  <result-rank>
46

>  <similarity>
0.851

>  <query-name>


>  <query-smiles>
Clc1ccc(cc1)CS(=O)(=O)c2cc3N=C(c4c(N(c3cc2)C)cc5c(c4)C(CCC5(C)C)(C)C)c6ccc(cc6)C([O-])=O

>  <source>
REALspace_2019-12

>  <similarity-descriptor>
0.911;0.985;0.592;0.926;1.000;0.675;0.911;0.898;0.995;1.000;1.000;1.000;1.000;0.0;0.167

>  <similarity-descriptor-smiles>
c1ccccc1;c1ccccc1;CC1=CNN=N1;c1ccccc1;c1CCCCc1;C1CN(cc1)C=O;c1ccccc1;S(=O)(=O)N;C;C;C;C;C;;C.C.C

>  <reaction-name>
m_276010b

>  <reagent1-name>
17282026

>  <reagent1-smiles>
[R1*]N=NN([R2*])C1c2c(N([R3*])C1(C)C)cccc2

>  <reagent2-name>
17249466

>  <reagent2-smiles>
[R3*]C(=O)c1cc2c(cc1)C(CCC2(C)C)(C)C

>  <reagent3-name>
17280892

>  <reagent3-smiles>
[R1*]C(=C[R2*])CN(S(=O)(=O)c1ccc(cc1)C)C

$$$$
s_7a____8400____6198
          04022017333D 1   1.00000     0.00000     0
            
 67 73  0  0  0  0            999 V2000
   -0.7038    2.9076    5.6343 S   0  0  0  0  0  0  0  0  0  0  0  0
    0.2463    2.9986    4.2340 C   0  0  0  0  0  0  0  0  0  0  0  0
    0.2377    2.0169    3.2815 N   0  0  0  0  0  0  0  0  0  0  0  0
    1.0000    2.2306    2.2306 C   0  0  0  0  0  0  0  0  0  0  0  0
    1.0000    1.0000    1.0000 S   0  0  0  0  0  0  0  0  0  0  0  0
   -0.2739   -0.0871    1.6866 C   0  0  0  0  0  0  0  0  0  0  0  0
   -1.6369    0.3311    1.1563 C   0  0  0  0  0  0  0  0  0  0  0  0
   -2.1414   -0.1698   -0.0415 C   0  0  0  0  0  0  0  0  0  0  0  0
   -1.4968   -1.0880   -0.8008 O   0  0  0  0  0  0  0  0  0  0  0  0
   -2.2832   -2.1092   -1.4214 C   0  0  3  0  0  0  0  0  0  0  0  0
   -3.6245   -1.7246   -1.7256 O   0  0  0  0  0  0  0  0  0  0  0  0
   -3.8441   -0.3233   -1.8093 C   0  0  0  0  0  0  0  0  0  0  0  0
   -3.3736    0.2629   -0.4929 C   0  0  0  0  0  0  0  0  0  0  0  0
   -4.1195    1.1734    0.2514 C   0  0  0  0  0  0  0  0  0  0  0  0
   -3.6424    1.6450    1.4709 C   0  0  0  0  0  0  0  0  0  0  0  0
   -4.3608    2.4673    2.2302 F   0  0  0  0  0  0  0  0  0  0  0  0
   -2.3926    1.2233    1.9101 C   0  0  0  0  0  0  0  0  0  0  0  0
   -1.5600   -2.7888   -2.5712 C   0  0  0  0  0  0  0  0  0  0  0  0
   -0.1694   -2.8143   -2.5917 C   0  0  0  0  0  0  0  0  0  0  0  0
    0.4890   -3.4371   -3.6471 C   0  0  0  0  0  0  0  0  0  0  0  0
   -0.2429   -4.0294   -4.6709 C   0  0  0  0  0  0  0  0  0  0  0  0
   -1.6316   -3.9982   -4.6397 C   0  0  0  0  0  0  0  0  0  0  0  0
   -2.3017   -3.3780   -3.5903 C   0  0  0  0  0  0  0  0  0  0  0  0
    1.7596    3.3659    2.1048 N   0  0  0  0  0  0  0  0  0  0  0  0
    2.5469    3.5190    0.9570 C   0  0  0  0  0  0  0  0  0  0  0  0
    2.0321    4.1946   -0.1442 C   0  0  0  0  0  0  0  0  0  0  0  0
    0.7993    4.6913   -0.1028 F   0  0  0  0  0  0  0  0  0  0  0  0
    2.8000    4.3564   -1.2928 C   0  0  0  0  0  0  0  0  0  0  0  0
    4.0880    3.8326   -1.3222 C   0  0  0  0  0  0  0  0  0  0  0  0
    4.6064    3.1555   -0.2236 C   0  0  0  0  0  0  0  0  0  0  0  0
    3.8357    2.9967    0.9226 C   0  0  0  0  0  0  0  0  0  0  0  0
    1.7469    4.3271    3.0832 C   0  0  0  0  0  0  0  0  0  0  0  0
    2.4351    5.3251    2.9364 O   0  0  0  0  0  0  0  0  0  0  0  0
    0.9473    4.1689    4.2490 C   0  0  0  0  0  0  0  0  0  0  0  0
    0.6949    4.9391    5.4314 C   0  0  0  0  0  0  0  0  0  0  0  0
   -0.2090    4.3896    6.3173 C   0  0  0  0  0  0  0  0  0  0  0  0
   -0.8000    4.8688    7.6317 C   0  0  0  0  0  0  0  0  0  0  0  0
    0.1401    5.9487    8.1323 C   0  0  3  0  0  0  0  0  0  0  0  0
    0.4358    6.9403    7.0135 C   0  0  0  0  0  0  0  0  0  0  0  0
    1.2624    6.2617    5.9287 C   0  0  0  0  0  0  0  0  0  0  0  0
   -0.5863    6.6387    9.2744 C   0  0  0  0  0  0  0  0  0  0  0  0
   -0.2689   -0.0179    2.6842 H   0  0  0  0  0  0  0  0  0  0  0  0
   -0.0868   -1.0317    1.4170 H   0  0  0  0  0  0  0  0  0  0  0  0
   -2.3745   -2.8193   -0.7233 H   0  0  0  0  0  0  0  0  0  0  0  0
   -4.8165   -0.1331   -1.9448 H   0  0  0  0  0  0  0  0  0  0  0  0
   -3.3198    0.0642   -2.5676 H   0  0  0  0  0  0  0  0  0  0  0  0
   -5.0034    1.4903   -0.0925 H   0  0  0  0  0  0  0  0  0  0  0  0
   -2.0326    1.5653    2.7781 H   0  0  0  0  0  0  0  0  0  0  0  0
    0.3532   -2.3882   -1.8533 H   0  0  0  0  0  0  0  0  0  0  0  0
    1.4885   -3.4589   -3.6697 H   0  0  0  0  0  0  0  0  0  0  0  0
    0.2303   -4.4777   -5.4293 H   0  0  0  0  0  0  0  0  0  0  0  0
   -2.1538   -4.4252   -5.3779 H   0  0  0  0  0  0  0  0  0  0  0  0
   -3.3012   -3.3561   -3.5686 H   0  0  0  0  0  0  0  0  0  0  0  0
    2.4314    4.8420   -2.0854 H   0  0  0  0  0  0  0  0  0  0  0  0
    4.6480    3.9441   -2.1432 H   0  0  0  0  0  0  0  0  0  0  0  0
    5.5338    2.7828   -0.2581 H   0  0  0  0  0  0  0  0  0  0  0  0
    4.2046    2.5113    1.7152 H   0  0  0  0  0  0  0  0  0  0  0  0
   -0.8476    4.1159    8.2880 H   0  0  0  0  0  0  0  0  0  0  0  0
   -1.7159    5.2431    7.4867 H   0  0  0  0  0  0  0  0  0  0  0  0
    0.9904    5.5389    8.4626 H   0  0  0  0  0  0  0  0  0  0  0  0
    0.9466    7.7162    7.3838 H   0  0  0  0  0  0  0  0  0  0  0  0
   -0.4250    7.2647    6.6212 H   0  0  0  0  0  0  0  0  0  0  0  0
    1.3269    6.8856    5.1500 H   0  0  0  0  0  0  0  0  0  0  0  0
    2.1769    6.0902    6.2952 H   0  0  0  0  0  0  0  0  0  0  0  0
   -0.0089    7.3658    9.6458 H   0  0  0  0  0  0  0  0  0  0  0  0
   -1.4414    7.0320    8.9365 H   0  0  0  0  0  0  0  0  0  0  0  0
   -0.7868    5.9725    9.9928 H   0  0  0  0  0  0  0  0  0  0  0  0
  1  2  1  0  0  0  0
  2  3  1  0  0  0  0
  3  4  2  0  0  0  0
  4  5  1  0  0  0  0
  5  6  1  0  0  0  0
  6  7  1  0  0  0  0
  7  8  1  0  0  0  0
  8  9  1  0  0  0  0
  9 10  1  0  0  0  0
 10 11  1  0  0  0  0
 11 12  1  0  0  0  0
 12 13  1  0  0  0  0
 13  8  2  0  0  0  0
 13 14  1  0  0  0  0
 14 15  2  0  0  0  0
 15 16  1  0  0  0  0
 15 17  1  0  0  0  0
 17  7  2  0  0  0  0
 10 18  1  0  0  0  0
 18 19  1  0  0  0  0
 19 20  2  0  0  0  0
 20 21  1  0  0  0  0
 21 22  2  0  0  0  0
 22 23  1  0  0  0  0
 23 18  2  0  0  0  0
  4 24  1  0  0  0  0
 24 25  1  0  0  0  0
 25 26  1  0  0  0  0
 26 27  1  0  0  0  0
 26 28  2  0  0  0  0
 28 29  1  0  0  0  0
 29 30  2  0  0  0  0
 30 31  1  0  0  0  0
 31 25  2  0  0  0  0
 24 32  1  0  0  0  0
 32 33  2  0  0  0  0
 32 34  1  0  0  0  0
  2 34  2  0  0  0  0
 34 35  1  0  0  0  0
 35 36  2  0  0  0  0
 36  1  1  0  0  0  0
 36 37  1  0  0  0  0
 37 38  1  0  0  0  0
 38 39  1  0  0  0  0
 39 40  1  0  0  0  0
 40 35  1  0  0  0  0
 38 41  1  0  0  0  0
  6 42  1  0  0  0  0
  6 43  1  0  0  0  0
 10 44  1  0  0  0  0
 12 45  1  0  0  0  0
 12 46  1  0  0  0  0
 14 47  1  0  0  0  0
 17 48  1  0  0  0  0
 19 49  1  0  0  0  0
 20 50  1  0  0  0  0
 21 51  1  0  0  0  0
 22 52  1  0  0  0  0
 23 53  1  0  0  0  0
 28 54  1  0  0  0  0
 29 55  1  0  0  0  0
 30 56  1  0  0  0  0
 31 57  1  0  0  0  0
 37 58  1  0  0  0  0
 37 59  1  0  0  0  0
 38 60  1  0  0  0  0
 39 61  1  0  0  0  0
 39 62  1  0  0  0  0
 40 63  1  0  0  0  0
 40 64  1  0  0  0  0
 41 65  1  0  0  0  0
 41 66  1  0  0  0  0
 41 67  1  0  0  0  0
M  END
>  <result-rank>
47

>  <similarity>
0.850

>  <query-name>


>  <query-smiles>
Clc1ccc(cc1)CS(=O)(=O)c2cc3N=C(c4c(N(c3cc2)C)cc5c(c4)C(CCC5(C)C)(C)C)c6ccc(cc6)C([O-])=O

>  <source>
REALspace_2019-12

>  <similarity-descriptor>
0.952;0.980;0.891;0.827;0.947;0.648;0.728;0.728;0.0;0.947;0.947;0.0;1.000;0.0;0.0

>  <similarity-descriptor-smiles>
c1ccccc1;c1ccccc1F;Cc1cc(ccc1)F;S1C=CC=C1;C=1CCCCC1;C1=CC(NC(=N1)S)=O;c1cCOCO1;c1cCOCO1;;C=1CCCCC1;C=1CCCCC1;;C;;

>  <reaction-name>
s_7a

>  <reagent1-name>
8400

>  <reagent1-smiles>
[R1*]SC1=NC=2SC3=C(C2C(=O)N1c4c(F)cccc4)CCC(C3)C

>  <reagent2-name>
6198

>  <reagent2-smiles>
[R1*]Cc1c2OC(OCc2cc(F)c1)c3ccccc3

$$$$
s_27a____9048100____61062
          04022017333D 1   1.00000     0.00000     0
            
 66 71  0  0  0  0            999 V2000
    7.6680    9.7367    2.6786 Br  0  0  0  0  0  0  0  0  0  0  0  0
    6.6708    8.0834    2.3417 C   0  0  0  0  0  0  0  0  0  0  0  0
    5.2838    8.1234    2.2393 C   0  0  0  0  0  0  0  0  0  0  0  0
    4.5795    6.9479    2.0012 C   0  0  0  0  0  0  0  0  0  0  0  0
    5.2695    5.7472    1.8682 C   0  0  0  0  0  0  0  0  0  0  0  0
    6.6557    5.7122    1.9712 C   0  0  0  0  0  0  0  0  0  0  0  0
    7.3655    6.8849    2.2098 C   0  0  0  0  0  0  0  0  0  0  0  0
    4.5317    4.5240    1.6206 C   0  0  0  0  0  0  0  0  0  0  0  0
    5.1662    3.3964    1.4946 C   0  0  0  0  0  0  0  0  0  0  0  0
    4.4284    2.1732    1.2470 C   0  0  0  0  0  0  0  0  0  0  0  0
    5.1260    1.0551    1.0283 N   0  0  0  0  0  0  0  0  0  0  0  0
    4.4124   -0.0492    0.8070 C   0  0  0  0  0  0  0  0  0  0  0  0
    5.2733   -1.4872    0.5475 S   0  0  0  0  0  0  0  0  0  0  0  0
    3.8599   -2.4128    0.3964 C   0  0  0  0  0  0  0  0  0  0  0  0
    2.7646   -1.5997    0.5165 C   0  0  0  0  0  0  0  0  0  0  0  0
    3.0452   -0.2115    0.7621 C   0  0  0  0  0  0  0  0  0  0  0  0
    2.4003    1.0000    1.0000 C   0  0  0  0  0  0  0  0  0  0  0  0
    3.0870    2.1332    1.2320 N   0  0  0  0  0  0  0  0  0  0  0  0
    1.0000    1.0000    1.0000 N   0  0  0  0  0  0  0  0  0  0  0  0
    0.2999    2.2123    1.0235 C   0  0  0  0  0  0  0  0  0  0  0  0
   -0.8456    2.3269    1.8039 C   0  0  0  0  0  0  0  0  0  0  0  0
   -1.5329    3.5359    1.8189 C   0  0  0  0  0  0  0  0  0  0  0  0
   -2.6458    3.6575    2.5735 O   0  0  0  0  0  0  0  0  0  0  0  0
   -3.3553    2.4981    2.9842 C   0  0  0  0  0  0  0  0  0  0  0  0
   -4.5592    2.9090    3.8164 C   0  0  0  0  0  0  0  0  0  0  0  0
   -5.7727    3.1495    3.1803 C   0  0  0  0  0  0  0  0  0  0  0  0
   -6.8722    3.5255    3.9446 C   0  0  0  0  0  0  0  0  0  0  0  0
   -8.4330    3.8368    3.1478 Cl  0  0  0  0  0  0  0  0  0  0  0  0
   -6.7719    3.6623    5.3255 C   0  0  0  0  0  0  0  0  0  0  0  0
   -5.5494    3.4167    5.9422 C   0  0  0  0  0  0  0  0  0  0  0  0
   -4.4378    3.0394    5.1960 C   0  0  0  0  0  0  0  0  0  0  0  0
   -1.0804    4.6140    1.0651 C   0  0  0  0  0  0  0  0  0  0  0  0
    0.0666    4.4841    0.2899 C   0  0  0  0  0  0  0  0  0  0  0  0
    0.7650    3.2812    0.2635 C   0  0  0  0  0  0  0  0  0  0  0  0
   -1.8362    5.9322    1.0885 C   0  0  0  0  0  0  0  0  0  0  0  0
    1.5074   -2.4482    0.4001 C   0  0  0  0  0  0  0  0  0  0  0  0
    1.6275   -3.6007    1.3857 C   0  0  0  0  0  0  0  0  0  0  0  0
    2.8997   -4.4264    1.2239 C   0  0  0  0  0  0  0  0  0  0  0  0
    3.8817   -3.9164    0.1745 C   0  0  0  0  0  0  0  0  0  0  0  0
    4.7967    8.9914    2.3362 H   0  0  0  0  0  0  0  0  0  0  0  0
    3.5824    6.9657    1.9261 H   0  0  0  0  0  0  0  0  0  0  0  0
    7.1426    4.8441    1.8738 H   0  0  0  0  0  0  0  0  0  0  0  0
    8.3625    6.8667    2.2856 H   0  0  0  0  0  0  0  0  0  0  0  0
    3.5347    4.5477    1.5467 H   0  0  0  0  0  0  0  0  0  0  0  0
    6.1632    3.3727    1.5685 H   0  0  0  0  0  0  0  0  0  0  0  0
    0.5000    0.1341    0.9832 H   0  0  0  0  0  0  0  0  0  0  0  0
   -1.1701    1.5518    2.3460 H   0  0  0  0  0  0  0  0  0  0  0  0
   -2.7543    1.9162    3.5321 H   0  0  0  0  0  0  0  0  0  0  0  0
   -3.6640    1.9932    2.1782 H   0  0  0  0  0  0  0  0  0  0  0  0
   -5.8534    3.0535    2.1882 H   0  0  0  0  0  0  0  0  0  0  0  0
   -7.5675    3.9334    5.8672 H   0  0  0  0  0  0  0  0  0  0  0  0
   -5.4688    3.5126    6.9344 H   0  0  0  0  0  0  0  0  0  0  0  0
   -3.5620    2.8640    5.6459 H   0  0  0  0  0  0  0  0  0  0  0  0
    0.3913    5.2596   -0.2516 H   0  0  0  0  0  0  0  0  0  0  0  0
    1.5897    3.1859   -0.2940 H   0  0  0  0  0  0  0  0  0  0  0  0
   -1.3751    6.5914    0.4945 H   0  0  0  0  0  0  0  0  0  0  0  0
   -2.7704    5.7866    0.7629 H   0  0  0  0  0  0  0  0  0  0  0  0
   -1.8604    6.2860    2.0235 H   0  0  0  0  0  0  0  0  0  0  0  0
    1.4231   -2.8044   -0.5305 H   0  0  0  0  0  0  0  0  0  0  0  0
    0.7033   -1.8958    0.6198 H   0  0  0  0  0  0  0  0  0  0  0  0
    0.8416   -4.2060    1.2587 H   0  0  0  0  0  0  0  0  0  0  0  0
    1.6124   -3.2249    2.3122 H   0  0  0  0  0  0  0  0  0  0  0  0
    3.3712   -4.4425    2.1056 H   0  0  0  0  0  0  0  0  0  0  0  0
    2.6337   -5.3567    0.9712 H   0  0  0  0  0  0  0  0  0  0  0  0
    4.7970   -4.2897    0.3259 H   0  0  0  0  0  0  0  0  0  0  0  0
    3.5755   -4.1488   -0.7487 H   0  0  0  0  0  0  0  0  0  0  0  0
  1  2  1  0  0  0  0
  2  3  1  0  0  0  0
  3  4  2  0  0  0  0
  4  5  1  0  0  0  0
  5  6  2  0  0  0  0
  6  7  1  0  0  0  0
  7  2  2  0  0  0  0
  5  8  1  0  0  0  0
  8  9  2  0  0  0  0
  9 10  1  0  0  0  0
 10 11  1  0  0  0  0
 11 12  2  0  0  0  0
 12 13  1  0  0  0  0
 13 14  1  0  0  0  0
 14 15  2  0  0  0  0
 15 16  1  0  0  0  0
 16 12  1  0  0  0  0
 16 17  2  0  0  0  0
 17 18  1  0  0  0  0
 18 10  2  0  0  0  0
 17 19  1  0  0  0  0
 19 20  1  0  0  0  0
 20 21  1  0  0  0  0
 21 22  2  0  0  0  0
 22 23  1  0  0  0  0
 23 24  1  0  0  0  0
 24 25  1  0  0  0  0
 25 26  1  0  0  0  0
 26 27  2  0  0  0  0
 27 28  1  0  0  0  0
 27 29  1  0  0  0  0
 29 30  2  0  0  0  0
 30 31  1  0  0  0  0
 31 25  2  0  0  0  0
 22 32  1  0  0  0  0
 32 33  2  0  0  0  0
 33 34  1  0  0  0  0
 34 20  2  0  0  0  0
 32 35  1  0  0  0  0
 15 36  1  0  0  0  0
 36 37  1  0  0  0  0
 37 38  1  0  0  0  0
 38 39  1  0  0  0  0
 39 14  1  0  0  0  0
  3 40  1  0  0  0  0
  4 41  1  0  0  0  0
  6 42  1  0  0  0  0
  7 43  1  0  0  0  0
  8 44  1  0  0  0  0
  9 45  1  0  0  0  0
 19 46  1  0  0  0  0
 21 47  1  0  0  0  0
 24 48  1  0  0  0  0
 24 49  1  0  0  0  0
 26 50  1  0  0  0  0
 29 51  1  0  0  0  0
 30 52  1  0  0  0  0
 31 53  1  0  0  0  0
 33 54  1  0  0  0  0
 34 55  1  0  0  0  0
 35 56  1  0  0  0  0
 35 57  1  0  0  0  0
 35 58  1  0  0  0  0
 36 59  1  0  0  0  0
 36 60  1  0  0  0  0
 37 61  1  0  0  0  0
 37 62  1  0  0  0  0
 38 63  1  0  0  0  0
 38 64  1  0  0  0  0
 39 65  1  0  0  0  0
 39 66  1  0  0  0  0
M  END
>  <result-rank>
48

>  <similarity>
0.850

>  <query-name>


>  <query-smiles>
Clc1ccc(cc1)CS(=O)(=O)c2cc3N=C(c4c(N(c3cc2)C)cc5c(c4)C(CCC5(C)C)(C)C)c6ccc(cc6)C([O-])=O

>  <source>
REALspace_2019-12

>  <similarity-descriptor>
1.000;0.911;0.881;0.830;0.961;0.771;0.540;0.540;0.0;0.961;0.961;0.0;0.0;0.0;0.083

>  <similarity-descriptor-smiles>
c1cccc(c1)Cl;Brc1ccc(cc1)C;Nc1ccccc1;c1cC=CS1;C=1CCCCC1;Cc1ncccn1;OC;OC;;C=1CCCCC1;C=1CCCCC1;;;;C

>  <reaction-name>
s_27a

>  <reagent1-name>
9048100

>  <reagent1-smiles>
[R1*]Nc1cc(OCc2cc(Cl)ccc2)c(cc1)C

>  <reagent2-name>
61062

>  <reagent2-smiles>
[R1*]c1nc(nc2SC3=C(c12)CCCC3)C=Cc4ccc(Br)cc4

$$$$
m_570____197328____196352____197262
          04022017333D 1   1.00000     0.00000     0
            
 70 75  0  0  0  0            999 V2000
    2.1307    2.6077    0.8969 O   0  0  0  0  0  0  0  0  0  0  0  0
    2.4036    2.7010    2.0833 C   0  0  0  0  0  0  0  0  0  0  0  0
    1.8401    1.8386    3.0901 C   0  0  0  0  0  0  0  0  0  0  0  0
    2.8325    0.9211    3.5754 C   0  0  0  0  0  0  0  0  0  0  0  0
    2.6013   -0.2265    3.9237 O   0  0  0  0  0  0  0  0  0  0  0  0
    4.2207    1.5359    3.6042 C   0  0  0  0  0  0  0  0  0  0  0  0
    4.0281    3.0279    3.8318 C   0  0  0  0  0  0  0  0  0  0  0  0
    5.3596    3.7051    4.1068 C   0  0  0  0  0  0  0  0  0  0  0  0
    5.4907    5.0656    3.8482 C   0  0  0  0  0  0  0  0  0  0  0  0
    6.7101    5.6838    4.1014 C   0  0  0  0  0  0  0  0  0  0  0  0
    6.8594    7.0026    3.8567 O   0  0  0  0  0  0  0  0  0  0  0  0
    5.7721    7.7566    3.3414 C   0  0  0  0  0  0  0  0  0  0  0  0
    7.7819    4.9535    4.6047 C   0  0  0  0  0  0  0  0  0  0  0  0
    7.6388    3.5928    4.8582 C   0  0  0  0  0  0  0  0  0  0  0  0
    6.4235    2.9631    4.6100 C   0  0  0  0  0  0  0  0  0  0  0  0
    3.3934    3.7063    2.6318 C   0  0  0  0  0  0  0  0  0  0  0  0
    0.5955    1.8987    3.5255 C   0  0  0  0  0  0  0  0  0  0  0  0
    0.1016    3.0737    4.0280 N   0  0  0  0  0  0  0  0  0  0  0  0
   -1.2178    3.1374    4.4896 C   0  0  0  0  0  0  0  0  0  0  0  0
   -1.8347    4.2329    5.0107 N   0  0  0  0  0  0  0  0  0  0  0  0
   -3.0669    3.9222    5.3354 N   0  0  0  0  0  0  0  0  0  0  0  0
   -3.2869    2.6627    5.0484 C   0  0  0  0  0  0  0  0  0  0  0  0
   -4.5280    1.9542    5.2615 C   0  0  0  0  0  0  0  0  0  0  0  0
   -5.5898    2.6566    5.8186 C   0  0  0  0  0  0  0  0  0  0  0  0
   -6.7869    1.9833    6.0308 C   0  0  0  0  0  0  0  0  0  0  0  0
   -6.8914    0.6386    5.6983 C   0  0  0  0  0  0  0  0  0  0  0  0
   -5.8328   -0.0630    5.1336 C   0  0  0  0  0  0  0  0  0  0  0  0
   -4.6354    0.6114    4.9158 C   0  0  0  0  0  0  0  0  0  0  0  0
   -8.1755   -0.1345    5.9521 C   0  0  0  0  0  0  0  0  0  0  0  0
   -9.3637    0.7988    6.1177 C   0  0  0  0  0  0  0  0  0  0  0  0
   -9.0018    1.8112    7.1917 C   0  0  0  0  0  0  0  0  0  0  0  0
   -7.9600    2.7540    6.6116 C   0  0  0  0  0  0  0  0  0  0  0  0
   -2.1109    2.1135    4.4950 C   0  0  0  0  0  0  0  0  0  0  0  0
   -1.2486    5.4936    5.1766 C   0  0  0  0  0  0  0  0  0  0  0  0
   -0.5809    6.0884    4.1108 C   0  0  0  0  0  0  0  0  0  0  0  0
   -0.0001    7.3410    4.2794 C   0  0  0  0  0  0  0  0  0  0  0  0
   -0.0891    7.9892    5.5066 C   0  0  0  0  0  0  0  0  0  0  0  0
   -0.7596    7.3854    6.5651 C   0  0  0  0  0  0  0  0  0  0  0  0
   -1.3442    6.1330    6.4083 C   0  0  0  0  0  0  0  0  0  0  0  0
    4.6871    1.3766    2.7340 H   0  0  0  0  0  0  0  0  0  0  0  0
    4.7586    1.1395    4.3482 H   0  0  0  0  0  0  0  0  0  0  0  0
    3.4329    3.1570    4.6250 H   0  0  0  0  0  0  0  0  0  0  0  0
    4.7204    5.5905    3.4861 H   0  0  0  0  0  0  0  0  0  0  0  0
    6.0541    8.7084    3.2205 H   0  0  0  0  0  0  0  0  0  0  0  0
    5.4918    7.3775    2.4595 H   0  0  0  0  0  0  0  0  0  0  0  0
    5.0047    7.7150    3.9812 H   0  0  0  0  0  0  0  0  0  0  0  0
    8.6552    5.4064    4.7843 H   0  0  0  0  0  0  0  0  0  0  0  0
    8.4096    3.0676    5.2188 H   0  0  0  0  0  0  0  0  0  0  0  0
    6.3155    1.9857    4.7917 H   0  0  0  0  0  0  0  0  0  0  0  0
    2.9239    4.5441    2.9106 H   0  0  0  0  0  0  0  0  0  0  0  0
    4.0870    3.9255    1.9457 H   0  0  0  0  0  0  0  0  0  0  0  0
    0.0130    1.0867    3.4885 H   0  0  0  0  0  0  0  0  0  0  0  0
    0.6840    3.8857    4.0650 H   0  0  0  0  0  0  0  0  0  0  0  0
   -5.4949    3.6222    6.0608 H   0  0  0  0  0  0  0  0  0  0  0  0
   -5.9292   -1.0281    4.8901 H   0  0  0  0  0  0  0  0  0  0  0  0
   -3.8556    0.1327    4.5125 H   0  0  0  0  0  0  0  0  0  0  0  0
   -8.0693   -0.6763    6.7858 H   0  0  0  0  0  0  0  0  0  0  0  0
   -8.3464   -0.7439    5.1779 H   0  0  0  0  0  0  0  0  0  0  0  0
  -10.1706    0.2783    6.3969 H   0  0  0  0  0  0  0  0  0  0  0  0
   -9.5520    1.2684    5.2551 H   0  0  0  0  0  0  0  0  0  0  0  0
   -9.8152    2.3272    7.4603 H   0  0  0  0  0  0  0  0  0  0  0  0
   -8.6270    1.3403    7.9903 H   0  0  0  0  0  0  0  0  0  0  0  0
   -8.3814    3.3011    5.8883 H   0  0  0  0  0  0  0  0  0  0  0  0
   -7.6273    3.3583    7.3356 H   0  0  0  0  0  0  0  0  0  0  0  0
   -1.9665    1.1765    4.1767 H   0  0  0  0  0  0  0  0  0  0  0  0
   -0.5190    5.6189    3.2300 H   0  0  0  0  0  0  0  0  0  0  0  0
    0.4815    7.7754    3.5183 H   0  0  0  0  0  0  0  0  0  0  0  0
    0.3289    8.8895    5.6280 H   0  0  0  0  0  0  0  0  0  0  0  0
   -0.8219    7.8552    7.4457 H   0  0  0  0  0  0  0  0  0  0  0  0
   -1.8259    5.6989    7.1695 H   0  0  0  0  0  0  0  0  0  0  0  0
  1  2  2  0  0  0  0
  2  3  1  0  0  0  0
  3  4  1  0  0  0  0
  4  5  2  0  0  0  0
  4  6  1  0  0  0  0
  6  7  1  0  0  0  0
  7  8  1  0  0  0  0
  8  9  1  0  0  0  0
  9 10  2  0  0  0  0
 10 11  1  0  0  0  0
 11 12  1  0  0  0  0
 10 13  1  0  0  0  0
 13 14  2  0  0  0  0
 14 15  1  0  0  0  0
 15  8  2  0  0  0  0
  7 16  1  0  0  0  0
 16  2  1  0  0  0  0
  3 17  2  0  0  0  0
 17 18  1  0  0  0  0
 18 19  1  0  0  0  0
 19 20  1  0  0  0  0
 20 21  1  0  0  0  0
 21 22  2  0  0  0  0
 22 23  1  0  0  0  0
 23 24  1  0  0  0  0
 24 25  2  0  0  0  0
 25 26  1  0  0  0  0
 26 27  2  0  0  0  0
 27 28  1  0  0  0  0
 28 23  2  0  0  0  0
 26 29  1  0  0  0  0
 29 30  1  0  0  0  0
 30 31  1  0  0  0  0
 31 32  1  0  0  0  0
 32 25  1  0  0  0  0
 22 33  1  0  0  0  0
 19 33  2  0  0  0  0
 20 34  1  0  0  0  0
 34 35  1  0  0  0  0
 35 36  2  0  0  0  0
 36 37  1  0  0  0  0
 37 38  2  0  0  0  0
 38 39  1  0  0  0  0
 39 34  2  0  0  0  0
  6 40  1  0  0  0  0
  6 41  1  0  0  0  0
  7 42  1  0  0  0  0
  9 43  1  0  0  0  0
 12 44  1  0  0  0  0
 12 45  1  0  0  0  0
 12 46  1  0  0  0  0
 13 47  1  0  0  0  0
 14 48  1  0  0  0  0
 15 49  1  0  0  0  0
 16 50  1  0  0  0  0
 16 51  1  0  0  0  0
 17 52  1  0  0  0  0
 18 53  1  0  0  0  0
 24 54  1  0  0  0  0
 27 55  1  0  0  0  0
 28 56  1  0  0  0  0
 29 57  1  0  0  0  0
 29 58  1  0  0  0  0
 30 59  1  0  0  0  0
 30 60  1  0  0  0  0
 31 61  1  0  0  0  0
 31 62  1  0  0  0  0
 32 63  1  0  0  0  0
 32 64  1  0  0  0  0
 33 65  1  0  0  0  0
 35 66  1  0  0  0  0
 36 67  1  0  0  0  0
 37 68  1  0  0  0  0
 38 69  1  0  0  0  0
 39 70  1  0  0  0  0
M  END
>  <result-rank>
49

>  <similarity>
0.850

>  <query-name>


>  <query-smiles>
Clc1ccc(cc1)CS(=O)(=O)c2cc3N=C(c4c(N(c3cc2)C)cc5c(c4)C(CCC5(C)C)(C)C)c6ccc(cc6)C([O-])=O

>  <source>
REALspace_2019-12

>  <similarity-descriptor>
0.968;0.956;0.809;0.926;0.961;0.674;0.809;0.809;0.0;0.961;0.961;0.0;0.0;0.0;0.200

>  <similarity-descriptor-smiles>
c1ccccc1;c1ccccc1;O=C1CCCC(C1)=O;c1ccccc1;c1CCCCc1;CNC1=CC=NN1;O=C1CCCC(C1)=O;O=C1CCCC(C1)=O;;c1CCCCc1;c1CCCCc1;;;;O.C

>  <reaction-name>
m_570

>  <reagent1-name>
197328

>  <reagent1-smiles>
[R1*]NC=1N(N=C(c2cc3c(cc2)CCCC3)C1)c4ccccc4

>  <reagent2-name>
196352

>  <reagent2-smiles>
[R2*]=C1C(=O)CC(c2cc(OC)ccc2)CC1=O

>  <reagent3-name>
197262

>  <reagent3-smiles>
[R2*]=C[R1*]

$$$$
m_270942____9828420____10153090____9836002
          04022017333D 1   1.00000     0.00000     0
            
 83 88  0  0  0  0            999 V2000
   -2.7688    1.0304   -4.4746 S   0  0  0  0  0  0  0  0  0  0  0  0
   -2.4674    2.2572   -3.3399 C   0  0  0  0  0  0  0  0  0  0  0  0
   -1.2434    2.3569   -2.5673 C   0  0  0  0  0  0  0  0  0  0  0  0
   -0.4780    3.4200   -2.4654 N   0  0  0  0  0  0  0  0  0  0  0  0
    0.5322    3.1164   -1.6811 N   0  0  0  0  0  0  0  0  0  0  0  0
    0.4528    1.8778   -1.2619 C   0  0  0  0  0  0  0  0  0  0  0  0
   -0.6785    1.3726   -1.8185 N   0  0  0  0  0  0  0  0  0  0  0  0
   -1.1960    0.0074   -1.6421 C   0  0  0  0  0  0  0  0  0  0  0  0
   -0.2864   -0.9759   -2.3605 C   0  0  0  0  0  0  0  0  0  0  0  0
   -0.8866   -2.3706   -2.2836 C   0  0  0  0  0  0  0  0  0  0  0  0
   -1.7562   -2.8024   -3.2797 C   0  0  0  0  0  0  0  0  0  0  0  0
   -2.3038   -4.0790   -3.2050 C   0  0  0  0  0  0  0  0  0  0  0  0
   -1.9796   -4.9137   -2.1406 C   0  0  0  0  0  0  0  0  0  0  0  0
   -1.1094   -4.4719   -1.1517 C   0  0  0  0  0  0  0  0  0  0  0  0
   -0.5557   -3.1974   -1.2146 C   0  0  0  0  0  0  0  0  0  0  0  0
    1.3485    1.2146   -0.4119 N   0  0  0  0  0  0  0  0  0  0  0  0
    1.0000    1.0000    1.0000 C   0  0  0  0  0  0  0  0  0  0  0  0
    1.8777    1.8777    1.8777 C   0  0  0  0  0  0  0  0  0  0  0  0
    1.3636    3.0479    2.4259 C   0  0  0  0  0  0  0  0  0  0  0  0
    0.0867    3.4149    2.1862 O   0  0  0  0  0  0  0  0  0  0  0  0
   -0.9320    3.0935    3.1217 C   0  0  0  0  0  0  0  0  0  0  0  0
   -2.2676    3.6161    2.6164 C   0  0  0  0  0  0  0  0  0  0  0  0
   -3.4170    3.4155    3.3745 C   0  0  0  0  0  0  0  0  0  0  0  0
   -3.3439    2.7709    4.5360 F   0  0  0  0  0  0  0  0  0  0  0  0
   -4.6456    3.8873    2.9260 C   0  0  0  0  0  0  0  0  0  0  0  0
   -4.7076    4.5609    1.7107 C   0  0  0  0  0  0  0  0  0  0  0  0
   -3.5608    4.7635    0.9493 C   0  0  0  0  0  0  0  0  0  0  0  0
   -2.3334    4.2896    1.4010 C   0  0  0  0  0  0  0  0  0  0  0  0
    2.1771    3.8429    3.2271 C   0  0  0  0  0  0  0  0  0  0  0  0
    1.6773    4.9791    3.7581 O   0  0  0  0  0  0  0  0  0  0  0  0
    2.4499    5.7305    4.6827 C   0  0  0  0  0  0  0  0  0  0  0  0
    3.4943    3.4761    3.4820 C   0  0  0  0  0  0  0  0  0  0  0  0
    4.0030    2.3041    2.9313 C   0  0  0  0  0  0  0  0  0  0  0  0
    3.1944    1.5051    2.1291 C   0  0  0  0  0  0  0  0  0  0  0  0
    2.6365    0.7337   -0.9323 C   0  0  0  0  0  0  0  0  0  0  0  0
   -3.5674    3.0745   -3.3281 C   0  0  0  0  0  0  0  0  0  0  0  0
   -4.5761    2.6558   -4.2495 C   0  0  0  0  0  0  0  0  0  0  0  0
   -4.3161    1.5215   -4.9710 C   0  0  0  0  0  0  0  0  0  0  0  0
   -5.1192    0.7362   -5.9959 C   0  0  0  0  0  0  0  0  0  0  0  0
   -6.1088   -0.2320   -5.3425 C   0  0  0  0  0  0  0  0  0  0  0  0
   -7.3572    0.3783   -4.7044 C   0  0  0  0  0  0  0  0  0  0  0  0
   -7.1823    1.2586   -3.4672 C   0  0  0  0  0  0  0  0  0  0  0  0
   -7.0224    2.7721   -3.6266 C   0  0  0  0  0  0  0  0  0  0  0  0
   -5.9282    3.2820   -4.5637 C   0  0  0  0  0  0  0  0  0  0  0  0
   -2.1183   -0.0514   -2.0241 H   0  0  0  0  0  0  0  0  0  0  0  0
   -1.2240   -0.2151   -0.6676 H   0  0  0  0  0  0  0  0  0  0  0  0
   -0.1936   -0.7054   -3.3187 H   0  0  0  0  0  0  0  0  0  0  0  0
    0.6141   -0.9761   -1.9255 H   0  0  0  0  0  0  0  0  0  0  0  0
   -1.9861   -2.1997   -4.0437 H   0  0  0  0  0  0  0  0  0  0  0  0
   -2.9306   -4.3966   -3.9165 H   0  0  0  0  0  0  0  0  0  0  0  0
   -2.3728   -5.8317   -2.0872 H   0  0  0  0  0  0  0  0  0  0  0  0
   -0.8792   -5.0753   -0.3882 H   0  0  0  0  0  0  0  0  0  0  0  0
    0.0705   -2.8802   -0.5024 H   0  0  0  0  0  0  0  0  0  0  0  0
    1.1460    0.0395    1.2371 H   0  0  0  0  0  0  0  0  0  0  0  0
    0.0395    1.2371    1.1460 H   0  0  0  0  0  0  0  0  0  0  0  0
   -0.7206    3.5160    4.0031 H   0  0  0  0  0  0  0  0  0  0  0  0
   -0.9825    2.1008    3.2316 H   0  0  0  0  0  0  0  0  0  0  0  0
   -5.4728    3.7443    3.4695 H   0  0  0  0  0  0  0  0  0  0  0  0
   -5.5870    4.9037    1.3801 H   0  0  0  0  0  0  0  0  0  0  0  0
   -3.6188    5.2498    0.0775 H   0  0  0  0  0  0  0  0  0  0  0  0
   -1.5063    4.4318    0.8573 H   0  0  0  0  0  0  0  0  0  0  0  0
    1.9320    6.5351    4.9735 H   0  0  0  0  0  0  0  0  0  0  0  0
    2.6604    5.1638    5.4793 H   0  0  0  0  0  0  0  0  0  0  0  0
    3.3012    6.0219    4.2465 H   0  0  0  0  0  0  0  0  0  0  0  0
    4.0734    4.0523    4.0588 H   0  0  0  0  0  0  0  0  0  0  0  0
    4.9493    2.0361    3.1119 H   0  0  0  0  0  0  0  0  0  0  0  0
    3.5597    0.6626    1.7330 H   0  0  0  0  0  0  0  0  0  0  0  0
    3.1473    0.2877   -0.1974 H   0  0  0  0  0  0  0  0  0  0  0  0
    2.4742    0.0790   -1.6705 H   0  0  0  0  0  0  0  0  0  0  0  0
    3.1641    1.5074   -1.2830 H   0  0  0  0  0  0  0  0  0  0  0  0
   -3.6548    3.8773   -2.7383 H   0  0  0  0  0  0  0  0  0  0  0  0
   -4.4869    0.2127   -6.5670 H   0  0  0  0  0  0  0  0  0  0  0  0
   -5.6288    1.3801   -6.5666 H   0  0  0  0  0  0  0  0  0  0  0  0
   -5.6171   -0.7295   -4.6279 H   0  0  0  0  0  0  0  0  0  0  0  0
   -6.4127   -0.8737   -6.0467 H   0  0  0  0  0  0  0  0  0  0  0  0
   -7.9580   -0.3784   -4.4467 H   0  0  0  0  0  0  0  0  0  0  0  0
   -7.8046    0.9360   -5.4036 H   0  0  0  0  0  0  0  0  0  0  0  0
   -7.9865    1.1116   -2.8913 H   0  0  0  0  0  0  0  0  0  0  0  0
   -6.3667    0.9299   -2.9910 H   0  0  0  0  0  0  0  0  0  0  0  0
   -7.8933    3.1295   -3.9637 H   0  0  0  0  0  0  0  0  0  0  0  0
   -6.8363    3.1489   -2.7191 H   0  0  0  0  0  0  0  0  0  0  0  0
   -6.1779    3.0568   -5.5055 H   0  0  0  0  0  0  0  0  0  0  0  0
   -5.8555    4.2746   -4.4664 H   0  0  0  0  0  0  0  0  0  0  0  0
  1  2  1  0  0  0  0
  2  3  1  0  0  0  0
  3  4  2  0  0  0  0
  4  5  1  0  0  0  0
  5  6  2  0  0  0  0
  6  7  1  0  0  0  0
  7  3  1  0  0  0  0
  7  8  1  0  0  0  0
  8  9  1  0  0  0  0
  9 10  1  0  0  0  0
 10 11  1  0  0  0  0
 11 12  2  0  0  0  0
 12 13  1  0  0  0  0
 13 14  2  0  0  0  0
 14 15  1  0  0  0  0
 15 10  2  0  0  0  0
  6 16  1  0  0  0  0
 16 17  1  0  0  0  0
 17 18  1  0  0  0  0
 18 19  1  0  0  0  0
 19 20  1  0  0  0  0
 20 21  1  0  0  0  0
 21 22  1  0  0  0  0
 22 23  1  0  0  0  0
 23 24  1  0  0  0  0
 23 25  2  0  0  0  0
 25 26  1  0  0  0  0
 26 27  2  0  0  0  0
 27 28  1  0  0  0  0
 28 22  2  0  0  0  0
 19 29  2  0  0  0  0
 29 30  1  0  0  0  0
 30 31  1  0  0  0  0
 29 32  1  0  0  0  0
 32 33  2  0  0  0  0
 33 34  1  0  0  0  0
 34 18  2  0  0  0  0
 16 35  1  0  0  0  0
  2 36  2  0  0  0  0
 36 37  1  0  0  0  0
 37 38  2  0  0  0  0
 38  1  1  0  0  0  0
 38 39  1  0  0  0  0
 39 40  1  0  0  0  0
 40 41  1  0  0  0  0
 41 42  1  0  0  0  0
 42 43  1  0  0  0  0
 43 44  1  0  0  0  0
 44 37  1  0  0  0  0
  8 45  1  0  0  0  0
  8 46  1  0  0  0  0
  9 47  1  0  0  0  0
  9 48  1  0  0  0  0
 11 49  1  0  0  0  0
 12 50  1  0  0  0  0
 13 51  1  0  0  0  0
 14 52  1  0  0  0  0
 15 53  1  0  0  0  0
 17 54  1  0  0  0  0
 17 55  1  0  0  0  0
 21 56  1  0  0  0  0
 21 57  1  0  0  0  0
 25 58  1  0  0  0  0
 26 59  1  0  0  0  0
 27 60  1  0  0  0  0
 28 61  1  0  0  0  0
 31 62  1  0  0  0  0
 31 63  1  0  0  0  0
 31 64  1  0  0  0  0
 32 65  1  0  0  0  0
 33 66  1  0  0  0  0
 34 67  1  0  0  0  0
 35 68  1  0  0  0  0
 35 69  1  0  0  0  0
 35 70  1  0  0  0  0
 36 71  1  0  0  0  0
 39 72  1  0  0  0  0
 39 73  1  0  0  0  0
 40 74  1  0  0  0  0
 40 75  1  0  0  0  0
 41 76  1  0  0  0  0
 41 77  1  0  0  0  0
 42 78  1  0  0  0  0
 42 79  1  0  0  0  0
 43 80  1  0  0  0  0
 43 81  1  0  0  0  0
 44 82  1  0  0  0  0
 44 83  1  0  0  0  0
M  END
>  <result-rank>
50

>  <similarity>
0.849

>  <query-name>


>  <query-smiles>
Clc1ccc(cc1)CS(=O)(=O)c2cc3N=C(c4c(N(c3cc2)C)cc5c(c4)C(CCC5(C)C)(C)C)c6ccc(cc6)C([O-])=O

>  <source>
REALspace_2019-12

>  <similarity-descriptor>
0.985;0.850;0.912;0.916;0.957;0.661;0.540;0.540;1.000;0.957;0.957;0.957;0.957;0.0;0.133

>  <similarity-descriptor-smiles>
c1ccccc1F;CCc1ccccc1;Cc1ccccc1;S1C=CC=C1;C=1CCCCCCC1;C=1NC(=NN1)N;OC;OC;C;C=1CCCCCCC1;C=1CCCCCCC1;C=1CCCCCCC1;C=1CCCCCCC1;;O.C

>  <reaction-name>
m_270942

>  <reagent1-name>
9828420

>  <reagent1-smiles>
[R3*]=C([R2*])N([R1*])CCc1ccccc1

>  <reagent2-name>
10153090

>  <reagent2-smiles>
[R2*]N(Cc1c(OCc2c(F)cccc2)c(OC)ccc1)C

>  <reagent3-name>
9836002

>  <reagent3-smiles>
[R3*]=NN=C([R1*])C=1SC2=C(C1)CCCCCC2

$$$$
m_274310____15938268____15942894____15870814
          04022017333D 1   1.00000     0.00000     0
            
 71 76  0  0  0  0            999 V2000
    2.2706   -3.2384    0.9079 O   0  0  0  0  0  0  0  0  0  0  0  0
    1.4339   -2.6454    1.5696 C   0  0  0  0  0  0  0  0  0  0  0  0
    0.3304   -3.2828    2.0779 N   0  0  0  0  0  0  0  0  0  0  0  0
   -0.5970   -2.5957    2.8192 C   0  0  0  0  0  0  0  0  0  0  0  0
   -1.5843   -3.1456    3.2801 O   0  0  0  0  0  0  0  0  0  0  0  0
   -0.4120   -1.2084    3.0625 C   0  0  0  0  0  0  0  0  0  0  0  0
    0.6972   -0.5913    2.5449 C   0  0  0  0  0  0  0  0  0  0  0  0
    1.6059   -1.3067    1.8085 N   0  0  0  0  0  0  0  0  0  0  0  0
    0.8820    0.7759    2.7831 N   0  0  0  0  0  0  0  0  0  0  0  0
    2.0339    1.4760    2.1941 C   0  0  3  0  0  0  0  0  0  0  0  0
    1.9182    2.9834    2.3682 C   0  0  0  0  0  0  0  0  0  0  0  0
    3.0461    3.7538    2.6503 C   0  0  0  0  0  0  0  0  0  0  0  0
    2.9038    5.1252    2.7842 C   0  0  0  0  0  0  0  0  0  0  0  0
    1.6562    5.7288    2.6624 C   0  0  0  0  0  0  0  0  0  0  0  0
    0.5414    4.9408    2.3980 C   0  0  0  0  0  0  0  0  0  0  0  0
    0.6610    3.5645    2.2472 C   0  0  0  0  0  0  0  0  0  0  0  0
    4.4365    3.1772    2.8477 C   0  0  0  0  0  0  0  0  0  0  0  0
    4.4107    1.8191    2.2888 N   0  0  0  0  0  0  0  0  0  0  0  0
    5.2797    1.3342    1.2960 C   0  0  0  0  0  0  0  0  0  0  0  0
    4.9065    0.4853    0.5344 O   0  0  0  0  0  0  0  0  0  0  0  0
    6.6264    1.8595    1.1923 C   0  0  0  0  0  0  0  0  0  0  0  0
    6.9294    2.7424    0.1627 C   0  0  0  0  0  0  0  0  0  0  0  0
    8.2101    3.2719    0.0854 C   0  0  0  0  0  0  0  0  0  0  0  0
    9.1662    2.9198    1.0126 C   0  0  0  0  0  0  0  0  0  0  0  0
    8.8692    2.0142    2.0291 C   0  0  0  0  0  0  0  0  0  0  0  0
    7.5865    1.4839    2.1264 C   0  0  0  0  0  0  0  0  0  0  0  0
   10.4302    3.6780    0.6641 C   0  0  0  0  0  0  0  0  0  0  0  0
   10.3174    3.9289   -0.8260 C   0  0  0  0  0  0  0  0  0  0  0  0
    8.8413    4.2665   -0.8648 C   0  0  0  0  0  0  0  0  0  0  0  0
   11.1814    5.0992   -1.2689 C   0  0  0  0  0  0  0  0  0  0  0  0
   10.6664    2.6967   -1.6574 C   0  0  0  0  0  0  0  0  0  0  0  0
    3.3159    1.0505    2.8873 C   0  0  0  0  0  0  0  0  0  0  0  0
    0.1320   -4.7194    1.8312 C   0  0  0  0  0  0  0  0  0  0  0  0
   -0.6092   -4.9104    0.5176 C   0  0  0  0  0  0  0  0  0  0  0  0
    0.1092   -5.0415   -0.6662 C   0  0  0  0  0  0  0  0  0  0  0  0
   -0.5730   -5.2153   -1.8660 C   0  0  0  0  0  0  0  0  0  0  0  0
   -1.9633   -5.2582   -1.8757 C   0  0  0  0  0  0  0  0  0  0  0  0
   -2.6704   -5.1267   -0.6870 C   0  0  0  0  0  0  0  0  0  0  0  0
   -1.9999   -4.9518    0.5192 C   0  0  0  0  0  0  0  0  0  0  0  0
   -1.0779   -0.6921    3.6008 H   0  0  0  0  0  0  0  0  0  0  0  0
    2.4105   -0.8424    1.4382 H   0  0  0  0  0  0  0  0  0  0  0  0
    0.2310    1.2765    3.3536 H   0  0  0  0  0  0  0  0  0  0  0  0
    2.0938    1.2571    1.2202 H   0  0  0  0  0  0  0  0  0  0  0  0
    3.7085    5.6888    2.9708 H   0  0  0  0  0  0  0  0  0  0  0  0
    1.5622    6.7192    2.7639 H   0  0  0  0  0  0  0  0  0  0  0  0
   -0.3580    5.3701    2.3154 H   0  0  0  0  0  0  0  0  0  0  0  0
   -0.1431    3.0020    2.0550 H   0  0  0  0  0  0  0  0  0  0  0  0
    5.1129    3.7353    2.3672 H   0  0  0  0  0  0  0  0  0  0  0  0
    4.6618    3.1454    3.8215 H   0  0  0  0  0  0  0  0  0  0  0  0
    6.2353    2.9925   -0.5122 H   0  0  0  0  0  0  0  0  0  0  0  0
    9.5745    1.7466    2.6855 H   0  0  0  0  0  0  0  0  0  0  0  0
    7.3578    0.8416    2.8578 H   0  0  0  0  0  0  0  0  0  0  0  0
   11.2405    3.1297    0.8707 H   0  0  0  0  0  0  0  0  0  0  0  0
   10.4752    4.5416    1.1664 H   0  0  0  0  0  0  0  0  0  0  0  0
    8.6832    5.2038   -0.5541 H   0  0  0  0  0  0  0  0  0  0  0  0
    8.4759    4.1556   -1.7890 H   0  0  0  0  0  0  0  0  0  0  0  0
   12.1453    4.8359   -1.2290 H   0  0  0  0  0  0  0  0  0  0  0  0
   10.9437    5.3530   -2.2066 H   0  0  0  0  0  0  0  0  0  0  0  0
   11.0234    5.8785   -0.6625 H   0  0  0  0  0  0  0  0  0  0  0  0
   11.6489    2.5205   -1.5962 H   0  0  0  0  0  0  0  0  0  0  0  0
   10.1636    1.9058   -1.3085 H   0  0  0  0  0  0  0  0  0  0  0  0
   10.4153    2.8566   -2.6121 H   0  0  0  0  0  0  0  0  0  0  0  0
    3.2563    1.2451    3.8663 H   0  0  0  0  0  0  0  0  0  0  0  0
    3.4702    0.0720    2.7507 H   0  0  0  0  0  0  0  0  0  0  0  0
   -0.4041   -5.1148    2.5770 H   0  0  0  0  0  0  0  0  0  0  0  0
    1.0208   -5.1749    1.7816 H   0  0  0  0  0  0  0  0  0  0  0  0
    1.1087   -5.0111   -0.6549 H   0  0  0  0  0  0  0  0  0  0  0  0
   -0.0639   -5.3094   -2.7216 H   0  0  0  0  0  0  0  0  0  0  0  0
   -2.4537   -5.3838   -2.7381 H   0  0  0  0  0  0  0  0  0  0  0  0
   -3.6699   -5.1580   -0.6986 H   0  0  0  0  0  0  0  0  0  0  0  0
   -2.5097   -4.8572    1.3743 H   0  0  0  0  0  0  0  0  0  0  0  0
  1  2  2  0  0  0  0
  2  3  1  0  0  0  0
  3  4  1  0  0  0  0
  4  5  2  0  0  0  0
  4  6  1  0  0  0  0
  6  7  2  0  0  0  0
  7  8  1  0  0  0  0
  8  2  1  0  0  0  0
  7  9  1  0  0  0  0
  9 10  1  0  0  0  0
 10 11  1  0  0  0  0
 11 12  1  0  0  0  0
 12 13  2  0  0  0  0
 13 14  1  0  0  0  0
 14 15  2  0  0  0  0
 15 16  1  0  0  0  0
 16 11  2  0  0  0  0
 12 17  1  0  0  0  0
 17 18  1  0  0  0  0
 18 19  1  0  0  0  0
 19 20  2  0  0  0  0
 19 21  1  0  0  0  0
 21 22  1  0  0  0  0
 22 23  2  0  0  0  0
 23 24  1  0  0  0  0
 24 25  2  0  0  0  0
 25 26  1  0  0  0  0
 26 21  2  0  0  0  0
 24 27  1  0  0  0  0
 27 28  1  0  0  0  0
 28 29  1  0  0  0  0
 29 23  1  0  0  0  0
 28 30  1  0  0  0  0
 28 31  1  0  0  0  0
 18 32  1  0  0  0  0
 32 10  1  0  0  0  0
  3 33  1  0  0  0  0
 33 34  1  0  0  0  0
 34 35  1  0  0  0  0
 35 36  2  0  0  0  0
 36 37  1  0  0  0  0
 37 38  2  0  0  0  0
 38 39  1  0  0  0  0
 39 34  2  0  0  0  0
  6 40  1  0  0  0  0
  8 41  1  0  0  0  0
  9 42  1  0  0  0  0
 10 43  1  0  0  0  0
 13 44  1  0  0  0  0
 14 45  1  0  0  0  0
 15 46  1  0  0  0  0
 16 47  1  0  0  0  0
 17 48  1  0  0  0  0
 17 49  1  0  0  0  0
 22 50  1  0  0  0  0
 25 51  1  0  0  0  0
 26 52  1  0  0  0  0
 27 53  1  0  0  0  0
 27 54  1  0  0  0  0
 29 55  1  0  0  0  0
 29 56  1  0  0  0  0
 30 57  1  0  0  0  0
 30 58  1  0  0  0  0
 30 59  1  0  0  0  0
 31 60  1  0  0  0  0
 31 61  1  0  0  0  0
 31 62  1  0  0  0  0
 32 63  1  0  0  0  0
 32 64  1  0  0  0  0
 33 65  1  0  0  0  0
 33 66  1  0  0  0  0
 35 67  1  0  0  0  0
 36 68  1  0  0  0  0
 37 69  1  0  0  0  0
 38 70  1  0  0  0  0
 39 71  1  0  0  0  0
M  END
>  <result-rank>
51

>  <similarity>
0.849

>  <query-name>


>  <query-smiles>
Clc1ccc(cc1)CS(=O)(=O)c2cc3N=C(c4c(N(c3cc2)C)cc5c(c4)C(CCC5(C)C)(C)C)c6ccc(cc6)C([O-])=O

>  <source>
REALspace_2019-12

>  <similarity-descriptor>
0.952;0.984;0.871;0.926;0.986;0.507;0.996;0.871;0.0;0.0;0.0;1.000;1.000;0.0;0.0

>  <similarity-descriptor-smiles>
c1ccccc1;c1ccccc1;O=C1NC=CC(N1)=O;c1ccccc1;c1CCCc1;NC1CN(Ccc1)C=O;C;O=C1NC=CC(N1)=O;;;;C;C;;

>  <reaction-name>
m_274310

>  <reagent1-name>
15938268

>  <reagent1-smiles>
[R1*]N1Cc2c(cccc2)C(N[R2*])C1

>  <reagent2-name>
15942894

>  <reagent2-smiles>
[R1*]C(=O)c1cc2c(cc1)CC(C2)(C)C

>  <reagent3-name>
15870814

>  <reagent3-smiles>
[R2*]C=1NC(=O)N(C(=O)C1)Cc2ccccc2

$$$$
s_1____86402____13977510____7793930
          04022017333D 1   1.00000     0.00000     0
            
 77 82  0  0  0  0            999 V2000
    0.4035    3.0187    3.7645 S   0  0  0  0  0  0  0  0  0  0  0  0
   -1.2341    2.9461    3.3144 C   0  0  0  0  0  0  0  0  0  0  0  0
   -1.7515    2.4779    2.0527 C   0  0  0  0  0  0  0  0  0  0  0  0
   -0.9744    2.0825    0.9935 N   0  0  0  0  0  0  0  0  0  0  0  0
    0.3750    2.0825    0.9935 N   0  0  0  0  0  0  0  0  0  0  0  0
    1.0000    1.0000    1.0000 C   0  0  0  0  0  0  0  0  0  0  0  0
    2.4502    1.0000    1.0000 C   0  0  0  0  0  0  0  0  0  0  0  0
    3.1611   -0.1960    1.0072 C   0  0  0  0  0  0  0  0  0  0  0  0
    2.5106   -1.3566    1.0138 F   0  0  0  0  0  0  0  0  0  0  0  0
    4.5527   -0.1784    1.0068 C   0  0  0  0  0  0  0  0  0  0  0  0
    5.2330    1.0350    0.9990 C   0  0  0  0  0  0  0  0  0  0  0  0
    4.5126    2.2251    0.9919 C   0  0  0  0  0  0  0  0  0  0  0  0
    3.1216    2.2181    0.9922 C   0  0  0  0  0  0  0  0  0  0  0  0
    5.2548    3.5516    0.9833 C   0  0  0  0  0  0  0  0  0  0  0  0
    6.0703    3.6452    2.1420 O   0  0  0  0  0  0  0  0  0  0  0  0
    6.7638    4.8843    2.1340 C   0  0  0  0  0  0  0  0  0  0  0  0
    7.6369    4.9845    3.3746 C   0  0  0  0  0  0  0  0  0  0  0  0
    8.9457    4.5150    3.3358 C   0  0  0  0  0  0  0  0  0  0  0  0
    9.7409    4.6079    4.4734 C   0  0  0  0  0  0  0  0  0  0  0  0
    9.2263    5.1681    5.6379 C   0  0  0  0  0  0  0  0  0  0  0  0
    7.9177    5.6342    5.6648 C   0  0  0  0  0  0  0  0  0  0  0  0
    7.1122    5.5465    4.5341 C   0  0  0  0  0  0  0  0  0  0  0  0
    6.1273    3.6359   -0.2585 C   0  0  0  0  0  0  0  0  0  0  0  0
    4.2517    4.6935    0.9762 C   0  0  0  0  0  0  0  0  0  0  0  0
   -1.6769    1.6776   -0.0987 C   0  0  0  0  0  0  0  0  0  0  0  0
   -3.3197    1.8315    0.3263 S   0  0  0  0  0  0  0  0  0  0  0  0
   -3.1027    2.4259    1.9062 C   0  0  0  0  0  0  0  0  0  0  0  0
   -1.2108    1.2716   -1.2070 N   0  0  0  0  0  0  0  0  0  0  0  0
   -0.9550    2.1861   -2.2358 C   0  0  0  0  0  0  0  0  0  0  0  0
   -1.8997    2.3733   -3.2391 C   0  0  0  0  0  0  0  0  0  0  0  0
   -3.0381    1.6864   -3.2171 F   0  0  0  0  0  0  0  0  0  0  0  0
   -1.6627    3.2778   -4.2691 C   0  0  0  0  0  0  0  0  0  0  0  0
   -0.4683    3.9902   -4.2795 C   0  0  0  0  0  0  0  0  0  0  0  0
    0.4795    3.8054   -3.2786 C   0  0  0  0  0  0  0  0  0  0  0  0
    0.2382    2.9008   -2.2507 C   0  0  0  0  0  0  0  0  0  0  0  0
   -1.9441    3.4188    4.3734 C   0  0  0  0  0  0  0  0  0  0  0  0
   -1.1579    3.8462    5.4765 C   0  0  0  0  0  0  0  0  0  0  0  0
    0.1825    3.6668    5.3257 C   0  0  0  0  0  0  0  0  0  0  0  0
    1.2670    3.9816    6.3445 C   0  0  0  0  0  0  0  0  0  0  0  0
    0.8508    5.1304    7.2517 C   0  0  0  0  0  0  0  0  0  0  0  0
   -0.5962    5.4143    7.2332 N   0  0  0  0  0  0  0  0  0  0  0  0
   -1.0196    6.6748    7.6692 C   0  0  0  0  0  0  0  0  0  0  0  0
   -2.1878    6.9492    7.6672 O   0  0  0  0  0  0  0  0  0  0  0  0
    0.0003    7.6963    8.1453 C   0  0  0  0  0  0  0  0  0  0  0  0
   -1.6264    4.4679    6.7845 C   0  0  0  0  0  0  0  0  0  0  0  0
    0.5000    0.1340    1.0052 H   0  0  0  0  0  0  0  0  0  0  0  0
    5.0636   -1.0380    1.0121 H   0  0  0  0  0  0  0  0  0  0  0  0
    6.2328    1.0517    0.9985 H   0  0  0  0  0  0  0  0  0  0  0  0
    2.6108    3.0778    0.9868 H   0  0  0  0  0  0  0  0  0  0  0  0
    6.1038    5.6356    2.1293 H   0  0  0  0  0  0  0  0  0  0  0  0
    7.3378    4.9398    1.3170 H   0  0  0  0  0  0  0  0  0  0  0  0
    9.3122    4.1138    2.4963 H   0  0  0  0  0  0  0  0  0  0  0  0
   10.6825    4.2718    4.4540 H   0  0  0  0  0  0  0  0  0  0  0  0
    9.7981    5.2354    6.4555 H   0  0  0  0  0  0  0  0  0  0  0  0
    7.5518    6.0361    6.5042 H   0  0  0  0  0  0  0  0  0  0  0  0
    6.1705    5.8822    4.5544 H   0  0  0  0  0  0  0  0  0  0  0  0
    5.5531    3.5700   -1.0745 H   0  0  0  0  0  0  0  0  0  0  0  0
    6.6157    4.5086   -0.2641 H   0  0  0  0  0  0  0  0  0  0  0  0
    6.7873    2.8847   -0.2538 H   0  0  0  0  0  0  0  0  0  0  0  0
    3.6774    4.6276    0.1602 H   0  0  0  0  0  0  0  0  0  0  0  0
    3.6777    4.6381    1.7932 H   0  0  0  0  0  0  0  0  0  0  0  0
    4.7400    5.5662    0.9705 H   0  0  0  0  0  0  0  0  0  0  0  0
   -3.8051    2.6783    2.5718 H   0  0  0  0  0  0  0  0  0  0  0  0
   -2.3410    3.4137   -4.9912 H   0  0  0  0  0  0  0  0  0  0  0  0
   -0.2889    4.6431   -5.0154 H   0  0  0  0  0  0  0  0  0  0  0  0
    1.3347    4.3233   -3.2983 H   0  0  0  0  0  0  0  0  0  0  0  0
    0.9165    2.7653   -1.5285 H   0  0  0  0  0  0  0  0  0  0  0  0
   -2.9432    3.4622    4.3754 H   0  0  0  0  0  0  0  0  0  0  0  0
    2.1053    4.2344    5.8613 H   0  0  0  0  0  0  0  0  0  0  0  0
    1.4361    3.1695    6.9028 H   0  0  0  0  0  0  0  0  0  0  0  0
    1.1148    4.9027    8.1889 H   0  0  0  0  0  0  0  0  0  0  0  0
    1.3367    5.9541    6.9594 H   0  0  0  0  0  0  0  0  0  0  0  0
    0.9185    7.3056    8.0811 H   0  0  0  0  0  0  0  0  0  0  0  0
   -0.0548    8.5142    7.5726 H   0  0  0  0  0  0  0  0  0  0  0  0
   -0.1920    7.9413    9.0956 H   0  0  0  0  0  0  0  0  0  0  0  0
   -2.4904    4.9503    6.6404 H   0  0  0  0  0  0  0  0  0  0  0  0
   -1.7540    3.7539    7.4728 H   0  0  0  0  0  0  0  0  0  0  0  0
  1  2  1  0  0  0  0
  2  3  1  0  0  0  0
  3  4  1  0  0  0  0
  4  5  1  0  0  0  0
  5  6  2  0  0  0  0
  6  7  1  0  0  0  0
  7  8  1  0  0  0  0
  8  9  1  0  0  0  0
  8 10  2  0  0  0  0
 10 11  1  0  0  0  0
 11 12  2  0  0  0  0
 12 13  1  0  0  0  0
 13  7  2  0  0  0  0
 12 14  1  0  0  0  0
 14 15  1  0  0  0  0
 15 16  1  0  0  0  0
 16 17  1  0  0  0  0
 17 18  1  0  0  0  0
 18 19  2  0  0  0  0
 19 20  1  0  0  0  0
 20 21  2  0  0  0  0
 21 22  1  0  0  0  0
 22 17  2  0  0  0  0
 14 23  1  0  0  0  0
 14 24  1  0  0  0  0
  4 25  1  0  0  0  0
 25 26  1  0  0  0  0
 26 27  1  0  0  0  0
  3 27  2  0  0  0  0
 25 28  2  0  0  0  0
 28 29  1  0  0  0  0
 29 30  1  0  0  0  0
 30 31  1  0  0  0  0
 30 32  2  0  0  0  0
 32 33  1  0  0  0  0
 33 34  2  0  0  0  0
 34 35  1  0  0  0  0
 35 29  2  0  0  0  0
  2 36  2  0  0  0  0
 36 37  1  0  0  0  0
 37 38  2  0  0  0  0
 38  1  1  0  0  0  0
 38 39  1  0  0  0  0
 39 40  1  0  0  0  0
 40 41  1  0  0  0  0
 41 42  1  0  0  0  0
 42 43  2  0  0  0  0
 42 44  1  0  0  0  0
 41 45  1  0  0  0  0
 45 37  1  0  0  0  0
  6 46  1  0  0  0  0
 10 47  1  0  0  0  0
 11 48  1  0  0  0  0
 13 49  1  0  0  0  0
 16 50  1  0  0  0  0
 16 51  1  0  0  0  0
 18 52  1  0  0  0  0
 19 53  1  0  0  0  0
 20 54  1  0  0  0  0
 21 55  1  0  0  0  0
 22 56  1  0  0  0  0
 23 57  1  0  0  0  0
 23 58  1  0  0  0  0
 23 59  1  0  0  0  0
 24 60  1  0  0  0  0
 24 61  1  0  0  0  0
 24 62  1  0  0  0  0
 27 63  1  0  0  0  0
 32 64  1  0  0  0  0
 33 65  1  0  0  0  0
 34 66  1  0  0  0  0
 35 67  1  0  0  0  0
 36 68  1  0  0  0  0
 39 69  1  0  0  0  0
 39 70  1  0  0  0  0
 40 71  1  0  0  0  0
 40 72  1  0  0  0  0
 44 73  1  0  0  0  0
 44 74  1  0  0  0  0
 44 75  1  0  0  0  0
 45 76  1  0  0  0  0
 45 77  1  0  0  0  0
M  END
>  <result-rank>
52

>  <similarity>
0.848

>  <query-name>


>  <query-smiles>
Clc1ccc(cc1)CS(=O)(=O)c2cc3N=C(c4c(N(c3cc2)C)cc5c(c4)C(CCC5(C)C)(C)C)c6ccc(cc6)C([O-])=O

>  <source>
REALspace_2019-12

>  <similarity-descriptor>
0.952;0.890;0.965;0.916;0.976;0.779;0.995;0.701;0.0;0.976;0.0;0.0;0.243;0.0;0.125

>  <similarity-descriptor-smiles>
c1ccccc1;Nc1ccccc1F;c1ccccc1F;S1C=CC=C1;C=1CNCCC1;C1=CSCN1N=C;C;C(O)C;;C=1CNCCC1;;;C=O;;C.C

>  <reaction-name>
s_1

>  <reagent1-name>
86402

>  <reagent1-smiles>
[R3*]=NN([R2*])C(S[R1*])=Nc1c(F)cccc1

>  <reagent2-name>
13977510

>  <reagent2-smiles>
[R3*]=Cc1c(F)ccc(c1)C(OCc2ccccc2)(C)C

>  <reagent3-name>
7793930

>  <reagent3-smiles>
[R2*]C(C=1SC2=C(C1)CN(C(=O)C)CC2)=C[R1*]

$$$$
s_270196____8770548____8772290
          04022017333D 1   1.00000     0.00000     0
            
 53 56  0  0  0  0            999 V2000
   -2.8683    6.3429    2.5805 Cl  0  0  0  0  0  0  0  0  0  0  0  0
   -1.4095    5.3240    2.5624 C   0  0  0  0  0  0  0  0  0  0  0  0
   -1.5312    3.9377    2.5672 C   0  0  0  0  0  0  0  0  0  0  0  0
   -3.1027    3.1909    2.5912 S   0  0  0  0  0  0  0  0  0  0  0  0
   -3.8108    3.6006    3.7762 O   0  0  0  0  0  0  0  0  0  0  0  0
   -3.8442    3.5954    1.4250 O   0  0  0  0  0  0  0  0  0  0  0  0
   -2.9338    1.5697    2.5924 N   0  0  0  0  0  0  0  0  0  0  0  0
   -3.0537    0.8542    3.7901 C   0  0  0  0  0  0  0  0  0  0  0  0
   -4.3010    0.3798    4.1818 C   0  0  0  0  0  0  0  0  0  0  0  0
   -4.4281   -0.3316    5.3700 C   0  0  0  0  0  0  0  0  0  0  0  0
   -3.3014   -0.5602    6.1529 C   0  0  0  0  0  0  0  0  0  0  0  0
   -3.4557   -1.4704    7.6744 Cl  0  0  0  0  0  0  0  0  0  0  0  0
   -2.0513   -0.0889    5.7664 C   0  0  0  0  0  0  0  0  0  0  0  0
   -1.9313    0.6220    4.5771 C   0  0  0  0  0  0  0  0  0  0  0  0
   -2.6556    0.8587    1.3362 C   0  0  0  0  0  0  0  0  0  0  0  0
   -0.3949    3.1345    2.5522 C   0  0  0  0  0  0  0  0  0  0  0  0
    0.8611    3.7331    2.5327 C   0  0  0  0  0  0  0  0  0  0  0  0
    0.9922    5.1183    2.5277 C   0  0  0  0  0  0  0  0  0  0  0  0
   -0.1495    5.9140    2.5424 C   0  0  0  0  0  0  0  0  0  0  0  0
    2.0463    2.8968    2.5180 C   0  0  0  0  0  0  0  0  0  0  0  0
    3.2848    3.3259    2.4991 O   0  0  0  0  0  0  0  0  0  0  0  0
    4.0764    2.3360    2.4914 N   0  0  0  0  0  0  0  0  0  0  0  0
    3.3683    1.2311    2.5037 C   0  0  0  0  0  0  0  0  0  0  0  0
    2.0573    1.5880    2.5200 N   0  0  0  0  0  0  0  0  0  0  0  0
    3.8899   -0.1215    2.4978 C   0  0  0  0  0  0  0  0  0  0  0  0
    2.9989   -1.1895    2.5128 C   0  0  0  0  0  0  0  0  0  0  0  0
    3.5039   -2.4849    2.5073 C   0  0  0  0  0  0  0  0  0  0  0  0
    2.6548   -3.5353    2.5203 O   0  0  0  0  0  0  0  0  0  0  0  0
    1.2522   -3.3142    2.5394 C   0  0  0  0  0  0  0  0  0  0  0  0
    0.5288   -4.6509    2.5509 C   0  0  0  0  0  0  0  0  0  0  0  0
    1.1570   -5.6733    2.5434 O   0  0  0  0  0  0  0  0  0  0  0  0
   -0.8406   -4.6886    2.5699 N   0  0  0  0  0  0  0  0  0  0  0  0
    4.8755   -2.7153    2.4886 C   0  0  0  0  0  0  0  0  0  0  0  0
    5.7565   -1.6387    2.4741 C   0  0  0  0  0  0  0  0  0  0  0  0
    5.2642   -0.3383    2.4787 C   0  0  0  0  0  0  0  0  0  0  0  0
   -5.1042    0.5497    3.6108 H   0  0  0  0  0  0  0  0  0  0  0  0
   -5.3215   -0.6756    5.6590 H   0  0  0  0  0  0  0  0  0  0  0  0
   -1.2479   -0.2592    6.3370 H   0  0  0  0  0  0  0  0  0  0  0  0
   -1.0380    0.9661    4.2880 H   0  0  0  0  0  0  0  0  0  0  0  0
   -2.5828   -0.1220    1.5174 H   0  0  0  0  0  0  0  0  0  0  0  0
   -3.3991    1.0237    0.6882 H   0  0  0  0  0  0  0  0  0  0  0  0
   -1.7957    1.1909    0.9486 H   0  0  0  0  0  0  0  0  0  0  0  0
   -0.4800    2.1381    2.5555 H   0  0  0  0  0  0  0  0  0  0  0  0
    1.8995    5.5387    2.5137 H   0  0  0  0  0  0  0  0  0  0  0  0
   -0.0643    6.9104    2.5386 H   0  0  0  0  0  0  0  0  0  0  0  0
    2.0121   -1.0283    2.5273 H   0  0  0  0  0  0  0  0  0  0  0  0
    0.9851   -2.7976    1.7259 H   0  0  0  0  0  0  0  0  0  0  0  0
    1.0076   -2.7957    3.3587 H   0  0  0  0  0  0  0  0  0  0  0  0
   -1.3642   -3.8366    2.5761 H   0  0  0  0  0  0  0  0  0  0  0  0
   -1.3166   -5.5680    2.5775 H   0  0  0  0  0  0  0  0  0  0  0  0
    5.2271   -3.6514    2.4855 H   0  0  0  0  0  0  0  0  0  0  0  0
    6.7433   -1.7999    2.4603 H   0  0  0  0  0  0  0  0  0  0  0  0
    5.8950    0.4376    2.4683 H   0  0  0  0  0  0  0  0  0  0  0  0
  1  2  1  0  0  0  0
  2  3  1  0  0  0  0
  3  4  1  0  0  0  0
  4  5  2  0  0  0  0
  4  6  2  0  0  0  0
  4  7  1  0  0  0  0
  7  8  1  0  0  0  0
  8  9  1  0  0  0  0
  9 10  2  0  0  0  0
 10 11  1  0  0  0  0
 11 12  1  0  0  0  0
 11 13  2  0  0  0  0
 13 14  1  0  0  0  0
 14  8  2  0  0  0  0
  7 15  1  0  0  0  0
  3 16  2  0  0  0  0
 16 17  1  0  0  0  0
 17 18  2  0  0  0  0
 18 19  1  0  0  0  0
 19  2  2  0  0  0  0
 17 20  1  0  0  0  0
 20 21  1  0  0  0  0
 21 22  1  0  0  0  0
 22 23  2  0  0  0  0
 23 24  1  0  0  0  0
 20 24  2  0  0  0  0
 23 25  1  0  0  0  0
 25 26  1  0  0  0  0
 26 27  2  0  0  0  0
 27 28  1  0  0  0  0
 28 29  1  0  0  0  0
 29 30  1  0  0  0  0
 30 31  2  0  0  0  0
 30 32  1  0  0  0  0
 27 33  1  0  0  0  0
 33 34  2  0  0  0  0
 34 35  1  0  0  0  0
 35 25  2  0  0  0  0
  9 36  1  0  0  0  0
 10 37  1  0  0  0  0
 13 38  1  0  0  0  0
 14 39  1  0  0  0  0
 15 40  1  0  0  0  0
 15 41  1  0  0  0  0
 15 42  1  0  0  0  0
 16 43  1  0  0  0  0
 18 44  1  0  0  0  0
 19 45  1  0  0  0  0
 26 46  1  0  0  0  0
 29 47  1  0  0  0  0
 29 48  1  0  0  0  0
 32 49  1  0  0  0  0
 32 50  1  0  0  0  0
 33 51  1  0  0  0  0
 34 52  1  0  0  0  0
 35 53  1  0  0  0  0
M  END
>  <result-rank>
53

>  <similarity>
0.848

>  <query-name>


>  <query-smiles>
Clc1ccc(cc1)CS(=O)(=O)c2cc3N=C(c4c(N(c3cc2)C)cc5c(c4)C(CCC5(C)C)(C)C)c6ccc(cc6)C([O-])=O

>  <source>
REALspace_2019-12

>  <similarity-descriptor>
0.999;0.998;0.948;0.0;0.0;0.620;0.925;0.997;0.0;0.0;0.0;0.0;0.0;0.831;0.091

>  <similarity-descriptor-smiles>
c1ccc(cc1)Cl;c1ccccc1;Clc1ccccc1;;;C1=NC=NO1;NC;S(=O)=O;;;;;;OCC=O;N

>  <reaction-name>
s_270196

>  <reagent1-name>
8770548

>  <reagent1-smiles>
[R1*]=NC(=NO[R2*])c1cc(OCC(=O)N)ccc1

>  <reagent2-name>
8772290

>  <reagent2-smiles>
[R1*]C([R2*])c1cc(S(=O)(=O)N(c2ccc(Cl)cc2)C)c(Cl)cc1

$$$$
s_42a____8631722____125041
          04022017333D 1   1.00000     0.00000     0
            
 62 68  0  0  0  0            999 V2000
    5.1882    0.6507    5.3504 Br  0  0  0  0  0  0  0  0  0  0  0  0
    6.1680    0.3576    3.6779 C   0  0  0  0  0  0  0  0  0  0  0  0
    7.3836   -0.3234    3.6947 C   0  0  0  0  0  0  0  0  0  0  0  0
    8.0453   -0.5204    2.5485 N   0  0  0  0  0  0  0  0  0  0  0  0
    7.4996   -0.0468    1.4375 C   0  0  0  0  0  0  0  0  0  0  0  0
    8.3463   -0.3079   -0.0098 S   0  0  0  0  0  0  0  0  0  0  0  0
    7.1752    0.4381   -0.9862 C   0  0  0  0  0  0  0  0  0  0  0  0
    6.1858    0.8677   -0.1658 C   0  0  0  0  0  0  0  0  0  0  0  0
    6.3202    0.6307    1.2459 C   0  0  0  0  0  0  0  0  0  0  0  0
    5.6615    0.8206    2.4636 C   0  0  0  0  0  0  0  0  0  0  0  0
    4.3934    1.5238    2.4792 C   0  0  0  0  0  0  0  0  0  0  0  0
    4.3898    2.9144    2.4850 C   0  0  0  0  0  0  0  0  0  0  0  0
    3.1783    3.5981    2.5011 C   0  0  0  0  0  0  0  0  0  0  0  0
    1.9856    2.8824    2.5103 C   0  0  0  0  0  0  0  0  0  0  0  0
    0.8052    3.5371    2.5243 O   0  0  0  0  0  0  0  0  0  0  0  0
    0.7807    4.9569    2.5297 C   0  0  0  0  0  0  0  0  0  0  0  0
    1.9898    1.4913    2.5046 C   0  0  0  0  0  0  0  0  0  0  0  0
    3.2009    0.8075    2.4890 C   0  0  0  0  0  0  0  0  0  0  0  0
    5.0745    1.5452   -0.9602 C   0  0  0  0  0  0  0  0  0  0  0  0
    4.7042    0.6653   -2.1550 C   0  0  0  0  0  0  0  0  0  0  0  0
    5.8715    0.0215   -2.8967 C   0  0  3  0  0  0  0  0  0  0  0  0
    7.2273    0.5589   -2.4944 C   0  0  0  0  0  0  0  0  0  0  0  0
    5.7062    0.2706   -4.3848 C   0  0  0  0  0  0  0  0  0  0  0  0
    7.9203   -0.8125    4.9502 C   0  0  0  0  0  0  0  0  0  0  0  0
    8.2045    0.0785    5.9795 C   0  0  0  0  0  0  0  0  0  0  0  0
    8.7188   -0.4165    7.1731 C   0  0  0  0  0  0  0  0  0  0  0  0
    8.9531   -1.7616    7.3650 C   0  0  0  0  0  0  0  0  0  0  0  0
    9.4801   -2.0083    8.6876 C   0  0  0  0  0  0  0  0  0  0  0  0
    9.6018   -0.8311    9.3943 C   0  0  0  0  0  0  0  0  0  0  0  0
   10.0998   -0.8546   10.6926 C   0  0  0  0  0  0  0  0  0  0  0  0
   10.4725   -2.0624   11.2724 C   0  0  0  0  0  0  0  0  0  0  0  0
   10.3477   -3.2468   10.5542 C   0  0  0  0  0  0  0  0  0  0  0  0
    9.8507   -3.2233    9.2557 C   0  0  0  0  0  0  0  0  0  0  0  0
    9.1223    0.2710    8.4656 C   0  0  0  0  0  0  0  0  0  0  0  0
    8.6609   -2.6355    6.3214 C   0  0  0  0  0  0  0  0  0  0  0  0
    8.1464   -2.1751    5.1132 C   0  0  0  0  0  0  0  0  0  0  0  0
    5.2527    3.4198    2.4778 H   0  0  0  0  0  0  0  0  0  0  0  0
    3.1650    4.5980    2.5060 H   0  0  0  0  0  0  0  0  0  0  0  0
   -0.1677    5.2739    2.5402 H   0  0  0  0  0  0  0  0  0  0  0  0
    1.2543    5.2953    3.3428 H   0  0  0  0  0  0  0  0  0  0  0  0
    1.2382    5.3012    1.7099 H   0  0  0  0  0  0  0  0  0  0  0  0
    1.1270    0.9859    2.5117 H   0  0  0  0  0  0  0  0  0  0  0  0
    3.2144   -0.1924    2.4849 H   0  0  0  0  0  0  0  0  0  0  0  0
    5.3912    2.4361   -1.2860 H   0  0  0  0  0  0  0  0  0  0  0  0
    4.2731    1.6699   -0.3752 H   0  0  0  0  0  0  0  0  0  0  0  0
    4.1105   -0.0678   -1.8231 H   0  0  0  0  0  0  0  0  0  0  0  0
    4.2013    1.2315   -2.8081 H   0  0  0  0  0  0  0  0  0  0  0  0
    5.8537   -0.9645   -2.7312 H   0  0  0  0  0  0  0  0  0  0  0  0
    7.9665    0.0057   -2.8785 H   0  0  0  0  0  0  0  0  0  0  0  0
    7.3407    1.5107   -2.7795 H   0  0  0  0  0  0  0  0  0  0  0  0
    4.8165   -0.0744   -4.6837 H   0  0  0  0  0  0  0  0  0  0  0  0
    5.7612    1.2524   -4.5666 H   0  0  0  0  0  0  0  0  0  0  0  0
    6.4320   -0.2022   -4.8845 H   0  0  0  0  0  0  0  0  0  0  0  0
    8.0419    1.0583    5.8633 H   0  0  0  0  0  0  0  0  0  0  0  0
   10.1899   -0.0030   11.2091 H   0  0  0  0  0  0  0  0  0  0  0  0
   10.8303   -2.0793   12.2061 H   0  0  0  0  0  0  0  0  0  0  0  0
   10.6154   -4.1152   10.9715 H   0  0  0  0  0  0  0  0  0  0  0  0
    9.7604   -4.0721    8.7348 H   0  0  0  0  0  0  0  0  0  0  0  0
    8.3387    0.7461    8.8658 H   0  0  0  0  0  0  0  0  0  0  0  0
    9.8582    0.9265    8.2954 H   0  0  0  0  0  0  0  0  0  0  0  0
    8.8242   -3.6146    6.4425 H   0  0  0  0  0  0  0  0  0  0  0  0
    7.9421   -2.8151    4.3725 H   0  0  0  0  0  0  0  0  0  0  0  0
  1  2  1  0  0  0  0
  2  3  1  0  0  0  0
  3  4  2  0  0  0  0
  4  5  1  0  0  0  0
  5  6  1  0  0  0  0
  6  7  1  0  0  0  0
  7  8  2  0  0  0  0
  8  9  1  0  0  0  0
  9  5  2  0  0  0  0
  9 10  1  0  0  0  0
 10  2  2  0  0  0  0
 10 11  1  0  0  0  0
 11 12  1  0  0  0  0
 12 13  2  0  0  0  0
 13 14  1  0  0  0  0
 14 15  1  0  0  0  0
 15 16  1  0  0  0  0
 14 17  2  0  0  0  0
 17 18  1  0  0  0  0
 18 11  2  0  0  0  0
  8 19  1  0  0  0  0
 19 20  1  0  0  0  0
 20 21  1  0  0  0  0
 21 22  1  0  0  0  0
 22  7  1  0  0  0  0
 21 23  1  0  0  0  0
  3 24  1  0  0  0  0
 24 25  1  0  0  0  0
 25 26  2  0  0  0  0
 26 27  1  0  0  0  0
 27 28  1  0  0  0  0
 28 29  1  0  0  0  0
 29 30  2  0  0  0  0
 30 31  1  0  0  0  0
 31 32  2  0  0  0  0
 32 33  1  0  0  0  0
 33 28  2  0  0  0  0
 29 34  1  0  0  0  0
 34 26  1  0  0  0  0
 27 35  2  0  0  0  0
 35 36  1  0  0  0  0
 36 24  2  0  0  0  0
 12 37  1  0  0  0  0
 13 38  1  0  0  0  0
 16 39  1  0  0  0  0
 16 40  1  0  0  0  0
 16 41  1  0  0  0  0
 17 42  1  0  0  0  0
 18 43  1  0  0  0  0
 19 44  1  0  0  0  0
 19 45  1  0  0  0  0
 20 46  1  0  0  0  0
 20 47  1  0  0  0  0
 21 48  1  0  0  0  0
 22 49  1  0  0  0  0
 22 50  1  0  0  0  0
 23 51  1  0  0  0  0
 23 52  1  0  0  0  0
 23 53  1  0  0  0  0
 25 54  1  0  0  0  0
 30 55  1  0  0  0  0
 31 56  1  0  0  0  0
 32 57  1  0  0  0  0
 33 58  1  0  0  0  0
 34 59  1  0  0  0  0
 34 60  1  0  0  0  0
 35 61  1  0  0  0  0
 36 62  1  0  0  0  0
M  END
>  <result-rank>
54

>  <similarity>
0.848

>  <query-name>


>  <query-smiles>
Clc1ccc(cc1)CS(=O)(=O)c2cc3N=C(c4c(N(c3cc2)C)cc5c(c4)C(CCC5(C)C)(C)C)c6ccc(cc6)C([O-])=O

>  <source>
REALspace_2019-12

>  <similarity-descriptor>
0.951;0.998;0.997;0.830;0.947;0.881;0.241;0.241;0.881;0.947;0.947;0.0;1.000;0.490;0.0

>  <similarity-descriptor-smiles>
c1ccccc1;c1ccccc1;c1ccccc1;c1cC=CS1;C=1CCCCC1;Brc1cccnc1;c1Cccc1;c1Cccc1;Brc1cccnc1;C=1CCCCC1;C=1CCCCC1;;C;OC;

>  <reaction-name>
s_42a

>  <reagent1-name>
8631722

>  <reagent1-smiles>
[R1*]=NC=1SC2=C(C1C(=[R2*])c3ccc(OC)cc3)CCC2

>  <reagent2-name>
125041

>  <reagent2-smiles>
[R1*]=C(c1cc2c(c3c(cccc3)C2)cc1)C=[R2*]

$$$$
s_27a____2767532____61062
          04022017333D 1   1.00000     0.00000     0
            
 67 72  0  0  0  0            999 V2000
    7.5607    9.9227    1.1575 Br  0  0  0  0  0  0  0  0  0  0  0  0
    6.5863    8.2224    1.1269 C   0  0  0  0  0  0  0  0  0  0  0  0
    5.1950    8.2249    1.1300 C   0  0  0  0  0  0  0  0  0  0  0  0
    4.5069    7.0162    1.1095 C   0  0  0  0  0  0  0  0  0  0  0  0
    5.2174    5.8203    1.0858 C   0  0  0  0  0  0  0  0  0  0  0  0
    6.6078    5.8229    1.0826 C   0  0  0  0  0  0  0  0  0  0  0  0
    7.3014    7.0289    1.1037 C   0  0  0  0  0  0  0  0  0  0  0  0
    4.4965    4.5626    1.0647 C   0  0  0  0  0  0  0  0  0  0  0  0
    5.1501    3.4391    1.0425 C   0  0  0  0  0  0  0  0  0  0  0  0
    4.4282    2.1795    1.0215 C   0  0  0  0  0  0  0  0  0  0  0  0
    5.1084    1.0229    0.9985 N   0  0  0  0  0  0  0  0  0  0  0  0
    4.3937   -0.0990    0.9780 C   0  0  0  0  0  0  0  0  0  0  0  0
    5.2309   -1.5801    0.9589 S   0  0  0  0  0  0  0  0  0  0  0  0
    3.7913   -2.4911    0.9495 C   0  0  0  0  0  0  0  0  0  0  0  0
    2.7213   -1.6423    0.9721 C   0  0  0  0  0  0  0  0  0  0  0  0
    3.0272   -0.2407    0.9759 C   0  0  0  0  0  0  0  0  0  0  0  0
    2.3975    1.0000    1.0000 C   0  0  0  0  0  0  0  0  0  0  0  0
    3.0859    2.1548    1.0215 N   0  0  0  0  0  0  0  0  0  0  0  0
    1.0000    1.0000    1.0000 N   0  0  0  0  0  0  0  0  0  0  0  0
    0.2650    2.2728    1.0247 C   0  0  0  0  0  0  0  0  0  0  0  0
    0.0117    2.7394   -0.3996 C   0  0  0  0  0  0  0  0  0  0  0  0
   -1.2456    2.5761   -0.9717 C   0  0  0  0  0  0  0  0  0  0  0  0
   -2.2921    1.9837   -0.2543 N   0  0  0  0  0  0  0  0  0  0  0  0
   -3.6380    2.8401    0.0805 S   0  0  0  0  0  0  0  0  0  0  0  0
   -4.3963    2.1633    1.1005 O   0  0  0  0  0  0  0  0  0  0  0  0
   -3.2687    4.1513    0.5476 O   0  0  0  0  0  0  0  0  0  0  0  0
   -4.6043    2.9880   -1.3586 C   0  0  0  0  0  0  0  0  0  0  0  0
   -5.3355    1.8968   -1.8165 C   0  0  0  0  0  0  0  0  0  0  0  0
   -6.1043    2.0288   -2.9686 C   0  0  0  0  0  0  0  0  0  0  0  0
   -6.1410    3.2375   -3.6559 C   0  0  0  0  0  0  0  0  0  0  0  0
   -5.4054    4.3222   -3.1900 C   0  0  0  0  0  0  0  0  0  0  0  0
   -4.6336    4.2014   -2.0391 C   0  0  0  0  0  0  0  0  0  0  0  0
   -1.4773    3.0029   -2.2748 C   0  0  0  0  0  0  0  0  0  0  0  0
   -0.4519    3.5933   -3.0058 C   0  0  0  0  0  0  0  0  0  0  0  0
    0.8051    3.7564   -2.4339 C   0  0  0  0  0  0  0  0  0  0  0  0
    1.0370    3.3288   -1.1310 C   0  0  0  0  0  0  0  0  0  0  0  0
    1.3954   -2.3884    1.0323 C   0  0  0  0  0  0  0  0  0  0  0  0
    1.4508   -3.8431    0.5883 C   0  0  0  0  0  0  0  0  0  0  0  0
    2.5647   -4.5535    1.3438 C   0  0  0  0  0  0  0  0  0  0  0  0
    3.9091   -4.0063    0.8948 C   0  0  0  0  0  0  0  0  0  0  0  0
    4.6931    9.0897    1.1470 H   0  0  0  0  0  0  0  0  0  0  0  0
    3.5070    7.0070    1.1117 H   0  0  0  0  0  0  0  0  0  0  0  0
    7.1094    4.9579    1.0652 H   0  0  0  0  0  0  0  0  0  0  0  0
    8.3014    7.0379    1.1022 H   0  0  0  0  0  0  0  0  0  0  0  0
    3.4965    4.5594    1.0674 H   0  0  0  0  0  0  0  0  0  0  0  0
    6.1501    3.4424    1.0399 H   0  0  0  0  0  0  0  0  0  0  0  0
    0.5000    0.1341    0.9832 H   0  0  0  0  0  0  0  0  0  0  0  0
    0.8054    2.9605    1.5096 H   0  0  0  0  0  0  0  0  0  0  0  0
   -0.6088    2.1441    1.4937 H   0  0  0  0  0  0  0  0  0  0  0  0
   -2.2138    1.0352    0.0526 H   0  0  0  0  0  0  0  0  0  0  0  0
   -5.3089    1.0273   -1.3232 H   0  0  0  0  0  0  0  0  0  0  0  0
   -6.6338    1.2499   -3.3046 H   0  0  0  0  0  0  0  0  0  0  0  0
   -6.6951    3.3265   -4.4835 H   0  0  0  0  0  0  0  0  0  0  0  0
   -5.4315    5.1914   -3.6838 H   0  0  0  0  0  0  0  0  0  0  0  0
   -4.1041    4.9804   -1.7034 H   0  0  0  0  0  0  0  0  0  0  0  0
   -2.3811    2.8854   -2.6862 H   0  0  0  0  0  0  0  0  0  0  0  0
   -0.6185    3.9005   -3.9427 H   0  0  0  0  0  0  0  0  0  0  0  0
    1.5423    4.1811   -2.9594 H   0  0  0  0  0  0  0  0  0  0  0  0
    1.9413    3.4452   -0.7201 H   0  0  0  0  0  0  0  0  0  0  0  0
    0.7439   -1.9097    0.4436 H   0  0  0  0  0  0  0  0  0  0  0  0
    1.0700   -2.3654    1.9775 H   0  0  0  0  0  0  0  0  0  0  0  0
    1.6322   -3.8866   -0.3941 H   0  0  0  0  0  0  0  0  0  0  0  0
    0.5767   -4.2868    0.7858 H   0  0  0  0  0  0  0  0  0  0  0  0
    2.4530   -4.3991    2.3255 H   0  0  0  0  0  0  0  0  0  0  0  0
    2.5237   -5.5344    1.1538 H   0  0  0  0  0  0  0  0  0  0  0  0
    4.6334   -4.3199    1.5089 H   0  0  0  0  0  0  0  0  0  0  0  0
    4.1106   -4.3048   -0.0381 H   0  0  0  0  0  0  0  0  0  0  0  0
  1  2  1  0  0  0  0
  2  3  1  0  0  0  0
  3  4  2  0  0  0  0
  4  5  1  0  0  0  0
  5  6  2  0  0  0  0
  6  7  1  0  0  0  0
  7  2  2  0  0  0  0
  5  8  1  0  0  0  0
  8  9  2  0  0  0  0
  9 10  1  0  0  0  0
 10 11  1  0  0  0  0
 11 12  2  0  0  0  0
 12 13  1  0  0  0  0
 13 14  1  0  0  0  0
 14 15  2  0  0  0  0
 15 16  1  0  0  0  0
 16 12  1  0  0  0  0
 16 17  2  0  0  0  0
 17 18  1  0  0  0  0
 18 10  2  0  0  0  0
 17 19  1  0  0  0  0
 19 20  1  0  0  0  0
 20 21  1  0  0  0  0
 21 22  1  0  0  0  0
 22 23  1  0  0  0  0
 23 24  1  0  0  0  0
 24 25  2  0  0  0  0
 24 26  2  0  0  0  0
 24 27  1  0  0  0  0
 27 28  1  0  0  0  0
 28 29  2  0  0  0  0
 29 30  1  0  0  0  0
 30 31  2  0  0  0  0
 31 32  1  0  0  0  0
 32 27  2  0  0  0  0
 22 33  2  0  0  0  0
 33 34  1  0  0  0  0
 34 35  2  0  0  0  0
 35 36  1  0  0  0  0
 36 21  2  0  0  0  0
 15 37  1  0  0  0  0
 37 38  1  0  0  0  0
 38 39  1  0  0  0  0
 39 40  1  0  0  0  0
 40 14  1  0  0  0  0
  3 41  1  0  0  0  0
  4 42  1  0  0  0  0
  6 43  1  0  0  0  0
  7 44  1  0  0  0  0
  8 45  1  0  0  0  0
  9 46  1  0  0  0  0
 19 47  1  0  0  0  0
 20 48  1  0  0  0  0
 20 49  1  0  0  0  0
 23 50  1  0  0  0  0
 28 51  1  0  0  0  0
 29 52  1  0  0  0  0
 30 53  1  0  0  0  0
 31 54  1  0  0  0  0
 32 55  1  0  0  0  0
 33 56  1  0  0  0  0
 34 57  1  0  0  0  0
 35 58  1  0  0  0  0
 36 59  1  0  0  0  0
 37 60  1  0  0  0  0
 37 61  1  0  0  0  0
 38 62  1  0  0  0  0
 38 63  1  0  0  0  0
 39 64  1  0  0  0  0
 39 65  1  0  0  0  0
 40 66  1  0  0  0  0
 40 67  1  0  0  0  0
M  END
>  <result-rank>
55

>  <similarity>
0.848

>  <query-name>


>  <query-smiles>
Clc1ccc(cc1)CS(=O)(=O)c2cc3N=C(c4c(N(c3cc2)C)cc5c(c4)C(CCC5(C)C)(C)C)c6ccc(cc6)C([O-])=O

>  <source>
REALspace_2019-12

>  <similarity-descriptor>
0.898;0.911;0.792;0.830;0.961;0.771;0.898;0.885;0.0;0.961;0.961;0.0;0.0;0.0;0.0

>  <similarity-descriptor-smiles>
c1ccccc1;Brc1ccc(cc1)C;NCc1ccccc1;c1cC=CS1;C=1CCCCC1;Cc1ncccn1;c1ccccc1;NS(=O)=O;;C=1CCCCC1;C=1CCCCC1;;;;

>  <reaction-name>
s_27a

>  <reagent1-name>
2767532

>  <reagent1-smiles>
[R1*]NCc1c(NS(=O)(=O)c2ccccc2)cccc1

>  <reagent2-name>
61062

>  <reagent2-smiles>
[R1*]c1nc(nc2SC3=C(c12)CCCC3)C=Cc4ccc(Br)cc4

$$$$
s_270196____8771108____8772290
          04022017333D 1   1.00000     0.00000     0
            
 66 70  0  0  0  0            999 V2000
    0.4214    3.7482    2.5312 Cl  0  0  0  0  0  0  0  0  0  0  0  0
    1.9732    2.8775    2.5107 C   0  0  0  0  0  0  0  0  0  0  0  0
    3.1686    3.5899    2.5009 C   0  0  0  0  0  0  0  0  0  0  0  0
    3.1578    5.3300    2.5082 S   0  0  0  0  0  0  0  0  0  0  0  0
    2.4635    5.8106    1.3418 O   0  0  0  0  0  0  0  0  0  0  0  0
    2.4886    5.8008    3.6932 O   0  0  0  0  0  0  0  0  0  0  0  0
    4.6911    5.8829    2.4942 N   0  0  0  0  0  0  0  0  0  0  0  0
    5.2655    6.3234    1.2956 C   0  0  0  0  0  0  0  0  0  0  0  0
    5.1449    7.6597    0.9295 C   0  0  0  0  0  0  0  0  0  0  0  0
    5.7126    8.1047   -0.2595 C   0  0  0  0  0  0  0  0  0  0  0  0
    6.3966    7.2037   -1.0688 C   0  0  0  0  0  0  0  0  0  0  0  0
    7.1266    7.7656   -2.5915 Cl  0  0  0  0  0  0  0  0  0  0  0  0
    6.5211    5.8663   -0.7080 C   0  0  0  0  0  0  0  0  0  0  0  0
    5.9508    5.4279    0.4822 C   0  0  0  0  0  0  0  0  0  0  0  0
    5.4709    5.9191    3.7398 C   0  0  0  0  0  0  0  0  0  0  0  0
    4.3860    2.9159    2.4858 C   0  0  0  0  0  0  0  0  0  0  0  0
    4.3932    1.5244    2.4803 C   0  0  0  0  0  0  0  0  0  0  0  0
    3.2028    0.8039    2.4901 C   0  0  0  0  0  0  0  0  0  0  0  0
    1.9898    1.4862    2.5055 C   0  0  0  0  0  0  0  0  0  0  0  0
    5.6613    0.8208    2.4636 C   0  0  0  0  0  0  0  0  0  0  0  0
    5.8135   -0.4813    2.4569 O   0  0  0  0  0  0  0  0  0  0  0  0
    7.0490   -0.7636    2.4413 N   0  0  0  0  0  0  0  0  0  0  0  0
    7.7361    0.3546    2.4388 C   0  0  0  0  0  0  0  0  0  0  0  0
    6.8447    1.3800    2.4541 N   0  0  0  0  0  0  0  0  0  0  0  0
    9.1816    0.4730    2.4254 C   0  0  0  0  0  0  0  0  0  0  0  0
    9.9628   -0.6781    2.4127 C   0  0  0  0  0  0  0  0  0  0  0  0
   11.3488   -0.5574    2.4006 C   0  0  0  0  0  0  0  0  0  0  0  0
   11.9461    0.6992    2.4009 C   0  0  0  0  0  0  0  0  0  0  0  0
   13.3478    0.8116    2.3871 N   0  0  0  0  0  0  0  0  0  0  0  0
   14.1026    0.8796    1.1275 C   0  0  0  0  0  0  0  0  0  0  0  0
   15.4743    0.2634    1.3566 C   0  0  3  0  0  0  0  0  0  0  0  0
   16.2767    1.1144    2.3285 C   0  0  0  0  0  0  0  0  0  0  0  0
   15.3777    1.7202    3.3988 C   0  0  0  0  0  0  0  0  0  0  0  0
   14.1376    0.8693    3.6272 C   0  0  0  0  0  0  0  0  0  0  0  0
   16.2557    0.1618    0.0575 C   0  0  0  0  0  0  0  0  0  0  0  0
   11.1563    1.8448    2.4128 C   0  0  0  0  0  0  0  0  0  0  0  0
    9.7696    1.7339    2.4254 C   0  0  0  0  0  0  0  0  0  0  0  0
   12.1896   -1.8239    2.3863 C   0  0  0  0  0  0  0  0  0  0  0  0
    4.6513    8.2987    1.5194 H   0  0  0  0  0  0  0  0  0  0  0  0
    5.6299    9.0638   -0.5302 H   0  0  0  0  0  0  0  0  0  0  0  0
    7.0152    5.2273   -1.2976 H   0  0  0  0  0  0  0  0  0  0  0  0
    6.0335    4.4688    0.7529 H   0  0  0  0  0  0  0  0  0  0  0  0
    6.3830    6.2832    3.5516 H   0  0  0  0  0  0  0  0  0  0  0  0
    5.0088    6.5052    4.4054 H   0  0  0  0  0  0  0  0  0  0  0  0
    5.5512    4.9935    4.1098 H   0  0  0  0  0  0  0  0  0  0  0  0
    5.2462    3.4258    2.4789 H   0  0  0  0  0  0  0  0  0  0  0  0
    3.2187   -0.1959    2.4859 H   0  0  0  0  0  0  0  0  0  0  0  0
    1.1297    0.9761    2.5130 H   0  0  0  0  0  0  0  0  0  0  0  0
    9.5333   -1.5812    2.4124 H   0  0  0  0  0  0  0  0  0  0  0  0
   14.2037    1.8336    0.8453 H   0  0  0  0  0  0  0  0  0  0  0  0
   13.6183    0.3709    0.4156 H   0  0  0  0  0  0  0  0  0  0  0  0
   15.3606   -0.6525    1.7416 H   0  0  0  0  0  0  0  0  0  0  0  0
   16.7255    1.8517    1.8235 H   0  0  0  0  0  0  0  0  0  0  0  0
   16.9689    0.5426    2.7688 H   0  0  0  0  0  0  0  0  0  0  0  0
   15.8898    1.7857    4.2552 H   0  0  0  0  0  0  0  0  0  0  0  0
   15.0960    2.6346    3.1080 H   0  0  0  0  0  0  0  0  0  0  0  0
   14.4118   -0.0554    3.8912 H   0  0  0  0  0  0  0  0  0  0  0  0
   13.5852    1.2740    4.3559 H   0  0  0  0  0  0  0  0  0  0  0  0
   17.1508   -0.2457    0.2379 H   0  0  0  0  0  0  0  0  0  0  0  0
   15.7530   -0.4110   -0.5899 H   0  0  0  0  0  0  0  0  0  0  0  0
   16.3774    1.0754   -0.3305 H   0  0  0  0  0  0  0  0  0  0  0  0
   11.5855    2.7480    2.4122 H   0  0  0  0  0  0  0  0  0  0  0  0
    9.1991    2.5552    2.4344 H   0  0  0  0  0  0  0  0  0  0  0  0
   11.5885   -2.6231    2.3882 H   0  0  0  0  0  0  0  0  0  0  0  0
   12.7588   -1.8369    1.5642 H   0  0  0  0  0  0  0  0  0  0  0  0
   12.7745   -1.8449    3.1971 H   0  0  0  0  0  0  0  0  0  0  0  0
  1  2  1  0  0  0  0
  2  3  1  0  0  0  0
  3  4  1  0  0  0  0
  4  5  2  0  0  0  0
  4  6  2  0  0  0  0
  4  7  1  0  0  0  0
  7  8  1  0  0  0  0
  8  9  1  0  0  0  0
  9 10  2  0  0  0  0
 10 11  1  0  0  0  0
 11 12  1  0  0  0  0
 11 13  2  0  0  0  0
 13 14  1  0  0  0  0
 14  8  2  0  0  0  0
  7 15  1  0  0  0  0
  3 16  2  0  0  0  0
 16 17  1  0  0  0  0
 17 18  2  0  0  0  0
 18 19  1  0  0  0  0
 19  2  2  0  0  0  0
 17 20  1  0  0  0  0
 20 21  1  0  0  0  0
 21 22  1  0  0  0  0
 22 23  2  0  0  0  0
 23 24  1  0  0  0  0
 20 24  2  0  0  0  0
 23 25  1  0  0  0  0
 25 26  1  0  0  0  0
 26 27  2  0  0  0  0
 27 28  1  0  0  0  0
 28 29  1  0  0  0  0
 29 30  1  0  0  0  0
 30 31  1  0  0  0  0
 31 32  1  0  0  0  0
 32 33  1  0  0  0  0
 33 34  1  0  0  0  0
 34 29  1  0  0  0  0
 31 35  1  0  0  0  0
 28 36  2  0  0  0  0
 36 37  1  0  0  0  0
 37 25  2  0  0  0  0
 27 38  1  0  0  0  0
  9 39  1  0  0  0  0
 10 40  1  0  0  0  0
 13 41  1  0  0  0  0
 14 42  1  0  0  0  0
 15 43  1  0  0  0  0
 15 44  1  0  0  0  0
 15 45  1  0  0  0  0
 16 46  1  0  0  0  0
 18 47  1  0  0  0  0
 19 48  1  0  0  0  0
 26 49  1  0  0  0  0
 30 50  1  0  0  0  0
 30 51  1  0  0  0  0
 31 52  1  0  0  0  0
 32 53  1  0  0  0  0
 32 54  1  0  0  0  0
 33 55  1  0  0  0  0
 33 56  1  0  0  0  0
 34 57  1  0  0  0  0
 34 58  1  0  0  0  0
 35 59  1  0  0  0  0
 35 60  1  0  0  0  0
 35 61  1  0  0  0  0
 36 62  1  0  0  0  0
 37 63  1  0  0  0  0
 38 64  1  0  0  0  0
 38 65  1  0  0  0  0
 38 66  1  0  0  0  0
M  END
>  <result-rank>
56

>  <similarity>
0.848

>  <query-name>


>  <query-smiles>
Clc1ccc(cc1)CS(=O)(=O)c2cc3N=C(c4c(N(c3cc2)C)cc5c(c4)C(CCC5(C)C)(C)C)c6ccc(cc6)C([O-])=O

>  <source>
REALspace_2019-12

>  <similarity-descriptor>
0.999;0.0;0.948;0.906;0.829;0.620;0.925;0.997;0.0;0.829;0.829;0.829;1.000;0.0;0.100

>  <similarity-descriptor-smiles>
c1ccc(cc1)Cl;;Clc1ccccc1;c1ccccc1;N1CCCCC1;C1=NC=NO1;NC;S(=O)=O;;N1CCCCC1;N1CCCCC1;N1CCCCC1;C;;C

>  <reaction-name>
s_270196

>  <reagent1-name>
8771108

>  <reagent1-smiles>
[R1*]=NC(=NO[R2*])c1cc(c(N2CC(CCC2)C)cc1)C

>  <reagent2-name>
8772290

>  <reagent2-smiles>
[R1*]C([R2*])c1cc(S(=O)(=O)N(c2ccc(Cl)cc2)C)c(Cl)cc1

$$$$
s_42a____8631722____125326
          04022017333D 1   1.00000     0.00000     0
            
 57 61  0  0  0  0            999 V2000
    3.3001    1.8776    5.4620 S   0  0  0  0  0  0  0  0  0  0  0  0
    2.9223    2.2681    3.8574 C   0  0  0  0  0  0  0  0  0  0  0  0
    2.1686    1.4601    3.1133 N   0  0  0  0  0  0  0  0  0  0  0  0
    1.8757    1.8757    1.8757 C   0  0  0  0  0  0  0  0  0  0  0  0
    2.3661    3.0935    1.4126 C   0  0  0  0  0  0  0  0  0  0  0  0
    3.1610    3.8700    2.2499 C   0  0  0  0  0  0  0  0  0  0  0  0
    3.5025    3.4954    3.5437 C   0  0  0  0  0  0  0  0  0  0  0  0
    4.2744    4.0264    4.6092 C   0  0  0  0  0  0  0  0  0  0  0  0
    4.2313    3.2700    5.7454 C   0  0  0  0  0  0  0  0  0  0  0  0
    4.7933    3.4279    7.1365 C   0  0  0  0  0  0  0  0  0  0  0  0
    5.9072    4.4458    7.0108 C   0  0  3  0  0  0  0  0  0  0  0  0
    5.4054    5.6595    6.2403 C   0  0  0  0  0  0  0  0  0  0  0  0
    5.1593    5.2510    4.7963 C   0  0  0  0  0  0  0  0  0  0  0  0
    6.3203    4.8651    8.4132 C   0  0  0  0  0  0  0  0  0  0  0  0
    3.6524    5.1303    1.7277 C   0  0  0  0  0  0  0  0  0  0  0  0
    4.6170    5.1187    0.7261 C   0  0  0  0  0  0  0  0  0  0  0  0
    5.0957    6.3227    0.2194 C   0  0  0  0  0  0  0  0  0  0  0  0
    4.6030    7.5232    0.7204 C   0  0  0  0  0  0  0  0  0  0  0  0
    5.0603    8.6965    0.2339 O   0  0  0  0  0  0  0  0  0  0  0  0
    4.5619    9.9217    0.7503 C   0  0  0  0  0  0  0  0  0  0  0  0
    3.6382    7.5342    1.7224 C   0  0  0  0  0  0  0  0  0  0  0  0
    3.1598    6.3306    2.2295 C   0  0  0  0  0  0  0  0  0  0  0  0
    1.0000    1.0000    1.0000 C   0  0  0  0  0  0  0  0  0  0  0  0
    1.6418   -0.6924    1.0056 S   0  0  0  0  0  0  0  0  0  0  0  0
    0.1322   -1.5557    1.0712 C   0  0  0  0  0  0  0  0  0  0  0  0
    0.0723   -2.8782    1.5012 C   0  0  0  0  0  0  0  0  0  0  0  0
   -1.1498   -3.5414    1.5425 C   0  0  0  0  0  0  0  0  0  0  0  0
   -2.3124   -2.8832    1.1533 C   0  0  0  0  0  0  0  0  0  0  0  0
   -2.2529   -1.5615    0.7238 C   0  0  0  0  0  0  0  0  0  0  0  0
   -1.0305   -0.8975    0.6823 C   0  0  0  0  0  0  0  0  0  0  0  0
    1.2640   -3.5943    1.9134 C   0  0  0  0  0  0  0  0  0  0  0  0
    1.9223   -3.1883    2.8439 O   0  5  0  0  0  0  0  0  0  0  0  0
    1.6113   -4.6310    1.3073 O   0  0  0  0  0  0  0  0  0  0  0  0
    2.1494    3.4068    0.4880 H   0  0  0  0  0  0  0  0  0  0  0  0
    5.1527    2.5560    7.4691 H   0  0  0  0  0  0  0  0  0  0  0  0
    4.0873    3.7582    7.7630 H   0  0  0  0  0  0  0  0  0  0  0  0
    6.6867    4.0392    6.5342 H   0  0  0  0  0  0  0  0  0  0  0  0
    6.0918    6.3860    6.2724 H   0  0  0  0  0  0  0  0  0  0  0  0
    4.5531    5.9879    6.6473 H   0  0  0  0  0  0  0  0  0  0  0  0
    4.7257    6.0203    4.3271 H   0  0  0  0  0  0  0  0  0  0  0  0
    6.0453    5.0596    4.3740 H   0  0  0  0  0  0  0  0  0  0  0  0
    7.0570    5.5390    8.3562 H   0  0  0  0  0  0  0  0  0  0  0  0
    5.5361    5.2676    8.8853 H   0  0  0  0  0  0  0  0  0  0  0  0
    6.6396    4.0644    8.9201 H   0  0  0  0  0  0  0  0  0  0  0  0
    4.9645    4.2503    0.3723 H   0  0  0  0  0  0  0  0  0  0  0  0
    5.7898    6.3251   -0.5005 H   0  0  0  0  0  0  0  0  0  0  0  0
    5.0047   10.6859    0.2813 H   0  0  0  0  0  0  0  0  0  0  0  0
    3.5738    9.9680    0.6036 H   0  0  0  0  0  0  0  0  0  0  0  0
    4.7562    9.9742    1.7299 H   0  0  0  0  0  0  0  0  0  0  0  0
    3.2906    8.4026    2.0762 H   0  0  0  0  0  0  0  0  0  0  0  0
    2.4663    6.3281    2.9500 H   0  0  0  0  0  0  0  0  0  0  0  0
    0.0650    1.0031    1.3546 H   0  0  0  0  0  0  0  0  0  0  0  0
    1.0031    1.3546    0.0650 H   0  0  0  0  0  0  0  0  0  0  0  0
   -1.1928   -4.4913    1.8519 H   0  0  0  0  0  0  0  0  0  0  0  0
   -3.1907   -3.3604    1.1825 H   0  0  0  0  0  0  0  0  0  0  0  0
   -3.0885   -1.0883    0.4449 H   0  0  0  0  0  0  0  0  0  0  0  0
   -0.9877    0.0525    0.3729 H   0  0  0  0  0  0  0  0  0  0  0  0
  1  2  1  0  0  0  0
  2  3  1  0  0  0  0
  3  4  2  0  0  0  0
  4  5  1  0  0  0  0
  5  6  2  0  0  0  0
  6  7  1  0  0  0  0
  7  2  2  0  0  0  0
  7  8  1  0  0  0  0
  8  9  2  0  0  0  0
  9  1  1  0  0  0  0
  9 10  1  0  0  0  0
 10 11  1  0  0  0  0
 11 12  1  0  0  0  0
 12 13  1  0  0  0  0
 13  8  1  0  0  0  0
 11 14  1  0  0  0  0
  6 15  1  0  0  0  0
 15 16  1  0  0  0  0
 16 17  2  0  0  0  0
 17 18  1  0  0  0  0
 18 19  1  0  0  0  0
 19 20  1  0  0  0  0
 18 21  2  0  0  0  0
 21 22  1  0  0  0  0
 22 15  2  0  0  0  0
  4 23  1  0  0  0  0
 23 24  1  0  0  0  0
 24 25  1  0  0  0  0
 25 26  1  0  0  0  0
 26 27  2  0  0  0  0
 27 28  1  0  0  0  0
 28 29  2  0  0  0  0
 29 30  1  0  0  0  0
 30 25  2  0  0  0  0
 26 31  1  0  0  0  0
 31 32  1  0  0  0  0
 31 33  2  0  0  0  0
  5 34  1  0  0  0  0
 10 35  1  0  0  0  0
 10 36  1  0  0  0  0
 11 37  1  0  0  0  0
 12 38  1  0  0  0  0
 12 39  1  0  0  0  0
 13 40  1  0  0  0  0
 13 41  1  0  0  0  0
 14 42  1  0  0  0  0
 14 43  1  0  0  0  0
 14 44  1  0  0  0  0
 16 45  1  0  0  0  0
 17 46  1  0  0  0  0
 20 47  1  0  0  0  0
 20 48  1  0  0  0  0
 20 49  1  0  0  0  0
 21 50  1  0  0  0  0
 22 51  1  0  0  0  0
 23 52  1  0  0  0  0
 23 53  1  0  0  0  0
 27 54  1  0  0  0  0
 28 55  1  0  0  0  0
 29 56  1  0  0  0  0
 30 57  1  0  0  0  0
M  CHG  1  32  -1
M  END
>  <result-rank>
57

>  <similarity>
0.847

>  <query-name>


>  <query-smiles>
Clc1ccc(cc1)CS(=O)(=O)c2cc3N=C(c4c(N(c3cc2)C)cc5c(c4)C(CCC5(C)C)(C)C)c6ccc(cc6)C([O-])=O

>  <source>
REALspace_2019-12

>  <similarity-descriptor>
0.0;0.886;0.937;0.830;0.947;0.855;0.576;0.576;0.0;0.947;0.947;0.0;1.000;1.000;0.0

>  <similarity-descriptor-smiles>
;CSc1ccccc1;c1ccccc1;S1C=Ccc1;C=1CCCCC1;c1ccccn1;OC;OC;;C=1CCCCC1;C=1CCCCC1;;C;C([O-])=O;

>  <reaction-name>
s_42a

>  <reagent1-name>
8631722

>  <reagent1-smiles>
[R1*]=NC=1SC2=C(C1C(=[R2*])c3ccc(OC)cc3)CCC2

>  <reagent2-name>
125326

>  <reagent2-smiles>
[R1*]=C(C=[R2*])CSc1c(cccc1)C(=O)O

$$$$
s_272212____15097580____9425368
          04022017333D 1   1.00000     0.00000     0
            
 59 62  0  0  0  0            999 V2000
    4.3232    5.6049    3.8903 F   0  0  0  0  0  0  0  0  0  0  0  0
    4.3577    4.3544    4.3420 C   0  0  0  0  0  0  0  0  0  0  0  0
    3.9083    4.3225    5.5933 F   0  0  0  0  0  0  0  0  0  0  0  0
    5.6092    3.9054    4.3088 F   0  0  0  0  0  0  0  0  0  0  0  0
    3.4804    3.4749    3.4660 C   0  0  0  0  0  0  0  0  0  0  0  0
    4.0287    2.8439    2.3540 C   0  0  0  0  0  0  0  0  0  0  0  0
    3.2214    2.0410    1.5554 C   0  0  0  0  0  0  0  0  0  0  0  0
    1.8778    1.8778    1.8778 C   0  0  0  0  0  0  0  0  0  0  0  0
    1.3307    2.5074    2.9916 C   0  0  0  0  0  0  0  0  0  0  0  0
    2.1378    3.3115    3.7896 C   0  0  0  0  0  0  0  0  0  0  0  0
    1.0000    1.0000    1.0000 C   0  0  0  0  0  0  0  0  0  0  0  0
    1.0378   -0.3820    1.4962 N   0  0  0  0  0  0  0  0  0  0  0  0
    0.0622   -0.9860    2.2866 C   0  0  0  0  0  0  0  0  0  0  0  0
   -0.9655   -0.4467    2.6721 O   0  0  0  0  0  0  0  0  0  0  0  0
    0.4382   -2.2967    2.5739 N   0  0  0  0  0  0  0  0  0  0  0  0
   -0.3080   -3.1896    3.3469 C   0  0  0  0  0  0  0  0  0  0  0  0
   -0.1041   -3.2478    4.7188 C   0  0  0  0  0  0  0  0  0  0  0  0
   -0.8331   -4.1288    5.5086 C   0  0  0  0  0  0  0  0  0  0  0  0
   -1.7756   -4.9521    4.8895 C   0  0  0  0  0  0  0  0  0  0  0  0
   -1.9702   -4.8863    3.5166 C   0  0  0  0  0  0  0  0  0  0  0  0
   -1.2419   -4.0079    2.7242 C   0  0  0  0  0  0  0  0  0  0  0  0
   -2.6316   -5.9373    5.6766 C   0  0  0  0  0  0  0  0  0  0  0  0
   -2.0580   -6.2150    7.0600 C   0  0  0  0  0  0  0  0  0  0  0  0
   -1.6644   -4.9222    7.7610 C   0  0  0  0  0  0  0  0  0  0  0  0
   -0.5693   -4.1738    7.0134 C   0  0  0  0  0  0  0  0  0  0  0  0
   -0.3134   -2.7959    7.6071 C   0  0  0  0  0  0  0  0  0  0  0  0
    0.7025   -4.9736    7.2358 C   0  0  0  0  0  0  0  0  0  0  0  0
   -2.8790   -7.2445    4.9383 C   0  0  0  0  0  0  0  0  0  0  0  0
   -3.9920   -5.2903    5.9185 C   0  0  0  0  0  0  0  0  0  0  0  0
    1.6681   -2.5925    1.9859 C   0  0  0  0  0  0  0  0  0  0  0  0
    2.2776   -3.6470    2.0608 O   0  0  0  0  0  0  0  0  0  0  0  0
    2.0970   -1.3545    1.2191 C   0  0  0  0  0  0  0  0  0  0  0  0
    4.9957    2.9667    2.1307 H   0  0  0  0  0  0  0  0  0  0  0  0
    3.6048    1.5833    0.7533 H   0  0  0  0  0  0  0  0  0  0  0  0
    0.3644    2.3826    3.2167 H   0  0  0  0  0  0  0  0  0  0  0  0
    1.7547    3.7697    4.5916 H   0  0  0  0  0  0  0  0  0  0  0  0
    0.0591    1.3378    1.0257 H   0  0  0  0  0  0  0  0  0  0  0  0
    1.3378    1.0257    0.0591 H   0  0  0  0  0  0  0  0  0  0  0  0
    0.5749   -2.6490    5.1435 H   0  0  0  0  0  0  0  0  0  0  0  0
   -2.6488   -5.4837    3.0892 H   0  0  0  0  0  0  0  0  0  0  0  0
   -1.3856   -3.9659    1.7354 H   0  0  0  0  0  0  0  0  0  0  0  0
   -1.2490   -6.7954    6.9674 H   0  0  0  0  0  0  0  0  0  0  0  0
   -2.7464   -6.6879    7.6099 H   0  0  0  0  0  0  0  0  0  0  0  0
   -2.4699   -4.3333    7.8267 H   0  0  0  0  0  0  0  0  0  0  0  0
   -1.3356   -5.1411    8.6797 H   0  0  0  0  0  0  0  0  0  0  0  0
   -0.1473   -2.8818    8.5894 H   0  0  0  0  0  0  0  0  0  0  0  0
    0.4869   -2.3872    7.1682 H   0  0  0  0  0  0  0  0  0  0  0  0
   -1.1115   -2.2133    7.4536 H   0  0  0  0  0  0  0  0  0  0  0  0
    0.9003   -5.0197    8.2149 H   0  0  0  0  0  0  0  0  0  0  0  0
    0.5816   -5.8989    6.8762 H   0  0  0  0  0  0  0  0  0  0  0  0
    1.4630   -4.5289    6.7626 H   0  0  0  0  0  0  0  0  0  0  0  0
   -3.4438   -7.8453    5.5041 H   0  0  0  0  0  0  0  0  0  0  0  0
   -3.3514   -7.0567    4.0771 H   0  0  0  0  0  0  0  0  0  0  0  0
   -2.0045   -7.6908    4.7483 H   0  0  0  0  0  0  0  0  0  0  0  0
   -4.5732   -5.9193    6.4347 H   0  0  0  0  0  0  0  0  0  0  0  0
   -3.8712   -4.4449    6.4388 H   0  0  0  0  0  0  0  0  0  0  0  0
   -4.4231   -5.0826    5.0405 H   0  0  0  0  0  0  0  0  0  0  0  0
    2.9806   -1.0210    1.5478 H   0  0  0  0  0  0  0  0  0  0  0  0
    2.1565   -1.5459    0.2394 H   0  0  0  0  0  0  0  0  0  0  0  0
  1  2  1  0  0  0  0
  2  3  1  0  0  0  0
  2  4  1  0  0  0  0
  2  5  1  0  0  0  0
  5  6  1  0  0  0  0
  6  7  2  0  0  0  0
  7  8  1  0  0  0  0
  8  9  2  0  0  0  0
  9 10  1  0  0  0  0
 10  5  2  0  0  0  0
  8 11  1  0  0  0  0
 11 12  1  0  0  0  0
 12 13  1  0  0  0  0
 13 14  2  0  0  0  0
 13 15  1  0  0  0  0
 15 16  1  0  0  0  0
 16 17  1  0  0  0  0
 17 18  2  0  0  0  0
 18 19  1  0  0  0  0
 19 20  2  0  0  0  0
 20 21  1  0  0  0  0
 21 16  2  0  0  0  0
 19 22  1  0  0  0  0
 22 23  1  0  0  0  0
 23 24  1  0  0  0  0
 24 25  1  0  0  0  0
 25 18  1  0  0  0  0
 25 26  1  0  0  0  0
 25 27  1  0  0  0  0
 22 28  1  0  0  0  0
 22 29  1  0  0  0  0
 15 30  1  0  0  0  0
 30 31  2  0  0  0  0
 30 32  1  0  0  0  0
 32 12  1  0  0  0  0
  6 33  1  0  0  0  0
  7 34  1  0  0  0  0
  9 35  1  0  0  0  0
 10 36  1  0  0  0  0
 11 37  1  0  0  0  0
 11 38  1  0  0  0  0
 17 39  1  0  0  0  0
 20 40  1  0  0  0  0
 21 41  1  0  0  0  0
 23 42  1  0  0  0  0
 23 43  1  0  0  0  0
 24 44  1  0  0  0  0
 24 45  1  0  0  0  0
 26 46  1  0  0  0  0
 26 47  1  0  0  0  0
 26 48  1  0  0  0  0
 27 49  1  0  0  0  0
 27 50  1  0  0  0  0
 27 51  1  0  0  0  0
 28 52  1  0  0  0  0
 28 53  1  0  0  0  0
 28 54  1  0  0  0  0
 29 55  1  0  0  0  0
 29 56  1  0  0  0  0
 29 57  1  0  0  0  0
 32 58  1  0  0  0  0
 32 59  1  0  0  0  0
M  END
>  <result-rank>
58

>  <similarity>
0.847

>  <query-name>


>  <query-smiles>
Clc1ccc(cc1)CS(=O)(=O)c2cc3N=C(c4c(N(c3cc2)C)cc5c(c4)C(CCC5(C)C)(C)C)c6ccc(cc6)C([O-])=O

>  <source>
REALspace_2019-12

>  <similarity-descriptor>
0.975;0.0;0.818;0.687;1.000;0.687;0.996;0.818;0.0;1.000;1.000;1.000;1.000;0.0;0.0

>  <similarity-descriptor-smiles>
FC(F)(F)c1ccccc1;;N1CC(NC1=O)=O;c1ccccc1;c1CCCCc1;c1ccccc1;C;N1CC(NC1=O)=O;;C;C;C;C;;

>  <reaction-name>
s_272212

>  <reagent1-name>
15097580

>  <reagent1-smiles>
[R2*]N(c1cc2c(cc1)C(CCC2(C)C)(C)C)C([R1*])=O

>  <reagent2-name>
9425368

>  <reagent2-smiles>
[R1*]N(Cc1ccc(cc1)C(F)(F)F)CC([R2*])=O

$$$$
s_2____11687950____2536572____9284808
          04022017333D 1   1.00000     0.00000     0
            
 79 85  0  0  0  0            999 V2000
    8.8448    6.5340    0.5944 S   0  0  0  0  0  0  0  0  0  0  0  0
    8.2788    7.7738    1.0595 O   0  0  0  0  0  0  0  0  0  0  0  0
   10.1800    6.3910    1.1143 O   0  0  0  0  0  0  0  0  0  0  0  0
    8.8934    6.5363   -1.0349 N   0  0  0  0  0  0  0  0  0  0  0  0
    7.8635    5.2066    1.1434 C   0  0  0  0  0  0  0  0  0  0  0  0
    8.4222    4.2290    1.9599 C   0  0  0  0  0  0  0  0  0  0  0  0
    7.6328    3.1699    2.3950 C   0  0  0  0  0  0  0  0  0  0  0  0
    6.2978    3.0995    2.0115 C   0  0  0  0  0  0  0  0  0  0  0  0
    5.5094    2.0301    2.4537 N   0  0  0  0  0  0  0  0  0  0  0  0
    4.2406    2.1295    2.4468 C   0  0  0  0  0  0  0  0  0  0  0  0
    3.3299    3.5681    2.4036 S   0  0  0  0  0  0  0  0  0  0  0  0
    1.7813    2.8529    2.4247 C   0  0  0  0  0  0  0  0  0  0  0  0
    2.0334    1.5154    2.4653 C   0  0  0  0  0  0  0  0  0  0  0  0
    3.3388    1.1121    2.4746 N   0  0  0  0  0  0  0  0  0  0  0  0
    3.7804   -0.2891    2.5193 C   0  0  0  0  0  0  0  0  0  0  0  0
    4.0572   -0.7784    1.1070 C   0  0  0  0  0  0  0  0  0  0  0  0
    5.3320   -0.6331    0.5699 C   0  0  0  0  0  0  0  0  0  0  0  0
    5.5901   -1.0800   -0.7217 C   0  0  0  0  0  0  0  0  0  0  0  0
    4.5682   -1.6680   -1.4605 C   0  0  0  0  0  0  0  0  0  0  0  0
    4.8143   -2.1028   -2.7145 O   0  0  0  0  0  0  0  0  0  0  0  0
    6.1112   -1.9593   -3.2740 C   0  0  0  0  0  0  0  0  0  0  0  0
    6.6748   -3.3239   -3.6356 C   0  0  0  0  0  0  0  0  0  0  0  0
    8.0640   -3.1725   -4.2341 C   0  0  0  0  0  0  0  0  0  0  0  0
    8.0062   -2.2892   -5.4700 C   0  0  0  0  0  0  0  0  0  0  0  0
    7.4440   -0.9238   -5.1085 C   0  0  0  0  0  0  0  0  0  0  0  0
    6.0550   -1.0756   -4.5095 C   0  0  0  0  0  0  0  0  0  0  0  0
    3.2915   -1.8154   -0.9282 C   0  0  0  0  0  0  0  0  0  0  0  0
    3.0391   -1.3671    0.3639 C   0  0  0  0  0  0  0  0  0  0  0  0
    0.9019    0.6087    2.4961 C   0  0  0  0  0  0  0  0  0  0  0  0
   -0.2204    0.8695    1.7160 C   0  0  0  0  0  0  0  0  0  0  0  0
   -0.2882    1.9984    0.8907 N   0  0  0  0  0  0  0  0  0  0  0  0
    0.2973    2.1223   -0.3659 C   0  0  0  0  0  0  0  0  0  0  0  0
    0.9553    1.2611   -0.9256 O   0  0  0  0  0  0  0  0  0  0  0  0
   -0.0047    3.4349   -0.8844 C   0  0  0  0  0  0  0  0  0  0  0  0
   -0.7532    4.0714    0.0706 C   0  0  0  0  0  0  0  0  0  0  0  0
   -1.1481    5.3734   -0.2200 C   0  0  0  0  0  0  0  0  0  0  0  0
   -0.7964    5.9841   -1.4183 C   0  0  0  0  0  0  0  0  0  0  0  0
   -0.0342    5.3052   -2.3635 C   0  0  0  0  0  0  0  0  0  0  0  0
    0.3761    4.0037   -2.0937 C   0  0  0  0  0  0  0  0  0  0  0  0
   -0.9558    3.1821    1.1897 C   0  0  0  0  0  0  0  0  0  0  0  0
   -1.5916    3.4339    2.2008 O   0  0  0  0  0  0  0  0  0  0  0  0
   -1.3051    0.0000    1.7455 C   0  0  0  0  0  0  0  0  0  0  0  0
   -1.2684   -1.1310    2.5550 C   0  0  0  0  0  0  0  0  0  0  0  0
   -0.1465   -1.3919    3.3350 C   0  0  0  0  0  0  0  0  0  0  0  0
    0.9383   -0.5217    3.3062 C   0  0  0  0  0  0  0  0  0  0  0  0
    5.7455    4.0799    1.1948 C   0  0  0  0  0  0  0  0  0  0  0  0
    6.5293    5.1415    0.7559 C   0  0  0  0  0  0  0  0  0  0  0  0
    9.2864    5.6754   -1.3578 H   0  0  0  0  0  0  0  0  0  0  0  0
    7.9662    6.6356   -1.3959 H   0  0  0  0  0  0  0  0  0  0  0  0
    9.3828    4.2871    2.2317 H   0  0  0  0  0  0  0  0  0  0  0  0
    8.0240    2.4610    2.9820 H   0  0  0  0  0  0  0  0  0  0  0  0
    0.8925    3.3109    2.4105 H   0  0  0  0  0  0  0  0  0  0  0  0
    3.0640   -0.8513    2.9324 H   0  0  0  0  0  0  0  0  0  0  0  0
    4.6151   -0.3583    3.0656 H   0  0  0  0  0  0  0  0  0  0  0  0
    6.0594   -0.2094    1.1097 H   0  0  0  0  0  0  0  0  0  0  0  0
    6.5034   -0.9795   -1.1164 H   0  0  0  0  0  0  0  0  0  0  0  0
    6.7099   -1.5311   -2.5970 H   0  0  0  0  0  0  0  0  0  0  0  0
    6.0734   -3.7642   -4.3024 H   0  0  0  0  0  0  0  0  0  0  0  0
    6.7290   -3.8884   -2.8120 H   0  0  0  0  0  0  0  0  0  0  0  0
    8.4150   -4.0738   -4.4877 H   0  0  0  0  0  0  0  0  0  0  0  0
    8.6719   -2.7562   -3.5580 H   0  0  0  0  0  0  0  0  0  0  0  0
    7.4186   -2.7180   -6.1562 H   0  0  0  0  0  0  0  0  0  0  0  0
    8.9280   -2.1797   -5.8419 H   0  0  0  0  0  0  0  0  0  0  0  0
    8.0457   -0.4837   -4.4420 H   0  0  0  0  0  0  0  0  0  0  0  0
    7.3896   -0.3594   -5.9322 H   0  0  0  0  0  0  0  0  0  0  0  0
    5.7043   -0.1742   -4.2556 H   0  0  0  0  0  0  0  0  0  0  0  0
    5.4470   -1.4913   -5.1859 H   0  0  0  0  0  0  0  0  0  0  0  0
    2.5639   -2.2386   -1.4681 H   0  0  0  0  0  0  0  0  0  0  0  0
    2.1259   -1.4679    0.7588 H   0  0  0  0  0  0  0  0  0  0  0  0
   -1.6956    5.8799    0.4462 H   0  0  0  0  0  0  0  0  0  0  0  0
   -1.0942    6.9208   -1.6027 H   0  0  0  0  0  0  0  0  0  0  0  0
    0.2154    5.7469   -3.2253 H   0  0  0  0  0  0  0  0  0  0  0  0
    0.9292    3.4920   -2.7511 H   0  0  0  0  0  0  0  0  0  0  0  0
   -2.1116    0.1875    1.1848 H   0  0  0  0  0  0  0  0  0  0  0  0
   -2.0485   -1.7563    2.5761 H   0  0  0  0  0  0  0  0  0  0  0  0
   -0.1200   -2.2050    3.9165 H   0  0  0  0  0  0  0  0  0  0  0  0
    1.7443   -0.7087    3.8678 H   0  0  0  0  0  0  0  0  0  0  0  0
    4.7849    4.0216    0.9231 H   0  0  0  0  0  0  0  0  0  0  0  0
    6.1381    5.8500    0.1685 H   0  0  0  0  0  0  0  0  0  0  0  0
  1  2  2  0  0  0  0
  1  3  2  0  0  0  0
  1  4  1  0  0  0  0
  1  5  1  0  0  0  0
  5  6  1  0  0  0  0
  6  7  2  0  0  0  0
  7  8  1  0  0  0  0
  8  9  1  0  0  0  0
  9 10  2  0  0  0  0
 10 11  1  0  0  0  0
 11 12  1  0  0  0  0
 12 13  2  0  0  0  0
 13 14  1  0  0  0  0
 14 10  1  0  0  0  0
 14 15  1  0  0  0  0
 15 16  1  0  0  0  0
 16 17  1  0  0  0  0
 17 18  2  0  0  0  0
 18 19  1  0  0  0  0
 19 20  1  0  0  0  0
 20 21  1  0  0  0  0
 21 22  1  0  0  0  0
 22 23  1  0  0  0  0
 23 24  1  0  0  0  0
 24 25  1  0  0  0  0
 25 26  1  0  0  0  0
 26 21  1  0  0  0  0
 19 27  2  0  0  0  0
 27 28  1  0  0  0  0
 28 16  2  0  0  0  0
 13 29  1  0  0  0  0
 29 30  1  0  0  0  0
 30 31  1  0  0  0  0
 31 32  1  0  0  0  0
 32 33  2  0  0  0  0
 32 34  1  0  0  0  0
 34 35  1  0  0  0  0
 35 36  2  0  0  0  0
 36 37  1  0  0  0  0
 37 38  2  0  0  0  0
 38 39  1  0  0  0  0
 39 34  2  0  0  0  0
 35 40  1  0  0  0  0
 40 31  1  0  0  0  0
 40 41  2  0  0  0  0
 30 42  2  0  0  0  0
 42 43  1  0  0  0  0
 43 44  2  0  0  0  0
 44 45  1  0  0  0  0
 45 29  2  0  0  0  0
  8 46  2  0  0  0  0
 46 47  1  0  0  0  0
 47  5  2  0  0  0  0
  4 48  1  0  0  0  0
  4 49  1  0  0  0  0
  6 50  1  0  0  0  0
  7 51  1  0  0  0  0
 12 52  1  0  0  0  0
 15 53  1  0  0  0  0
 15 54  1  0  0  0  0
 17 55  1  0  0  0  0
 18 56  1  0  0  0  0
 21 57  1  0  0  0  0
 22 58  1  0  0  0  0
 22 59  1  0  0  0  0
 23 60  1  0  0  0  0
 23 61  1  0  0  0  0
 24 62  1  0  0  0  0
 24 63  1  0  0  0  0
 25 64  1  0  0  0  0
 25 65  1  0  0  0  0
 26 66  1  0  0  0  0
 26 67  1  0  0  0  0
 27 68  1  0  0  0  0
 28 69  1  0  0  0  0
 36 70  1  0  0  0  0
 37 71  1  0  0  0  0
 38 72  1  0  0  0  0
 39 73  1  0  0  0  0
 42 74  1  0  0  0  0
 43 75  1  0  0  0  0
 44 76  1  0  0  0  0
 45 77  1  0  0  0  0
 46 78  1  0  0  0  0
 47 79  1  0  0  0  0
M  END
>  <result-rank>
59

>  <similarity>
0.847

>  <query-name>


>  <query-smiles>
Clc1ccc(cc1)CS(=O)(=O)c2cc3N=C(c4c(N(c3cc2)C)cc5c(c4)C(CCC5(C)C)(C)C)c6ccc(cc6)C([O-])=O

>  <source>
REALspace_2019-12

>  <similarity-descriptor>
0.951;0.998;0.938;0.722;0.840;0.768;0.705;0.705;0.0;0.840;0.840;0.840;0.840;0.909;0.083

>  <similarity-descriptor-smiles>
c1ccccc1;c1ccccc1;c1ccccc1;Cc1ccc(cc1)O;C1CCCCC1;N=C1NC=CS1;N1C(ccC1=O)=O;N1C(ccC1=O)=O;;C1CCCCC1;C1CCCCC1;C1CCCCC1;C1CCCCC1;S(=O)=O;N

>  <reaction-name>
s_2

>  <reagent1-name>
11687950

>  <reagent1-smiles>
[R1*]SC([R3*])=Nc1ccc(S(=O)(=O)N)cc1

>  <reagent2-name>
2536572

>  <reagent2-smiles>
[R2*]N([R3*])Cc1ccc(OC2CCCCC2)cc1

>  <reagent3-name>
9284808

>  <reagent3-smiles>
[R2*]C(c1c(N2C(=O)c3c(cccc3)C2=O)cccc1)=C[R1*]

$$$$
m_273170____10756418____14470030____10755794
          04022017333D 1   1.00000     0.00000     0
            
 72 78  0  0  0  0            999 V2000
    7.9359   -0.2930    1.6241 O   0  5  0  0  0  0  0  0  0  0  0  0
    6.9041   -0.8476    1.9652 N   0  3  0  0  0  0  0  0  0  0  0  0
    6.8648   -1.4660    3.0045 O   0  0  0  0  0  0  0  0  0  0  0  0
    5.7653   -0.7684    1.1540 C   0  0  0  0  0  0  0  0  0  0  0  0
    4.5148   -1.0390    1.6995 C   0  0  0  0  0  0  0  0  0  0  0  0
    3.3907   -0.9566    0.8842 C   0  0  0  0  0  0  0  0  0  0  0  0
    3.5055   -0.6106   -0.4578 C   0  0  0  0  0  0  0  0  0  0  0  0
    4.7660   -0.3441   -0.9821 C   0  0  0  0  0  0  0  0  0  0  0  0
    5.9035   -0.4199   -0.1853 C   0  0  0  0  0  0  0  0  0  0  0  0
    2.0847   -1.2361    1.4486 C   0  0  0  0  0  0  0  0  0  0  0  0
    1.7073   -2.3668    2.0015 N   0  0  0  0  0  0  0  0  0  0  0  0
    0.4593   -2.2294    2.3904 N   0  0  0  0  0  0  0  0  0  0  0  0
    0.0025   -1.0344    2.1079 C   0  0  0  0  0  0  0  0  0  0  0  0
    1.0288   -0.3814    1.5036 N   0  0  0  0  0  0  0  0  0  0  0  0
    1.0000    1.0000    1.0000 C   0  0  0  0  0  0  0  0  0  0  0  0
    1.8777    1.8777    1.8777 C   0  0  0  0  0  0  0  0  0  0  0  0
    1.7290    1.8483    3.2600 C   0  0  0  0  0  0  0  0  0  0  0  0
    2.5437    2.6610    4.0418 C   0  0  0  0  0  0  0  0  0  0  0  0
    2.3918    2.6254    5.3828 O   0  0  0  0  0  0  0  0  0  0  0  0
    3.4401    3.0757    6.2283 C   0  0  0  0  0  0  0  0  0  0  0  0
    3.0171    2.9303    7.6813 C   0  0  0  0  0  0  0  0  0  0  0  0
    3.2867    1.7479    8.3625 C   0  0  0  0  0  0  0  0  0  0  0  0
    2.8971    1.6188    9.6917 C   0  0  0  0  0  0  0  0  0  0  0  0
    2.2444    2.6680   10.3303 C   0  0  0  0  0  0  0  0  0  0  0  0
    1.9808    3.8447    9.6400 C   0  0  0  0  0  0  0  0  0  0  0  0
    2.3646    3.9859    8.3105 C   0  0  0  0  0  0  0  0  0  0  0  0
    3.4578    3.4597    3.4711 N   0  0  0  0  0  0  0  0  0  0  0  0
    3.6158    3.5017    2.1401 C   0  0  0  0  0  0  0  0  0  0  0  0
    2.8313    2.7131    1.3055 C   0  0  0  0  0  0  0  0  0  0  0  0
   -1.2777   -0.5347    2.3777 N   0  0  0  0  0  0  0  0  0  0  0  0
   -2.3337   -0.6498    1.3579 C   0  0  0  0  0  0  0  0  0  0  0  0
   -3.2589    0.5583    1.3338 C   0  0  0  0  0  0  0  0  0  0  0  0
   -3.3121    1.4426    2.4122 C   0  0  0  0  0  0  0  0  0  0  0  0
   -4.1754    2.5312    2.4086 C   0  0  0  0  0  0  0  0  0  0  0  0
   -4.9720    2.7405    1.2897 C   0  0  0  0  0  0  0  0  0  0  0  0
   -4.9209    1.8682    0.2083 C   0  0  0  0  0  0  0  0  0  0  0  0
   -4.0682    0.7693    0.2182 C   0  0  0  0  0  0  0  0  0  0  0  0
   -4.2509    3.4753    3.6024 C   0  0  0  0  0  0  0  0  0  0  0  0
   -4.2459    2.6647    4.8925 C   0  0  0  0  0  0  0  0  0  0  0  0
   -3.4893    1.3439    4.7982 C   0  0  0  0  0  0  0  0  0  0  0  0
   -2.4711    1.3019    3.6715 C   0  0  3  0  0  0  0  0  0  0  0  0
   -1.5181    0.1063    3.6866 C   0  0  0  0  0  0  0  0  0  0  0  0
    4.4252   -1.2891    2.6636 H   0  0  0  0  0  0  0  0  0  0  0  0
    2.6930   -0.5541   -1.0380 H   0  0  0  0  0  0  0  0  0  0  0  0
    4.8557   -0.0943   -1.9462 H   0  0  0  0  0  0  0  0  0  0  0  0
    6.8064   -0.2270   -0.5694 H   0  0  0  0  0  0  0  0  0  0  0  0
    0.0607    1.3424    1.0196 H   0  0  0  0  0  0  0  0  0  0  0  0
    1.3424    1.0196    0.0607 H   0  0  0  0  0  0  0  0  0  0  0  0
    1.0476    1.2526    3.6853 H   0  0  0  0  0  0  0  0  0  0  0  0
    3.6366    4.0365    6.0328 H   0  0  0  0  0  0  0  0  0  0  0  0
    4.2600    2.5275    6.0634 H   0  0  0  0  0  0  0  0  0  0  0  0
    3.7570    0.9962    7.9001 H   0  0  0  0  0  0  0  0  0  0  0  0
    3.0864    0.7716   10.1881 H   0  0  0  0  0  0  0  0  0  0  0  0
    1.9649    2.5754   11.2859 H   0  0  0  0  0  0  0  0  0  0  0  0
    1.5112    4.5964   10.1030 H   0  0  0  0  0  0  0  0  0  0  0  0
    2.1746    4.8332    7.8145 H   0  0  0  0  0  0  0  0  0  0  0  0
    4.3057    4.1071    1.7432 H   0  0  0  0  0  0  0  0  0  0  0  0
    2.9505    2.7460    0.3132 H   0  0  0  0  0  0  0  0  0  0  0  0
   -2.8779   -1.4661    1.5513 H   0  0  0  0  0  0  0  0  0  0  0  0
   -1.9030   -0.7413    0.4601 H   0  0  0  0  0  0  0  0  0  0  0  0
   -5.5888    3.5271    1.2619 H   0  0  0  0  0  0  0  0  0  0  0  0
   -5.5046    2.0330   -0.5867 H   0  0  0  0  0  0  0  0  0  0  0  0
   -4.0362    0.1424   -0.5602 H   0  0  0  0  0  0  0  0  0  0  0  0
   -5.0926    4.0126    3.5497 H   0  0  0  0  0  0  0  0  0  0  0  0
   -3.4620    4.0898    3.5919 H   0  0  0  0  0  0  0  0  0  0  0  0
   -5.1938    2.4660    5.1416 H   0  0  0  0  0  0  0  0  0  0  0  0
   -3.8219    3.2184    5.6092 H   0  0  0  0  0  0  0  0  0  0  0  0
   -3.0100    1.1923    5.6626 H   0  0  0  0  0  0  0  0  0  0  0  0
   -4.1526    0.6100    4.6517 H   0  0  0  0  0  0  0  0  0  0  0  0
   -1.9116    2.1272    3.7474 H   0  0  0  0  0  0  0  0  0  0  0  0
   -0.6374    0.4193    4.0423 H   0  0  0  0  0  0  0  0  0  0  0  0
   -1.8998   -0.5837    4.3017 H   0  0  0  0  0  0  0  0  0  0  0  0
  1  2  1  0  0  0  0
  2  3  2  0  0  0  0
  2  4  1  0  0  0  0
  4  5  1  0  0  0  0
  5  6  2  0  0  0  0
  6  7  1  0  0  0  0
  7  8  2  0  0  0  0
  8  9  1  0  0  0  0
  9  4  2  0  0  0  0
  6 10  1  0  0  0  0
 10 11  2  0  0  0  0
 11 12  1  0  0  0  0
 12 13  2  0  0  0  0
 13 14  1  0  0  0  0
 14 10  1  0  0  0  0
 14 15  1  0  0  0  0
 15 16  1  0  0  0  0
 16 17  1  0  0  0  0
 17 18  2  0  0  0  0
 18 19  1  0  0  0  0
 19 20  1  0  0  0  0
 20 21  1  0  0  0  0
 21 22  1  0  0  0  0
 22 23  2  0  0  0  0
 23 24  1  0  0  0  0
 24 25  2  0  0  0  0
 25 26  1  0  0  0  0
 26 21  2  0  0  0  0
 18 27  1  0  0  0  0
 27 28  2  0  0  0  0
 28 29  1  0  0  0  0
 29 16  2  0  0  0  0
 13 30  1  0  0  0  0
 30 31  1  0  0  0  0
 31 32  1  0  0  0  0
 32 33  1  0  0  0  0
 33 34  2  0  0  0  0
 34 35  1  0  0  0  0
 35 36  2  0  0  0  0
 36 37  1  0  0  0  0
 37 32  2  0  0  0  0
 34 38  1  0  0  0  0
 38 39  1  0  0  0  0
 39 40  1  0  0  0  0
 40 41  1  0  0  0  0
 41 33  1  0  0  0  0
 41 42  1  0  0  0  0
 42 30  1  0  0  0  0
  5 43  1  0  0  0  0
  7 44  1  0  0  0  0
  8 45  1  0  0  0  0
  9 46  1  0  0  0  0
 15 47  1  0  0  0  0
 15 48  1  0  0  0  0
 17 49  1  0  0  0  0
 20 50  1  0  0  0  0
 20 51  1  0  0  0  0
 22 52  1  0  0  0  0
 23 53  1  0  0  0  0
 24 54  1  0  0  0  0
 25 55  1  0  0  0  0
 26 56  1  0  0  0  0
 28 57  1  0  0  0  0
 29 58  1  0  0  0  0
 31 59  1  0  0  0  0
 31 60  1  0  0  0  0
 35 61  1  0  0  0  0
 36 62  1  0  0  0  0
 37 63  1  0  0  0  0
 38 64  1  0  0  0  0
 38 65  1  0  0  0  0
 39 66  1  0  0  0  0
 39 67  1  0  0  0  0
 40 68  1  0  0  0  0
 40 69  1  0  0  0  0
 41 70  1  0  0  0  0
 42 71  1  0  0  0  0
 42 72  1  0  0  0  0
M  CHG  2   1  -1   2   1
M  END
>  <result-rank>
60

>  <similarity>
0.847

>  <query-name>


>  <query-smiles>
Clc1ccc(cc1)CS(=O)(=O)c2cc3N=C(c4c(N(c3cc2)C)cc5c(c4)C(CCC5(C)C)(C)C)c6ccc(cc6)C([O-])=O

>  <source>
REALspace_2019-12

>  <similarity-descriptor>
0.952;0.998;0.802;0.878;0.878;0.675;0.540;0.540;0.0;0.878;0.878;0.878;0.878;0.910;0.0

>  <similarity-descriptor-smiles>
c1ccccc1;c1ccccc1;Cc1ccncc1;N1CC2CCCc3c2c(C1)ccc3;N1CC2CCCc3c2c(C1)ccc3;C=1NC=NN1;OC;OC;;N1CC2CCCc3c2c(C1)ccc3;N1CC2CCCc3c2c(C1)ccc3;N1CC2CCCc3c2c(C1)ccc3;N1CC2CCCc3c2c(C1)ccc3;[O-][N+]=O;

>  <reaction-name>
m_273170

>  <reagent1-name>
10756418

>  <reagent1-smiles>
[R2*]=C([R1*])N([R3*])Cc1cc(OCc2ccccc2)ncc1

>  <reagent2-name>
14470030

>  <reagent2-smiles>
[R1*]N1Cc2c3c(ccc2)CCCC3C1

>  <reagent3-name>
10755794

>  <reagent3-smiles>
[R2*]=NN=C([R3*])c1cc([N+]([O-])=O)ccc1

$$$$
m_270942____9828420____16769910____14069974
          04022017333D 1   1.00000     0.00000     0
            
 75 81  0  0  0  0            999 V2000
   11.6531    9.7597    3.8055 Br  0  0  0  0  0  0  0  0  0  0  0  0
   11.6740    8.0252    2.8936 C   0  0  0  0  0  0  0  0  0  0  0  0
   10.5407    7.6191    2.2156 C   0  0  0  0  0  0  0  0  0  0  0  0
   10.5355    6.3866    1.5858 C   0  0  0  0  0  0  0  0  0  0  0  0
   11.6581    5.5574    1.6198 C   0  0  0  0  0  0  0  0  0  0  0  0
   12.7915    5.9888    2.3052 C   0  0  0  0  0  0  0  0  0  0  0  0
   12.8090    7.2257    2.9493 C   0  0  0  0  0  0  0  0  0  0  0  0
   11.5520    4.2115    0.9061 C   0  0  0  0  0  0  0  0  0  0  0  0
   10.7980    3.0319    1.4614 C   0  0  0  0  0  0  0  0  0  0  0  0
    9.5975    3.6048    0.7358 C   0  0  0  0  0  0  0  0  0  0  0  0
    8.7669    4.7145    1.2154 N   0  0  0  0  0  0  0  0  0  0  0  0
    7.5815    4.4527    1.8966 C   0  0  0  0  0  0  0  0  0  0  0  0
    7.1941    4.9719    3.0354 N   0  0  0  0  0  0  0  0  0  0  0  0
    6.0214    4.5026    3.3989 N   0  0  0  0  0  0  0  0  0  0  0  0
    5.6237    3.6532    2.4786 C   0  0  0  0  0  0  0  0  0  0  0  0
    6.5890    3.6045    1.5223 N   0  0  0  0  0  0  0  0  0  0  0  0
    6.5648    2.7837    0.3023 C   0  0  0  0  0  0  0  0  0  0  0  0
    6.3868    3.6831   -0.9101 C   0  0  0  0  0  0  0  0  0  0  0  0
    6.3619    2.8346   -2.1713 C   0  0  0  0  0  0  0  0  0  0  0  0
    5.1509    2.3423   -2.6467 C   0  0  0  0  0  0  0  0  0  0  0  0
    5.1326    1.5656   -3.8007 C   0  0  0  0  0  0  0  0  0  0  0  0
    6.3193    1.2876   -4.4708 C   0  0  0  0  0  0  0  0  0  0  0  0
    7.5231    1.7851   -3.9870 C   0  0  0  0  0  0  0  0  0  0  0  0
    7.5547    2.5624   -2.8338 C   0  0  0  0  0  0  0  0  0  0  0  0
    4.3800    2.9062    2.4867 C   0  0  0  0  0  0  0  0  0  0  0  0
    3.1728    3.5972    2.5008 C   0  0  0  0  0  0  0  0  0  0  0  0
    1.9830    2.8768    2.5101 C   0  0  0  0  0  0  0  0  0  0  0  0
    0.7615    3.5615    2.5249 N   0  0  0  0  0  0  0  0  0  0  0  0
   -0.3068    3.3487    1.3124 S   0  0  0  0  0  0  0  0  0  0  0  0
   -0.5079    1.9400    1.0915 O   0  0  0  0  0  0  0  0  0  0  0  0
   -1.5608    3.9631    1.6641 O   0  0  0  0  0  0  0  0  0  0  0  0
    0.3107    4.0810   -0.1399 C   0  0  0  0  0  0  0  0  0  0  0  0
    1.0964    3.3344   -1.0112 C   0  0  0  0  0  0  0  0  0  0  0  0
    1.5914    3.9178   -2.1730 C   0  0  0  0  0  0  0  0  0  0  0  0
    1.2914    5.2479   -2.4470 C   0  0  0  0  0  0  0  0  0  0  0  0
    0.5058    5.9943   -1.5748 C   0  0  0  0  0  0  0  0  0  0  0  0
    0.0102    5.4115   -0.4136 C   0  0  0  0  0  0  0  0  0  0  0  0
    1.8306    5.8903   -3.7144 C   0  0  0  0  0  0  0  0  0  0  0  0
    1.9867    1.4860    2.5051 C   0  0  0  0  0  0  0  0  0  0  0  0
    3.2053    0.8159    2.4905 C   0  0  0  0  0  0  0  0  0  0  0  0
    4.4072    1.5158    2.4809 C   0  0  0  0  0  0  0  0  0  0  0  0
    9.1752    6.1102    0.9857 C   0  0  0  0  0  0  0  0  0  0  0  0
   10.5777    4.1964   -0.2501 C   0  0  0  0  0  0  0  0  0  0  0  0
    9.7337    8.2087    2.1803 H   0  0  0  0  0  0  0  0  0  0  0  0
   13.6024    5.4045    2.3357 H   0  0  0  0  0  0  0  0  0  0  0  0
   13.6236    7.5315    3.4422 H   0  0  0  0  0  0  0  0  0  0  0  0
   12.4560    3.9205    0.5929 H   0  0  0  0  0  0  0  0  0  0  0  0
   11.1058    2.1394    1.1318 H   0  0  0  0  0  0  0  0  0  0  0  0
   10.7199    3.0104    2.4581 H   0  0  0  0  0  0  0  0  0  0  0  0
    9.0436    2.8854    0.3167 H   0  0  0  0  0  0  0  0  0  0  0  0
    5.8045    2.1360    0.3513 H   0  0  0  0  0  0  0  0  0  0  0  0
    7.4258    2.2816    0.2212 H   0  0  0  0  0  0  0  0  0  0  0  0
    5.5259    4.1853   -0.8291 H   0  0  0  0  0  0  0  0  0  0  0  0
    7.1471    4.3308   -0.9591 H   0  0  0  0  0  0  0  0  0  0  0  0
    4.2997    2.5452   -2.1626 H   0  0  0  0  0  0  0  0  0  0  0  0
    4.2663    1.2071   -4.1484 H   0  0  0  0  0  0  0  0  0  0  0  0
    6.3062    0.7298   -5.3007 H   0  0  0  0  0  0  0  0  0  0  0  0
    8.3739    1.5827   -4.4718 H   0  0  0  0  0  0  0  0  0  0  0  0
    8.4214    2.9201   -2.4863 H   0  0  0  0  0  0  0  0  0  0  0  0
    3.1605    4.5971    2.5042 H   0  0  0  0  0  0  0  0  0  0  0  0
    0.5447    4.1810    3.2793 H   0  0  0  0  0  0  0  0  0  0  0  0
    1.3054    2.3790   -0.8027 H   0  0  0  0  0  0  0  0  0  0  0  0
    2.1566    3.3867   -2.8042 H   0  0  0  0  0  0  0  0  0  0  0  0
    0.2974    6.9499   -1.7828 H   0  0  0  0  0  0  0  0  0  0  0  0
   -0.5554    5.9425    0.2173 H   0  0  0  0  0  0  0  0  0  0  0  0
    1.5263    6.8417   -3.7614 H   0  0  0  0  0  0  0  0  0  0  0  0
    2.8301    5.8602   -3.7041 H   0  0  0  0  0  0  0  0  0  0  0  0
    1.4903    5.3918   -4.5117 H   0  0  0  0  0  0  0  0  0  0  0  0
    1.1266    0.9758    2.5119 H   0  0  0  0  0  0  0  0  0  0  0  0
    3.2176   -0.1840    2.4868 H   0  0  0  0  0  0  0  0  0  0  0  0
    5.2790    1.0260    2.4700 H   0  0  0  0  0  0  0  0  0  0  0  0
    8.5032    6.7202    1.4057 H   0  0  0  0  0  0  0  0  0  0  0  0
    9.2117    6.2818    0.0012 H   0  0  0  0  0  0  0  0  0  0  0  0
   10.3289    5.0971   -0.6063 H   0  0  0  0  0  0  0  0  0  0  0  0
   10.8300    3.5959   -1.0089 H   0  0  0  0  0  0  0  0  0  0  0  0
  1  2  1  0  0  0  0
  2  3  1  0  0  0  0
  3  4  2  0  0  0  0
  4  5  1  0  0  0  0
  5  6  2  0  0  0  0
  6  7  1  0  0  0  0
  7  2  2  0  0  0  0
  5  8  1  0  0  0  0
  8  9  1  0  0  0  0
  9 10  1  0  0  0  0
 10 11  1  0  0  0  0
 11 12  1  0  0  0  0
 12 13  2  0  0  0  0
 13 14  1  0  0  0  0
 14 15  2  0  0  0  0
 15 16  1  0  0  0  0
 16 12  1  0  0  0  0
 16 17  1  0  0  0  0
 17 18  1  0  0  0  0
 18 19  1  0  0  0  0
 19 20  1  0  0  0  0
 20 21  2  0  0  0  0
 21 22  1  0  0  0  0
 22 23  2  0  0  0  0
 23 24  1  0  0  0  0
 24 19  2  0  0  0  0
 15 25  1  0  0  0  0
 25 26  1  0  0  0  0
 26 27  2  0  0  0  0
 27 28  1  0  0  0  0
 28 29  1  0  0  0  0
 29 30  2  0  0  0  0
 29 31  2  0  0  0  0
 29 32  1  0  0  0  0
 32 33  1  0  0  0  0
 33 34  2  0  0  0  0
 34 35  1  0  0  0  0
 35 36  2  0  0  0  0
 36 37  1  0  0  0  0
 37 32  2  0  0  0  0
 35 38  1  0  0  0  0
 27 39  1  0  0  0  0
 39 40  2  0  0  0  0
 40 41  1  0  0  0  0
 41 25  2  0  0  0  0
 11 42  1  0  0  0  0
 42  4  1  0  0  0  0
 10 43  1  0  0  0  0
 43  8  1  0  0  0  0
  3 44  1  0  0  0  0
  6 45  1  0  0  0  0
  7 46  1  0  0  0  0
  8 47  1  0  0  0  0
  9 48  1  0  0  0  0
  9 49  1  0  0  0  0
 10 50  1  0  0  0  0
 17 51  1  0  0  0  0
 17 52  1  0  0  0  0
 18 53  1  0  0  0  0
 18 54  1  0  0  0  0
 20 55  1  0  0  0  0
 21 56  1  0  0  0  0
 22 57  1  0  0  0  0
 23 58  1  0  0  0  0
 24 59  1  0  0  0  0
 26 60  1  0  0  0  0
 28 61  1  0  0  0  0
 33 62  1  0  0  0  0
 34 63  1  0  0  0  0
 36 64  1  0  0  0  0
 37 65  1  0  0  0  0
 38 66  1  0  0  0  0
 38 67  1  0  0  0  0
 38 68  1  0  0  0  0
 39 69  1  0  0  0  0
 40 70  1  0  0  0  0
 41 71  1  0  0  0  0
 42 72  1  0  0  0  0
 42 73  1  0  0  0  0
 43 74  1  0  0  0  0
 43 75  1  0  0  0  0
M  END
>  <result-rank>
61

>  <similarity>
0.847

>  <query-name>


>  <query-smiles>
Clc1ccc(cc1)CS(=O)(=O)c2cc3N=C(c4c(N(c3cc2)C)cc5c(c4)C(CCC5(C)C)(C)C)c6ccc(cc6)C([O-])=O

>  <source>
REALspace_2019-12

>  <similarity-descriptor>
0.958;0.850;0.845;0.889;0.889;0.675;0.901;0.901;0.0;0.889;0.889;0.889;0.0;0.0;0.0

>  <similarity-descriptor-smiles>
c1ccc(cc1)C;CCc1ccccc1;c1cccc(c1)N;Brc1ccc2c(c1)CNC3CC2C3;Brc1ccc2c(c1)CNC3CC2C3;C=1NC=NN1;S(=O)=O;S(=O)=O;;Brc1ccc2c(c1)CNC3CC2C3;Brc1ccc2c(c1)CNC3CC2C3;Brc1ccc2c(c1)CNC3CC2C3;;;

>  <reaction-name>
m_270942

>  <reagent1-name>
9828420

>  <reagent1-smiles>
[R3*]=C([R2*])N([R1*])CCc1ccccc1

>  <reagent2-name>
16769910

>  <reagent2-smiles>
[R2*]N1C2CC(c3c(cc(Br)cc3)C1)C2

>  <reagent3-name>
14069974

>  <reagent3-smiles>
[R3*]=NN=C([R1*])c1cc(NS(=O)(=O)c2ccc(cc2)C)ccc1

$$$$
s_265764____9224912____4558828
          04022017333D 1   1.00000     0.00000     0
            
 54 57  0  0  0  0            999 V2000
    0.1318    3.9536   -5.1817 Cl  0  0  0  0  0  0  0  0  0  0  0  0
    0.6132    2.9979   -3.7597 C   0  0  0  0  0  0  0  0  0  0  0  0
    1.6252    3.4642   -2.9273 C   0  0  0  0  0  0  0  0  0  0  0  0
    1.9974    2.7126   -1.8179 C   0  0  0  0  0  0  0  0  0  0  0  0
    1.3560    1.5074   -1.5526 C   0  0  0  0  0  0  0  0  0  0  0  0
    1.7363    0.7563   -0.4337 N   0  0  0  0  0  0  0  0  0  0  0  0
    1.0000    1.0000    1.0000 S   0  0  0  0  0  0  0  0  0  0  0  0
   -0.2666    1.6504    0.7848 O   0  0  0  0  0  0  0  0  0  0  0  0
    0.7848   -0.2666    1.6504 O   0  0  0  0  0  0  0  0  0  0  0  0
    2.0045    2.0045    2.0045 C   0  0  0  0  0  0  0  0  0  0  0  0
    1.8611    3.3871    1.9566 C   0  0  0  0  0  0  0  0  0  0  0  0
    2.6713    4.1779    2.7649 C   0  0  0  0  0  0  0  0  0  0  0  0
    3.6142    3.6035    3.6112 C   0  0  0  0  0  0  0  0  0  0  0  0
    3.7415    2.2187    3.6444 C   0  0  0  0  0  0  0  0  0  0  0  0
    2.9408    1.4099    2.8445 C   0  0  0  0  0  0  0  0  0  0  0  0
    2.5242    5.6201    2.7173 C   0  0  0  0  0  0  0  0  0  0  0  0
    1.6764    6.2779    1.9644 O   0  0  0  0  0  0  0  0  0  0  0  0
    1.8072    7.5223    2.1662 N   0  0  0  0  0  0  0  0  0  0  0  0
    2.7504    7.7067    3.0601 C   0  0  0  0  0  0  0  0  0  0  0  0
    3.2167    6.4817    3.4181 N   0  0  0  0  0  0  0  0  0  0  0  0
    3.2115    8.9837    3.5691 C   0  0  0  0  0  0  0  0  0  0  0  0
    4.2262    9.0148    4.5206 C   0  0  0  0  0  0  0  0  0  0  0  0
    4.6781   10.2335    5.0161 C   0  0  0  0  0  0  0  0  0  0  0  0
    4.1029   11.4106    4.5491 C   0  0  0  0  0  0  0  0  0  0  0  0
    4.6584   12.9418    5.1606 S   0  0  0  0  0  0  0  0  0  0  0  0
    3.5752   13.8903    5.1352 O   0  0  0  0  0  0  0  0  0  0  0  0
    5.1218   12.7785    6.5142 O   0  0  0  0  0  0  0  0  0  0  0  0
    5.8804   13.4874    4.2300 N   0  0  0  0  0  0  0  0  0  0  0  0
    3.0879   11.3847    3.5981 C   0  0  0  0  0  0  0  0  0  0  0  0
    2.6391   10.1637    3.1051 C   0  0  0  0  0  0  0  0  0  0  0  0
    2.7994   -0.2519   -0.5520 C   0  0  0  0  0  0  0  0  0  0  0  0
    2.1875   -1.5919   -0.9265 C   0  0  0  0  0  0  0  0  0  0  0  0
    2.5392   -2.1812   -2.0306 C   0  0  0  0  0  0  0  0  0  0  0  0
    0.3452    1.0468   -2.3888 C   0  0  0  0  0  0  0  0  0  0  0  0
   -0.0317    1.7933   -3.5000 C   0  0  0  0  0  0  0  0  0  0  0  0
    2.0811    4.3320   -3.1247 H   0  0  0  0  0  0  0  0  0  0  0  0
    2.7241    3.0378   -1.2128 H   0  0  0  0  0  0  0  0  0  0  0  0
    1.1857    3.8064    1.3500 H   0  0  0  0  0  0  0  0  0  0  0  0
    4.1933    4.1790    4.1886 H   0  0  0  0  0  0  0  0  0  0  0  0
    4.4170    1.7993    4.2508 H   0  0  0  0  0  0  0  0  0  0  0  0
    3.0369    0.4149    2.8728 H   0  0  0  0  0  0  0  0  0  0  0  0
    4.6307    8.1610    4.8483 H   0  0  0  0  0  0  0  0  0  0  0  0
    5.4075   10.2629    5.6996 H   0  0  0  0  0  0  0  0  0  0  0  0
    6.6326   12.8287    4.2476 H   0  0  0  0  0  0  0  0  0  0  0  0
    5.5585   13.6008    3.2900 H   0  0  0  0  0  0  0  0  0  0  0  0
    2.6833   12.2386    3.2709 H   0  0  0  0  0  0  0  0  0  0  0  0
    1.9098   10.1344    2.4216 H   0  0  0  0  0  0  0  0  0  0  0  0
    3.2774   -0.3364    0.3223 H   0  0  0  0  0  0  0  0  0  0  0  0
    3.4473    0.0284   -1.2604 H   0  0  0  0  0  0  0  0  0  0  0  0
    1.5144   -2.0202   -0.3236 H   0  0  0  0  0  0  0  0  0  0  0  0
    2.1366   -3.0628   -2.2770 H   0  0  0  0  0  0  0  0  0  0  0  0
    3.2123   -1.7529   -2.6335 H   0  0  0  0  0  0  0  0  0  0  0  0
   -0.1106    0.1790   -2.1913 H   0  0  0  0  0  0  0  0  0  0  0  0
   -0.7580    1.4677   -4.1054 H   0  0  0  0  0  0  0  0  0  0  0  0
  1  2  1  0  0  0  0
  2  3  1  0  0  0  0
  3  4  2  0  0  0  0
  4  5  1  0  0  0  0
  5  6  1  0  0  0  0
  6  7  1  0  0  0  0
  7  8  2  0  0  0  0
  7  9  2  0  0  0  0
  7 10  1  0  0  0  0
 10 11  1  0  0  0  0
 11 12  2  0  0  0  0
 12 13  1  0  0  0  0
 13 14  2  0  0  0  0
 14 15  1  0  0  0  0
 15 10  2  0  0  0  0
 12 16  1  0  0  0  0
 16 17  1  0  0  0  0
 17 18  1  0  0  0  0
 18 19  2  0  0  0  0
 19 20  1  0  0  0  0
 16 20  2  0  0  0  0
 19 21  1  0  0  0  0
 21 22  1  0  0  0  0
 22 23  2  0  0  0  0
 23 24  1  0  0  0  0
 24 25  1  0  0  0  0
 25 26  2  0  0  0  0
 25 27  2  0  0  0  0
 25 28  1  0  0  0  0
 24 29  2  0  0  0  0
 29 30  1  0  0  0  0
 30 21  2  0  0  0  0
  6 31  1  0  0  0  0
 31 32  1  0  0  0  0
 32 33  2  0  0  0  0
  5 34  2  0  0  0  0
 34 35  1  0  0  0  0
 35  2  2  0  0  0  0
  3 36  1  0  0  0  0
  4 37  1  0  0  0  0
 11 38  1  0  0  0  0
 13 39  1  0  0  0  0
 14 40  1  0  0  0  0
 15 41  1  0  0  0  0
 22 42  1  0  0  0  0
 23 43  1  0  0  0  0
 28 44  1  0  0  0  0
 28 45  1  0  0  0  0
 29 46  1  0  0  0  0
 30 47  1  0  0  0  0
 31 48  1  0  0  0  0
 31 49  1  0  0  0  0
 32 50  1  0  0  0  0
 33 51  1  0  0  0  0
 33 52  1  0  0  0  0
 34 53  1  0  0  0  0
 35 54  1  0  0  0  0
M  END
>  <result-rank>
62

>  <similarity>
0.847

>  <query-name>


>  <query-smiles>
Clc1ccc(cc1)CS(=O)(=O)c2cc3N=C(c4c(N(c3cc2)C)cc5c(c4)C(CCC5(C)C)(C)C)c6ccc(cc6)C([O-])=O

>  <source>
REALspace_2019-12

>  <similarity-descriptor>
0.999;0.999;0.939;0.0;0.0;0.620;0.966;0.997;0.0;0.0;0.0;0.0;0.0;0.909;0.273

>  <similarity-descriptor-smiles>
Clc1ccccc1;c1ccccc1;c1ccccc1;;;C1=NC=NO1;NC;S(=O)=O;;;;;;S(=O)=O;N.C.C

>  <reaction-name>
s_265764

>  <reagent1-name>
9224912

>  <reagent1-smiles>
[R1*]=NC(=NO[R2*])c1ccc(S(=O)(=O)N)cc1

>  <reagent2-name>
4558828

>  <reagent2-smiles>
[R1*]C([R2*])c1cc(S(=O)(=O)N(c2ccc(Cl)cc2)CC=C)ccc1

$$$$
s_42a____8631722____125318
          04022017333D 1   1.00000     0.00000     0
            
 69 74  0  0  0  0            999 V2000
    6.3461   -1.7241    2.4726 Cl  0  0  0  0  0  0  0  0  0  0  0  0
    5.4805   -0.1686    2.4698 C   0  0  0  0  0  0  0  0  0  0  0  0
    6.1973    1.0231    2.4554 C   0  0  0  0  0  0  0  0  0  0  0  0
    5.5286    2.1834    2.4483 N   0  0  0  0  0  0  0  0  0  0  0  0
    4.2024    2.1150    2.4561 C   0  0  0  0  0  0  0  0  0  0  0  0
    3.3772    3.5979    2.4370 S   0  0  0  0  0  0  0  0  0  0  0  0
    1.8532    2.8504    2.4652 C   0  0  0  0  0  0  0  0  0  0  0  0
    2.0166    1.4939    2.5143 C   0  0  0  0  0  0  0  0  0  0  0  0
    3.3594    1.0317    2.4924 C   0  0  0  0  0  0  0  0  0  0  0  0
    4.0901   -0.1562    2.4875 C   0  0  0  0  0  0  0  0  0  0  0  0
    3.3912   -1.4265    2.5074 C   0  0  0  0  0  0  0  0  0  0  0  0
    3.0801   -2.0096    3.7309 C   0  0  0  0  0  0  0  0  0  0  0  0
    2.4107   -3.2288    3.7605 C   0  0  0  0  0  0  0  0  0  0  0  0
    2.0602   -3.8491    2.5658 C   0  0  0  0  0  0  0  0  0  0  0  0
    1.4091   -5.0316    2.5845 O   0  0  0  0  0  0  0  0  0  0  0  0
    1.0516   -5.6642    1.3645 C   0  0  0  0  0  0  0  0  0  0  0  0
    2.3718   -3.2655    1.3421 C   0  0  0  0  0  0  0  0  0  0  0  0
    3.0414   -2.0468    1.3123 C   0  0  0  0  0  0  0  0  0  0  0  0
    0.7009    0.7294    2.5845 C   0  0  0  0  0  0  0  0  0  0  0  0
   -0.4922    1.5479    2.1271 C   0  0  0  0  0  0  0  0  0  0  0  0
   -0.5052    2.8285    2.9457 C   0  0  3  0  0  0  0  0  0  0  0  0
    0.6104    3.7182    2.4284 C   0  0  0  0  0  0  0  0  0  0  0  0
   -1.7931    3.6070    2.7396 C   0  0  0  0  0  0  0  0  0  0  0  0
    7.6474    1.0153    2.4467 C   0  0  0  0  0  0  0  0  0  0  0  0
    8.4416    1.0003    1.3414 C   0  0  0  0  0  0  0  0  0  0  0  0
    9.7373    0.9954    1.7578 N   0  0  0  0  0  0  0  0  0  0  0  0
   10.8221    0.9798    0.9532 N   0  0  0  0  0  0  0  0  0  0  0  0
   11.3639   -0.2146    0.5570 C   0  0  0  0  0  0  0  0  0  0  0  0
   10.8747   -1.2468    0.9248 O   0  0  0  0  0  0  0  0  0  0  0  0
   12.5286   -0.2314   -0.3070 C   0  0  0  0  0  0  0  0  0  0  0  0
   12.8279   -1.3763   -1.0380 C   0  0  0  0  0  0  0  0  0  0  0  0
   13.9465   -1.3884   -1.8649 C   0  0  0  0  0  0  0  0  0  0  0  0
   14.7555   -0.2607   -1.9571 C   0  0  0  0  0  0  0  0  0  0  0  0
   14.4466    0.8775   -1.2225 C   0  0  0  0  0  0  0  0  0  0  0  0
   13.3312    0.9020   -0.3917 C   0  0  0  0  0  0  0  0  0  0  0  0
    9.7594    1.0088    3.1198 C   0  0  0  0  0  0  0  0  0  0  0  0
    8.4810    1.0215    3.5867 C   0  0  0  0  0  0  0  0  0  0  0  0
   11.0108    1.0099    3.9830 C   0  0  0  0  0  0  0  0  0  0  0  0
    7.9676    0.9881   -0.1030 C   0  0  0  0  0  0  0  0  0  0  0  0
    3.3360   -1.5553    4.5842 H   0  0  0  0  0  0  0  0  0  0  0  0
    2.1830   -3.6566    4.6352 H   0  0  0  0  0  0  0  0  0  0  0  0
    0.5797   -6.5237    1.5605 H   0  0  0  0  0  0  0  0  0  0  0  0
    0.4465   -5.0633    0.8422 H   0  0  0  0  0  0  0  0  0  0  0  0
    1.8769   -5.8510    0.8315 H   0  0  0  0  0  0  0  0  0  0  0  0
    2.1158   -3.7196    0.4888 H   0  0  0  0  0  0  0  0  0  0  0  0
    3.2699   -1.6193    0.4377 H   0  0  0  0  0  0  0  0  0  0  0  0
    0.5479    0.4466    3.5314 H   0  0  0  0  0  0  0  0  0  0  0  0
    0.7726   -0.0805    2.0023 H   0  0  0  0  0  0  0  0  0  0  0  0
   -0.4054    1.7647    1.1547 H   0  0  0  0  0  0  0  0  0  0  0  0
   -1.3372    1.0356    2.2803 H   0  0  0  0  0  0  0  0  0  0  0  0
   -0.3701    2.6255    3.9155 H   0  0  0  0  0  0  0  0  0  0  0  0
    0.4174    4.0163    1.4936 H   0  0  0  0  0  0  0  0  0  0  0  0
    0.7231    4.5187    3.0171 H   0  0  0  0  0  0  0  0  0  0  0  0
   -2.5668    3.0637    3.0656 H   0  0  0  0  0  0  0  0  0  0  0  0
   -1.7493    4.4651    3.2512 H   0  0  0  0  0  0  0  0  0  0  0  0
   -1.9110    3.8046    1.7665 H   0  0  0  0  0  0  0  0  0  0  0  0
   11.2297    1.8399    0.6467 H   0  0  0  0  0  0  0  0  0  0  0  0
   12.2432   -2.1847   -0.9698 H   0  0  0  0  0  0  0  0  0  0  0  0
   14.1690   -2.2079   -2.3930 H   0  0  0  0  0  0  0  0  0  0  0  0
   15.5593   -0.2692   -2.5519 H   0  0  0  0  0  0  0  0  0  0  0  0
   15.0311    1.6860   -1.2917 H   0  0  0  0  0  0  0  0  0  0  0  0
   13.1096    1.7216    0.1366 H   0  0  0  0  0  0  0  0  0  0  0  0
    8.1906    1.0328    4.5436 H   0  0  0  0  0  0  0  0  0  0  0  0
   10.7499    1.0210    4.9483 H   0  0  0  0  0  0  0  0  0  0  0  0
   11.5480    0.1883    3.7924 H   0  0  0  0  0  0  0  0  0  0  0  0
   11.5577    1.8211    3.7762 H   0  0  0  0  0  0  0  0  0  0  0  0
    6.9679    0.9952   -0.1259 H   0  0  0  0  0  0  0  0  0  0  0  0
    8.3176    1.7971   -0.5755 H   0  0  0  0  0  0  0  0  0  0  0  0
    8.3057    0.1642   -0.5578 H   0  0  0  0  0  0  0  0  0  0  0  0
  1  2  1  0  0  0  0
  2  3  1  0  0  0  0
  3  4  2  0  0  0  0
  4  5  1  0  0  0  0
  5  6  1  0  0  0  0
  6  7  1  0  0  0  0
  7  8  2  0  0  0  0
  8  9  1  0  0  0  0
  9  5  2  0  0  0  0
  9 10  1  0  0  0  0
 10  2  2  0  0  0  0
 10 11  1  0  0  0  0
 11 12  1  0  0  0  0
 12 13  2  0  0  0  0
 13 14  1  0  0  0  0
 14 15  1  0  0  0  0
 15 16  1  0  0  0  0
 14 17  2  0  0  0  0
 17 18  1  0  0  0  0
 18 11  2  0  0  0  0
  8 19  1  0  0  0  0
 19 20  1  0  0  0  0
 20 21  1  0  0  0  0
 21 22  1  0  0  0  0
 22  7  1  0  0  0  0
 21 23  1  0  0  0  0
  3 24  1  0  0  0  0
 24 25  2  0  0  0  0
 25 26  1  0  0  0  0
 26 27  1  0  0  0  0
 27 28  1  0  0  0  0
 28 29  2  0  0  0  0
 28 30  1  0  0  0  0
 30 31  1  0  0  0  0
 31 32  2  0  0  0  0
 32 33  1  0  0  0  0
 33 34  2  0  0  0  0
 34 35  1  0  0  0  0
 35 30  2  0  0  0  0
 26 36  1  0  0  0  0
 36 37  2  0  0  0  0
 37 24  1  0  0  0  0
 36 38  1  0  0  0  0
 25 39  1  0  0  0  0
 12 40  1  0  0  0  0
 13 41  1  0  0  0  0
 16 42  1  0  0  0  0
 16 43  1  0  0  0  0
 16 44  1  0  0  0  0
 17 45  1  0  0  0  0
 18 46  1  0  0  0  0
 19 47  1  0  0  0  0
 19 48  1  0  0  0  0
 20 49  1  0  0  0  0
 20 50  1  0  0  0  0
 21 51  1  0  0  0  0
 22 52  1  0  0  0  0
 22 53  1  0  0  0  0
 23 54  1  0  0  0  0
 23 55  1  0  0  0  0
 23 56  1  0  0  0  0
 27 57  1  0  0  0  0
 31 58  1  0  0  0  0
 32 59  1  0  0  0  0
 33 60  1  0  0  0  0
 34 61  1  0  0  0  0
 35 62  1  0  0  0  0
 37 63  1  0  0  0  0
 38 64  1  0  0  0  0
 38 65  1  0  0  0  0
 38 66  1  0  0  0  0
 39 67  1  0  0  0  0
 39 68  1  0  0  0  0
 39 69  1  0  0  0  0
M  END
>  <result-rank>
63

>  <similarity>
0.847

>  <query-name>


>  <query-smiles>
Clc1ccc(cc1)CS(=O)(=O)c2cc3N=C(c4c(N(c3cc2)C)cc5c(c4)C(CCC5(C)C)(C)C)c6ccc(cc6)C([O-])=O

>  <source>
REALspace_2019-12

>  <similarity-descriptor>
0.898;0.998;0.790;0.830;0.947;0.870;0.898;0.630;0.870;0.947;0.947;0.0;1.000;0.490;0.077

>  <similarity-descriptor-smiles>
c1ccccc1;c1ccccc1;C=1C=CNC1C;c1cC=CS1;C=1CCCCC1;Clc1cccnc1;c1ccccc1;NC=O;Clc1cccnc1;C=1CCCCC1;C=1CCCCC1;;C;OC;C

>  <reaction-name>
s_42a

>  <reagent1-name>
8631722

>  <reagent1-smiles>
[R1*]=NC=1SC2=C(C1C(=[R2*])c3ccc(OC)cc3)CCC2

>  <reagent2-name>
125318

>  <reagent2-smiles>
[R2*]=C(Cl)C(=[R1*])C1=C(N(NC(=O)c2ccccc2)C(=C1)C)C

$$$$
s_2____11687950____15100776____9284808
          04022017333D 1   1.00000     0.00000     0
            
 69 74  0  0  0  0            999 V2000
   -1.9513    6.0842    0.4460 S   0  0  0  0  0  0  0  0  0  0  0  0
   -1.1728    7.0069   -0.3390 O   0  0  0  0  0  0  0  0  0  0  0  0
   -3.2098    5.8392   -0.2095 O   0  0  0  0  0  0  0  0  0  0  0  0
   -2.2222    6.7207    1.9220 N   0  0  0  0  0  0  0  0  0  0  0  0
   -1.0821    4.5864    0.6111 C   0  0  0  0  0  0  0  0  0  0  0  0
   -0.7377    4.1262    1.8777 C   0  0  0  0  0  0  0  0  0  0  0  0
   -0.0423    2.9284    2.0032 C   0  0  0  0  0  0  0  0  0  0  0  0
    0.2999    2.2052    0.8655 C   0  0  0  0  0  0  0  0  0  0  0  0
    1.0000    1.0000    1.0000 N   0  0  0  0  0  0  0  0  0  0  0  0
    2.2727    1.0000    1.0000 C   0  0  0  0  0  0  0  0  0  0  0  0
    3.2932    2.2218    0.3944 S   0  0  0  0  0  0  0  0  0  0  0  0
    4.7811    1.4716    0.7594 C   0  0  0  0  0  0  0  0  0  0  0  0
    4.4252    0.2929    1.3410 C   0  0  0  0  0  0  0  0  0  0  0  0
    3.0922    0.0268    1.4798 N   0  0  0  0  0  0  0  0  0  0  0  0
    2.5422   -1.1968    2.0817 C   0  0  3  0  0  0  0  0  0  0  0  0
    2.0205   -2.0789    0.9582 C   0  0  0  0  0  0  0  0  0  0  0  0
    0.8786   -2.7471    1.0457 C   0  0  0  0  0  0  0  0  0  0  0  0
   -0.0462   -2.6521    2.2543 C   0  0  0  0  0  0  0  0  0  0  0  0
    0.6952   -2.0762    3.4528 C   0  0  0  0  0  0  0  0  0  0  0  0
    1.4768   -0.8205    3.0997 C   0  0  0  0  0  0  0  0  0  0  0  0
   -0.6123   -4.0311    2.5558 C   0  0  0  0  0  0  0  0  0  0  0  0
   -1.2065   -1.7372    1.9039 C   0  0  0  0  0  0  0  0  0  0  0  0
    5.4808   -0.5996    1.7731 C   0  0  0  0  0  0  0  0  0  0  0  0
    5.9948   -0.4970    3.0621 C   0  0  0  0  0  0  0  0  0  0  0  0
    5.5127    0.4580    3.9652 N   0  0  0  0  0  0  0  0  0  0  0  0
    4.5973    0.2210    4.9865 C   0  0  0  0  0  0  0  0  0  0  0  0
    4.0840   -0.8566    5.2377 O   0  0  0  0  0  0  0  0  0  0  0  0
    4.3621    1.4605    5.6874 C   0  0  0  0  0  0  0  0  0  0  0  0
    5.1297    2.4125    5.0694 C   0  0  0  0  0  0  0  0  0  0  0  0
    5.0448    3.7032    5.5820 C   0  0  0  0  0  0  0  0  0  0  0  0
    4.2223    3.9979    6.6634 C   0  0  0  0  0  0  0  0  0  0  0  0
    3.4567    3.0038    7.2640 C   0  0  0  0  0  0  0  0  0  0  0  0
    3.5217    1.7063    6.7664 C   0  0  0  0  0  0  0  0  0  0  0  0
    5.8725    1.8020    3.9925 C   0  0  0  0  0  0  0  0  0  0  0  0
    6.6608    2.3685    3.2527 O   0  0  0  0  0  0  0  0  0  0  0  0
    7.0081   -1.3541    3.4769 C   0  0  0  0  0  0  0  0  0  0  0  0
    7.5084   -2.3143    2.6032 C   0  0  0  0  0  0  0  0  0  0  0  0
    6.9948   -2.4170    1.3145 C   0  0  0  0  0  0  0  0  0  0  0  0
    5.9816   -1.5592    0.8991 C   0  0  0  0  0  0  0  0  0  0  0  0
   -0.0472    2.6709   -0.3977 C   0  0  0  0  0  0  0  0  0  0  0  0
   -0.7424    3.8680   -0.5304 C   0  0  0  0  0  0  0  0  0  0  0  0
   -2.7628    6.0799    2.4671 H   0  0  0  0  0  0  0  0  0  0  0  0
   -1.3483    6.8909    2.3772 H   0  0  0  0  0  0  0  0  0  0  0  0
   -0.9878    4.6519    2.6907 H   0  0  0  0  0  0  0  0  0  0  0  0
    0.2110    2.5881    2.9087 H   0  0  0  0  0  0  0  0  0  0  0  0
    5.7030    1.8179    0.5861 H   0  0  0  0  0  0  0  0  0  0  0  0
    3.2791   -1.6810    2.5533 H   0  0  0  0  0  0  0  0  0  0  0  0
    2.5601   -2.1582    0.1201 H   0  0  0  0  0  0  0  0  0  0  0  0
    0.6121   -3.3396    0.2854 H   0  0  0  0  0  0  0  0  0  0  0  0
    1.3325   -2.7652    3.7979 H   0  0  0  0  0  0  0  0  0  0  0  0
    0.0299   -1.8513    4.1646 H   0  0  0  0  0  0  0  0  0  0  0  0
    0.8608   -0.1368    2.7085 H   0  0  0  0  0  0  0  0  0  0  0  0
    1.9093   -0.4485    3.9210 H   0  0  0  0  0  0  0  0  0  0  0  0
   -1.2202   -3.9760    3.3480 H   0  0  0  0  0  0  0  0  0  0  0  0
   -1.1260   -4.3611    1.7638 H   0  0  0  0  0  0  0  0  0  0  0  0
    0.1370   -4.6630    2.7540 H   0  0  0  0  0  0  0  0  0  0  0  0
   -1.8226   -1.6649    2.6882 H   0  0  0  0  0  0  0  0  0  0  0  0
   -0.8568   -0.8300    1.6700 H   0  0  0  0  0  0  0  0  0  0  0  0
   -1.7041   -2.1142    1.1227 H   0  0  0  0  0  0  0  0  0  0  0  0
    5.5860    4.4331    5.1644 H   0  0  0  0  0  0  0  0  0  0  0  0
    4.1807    4.9339    7.0130 H   0  0  0  0  0  0  0  0  0  0  0  0
    2.8676    3.2189    8.0429 H   0  0  0  0  0  0  0  0  0  0  0  0
    2.9792    0.9715    7.1736 H   0  0  0  0  0  0  0  0  0  0  0  0
    7.3773   -1.2803    4.4033 H   0  0  0  0  0  0  0  0  0  0  0  0
    8.2371   -2.9306    2.9016 H   0  0  0  0  0  0  0  0  0  0  0  0
    7.3540   -3.1075    0.6866 H   0  0  0  0  0  0  0  0  0  0  0  0
    5.6132   -1.6323   -0.0276 H   0  0  0  0  0  0  0  0  0  0  0  0
    0.2031    2.1451   -1.2107 H   0  0  0  0  0  0  0  0  0  0  0  0
   -0.9951    4.2084   -1.4360 H   0  0  0  0  0  0  0  0  0  0  0  0
  1  2  2  0  0  0  0
  1  3  2  0  0  0  0
  1  4  1  0  0  0  0
  1  5  1  0  0  0  0
  5  6  1  0  0  0  0
  6  7  2  0  0  0  0
  7  8  1  0  0  0  0
  8  9  1  0  0  0  0
  9 10  2  0  0  0  0
 10 11  1  0  0  0  0
 11 12  1  0  0  0  0
 12 13  2  0  0  0  0
 13 14  1  0  0  0  0
 14 10  1  0  0  0  0
 14 15  1  0  0  0  0
 15 16  1  0  0  0  0
 16 17  2  0  0  0  0
 17 18  1  0  0  0  0
 18 19  1  0  0  0  0
 19 20  1  0  0  0  0
 20 15  1  0  0  0  0
 18 21  1  0  0  0  0
 18 22  1  0  0  0  0
 13 23  1  0  0  0  0
 23 24  1  0  0  0  0
 24 25  1  0  0  0  0
 25 26  1  0  0  0  0
 26 27  2  0  0  0  0
 26 28  1  0  0  0  0
 28 29  1  0  0  0  0
 29 30  2  0  0  0  0
 30 31  1  0  0  0  0
 31 32  2  0  0  0  0
 32 33  1  0  0  0  0
 33 28  2  0  0  0  0
 29 34  1  0  0  0  0
 34 25  1  0  0  0  0
 34 35  2  0  0  0  0
 24 36  2  0  0  0  0
 36 37  1  0  0  0  0
 37 38  2  0  0  0  0
 38 39  1  0  0  0  0
 39 23  2  0  0  0  0
  8 40  2  0  0  0  0
 40 41  1  0  0  0  0
 41  5  2  0  0  0  0
  4 42  1  0  0  0  0
  4 43  1  0  0  0  0
  6 44  1  0  0  0  0
  7 45  1  0  0  0  0
 12 46  1  0  0  0  0
 15 47  1  0  0  0  0
 16 48  1  0  0  0  0
 17 49  1  0  0  0  0
 19 50  1  0  0  0  0
 19 51  1  0  0  0  0
 20 52  1  0  0  0  0
 20 53  1  0  0  0  0
 21 54  1  0  0  0  0
 21 55  1  0  0  0  0
 21 56  1  0  0  0  0
 22 57  1  0  0  0  0
 22 58  1  0  0  0  0
 22 59  1  0  0  0  0
 30 60  1  0  0  0  0
 31 61  1  0  0  0  0
 32 62  1  0  0  0  0
 33 63  1  0  0  0  0
 36 64  1  0  0  0  0
 37 65  1  0  0  0  0
 38 66  1  0  0  0  0
 39 67  1  0  0  0  0
 40 68  1  0  0  0  0
 41 69  1  0  0  0  0
M  END
>  <result-rank>
64

>  <similarity>
0.846

>  <query-name>


>  <query-smiles>
Clc1ccc(cc1)CS(=O)(=O)c2cc3N=C(c4c(N(c3cc2)C)cc5c(c4)C(CCC5(C)C)(C)C)c6ccc(cc6)C([O-])=O

>  <source>
REALspace_2019-12

>  <similarity-descriptor>
0.951;0.907;0.938;0.584;0.996;0.584;0.705;0.705;0.0;0.996;0.0;1.000;1.000;0.909;0.091

>  <similarity-descriptor-smiles>
c1ccccc1;c1ccc(cc1)N;c1ccccc1;C1NC=CS1;C1CCCC=C1;C1NC=CS1;N1C(ccC1=O)=O;N1C(ccC1=O)=O;;C1CCCC=C1;;C;C;S(=O)=O;N

>  <reaction-name>
s_2

>  <reagent1-name>
11687950

>  <reagent1-smiles>
[R1*]SC([R3*])=Nc1ccc(S(=O)(=O)N)cc1

>  <reagent2-name>
15100776

>  <reagent2-smiles>
[R2*]N([R3*])C1C=CC(CC1)(C)C

>  <reagent3-name>
9284808

>  <reagent3-smiles>
[R2*]C(c1c(N2C(=O)c3c(cccc3)C2=O)cccc1)=C[R1*]

$$$$
s_2____2757072____17632298____9284808
          04022017333D 1   1.00000     0.00000     0
            
 99106  0  0  0  0            999 V2000
    9.7835    0.7643    7.4035 S   0  0  0  0  0  0  0  0  0  0  0  0
   10.8002    1.7678    7.2227 O   0  0  0  0  0  0  0  0  0  0  0  0
    9.0175    1.0644    8.5854 O   0  0  0  0  0  0  0  0  0  0  0  0
   10.4859   -0.6974    7.5680 N   0  0  0  0  0  0  0  0  0  0  0  0
    8.7308    0.7492    6.0185 C   0  0  0  0  0  0  0  0  0  0  0  0
    7.3976    0.3824    6.1667 C   0  0  0  0  0  0  0  0  0  0  0  0
    6.5538    0.3696    5.0607 C   0  0  0  0  0  0  0  0  0  0  0  0
    7.0600    0.7255    3.8152 C   0  0  0  0  0  0  0  0  0  0  0  0
    8.3938    1.0919    3.6676 C   0  0  0  0  0  0  0  0  0  0  0  0
    9.2375    1.1055    4.7728 C   0  0  0  0  0  0  0  0  0  0  0  0
    6.1427    0.7120    2.6036 C   0  0  0  0  0  0  0  0  0  0  0  0
    5.5094    2.0301    2.4537 N   0  0  0  0  0  0  0  0  0  0  0  0
    4.2406    2.1295    2.4468 C   0  0  0  0  0  0  0  0  0  0  0  0
    3.3299    3.5681    2.4036 S   0  0  0  0  0  0  0  0  0  0  0  0
    1.7813    2.8529    2.4247 C   0  0  0  0  0  0  0  0  0  0  0  0
    2.0334    1.5154    2.4653 C   0  0  0  0  0  0  0  0  0  0  0  0
    3.3388    1.1121    2.4746 N   0  0  0  0  0  0  0  0  0  0  0  0
    3.7804   -0.2891    2.5193 C   0  0  0  0  0  0  0  0  0  0  0  0
    3.7006   -0.8902    1.1254 C   0  0  3  0  0  0  0  0  0  0  0  0
    4.1431   -2.2941    1.1702 N   0  3  0  0  0  0  0  0  0  0  0  0
    4.0878   -2.9317   -0.1538 C   0  0  0  0  0  0  0  0  0  0  0  0
    4.5697   -4.3717   -0.0755 C   0  0  0  0  0  0  0  0  0  0  0  0
    3.7627   -5.1370    0.8867 N   0  3  3  0  0  0  0  0  0  0  0  0
    3.8178   -4.4994    2.2107 C   0  0  0  0  0  0  0  0  0  0  0  0
    3.3374   -3.0586    2.1341 C   0  0  0  0  0  0  0  0  0  0  0  0
    4.2053   -6.5415    0.9554 C   0  0  0  0  0  0  0  0  0  0  0  0
    4.5989   -0.1057    0.1833 C   0  0  0  0  0  0  0  0  0  0  0  0
    4.0884    0.9860   -0.5096 C   0  0  0  0  0  0  0  0  0  0  0  0
    4.8814    1.6998   -1.4053 C   0  0  0  0  0  0  0  0  0  0  0  0
    6.2127    1.3569   -1.5968 C   0  0  0  0  0  0  0  0  0  0  0  0
    6.9846    2.1170   -2.4895 N   0  0  0  0  0  0  0  0  0  0  0  0
    6.3562    2.6102   -3.7275 C   0  0  0  0  0  0  0  0  0  0  0  0
    4.8394    2.7238   -3.6337 C   0  0  0  0  0  0  0  0  0  0  0  0
    4.3270    2.8694   -2.2067 C   0  0  0  0  0  0  0  0  0  0  0  0
    8.4032    2.4237   -2.2477 C   0  0  0  0  0  0  0  0  0  0  0  0
    6.7149    0.2661   -0.8901 C   0  0  0  0  0  0  0  0  0  0  0  0
    5.9285   -0.4681   -0.0077 C   0  0  0  0  0  0  0  0  0  0  0  0
    0.9019    0.6087    2.4961 C   0  0  0  0  0  0  0  0  0  0  0  0
   -0.2204    0.8695    1.7160 C   0  0  0  0  0  0  0  0  0  0  0  0
   -0.2882    1.9984    0.8907 N   0  0  0  0  0  0  0  0  0  0  0  0
    0.2973    2.1223   -0.3659 C   0  0  0  0  0  0  0  0  0  0  0  0
    0.9553    1.2611   -0.9256 O   0  0  0  0  0  0  0  0  0  0  0  0
   -0.0047    3.4349   -0.8844 C   0  0  0  0  0  0  0  0  0  0  0  0
   -0.7532    4.0714    0.0706 C   0  0  0  0  0  0  0  0  0  0  0  0
   -1.1481    5.3734   -0.2200 C   0  0  0  0  0  0  0  0  0  0  0  0
   -0.7964    5.9841   -1.4183 C   0  0  0  0  0  0  0  0  0  0  0  0
   -0.0342    5.3052   -2.3635 C   0  0  0  0  0  0  0  0  0  0  0  0
    0.3761    4.0037   -2.0937 C   0  0  0  0  0  0  0  0  0  0  0  0
   -0.9558    3.1821    1.1897 C   0  0  0  0  0  0  0  0  0  0  0  0
   -1.5916    3.4339    2.2008 O   0  0  0  0  0  0  0  0  0  0  0  0
   -1.3051    0.0000    1.7455 C   0  0  0  0  0  0  0  0  0  0  0  0
   -1.2684   -1.1310    2.5550 C   0  0  0  0  0  0  0  0  0  0  0  0
   -0.1465   -1.3919    3.3350 C   0  0  0  0  0  0  0  0  0  0  0  0
    0.9383   -0.5217    3.3062 C   0  0  0  0  0  0  0  0  0  0  0  0
    5.0934   -2.3090    1.4811 H   0  0  0  0  0  0  0  0  0  0  0  0
    2.8126   -5.1251    0.5748 H   0  0  0  0  0  0  0  0  0  0  0  0
    9.7798   -1.3943    7.6935 H   0  0  0  0  0  0  0  0  0  0  0  0
   11.0178   -0.9059    6.7472 H   0  0  0  0  0  0  0  0  0  0  0  0
    7.0457    0.1281    7.0676 H   0  0  0  0  0  0  0  0  0  0  0  0
    5.5939    0.1073    5.1601 H   0  0  0  0  0  0  0  0  0  0  0  0
    8.7459    1.3454    2.7667 H   0  0  0  0  0  0  0  0  0  0  0  0
   10.1972    1.3683    4.6734 H   0  0  0  0  0  0  0  0  0  0  0  0
    6.6762    0.5034    1.7839 H   0  0  0  0  0  0  0  0  0  0  0  0
    5.4364    0.0151    2.7279 H   0  0  0  0  0  0  0  0  0  0  0  0
    0.8925    3.3109    2.4105 H   0  0  0  0  0  0  0  0  0  0  0  0
    3.1894   -0.8052    3.1392 H   0  0  0  0  0  0  0  0  0  0  0  0
    4.7244   -0.3308    2.8467 H   0  0  0  0  0  0  0  0  0  0  0  0
    2.7567   -0.8484    0.7980 H   0  0  0  0  0  0  0  0  0  0  0  0
    4.6714   -2.4239   -0.7876 H   0  0  0  0  0  0  0  0  0  0  0  0
    3.1446   -2.9184   -0.4858 H   0  0  0  0  0  0  0  0  0  0  0  0
    4.4917   -4.7938   -0.9787 H   0  0  0  0  0  0  0  0  0  0  0  0
    5.5262   -4.3826    0.2161 H   0  0  0  0  0  0  0  0  0  0  0  0
    4.7608   -4.5137    2.5430 H   0  0  0  0  0  0  0  0  0  0  0  0
    3.2335   -5.0069    2.8440 H   0  0  0  0  0  0  0  0  0  0  0  0
    2.3802   -3.0464    1.8450 H   0  0  0  0  0  0  0  0  0  0  0  0
    3.4181   -2.6369    3.0373 H   0  0  0  0  0  0  0  0  0  0  0  0
    3.6408   -7.0371    1.6154 H   0  0  0  0  0  0  0  0  0  0  0  0
    4.1132   -6.9645    0.0539 H   0  0  0  0  0  0  0  0  0  0  0  0
    5.1624   -6.5757    1.2433 H   0  0  0  0  0  0  0  0  0  0  0  0
    3.1388    1.2629   -0.3631 H   0  0  0  0  0  0  0  0  0  0  0  0
    6.5813    1.9794   -4.4701 H   0  0  0  0  0  0  0  0  0  0  0  0
    6.7295    3.5147   -3.9338 H   0  0  0  0  0  0  0  0  0  0  0  0
    4.4353    1.9005   -4.0324 H   0  0  0  0  0  0  0  0  0  0  0  0
    4.5492    3.5248   -4.1573 H   0  0  0  0  0  0  0  0  0  0  0  0
    4.6444    3.7333   -1.8156 H   0  0  0  0  0  0  0  0  0  0  0  0
    3.3273    2.8469   -2.1980 H   0  0  0  0  0  0  0  0  0  0  0  0
    8.7589    2.9735   -3.0035 H   0  0  0  0  0  0  0  0  0  0  0  0
    8.4928    2.9347   -1.3928 H   0  0  0  0  0  0  0  0  0  0  0  0
    8.9221    1.5714   -2.1825 H   0  0  0  0  0  0  0  0  0  0  0  0
    7.6706    0.0026   -1.0212 H   0  0  0  0  0  0  0  0  0  0  0  0
    6.3151   -1.2482    0.4842 H   0  0  0  0  0  0  0  0  0  0  0  0
   -1.6956    5.8799    0.4462 H   0  0  0  0  0  0  0  0  0  0  0  0
   -1.0942    6.9208   -1.6027 H   0  0  0  0  0  0  0  0  0  0  0  0
    0.2154    5.7469   -3.2253 H   0  0  0  0  0  0  0  0  0  0  0  0
    0.9292    3.4920   -2.7511 H   0  0  0  0  0  0  0  0  0  0  0  0
   -2.1116    0.1875    1.1848 H   0  0  0  0  0  0  0  0  0  0  0  0
   -2.0485   -1.7563    2.5761 H   0  0  0  0  0  0  0  0  0  0  0  0
   -0.1200   -2.2050    3.9165 H   0  0  0  0  0  0  0  0  0  0  0  0
    1.7443   -0.7087    3.8678 H   0  0  0  0  0  0  0  0  0  0  0  0
  1  2  2  0  0  0  0
  1  3  2  0  0  0  0
  1  4  1  0  0  0  0
  1  5  1  0  0  0  0
  5  6  1  0  0  0  0
  6  7  2  0  0  0  0
  7  8  1  0  0  0  0
  8  9  2  0  0  0  0
  9 10  1  0  0  0  0
 10  5  2  0  0  0  0
  8 11  1  0  0  0  0
 11 12  1  0  0  0  0
 12 13  2  0  0  0  0
 13 14  1  0  0  0  0
 14 15  1  0  0  0  0
 15 16  2  0  0  0  0
 16 17  1  0  0  0  0
 17 13  1  0  0  0  0
 17 18  1  0  0  0  0
 18 19  1  0  0  0  0
 19 20  1  0  0  0  0
 20 21  1  0  0  0  0
 21 22  1  0  0  0  0
 22 23  1  0  0  0  0
 23 24  1  0  0  0  0
 24 25  1  0  0  0  0
 25 20  1  0  0  0  0
 23 26  1  0  0  0  0
 19 27  1  0  0  0  0
 27 28  1  0  0  0  0
 28 29  2  0  0  0  0
 29 30  1  0  0  0  0
 30 31  1  0  0  0  0
 31 32  1  0  0  0  0
 32 33  1  0  0  0  0
 33 34  1  0  0  0  0
 34 29  1  0  0  0  0
 31 35  1  0  0  0  0
 30 36  2  0  0  0  0
 36 37  1  0  0  0  0
 37 27  2  0  0  0  0
 16 38  1  0  0  0  0
 38 39  1  0  0  0  0
 39 40  1  0  0  0  0
 40 41  1  0  0  0  0
 41 42  2  0  0  0  0
 41 43  1  0  0  0  0
 43 44  1  0  0  0  0
 44 45  2  0  0  0  0
 45 46  1  0  0  0  0
 46 47  2  0  0  0  0
 47 48  1  0  0  0  0
 48 43  2  0  0  0  0
 44 49  1  0  0  0  0
 49 40  1  0  0  0  0
 49 50  2  0  0  0  0
 39 51  2  0  0  0  0
 51 52  1  0  0  0  0
 52 53  2  0  0  0  0
 53 54  1  0  0  0  0
 54 38  2  0  0  0  0
 20 55  1  0  0  0  0
 23 56  1  0  0  0  0
  4 57  1  0  0  0  0
  4 58  1  0  0  0  0
  6 59  1  0  0  0  0
  7 60  1  0  0  0  0
  9 61  1  0  0  0  0
 10 62  1  0  0  0  0
 11 63  1  0  0  0  0
 11 64  1  0  0  0  0
 15 65  1  0  0  0  0
 18 66  1  0  0  0  0
 18 67  1  0  0  0  0
 19 68  1  0  0  0  0
 21 69  1  0  0  0  0
 21 70  1  0  0  0  0
 22 71  1  0  0  0  0
 22 72  1  0  0  0  0
 24 73  1  0  0  0  0
 24 74  1  0  0  0  0
 25 75  1  0  0  0  0
 25 76  1  0  0  0  0
 26 77  1  0  0  0  0
 26 78  1  0  0  0  0
 26 79  1  0  0  0  0
 28 80  1  0  0  0  0
 32 81  1  0  0  0  0
 32 82  1  0  0  0  0
 33 83  1  0  0  0  0
 33 84  1  0  0  0  0
 34 85  1  0  0  0  0
 34 86  1  0  0  0  0
 35 87  1  0  0  0  0
 35 88  1  0  0  0  0
 35 89  1  0  0  0  0
 36 90  1  0  0  0  0
 37 91  1  0  0  0  0
 45 92  1  0  0  0  0
 46 93  1  0  0  0  0
 47 94  1  0  0  0  0
 48 95  1  0  0  0  0
 51 96  1  0  0  0  0
 52 97  1  0  0  0  0
 53 98  1  0  0  0  0
 54 99  1  0  0  0  0
M  CHG  2  20   1  23   1
M  END
>  <result-rank>
65

>  <similarity>
0.846

>  <query-name>


>  <query-smiles>
Clc1ccc(cc1)CS(=O)(=O)c2cc3N=C(c4c(N(c3cc2)C)cc5c(c4)C(CCC5(C)C)(C)C)c6ccc(cc6)C([O-])=O

>  <source>
REALspace_2019-12

>  <similarity-descriptor>
0.951;0.935;0.938;0.804;0.976;0.768;0.705;0.705;0.0;0.976;0.0;0.0;0.995;0.909;0.188

>  <similarity-descriptor-smiles>
c1ccccc1;c1ccc(cc1)C;c1ccccc1;CCc1ccccc1;c1CCCNc1;N=C1NC=CS1;N1C(ccC1=O)=O;N1C(ccC1=O)=O;;c1CCCNc1;;;C;S(=O)=O;[NH+]1CC[NH+]CC1.N.C

>  <reaction-name>
s_2

>  <reagent1-name>
2757072

>  <reagent1-smiles>
[R1*]SC([R3*])=NCc1ccc(S(=O)(=O)N)cc1

>  <reagent2-name>
17632298

>  <reagent2-smiles>
[R2*]N([R3*])CC(N1CCN(CC1)C)c2cc3c(N(CCC3)C)cc2

>  <reagent3-name>
9284808

>  <reagent3-smiles>
[R2*]C(c1c(N2C(=O)c3c(cccc3)C2=O)cccc1)=C[R1*]

$$$$
m_273170____10758450____10760336____10766750
          04022017333D 1   1.00000     0.00000     0
            
 72 76  0  0  0  0            999 V2000
   -0.7355   -2.0145    6.6806 S   0  0  0  0  0  0  0  0  0  0  0  0
    0.5235   -2.1865    7.3580 O   0  0  0  0  0  0  0  0  0  0  0  0
   -1.5138   -1.0122    7.3613 O   0  0  0  0  0  0  0  0  0  0  0  0
   -1.5495   -3.4267    6.6798 N   0  0  0  0  0  0  0  0  0  0  0  0
   -0.4479   -1.5105    5.0404 C   0  0  0  0  0  0  0  0  0  0  0  0
   -1.4616   -0.8879    4.3201 C   0  0  0  0  0  0  0  0  0  0  0  0
   -1.2341   -0.4841    3.0085 C   0  0  0  0  0  0  0  0  0  0  0  0
    0.0117   -0.7113    2.4335 C   0  0  0  0  0  0  0  0  0  0  0  0
    1.0250   -1.3345    3.1544 C   0  0  0  0  0  0  0  0  0  0  0  0
    0.7984   -1.7378    4.4657 C   0  0  0  0  0  0  0  0  0  0  0  0
    0.2650   -0.2731    1.0004 C   0  0  3  0  0  0  0  0  0  0  0  0
    1.0000    1.0000    1.0000 N   0  0  0  0  0  0  0  0  0  0  0  0
    2.4017    1.0000    1.0000 C   0  0  0  0  0  0  0  0  0  0  0  0
    3.1912    2.0415    1.0908 N   0  0  0  0  0  0  0  0  0  0  0  0
    4.4560    1.6855    1.0558 N   0  0  0  0  0  0  0  0  0  0  0  0
    4.5040    0.3775    0.9393 C   0  0  0  0  0  0  0  0  0  0  0  0
    3.2232   -0.0772    0.9021 N   0  0  0  0  0  0  0  0  0  0  0  0
    2.8010   -1.4805    0.7791 C   0  0  0  0  0  0  0  0  0  0  0  0
    2.7709   -1.8742   -0.6904 C   0  0  0  0  0  0  0  0  0  0  0  0
    3.8055   -1.6408   -1.5143 N   0  0  0  0  0  0  0  0  0  0  0  0
    3.8164   -1.9753   -2.8179 C   0  0  0  0  0  0  0  0  0  0  0  0
    2.6962   -2.6115   -3.3463 C   0  0  0  0  0  0  0  0  0  0  0  0
    1.5947   -2.8690   -2.5373 C   0  0  0  0  0  0  0  0  0  0  0  0
    1.6354   -2.4978   -1.1972 C   0  0  0  0  0  0  0  0  0  0  0  0
    2.6219   -3.0623   -4.7969 C   0  0  0  0  0  0  0  0  0  0  0  0
    3.6346   -2.3722   -5.6987 C   0  0  0  0  0  0  0  0  0  0  0  0
    4.9983   -2.4575   -5.0319 C   0  0  0  0  0  0  0  0  0  0  0  0
    4.9988   -1.6649   -3.7343 C   0  0  0  0  0  0  0  0  0  0  0  0
    5.7069   -0.4288    0.8647 C   0  0  0  0  0  0  0  0  0  0  0  0
    5.6145   -1.8033    1.0584 C   0  0  0  0  0  0  0  0  0  0  0  0
    6.7700   -2.5739    0.9863 C   0  0  0  0  0  0  0  0  0  0  0  0
    6.6730   -4.2946    1.2254 S   0  0  0  0  0  0  0  0  0  0  0  0
    7.8311   -4.7441    1.9536 O   0  0  0  0  0  0  0  0  0  0  0  0
    5.4836   -4.6089    1.9738 O   0  0  0  0  0  0  0  0  0  0  0  0
    6.6113   -5.1245   -0.3820 C   0  0  0  0  0  0  0  0  0  0  0  0
    8.0056   -1.9901    0.7250 C   0  0  0  0  0  0  0  0  0  0  0  0
    8.0763   -0.6141    0.5339 C   0  0  0  0  0  0  0  0  0  0  0  0
    6.9324    0.1746    0.6016 C   0  0  0  0  0  0  0  0  0  0  0  0
    0.2650    2.2731    0.9996 C   0  0  0  0  0  0  0  0  0  0  0  0
   -1.0631   -0.0916    0.2838 C   0  0  0  0  0  0  0  0  0  0  0  0
   -2.4238   -3.3072    6.2094 H   0  0  0  0  0  0  0  0  0  0  0  0
   -1.0090   -4.1227    6.2071 H   0  0  0  0  0  0  0  0  0  0  0  0
   -2.3532   -0.7307    4.7447 H   0  0  0  0  0  0  0  0  0  0  0  0
   -1.9583   -0.0354    2.4848 H   0  0  0  0  0  0  0  0  0  0  0  0
    1.9164   -1.4925    2.7297 H   0  0  0  0  0  0  0  0  0  0  0  0
    1.5228   -2.1860    4.9895 H   0  0  0  0  0  0  0  0  0  0  0  0
    0.8054   -0.9701    0.5293 H   0  0  0  0  0  0  0  0  0  0  0  0
    1.8880   -1.5896    1.1722 H   0  0  0  0  0  0  0  0  0  0  0  0
    3.4468   -2.0670    1.2681 H   0  0  0  0  0  0  0  0  0  0  0  0
    0.7833   -3.3155   -2.9143 H   0  0  0  0  0  0  0  0  0  0  0  0
    0.8527   -2.6784   -0.6015 H   0  0  0  0  0  0  0  0  0  0  0  0
    1.7044   -2.8661   -5.1428 H   0  0  0  0  0  0  0  0  0  0  0  0
    2.7873   -4.0479   -4.8311 H   0  0  0  0  0  0  0  0  0  0  0  0
    3.3784   -1.4138   -5.8245 H   0  0  0  0  0  0  0  0  0  0  0  0
    3.6631   -2.8291   -6.5878 H   0  0  0  0  0  0  0  0  0  0  0  0
    5.2102   -3.4146   -4.8344 H   0  0  0  0  0  0  0  0  0  0  0  0
    5.6912   -2.0829   -5.6480 H   0  0  0  0  0  0  0  0  0  0  0  0
    5.8430   -1.8715   -3.2397 H   0  0  0  0  0  0  0  0  0  0  0  0
    4.9746   -0.6911   -3.9604 H   0  0  0  0  0  0  0  0  0  0  0  0
    4.7303   -2.2309    1.2466 H   0  0  0  0  0  0  0  0  0  0  0  0
    5.8071   -4.8124   -0.8877 H   0  0  0  0  0  0  0  0  0  0  0  0
    7.4373   -4.9063   -0.9017 H   0  0  0  0  0  0  0  0  0  0  0  0
    6.5555   -6.1135   -0.2446 H   0  0  0  0  0  0  0  0  0  0  0  0
    8.8314   -2.5519    0.6753 H   0  0  0  0  0  0  0  0  0  0  0  0
    8.9604   -0.1865    0.3456 H   0  0  0  0  0  0  0  0  0  0  0  0
    6.9903    1.1632    0.4628 H   0  0  0  0  0  0  0  0  0  0  0  0
   -0.7182    2.0903    0.9996 H   0  0  0  0  0  0  0  0  0  0  0  0
    0.5066    2.7977    1.8159 H   0  0  0  0  0  0  0  0  0  0  0  0
    0.5066    2.7972    0.1829 H   0  0  0  0  0  0  0  0  0  0  0  0
   -1.5631   -0.9576    0.2841 H   0  0  0  0  0  0  0  0  0  0  0  0
   -1.6036    0.6055    0.7550 H   0  0  0  0  0  0  0  0  0  0  0  0
   -0.8965    0.1968   -0.6591 H   0  0  0  0  0  0  0  0  0  0  0  0
  1  2  2  0  0  0  0
  1  3  2  0  0  0  0
  1  4  1  0  0  0  0
  1  5  1  0  0  0  0
  5  6  1  0  0  0  0
  6  7  2  0  0  0  0
  7  8  1  0  0  0  0
  8  9  2  0  0  0  0
  9 10  1  0  0  0  0
 10  5  2  0  0  0  0
  8 11  1  0  0  0  0
 11 12  1  0  0  0  0
 12 13  1  0  0  0  0
 13 14  2  0  0  0  0
 14 15  1  0  0  0  0
 15 16  2  0  0  0  0
 16 17  1  0  0  0  0
 17 13  1  0  0  0  0
 17 18  1  0  0  0  0
 18 19  1  0  0  0  0
 19 20  1  0  0  0  0
 20 21  2  0  0  0  0
 21 22  1  0  0  0  0
 22 23  2  0  0  0  0
 23 24  1  0  0  0  0
 24 19  2  0  0  0  0
 22 25  1  0  0  0  0
 25 26  1  0  0  0  0
 26 27  1  0  0  0  0
 27 28  1  0  0  0  0
 28 21  1  0  0  0  0
 16 29  1  0  0  0  0
 29 30  1  0  0  0  0
 30 31  2  0  0  0  0
 31 32  1  0  0  0  0
 32 33  2  0  0  0  0
 32 34  2  0  0  0  0
 32 35  1  0  0  0  0
 31 36  1  0  0  0  0
 36 37  2  0  0  0  0
 37 38  1  0  0  0  0
 38 29  2  0  0  0  0
 12 39  1  0  0  0  0
 11 40  1  0  0  0  0
  4 41  1  0  0  0  0
  4 42  1  0  0  0  0
  6 43  1  0  0  0  0
  7 44  1  0  0  0  0
  9 45  1  0  0  0  0
 10 46  1  0  0  0  0
 11 47  1  0  0  0  0
 18 48  1  0  0  0  0
 18 49  1  0  0  0  0
 23 50  1  0  0  0  0
 24 51  1  0  0  0  0
 25 52  1  0  0  0  0
 25 53  1  0  0  0  0
 26 54  1  0  0  0  0
 26 55  1  0  0  0  0
 27 56  1  0  0  0  0
 27 57  1  0  0  0  0
 28 58  1  0  0  0  0
 28 59  1  0  0  0  0
 30 60  1  0  0  0  0
 35 61  1  0  0  0  0
 35 62  1  0  0  0  0
 35 63  1  0  0  0  0
 36 64  1  0  0  0  0
 37 65  1  0  0  0  0
 38 66  1  0  0  0  0
 39 67  1  0  0  0  0
 39 68  1  0  0  0  0
 39 69  1  0  0  0  0
 40 70  1  0  0  0  0
 40 71  1  0  0  0  0
 40 72  1  0  0  0  0
M  END
>  <result-rank>
66

>  <similarity>
0.846

>  <query-name>


>  <query-smiles>
Clc1ccc(cc1)CS(=O)(=O)c2cc3N=C(c4c(N(c3cc2)C)cc5c(c4)C(CCC5(C)C)(C)C)c6ccc(cc6)C([O-])=O

>  <source>
REALspace_2019-12

>  <similarity-descriptor>
0.0;0.947;0.939;0.776;0.962;0.660;0.950;1.000;1.000;0.962;0.962;0.0;0.0;0.909;0.143

>  <similarity-descriptor-smiles>
;c1ccc(cc1)C;c1ccccc1;Cc1ccccn1;c1CCCCc1;NC=1NC=NN1;C;S(=O)=O;C;c1CCCCc1;c1CCCCc1;;;S(=O)=O;N.C

>  <reaction-name>
m_273170

>  <reagent1-name>
10758450

>  <reagent1-smiles>
[R2*]=C([R1*])N([R3*])Cc1nc2c(cc1)CCCC2

>  <reagent2-name>
10760336

>  <reagent2-smiles>
[R1*]N(C(c1ccc(S(=O)(=O)N)cc1)C)C

>  <reagent3-name>
10766750

>  <reagent3-smiles>
[R2*]=NN=C([R3*])c1cc(S(=O)(=O)C)ccc1

$$$$
m_276010a____17281948____17271986____17280982
          04022017333D 1   1.00000     0.00000     0
            
 52 55  0  0  0  0            999 V2000
   -1.7579    5.7632    1.0047 F   0  0  0  0  0  0  0  0  0  0  0  0
   -1.0921    4.6119    1.0042 C   0  0  0  0  0  0  0  0  0  0  0  0
   -0.0736    4.3981    0.0815 C   0  0  0  0  0  0  0  0  0  0  0  0
    0.6287    3.1970    0.0740 C   0  0  0  0  0  0  0  0  0  0  0  0
    0.2999    2.2125    1.0000 C   0  0  0  0  0  0  0  0  0  0  0  0
    1.0000    1.0000    1.0000 N   0  0  0  0  0  0  0  0  0  0  0  0
    2.3700    1.0000    1.0000 C   0  0  0  0  0  0  0  0  0  0  0  0
    2.9700    1.9766    1.3554 O   0  0  0  0  0  0  0  0  0  0  0  0
    3.1300   -0.2370    0.5498 C   0  0  0  0  0  0  0  0  0  0  0  0
    2.5300   -1.2135    0.1943 O   0  0  0  0  0  0  0  0  0  0  0  0
    4.6500   -0.2370    0.5498 C   0  0  0  0  0  0  0  0  0  0  0  0
    5.1568   -0.9537    1.7911 C   0  0  0  0  0  0  0  0  0  0  0  0
    5.3847   -2.3254    1.7437 C   0  0  0  0  0  0  0  0  0  0  0  0
    5.8496   -2.9860    2.8758 C   0  0  0  0  0  0  0  0  0  0  0  0
    6.0818   -2.2645    4.0423 C   0  0  0  0  0  0  0  0  0  0  0  0
    5.8533   -0.8935    4.0910 C   0  0  0  0  0  0  0  0  0  0  0  0
    5.3870   -0.2332    2.9591 C   0  0  0  0  0  0  0  0  0  0  0  0
    6.5908   -2.9809    5.2826 C   0  0  0  0  0  0  0  0  0  0  0  0
    7.9208   -2.9810    5.2800 F   0  0  0  0  0  0  0  0  0  0  0  0
    6.1496   -2.3538    6.3693 F   0  0  0  0  0  0  0  0  0  0  0  0
    6.1474   -4.2348    5.2836 F   0  0  0  0  0  0  0  0  0  0  0  0
   -0.7171    2.4178    1.9268 C   0  0  0  0  0  0  0  0  0  0  0  0
   -1.4137    3.6220    1.9273 C   0  0  0  0  0  0  0  0  0  0  0  0
    0.2757    5.4190   -0.8878 C   0  0  0  0  0  0  0  0  0  0  0  0
    1.2625    6.3488   -0.7553 N   0  0  0  0  0  0  0  0  0  0  0  0
    1.2659    7.0623   -1.7969 N   0  0  0  0  0  0  0  0  0  0  0  0
    0.3403    6.6690   -2.6374 N   0  0  0  0  0  0  0  0  0  0  0  0
    0.0774    7.2426   -3.8870 C   0  0  0  0  0  0  0  0  0  0  0  0
    0.8416    8.3251   -4.3112 C   0  0  0  0  0  0  0  0  0  0  0  0
    0.5805    8.8948   -5.5532 C   0  0  0  0  0  0  0  0  0  0  0  0
   -0.4341    8.3815   -6.3542 C   0  0  0  0  0  0  0  0  0  0  0  0
   -0.6965    8.9550   -7.6039 N   0  3  0  0  0  0  0  0  0  0  0  0
   -1.5864    8.5050   -8.3068 O   0  5  0  0  0  0  0  0  0  0  0  0
   -0.0408    9.8970   -7.9870 O   0  0  0  0  0  0  0  0  0  0  0  0
   -1.1984    7.2989   -5.9303 C   0  0  0  0  0  0  0  0  0  0  0  0
   -0.9374    6.7294   -4.6881 C   0  0  0  0  0  0  0  0  0  0  0  0
   -0.3208    5.6131   -2.0926 C   0  0  0  0  0  0  0  0  0  0  0  0
    1.3612    3.0434   -0.5892 H   0  0  0  0  0  0  0  0  0  0  0  0
    0.5000    0.1340    1.0000 H   0  0  0  0  0  0  0  0  0  0  0  0
    4.9833   -0.7084   -0.2667 H   0  0  0  0  0  0  0  0  0  0  0  0
    4.9833    0.7058    0.5498 H   0  0  0  0  0  0  0  0  0  0  0  0
    5.2151   -2.8339    0.8995 H   0  0  0  0  0  0  0  0  0  0  0  0
    6.0157   -3.9718    2.8515 H   0  0  0  0  0  0  0  0  0  0  0  0
    6.0233   -0.3853    4.9353 H   0  0  0  0  0  0  0  0  0  0  0  0
    5.2184    0.7522    2.9845 H   0  0  0  0  0  0  0  0  0  0  0  0
   -0.9461    1.7041    2.5887 H   0  0  0  0  0  0  0  0  0  0  0  0
   -2.1455    3.7760    2.5911 H   0  0  0  0  0  0  0  0  0  0  0  0
    1.5696    8.6892   -3.7303 H   0  0  0  0  0  0  0  0  0  0  0  0
    1.1222    9.6733   -5.8700 H   0  0  0  0  0  0  0  0  0  0  0  0
   -1.9263    6.9347   -6.5113 H   0  0  0  0  0  0  0  0  0  0  0  0
   -1.4794    5.9511   -4.3711 H   0  0  0  0  0  0  0  0  0  0  0  0
   -1.0778    5.0947   -2.4905 H   0  0  0  0  0  0  0  0  0  0  0  0
  1  2  1  0  0  0  0
  2  3  1  0  0  0  0
  3  4  2  0  0  0  0
  4  5  1  0  0  0  0
  5  6  1  0  0  0  0
  6  7  1  0  0  0  0
  7  8  2  0  0  0  0
  7  9  1  0  0  0  0
  9 10  2  0  0  0  0
  9 11  1  0  0  0  0
 11 12  1  0  0  0  0
 12 13  1  0  0  0  0
 13 14  2  0  0  0  0
 14 15  1  0  0  0  0
 15 16  2  0  0  0  0
 16 17  1  0  0  0  0
 17 12  2  0  0  0  0
 15 18  1  0  0  0  0
 18 19  1  0  0  0  0
 18 20  1  0  0  0  0
 18 21  1  0  0  0  0
  5 22  2  0  0  0  0
 22 23  1  0  0  0  0
 23  2  2  0  0  0  0
  3 24  1  0  0  0  0
 24 25  1  0  0  0  0
 25 26  2  0  0  0  0
 26 27  1  0  0  0  0
 27 28  1  0  0  0  0
 28 29  1  0  0  0  0
 29 30  2  0  0  0  0
 30 31  1  0  0  0  0
 31 32  1  0  0  0  0
 32 33  1  0  0  0  0
 32 34  2  0  0  0  0
 31 35  2  0  0  0  0
 35 36  1  0  0  0  0
 36 28  2  0  0  0  0
 27 37  1  0  0  0  0
 24 37  2  0  0  0  0
  4 38  1  0  0  0  0
  6 39  1  0  0  0  0
 11 40  1  0  0  0  0
 11 41  1  0  0  0  0
 13 42  1  0  0  0  0
 14 43  1  0  0  0  0
 16 44  1  0  0  0  0
 17 45  1  0  0  0  0
 22 46  1  0  0  0  0
 23 47  1  0  0  0  0
 29 48  1  0  0  0  0
 30 49  1  0  0  0  0
 35 50  1  0  0  0  0
 36 51  1  0  0  0  0
 37 52  1  0  0  0  0
M  CHG  2  32   1  33  -1
M  END
>  <result-rank>
67

>  <similarity>
0.846

>  <query-name>


>  <query-smiles>
Clc1ccc(cc1)CS(=O)(=O)c2cc3N=C(c4c(N(c3cc2)C)cc5c(c4)C(CCC5(C)C)(C)C)c6ccc(cc6)C([O-])=O

>  <source>
REALspace_2019-12

>  <similarity-descriptor>
0.975;0.996;0.963;0.0;0.0;0.635;0.997;0.788;0.0;0.0;0.0;0.0;0.0;0.910;0.0

>  <similarity-descriptor-smiles>
c1ccc(cc1)C(F)(F)F;c1ccccc1;Fc1ccccc1;;;C1=CNN=N1;C;NC(=O)C=O;;;;;;[N+]([O-])=O;

>  <reaction-name>
m_276010a

>  <reagent1-name>
17281948

>  <reagent1-smiles>
[R1*]N=NN([R2*])c1ccc([N+]([O-])=O)cc1

>  <reagent2-name>
17271986

>  <reagent2-smiles>
[R3*]C(=O)C(=O)Cc1ccc(cc1)C(F)(F)F

>  <reagent3-name>
17280982

>  <reagent3-smiles>
[R3*]Nc1cc(c(F)cc1)C([R1*])=C[R2*]

$$$$
s_2____11687950____9397400____7025780
          04022017333D 1   1.00000     0.00000     0
            
 66 71  0  0  0  0            999 V2000
    8.6746    4.8465    6.5666 S   0  0  0  0  0  0  0  0  0  0  0  0
    7.7920    5.6072    7.4126 O   0  0  0  0  0  0  0  0  0  0  0  0
    9.3913    3.8840    7.3627 O   0  0  0  0  0  0  0  0  0  0  0  0
    9.7352    5.8517    5.8444 N   0  0  0  0  0  0  0  0  0  0  0  0
    7.7433    4.0173    5.3535 C   0  0  0  0  0  0  0  0  0  0  0  0
    8.0233    4.2276    4.0074 C   0  0  0  0  0  0  0  0  0  0  0  0
    7.2750    3.5624    3.0423 C   0  0  0  0  0  0  0  0  0  0  0  0
    6.2585    2.6964    3.4312 C   0  0  0  0  0  0  0  0  0  0  0  0
    5.5094    2.0301    2.4537 N   0  0  0  0  0  0  0  0  0  0  0  0
    4.2406    2.1295    2.4468 C   0  0  0  0  0  0  0  0  0  0  0  0
    3.3299    3.5681    2.4036 S   0  0  0  0  0  0  0  0  0  0  0  0
    1.7813    2.8529    2.4247 C   0  0  0  0  0  0  0  0  0  0  0  0
    2.0334    1.5154    2.4653 C   0  0  0  0  0  0  0  0  0  0  0  0
    3.3388    1.1121    2.4746 N   0  0  0  0  0  0  0  0  0  0  0  0
    3.7804   -0.2891    2.5193 C   0  0  0  0  0  0  0  0  0  0  0  0
    3.8190   -0.8540    1.1069 C   0  0  0  0  0  0  0  0  0  0  0  0
    2.7564   -1.4566    0.5488 N   0  0  0  0  0  0  0  0  0  0  0  0
    2.7518   -1.9668   -0.6966 C   0  0  0  0  0  0  0  0  0  0  0  0
    3.9108   -1.8558   -1.4603 C   0  0  0  0  0  0  0  0  0  0  0  0
    5.0417   -1.2478   -0.9263 C   0  0  0  0  0  0  0  0  0  0  0  0
    4.9925   -0.7413    0.3685 C   0  0  0  0  0  0  0  0  0  0  0  0
    3.9982   -2.3670   -2.8900 C   0  0  0  0  0  0  0  0  0  0  0  0
    2.9199   -3.3826   -3.2376 C   0  0  0  0  0  0  0  0  0  0  0  0
    1.5778   -2.8168   -2.8014 C   0  0  0  0  0  0  0  0  0  0  0  0
    1.5344   -2.6754   -1.2882 C   0  0  0  0  0  0  0  0  0  0  0  0
    0.9034    0.6099    2.4960 C   0  0  0  0  0  0  0  0  0  0  0  0
    0.8739   -0.6185    3.0843 N   0  0  0  0  0  0  0  0  0  0  0  0
   -0.2761   -1.1075    2.9041 N   0  0  0  0  0  0  0  0  0  0  0  0
   -1.0371   -0.2799    2.2304 N   0  0  0  0  0  0  0  0  0  0  0  0
   -2.3688   -0.5119    1.8634 C   0  0  0  0  0  0  0  0  0  0  0  0
   -3.2171    0.5678    1.6415 C   0  0  0  0  0  0  0  0  0  0  0  0
   -4.5374    0.3249    1.2778 C   0  0  0  0  0  0  0  0  0  0  0  0
   -5.0125   -0.9745    1.1358 C   0  0  0  0  0  0  0  0  0  0  0  0
   -4.1453   -2.0386    1.3627 C   0  0  0  0  0  0  0  0  0  0  0  0
   -2.8213   -1.8197    1.7271 C   0  0  0  0  0  0  0  0  0  0  0  0
   -5.4697    1.5007    1.0342 C   0  0  0  0  0  0  0  0  0  0  0  0
   -5.4106    1.8555   -0.2462 F   0  0  0  0  0  0  0  0  0  0  0  0
   -6.7155    1.1495    1.3399 F   0  0  0  0  0  0  0  0  0  0  0  0
   -5.0985    2.5259    1.7959 F   0  0  0  0  0  0  0  0  0  0  0  0
   -0.3180    0.8389    1.9475 C   0  0  0  0  0  0  0  0  0  0  0  0
    5.9835    2.4907    4.7785 C   0  0  0  0  0  0  0  0  0  0  0  0
    6.7279    3.1530    5.7488 C   0  0  0  0  0  0  0  0  0  0  0  0
   10.3481    5.3235    5.2569 H   0  0  0  0  0  0  0  0  0  0  0  0
    9.2375    6.5201    5.2916 H   0  0  0  0  0  0  0  0  0  0  0  0
    8.7562    4.8515    3.7361 H   0  0  0  0  0  0  0  0  0  0  0  0
    7.4671    3.7063    2.0716 H   0  0  0  0  0  0  0  0  0  0  0  0
    0.8925    3.3109    2.4105 H   0  0  0  0  0  0  0  0  0  0  0  0
    3.1419   -0.8223    3.0742 H   0  0  0  0  0  0  0  0  0  0  0  0
    4.6940   -0.3380    2.9229 H   0  0  0  0  0  0  0  0  0  0  0  0
    5.8802   -1.1755   -1.4664 H   0  0  0  0  0  0  0  0  0  0  0  0
    5.7962   -0.2987    0.7662 H   0  0  0  0  0  0  0  0  0  0  0  0
    4.8917   -2.7974   -3.0184 H   0  0  0  0  0  0  0  0  0  0  0  0
    3.9113   -1.5879   -3.5108 H   0  0  0  0  0  0  0  0  0  0  0  0
    3.0970   -4.2422   -2.7582 H   0  0  0  0  0  0  0  0  0  0  0  0
    2.9140   -3.5463   -4.2241 H   0  0  0  0  0  0  0  0  0  0  0  0
    1.4459   -1.9187   -3.2210 H   0  0  0  0  0  0  0  0  0  0  0  0
    0.8478   -3.4331   -3.0967 H   0  0  0  0  0  0  0  0  0  0  0  0
    0.7171   -2.1533   -1.0442 H   0  0  0  0  0  0  0  0  0  0  0  0
    1.4774   -3.5901   -0.8881 H   0  0  0  0  0  0  0  0  0  0  0  0
   -2.8827    1.5048    1.7419 H   0  0  0  0  0  0  0  0  0  0  0  0
   -5.9632   -1.1415    0.8744 H   0  0  0  0  0  0  0  0  0  0  0  0
   -4.4795   -2.9757    1.2621 H   0  0  0  0  0  0  0  0  0  0  0  0
   -2.2046   -2.5902    1.8885 H   0  0  0  0  0  0  0  0  0  0  0  0
   -0.6209    1.6499    1.4470 H   0  0  0  0  0  0  0  0  0  0  0  0
    5.2507    1.8668    5.0498 H   0  0  0  0  0  0  0  0  0  0  0  0
    6.5353    3.0094    6.7195 H   0  0  0  0  0  0  0  0  0  0  0  0
  1  2  2  0  0  0  0
  1  3  2  0  0  0  0
  1  4  1  0  0  0  0
  1  5  1  0  0  0  0
  5  6  1  0  0  0  0
  6  7  2  0  0  0  0
  7  8  1  0  0  0  0
  8  9  1  0  0  0  0
  9 10  2  0  0  0  0
 10 11  1  0  0  0  0
 11 12  1  0  0  0  0
 12 13  2  0  0  0  0
 13 14  1  0  0  0  0
 14 10  1  0  0  0  0
 14 15  1  0  0  0  0
 15 16  1  0  0  0  0
 16 17  1  0  0  0  0
 17 18  2  0  0  0  0
 18 19  1  0  0  0  0
 19 20  2  0  0  0  0
 20 21  1  0  0  0  0
 21 16  2  0  0  0  0
 19 22  1  0  0  0  0
 22 23  1  0  0  0  0
 23 24  1  0  0  0  0
 24 25  1  0  0  0  0
 25 18  1  0  0  0  0
 13 26  1  0  0  0  0
 26 27  1  0  0  0  0
 27 28  2  0  0  0  0
 28 29  1  0  0  0  0
 29 30  1  0  0  0  0
 30 31  1  0  0  0  0
 31 32  2  0  0  0  0
 32 33  1  0  0  0  0
 33 34  2  0  0  0  0
 34 35  1  0  0  0  0
 35 30  2  0  0  0  0
 32 36  1  0  0  0  0
 36 37  1  0  0  0  0
 36 38  1  0  0  0  0
 36 39  1  0  0  0  0
 29 40  1  0  0  0  0
 26 40  2  0  0  0  0
  8 41  2  0  0  0  0
 41 42  1  0  0  0  0
 42  5  2  0  0  0  0
  4 43  1  0  0  0  0
  4 44  1  0  0  0  0
  6 45  1  0  0  0  0
  7 46  1  0  0  0  0
 12 47  1  0  0  0  0
 15 48  1  0  0  0  0
 15 49  1  0  0  0  0
 20 50  1  0  0  0  0
 21 51  1  0  0  0  0
 22 52  1  0  0  0  0
 22 53  1  0  0  0  0
 23 54  1  0  0  0  0
 23 55  1  0  0  0  0
 24 56  1  0  0  0  0
 24 57  1  0  0  0  0
 25 58  1  0  0  0  0
 25 59  1  0  0  0  0
 31 60  1  0  0  0  0
 33 61  1  0  0  0  0
 34 62  1  0  0  0  0
 35 63  1  0  0  0  0
 40 64  1  0  0  0  0
 41 65  1  0  0  0  0
 42 66  1  0  0  0  0
M  END
>  <result-rank>
68

>  <similarity>
0.845

>  <query-name>


>  <query-smiles>
Clc1ccc(cc1)CS(=O)(=O)c2cc3N=C(c4c(N(c3cc2)C)cc5c(c4)C(CCC5(C)C)(C)C)c6ccc(cc6)C([O-])=O

>  <source>
REALspace_2019-12

>  <similarity-descriptor>
0.974;0.998;0.614;0.776;0.962;0.768;0.614;0.614;0.0;0.962;0.962;0.0;0.0;0.909;0.091

>  <similarity-descriptor-smiles>
c1cccc(c1)C(F)(F)F;c1ccccc1;C1=CNN=N1;Cc1ccccn1;c1CCCCc1;N=C1NC=CS1;C1=CNN=N1;C1=CNN=N1;;c1CCCCc1;c1CCCCc1;;;S(=O)=O;N

>  <reaction-name>
s_2

>  <reagent1-name>
11687950

>  <reagent1-smiles>
[R1*]SC([R3*])=Nc1ccc(S(=O)(=O)N)cc1

>  <reagent2-name>
9397400

>  <reagent2-smiles>
[R2*]N([R3*])Cc1nc2c(cc1)CCCC2

>  <reagent3-name>
7025780

>  <reagent3-smiles>
[R2*]C(C=1N=NN(c2cc(ccc2)C(F)(F)F)C1)=C[R1*]

$$$$
s_49a____88916____88937
          04022017333D 1   1.00000     0.00000     0
            
 59 63  0  0  0  0            999 V2000
    0.4648    3.7275    2.5286 S   0  0  0  0  0  0  0  0  0  0  0  0
   -0.5206    2.9314    3.2133 O   0  0  0  0  0  0  0  0  0  0  0  0
    0.6251    4.9849    3.2117 O   0  0  0  0  0  0  0  0  0  0  0  0
    1.9839    2.8799    2.5100 C   0  0  0  0  0  0  0  0  0  0  0  0
    3.1739    3.5998    2.5018 C   0  0  0  0  0  0  0  0  0  0  0  0
    4.3852    2.9166    2.4862 C   0  0  0  0  0  0  0  0  0  0  0  0
    4.3944    1.5259    2.4798 C   0  0  0  0  0  0  0  0  0  0  0  0
    5.6193    0.8443    2.4642 N   0  0  0  0  0  0  0  0  0  0  0  0
    5.9905    0.1847    3.5482 N   0  0  0  0  0  0  0  0  0  0  0  0
    7.1300   -0.4822    3.6139 C   0  0  0  0  0  0  0  0  0  0  0  0
    8.0070   -0.5074    2.4916 C   0  0  0  0  0  0  0  0  0  0  0  0
    7.6376    0.1782    1.3384 C   0  0  0  0  0  0  0  0  0  0  0  0
    8.4876    0.1596    0.2336 C   0  0  0  0  0  0  0  0  0  0  0  0
    9.6984   -0.5246    0.2456 C   0  0  0  0  0  0  0  0  0  0  0  0
   10.0710   -1.2120    1.3962 C   0  0  0  0  0  0  0  0  0  0  0  0
    9.2221   -1.1926    2.4980 C   0  0  0  0  0  0  0  0  0  0  0  0
    6.3976    0.8764    1.3355 C   0  0  0  0  0  0  0  0  0  0  0  0
    6.0040    1.5026    0.3620 O   0  0  0  0  0  0  0  0  0  0  0  0
    7.4355   -1.1691    4.8555 C   0  0  0  0  0  0  0  0  0  0  0  0
    7.5389   -0.4334    6.0319 C   0  0  0  0  0  0  0  0  0  0  0  0
    7.8326   -1.0878    7.2242 C   0  0  0  0  0  0  0  0  0  0  0  0
    8.0194   -2.4676    7.2357 C   0  0  0  0  0  0  0  0  0  0  0  0
    7.9126   -3.1972    6.0554 C   0  0  0  0  0  0  0  0  0  0  0  0
    7.6201   -2.5479    4.8604 C   0  0  0  0  0  0  0  0  0  0  0  0
    8.3405   -3.2089    8.5233 C   0  0  0  0  0  0  0  0  0  0  0  0
    7.9489   -0.2941    8.5157 C   0  0  0  0  0  0  0  0  0  0  0  0
    3.2012    0.8122    2.4878 C   0  0  0  0  0  0  0  0  0  0  0  0
    1.9865    1.4891    2.5031 C   0  0  0  0  0  0  0  0  0  0  0  0
   -0.0575    4.0176    0.8946 C   0  0  0  0  0  0  0  0  0  0  0  0
   -0.8530    3.0795    0.2457 C   0  0  0  0  0  0  0  0  0  0  0  0
   -1.2719    3.3092   -1.0609 C   0  0  0  0  0  0  0  0  0  0  0  0
   -0.8855    4.4810   -1.7027 C   0  0  0  0  0  0  0  0  0  0  0  0
   -0.0894    5.4187   -1.0530 C   0  0  0  0  0  0  0  0  0  0  0  0
    0.3290    5.1899    0.2531 C   0  0  0  0  0  0  0  0  0  0  0  0
   -1.3395    4.7362   -3.1304 C   0  0  0  0  0  0  0  0  0  0  0  0
    3.1587    4.5997    2.5070 H   0  0  0  0  0  0  0  0  0  0  0  0
    5.2470    3.4238    2.4797 H   0  0  0  0  0  0  0  0  0  0  0  0
    8.2184    0.6534   -0.5932 H   0  0  0  0  0  0  0  0  0  0  0  0
   10.2915   -0.5224   -0.5596 H   0  0  0  0  0  0  0  0  0  0  0  0
   10.9360   -1.7125    1.4307 H   0  0  0  0  0  0  0  0  0  0  0  0
    9.4925   -1.6874    3.3239 H   0  0  0  0  0  0  0  0  0  0  0  0
    7.4032    0.5573    6.0206 H   0  0  0  0  0  0  0  0  0  0  0  0
    8.0461   -4.1882    6.0664 H   0  0  0  0  0  0  0  0  0  0  0  0
    7.5431   -3.0689    4.0103 H   0  0  0  0  0  0  0  0  0  0  0  0
    8.4380   -4.1853    8.3304 H   0  0  0  0  0  0  0  0  0  0  0  0
    9.1951   -2.8577    8.9059 H   0  0  0  0  0  0  0  0  0  0  0  0
    7.5996   -3.0714    9.1808 H   0  0  0  0  0  0  0  0  0  0  0  0
    7.7867    0.6746    8.3273 H   0  0  0  0  0  0  0  0  0  0  0  0
    7.2704   -0.6241    9.1720 H   0  0  0  0  0  0  0  0  0  0  0  0
    8.8659   -0.4105    8.8971 H   0  0  0  0  0  0  0  0  0  0  0  0
    3.2165   -0.1877    2.4825 H   0  0  0  0  0  0  0  0  0  0  0  0
    1.1248    0.9817    2.5090 H   0  0  0  0  0  0  0  0  0  0  0  0
   -1.1237    2.2406    0.7178 H   0  0  0  0  0  0  0  0  0  0  0  0
   -1.8444    2.6392   -1.5334 H   0  0  0  0  0  0  0  0  0  0  0  0
    0.1819    6.2573   -1.5254 H   0  0  0  0  0  0  0  0  0  0  0  0
    0.9011    5.8603    0.7258 H   0  0  0  0  0  0  0  0  0  0  0  0
   -0.9791    5.6152   -3.4427 H   0  0  0  0  0  0  0  0  0  0  0  0
   -0.9994    4.0067   -3.7238 H   0  0  0  0  0  0  0  0  0  0  0  0
   -2.3388    4.7547   -3.1642 H   0  0  0  0  0  0  0  0  0  0  0  0
  1  2  2  0  0  0  0
  1  3  2  0  0  0  0
  1  4  1  0  0  0  0
  4  5  1  0  0  0  0
  5  6  2  0  0  0  0
  6  7  1  0  0  0  0
  7  8  1  0  0  0  0
  8  9  1  0  0  0  0
  9 10  2  0  0  0  0
 10 11  1  0  0  0  0
 11 12  1  0  0  0  0
 12 13  2  0  0  0  0
 13 14  1  0  0  0  0
 14 15  2  0  0  0  0
 15 16  1  0  0  0  0
 16 11  2  0  0  0  0
 12 17  1  0  0  0  0
 17  8  1  0  0  0  0
 17 18  2  0  0  0  0
 10 19  1  0  0  0  0
 19 20  1  0  0  0  0
 20 21  2  0  0  0  0
 21 22  1  0  0  0  0
 22 23  2  0  0  0  0
 23 24  1  0  0  0  0
 24 19  2  0  0  0  0
 22 25  1  0  0  0  0
 21 26  1  0  0  0  0
  7 27  2  0  0  0  0
 27 28  1  0  0  0  0
 28  4  2  0  0  0  0
  1 29  1  0  0  0  0
 29 30  1  0  0  0  0
 30 31  2  0  0  0  0
 31 32  1  0  0  0  0
 32 33  2  0  0  0  0
 33 34  1  0  0  0  0
 34 29  2  0  0  0  0
 32 35  1  0  0  0  0
  5 36  1  0  0  0  0
  6 37  1  0  0  0  0
 13 38  1  0  0  0  0
 14 39  1  0  0  0  0
 15 40  1  0  0  0  0
 16 41  1  0  0  0  0
 20 42  1  0  0  0  0
 23 43  1  0  0  0  0
 24 44  1  0  0  0  0
 25 45  1  0  0  0  0
 25 46  1  0  0  0  0
 25 47  1  0  0  0  0
 26 48  1  0  0  0  0
 26 49  1  0  0  0  0
 26 50  1  0  0  0  0
 27 51  1  0  0  0  0
 28 52  1  0  0  0  0
 30 53  1  0  0  0  0
 31 54  1  0  0  0  0
 33 55  1  0  0  0  0
 34 56  1  0  0  0  0
 35 57  1  0  0  0  0
 35 58  1  0  0  0  0
 35 59  1  0  0  0  0
M  END
>  <result-rank>
69

>  <similarity>
0.845

>  <query-name>


>  <query-smiles>
Clc1ccc(cc1)CS(=O)(=O)c2cc3N=C(c4c(N(c3cc2)C)cc5c(c4)C(CCC5(C)C)(C)C)c6ccc(cc6)C([O-])=O

>  <source>
REALspace_2019-12

>  <similarity-descriptor>
0.958;0.984;0.937;0.750;0.750;0.650;0.898;0.898;0.0;0.0;0.0;1.000;1.000;0.0;0.0

>  <similarity-descriptor-smiles>
c1ccc(cc1)C;c1ccccc1;c1ccccc1;c1ccccc1;c1ccccc1;N1C(ccC=N1)=O;S(=O)=O;S(=O)=O;;;;C;C;;

>  <reaction-name>
s_49a

>  <reagent1-name>
88916

>  <reagent1-smiles>
[R1*]N(N[R2*])c1ccc(S(=O)(=O)c2ccc(cc2)C)cc1

>  <reagent2-name>
88937

>  <reagent2-smiles>
[R2*]=C(c1c(cccc1)C([R1*])=O)c2cc(c(cc2)C)C

$$$$
s_17____13608250____62255
          04022017333D 1   1.00000     0.00000     0
            
 69 74  0  0  0  0            999 V2000
   -1.7398    5.5548    4.8295 S   0  0  0  0  0  0  0  0  0  0  0  0
   -3.1693    5.3815    4.8174 O   0  0  0  0  0  0  0  0  0  0  0  0
   -1.1929    4.9486    6.0157 O   0  0  0  0  0  0  0  0  0  0  0  0
   -1.3852    7.1457    4.8194 N   0  0  0  0  0  0  0  0  0  0  0  0
   -2.1321    8.0244    4.0255 C   0  0  0  0  0  0  0  0  0  0  0  0
   -3.2357    8.6725    4.5694 C   0  0  0  0  0  0  0  0  0  0  0  0
   -3.5757    8.4567    5.8367 F   0  0  0  0  0  0  0  0  0  0  0  0
   -3.9892    9.5491    3.7956 C   0  0  0  0  0  0  0  0  0  0  0  0
   -3.6221    9.7662    2.4719 C   0  0  0  0  0  0  0  0  0  0  0  0
   -2.5197    9.1195    1.9236 C   0  0  0  0  0  0  0  0  0  0  0  0
   -1.7690    8.2447    2.7009 C   0  0  0  0  0  0  0  0  0  0  0  0
   -1.0518    4.7982    3.4214 C   0  0  0  0  0  0  0  0  0  0  0  0
    0.1689    4.1389    3.5195 C   0  0  0  0  0  0  0  0  0  0  0  0
    0.7023    3.5410    2.3828 C   0  0  0  0  0  0  0  0  0  0  0  0
    1.9309    2.8769    2.4773 N   0  0  0  0  0  0  0  0  0  0  0  0
    3.1164    3.6256    2.4609 C   0  0  0  0  0  0  0  0  0  0  0  0
    3.0534    4.8398    2.3993 O   0  0  0  0  0  0  0  0  0  0  0  0
    4.3855    2.9320    2.4986 C   0  0  0  0  0  0  0  0  0  0  0  0
    4.4510    1.5464    2.6070 C   0  0  0  0  0  0  0  0  0  0  0  0
    5.6715    0.8750    2.5931 C   0  0  0  0  0  0  0  0  0  0  0  0
    6.8565    1.5883    2.4894 C   0  0  0  0  0  0  0  0  0  0  0  0
    6.8193    2.9747    2.4197 C   0  0  0  0  0  0  0  0  0  0  0  0
    5.5910    3.6248    2.4127 C   0  0  0  0  0  0  0  0  0  0  0  0
    3.2136    0.8092    2.7554 C   0  0  0  0  0  0  0  0  0  0  0  0
    1.9363    1.4806    2.5853 C   0  0  0  0  0  0  0  0  0  0  0  0
    0.8901    0.8552    2.5327 O   0  0  0  0  0  0  0  0  0  0  0  0
    3.1926   -0.4694    3.1142 C   0  0  0  0  0  0  0  0  0  0  0  0
    3.0297   -1.4445    2.1658 N   0  0  0  0  0  0  0  0  0  0  0  0
    3.0076   -2.7924    2.5441 C   0  0  0  0  0  0  0  0  0  0  0  0
    2.8123   -4.0956    1.4629 S   0  0  0  0  0  0  0  0  0  0  0  0
    2.8934   -5.3024    2.6622 C   0  0  0  0  0  0  0  0  0  0  0  0
    3.0752   -4.6497    3.8469 C   0  0  0  0  0  0  0  0  0  0  0  0
    3.1310   -3.2788    3.7618 N   0  0  0  0  0  0  0  0  0  0  0  0
    3.1843   -5.5186    5.0947 C   0  0  3  0  0  0  0  0  0  0  0  0
    2.7218   -6.9513    4.8834 C   0  0  0  0  0  0  0  0  0  0  0  0
    3.3803   -7.5079    3.6325 C   0  0  0  0  0  0  0  0  0  0  0  0
    2.7707   -6.7978    2.4350 C   0  0  0  0  0  0  0  0  0  0  0  0
    2.3696   -4.8681    6.2019 C   0  0  0  0  0  0  0  0  0  0  0  0
    2.4599   -5.7143    7.4614 C   0  0  0  0  0  0  0  0  0  0  0  0
    0.0316    3.5980    1.1653 C   0  0  0  0  0  0  0  0  0  0  0  0
   -1.1885    4.2607    1.0806 C   0  0  0  0  0  0  0  0  0  0  0  0
   -1.7330    4.8630    2.2102 C   0  0  0  0  0  0  0  0  0  0  0  0
   -0.6343    7.4942    5.3803 H   0  0  0  0  0  0  0  0  0  0  0  0
   -4.7830   10.0160    4.1852 H   0  0  0  0  0  0  0  0  0  0  0  0
   -4.1572   10.3949    1.9075 H   0  0  0  0  0  0  0  0  0  0  0  0
   -2.2669    9.2837    0.9701 H   0  0  0  0  0  0  0  0  0  0  0  0
   -0.9750    7.7781    2.3112 H   0  0  0  0  0  0  0  0  0  0  0  0
    0.6547    4.0955    4.3925 H   0  0  0  0  0  0  0  0  0  0  0  0
    5.6933   -0.1226    2.6581 H   0  0  0  0  0  0  0  0  0  0  0  0
    7.7326    1.1069    2.4648 H   0  0  0  0  0  0  0  0  0  0  0  0
    7.6687    3.5005    2.3750 H   0  0  0  0  0  0  0  0  0  0  0  0
    5.5719    4.6222    2.3438 H   0  0  0  0  0  0  0  0  0  0  0  0
    3.2958   -0.7203    4.0767 H   0  0  0  0  0  0  0  0  0  0  0  0
    2.9266   -1.1935    1.2033 H   0  0  0  0  0  0  0  0  0  0  0  0
    4.1424   -5.5377    5.3805 H   0  0  0  0  0  0  0  0  0  0  0  0
    1.7278   -6.9696    4.7748 H   0  0  0  0  0  0  0  0  0  0  0  0
    2.9810   -7.5067    5.6735 H   0  0  0  0  0  0  0  0  0  0  0  0
    4.3656   -7.3401    3.6628 H   0  0  0  0  0  0  0  0  0  0  0  0
    3.2115   -8.4914    3.5675 H   0  0  0  0  0  0  0  0  0  0  0  0
    3.2608   -7.0556    1.6023 H   0  0  0  0  0  0  0  0  0  0  0  0
    1.8070   -7.0493    2.3460 H   0  0  0  0  0  0  0  0  0  0  0  0
    1.4142   -4.7977    5.9154 H   0  0  0  0  0  0  0  0  0  0  0  0
    2.7301   -3.9541    6.3879 H   0  0  0  0  0  0  0  0  0  0  0  0
    1.9242   -5.2865    8.1894 H   0  0  0  0  0  0  0  0  0  0  0  0
    2.0995   -6.6283    7.2754 H   0  0  0  0  0  0  0  0  0  0  0  0
    3.4154   -5.7847    7.7479 H   0  0  0  0  0  0  0  0  0  0  0  0
    0.4248    3.1643    0.3546 H   0  0  0  0  0  0  0  0  0  0  0  0
   -1.6743    4.3042    0.2076 H   0  0  0  0  0  0  0  0  0  0  0  0
   -2.6098    5.3402    2.1519 H   0  0  0  0  0  0  0  0  0  0  0  0
  1  2  2  0  0  0  0
  1  3  2  0  0  0  0
  1  4  1  0  0  0  0
  4  5  1  0  0  0  0
  5  6  1  0  0  0  0
  6  7  1  0  0  0  0
  6  8  2  0  0  0  0
  8  9  1  0  0  0  0
  9 10  2  0  0  0  0
 10 11  1  0  0  0  0
 11  5  2  0  0  0  0
  1 12  1  0  0  0  0
 12 13  1  0  0  0  0
 13 14  2  0  0  0  0
 14 15  1  0  0  0  0
 15 16  1  0  0  0  0
 16 17  2  0  0  0  0
 16 18  1  0  0  0  0
 18 19  1  0  0  0  0
 19 20  2  0  0  0  0
 20 21  1  0  0  0  0
 21 22  2  0  0  0  0
 22 23  1  0  0  0  0
 23 18  2  0  0  0  0
 19 24  1  0  0  0  0
 24 25  1  0  0  0  0
 25 15  1  0  0  0  0
 25 26  2  0  0  0  0
 24 27  2  0  0  0  0
 27 28  1  0  0  0  0
 28 29  1  0  0  0  0
 29 30  1  0  0  0  0
 30 31  1  0  0  0  0
 31 32  2  0  0  0  0
 32 33  1  0  0  0  0
 29 33  2  0  0  0  0
 32 34  1  0  0  0  0
 34 35  1  0  0  0  0
 35 36  1  0  0  0  0
 36 37  1  0  0  0  0
 37 31  1  0  0  0  0
 34 38  1  0  0  0  0
 38 39  1  0  0  0  0
 14 40  1  0  0  0  0
 40 41  2  0  0  0  0
 41 42  1  0  0  0  0
 42 12  2  0  0  0  0
  4 43  1  0  0  0  0
  8 44  1  0  0  0  0
  9 45  1  0  0  0  0
 10 46  1  0  0  0  0
 11 47  1  0  0  0  0
 13 48  1  0  0  0  0
 20 49  1  0  0  0  0
 21 50  1  0  0  0  0
 22 51  1  0  0  0  0
 23 52  1  0  0  0  0
 27 53  1  0  0  0  0
 28 54  1  0  0  0  0
 34 55  1  0  0  0  0
 35 56  1  0  0  0  0
 35 57  1  0  0  0  0
 36 58  1  0  0  0  0
 36 59  1  0  0  0  0
 37 60  1  0  0  0  0
 37 61  1  0  0  0  0
 38 62  1  0  0  0  0
 38 63  1  0  0  0  0
 39 64  1  0  0  0  0
 39 65  1  0  0  0  0
 39 66  1  0  0  0  0
 40 67  1  0  0  0  0
 41 68  1  0  0  0  0
 42 69  1  0  0  0  0
M  END
>  <result-rank>
70

>  <similarity>
0.845

>  <query-name>


>  <query-smiles>
Clc1ccc(cc1)CS(=O)(=O)c2cc3N=C(c4c(N(c3cc2)C)cc5c(c4)C(CCC5(C)C)(C)C)c6ccc(cc6)C([O-])=O

>  <source>
REALspace_2019-12

>  <similarity-descriptor>
0.922;0.984;0.937;0.672;0.948;0.651;0.901;0.901;0.651;0.948;0.948;0.0;0.949;0.0;0.083

>  <similarity-descriptor-smiles>
Nc1ccccc1F;c1ccccc1;c1ccccc1;CNC1=NC=CS1;C=1CCCCC1;N1C(CccC1=O)=O;S(=O)=O;S(=O)=O;N1C(CccC1=O)=O;C=1CCCCC1;C=1CCCCC1;;C;;C

>  <reaction-name>
s_17

>  <reagent1-name>
13608250

>  <reagent1-smiles>
[R1*]NC=1SC2=C(N1)C(CCC2)CC

>  <reagent2-name>
62255

>  <reagent2-smiles>
[R1*]C=C1c2c(cccc2)C(=O)N(c3cc(S(=O)(=O)Nc4c(F)cccc4)ccc3)C1=O

$$$$
s_270196____17314194____8779416
          04022017333D 1   1.00000     0.00000     0
            
 60 64  0  0  0  0            999 V2000
    1.0000    1.0000    1.0000 S   0  0  0  0  0  0  0  0  0  0  0  0
   -0.2666    1.6504    0.7848 O   0  0  0  0  0  0  0  0  0  0  0  0
    0.7848   -0.2666    1.6504 O   0  0  0  0  0  0  0  0  0  0  0  0
    1.7363    0.7563   -0.4337 N   0  0  0  0  0  0  0  0  0  0  0  0
    1.3560    1.5074   -1.5525 C   0  0  0  0  0  0  0  0  0  0  0  0
    1.9946    2.7138   -1.8216 C   0  0  0  0  0  0  0  0  0  0  0  0
    1.6142    3.4570   -2.9341 C   0  0  0  0  0  0  0  0  0  0  0  0
    0.6024    2.9928   -3.7677 C   0  0  0  0  0  0  0  0  0  0  0  0
   -0.0287    1.7850   -3.4893 C   0  0  0  0  0  0  0  0  0  0  0  0
    0.3431    1.0333   -2.3796 C   0  0  0  0  0  0  0  0  0  0  0  0
    2.7994   -0.2519   -0.5520 C   0  0  0  0  0  0  0  0  0  0  0  0
    2.1875   -1.5919   -0.9265 C   0  0  0  0  0  0  0  0  0  0  0  0
    2.0045    2.0045    2.0045 C   0  0  0  0  0  0  0  0  0  0  0  0
    1.8611    3.3871    1.9566 C   0  0  0  0  0  0  0  0  0  0  0  0
    2.6713    4.1779    2.7649 C   0  0  0  0  0  0  0  0  0  0  0  0
    3.6142    3.6035    3.6112 C   0  0  0  0  0  0  0  0  0  0  0  0
    3.7415    2.2187    3.6444 C   0  0  0  0  0  0  0  0  0  0  0  0
    2.9408    1.4099    2.8445 C   0  0  0  0  0  0  0  0  0  0  0  0
    2.5242    5.6201    2.7173 C   0  0  0  0  0  0  0  0  0  0  0  0
    1.6764    6.2779    1.9644 O   0  0  0  0  0  0  0  0  0  0  0  0
    1.8072    7.5223    2.1662 N   0  0  0  0  0  0  0  0  0  0  0  0
    2.7504    7.7067    3.0601 C   0  0  0  0  0  0  0  0  0  0  0  0
    3.2167    6.4817    3.4181 N   0  0  0  0  0  0  0  0  0  0  0  0
    3.2118    8.9846    3.5695 C   0  0  0  0  0  0  0  0  0  0  0  0
    4.1855    9.0957    4.4874 N   0  0  0  0  0  0  0  0  0  0  0  0
    4.5901   10.2945    4.9392 C   0  0  0  0  0  0  0  0  0  0  0  0
    4.0023   11.4749    4.5006 C   0  0  0  0  0  0  0  0  0  0  0  0
    3.0035   11.3740    3.5407 C   0  0  0  0  0  0  0  0  0  0  0  0
    2.6009   10.1293    3.0683 C   0  0  0  0  0  0  0  0  0  0  0  0
    4.4189   12.8259    5.0537 C   0  0  0  0  0  0  0  0  0  0  0  0
    5.7956   12.7629    5.6922 C   0  0  3  0  0  0  0  0  0  0  0  0
    5.7670   11.6427    6.7204 C   0  0  0  0  0  0  0  0  0  0  0  0
    5.7228   10.3336    5.9507 C   0  0  0  0  0  0  0  0  0  0  0  0
    6.0772   14.1022    6.3536 C   0  0  0  0  0  0  0  0  0  0  0  0
    2.7216    3.0441   -1.2196 H   0  0  0  0  0  0  0  0  0  0  0  0
    2.0683    4.3251   -3.1346 H   0  0  0  0  0  0  0  0  0  0  0  0
    0.3286    3.5273   -4.5672 H   0  0  0  0  0  0  0  0  0  0  0  0
   -0.7553    1.4545   -4.0917 H   0  0  0  0  0  0  0  0  0  0  0  0
   -0.1109    0.1651   -2.1795 H   0  0  0  0  0  0  0  0  0  0  0  0
    3.2774   -0.3364    0.3223 H   0  0  0  0  0  0  0  0  0  0  0  0
    3.4473    0.0284   -1.2604 H   0  0  0  0  0  0  0  0  0  0  0  0
    2.9108   -2.2778   -1.0070 H   0  0  0  0  0  0  0  0  0  0  0  0
    1.5397   -1.8722   -0.2182 H   0  0  0  0  0  0  0  0  0  0  0  0
    1.7095   -1.5074   -1.8008 H   0  0  0  0  0  0  0  0  0  0  0  0
    1.1857    3.8064    1.3500 H   0  0  0  0  0  0  0  0  0  0  0  0
    4.1933    4.1790    4.1886 H   0  0  0  0  0  0  0  0  0  0  0  0
    4.4170    1.7993    4.2508 H   0  0  0  0  0  0  0  0  0  0  0  0
    3.0369    0.4149    2.8728 H   0  0  0  0  0  0  0  0  0  0  0  0
    2.5705   12.2028    3.1865 H   0  0  0  0  0  0  0  0  0  0  0  0
    1.8816   10.0583    2.3773 H   0  0  0  0  0  0  0  0  0  0  0  0
    3.7538   13.1146    5.7424 H   0  0  0  0  0  0  0  0  0  0  0  0
    4.4364   13.4916    4.3076 H   0  0  0  0  0  0  0  0  0  0  0  0
    6.4878   12.5719    4.9962 H   0  0  0  0  0  0  0  0  0  0  0  0
    4.9559   11.7284    7.2990 H   0  0  0  0  0  0  0  0  0  0  0  0
    6.5881   11.6785    7.2900 H   0  0  0  0  0  0  0  0  0  0  0  0
    6.5899   10.2162    5.4666 H   0  0  0  0  0  0  0  0  0  0  0  0
    5.5994    9.5833    6.6002 H   0  0  0  0  0  0  0  0  0  0  0  0
    6.9813   14.0798    6.7803 H   0  0  0  0  0  0  0  0  0  0  0  0
    6.0518   14.8263    5.6643 H   0  0  0  0  0  0  0  0  0  0  0  0
    5.3837   14.2818    7.0513 H   0  0  0  0  0  0  0  0  0  0  0  0
  1  2  2  0  0  0  0
  1  3  2  0  0  0  0
  1  4  1  0  0  0  0
  4  5  1  0  0  0  0
  5  6  1  0  0  0  0
  6  7  2  0  0  0  0
  7  8  1  0  0  0  0
  8  9  2  0  0  0  0
  9 10  1  0  0  0  0
 10  5  2  0  0  0  0
  4 11  1  0  0  0  0
 11 12  1  0  0  0  0
  1 13  1  0  0  0  0
 13 14  1  0  0  0  0
 14 15  2  0  0  0  0
 15 16  1  0  0  0  0
 16 17  2  0  0  0  0
 17 18  1  0  0  0  0
 18 13  2  0  0  0  0
 15 19  1  0  0  0  0
 19 20  1  0  0  0  0
 20 21  1  0  0  0  0
 21 22  2  0  0  0  0
 22 23  1  0  0  0  0
 19 23  2  0  0  0  0
 22 24  1  0  0  0  0
 24 25  1  0  0  0  0
 25 26  2  0  0  0  0
 26 27  1  0  0  0  0
 27 28  2  0  0  0  0
 28 29  1  0  0  0  0
 29 24  2  0  0  0  0
 27 30  1  0  0  0  0
 30 31  1  0  0  0  0
 31 32  1  0  0  0  0
 32 33  1  0  0  0  0
 33 26  1  0  0  0  0
 31 34  1  0  0  0  0
  6 35  1  0  0  0  0
  7 36  1  0  0  0  0
  8 37  1  0  0  0  0
  9 38  1  0  0  0  0
 10 39  1  0  0  0  0
 11 40  1  0  0  0  0
 11 41  1  0  0  0  0
 12 42  1  0  0  0  0
 12 43  1  0  0  0  0
 12 44  1  0  0  0  0
 14 45  1  0  0  0  0
 16 46  1  0  0  0  0
 17 47  1  0  0  0  0
 18 48  1  0  0  0  0
 28 49  1  0  0  0  0
 29 50  1  0  0  0  0
 30 51  1  0  0  0  0
 30 52  1  0  0  0  0
 31 53  1  0  0  0  0
 32 54  1  0  0  0  0
 32 55  1  0  0  0  0
 33 56  1  0  0  0  0
 33 57  1  0  0  0  0
 34 58  1  0  0  0  0
 34 59  1  0  0  0  0
 34 60  1  0  0  0  0
M  END
>  <result-rank>
71

>  <similarity>
0.845

>  <query-name>


>  <query-smiles>
Clc1ccc(cc1)CS(=O)(=O)c2cc3N=C(c4c(N(c3cc2)C)cc5c(c4)C(CCC5(C)C)(C)C)c6ccc(cc6)C([O-])=O

>  <source>
REALspace_2019-12

>  <similarity-descriptor>
0.954;0.0;0.939;0.849;0.948;0.620;0.965;0.997;0.0;0.948;0.948;0.0;1.000;0.0;0.100

>  <similarity-descriptor-smiles>
c1ccccc1;;c1ccccc1;c1ccccn1;c1CCCCc1;C1=NC=NO1;NC;S(=O)=O;;c1CCCCc1;c1CCCCc1;;C;;C

>  <reaction-name>
s_270196

>  <reagent1-name>
17314194

>  <reagent1-smiles>
[R1*]=NC(=NO[R2*])c1nc2c(cc1)CC(CC2)C

>  <reagent2-name>
8779416

>  <reagent2-smiles>
[R1*]C([R2*])c1cc(S(=O)(=O)N(c2ccccc2)CC)ccc1

$$$$
s_270036a____7565024____9892446
          04022017333D 1   1.00000     0.00000     0
            
 64 69  0  0  0  0            999 V2000
    6.6938    0.9932    3.1760 O   0  0  0  0  0  0  0  0  0  0  0  0
    7.5789    0.1168    2.9481 N   0  0  0  0  0  0  0  0  0  0  0  0
    7.0925   -0.7614    2.1078 C   0  0  0  0  0  0  0  0  0  0  0  0
    5.8175   -0.3877    1.8079 N   0  0  0  0  0  0  0  0  0  0  0  0
    5.6088    0.7096    2.4942 C   0  0  0  0  0  0  0  0  0  0  0  0
    4.3812    1.4826    2.4982 C   0  0  0  0  0  0  0  0  0  0  0  0
    4.3698    2.8769    2.4981 C   0  0  0  0  0  0  0  0  0  0  0  0
    3.1472    3.5433    2.5017 C   0  0  0  0  0  0  0  0  0  0  0  0
    2.0021    2.8437    2.5053 N   0  0  0  0  0  0  0  0  0  0  0  0
    1.9969    1.5018    2.5051 C   0  0  0  0  0  0  0  0  0  0  0  0
    0.7564    0.7539    2.5084 C   0  0  0  0  0  0  0  0  0  0  0  0
   -0.4580    1.4326    2.5118 C   0  0  0  0  0  0  0  0  0  0  0  0
   -1.6460    0.7096    2.5159 C   0  0  0  0  0  0  0  0  0  0  0  0
   -1.6063   -0.6812    2.5155 C   0  0  0  0  0  0  0  0  0  0  0  0
   -0.3912   -1.3593    2.5096 C   0  0  0  0  0  0  0  0  0  0  0  0
    0.7971   -0.6362    2.5070 C   0  0  0  0  0  0  0  0  0  0  0  0
   -2.9079   -1.4656    2.5214 C   0  0  0  0  0  0  0  0  0  0  0  0
   -2.9896   -2.3452    1.2843 C   0  0  0  0  0  0  0  0  0  0  0  0
   -4.2910   -3.1309    1.2881 C   0  0  0  0  0  0  0  0  0  0  0  0
   -4.3804   -3.9863    2.5416 C   0  0  0  0  0  0  0  0  0  0  0  0
   -4.3002   -3.1070    3.7791 C   0  0  0  0  0  0  0  0  0  0  0  0
   -2.9990   -2.3209    3.7748 C   0  0  0  0  0  0  0  0  0  0  0  0
    3.1833    0.7780    2.5015 C   0  0  0  0  0  0  0  0  0  0  0  0
    3.1251    4.9345    2.5024 C   0  0  0  0  0  0  0  0  0  0  0  0
    4.3041    5.6719    2.4991 C   0  0  0  0  0  0  0  0  0  0  0  0
    5.5319    5.0200    2.4952 C   0  0  0  0  0  0  0  0  0  0  0  0
    5.5429    3.6294    2.4950 C   0  0  0  0  0  0  0  0  0  0  0  0
    7.8207   -1.9788    1.5649 C   0  0  3  0  0  0  0  0  0  0  0  0
    9.1180   -2.1162    2.2423 N   0  3  0  0  0  0  0  0  0  0  0  0
    8.0445   -1.8108    0.0706 C   0  0  0  0  0  0  0  0  0  0  0  0
    8.9537   -0.8630   -0.3877 C   0  0  0  0  0  0  0  0  0  0  0  0
    9.1549   -0.7119   -1.7559 C   0  0  0  0  0  0  0  0  0  0  0  0
    8.4504   -1.5063   -2.6544 C   0  0  0  0  0  0  0  0  0  0  0  0
    7.5451   -2.4502   -2.1851 C   0  0  0  0  0  0  0  0  0  0  0  0
    7.3345   -2.6104   -0.8195 C   0  0  0  0  0  0  0  0  0  0  0  0
    8.9708   -2.2267    3.2252 H   0  0  0  0  0  0  0  0  0  0  0  0
    9.5974   -2.9177    1.8848 H   0  0  0  0  0  0  0  0  0  0  0  0
    9.6684   -1.2977    2.0776 H   0  0  0  0  0  0  0  0  0  0  0  0
   -0.4765    2.4324    2.5113 H   0  0  0  0  0  0  0  0  0  0  0  0
   -2.5246    1.1871    2.5191 H   0  0  0  0  0  0  0  0  0  0  0  0
   -0.3723   -2.3591    2.5073 H   0  0  0  0  0  0  0  0  0  0  0  0
    1.6759   -1.1134    2.5041 H   0  0  0  0  0  0  0  0  0  0  0  0
   -3.6735   -0.8224    2.5123 H   0  0  0  0  0  0  0  0  0  0  0  0
   -2.2186   -2.9821    1.2796 H   0  0  0  0  0  0  0  0  0  0  0  0
   -2.9523   -1.7707    0.4667 H   0  0  0  0  0  0  0  0  0  0  0  0
   -4.3234   -3.7214    0.4817 H   0  0  0  0  0  0  0  0  0  0  0  0
   -5.0619   -2.4943    1.2663 H   0  0  0  0  0  0  0  0  0  0  0  0
   -3.6239   -4.6403    2.5507 H   0  0  0  0  0  0  0  0  0  0  0  0
   -5.2491   -4.4815    2.5432 H   0  0  0  0  0  0  0  0  0  0  0  0
   -5.0715   -2.4705    3.7837 H   0  0  0  0  0  0  0  0  0  0  0  0
   -4.3373   -3.6816    4.5967 H   0  0  0  0  0  0  0  0  0  0  0  0
   -2.9670   -1.7302    4.5811 H   0  0  0  0  0  0  0  0  0  0  0  0
   -2.2281   -2.9576    3.7972 H   0  0  0  0  0  0  0  0  0  0  0  0
    3.1752   -0.2220    2.5012 H   0  0  0  0  0  0  0  0  0  0  0  0
    2.2466    5.4122    2.5053 H   0  0  0  0  0  0  0  0  0  0  0  0
    4.2687    6.6713    2.4994 H   0  0  0  0  0  0  0  0  0  0  0  0
    6.3868    5.5387    2.4927 H   0  0  0  0  0  0  0  0  0  0  0  0
    6.4222    3.1533    2.4925 H   0  0  0  0  0  0  0  0  0  0  0  0
    7.2703   -2.7973    1.7295 H   0  0  0  0  0  0  0  0  0  0  0  0
    9.4589   -0.2945    0.2615 H   0  0  0  0  0  0  0  0  0  0  0  0
    9.8060   -0.0322   -2.0934 H   0  0  0  0  0  0  0  0  0  0  0  0
    8.5954   -1.3982   -3.6379 H   0  0  0  0  0  0  0  0  0  0  0  0
    7.0406   -3.0191   -2.8347 H   0  0  0  0  0  0  0  0  0  0  0  0
    6.6828   -3.2900   -0.4826 H   0  0  0  0  0  0  0  0  0  0  0  0
  1  2  1  0  0  0  0
  2  3  2  0  0  0  0
  3  4  1  0  0  0  0
  4  5  2  0  0  0  0
  5  1  1  0  0  0  0
  5  6  1  0  0  0  0
  6  7  1  0  0  0  0
  7  8  2  0  0  0  0
  8  9  1  0  0  0  0
  9 10  2  0  0  0  0
 10 11  1  0  0  0  0
 11 12  1  0  0  0  0
 12 13  2  0  0  0  0
 13 14  1  0  0  0  0
 14 15  2  0  0  0  0
 15 16  1  0  0  0  0
 16 11  2  0  0  0  0
 14 17  1  0  0  0  0
 17 18  1  0  0  0  0
 18 19  1  0  0  0  0
 19 20  1  0  0  0  0
 20 21  1  0  0  0  0
 21 22  1  0  0  0  0
 22 17  1  0  0  0  0
 10 23  1  0  0  0  0
 23  6  2  0  0  0  0
  8 24  1  0  0  0  0
 24 25  2  0  0  0  0
 25 26  1  0  0  0  0
 26 27  2  0  0  0  0
 27  7  1  0  0  0  0
  3 28  1  0  0  0  0
 28 29  1  0  0  0  0
 28 30  1  0  0  0  0
 30 31  1  0  0  0  0
 31 32  2  0  0  0  0
 32 33  1  0  0  0  0
 33 34  2  0  0  0  0
 34 35  1  0  0  0  0
 35 30  2  0  0  0  0
 29 36  1  0  0  0  0
 29 37  1  0  0  0  0
 29 38  1  0  0  0  0
 12 39  1  0  0  0  0
 13 40  1  0  0  0  0
 15 41  1  0  0  0  0
 16 42  1  0  0  0  0
 17 43  1  0  0  0  0
 18 44  1  0  0  0  0
 18 45  1  0  0  0  0
 19 46  1  0  0  0  0
 19 47  1  0  0  0  0
 20 48  1  0  0  0  0
 20 49  1  0  0  0  0
 21 50  1  0  0  0  0
 21 51  1  0  0  0  0
 22 52  1  0  0  0  0
 22 53  1  0  0  0  0
 23 54  1  0  0  0  0
 24 55  1  0  0  0  0
 25 56  1  0  0  0  0
 26 57  1  0  0  0  0
 27 58  1  0  0  0  0
 28 59  1  0  0  0  0
 31 60  1  0  0  0  0
 32 61  1  0  0  0  0
 33 62  1  0  0  0  0
 34 63  1  0  0  0  0
 35 64  1  0  0  0  0
M  CHG  1  29   1
M  END
>  <result-rank>
72

>  <similarity>
0.845

>  <query-name>


>  <query-smiles>
Clc1ccc(cc1)CS(=O)(=O)c2cc3N=C(c4c(N(c3cc2)C)cc5c(c4)C(CCC5(C)C)(C)C)c6ccc(cc6)C([O-])=O

>  <source>
REALspace_2019-12

>  <similarity-descriptor>
0.952;0.984;0.688;0.863;0.838;0.857;0.935;0.688;0.0;0.838;0.838;0.838;0.838;0.0;0.125

>  <similarity-descriptor-smiles>
c1ccccc1;c1ccccc1;O1C=NC=N1;c1ccccc1;C1CCCCC1;c1ccncc1;C;O1C=NC=N1;;C1CCCCC1;C1CCCCC1;C1CCCCC1;C1CCCCC1;;[NH3+]

>  <reaction-name>
s_270036a

>  <reagent1-name>
7565024

>  <reagent1-smiles>
[R1*]=NC(=NO[R2*])C(N)c1ccccc1

>  <reagent2-name>
9892446

>  <reagent2-smiles>
[R1*]C([R2*])c1c2c(nc(c3ccc(cc3)C4CCCCC4)c1)cccc2

$$$$
s_22____15097550____59834
          04022017333D 1   1.00000     0.00000     0
            
 75 78  0  0  0  0            999 V2000
    2.3192   -1.3174    0.6789 S   0  0  0  0  0  0  0  0  0  0  0  0
    3.4748   -1.7472   -0.0651 O   0  0  0  0  0  0  0  0  0  0  0  0
    2.6503   -1.2413    2.0783 O   0  0  0  0  0  0  0  0  0  0  0  0
    1.8487    0.1513    0.1513 N   0  0  0  0  0  0  0  0  0  0  0  0
    2.2529    0.6046   -1.1104 C   0  0  0  0  0  0  0  0  0  0  0  0
    3.4376    1.3213   -1.2420 C   0  0  0  0  0  0  0  0  0  0  0  0
    3.8413    1.7735   -2.4942 C   0  0  0  0  0  0  0  0  0  0  0  0
    3.0473    1.4982   -3.6030 C   0  0  0  0  0  0  0  0  0  0  0  0
    1.8621    0.7818   -3.4742 C   0  0  0  0  0  0  0  0  0  0  0  0
    1.4610    0.3312   -2.2208 C   0  0  0  0  0  0  0  0  0  0  0  0
    3.4861    1.9913   -4.9721 C   0  0  0  0  0  0  0  0  0  0  0  0
    1.0000    1.0000    1.0000 C   0  0  0  0  0  0  0  0  0  0  0  0
    1.8776    1.8776    1.8776 C   0  0  0  0  0  0  0  0  0  0  0  0
    1.0000    2.7551    2.7551 C   0  0  0  0  0  0  0  0  0  0  0  0
   -0.1557    2.4760    2.9179 O   0  0  0  0  0  0  0  0  0  0  0  0
    1.5284    3.8649    3.3603 N   0  0  0  0  0  0  0  0  0  0  0  0
    0.6816    4.8360    3.9003 C   0  0  0  0  0  0  0  0  0  0  0  0
    0.0699    5.7577    3.0617 C   0  0  0  0  0  0  0  0  0  0  0  0
   -0.7754    6.7340    3.5753 C   0  0  0  0  0  0  0  0  0  0  0  0
   -0.9953    6.7641    4.9538 C   0  0  0  0  0  0  0  0  0  0  0  0
   -0.3773    5.8382    5.7831 C   0  0  0  0  0  0  0  0  0  0  0  0
    0.4695    4.8622    5.2728 C   0  0  0  0  0  0  0  0  0  0  0  0
   -1.9179    7.7882    5.6043 C   0  0  0  0  0  0  0  0  0  0  0  0
   -2.1970    8.9709    4.6862 C   0  0  0  0  0  0  0  0  0  0  0  0
   -2.5575    8.5037    3.2829 C   0  0  0  0  0  0  0  0  0  0  0  0
   -1.4184    7.7401    2.6214 C   0  0  0  0  0  0  0  0  0  0  0  0
   -1.8444    7.1108    1.3026 C   0  0  0  0  0  0  0  0  0  0  0  0
   -0.3700    8.7827    2.2740 C   0  0  0  0  0  0  0  0  0  0  0  0
   -1.4171    8.2782    6.9550 C   0  0  0  0  0  0  0  0  0  0  0  0
   -3.2702    7.1217    5.8382 C   0  0  0  0  0  0  0  0  0  0  0  0
    1.0250   -2.4580    0.4502 C   0  0  0  0  0  0  0  0  0  0  0  0
    0.9356   -3.1700   -0.7417 C   0  0  0  0  0  0  0  0  0  0  0  0
   -0.1041   -4.0782   -0.9108 C   0  0  0  0  0  0  0  0  0  0  0  0
   -1.0470   -4.2807    0.0914 C   0  0  0  0  0  0  0  0  0  0  0  0
   -0.9394   -3.5587    1.2756 C   0  0  0  0  0  0  0  0  0  0  0  0
    0.0923   -2.6450    1.4651 C   0  0  0  0  0  0  0  0  0  0  0  0
   -0.2003   -4.8560   -2.2134 C   0  0  0  0  0  0  0  0  0  0  0  0
    0.4850   -5.9905   -2.1040 F   0  0  0  0  0  0  0  0  0  0  0  0
   -1.4755   -5.1314   -2.4722 F   0  0  0  0  0  0  0  0  0  0  0  0
    0.3054   -4.1263   -3.2038 F   0  0  0  0  0  0  0  0  0  0  0  0
    3.9991    1.5116   -0.4366 H   0  0  0  0  0  0  0  0  0  0  0  0
    4.6916    2.2900   -2.5961 H   0  0  0  0  0  0  0  0  0  0  0  0
    1.3006    0.5913   -4.2795 H   0  0  0  0  0  0  0  0  0  0  0  0
    0.6105   -0.1849   -2.1189 H   0  0  0  0  0  0  0  0  0  0  0  0
    2.8130    1.7142   -5.6577 H   0  0  0  0  0  0  0  0  0  0  0  0
    3.5582    2.9887   -4.9599 H   0  0  0  0  0  0  0  0  0  0  0  0
    4.3759    1.5956   -5.1996 H   0  0  0  0  0  0  0  0  0  0  0  0
    0.4226    0.4226    1.5774 H   0  0  0  0  0  0  0  0  0  0  0  0
    0.4226    1.5774    0.4226 H   0  0  0  0  0  0  0  0  0  0  0  0
    2.4549    1.3002    2.4549 H   0  0  0  0  0  0  0  0  0  0  0  0
    2.4549    2.4549    1.3002 H   0  0  0  0  0  0  0  0  0  0  0  0
    2.5203    3.9797    3.4155 H   0  0  0  0  0  0  0  0  0  0  0  0
    0.2393    5.7188    2.0769 H   0  0  0  0  0  0  0  0  0  0  0  0
   -0.5451    5.8745    6.7682 H   0  0  0  0  0  0  0  0  0  0  0  0
    0.9129    4.1986    5.8753 H   0  0  0  0  0  0  0  0  0  0  0  0
   -1.3811    9.5471    4.6389 H   0  0  0  0  0  0  0  0  0  0  0  0
   -2.9584    9.5012    5.0593 H   0  0  0  0  0  0  0  0  0  0  0  0
   -3.3571    7.9057    3.3379 H   0  0  0  0  0  0  0  0  0  0  0  0
   -2.7770    9.3031    2.7236 H   0  0  0  0  0  0  0  0  0  0  0  0
   -2.2572    7.8093    0.7179 H   0  0  0  0  0  0  0  0  0  0  0  0
   -1.0445    6.7230    0.8446 H   0  0  0  0  0  0  0  0  0  0  0  0
   -2.5113    6.3869    1.4787 H   0  0  0  0  0  0  0  0  0  0  0  0
   -0.7642    9.4563    1.6489 H   0  0  0  0  0  0  0  0  0  0  0  0
   -0.0660    9.2408    3.1093 H   0  0  0  0  0  0  0  0  0  0  0  0
    0.4104    8.3373    1.8352 H   0  0  0  0  0  0  0  0  0  0  0  0
   -2.0628    8.9444    7.3282 H   0  0  0  0  0  0  0  0  0  0  0  0
   -1.3379    7.5034    7.5822 H   0  0  0  0  0  0  0  0  0  0  0  0
   -0.5216    8.7088    6.8423 H   0  0  0  0  0  0  0  0  0  0  0  0
   -3.8946    7.7756    6.2655 H   0  0  0  0  0  0  0  0  0  0  0  0
   -3.6497    6.8215    4.9631 H   0  0  0  0  0  0  0  0  0  0  0  0
   -3.1528    6.3313    6.4394 H   0  0  0  0  0  0  0  0  0  0  0  0
    1.6098   -3.0307   -1.4670 H   0  0  0  0  0  0  0  0  0  0  0  0
   -1.7914   -4.9359   -0.0373 H   0  0  0  0  0  0  0  0  0  0  0  0
   -1.6134   -3.6984    2.0010 H   0  0  0  0  0  0  0  0  0  0  0  0
    0.1625   -2.1297    2.3193 H   0  0  0  0  0  0  0  0  0  0  0  0
  1  2  2  0  0  0  0
  1  3  2  0  0  0  0
  1  4  1  0  0  0  0
  4  5  1  0  0  0  0
  5  6  1  0  0  0  0
  6  7  2  0  0  0  0
  7  8  1  0  0  0  0
  8  9  2  0  0  0  0
  9 10  1  0  0  0  0
 10  5  2  0  0  0  0
  8 11  1  0  0  0  0
  4 12  1  0  0  0  0
 12 13  1  0  0  0  0
 13 14  1  0  0  0  0
 14 15  2  0  0  0  0
 14 16  1  0  0  0  0
 16 17  1  0  0  0  0
 17 18  1  0  0  0  0
 18 19  2  0  0  0  0
 19 20  1  0  0  0  0
 20 21  2  0  0  0  0
 21 22  1  0  0  0  0
 22 17  2  0  0  0  0
 20 23  1  0  0  0  0
 23 24  1  0  0  0  0
 24 25  1  0  0  0  0
 25 26  1  0  0  0  0
 26 19  1  0  0  0  0
 26 27  1  0  0  0  0
 26 28  1  0  0  0  0
 23 29  1  0  0  0  0
 23 30  1  0  0  0  0
  1 31  1  0  0  0  0
 31 32  1  0  0  0  0
 32 33  2  0  0  0  0
 33 34  1  0  0  0  0
 34 35  2  0  0  0  0
 35 36  1  0  0  0  0
 36 31  2  0  0  0  0
 33 37  1  0  0  0  0
 37 38  1  0  0  0  0
 37 39  1  0  0  0  0
 37 40  1  0  0  0  0
  6 41  1  0  0  0  0
  7 42  1  0  0  0  0
  9 43  1  0  0  0  0
 10 44  1  0  0  0  0
 11 45  1  0  0  0  0
 11 46  1  0  0  0  0
 11 47  1  0  0  0  0
 12 48  1  0  0  0  0
 12 49  1  0  0  0  0
 13 50  1  0  0  0  0
 13 51  1  0  0  0  0
 16 52  1  0  0  0  0
 18 53  1  0  0  0  0
 21 54  1  0  0  0  0
 22 55  1  0  0  0  0
 24 56  1  0  0  0  0
 24 57  1  0  0  0  0
 25 58  1  0  0  0  0
 25 59  1  0  0  0  0
 27 60  1  0  0  0  0
 27 61  1  0  0  0  0
 27 62  1  0  0  0  0
 28 63  1  0  0  0  0
 28 64  1  0  0  0  0
 28 65  1  0  0  0  0
 29 66  1  0  0  0  0
 29 67  1  0  0  0  0
 29 68  1  0  0  0  0
 30 69  1  0  0  0  0
 30 70  1  0  0  0  0
 30 71  1  0  0  0  0
 32 72  1  0  0  0  0
 34 73  1  0  0  0  0
 35 74  1  0  0  0  0
 36 75  1  0  0  0  0
M  END
>  <result-rank>
73

>  <similarity>
0.845

>  <query-name>


>  <query-smiles>
Clc1ccc(cc1)CS(=O)(=O)c2cc3N=C(c4c(N(c3cc2)C)cc5c(c4)C(CCC5(C)C)(C)C)c6ccc(cc6)C([O-])=O

>  <source>
REALspace_2019-12

>  <similarity-descriptor>
0.975;0.0;0.868;0.923;1.000;0.444;0.901;0.901;0.0;1.000;1.000;1.000;1.000;0.0;0.063

>  <similarity-descriptor-smiles>
c1cccc(c1)C(F)(F)F;;N(c1ccccc1)C;c1ccccc1;c1CCCCc1;CC(=O)N;S(=O)=O;S(=O)=O;;C;C;C;C;;C

>  <reaction-name>
s_22

>  <reagent1-name>
15097550

>  <reagent1-smiles>
[R1*]Nc1cc2c(cc1)C(CCC2(C)C)(C)C

>  <reagent2-name>
59834

>  <reagent2-smiles>
[R1*]C(=O)CCN(S(=O)(=O)c1cc(ccc1)C(F)(F)F)c2ccc(cc2)C

$$$$
s_42a____8631722____125131
          04022017333D 1   1.00000     0.00000     0
            
 71 76  0  0  0  0            999 V2000
    3.8284   -0.0313   -0.2683 Cl  0  0  0  0  0  0  0  0  0  0  0  0
    4.1349   -0.8530    1.2807 C   0  0  0  0  0  0  0  0  0  0  0  0
    3.8863   -0.1900    2.4777 C   0  0  0  0  0  0  0  0  0  0  0  0
    4.1179   -0.8263    3.6331 N   0  0  0  0  0  0  0  0  0  0  0  0
    4.5782   -2.0695    3.5550 C   0  0  0  0  0  0  0  0  0  0  0  0
    4.8548   -2.8585    5.0319 S   0  0  0  0  0  0  0  0  0  0  0  0
    5.3961   -4.2774    4.2732 C   0  0  0  0  0  0  0  0  0  0  0  0
    5.3750   -4.1006    2.9176 C   0  0  0  0  0  0  0  0  0  0  0  0
    4.8914   -2.8442    2.4653 C   0  0  0  0  0  0  0  0  0  0  0  0
    4.6269   -2.1535    1.2829 C   0  0  0  0  0  0  0  0  0  0  0  0
    4.8739   -2.7976    0.0074 C   0  0  0  0  0  0  0  0  0  0  0  0
    6.1251   -2.6687   -0.5856 C   0  0  0  0  0  0  0  0  0  0  0  0
    6.3715   -3.2819   -1.8099 C   0  0  0  0  0  0  0  0  0  0  0  0
    5.3636   -4.0169   -2.4252 C   0  0  0  0  0  0  0  0  0  0  0  0
    5.5937   -4.6167   -3.6124 O   0  0  0  0  0  0  0  0  0  0  0  0
    6.8652   -4.4975   -4.2335 C   0  0  0  0  0  0  0  0  0  0  0  0
    4.1121   -4.1453   -1.8317 C   0  0  0  0  0  0  0  0  0  0  0  0
    3.8653   -3.5320   -0.6079 C   0  0  0  0  0  0  0  0  0  0  0  0
    5.8844   -5.3094    2.1430 C   0  0  0  0  0  0  0  0  0  0  0  0
    5.8694   -6.5908    2.9557 C   0  0  0  0  0  0  0  0  0  0  0  0
    6.6538   -6.3292    4.2309 C   0  0  3  0  0  0  0  0  0  0  0  0
    5.7938   -5.4619    5.1320 C   0  0  0  0  0  0  0  0  0  0  0  0
    6.9071   -7.6135    5.0013 C   0  0  0  0  0  0  0  0  0  0  0  0
    3.3826    1.1685    2.4805 C   0  0  0  0  0  0  0  0  0  0  0  0
    4.1359    2.3007    2.4859 C   0  0  0  0  0  0  0  0  0  0  0  0
    3.2897    3.3668    2.4895 N   0  0  0  0  0  0  0  0  0  0  0  0
    2.0091    2.9073    2.4875 C   0  0  0  0  0  0  0  0  0  0  0  0
    2.0206    1.5457    2.4823 C   0  0  0  0  0  0  0  0  0  0  0  0
    0.7608    3.7746    2.4905 C   0  0  0  0  0  0  0  0  0  0  0  0
    3.6931    4.7811    2.4934 C   0  0  0  0  0  0  0  0  0  0  0  0
    3.8313    5.2725    1.0617 C   0  0  0  0  0  0  0  0  0  0  0  0
    4.2479    6.7336    1.0657 C   0  0  0  0  0  0  0  0  0  0  0  0
    5.5995    7.0616    1.0659 C   0  0  0  0  0  0  0  0  0  0  0  0
    5.9730    8.4017    1.0690 C   0  0  0  0  0  0  0  0  0  0  0  0
    5.0000    9.3950    1.0712 C   0  0  0  0  0  0  0  0  0  0  0  0
    5.4833   11.1079    1.0742 Cl  0  0  0  0  0  0  0  0  0  0  0  0
    3.6481    9.0669    1.0707 C   0  0  0  0  0  0  0  0  0  0  0  0
    3.2746    7.7265    1.0676 C   0  0  0  0  0  0  0  0  0  0  0  0
    5.6550    2.3681    2.4871 C   0  0  0  0  0  0  0  0  0  0  0  0
    6.8433   -2.1386   -0.1349 H   0  0  0  0  0  0  0  0  0  0  0  0
    7.2678   -3.1948   -2.2448 H   0  0  0  0  0  0  0  0  0  0  0  0
    6.8619   -4.9990   -5.0987 H   0  0  0  0  0  0  0  0  0  0  0  0
    7.0616   -3.5327   -4.4082 H   0  0  0  0  0  0  0  0  0  0  0  0
    7.5673   -4.8769   -3.6310 H   0  0  0  0  0  0  0  0  0  0  0  0
    3.3938   -4.6755   -2.2823 H   0  0  0  0  0  0  0  0  0  0  0  0
    2.9689   -3.6184   -0.1732 H   0  0  0  0  0  0  0  0  0  0  0  0
    6.8242   -5.1281    1.8532 H   0  0  0  0  0  0  0  0  0  0  0  0
    5.3059   -5.4374    1.3374 H   0  0  0  0  0  0  0  0  0  0  0  0
    4.9278   -6.8428    3.1792 H   0  0  0  0  0  0  0  0  0  0  0  0
    6.2980   -7.3301    2.4363 H   0  0  0  0  0  0  0  0  0  0  0  0
    7.5173   -5.8696    4.0229 H   0  0  0  0  0  0  0  0  0  0  0  0
    4.9839   -5.9643    5.4346 H   0  0  0  0  0  0  0  0  0  0  0  0
    6.3151   -5.1585    5.9296 H   0  0  0  0  0  0  0  0  0  0  0  0
    7.4733   -8.2266    4.4504 H   0  0  0  0  0  0  0  0  0  0  0  0
    7.3800   -7.4015    5.8565 H   0  0  0  0  0  0  0  0  0  0  0  0
    6.0346   -8.0581    5.2042 H   0  0  0  0  0  0  0  0  0  0  0  0
    1.2272    0.9370    2.4802 H   0  0  0  0  0  0  0  0  0  0  0  0
   -0.0509    3.1905    2.4882 H   0  0  0  0  0  0  0  0  0  0  0  0
    0.7558    4.3488    3.3092 H   0  0  0  0  0  0  0  0  0  0  0  0
    0.7561    4.3550    1.6762 H   0  0  0  0  0  0  0  0  0  0  0  0
    4.5699    4.8764    2.9646 H   0  0  0  0  0  0  0  0  0  0  0  0
    2.9995    5.3242    2.9667 H   0  0  0  0  0  0  0  0  0  0  0  0
    4.5248    4.7294    0.5883 H   0  0  0  0  0  0  0  0  0  0  0  0
    2.9544    5.1773    0.5905 H   0  0  0  0  0  0  0  0  0  0  0  0
    6.2946    6.3427    1.0639 H   0  0  0  0  0  0  0  0  0  0  0  0
    6.9415    8.6507    1.0696 H   0  0  0  0  0  0  0  0  0  0  0  0
    2.9530    9.7859    1.0724 H   0  0  0  0  0  0  0  0  0  0  0  0
    2.3061    7.4773    1.0669 H   0  0  0  0  0  0  0  0  0  0  0  0
    6.0298    1.4410    2.4838 H   0  0  0  0  0  0  0  0  0  0  0  0
    5.9676    2.8570    1.6727 H   0  0  0  0  0  0  0  0  0  0  0  0
    5.9666    2.8507    3.3056 H   0  0  0  0  0  0  0  0  0  0  0  0
  1  2  1  0  0  0  0
  2  3  1  0  0  0  0
  3  4  2  0  0  0  0
  4  5  1  0  0  0  0
  5  6  1  0  0  0  0
  6  7  1  0  0  0  0
  7  8  2  0  0  0  0
  8  9  1  0  0  0  0
  9  5  2  0  0  0  0
  9 10  1  0  0  0  0
 10  2  2  0  0  0  0
 10 11  1  0  0  0  0
 11 12  1  0  0  0  0
 12 13  2  0  0  0  0
 13 14  1  0  0  0  0
 14 15  1  0  0  0  0
 15 16  1  0  0  0  0
 14 17  2  0  0  0  0
 17 18  1  0  0  0  0
 18 11  2  0  0  0  0
  8 19  1  0  0  0  0
 19 20  1  0  0  0  0
 20 21  1  0  0  0  0
 21 22  1  0  0  0  0
 22  7  1  0  0  0  0
 21 23  1  0  0  0  0
  3 24  1  0  0  0  0
 24 25  2  0  0  0  0
 25 26  1  0  0  0  0
 26 27  1  0  0  0  0
 27 28  2  0  0  0  0
 28 24  1  0  0  0  0
 27 29  1  0  0  0  0
 26 30  1  0  0  0  0
 30 31  1  0  0  0  0
 31 32  1  0  0  0  0
 32 33  1  0  0  0  0
 33 34  2  0  0  0  0
 34 35  1  0  0  0  0
 35 36  1  0  0  0  0
 35 37  2  0  0  0  0
 37 38  1  0  0  0  0
 38 32  2  0  0  0  0
 25 39  1  0  0  0  0
 12 40  1  0  0  0  0
 13 41  1  0  0  0  0
 16 42  1  0  0  0  0
 16 43  1  0  0  0  0
 16 44  1  0  0  0  0
 17 45  1  0  0  0  0
 18 46  1  0  0  0  0
 19 47  1  0  0  0  0
 19 48  1  0  0  0  0
 20 49  1  0  0  0  0
 20 50  1  0  0  0  0
 21 51  1  0  0  0  0
 22 52  1  0  0  0  0
 22 53  1  0  0  0  0
 23 54  1  0  0  0  0
 23 55  1  0  0  0  0
 23 56  1  0  0  0  0
 28 57  1  0  0  0  0
 29 58  1  0  0  0  0
 29 59  1  0  0  0  0
 29 60  1  0  0  0  0
 30 61  1  0  0  0  0
 30 62  1  0  0  0  0
 31 63  1  0  0  0  0
 31 64  1  0  0  0  0
 33 65  1  0  0  0  0
 34 66  1  0  0  0  0
 37 67  1  0  0  0  0
 38 68  1  0  0  0  0
 39 69  1  0  0  0  0
 39 70  1  0  0  0  0
 39 71  1  0  0  0  0
M  END
>  <result-rank>
74

>  <similarity>
0.844

>  <query-name>


>  <query-smiles>
Clc1ccc(cc1)CS(=O)(=O)c2cc3N=C(c4c(N(c3cc2)C)cc5c(c4)C(CCC5(C)C)(C)C)c6ccc(cc6)C([O-])=O

>  <source>
REALspace_2019-12

>  <similarity-descriptor>
1.000;0.998;0.791;0.830;0.947;0.870;0.359;0.359;0.870;0.947;0.947;0.0;1.000;0.490;0.077

>  <similarity-descriptor-smiles>
c1ccc(cc1)Cl;c1ccccc1;C=1C=C(NC1)C;c1cC=CS1;C=1CCCCC1;Clc1cccnc1;CC;CC;Clc1cccnc1;C=1CCCCC1;C=1CCCCC1;;C;OC;C

>  <reaction-name>
s_42a

>  <reagent1-name>
8631722

>  <reagent1-smiles>
[R1*]=NC=1SC2=C(C1C(=[R2*])c3ccc(OC)cc3)CCC2

>  <reagent2-name>
125131

>  <reagent2-smiles>
[R2*]=C(Cl)C(=[R1*])C1=C(N(C(=C1)C)CCc2ccc(Cl)cc2)C

$$$$
s_2____11687950____9397400____12433048
          04022017333D 1   1.00000     0.00000     0
            
 68 73  0  0  0  0            999 V2000
   -7.0580   -0.6449    5.8047 Cl  0  0  0  0  0  0  0  0  0  0  0  0
   -5.6257   -1.0398    4.8250 C   0  0  0  0  0  0  0  0  0  0  0  0
   -5.5582   -0.6156    3.5021 C   0  0  0  0  0  0  0  0  0  0  0  0
   -4.4367   -0.9277    2.7414 C   0  0  0  0  0  0  0  0  0  0  0  0
   -3.3976   -1.6575    3.3090 C   0  0  0  0  0  0  0  0  0  0  0  0
   -2.3119   -1.9568    2.5642 O   0  0  0  0  0  0  0  0  0  0  0  0
   -1.2589   -1.1125    2.5358 C   0  0  0  0  0  0  0  0  0  0  0  0
   -0.9762   -0.3912    1.3805 C   0  0  0  0  0  0  0  0  0  0  0  0
    0.1122    0.4751    1.3605 C   0  0  0  0  0  0  0  0  0  0  0  0
    0.9034    0.6099    2.4960 C   0  0  0  0  0  0  0  0  0  0  0  0
    0.6208   -0.1107    3.6519 C   0  0  0  0  0  0  0  0  0  0  0  0
   -0.4671   -0.9771    3.6715 C   0  0  0  0  0  0  0  0  0  0  0  0
    2.0334    1.5154    2.4653 C   0  0  0  0  0  0  0  0  0  0  0  0
    3.3388    1.1121    2.4746 N   0  0  0  0  0  0  0  0  0  0  0  0
    4.2406    2.1295    2.4468 C   0  0  0  0  0  0  0  0  0  0  0  0
    3.3299    3.5681    2.4036 S   0  0  0  0  0  0  0  0  0  0  0  0
    1.7813    2.8529    2.4247 C   0  0  0  0  0  0  0  0  0  0  0  0
    5.5094    2.0301    2.4537 N   0  0  0  0  0  0  0  0  0  0  0  0
    6.2585    2.6964    3.4312 C   0  0  0  0  0  0  0  0  0  0  0  0
    7.2750    3.5624    3.0423 C   0  0  0  0  0  0  0  0  0  0  0  0
    8.0233    4.2276    4.0074 C   0  0  0  0  0  0  0  0  0  0  0  0
    7.7433    4.0173    5.3535 C   0  0  0  0  0  0  0  0  0  0  0  0
    8.6746    4.8465    6.5666 S   0  0  0  0  0  0  0  0  0  0  0  0
    7.7920    5.6072    7.4126 O   0  0  0  0  0  0  0  0  0  0  0  0
    9.3913    3.8840    7.3627 O   0  0  0  0  0  0  0  0  0  0  0  0
    9.7352    5.8517    5.8444 N   0  0  0  0  0  0  0  0  0  0  0  0
    6.7279    3.1530    5.7488 C   0  0  0  0  0  0  0  0  0  0  0  0
    5.9835    2.4907    4.7785 C   0  0  0  0  0  0  0  0  0  0  0  0
    3.7804   -0.2891    2.5193 C   0  0  0  0  0  0  0  0  0  0  0  0
    3.8189   -0.8539    1.1074 C   0  0  0  0  0  0  0  0  0  0  0  0
    2.7496   -1.4538    0.5615 N   0  0  0  0  0  0  0  0  0  0  0  0
    2.7467   -1.9516   -0.6810 C   0  0  0  0  0  0  0  0  0  0  0  0
    3.9135   -1.8743   -1.4346 C   0  0  0  0  0  0  0  0  0  0  0  0
    5.0489   -1.2596   -0.9182 C   0  0  0  0  0  0  0  0  0  0  0  0
    4.9956   -0.7418    0.3725 C   0  0  0  0  0  0  0  0  0  0  0  0
    3.9984   -2.4578   -2.8366 C   0  0  0  0  0  0  0  0  0  0  0  0
    2.6212   -2.6540   -3.4465 C   0  0  0  0  0  0  0  0  0  0  0  0
    1.8047   -3.4714   -2.4603 C   0  0  0  0  0  0  0  0  0  0  0  0
    1.4935   -2.5764   -1.2723 C   0  0  0  0  0  0  0  0  0  0  0  0
   -3.4715   -2.0788    4.6319 C   0  0  0  0  0  0  0  0  0  0  0  0
   -4.5903   -1.7703    5.3982 C   0  0  0  0  0  0  0  0  0  0  0  0
   -6.3094   -0.0908    3.1016 H   0  0  0  0  0  0  0  0  0  0  0  0
   -4.3775   -0.6284    1.7891 H   0  0  0  0  0  0  0  0  0  0  0  0
   -1.5517   -0.4948    0.5693 H   0  0  0  0  0  0  0  0  0  0  0  0
    0.3241    0.9977    0.5346 H   0  0  0  0  0  0  0  0  0  0  0  0
    1.1959   -0.0064    4.4633 H   0  0  0  0  0  0  0  0  0  0  0  0
   -0.6789   -1.4998    4.4973 H   0  0  0  0  0  0  0  0  0  0  0  0
    0.8925    3.3109    2.4105 H   0  0  0  0  0  0  0  0  0  0  0  0
    7.4671    3.7063    2.0716 H   0  0  0  0  0  0  0  0  0  0  0  0
    8.7562    4.8515    3.7361 H   0  0  0  0  0  0  0  0  0  0  0  0
   10.3481    5.3235    5.2569 H   0  0  0  0  0  0  0  0  0  0  0  0
    9.2375    6.5201    5.2916 H   0  0  0  0  0  0  0  0  0  0  0  0
    6.5353    3.0094    6.7195 H   0  0  0  0  0  0  0  0  0  0  0  0
    5.2507    1.8668    5.0498 H   0  0  0  0  0  0  0  0  0  0  0  0
    3.1419   -0.8223    3.0742 H   0  0  0  0  0  0  0  0  0  0  0  0
    4.6940   -0.3380    2.9229 H   0  0  0  0  0  0  0  0  0  0  0  0
    5.8852   -1.1912   -1.4621 H   0  0  0  0  0  0  0  0  0  0  0  0
    5.7964   -0.2927    0.7687 H   0  0  0  0  0  0  0  0  0  0  0  0
    4.4623   -3.3426   -2.7920 H   0  0  0  0  0  0  0  0  0  0  0  0
    4.5239   -1.8347   -3.4159 H   0  0  0  0  0  0  0  0  0  0  0  0
    2.6979   -3.1427   -4.3156 H   0  0  0  0  0  0  0  0  0  0  0  0
    2.1851   -1.7673   -3.6001 H   0  0  0  0  0  0  0  0  0  0  0  0
    0.9548   -3.7758   -2.8903 H   0  0  0  0  0  0  0  0  0  0  0  0
    2.3299   -4.2675   -2.1596 H   0  0  0  0  0  0  0  0  0  0  0  0
    0.8796   -1.8459   -1.5714 H   0  0  0  0  0  0  0  0  0  0  0  0
    1.0423   -3.1229   -0.5667 H   0  0  0  0  0  0  0  0  0  0  0  0
   -2.7203   -2.6036    5.0323 H   0  0  0  0  0  0  0  0  0  0  0  0
   -4.6496   -2.0702    6.3503 H   0  0  0  0  0  0  0  0  0  0  0  0
  1  2  1  0  0  0  0
  2  3  1  0  0  0  0
  3  4  2  0  0  0  0
  4  5  1  0  0  0  0
  5  6  1  0  0  0  0
  6  7  1  0  0  0  0
  7  8  1  0  0  0  0
  8  9  2  0  0  0  0
  9 10  1  0  0  0  0
 10 11  2  0  0  0  0
 11 12  1  0  0  0  0
 12  7  2  0  0  0  0
 10 13  1  0  0  0  0
 13 14  1  0  0  0  0
 14 15  1  0  0  0  0
 15 16  1  0  0  0  0
 16 17  1  0  0  0  0
 13 17  2  0  0  0  0
 15 18  2  0  0  0  0
 18 19  1  0  0  0  0
 19 20  1  0  0  0  0
 20 21  2  0  0  0  0
 21 22  1  0  0  0  0
 22 23  1  0  0  0  0
 23 24  2  0  0  0  0
 23 25  2  0  0  0  0
 23 26  1  0  0  0  0
 22 27  2  0  0  0  0
 27 28  1  0  0  0  0
 28 19  2  0  0  0  0
 14 29  1  0  0  0  0
 29 30  1  0  0  0  0
 30 31  1  0  0  0  0
 31 32  2  0  0  0  0
 32 33  1  0  0  0  0
 33 34  2  0  0  0  0
 34 35  1  0  0  0  0
 35 30  2  0  0  0  0
 33 36  1  0  0  0  0
 36 37  1  0  0  0  0
 37 38  1  0  0  0  0
 38 39  1  0  0  0  0
 39 32  1  0  0  0  0
  5 40  2  0  0  0  0
 40 41  1  0  0  0  0
 41  2  2  0  0  0  0
  3 42  1  0  0  0  0
  4 43  1  0  0  0  0
  8 44  1  0  0  0  0
  9 45  1  0  0  0  0
 11 46  1  0  0  0  0
 12 47  1  0  0  0  0
 17 48  1  0  0  0  0
 20 49  1  0  0  0  0
 21 50  1  0  0  0  0
 26 51  1  0  0  0  0
 26 52  1  0  0  0  0
 27 53  1  0  0  0  0
 28 54  1  0  0  0  0
 29 55  1  0  0  0  0
 29 56  1  0  0  0  0
 34 57  1  0  0  0  0
 35 58  1  0  0  0  0
 36 59  1  0  0  0  0
 36 60  1  0  0  0  0
 37 61  1  0  0  0  0
 37 62  1  0  0  0  0
 38 63  1  0  0  0  0
 38 64  1  0  0  0  0
 39 65  1  0  0  0  0
 39 66  1  0  0  0  0
 40 67  1  0  0  0  0
 41 68  1  0  0  0  0
M  END
>  <result-rank>
75

>  <similarity>
0.844

>  <query-name>


>  <query-smiles>
Clc1ccc(cc1)CS(=O)(=O)c2cc3N=C(c4c(N(c3cc2)C)cc5c(c4)C(CCC5(C)C)(C)C)c6ccc(cc6)C([O-])=O

>  <source>
REALspace_2019-12

>  <similarity-descriptor>
0.998;0.998;0.711;0.776;0.962;0.768;0.149;0.711;0.0;0.962;0.962;0.0;0.0;0.909;0.091

>  <similarity-descriptor-smiles>
Clc1ccccc1;c1ccccc1;c1ccccc1;Cc1ccccn1;c1CCCCc1;C1=CSC(N1)=N;O;c1ccccc1;;c1CCCCc1;c1CCCCc1;;;S(=O)=O;N

>  <reaction-name>
s_2

>  <reagent1-name>
11687950

>  <reagent1-smiles>
[R1*]SC([R3*])=Nc1ccc(S(=O)(=O)N)cc1

>  <reagent2-name>
9397400

>  <reagent2-smiles>
[R2*]N([R3*])Cc1nc2c(cc1)CCCC2

>  <reagent3-name>
12433048

>  <reagent3-smiles>
[R2*]C(c1ccc(Oc2ccc(Cl)cc2)cc1)=C[R1*]

$$$$
s_42a____8631722____788740
          04022017333D 1   1.00000     0.00000     0
            
 66 70  0  0  0  0            999 V2000
    9.4286    3.5906    1.4552 S   0  0  0  0  0  0  0  0  0  0  0  0
    8.5012    2.1870    1.2082 C   0  0  0  0  0  0  0  0  0  0  0  0
    7.1659    2.1916    1.1591 N   0  0  0  0  0  0  0  0  0  0  0  0
    6.5646    1.0107    1.0013 C   0  0  0  0  0  0  0  0  0  0  0  0
    5.1153    0.9996    1.0015 C   0  0  0  0  0  0  0  0  0  0  0  0
    4.4356    2.2130    1.0048 C   0  0  0  0  0  0  0  0  0  0  0  0
    3.0442    2.2043    1.0037 C   0  0  0  0  0  0  0  0  0  0  0  0
    2.3616    3.3689    1.0072 O   0  0  0  0  0  0  0  0  0  0  0  0
    3.0636    4.6033    1.0110 C   0  0  0  0  0  0  0  0  0  0  0  0
    2.3494    1.0000    1.0000 C   0  0  0  0  0  0  0  0  0  0  0  0
    1.0000    1.0000    1.0000 O   0  0  0  0  0  0  0  0  0  0  0  0
    0.2900   -0.2298    0.9962 C   0  0  0  0  0  0  0  0  0  0  0  0
   -1.2044    0.0480    0.9971 C   0  0  0  0  0  0  0  0  0  0  0  0
   -1.9144   -1.1818    0.9933 O   0  0  0  0  0  0  0  0  0  0  0  0
   -3.3105   -0.9223    0.9941 C   0  0  0  0  0  0  0  0  0  0  0  0
    3.0410   -0.2073    0.9974 C   0  0  0  0  0  0  0  0  0  0  0  0
    4.4325   -0.2122    0.9979 C   0  0  0  0  0  0  0  0  0  0  0  0
    7.3281   -0.1443    0.8612 C   0  0  0  0  0  0  0  0  0  0  0  0
    8.7173   -0.0686    0.8962 C   0  0  0  0  0  0  0  0  0  0  0  0
    9.3919    1.1408    1.0866 C   0  0  0  0  0  0  0  0  0  0  0  0
   10.7725    1.5162    1.1790 C   0  0  0  0  0  0  0  0  0  0  0  0
   10.9588    2.8482    1.4004 C   0  0  0  0  0  0  0  0  0  0  0  0
   12.2513    3.6077    1.5831 C   0  0  0  0  0  0  0  0  0  0  0  0
   13.0775    2.7145    2.4954 C   0  0  3  0  0  0  0  0  0  0  0  0
   13.2494    1.2979    1.9461 C   0  0  0  0  0  0  0  0  0  0  0  0
   12.1021    0.7677    1.0868 C   0  0  0  0  0  0  0  0  0  0  0  0
   14.4430    3.3650    2.6499 C   0  0  0  0  0  0  0  0  0  0  0  0
    9.4472   -1.3115    0.7370 C   0  0  0  0  0  0  0  0  0  0  0  0
    9.3170   -2.3023    1.7040 C   0  0  0  0  0  0  0  0  0  0  0  0
   10.0141   -3.4977    1.5609 C   0  0  0  0  0  0  0  0  0  0  0  0
   10.8320   -3.6874    0.4520 C   0  0  0  0  0  0  0  0  0  0  0  0
   11.5112   -4.8446    0.3037 O   0  0  0  0  0  0  0  0  0  0  0  0
   12.5224   -4.9524   -0.6874 C   0  0  0  0  0  0  0  0  0  0  0  0
   10.9621   -2.6959   -0.5150 C   0  0  0  0  0  0  0  0  0  0  0  0
   10.2656   -1.5004   -0.3719 C   0  0  0  0  0  0  0  0  0  0  0  0
    4.9384    3.0773    1.0079 H   0  0  0  0  0  0  0  0  0  0  0  0
    2.4088    5.3591    1.0133 H   0  0  0  0  0  0  0  0  0  0  0  0
    3.6381    4.6575    1.8277 H   0  0  0  0  0  0  0  0  0  0  0  0
    3.6382    4.6625    0.1948 H   0  0  0  0  0  0  0  0  0  0  0  0
    0.5316   -0.7566    1.8111 H   0  0  0  0  0  0  0  0  0  0  0  0
    0.5316   -0.7516    0.1781 H   0  0  0  0  0  0  0  0  0  0  0  0
   -1.4460    0.5699    1.8152 H   0  0  0  0  0  0  0  0  0  0  0  0
   -1.4460    0.5749    0.1822 H   0  0  0  0  0  0  0  0  0  0  0  0
   -3.8105   -1.7883    0.9914 H   0  0  0  0  0  0  0  0  0  0  0  0
   -3.5521   -0.4004    1.8122 H   0  0  0  0  0  0  0  0  0  0  0  0
   -3.5521   -0.3954    0.1792 H   0  0  0  0  0  0  0  0  0  0  0  0
    2.5380   -1.0716    0.9953 H   0  0  0  0  0  0  0  0  0  0  0  0
    4.9355   -1.0764    0.9956 H   0  0  0  0  0  0  0  0  0  0  0  0
    6.8785   -1.0287    0.7354 H   0  0  0  0  0  0  0  0  0  0  0  0
   12.0841    4.4957    2.0115 H   0  0  0  0  0  0  0  0  0  0  0  0
   12.7115    3.7423    0.7056 H   0  0  0  0  0  0  0  0  0  0  0  0
   12.6360    2.6657    3.3914 H   0  0  0  0  0  0  0  0  0  0  0  0
   13.3596    0.6795    2.7242 H   0  0  0  0  0  0  0  0  0  0  0  0
   14.0799    1.2845    1.3893 H   0  0  0  0  0  0  0  0  0  0  0  0
   12.4001    0.7959    0.1326 H   0  0  0  0  0  0  0  0  0  0  0  0
   11.9352   -0.1808    1.3560 H   0  0  0  0  0  0  0  0  0  0  0  0
   15.0149    2.8019    3.2463 H   0  0  0  0  0  0  0  0  0  0  0  0
   14.8766    3.4470    1.7525 H   0  0  0  0  0  0  0  0  0  0  0  0
   14.3355    4.2741    3.0524 H   0  0  0  0  0  0  0  0  0  0  0  0
    8.7259   -2.1564    2.4974 H   0  0  0  0  0  0  0  0  0  0  0  0
    9.9276   -4.2162    2.2511 H   0  0  0  0  0  0  0  0  0  0  0  0
   12.9198   -5.8696   -0.6597 H   0  0  0  0  0  0  0  0  0  0  0  0
   12.1236   -4.7890   -1.5897 H   0  0  0  0  0  0  0  0  0  0  0  0
   13.2360   -4.2745   -0.5106 H   0  0  0  0  0  0  0  0  0  0  0  0
   11.5529   -2.8417   -1.3085 H   0  0  0  0  0  0  0  0  0  0  0  0
   10.3525   -0.7815   -1.0616 H   0  0  0  0  0  0  0  0  0  0  0  0
  1  2  1  0  0  0  0
  2  3  1  0  0  0  0
  3  4  2  0  0  0  0
  4  5  1  0  0  0  0
  5  6  1  0  0  0  0
  6  7  2  0  0  0  0
  7  8  1  0  0  0  0
  8  9  1  0  0  0  0
  7 10  1  0  0  0  0
 10 11  1  0  0  0  0
 11 12  1  0  0  0  0
 12 13  1  0  0  0  0
 13 14  1  0  0  0  0
 14 15  1  0  0  0  0
 10 16  2  0  0  0  0
 16 17  1  0  0  0  0
 17  5  2  0  0  0  0
  4 18  1  0  0  0  0
 18 19  2  0  0  0  0
 19 20  1  0  0  0  0
 20  2  2  0  0  0  0
 20 21  1  0  0  0  0
 21 22  2  0  0  0  0
 22  1  1  0  0  0  0
 22 23  1  0  0  0  0
 23 24  1  0  0  0  0
 24 25  1  0  0  0  0
 25 26  1  0  0  0  0
 26 21  1  0  0  0  0
 24 27  1  0  0  0  0
 19 28  1  0  0  0  0
 28 29  1  0  0  0  0
 29 30  2  0  0  0  0
 30 31  1  0  0  0  0
 31 32  1  0  0  0  0
 32 33  1  0  0  0  0
 31 34  2  0  0  0  0
 34 35  1  0  0  0  0
 35 28  2  0  0  0  0
  6 36  1  0  0  0  0
  9 37  1  0  0  0  0
  9 38  1  0  0  0  0
  9 39  1  0  0  0  0
 12 40  1  0  0  0  0
 12 41  1  0  0  0  0
 13 42  1  0  0  0  0
 13 43  1  0  0  0  0
 15 44  1  0  0  0  0
 15 45  1  0  0  0  0
 15 46  1  0  0  0  0
 16 47  1  0  0  0  0
 17 48  1  0  0  0  0
 18 49  1  0  0  0  0
 23 50  1  0  0  0  0
 23 51  1  0  0  0  0
 24 52  1  0  0  0  0
 25 53  1  0  0  0  0
 25 54  1  0  0  0  0
 26 55  1  0  0  0  0
 26 56  1  0  0  0  0
 27 57  1  0  0  0  0
 27 58  1  0  0  0  0
 27 59  1  0  0  0  0
 29 60  1  0  0  0  0
 30 61  1  0  0  0  0
 33 62  1  0  0  0  0
 33 63  1  0  0  0  0
 33 64  1  0  0  0  0
 34 65  1  0  0  0  0
 35 66  1  0  0  0  0
M  END
>  <result-rank>
76

>  <similarity>
0.844

>  <query-name>


>  <query-smiles>
Clc1ccc(cc1)CS(=O)(=O)c2cc3N=C(c4c(N(c3cc2)C)cc5c(c4)C(CCC5(C)C)(C)C)c6ccc(cc6)C([O-])=O

>  <source>
REALspace_2019-12

>  <similarity-descriptor>
0.0;0.998;0.981;0.830;0.947;0.855;0.946;0.763;0.0;0.947;0.947;0.0;1.000;0.490;0.133

>  <similarity-descriptor-smiles>
;c1ccccc1;c1ccccc1;S1C=Ccc1;C=1CCCCC1;c1ccccn1;C;OCCO;;C=1CCCCC1;C=1CCCCC1;;C;OC;O.C

>  <reaction-name>
s_42a

>  <reagent1-name>
8631722

>  <reagent1-smiles>
[R1*]=NC=1SC2=C(C1C(=[R2*])c3ccc(OC)cc3)CCC2

>  <reagent2-name>
788740

>  <reagent2-smiles>
[R1*]=C(c1cc(OC)c(OCCOC)cc1)C=[R2*]

$$$$
s_1458____471490____10894128
          04022017333D 1   1.00000     0.00000     0
            
 63 66  0  0  0  0            999 V2000
    0.4214    3.7482    2.5312 Cl  0  0  0  0  0  0  0  0  0  0  0  0
    1.9732    2.8775    2.5107 C   0  0  0  0  0  0  0  0  0  0  0  0
    3.1686    3.5899    2.5009 C   0  0  0  0  0  0  0  0  0  0  0  0
    3.1578    5.3300    2.5082 S   0  0  0  0  0  0  0  0  0  0  0  0
    2.4635    5.8106    1.3418 O   0  0  0  0  0  0  0  0  0  0  0  0
    2.4886    5.8008    3.6932 O   0  0  0  0  0  0  0  0  0  0  0  0
    4.6911    5.8829    2.4942 N   0  0  0  0  0  0  0  0  0  0  0  0
    5.2653    6.3232    1.2961 C   0  0  0  0  0  0  0  0  0  0  0  0
    5.9488    5.4190    0.4900 C   0  0  0  0  0  0  0  0  0  0  0  0
    6.5153    5.8683   -0.6981 C   0  0  0  0  0  0  0  0  0  0  0  0
    6.4061    7.2002   -1.0835 C   0  0  0  0  0  0  0  0  0  0  0  0
    5.7174    8.0863   -0.2611 C   0  0  0  0  0  0  0  0  0  0  0  0
    5.1429    7.6595    0.9311 C   0  0  0  0  0  0  0  0  0  0  0  0
    7.2640    4.8850   -1.5832 C   0  0  0  0  0  0  0  0  0  0  0  0
    6.4175    4.3344   -2.4489 F   0  0  0  0  0  0  0  0  0  0  0  0
    8.2220    5.5261   -2.2466 F   0  0  0  0  0  0  0  0  0  0  0  0
    7.8074    3.9341   -0.8286 F   0  0  0  0  0  0  0  0  0  0  0  0
    5.4709    5.9191    3.7398 C   0  0  0  0  0  0  0  0  0  0  0  0
    5.2636    7.2581    4.4286 C   0  0  0  0  0  0  0  0  0  0  0  0
    4.7584    7.3021    5.6256 C   0  0  0  0  0  0  0  0  0  0  0  0
    4.3860    2.9159    2.4858 C   0  0  0  0  0  0  0  0  0  0  0  0
    4.3932    1.5244    2.4803 C   0  0  0  0  0  0  0  0  0  0  0  0
    3.2028    0.8039    2.4901 C   0  0  0  0  0  0  0  0  0  0  0  0
    1.9898    1.4862    2.5055 C   0  0  0  0  0  0  0  0  0  0  0  0
    5.6615    0.8207    2.4636 C   0  0  0  0  0  0  0  0  0  0  0  0
    6.6903    1.4383    2.4547 O   0  0  0  0  0  0  0  0  0  0  0  0
    5.6838   -0.4891    2.4583 O   0  0  0  0  0  0  0  0  0  0  0  0
    6.9254   -1.1780    2.4420 C   0  0  3  0  0  0  0  0  0  0  0  0
    7.0344   -2.0544    3.6775 C   0  0  0  0  0  0  0  0  0  0  0  0
    5.9743   -2.8998    3.9849 C   0  0  0  0  0  0  0  0  0  0  0  0
    6.0792   -3.6859    5.1241 C   0  0  0  0  0  0  0  0  0  0  0  0
    7.1959   -3.6383    5.9323 C   0  0  0  0  0  0  0  0  0  0  0  0
    8.2496   -2.7972    5.6052 C   0  0  0  0  0  0  0  0  0  0  0  0
    8.1734   -1.9946    4.4722 C   0  0  0  0  0  0  0  0  0  0  0  0
    7.0008   -4.5825    7.0972 C   0  0  0  0  0  0  0  0  0  0  0  0
    5.9784   -5.5541    6.5616 C   0  0  0  0  0  0  0  0  0  0  0  0
    5.0885   -4.6701    5.7161 C   0  0  0  0  0  0  0  0  0  0  0  0
    7.0072   -2.0456    1.1966 C   0  0  0  0  0  0  0  0  0  0  0  0
    6.0317    4.4599    0.7607 H   0  0  0  0  0  0  0  0  0  0  0  0
    6.8164    7.5163   -1.9389 H   0  0  0  0  0  0  0  0  0  0  0  0
    5.6342    9.0454   -0.5317 H   0  0  0  0  0  0  0  0  0  0  0  0
    4.6497    8.3030    1.5166 H   0  0  0  0  0  0  0  0  0  0  0  0
    6.4411    5.7991    3.5293 H   0  0  0  0  0  0  0  0  0  0  0  0
    5.1674    5.1827    4.3445 H   0  0  0  0  0  0  0  0  0  0  0  0
    5.5159    8.1053    3.9609 H   0  0  0  0  0  0  0  0  0  0  0  0
    4.6220    8.1830    6.0787 H   0  0  0  0  0  0  0  0  0  0  0  0
    4.5061    6.4549    6.0932 H   0  0  0  0  0  0  0  0  0  0  0  0
    5.2462    3.4258    2.4789 H   0  0  0  0  0  0  0  0  0  0  0  0
    3.2187   -0.1959    2.4859 H   0  0  0  0  0  0  0  0  0  0  0  0
    1.1297    0.9761    2.5130 H   0  0  0  0  0  0  0  0  0  0  0  0
    7.6743   -0.5153    2.4363 H   0  0  0  0  0  0  0  0  0  0  0  0
    5.1617   -2.9402    3.4035 H   0  0  0  0  0  0  0  0  0  0  0  0
    9.0642   -2.7682    6.1844 H   0  0  0  0  0  0  0  0  0  0  0  0
    8.9273   -1.3829    4.2325 H   0  0  0  0  0  0  0  0  0  0  0  0
    6.6535   -4.0986    7.9005 H   0  0  0  0  0  0  0  0  0  0  0  0
    7.8540   -5.0484    7.3317 H   0  0  0  0  0  0  0  0  0  0  0  0
    6.4120   -6.2645    6.0072 H   0  0  0  0  0  0  0  0  0  0  0  0
    5.4620   -5.9800    7.3046 H   0  0  0  0  0  0  0  0  0  0  0  0
    4.6296   -5.1967    5.0005 H   0  0  0  0  0  0  0  0  0  0  0  0
    4.4047   -4.2027    6.2765 H   0  0  0  0  0  0  0  0  0  0  0  0
    7.8815   -2.5307    1.1851 H   0  0  0  0  0  0  0  0  0  0  0  0
    6.2583   -2.7083    1.2022 H   0  0  0  0  0  0  0  0  0  0  0  0
    6.9354   -1.4685    0.3831 H   0  0  0  0  0  0  0  0  0  0  0  0
  1  2  1  0  0  0  0
  2  3  1  0  0  0  0
  3  4  1  0  0  0  0
  4  5  2  0  0  0  0
  4  6  2  0  0  0  0
  4  7  1  0  0  0  0
  7  8  1  0  0  0  0
  8  9  1  0  0  0  0
  9 10  2  0  0  0  0
 10 11  1  0  0  0  0
 11 12  2  0  0  0  0
 12 13  1  0  0  0  0
 13  8  2  0  0  0  0
 10 14  1  0  0  0  0
 14 15  1  0  0  0  0
 14 16  1  0  0  0  0
 14 17  1  0  0  0  0
  7 18  1  0  0  0  0
 18 19  1  0  0  0  0
 19 20  2  0  0  0  0
  3 21  2  0  0  0  0
 21 22  1  0  0  0  0
 22 23  2  0  0  0  0
 23 24  1  0  0  0  0
 24  2  2  0  0  0  0
 22 25  1  0  0  0  0
 25 26  2  0  0  0  0
 25 27  1  0  0  0  0
 27 28  1  0  0  0  0
 28 29  1  0  0  0  0
 29 30  1  0  0  0  0
 30 31  2  0  0  0  0
 31 32  1  0  0  0  0
 32 33  2  0  0  0  0
 33 34  1  0  0  0  0
 34 29  2  0  0  0  0
 32 35  1  0  0  0  0
 35 36  1  0  0  0  0
 36 37  1  0  0  0  0
 37 31  1  0  0  0  0
 28 38  1  0  0  0  0
  9 39  1  0  0  0  0
 11 40  1  0  0  0  0
 12 41  1  0  0  0  0
 13 42  1  0  0  0  0
 18 43  1  0  0  0  0
 18 44  1  0  0  0  0
 19 45  1  0  0  0  0
 20 46  1  0  0  0  0
 20 47  1  0  0  0  0
 21 48  1  0  0  0  0
 23 49  1  0  0  0  0
 24 50  1  0  0  0  0
 28 51  1  0  0  0  0
 30 52  1  0  0  0  0
 33 53  1  0  0  0  0
 34 54  1  0  0  0  0
 35 55  1  0  0  0  0
 35 56  1  0  0  0  0
 36 57  1  0  0  0  0
 36 58  1  0  0  0  0
 37 59  1  0  0  0  0
 37 60  1  0  0  0  0
 38 61  1  0  0  0  0
 38 62  1  0  0  0  0
 38 63  1  0  0  0  0
M  END
>  <result-rank>
77

>  <similarity>
0.844

>  <query-name>


>  <query-smiles>
Clc1ccc(cc1)CS(=O)(=O)c2cc3N=C(c4c(N(c3cc2)C)cc5c(c4)C(CCC5(C)C)(C)C)c6ccc(cc6)C([O-])=O

>  <source>
REALspace_2019-12

>  <similarity-descriptor>
0.974;0.0;0.948;0.926;0.964;0.461;0.966;0.997;0.995;0.964;0.0;0.0;0.0;0.0;0.143

>  <similarity-descriptor-smiles>
c1cccc(c1)C(F)(F)F;;Clc1ccccc1;c1ccccc1;c1CCCc1;C(=O)OC;NC;S(=O)=O;C;c1CCCc1;;;;;C.C

>  <reaction-name>
s_1458

>  <reagent1-name>
471490

>  <reagent1-smiles>
[R1*]OC(=O)c1cc(S(=O)(=O)N(c2cc(ccc2)C(F)(F)F)CC=C)c(Cl)cc1

>  <reagent2-name>
10894128

>  <reagent2-smiles>
[R1*]C(c1cc2c(cc1)CCC2)C

$$$$
s_1____86402____14589724____7025778
          04022017333D 1   1.00000     0.00000     0
            
 65 70  0  0  0  0            999 V2000
    3.3172    3.5669    2.4298 S   0  0  0  0  0  0  0  0  0  0  0  0
    4.2425    2.1363    2.4399 C   0  0  0  0  0  0  0  0  0  0  0  0
    5.5084    2.0468    2.4336 N   0  0  0  0  0  0  0  0  0  0  0  0
    6.2845    3.1294    2.0026 C   0  0  0  0  0  0  0  0  0  0  0  0
    7.1126    2.9833    0.8949 C   0  0  0  0  0  0  0  0  0  0  0  0
    7.1633    1.8207    0.2514 F   0  0  0  0  0  0  0  0  0  0  0  0
    7.8905    4.0482    0.4523 C   0  0  0  0  0  0  0  0  0  0  0  0
    7.8272    5.2587    1.1341 C   0  0  0  0  0  0  0  0  0  0  0  0
    7.0012    5.4090    2.2428 C   0  0  0  0  0  0  0  0  0  0  0  0
    6.2248    4.3422    2.6813 C   0  0  0  0  0  0  0  0  0  0  0  0
    3.3431    1.1160    2.4596 N   0  0  0  0  0  0  0  0  0  0  0  0
    3.7491   -0.1708    2.4697 N   0  0  0  0  0  0  0  0  0  0  0  0
    3.9268   -0.7786    1.3919 C   0  0  0  0  0  0  0  0  0  0  0  0
    4.3625   -2.1596    1.4028 C   0  0  0  0  0  0  0  0  0  0  0  0
    4.5774   -2.7908    2.6222 C   0  0  0  0  0  0  0  0  0  0  0  0
    4.9897   -4.1133    2.5893 C   0  0  0  0  0  0  0  0  0  0  0  0
    5.1884   -4.7905    1.4047 C   0  0  0  0  0  0  0  0  0  0  0  0
    4.9711   -4.1466    0.1900 C   0  0  0  0  0  0  0  0  0  0  0  0
    4.5551   -2.8206    0.1960 C   0  0  0  0  0  0  0  0  0  0  0  0
    5.6335   -6.2081    1.7110 C   0  0  0  0  0  0  0  0  0  0  0  0
    4.9786   -6.3853    3.0663 C   0  0  0  0  0  0  0  0  0  0  0  0
    5.2748   -5.0585    3.7322 C   0  0  0  0  0  0  0  0  0  0  0  0
    5.1042   -7.2161    0.7050 C   0  0  0  0  0  0  0  0  0  0  0  0
    7.1483   -6.3406    1.7525 C   0  0  0  0  0  0  0  0  0  0  0  0
    2.0312    1.5170    2.4703 C   0  0  0  0  0  0  0  0  0  0  0  0
    0.9035    0.6188    2.4910 C   0  0  0  0  0  0  0  0  0  0  0  0
    0.9604   -0.7423    2.5033 N   0  0  0  0  0  0  0  0  0  0  0  0
   -0.2237   -1.1801    2.5199 N   0  0  0  0  0  0  0  0  0  0  0  0
   -1.0878   -0.1946    2.5254 N   0  0  0  0  0  0  0  0  0  0  0  0
   -2.4805   -0.3323    2.5452 C   0  0  0  0  0  0  0  0  0  0  0  0
   -3.0439   -1.6039    2.5610 C   0  0  0  0  0  0  0  0  0  0  0  0
   -4.4291   -1.7281    2.5805 C   0  0  0  0  0  0  0  0  0  0  0  0
   -5.2477   -0.6037    2.5839 C   0  0  0  0  0  0  0  0  0  0  0  0
   -4.6614    0.6579    2.5682 C   0  0  0  0  0  0  0  0  0  0  0  0
   -3.2789    0.8062    2.5487 C   0  0  0  0  0  0  0  0  0  0  0  0
   -5.0509   -3.1152    2.5973 C   0  0  0  0  0  0  0  0  0  0  0  0
   -5.2153   -3.5120    3.8561 F   0  0  0  0  0  0  0  0  0  0  0  0
   -6.2315   -3.0792    1.9860 F   0  0  0  0  0  0  0  0  0  0  0  0
   -4.2498   -3.9678    1.9647 F   0  0  0  0  0  0  0  0  0  0  0  0
   -0.4055    0.9814    2.5079 C   0  0  0  0  0  0  0  0  0  0  0  0
    1.7728    2.8524    2.4604 C   0  0  0  0  0  0  0  0  0  0  0  0
    8.4863    3.9448   -0.3441 H   0  0  0  0  0  0  0  0  0  0  0  0
    8.3823    6.0303    0.8234 H   0  0  0  0  0  0  0  0  0  0  0  0
    6.9656    6.2845    2.7247 H   0  0  0  0  0  0  0  0  0  0  0  0
    5.6287    4.4458    3.4775 H   0  0  0  0  0  0  0  0  0  0  0  0
    3.7681   -0.3112    0.5223 H   0  0  0  0  0  0  0  0  0  0  0  0
    4.4400   -2.3100    3.4882 H   0  0  0  0  0  0  0  0  0  0  0  0
    5.1122   -4.6306   -0.6736 H   0  0  0  0  0  0  0  0  0  0  0  0
    4.3944   -2.3427   -0.6675 H   0  0  0  0  0  0  0  0  0  0  0  0
    5.3879   -7.1452    3.5714 H   0  0  0  0  0  0  0  0  0  0  0  0
    3.9940   -6.5360    2.9775 H   0  0  0  0  0  0  0  0  0  0  0  0
    4.6690   -4.8916    4.5102 H   0  0  0  0  0  0  0  0  0  0  0  0
    6.2268   -4.9996    4.0325 H   0  0  0  0  0  0  0  0  0  0  0  0
    5.4242   -8.1313    0.9502 H   0  0  0  0  0  0  0  0  0  0  0  0
    4.1043   -7.1999    0.7114 H   0  0  0  0  0  0  0  0  0  0  0  0
    5.4355   -6.9808   -0.2086 H   0  0  0  0  0  0  0  0  0  0  0  0
    7.3946   -7.2880    1.9568 H   0  0  0  0  0  0  0  0  0  0  0  0
    7.5301   -6.0808    0.8655 H   0  0  0  0  0  0  0  0  0  0  0  0
    7.5161   -5.7401    2.4625 H   0  0  0  0  0  0  0  0  0  0  0  0
   -2.4616   -2.4169    2.5584 H   0  0  0  0  0  0  0  0  0  0  0  0
   -6.2429   -0.7007    2.5974 H   0  0  0  0  0  0  0  0  0  0  0  0
   -5.2435    1.4711    2.5709 H   0  0  0  0  0  0  0  0  0  0  0  0
   -2.8657    1.7167    2.5373 H   0  0  0  0  0  0  0  0  0  0  0  0
   -0.7833    1.9073    2.5075 H   0  0  0  0  0  0  0  0  0  0  0  0
    0.8828    3.3082    2.4691 H   0  0  0  0  0  0  0  0  0  0  0  0
  1  2  1  0  0  0  0
  2  3  2  0  0  0  0
  3  4  1  0  0  0  0
  4  5  1  0  0  0  0
  5  6  1  0  0  0  0
  5  7  2  0  0  0  0
  7  8  1  0  0  0  0
  8  9  2  0  0  0  0
  9 10  1  0  0  0  0
 10  4  2  0  0  0  0
  2 11  1  0  0  0  0
 11 12  1  0  0  0  0
 12 13  2  0  0  0  0
 13 14  1  0  0  0  0
 14 15  1  0  0  0  0
 15 16  2  0  0  0  0
 16 17  1  0  0  0  0
 17 18  2  0  0  0  0
 18 19  1  0  0  0  0
 19 14  2  0  0  0  0
 17 20  1  0  0  0  0
 20 21  1  0  0  0  0
 21 22  1  0  0  0  0
 22 16  1  0  0  0  0
 20 23  1  0  0  0  0
 20 24  1  0  0  0  0
 11 25  1  0  0  0  0
 25 26  1  0  0  0  0
 26 27  1  0  0  0  0
 27 28  2  0  0  0  0
 28 29  1  0  0  0  0
 29 30  1  0  0  0  0
 30 31  1  0  0  0  0
 31 32  2  0  0  0  0
 32 33  1  0  0  0  0
 33 34  2  0  0  0  0
 34 35  1  0  0  0  0
 35 30  2  0  0  0  0
 32 36  1  0  0  0  0
 36 37  1  0  0  0  0
 36 38  1  0  0  0  0
 36 39  1  0  0  0  0
 29 40  1  0  0  0  0
 26 40  2  0  0  0  0
 25 41  2  0  0  0  0
 41  1  1  0  0  0  0
  7 42  1  0  0  0  0
  8 43  1  0  0  0  0
  9 44  1  0  0  0  0
 10 45  1  0  0  0  0
 13 46  1  0  0  0  0
 15 47  1  0  0  0  0
 18 48  1  0  0  0  0
 19 49  1  0  0  0  0
 21 50  1  0  0  0  0
 21 51  1  0  0  0  0
 22 52  1  0  0  0  0
 22 53  1  0  0  0  0
 23 54  1  0  0  0  0
 23 55  1  0  0  0  0
 23 56  1  0  0  0  0
 24 57  1  0  0  0  0
 24 58  1  0  0  0  0
 24 59  1  0  0  0  0
 31 60  1  0  0  0  0
 33 61  1  0  0  0  0
 34 62  1  0  0  0  0
 35 63  1  0  0  0  0
 40 64  1  0  0  0  0
 41 65  1  0  0  0  0
M  END
>  <result-rank>
78

>  <similarity>
0.844

>  <query-name>


>  <query-smiles>
Clc1ccc(cc1)CS(=O)(=O)c2cc3N=C(c4c(N(c3cc2)C)cc5c(c4)C(CCC5(C)C)(C)C)c6ccc(cc6)C([O-])=O

>  <source>
REALspace_2019-12

>  <similarity-descriptor>
0.974;0.890;0.614;0.926;0.986;0.779;0.614;0.614;0.0;0.0;0.0;1.000;1.000;0.0;0.0

>  <similarity-descriptor-smiles>
c1cccc(c1)C(F)(F)F;Nc1ccccc1F;C1=CNN=N1;c1ccccc1;c1CCCc1;S1C=CN(C1)N=C;C1=CNN=N1;C1=CNN=N1;;;;C;C;;

>  <reaction-name>
s_1

>  <reagent1-name>
86402

>  <reagent1-smiles>
[R3*]=NN([R2*])C(S[R1*])=Nc1c(F)cccc1

>  <reagent2-name>
14589724

>  <reagent2-smiles>
[R3*]=Cc1cc2c(cc1)C(CC2)(C)C

>  <reagent3-name>
7025778

>  <reagent3-smiles>
[R2*]C(C=1N=NN(c2cc(ccc2)C(F)(F)F)C1)=C[R1*]

$$$$
s_42a____8631722____125211
          04022017333D 1   1.00000     0.00000     0
            
 74 80  0  0  0  0            999 V2000
    6.3461   -1.7241    2.4726 Cl  0  0  0  0  0  0  0  0  0  0  0  0
    5.4805   -0.1686    2.4698 C   0  0  0  0  0  0  0  0  0  0  0  0
    6.1973    1.0231    2.4554 C   0  0  0  0  0  0  0  0  0  0  0  0
    5.5286    2.1834    2.4483 N   0  0  0  0  0  0  0  0  0  0  0  0
    4.2024    2.1150    2.4561 C   0  0  0  0  0  0  0  0  0  0  0  0
    3.3772    3.5979    2.4370 S   0  0  0  0  0  0  0  0  0  0  0  0
    1.8532    2.8504    2.4652 C   0  0  0  0  0  0  0  0  0  0  0  0
    2.0166    1.4939    2.5143 C   0  0  0  0  0  0  0  0  0  0  0  0
    3.3594    1.0317    2.4924 C   0  0  0  0  0  0  0  0  0  0  0  0
    4.0901   -0.1562    2.4875 C   0  0  0  0  0  0  0  0  0  0  0  0
    3.3912   -1.4265    2.5074 C   0  0  0  0  0  0  0  0  0  0  0  0
    3.0801   -2.0096    3.7309 C   0  0  0  0  0  0  0  0  0  0  0  0
    2.4107   -3.2288    3.7605 C   0  0  0  0  0  0  0  0  0  0  0  0
    2.0602   -3.8491    2.5658 C   0  0  0  0  0  0  0  0  0  0  0  0
    1.4091   -5.0316    2.5845 O   0  0  0  0  0  0  0  0  0  0  0  0
    1.0516   -5.6642    1.3645 C   0  0  0  0  0  0  0  0  0  0  0  0
    2.3718   -3.2655    1.3421 C   0  0  0  0  0  0  0  0  0  0  0  0
    3.0414   -2.0468    1.3123 C   0  0  0  0  0  0  0  0  0  0  0  0
    0.7009    0.7294    2.5845 C   0  0  0  0  0  0  0  0  0  0  0  0
   -0.4922    1.5479    2.1271 C   0  0  0  0  0  0  0  0  0  0  0  0
   -0.5052    2.8285    2.9457 C   0  0  3  0  0  0  0  0  0  0  0  0
    0.6104    3.7182    2.4284 C   0  0  0  0  0  0  0  0  0  0  0  0
   -1.7931    3.6070    2.7396 C   0  0  0  0  0  0  0  0  0  0  0  0
    7.6479    1.0153    2.4467 C   0  0  0  0  0  0  0  0  0  0  0  0
    8.4543    1.0217    3.5417 C   0  0  0  0  0  0  0  0  0  0  0  0
    9.7454    1.0131    3.1110 N   0  0  0  0  0  0  0  0  0  0  0  0
    9.7515    1.0025    1.7506 C   0  0  0  0  0  0  0  0  0  0  0  0
    8.4681    1.0039    1.2958 C   0  0  0  0  0  0  0  0  0  0  0  0
   10.9933    0.9910    0.8741 C   0  0  0  0  0  0  0  0  0  0  0  0
   10.9366    1.0137    3.9737 C   0  0  0  0  0  0  0  0  0  0  0  0
   11.3411   -0.4207    4.2809 C   0  0  3  0  0  0  0  0  0  0  0  0
   10.3021   -1.1271    4.9507 O   0  0  0  0  0  0  0  0  0  0  0  0
   10.5309   -2.2956    5.5836 C   0  0  0  0  0  0  0  0  0  0  0  0
   11.8496   -2.6342    5.8733 C   0  0  0  0  0  0  0  0  0  0  0  0
   12.8254   -1.7932    5.4732 O   0  0  0  0  0  0  0  0  0  0  0  0
   12.5699   -0.4347    5.1703 C   0  0  0  0  0  0  0  0  0  0  0  0
   12.1400   -3.8211    6.5396 C   0  0  0  0  0  0  0  0  0  0  0  0
   11.1144   -4.6887    6.9047 C   0  0  0  0  0  0  0  0  0  0  0  0
    9.7929   -4.3683    6.6081 C   0  0  0  0  0  0  0  0  0  0  0  0
    9.5154   -3.1729    5.9521 C   0  0  0  0  0  0  0  0  0  0  0  0
    7.9983    1.0353    4.9922 C   0  0  0  0  0  0  0  0  0  0  0  0
    3.3360   -1.5553    4.5842 H   0  0  0  0  0  0  0  0  0  0  0  0
    2.1830   -3.6566    4.6352 H   0  0  0  0  0  0  0  0  0  0  0  0
    0.5797   -6.5237    1.5605 H   0  0  0  0  0  0  0  0  0  0  0  0
    0.4465   -5.0633    0.8422 H   0  0  0  0  0  0  0  0  0  0  0  0
    1.8769   -5.8510    0.8315 H   0  0  0  0  0  0  0  0  0  0  0  0
    2.1158   -3.7196    0.4888 H   0  0  0  0  0  0  0  0  0  0  0  0
    3.2699   -1.6193    0.4377 H   0  0  0  0  0  0  0  0  0  0  0  0
    0.5479    0.4466    3.5314 H   0  0  0  0  0  0  0  0  0  0  0  0
    0.7726   -0.0805    2.0023 H   0  0  0  0  0  0  0  0  0  0  0  0
   -0.4054    1.7647    1.1547 H   0  0  0  0  0  0  0  0  0  0  0  0
   -1.3372    1.0356    2.2803 H   0  0  0  0  0  0  0  0  0  0  0  0
   -0.3701    2.6255    3.9155 H   0  0  0  0  0  0  0  0  0  0  0  0
    0.4174    4.0163    1.4936 H   0  0  0  0  0  0  0  0  0  0  0  0
    0.7231    4.5187    3.0171 H   0  0  0  0  0  0  0  0  0  0  0  0
   -2.5668    3.0637    3.0656 H   0  0  0  0  0  0  0  0  0  0  0  0
   -1.7493    4.4651    3.2512 H   0  0  0  0  0  0  0  0  0  0  0  0
   -1.9110    3.8046    1.7665 H   0  0  0  0  0  0  0  0  0  0  0  0
    8.1673    0.9980    0.3421 H   0  0  0  0  0  0  0  0  0  0  0  0
   10.7220    0.9845   -0.0884 H   0  0  0  0  0  0  0  0  0  0  0  0
   11.5406    1.8068    1.0606 H   0  0  0  0  0  0  0  0  0  0  0  0
   11.5344    0.1739    1.0733 H   0  0  0  0  0  0  0  0  0  0  0  0
   10.7297    1.4918    4.8273 H   0  0  0  0  0  0  0  0  0  0  0  0
   11.6875    1.4787    3.5047 H   0  0  0  0  0  0  0  0  0  0  0  0
   11.5540   -0.8899    3.4239 H   0  0  0  0  0  0  0  0  0  0  0  0
   13.3500   -0.0345    4.6894 H   0  0  0  0  0  0  0  0  0  0  0  0
   12.3957    0.0803    6.0096 H   0  0  0  0  0  0  0  0  0  0  0  0
   13.0886   -4.0515    6.7568 H   0  0  0  0  0  0  0  0  0  0  0  0
   11.3273   -5.5424    7.3801 H   0  0  0  0  0  0  0  0  0  0  0  0
    9.0519   -4.9894    6.8634 H   0  0  0  0  0  0  0  0  0  0  0  0
    8.5662   -2.9394    5.7409 H   0  0  0  0  0  0  0  0  0  0  0  0
    6.9989    1.0395    5.0274 H   0  0  0  0  0  0  0  0  0  0  0  0
    8.3448    0.2212    5.4583 H   0  0  0  0  0  0  0  0  0  0  0  0
    8.3512    1.8541    5.4449 H   0  0  0  0  0  0  0  0  0  0  0  0
  1  2  1  0  0  0  0
  2  3  1  0  0  0  0
  3  4  2  0  0  0  0
  4  5  1  0  0  0  0
  5  6  1  0  0  0  0
  6  7  1  0  0  0  0
  7  8  2  0  0  0  0
  8  9  1  0  0  0  0
  9  5  2  0  0  0  0
  9 10  1  0  0  0  0
 10  2  2  0  0  0  0
 10 11  1  0  0  0  0
 11 12  1  0  0  0  0
 12 13  2  0  0  0  0
 13 14  1  0  0  0  0
 14 15  1  0  0  0  0
 15 16  1  0  0  0  0
 14 17  2  0  0  0  0
 17 18  1  0  0  0  0
 18 11  2  0  0  0  0
  8 19  1  0  0  0  0
 19 20  1  0  0  0  0
 20 21  1  0  0  0  0
 21 22  1  0  0  0  0
 22  7  1  0  0  0  0
 21 23  1  0  0  0  0
  3 24  1  0  0  0  0
 24 25  2  0  0  0  0
 25 26  1  0  0  0  0
 26 27  1  0  0  0  0
 27 28  2  0  0  0  0
 28 24  1  0  0  0  0
 27 29  1  0  0  0  0
 26 30  1  0  0  0  0
 30 31  1  0  0  0  0
 31 32  1  0  0  0  0
 32 33  1  0  0  0  0
 33 34  1  0  0  0  0
 34 35  1  0  0  0  0
 35 36  1  0  0  0  0
 36 31  1  0  0  0  0
 34 37  2  0  0  0  0
 37 38  1  0  0  0  0
 38 39  2  0  0  0  0
 39 40  1  0  0  0  0
 40 33  2  0  0  0  0
 25 41  1  0  0  0  0
 12 42  1  0  0  0  0
 13 43  1  0  0  0  0
 16 44  1  0  0  0  0
 16 45  1  0  0  0  0
 16 46  1  0  0  0  0
 17 47  1  0  0  0  0
 18 48  1  0  0  0  0
 19 49  1  0  0  0  0
 19 50  1  0  0  0  0
 20 51  1  0  0  0  0
 20 52  1  0  0  0  0
 21 53  1  0  0  0  0
 22 54  1  0  0  0  0
 22 55  1  0  0  0  0
 23 56  1  0  0  0  0
 23 57  1  0  0  0  0
 23 58  1  0  0  0  0
 28 59  1  0  0  0  0
 29 60  1  0  0  0  0
 29 61  1  0  0  0  0
 29 62  1  0  0  0  0
 30 63  1  0  0  0  0
 30 64  1  0  0  0  0
 31 65  1  0  0  0  0
 36 66  1  0  0  0  0
 36 67  1  0  0  0  0
 37 68  1  0  0  0  0
 38 69  1  0  0  0  0
 39 70  1  0  0  0  0
 40 71  1  0  0  0  0
 41 72  1  0  0  0  0
 41 73  1  0  0  0  0
 41 74  1  0  0  0  0
M  END
>  <result-rank>
79

>  <similarity>
0.843

>  <query-name>


>  <query-smiles>
Clc1ccc(cc1)CS(=O)(=O)c2cc3N=C(c4c(N(c3cc2)C)cc5c(c4)C(CCC5(C)C)(C)C)c6ccc(cc6)C([O-])=O

>  <source>
REALspace_2019-12

>  <similarity-descriptor>
0.953;0.998;0.807;0.830;0.947;0.870;0.617;0.617;0.870;0.947;0.947;0.0;1.000;0.490;0.154

>  <similarity-descriptor-smiles>
c1ccccc1;c1ccccc1;C=1C=CN(C1)C;c1cC=CS1;C=1CCCCC1;Clc1cccnc1;C1COccO1;C1COccO1;Clc1cccnc1;C=1CCCCC1;C=1CCCCC1;;C;OC;C.C

>  <reaction-name>
s_42a

>  <reagent1-name>
8631722

>  <reagent1-smiles>
[R1*]=NC=1SC2=C(C1C(=[R2*])c3ccc(OC)cc3)CCC2

>  <reagent2-name>
125211

>  <reagent2-smiles>
[R2*]=C(Cl)C(=[R1*])C1=C(N(C(=C1)C)CC2Oc3c(OC2)cccc3)C

$$$$
m_273170____10757270____10760756____10766684
          04022017333D 1   1.00000     0.00000     0
            
 81 86  0  0  0  0            999 V2000
   -0.7355   -2.0145    6.6806 S   0  0  0  0  0  0  0  0  0  0  0  0
    0.5235   -2.1865    7.3580 O   0  0  0  0  0  0  0  0  0  0  0  0
   -1.5138   -1.0122    7.3613 O   0  0  0  0  0  0  0  0  0  0  0  0
   -0.4479   -1.5105    5.0404 C   0  0  0  0  0  0  0  0  0  0  0  0
   -1.4616   -0.8879    4.3201 C   0  0  0  0  0  0  0  0  0  0  0  0
   -1.2341   -0.4841    3.0085 C   0  0  0  0  0  0  0  0  0  0  0  0
    0.0117   -0.7113    2.4335 C   0  0  0  0  0  0  0  0  0  0  0  0
    1.0250   -1.3345    3.1544 C   0  0  0  0  0  0  0  0  0  0  0  0
    0.7984   -1.7378    4.4657 C   0  0  0  0  0  0  0  0  0  0  0  0
    0.2650   -0.2731    1.0004 C   0  0  3  0  0  0  0  0  0  0  0  0
    1.0000    1.0000    1.0000 N   0  0  0  0  0  0  0  0  0  0  0  0
    2.4017    1.0000    1.0000 C   0  0  0  0  0  0  0  0  0  0  0  0
    3.1912    1.9825    1.3572 N   0  0  0  0  0  0  0  0  0  0  0  0
    4.4560    1.6477    1.2313 N   0  0  0  0  0  0  0  0  0  0  0  0
    4.5040    0.4144    0.7803 C   0  0  0  0  0  0  0  0  0  0  0  0
    3.2232   -0.0152    0.6266 N   0  0  0  0  0  0  0  0  0  0  0  0
    2.8010   -1.3388    0.1446 C   0  0  0  0  0  0  0  0  0  0  0  0
    2.8897   -1.3776   -1.3732 C   0  0  0  0  0  0  0  0  0  0  0  0
    3.5561   -2.4397   -1.9757 C   0  0  0  0  0  0  0  0  0  0  0  0
    3.6236   -2.5408   -3.3615 C   0  0  0  0  0  0  0  0  0  0  0  0
    3.0554   -1.5632   -4.1627 C   0  0  0  0  0  0  0  0  0  0  0  0
    3.1656   -1.7110   -5.5541 N   0  0  0  0  0  0  0  0  0  0  0  0
    3.0457   -3.0543   -6.1470 C   0  0  0  0  0  0  0  0  0  0  0  0
    3.4125   -4.1726   -5.1788 C   0  0  0  0  0  0  0  0  0  0  0  0
    4.3076   -3.7193   -4.0312 C   0  0  0  0  0  0  0  0  0  0  0  0
    3.3869   -0.5627   -6.4469 C   0  0  0  0  0  0  0  0  0  0  0  0
    2.4050   -0.4939   -3.5442 C   0  0  0  0  0  0  0  0  0  0  0  0
    2.3101   -0.3851   -2.1577 C   0  0  0  0  0  0  0  0  0  0  0  0
    5.7075   -0.3455    0.4994 C   0  0  0  0  0  0  0  0  0  0  0  0
    5.7639   -1.6488    0.3496 O   0  0  0  0  0  0  0  0  0  0  0  0
    7.0004   -2.0145    0.1063 C   0  0  0  0  0  0  0  0  0  0  0  0
    7.7996   -0.9107    0.0909 C   0  0  0  0  0  0  0  0  0  0  0  0
    6.9505    0.1862    0.3490 C   0  0  0  0  0  0  0  0  0  0  0  0
    7.4676   -3.4425   -0.1235 C   0  0  0  0  0  0  0  0  0  0  0  0
    7.3962   -3.7467   -1.5087 O   0  0  0  0  0  0  0  0  0  0  0  0
    8.4586   -3.5101   -2.3075 C   0  0  0  0  0  0  0  0  0  0  0  0
    8.3821   -3.8104   -3.6634 C   0  0  0  0  0  0  0  0  0  0  0  0
    9.4807   -3.5652   -4.4820 C   0  0  0  0  0  0  0  0  0  0  0  0
   10.6433   -3.0232   -3.9432 C   0  0  0  0  0  0  0  0  0  0  0  0
   10.7131   -2.7263   -2.5861 C   0  0  0  0  0  0  0  0  0  0  0  0
    9.6185   -2.9690   -1.7622 C   0  0  0  0  0  0  0  0  0  0  0  0
    0.2650    2.2731    0.9996 C   0  0  0  0  0  0  0  0  0  0  0  0
   -1.0631   -0.0916    0.2838 C   0  0  0  0  0  0  0  0  0  0  0  0
   -1.6394   -3.5826    6.6797 C   0  0  0  0  0  0  0  0  0  0  0  0
   -2.3532   -0.7307    4.7447 H   0  0  0  0  0  0  0  0  0  0  0  0
   -1.9583   -0.0354    2.4848 H   0  0  0  0  0  0  0  0  0  0  0  0
    1.9164   -1.4925    2.7297 H   0  0  0  0  0  0  0  0  0  0  0  0
    1.5228   -2.1860    4.9895 H   0  0  0  0  0  0  0  0  0  0  0  0
    0.8054   -0.9701    0.5293 H   0  0  0  0  0  0  0  0  0  0  0  0
    1.8576   -1.5115    0.4279 H   0  0  0  0  0  0  0  0  0  0  0  0
    3.3990   -2.0408    0.5315 H   0  0  0  0  0  0  0  0  0  0  0  0
    3.9911   -3.1376   -1.4068 H   0  0  0  0  0  0  0  0  0  0  0  0
    3.6537   -3.1075   -6.9391 H   0  0  0  0  0  0  0  0  0  0  0  0
    2.1000   -3.1877   -6.4432 H   0  0  0  0  0  0  0  0  0  0  0  0
    3.8905   -4.8878   -5.6887 H   0  0  0  0  0  0  0  0  0  0  0  0
    2.5688   -4.5457   -4.7929 H   0  0  0  0  0  0  0  0  0  0  0  0
    4.4257   -4.4644   -3.3748 H   0  0  0  0  0  0  0  0  0  0  0  0
    5.2010   -3.4410   -4.3838 H   0  0  0  0  0  0  0  0  0  0  0  0
    3.4355   -0.8810   -7.3936 H   0  0  0  0  0  0  0  0  0  0  0  0
    2.6305    0.0844   -6.3513 H   0  0  0  0  0  0  0  0  0  0  0  0
    4.2449   -0.1110   -6.2026 H   0  0  0  0  0  0  0  0  0  0  0  0
    1.9939    0.2172   -4.1144 H   0  0  0  0  0  0  0  0  0  0  0  0
    1.8363    0.3884   -1.7366 H   0  0  0  0  0  0  0  0  0  0  0  0
    8.7862   -0.8838   -0.0704 H   0  0  0  0  0  0  0  0  0  0  0  0
    7.2081    1.1506    0.4087 H   0  0  0  0  0  0  0  0  0  0  0  0
    8.4121   -3.5389    0.1907 H   0  0  0  0  0  0  0  0  0  0  0  0
    6.8808   -4.0714    0.3866 H   0  0  0  0  0  0  0  0  0  0  0  0
    7.5445   -4.1993   -4.0471 H   0  0  0  0  0  0  0  0  0  0  0  0
    9.4344   -3.7787   -5.4578 H   0  0  0  0  0  0  0  0  0  0  0  0
   11.4310   -2.8465   -4.5334 H   0  0  0  0  0  0  0  0  0  0  0  0
   11.5509   -2.3380   -2.2021 H   0  0  0  0  0  0  0  0  0  0  0  0
    9.6651   -2.7563   -0.7862 H   0  0  0  0  0  0  0  0  0  0  0  0
   -0.7182    2.0903    0.9996 H   0  0  0  0  0  0  0  0  0  0  0  0
    0.5066    2.7977    1.8159 H   0  0  0  0  0  0  0  0  0  0  0  0
    0.5066    2.7972    0.1829 H   0  0  0  0  0  0  0  0  0  0  0  0
   -1.5631   -0.9576    0.2841 H   0  0  0  0  0  0  0  0  0  0  0  0
   -1.6036    0.6055    0.7550 H   0  0  0  0  0  0  0  0  0  0  0  0
   -0.8965    0.1968   -0.6591 H   0  0  0  0  0  0  0  0  0  0  0  0
   -2.5137   -3.4632    6.2093 H   0  0  0  0  0  0  0  0  0  0  0  0
   -1.0989   -4.2786    6.2070 H   0  0  0  0  0  0  0  0  0  0  0  0
   -1.8049   -3.8725    7.6223 H   0  0  0  0  0  0  0  0  0  0  0  0
  1  2  2  0  0  0  0
  1  3  2  0  0  0  0
  1  4  1  0  0  0  0
  4  5  1  0  0  0  0
  5  6  2  0  0  0  0
  6  7  1  0  0  0  0
  7  8  2  0  0  0  0
  8  9  1  0  0  0  0
  9  4  2  0  0  0  0
  7 10  1  0  0  0  0
 10 11  1  0  0  0  0
 11 12  1  0  0  0  0
 12 13  2  0  0  0  0
 13 14  1  0  0  0  0
 14 15  2  0  0  0  0
 15 16  1  0  0  0  0
 16 12  1  0  0  0  0
 16 17  1  0  0  0  0
 17 18  1  0  0  0  0
 18 19  1  0  0  0  0
 19 20  2  0  0  0  0
 20 21  1  0  0  0  0
 21 22  1  0  0  0  0
 22 23  1  0  0  0  0
 23 24  1  0  0  0  0
 24 25  1  0  0  0  0
 25 20  1  0  0  0  0
 22 26  1  0  0  0  0
 21 27  2  0  0  0  0
 27 28  1  0  0  0  0
 28 18  2  0  0  0  0
 15 29  1  0  0  0  0
 29 30  1  0  0  0  0
 30 31  1  0  0  0  0
 31 32  2  0  0  0  0
 32 33  1  0  0  0  0
 29 33  2  0  0  0  0
 31 34  1  0  0  0  0
 34 35  1  0  0  0  0
 35 36  1  0  0  0  0
 36 37  1  0  0  0  0
 37 38  2  0  0  0  0
 38 39  1  0  0  0  0
 39 40  2  0  0  0  0
 40 41  1  0  0  0  0
 41 36  2  0  0  0  0
 11 42  1  0  0  0  0
 10 43  1  0  0  0  0
  1 44  1  0  0  0  0
  5 45  1  0  0  0  0
  6 46  1  0  0  0  0
  8 47  1  0  0  0  0
  9 48  1  0  0  0  0
 10 49  1  0  0  0  0
 17 50  1  0  0  0  0
 17 51  1  0  0  0  0
 19 52  1  0  0  0  0
 23 53  1  0  0  0  0
 23 54  1  0  0  0  0
 24 55  1  0  0  0  0
 24 56  1  0  0  0  0
 25 57  1  0  0  0  0
 25 58  1  0  0  0  0
 26 59  1  0  0  0  0
 26 60  1  0  0  0  0
 26 61  1  0  0  0  0
 27 62  1  0  0  0  0
 28 63  1  0  0  0  0
 32 64  1  0  0  0  0
 33 65  1  0  0  0  0
 34 66  1  0  0  0  0
 34 67  1  0  0  0  0
 37 68  1  0  0  0  0
 38 69  1  0  0  0  0
 39 70  1  0  0  0  0
 40 71  1  0  0  0  0
 41 72  1  0  0  0  0
 42 73  1  0  0  0  0
 42 74  1  0  0  0  0
 42 75  1  0  0  0  0
 43 76  1  0  0  0  0
 43 77  1  0  0  0  0
 43 78  1  0  0  0  0
 44 79  1  0  0  0  0
 44 80  1  0  0  0  0
 44 81  1  0  0  0  0
M  END
>  <result-rank>
80

>  <similarity>
0.843

>  <query-name>


>  <query-smiles>
Clc1ccc(cc1)CS(=O)(=O)c2cc3N=C(c4c(N(c3cc2)C)cc5c(c4)C(CCC5(C)C)(C)C)c6ccc(cc6)C([O-])=O

>  <source>
REALspace_2019-12

>  <similarity-descriptor>
0.954;0.947;0.788;0.852;0.976;0.661;0.539;0.539;1.000;0.976;0.0;0.0;0.995;0.913;0.125

>  <similarity-descriptor-smiles>
c1ccccc1;c1ccc(cc1)C;C1=CC=CO1;Cc1ccccc1;c1CCCNc1;NC=1NC=NN1;CO;CO;C;c1CCCNc1;;;C;S(=O)=O;C.C

>  <reaction-name>
m_273170

>  <reagent1-name>
10757270

>  <reagent1-smiles>
[R2*]=C([R1*])N([R3*])Cc1cc2c(N(CCC2)C)cc1

>  <reagent2-name>
10760756

>  <reagent2-smiles>
[R1*]N(C(c1ccc(S(=O)(=O)C)cc1)C)C

>  <reagent3-name>
10766684

>  <reagent3-smiles>
[R2*]=NN=C([R3*])C=1OC(=CC1)COc2ccccc2

$$$$
s_22____146966____59412
          04022017333D 1   1.00000     0.00000     0
            
 73 77  0  0  0  0            999 V2000
    7.0028    1.0024    1.0175 Cl  0  0  0  0  0  0  0  0  0  0  0  0
    5.2233    1.0006    1.0093 C   0  0  0  0  0  0  0  0  0  0  0  0
    4.5235    1.2583    2.1842 C   0  0  0  0  0  0  0  0  0  0  0  0
    5.3772    1.5829    3.6654 S   0  0  0  0  0  0  0  0  0  0  0  0
    6.0673    0.3933    4.0923 O   0  0  0  0  0  0  0  0  0  0  0  0
    6.3313    2.6393    3.4479 O   0  0  0  0  0  0  0  0  0  0  0  0
    4.3158    2.0377    4.8158 N   0  0  0  0  0  0  0  0  0  0  0  0
    3.8839    1.1132    5.7747 C   0  0  0  0  0  0  0  0  0  0  0  0
    4.5909    0.9812    6.9651 C   0  0  0  0  0  0  0  0  0  0  0  0
    4.1681    0.0652    7.9223 C   0  0  0  0  0  0  0  0  0  0  0  0
    3.0392   -0.7088    7.6751 C   0  0  0  0  0  0  0  0  0  0  0  0
    2.4914   -1.8826    8.8954 Cl  0  0  0  0  0  0  0  0  0  0  0  0
    2.3276   -0.5811    6.4869 C   0  0  0  0  0  0  0  0  0  0  0  0
    2.7560    0.3367    5.5339 C   0  0  0  0  0  0  0  0  0  0  0  0
    3.8120    3.4183    4.8466 C   0  0  0  0  0  0  0  0  0  0  0  0
    3.1319    1.2594    2.1852 C   0  0  0  0  0  0  0  0  0  0  0  0
    2.4506    1.0000    1.0000 C   0  0  0  0  0  0  0  0  0  0  0  0
    3.1420    0.7413   -0.1795 C   0  0  0  0  0  0  0  0  0  0  0  0
    4.5337    0.7426   -0.1715 C   0  0  0  0  0  0  0  0  0  0  0  0
    1.0000    1.0000    1.0000 C   0  0  0  0  0  0  0  0  0  0  0  0
    0.4000   -0.0381    0.9518 O   0  0  0  0  0  0  0  0  0  0  0  0
    0.3150    2.1852    1.0550 N   0  0  0  0  0  0  0  0  0  0  0  0
   -1.0517    2.2198    1.5952 C   0  0  0  0  0  0  0  0  0  0  0  0
   -2.0447    2.3632    0.4528 C   0  0  0  0  0  0  0  0  0  0  0  0
   -2.8935    3.4591    0.2187 C   0  0  0  0  0  0  0  0  0  0  0  0
   -3.5764    3.1676   -0.8656 N   0  0  0  0  0  0  0  0  0  0  0  0
   -3.2392    1.9892   -1.3353 N   0  0  0  0  0  0  0  0  0  0  0  0
   -3.7736    1.3784   -2.4763 C   0  0  0  0  0  0  0  0  0  0  0  0
   -3.8533   -0.0090   -2.5413 C   0  0  0  0  0  0  0  0  0  0  0  0
   -4.3850   -0.6122   -3.6764 C   0  0  0  0  0  0  0  0  0  0  0  0
   -4.8317    0.1708   -4.7354 C   0  0  0  0  0  0  0  0  0  0  0  0
   -4.7475    1.5570   -4.6592 C   0  0  0  0  0  0  0  0  0  0  0  0
   -4.2177    2.1713   -3.5294 C   0  0  0  0  0  0  0  0  0  0  0  0
   -2.2738    1.4548   -0.5364 C   0  0  0  0  0  0  0  0  0  0  0  0
   -3.0015    4.6654    1.0167 C   0  0  0  0  0  0  0  0  0  0  0  0
   -3.3643    4.5817    2.3576 C   0  0  0  0  0  0  0  0  0  0  0  0
   -3.4635    5.7468    3.1112 C   0  0  0  0  0  0  0  0  0  0  0  0
   -3.2010    6.9811    2.5237 C   0  0  0  0  0  0  0  0  0  0  0  0
   -2.8390    7.0503    1.1823 C   0  0  0  0  0  0  0  0  0  0  0  0
   -2.7361    5.8926    0.4182 C   0  0  0  0  0  0  0  0  0  0  0  0
   -3.3002    8.2734    3.3181 C   0  0  0  0  0  0  0  0  0  0  0  0
   -3.8622    5.6353    4.5739 C   0  0  0  0  0  0  0  0  0  0  0  0
    0.9467    3.4222    0.5738 C   0  0  0  0  0  0  0  0  0  0  0  0
    5.4009    1.5434    7.1323 H   0  0  0  0  0  0  0  0  0  0  0  0
    4.6712   -0.0361    8.7805 H   0  0  0  0  0  0  0  0  0  0  0  0
    1.5173   -1.1427    6.3198 H   0  0  0  0  0  0  0  0  0  0  0  0
    2.2530    0.4381    4.6756 H   0  0  0  0  0  0  0  0  0  0  0  0
    3.1754    3.5239    5.6105 H   0  0  0  0  0  0  0  0  0  0  0  0
    4.5784    4.0503    4.9615 H   0  0  0  0  0  0  0  0  0  0  0  0
    3.3395    3.6199    3.9886 H   0  0  0  0  0  0  0  0  0  0  0  0
    2.6271    1.4445    3.0284 H   0  0  0  0  0  0  0  0  0  0  0  0
    2.6430    0.5560   -1.0260 H   0  0  0  0  0  0  0  0  0  0  0  0
    5.0384    0.5579   -1.0148 H   0  0  0  0  0  0  0  0  0  0  0  0
   -1.1447    2.9973    2.2172 H   0  0  0  0  0  0  0  0  0  0  0  0
   -1.2354    1.3716    2.0920 H   0  0  0  0  0  0  0  0  0  0  0  0
   -3.5309   -0.5685   -1.7777 H   0  0  0  0  0  0  0  0  0  0  0  0
   -4.4460   -1.6089   -3.7309 H   0  0  0  0  0  0  0  0  0  0  0  0
   -5.2134   -0.2629   -5.5516 H   0  0  0  0  0  0  0  0  0  0  0  0
   -5.0705    2.1164   -5.4227 H   0  0  0  0  0  0  0  0  0  0  0  0
   -4.1570    3.1680   -3.4749 H   0  0  0  0  0  0  0  0  0  0  0  0
   -1.8223    0.5702   -0.6530 H   0  0  0  0  0  0  0  0  0  0  0  0
   -3.5517    3.6927    2.7753 H   0  0  0  0  0  0  0  0  0  0  0  0
   -2.6513    7.9391    0.7642 H   0  0  0  0  0  0  0  0  0  0  0  0
   -2.4754    5.9418   -0.5459 H   0  0  0  0  0  0  0  0  0  0  0  0
   -3.0761    9.0470    2.7255 H   0  0  0  0  0  0  0  0  0  0  0  0
   -4.2313    8.3795    3.6671 H   0  0  0  0  0  0  0  0  0  0  0  0
   -2.6583    8.2436    4.0844 H   0  0  0  0  0  0  0  0  0  0  0  0
   -4.0071    4.6738    4.8075 H   0  0  0  0  0  0  0  0  0  0  0  0
   -3.1345    6.0116    5.1473 H   0  0  0  0  0  0  0  0  0  0  0  0
   -4.7072    6.1470    4.7291 H   0  0  0  0  0  0  0  0  0  0  0  0
    0.3117    4.1865    0.6865 H   0  0  0  0  0  0  0  0  0  0  0  0
    1.7779    3.5989    1.1009 H   0  0  0  0  0  0  0  0  0  0  0  0
    1.1802    3.3228   -0.3935 H   0  0  0  0  0  0  0  0  0  0  0  0
  1  2  1  0  0  0  0
  2  3  1  0  0  0  0
  3  4  1  0  0  0  0
  4  5  2  0  0  0  0
  4  6  2  0  0  0  0
  4  7  1  0  0  0  0
  7  8  1  0  0  0  0
  8  9  1  0  0  0  0
  9 10  2  0  0  0  0
 10 11  1  0  0  0  0
 11 12  1  0  0  0  0
 11 13  2  0  0  0  0
 13 14  1  0  0  0  0
 14  8  2  0  0  0  0
  7 15  1  0  0  0  0
  3 16  2  0  0  0  0
 16 17  1  0  0  0  0
 17 18  2  0  0  0  0
 18 19  1  0  0  0  0
 19  2  2  0  0  0  0
 17 20  1  0  0  0  0
 20 21  2  0  0  0  0
 20 22  1  0  0  0  0
 22 23  1  0  0  0  0
 23 24  1  0  0  0  0
 24 25  1  0  0  0  0
 25 26  2  0  0  0  0
 26 27  1  0  0  0  0
 27 28  1  0  0  0  0
 28 29  1  0  0  0  0
 29 30  2  0  0  0  0
 30 31  1  0  0  0  0
 31 32  2  0  0  0  0
 32 33  1  0  0  0  0
 33 28  2  0  0  0  0
 27 34  1  0  0  0  0
 24 34  2  0  0  0  0
 25 35  1  0  0  0  0
 35 36  1  0  0  0  0
 36 37  2  0  0  0  0
 37 38  1  0  0  0  0
 38 39  2  0  0  0  0
 39 40  1  0  0  0  0
 40 35  2  0  0  0  0
 38 41  1  0  0  0  0
 37 42  1  0  0  0  0
 22 43  1  0  0  0  0
  9 44  1  0  0  0  0
 10 45  1  0  0  0  0
 13 46  1  0  0  0  0
 14 47  1  0  0  0  0
 15 48  1  0  0  0  0
 15 49  1  0  0  0  0
 15 50  1  0  0  0  0
 16 51  1  0  0  0  0
 18 52  1  0  0  0  0
 19 53  1  0  0  0  0
 23 54  1  0  0  0  0
 23 55  1  0  0  0  0
 29 56  1  0  0  0  0
 30 57  1  0  0  0  0
 31 58  1  0  0  0  0
 32 59  1  0  0  0  0
 33 60  1  0  0  0  0
 34 61  1  0  0  0  0
 36 62  1  0  0  0  0
 39 63  1  0  0  0  0
 40 64  1  0  0  0  0
 41 65  1  0  0  0  0
 41 66  1  0  0  0  0
 41 67  1  0  0  0  0
 42 68  1  0  0  0  0
 42 69  1  0  0  0  0
 42 70  1  0  0  0  0
 43 71  1  0  0  0  0
 43 72  1  0  0  0  0
 43 73  1  0  0  0  0
M  END
>  <result-rank>
81

>  <similarity>
0.843

>  <query-name>


>  <query-smiles>
Clc1ccc(cc1)CS(=O)(=O)c2cc3N=C(c4c(N(c3cc2)C)cc5c(c4)C(CCC5(C)C)(C)C)c6ccc(cc6)C([O-])=O

>  <source>
REALspace_2019-12

>  <similarity-descriptor>
0.999;0.956;0.948;0.750;0.750;0.539;0.925;0.997;1.000;0.0;0.0;1.000;1.000;0.0;0.0

>  <similarity-descriptor-smiles>
c1ccc(cc1)Cl;c1ccccc1;Clc1ccccc1;c1ccccc1;c1ccccc1;C(=O)NCC1=CNN=C1;NC;S(=O)=O;C;;;C;C;;

>  <reaction-name>
s_22

>  <reagent1-name>
146966

>  <reagent1-smiles>
[R1*]N(CC=1C(=NN(c2ccccc2)C1)c3cc(c(cc3)C)C)C

>  <reagent2-name>
59412

>  <reagent2-smiles>
[R1*]C(=O)c1cc(S(=O)(=O)N(c2ccc(Cl)cc2)C)c(Cl)cc1

$$$$
m_276010b____17282026____17252158____17280940
          04022017333D 1   1.00000     0.00000     0
            
 68 73  0  0  0  0            999 V2000
    0.3960    2.4371    5.5392 S   0  0  0  0  0  0  0  0  0  0  0  0
   -0.5825    2.5524    4.1409 C   0  0  0  0  0  0  0  0  0  0  0  0
   -0.3863    3.5510    3.1044 C   0  0  0  0  0  0  0  0  0  0  0  0
   -1.3283    4.1452    2.6577 O   0  0  0  0  0  0  0  0  0  0  0  0
    0.9034    3.8204    2.6258 N   0  0  0  0  0  0  0  0  0  0  0  0
    1.9471    2.8896    2.5745 C   0  0  0  0  0  0  0  0  0  0  0  0
    3.1336    3.5796    2.5325 C   0  0  0  0  0  0  0  0  0  0  0  0
    4.3543    2.9130    2.4792 C   0  0  0  0  0  0  0  0  0  0  0  0
    4.3914    1.5230    2.4626 C   0  0  0  0  0  0  0  0  0  0  0  0
    3.1952    0.8149    2.4997 C   0  0  0  0  0  0  0  0  0  0  0  0
    1.9847    1.4975    2.5537 C   0  0  0  0  0  0  0  0  0  0  0  0
    2.7996    5.0549    2.5596 C   0  0  3  0  0  0  0  0  0  0  0  0
    3.6741    5.8420    1.6785 N   0  0  0  0  0  0  0  0  0  0  0  0
    4.0096    5.5254    0.4522 N   0  0  0  0  0  0  0  0  0  0  0  0
    4.7714    6.3941   -0.0578 N   0  0  0  0  0  0  0  0  0  0  0  0
    4.9690    7.3620    0.8787 C   0  0  0  0  0  0  0  0  0  0  0  0
    5.7802    8.5522    0.7149 C   0  0  0  0  0  0  0  0  0  0  0  0
    6.2178    8.9077   -0.5566 C   0  0  0  0  0  0  0  0  0  0  0  0
    6.9960   10.0512   -0.7049 C   0  0  0  0  0  0  0  0  0  0  0  0
    7.3301   10.8248    0.4009 C   0  0  0  0  0  0  0  0  0  0  0  0
    8.0730   11.9154    0.2452 F   0  0  0  0  0  0  0  0  0  0  0  0
    6.8864   10.4582    1.6677 C   0  0  0  0  0  0  0  0  0  0  0  0
    6.1075    9.3170    1.8300 C   0  0  0  0  0  0  0  0  0  0  0  0
    7.4816   10.4532   -2.0876 C   0  0  0  0  0  0  0  0  0  0  0  0
    7.0141   11.6617   -2.3876 F   0  0  0  0  0  0  0  0  0  0  0  0
    8.8113   10.4763   -2.1012 F   0  0  0  0  0  0  0  0  0  0  0  0
    7.0442    9.5736   -2.9842 F   0  0  0  0  0  0  0  0  0  0  0  0
    4.2695    7.0207    1.9954 C   0  0  0  0  0  0  0  0  0  0  0  0
    1.3497    5.1271    2.1354 C   0  0  0  0  0  0  0  0  0  0  0  0
    0.6358    6.2924    2.7999 C   0  0  0  0  0  0  0  0  0  0  0  0
    1.1799    5.2208    0.6271 C   0  0  0  0  0  0  0  0  0  0  0  0
   -1.5200    1.5606    4.2180 C   0  0  0  0  0  0  0  0  0  0  0  0
   -1.3979    0.7510    5.3829 C   0  0  0  0  0  0  0  0  0  0  0  0
   -0.4041    1.1136    6.2372 C   0  0  0  0  0  0  0  0  0  0  0  0
   -0.0178    0.4463    7.5366 C   0  0  0  0  0  0  0  0  0  0  0  0
    0.1361   -0.9462    6.9489 C   0  0  0  0  0  0  0  0  0  0  0  0
   -1.1099   -1.4741    6.2481 C   0  0  0  0  0  0  0  0  0  0  0  0
   -2.1720   -0.4725    5.8359 C   0  0  0  0  0  0  0  0  0  0  0  0
   -1.7981   -2.5283    7.1018 C   0  0  0  0  0  0  0  0  0  0  0  0
   -0.6286   -2.1739    4.9838 C   0  0  0  0  0  0  0  0  0  0  0  0
    5.2069    3.4349    2.4527 H   0  0  0  0  0  0  0  0  0  0  0  0
    5.2659    1.0394    2.4245 H   0  0  0  0  0  0  0  0  0  0  0  0
    3.2054   -0.1849    2.4876 H   0  0  0  0  0  0  0  0  0  0  0  0
    1.1287    0.9812    2.5779 H   0  0  0  0  0  0  0  0  0  0  0  0
    2.8854    5.3942    3.4963 H   0  0  0  0  0  0  0  0  0  0  0  0
    5.9769    8.3504   -1.3512 H   0  0  0  0  0  0  0  0  0  0  0  0
    7.1277   11.0155    2.4622 H   0  0  0  0  0  0  0  0  0  0  0  0
    5.7864    9.0492    2.7385 H   0  0  0  0  0  0  0  0  0  0  0  0
    4.2079    7.5251    2.8567 H   0  0  0  0  0  0  0  0  0  0  0  0
    0.9818    7.1527    2.4253 H   0  0  0  0  0  0  0  0  0  0  0  0
   -0.3466    6.2244    2.6260 H   0  0  0  0  0  0  0  0  0  0  0  0
    0.8024    6.2671    3.7856 H   0  0  0  0  0  0  0  0  0  0  0  0
    1.4892    6.1180    0.3119 H   0  0  0  0  0  0  0  0  0  0  0  0
    1.7232    4.5068    0.1855 H   0  0  0  0  0  0  0  0  0  0  0  0
    0.2156    5.0991    0.3920 H   0  0  0  0  0  0  0  0  0  0  0  0
   -2.2243    1.4173    3.5227 H   0  0  0  0  0  0  0  0  0  0  0  0
   -0.7383    0.4979    8.2281 H   0  0  0  0  0  0  0  0  0  0  0  0
    0.8355    0.8031    7.9170 H   0  0  0  0  0  0  0  0  0  0  0  0
    0.8832   -0.9246    6.2845 H   0  0  0  0  0  0  0  0  0  0  0  0
    0.3680   -1.5751    7.6909 H   0  0  0  0  0  0  0  0  0  0  0  0
   -2.7265   -0.8354    5.0870 H   0  0  0  0  0  0  0  0  0  0  0  0
   -2.7636   -0.2480    6.6102 H   0  0  0  0  0  0  0  0  0  0  0  0
   -1.1275   -3.2100    7.3945 H   0  0  0  0  0  0  0  0  0  0  0  0
   -2.2039   -2.0934    7.9056 H   0  0  0  0  0  0  0  0  0  0  0  0
   -2.5152   -2.9746    6.5665 H   0  0  0  0  0  0  0  0  0  0  0  0
    0.0751   -2.8437    5.2209 H   0  0  0  0  0  0  0  0  0  0  0  0
   -1.3983   -2.6395    4.5470 H   0  0  0  0  0  0  0  0  0  0  0  0
   -0.2467   -1.4980    4.3535 H   0  0  0  0  0  0  0  0  0  0  0  0
  1  2  1  0  0  0  0
  2  3  1  0  0  0  0
  3  4  2  0  0  0  0
  3  5  1  0  0  0  0
  5  6  1  0  0  0  0
  6  7  1  0  0  0  0
  7  8  2  0  0  0  0
  8  9  1  0  0  0  0
  9 10  2  0  0  0  0
 10 11  1  0  0  0  0
 11  6  2  0  0  0  0
  7 12  1  0  0  0  0
 12 13  1  0  0  0  0
 13 14  1  0  0  0  0
 14 15  2  0  0  0  0
 15 16  1  0  0  0  0
 16 17  1  0  0  0  0
 17 18  1  0  0  0  0
 18 19  2  0  0  0  0
 19 20  1  0  0  0  0
 20 21  1  0  0  0  0
 20 22  2  0  0  0  0
 22 23  1  0  0  0  0
 23 17  2  0  0  0  0
 19 24  1  0  0  0  0
 24 25  1  0  0  0  0
 24 26  1  0  0  0  0
 24 27  1  0  0  0  0
 16 28  2  0  0  0  0
 28 13  1  0  0  0  0
 12 29  1  0  0  0  0
 29  5  1  0  0  0  0
 29 30  1  0  0  0  0
 29 31  1  0  0  0  0
  2 32  2  0  0  0  0
 32 33  1  0  0  0  0
 33 34  2  0  0  0  0
 34  1  1  0  0  0  0
 34 35  1  0  0  0  0
 35 36  1  0  0  0  0
 36 37  1  0  0  0  0
 37 38  1  0  0  0  0
 38 33  1  0  0  0  0
 37 39  1  0  0  0  0
 37 40  1  0  0  0  0
  8 41  1  0  0  0  0
  9 42  1  0  0  0  0
 10 43  1  0  0  0  0
 11 44  1  0  0  0  0
 12 45  1  0  0  0  0
 18 46  1  0  0  0  0
 22 47  1  0  0  0  0
 23 48  1  0  0  0  0
 28 49  1  0  0  0  0
 30 50  1  0  0  0  0
 30 51  1  0  0  0  0
 30 52  1  0  0  0  0
 31 53  1  0  0  0  0
 31 54  1  0  0  0  0
 31 55  1  0  0  0  0
 32 56  1  0  0  0  0
 35 57  1  0  0  0  0
 35 58  1  0  0  0  0
 36 59  1  0  0  0  0
 36 60  1  0  0  0  0
 38 61  1  0  0  0  0
 38 62  1  0  0  0  0
 39 63  1  0  0  0  0
 39 64  1  0  0  0  0
 39 65  1  0  0  0  0
 40 66  1  0  0  0  0
 40 67  1  0  0  0  0
 40 68  1  0  0  0  0
M  END
>  <result-rank>
82

>  <similarity>
0.843

>  <query-name>


>  <query-smiles>
Clc1ccc(cc1)CS(=O)(=O)c2cc3N=C(c4c(N(c3cc2)C)cc5c(c4)C(CCC5(C)C)(C)C)c6ccc(cc6)C([O-])=O

>  <source>
REALspace_2019-12

>  <similarity-descriptor>
0.941;0.985;0.614;0.916;0.975;0.675;0.614;0.614;0.995;0.975;0.0;1.000;1.000;0.0;0.083

>  <similarity-descriptor-smiles>
c1ccc(c(c1)C(F)(F)F)F;c1ccccc1;N1C=CN=N1;S1C=CC=C1;C=1CCCCC1;C(=O)N1CCcc1;N1C=CN=N1;N1C=CN=N1;C;C=1CCCCC1;;C;C;;C

>  <reaction-name>
m_276010b

>  <reagent1-name>
17282026

>  <reagent1-smiles>
[R1*]N=NN([R2*])C1c2c(N([R3*])C1(C)C)cccc2

>  <reagent2-name>
17252158

>  <reagent2-smiles>
[R3*]C(=O)C=1SC2=C(C1)CC(CC2)(C)C

>  <reagent3-name>
17280940

>  <reagent3-smiles>
[R1*]C(c1cc(c(F)cc1)C(F)(F)F)=C[R2*]

$$$$
s_2____2757072____16508570____7793932
          04022017333D 1   1.00000     0.00000     0
            
 74 80  0  0  0  0            999 V2000
   -4.9978    1.2378   -1.8880 S   0  0  0  0  0  0  0  0  0  0  0  0
   -4.7562    0.6747   -3.1911 O   0  0  0  0  0  0  0  0  0  0  0  0
   -5.7781    0.3159   -1.1039 O   0  0  0  0  0  0  0  0  0  0  0  0
   -5.8113    2.6415   -2.0450 N   0  0  0  0  0  0  0  0  0  0  0  0
   -3.4787    1.5337   -1.0934 C   0  0  0  0  0  0  0  0  0  0  0  0
   -3.3988    1.4673    0.2934 C   0  0  0  0  0  0  0  0  0  0  0  0
   -2.1851    1.7035    0.9311 C   0  0  0  0  0  0  0  0  0  0  0  0
   -1.0629    2.0052    0.1670 C   0  0  0  0  0  0  0  0  0  0  0  0
   -1.1438    2.0719   -1.2201 C   0  0  0  0  0  0  0  0  0  0  0  0
   -2.3564    1.8352   -1.8581 C   0  0  0  0  0  0  0  0  0  0  0  0
    0.2650    2.2652    0.8588 C   0  0  0  0  0  0  0  0  0  0  0  0
    1.0000    1.0000    1.0000 N   0  0  0  0  0  0  0  0  0  0  0  0
    2.2727    1.0000    1.0000 C   0  0  0  0  0  0  0  0  0  0  0  0
    3.2932    2.3482    1.2047 S   0  0  0  0  0  0  0  0  0  0  0  0
    4.7811    1.5243    1.0734 C   0  0  0  0  0  0  0  0  0  0  0  0
    4.4252    0.2252    0.8737 C   0  0  0  0  0  0  0  0  0  0  0  0
    3.0922   -0.0724    0.8348 N   0  0  0  0  0  0  0  0  0  0  0  0
    2.5424   -1.4195    0.6261 C   0  0  0  0  0  0  0  0  0  0  0  0
    2.2352   -2.0573    1.9751 C   0  0  0  0  0  0  0  0  0  0  0  0
    3.2090   -2.6488    2.7799 C   0  0  0  0  0  0  0  0  0  0  0  0
    2.9124   -3.2278    4.0127 C   0  0  0  0  0  0  0  0  0  0  0  0
    3.6190   -3.8639    4.9905 N   0  0  0  0  0  0  0  0  0  0  0  0
    2.7712   -4.1991    5.9357 C   0  0  0  0  0  0  0  0  0  0  0  0
    1.5618   -3.8074    5.6083 O   0  0  0  0  0  0  0  0  0  0  0  0
    1.6072   -3.2113    4.4391 C   0  0  0  0  0  0  0  0  0  0  0  0
    0.6154   -2.6275    3.6580 C   0  0  0  0  0  0  0  0  0  0  0  0
    0.9211   -2.0507    2.4298 C   0  0  0  0  0  0  0  0  0  0  0  0
    3.1173   -4.8965    7.1588 C   0  0  0  0  0  0  0  0  0  0  0  0
    4.3572   -5.5188    7.2595 C   0  0  0  0  0  0  0  0  0  0  0  0
    4.7051   -6.1918    8.4263 C   0  0  0  0  0  0  0  0  0  0  0  0
    3.7997   -6.2331    9.4810 C   0  0  0  0  0  0  0  0  0  0  0  0
    4.1199   -6.8731   10.6018 F   0  0  0  0  0  0  0  0  0  0  0  0
    2.5599   -5.6114    9.3804 C   0  0  0  0  0  0  0  0  0  0  0  0
    2.2117   -4.9384    8.2143 C   0  0  0  0  0  0  0  0  0  0  0  0
    5.4841   -0.7568    0.7153 C   0  0  0  0  0  0  0  0  0  0  0  0
    6.9118   -0.7259    1.6465 S   0  0  0  0  0  0  0  0  0  0  0  0
    7.6035   -2.1107    0.9380 C   0  0  0  0  0  0  0  0  0  0  0  0
    6.7367   -2.5455   -0.0171 C   0  0  0  0  0  0  0  0  0  0  0  0
    5.5267   -1.8158   -0.1541 C   0  0  0  0  0  0  0  0  0  0  0  0
    7.1471   -3.7545   -0.8366 C   0  0  0  0  0  0  0  0  0  0  0  0
    8.2981   -4.3586   -0.1593 N   0  0  0  0  0  0  0  0  0  0  0  0
    8.3585   -5.7119    0.1871 C   0  0  0  0  0  0  0  0  0  0  0  0
    9.4176   -6.2745    0.2263 O   0  0  0  0  0  0  0  0  0  0  0  0
    7.0824   -6.4703    0.5141 C   0  0  0  0  0  0  0  0  0  0  0  0
    9.3745   -3.3958    0.1001 C   0  0  0  0  0  0  0  0  0  0  0  0
    8.9284   -2.6970    1.3674 C   0  0  0  0  0  0  0  0  0  0  0  0
   -5.9791    3.0326   -1.1400 H   0  0  0  0  0  0  0  0  0  0  0  0
   -5.2695    3.2818   -2.5895 H   0  0  0  0  0  0  0  0  0  0  0  0
   -4.2130    1.2499    0.8317 H   0  0  0  0  0  0  0  0  0  0  0  0
   -2.1204    1.6569    1.9279 H   0  0  0  0  0  0  0  0  0  0  0  0
   -0.3298    2.2900   -1.7584 H   0  0  0  0  0  0  0  0  0  0  0  0
   -2.4210    1.8813   -2.8550 H   0  0  0  0  0  0  0  0  0  0  0  0
    0.8054    2.9056    0.3131 H   0  0  0  0  0  0  0  0  0  0  0  0
    0.0983    2.6566    1.7638 H   0  0  0  0  0  0  0  0  0  0  0  0
    5.7030    1.9074    1.1300 H   0  0  0  0  0  0  0  0  0  0  0  0
    3.2104   -1.9801    0.1367 H   0  0  0  0  0  0  0  0  0  0  0  0
    1.7018   -1.3568    0.0880 H   0  0  0  0  0  0  0  0  0  0  0  0
    4.1565   -2.6578    2.4601 H   0  0  0  0  0  0  0  0  0  0  0  0
   -0.3300   -2.6223    3.9838 H   0  0  0  0  0  0  0  0  0  0  0  0
    0.1999   -1.6337    1.8768 H   0  0  0  0  0  0  0  0  0  0  0  0
    4.9986   -5.4823    6.4931 H   0  0  0  0  0  0  0  0  0  0  0  0
    5.5953   -6.6404    8.5056 H   0  0  0  0  0  0  0  0  0  0  0  0
    1.9186   -5.6483   10.1467 H   0  0  0  0  0  0  0  0  0  0  0  0
    1.3213   -4.4901    8.1353 H   0  0  0  0  0  0  0  0  0  0  0  0
    4.7995   -2.0448   -0.8012 H   0  0  0  0  0  0  0  0  0  0  0  0
    6.3932   -4.4098   -0.8837 H   0  0  0  0  0  0  0  0  0  0  0  0
    7.4018   -3.4723   -1.7616 H   0  0  0  0  0  0  0  0  0  0  0  0
    6.2986   -5.8545    0.4332 H   0  0  0  0  0  0  0  0  0  0  0  0
    6.9748   -7.2325   -0.1242 H   0  0  0  0  0  0  0  0  0  0  0  0
    7.1343   -6.8228    1.4485 H   0  0  0  0  0  0  0  0  0  0  0  0
    9.4616   -2.7456   -0.6546 H   0  0  0  0  0  0  0  0  0  0  0  0
   10.2470   -3.8643    0.2388 H   0  0  0  0  0  0  0  0  0  0  0  0
    8.8143   -3.3445    2.1208 H   0  0  0  0  0  0  0  0  0  0  0  0
    9.5739   -1.9823    1.6369 H   0  0  0  0  0  0  0  0  0  0  0  0
  1  2  2  0  0  0  0
  1  3  2  0  0  0  0
  1  4  1  0  0  0  0
  1  5  1  0  0  0  0
  5  6  1  0  0  0  0
  6  7  2  0  0  0  0
  7  8  1  0  0  0  0
  8  9  2  0  0  0  0
  9 10  1  0  0  0  0
 10  5  2  0  0  0  0
  8 11  1  0  0  0  0
 11 12  1  0  0  0  0
 12 13  2  0  0  0  0
 13 14  1  0  0  0  0
 14 15  1  0  0  0  0
 15 16  2  0  0  0  0
 16 17  1  0  0  0  0
 17 13  1  0  0  0  0
 17 18  1  0  0  0  0
 18 19  1  0  0  0  0
 19 20  1  0  0  0  0
 20 21  2  0  0  0  0
 21 22  1  0  0  0  0
 22 23  2  0  0  0  0
 23 24  1  0  0  0  0
 24 25  1  0  0  0  0
 25 21  1  0  0  0  0
 25 26  2  0  0  0  0
 26 27  1  0  0  0  0
 27 19  2  0  0  0  0
 23 28  1  0  0  0  0
 28 29  1  0  0  0  0
 29 30  2  0  0  0  0
 30 31  1  0  0  0  0
 31 32  1  0  0  0  0
 31 33  2  0  0  0  0
 33 34  1  0  0  0  0
 34 28  2  0  0  0  0
 16 35  1  0  0  0  0
 35 36  1  0  0  0  0
 36 37  1  0  0  0  0
 37 38  2  0  0  0  0
 38 39  1  0  0  0  0
 35 39  2  0  0  0  0
 38 40  1  0  0  0  0
 40 41  1  0  0  0  0
 41 42  1  0  0  0  0
 42 43  2  0  0  0  0
 42 44  1  0  0  0  0
 41 45  1  0  0  0  0
 45 46  1  0  0  0  0
 46 37  1  0  0  0  0
  4 47  1  0  0  0  0
  4 48  1  0  0  0  0
  6 49  1  0  0  0  0
  7 50  1  0  0  0  0
  9 51  1  0  0  0  0
 10 52  1  0  0  0  0
 11 53  1  0  0  0  0
 11 54  1  0  0  0  0
 15 55  1  0  0  0  0
 18 56  1  0  0  0  0
 18 57  1  0  0  0  0
 20 58  1  0  0  0  0
 26 59  1  0  0  0  0
 27 60  1  0  0  0  0
 29 61  1  0  0  0  0
 30 62  1  0  0  0  0
 33 63  1  0  0  0  0
 34 64  1  0  0  0  0
 39 65  1  0  0  0  0
 40 66  1  0  0  0  0
 40 67  1  0  0  0  0
 44 68  1  0  0  0  0
 44 69  1  0  0  0  0
 44 70  1  0  0  0  0
 45 71  1  0  0  0  0
 45 72  1  0  0  0  0
 46 73  1  0  0  0  0
 46 74  1  0  0  0  0
M  END
>  <result-rank>
83

>  <similarity>
0.843

>  <query-name>


>  <query-smiles>
Clc1ccc(cc1)CS(=O)(=O)c2cc3N=C(c4c(N(c3cc2)C)cc5c(c4)C(CCC5(C)C)(C)C)c6ccc(cc6)C([O-])=O

>  <source>
REALspace_2019-12

>  <similarity-descriptor>
0.928;0.935;0.927;0.916;0.976;0.768;0.928;0.562;0.0;0.976;0.0;0.0;0.243;0.909;0.143

>  <similarity-descriptor-smiles>
c1ccc(cc1)F;c1ccc(cc1)C;Cc1ccccc1;C1=CC=CS1;C=1CCNCC1;N=C1NC=CS1;c1ccc(cc1)F;c1cOC=N1;;C=1CCNCC1;;;C=O;S(=O)=O;N.C

>  <reaction-name>
s_2

>  <reagent1-name>
2757072

>  <reagent1-smiles>
[R1*]SC([R3*])=NCc1ccc(S(=O)(=O)N)cc1

>  <reagent2-name>
16508570

>  <reagent2-smiles>
[R2*]N([R3*])Cc1cc2N=C(Oc2cc1)c3ccc(F)cc3

>  <reagent3-name>
7793932

>  <reagent3-smiles>
[R2*]C(C=1SC2=C(C1)CN(C(=O)C)CC2)=C[R1*]

$$$$
s_42a____8631722____768888
          04022017333D 1   1.00000     0.00000     0
            
 61 66  0  0  0  0            999 V2000
    3.3174    3.5631    2.1202 S   0  0  0  0  0  0  0  0  0  0  0  0
    4.2542    2.1524    2.2745 C   0  0  0  0  0  0  0  0  0  0  0  0
    5.5876    2.1653    2.3603 N   0  0  0  0  0  0  0  0  0  0  0  0
    6.1980    0.9809    2.4354 C   0  0  0  0  0  0  0  0  0  0  0  0
    5.4445   -0.1888    2.4578 C   0  0  0  0  0  0  0  0  0  0  0  0
    4.0559   -0.1233    2.3913 C   0  0  0  0  0  0  0  0  0  0  0  0
    3.3364   -1.3819    2.4263 C   0  0  0  0  0  0  0  0  0  0  0  0
    3.3866   -2.1591    3.5783 C   0  0  0  0  0  0  0  0  0  0  0  0
    2.7006   -3.3687    3.6213 C   0  0  0  0  0  0  0  0  0  0  0  0
    1.9725   -3.7853    2.5117 C   0  0  0  0  0  0  0  0  0  0  0  0
    1.3024   -4.9567    2.5445 O   0  0  0  0  0  0  0  0  0  0  0  0
    1.5844   -5.9080    3.5604 C   0  0  0  0  0  0  0  0  0  0  0  0
    1.9229   -3.0075    1.3595 C   0  0  0  0  0  0  0  0  0  0  0  0
    2.6090   -1.7983    1.3161 C   0  0  0  0  0  0  0  0  0  0  0  0
    3.3727    1.0915    2.2841 C   0  0  0  0  0  0  0  0  0  0  0  0
    1.9908    1.4604    2.1857 C   0  0  0  0  0  0  0  0  0  0  0  0
    1.7950    2.8045    2.0712 C   0  0  0  0  0  0  0  0  0  0  0  0
    0.4991    3.5646    1.9172 C   0  0  0  0  0  0  0  0  0  0  0  0
   -0.2923    2.7432    0.9114 C   0  0  3  0  0  0  0  0  0  0  0  0
   -0.4623    1.2840    1.3357 C   0  0  0  0  0  0  0  0  0  0  0  0
    0.6679    0.6945    2.1788 C   0  0  0  0  0  0  0  0  0  0  0  0
   -1.6607    3.3917    0.7745 C   0  0  0  0  0  0  0  0  0  0  0  0
    7.6468    0.9834    2.4738 C   0  0  0  0  0  0  0  0  0  0  0  0
    8.6216   -0.4078    2.5501 S   0  0  0  0  0  0  0  0  0  0  0  0
   10.1263    0.3810    2.5647 C   0  0  0  0  0  0  0  0  0  0  0  0
   11.4323   -0.2467    2.6221 C   0  0  0  0  0  0  0  0  0  0  0  0
   11.5291   -1.6336    2.6720 C   0  0  0  0  0  0  0  0  0  0  0  0
   12.7840   -2.2304    2.7278 C   0  0  0  0  0  0  0  0  0  0  0  0
   13.9257   -1.4351    2.7321 C   0  0  0  0  0  0  0  0  0  0  0  0
   13.8280   -0.0480    2.6796 C   0  0  0  0  0  0  0  0  0  0  0  0
   12.5728    0.5490    2.6252 C   0  0  0  0  0  0  0  0  0  0  0  0
   15.2947   -2.0934    2.7948 C   0  0  0  0  0  0  0  0  0  0  0  0
   15.7298   -2.3301    1.5604 F   0  0  0  0  0  0  0  0  0  0  0  0
   16.1473   -1.2848    3.4179 F   0  0  0  0  0  0  0  0  0  0  0  0
   15.2047   -3.2410    3.4608 F   0  0  0  0  0  0  0  0  0  0  0  0
    9.8583    1.7154    2.5055 C   0  0  0  0  0  0  0  0  0  0  0  0
    8.4808    2.0634    2.4509 C   0  0  0  0  0  0  0  0  0  0  0  0
    5.9007   -1.0763    2.5216 H   0  0  0  0  0  0  0  0  0  0  0  0
    3.9124   -1.8505    4.3710 H   0  0  0  0  0  0  0  0  0  0  0  0
    2.7308   -3.9352    4.4448 H   0  0  0  0  0  0  0  0  0  0  0  0
    1.0020   -6.7113    3.4357 H   0  0  0  0  0  0  0  0  0  0  0  0
    2.5448   -6.1807    3.5044 H   0  0  0  0  0  0  0  0  0  0  0  0
    1.4048   -5.5019    4.4564 H   0  0  0  0  0  0  0  0  0  0  0  0
    1.3970   -3.3159    0.5668 H   0  0  0  0  0  0  0  0  0  0  0  0
    2.5795   -1.2321    0.4924 H   0  0  0  0  0  0  0  0  0  0  0  0
    0.6673    4.4869    1.5691 H   0  0  0  0  0  0  0  0  0  0  0  0
    0.0143    3.6210    2.7900 H   0  0  0  0  0  0  0  0  0  0  0  0
    0.1732    2.7737    0.0269 H   0  0  0  0  0  0  0  0  0  0  0  0
   -0.5449    0.7320    0.5060 H   0  0  0  0  0  0  0  0  0  0  0  0
   -1.3071    1.2164    1.8666 H   0  0  0  0  0  0  0  0  0  0  0  0
    0.3444    0.6400    3.1235 H   0  0  0  0  0  0  0  0  0  0  0  0
    0.8528   -0.2266    1.8361 H   0  0  0  0  0  0  0  0  0  0  0  0
   -2.2102    2.8751    0.1178 H   0  0  0  0  0  0  0  0  0  0  0  0
   -2.1188    3.3942    1.6634 H   0  0  0  0  0  0  0  0  0  0  0  0
   -1.5531    4.3322    0.4523 H   0  0  0  0  0  0  0  0  0  0  0  0
   10.7029   -2.1970    2.6678 H   0  0  0  0  0  0  0  0  0  0  0  0
   12.8655   -3.2263    2.7648 H   0  0  0  0  0  0  0  0  0  0  0  0
   14.6541    0.5155    2.6811 H   0  0  0  0  0  0  0  0  0  0  0  0
   12.4910    1.5449    2.5886 H   0  0  0  0  0  0  0  0  0  0  0  0
   10.5826    2.4048    2.5009 H   0  0  0  0  0  0  0  0  0  0  0  0
    8.1548    3.0074    2.4005 H   0  0  0  0  0  0  0  0  0  0  0  0
  1  2  1  0  0  0  0
  2  3  1  0  0  0  0
  3  4  2  0  0  0  0
  4  5  1  0  0  0  0
  5  6  2  0  0  0  0
  6  7  1  0  0  0  0
  7  8  1  0  0  0  0
  8  9  2  0  0  0  0
  9 10  1  0  0  0  0
 10 11  1  0  0  0  0
 11 12  1  0  0  0  0
 10 13  2  0  0  0  0
 13 14  1  0  0  0  0
 14  7  2  0  0  0  0
  6 15  1  0  0  0  0
 15  2  2  0  0  0  0
 15 16  1  0  0  0  0
 16 17  2  0  0  0  0
 17  1  1  0  0  0  0
 17 18  1  0  0  0  0
 18 19  1  0  0  0  0
 19 20  1  0  0  0  0
 20 21  1  0  0  0  0
 21 16  1  0  0  0  0
 19 22  1  0  0  0  0
  4 23  1  0  0  0  0
 23 24  1  0  0  0  0
 24 25  1  0  0  0  0
 25 26  1  0  0  0  0
 26 27  1  0  0  0  0
 27 28  2  0  0  0  0
 28 29  1  0  0  0  0
 29 30  2  0  0  0  0
 30 31  1  0  0  0  0
 31 26  2  0  0  0  0
 29 32  1  0  0  0  0
 32 33  1  0  0  0  0
 32 34  1  0  0  0  0
 32 35  1  0  0  0  0
 25 36  2  0  0  0  0
 36 37  1  0  0  0  0
 23 37  2  0  0  0  0
  5 38  1  0  0  0  0
  8 39  1  0  0  0  0
  9 40  1  0  0  0  0
 12 41  1  0  0  0  0
 12 42  1  0  0  0  0
 12 43  1  0  0  0  0
 13 44  1  0  0  0  0
 14 45  1  0  0  0  0
 18 46  1  0  0  0  0
 18 47  1  0  0  0  0
 19 48  1  0  0  0  0
 20 49  1  0  0  0  0
 20 50  1  0  0  0  0
 21 51  1  0  0  0  0
 21 52  1  0  0  0  0
 22 53  1  0  0  0  0
 22 54  1  0  0  0  0
 22 55  1  0  0  0  0
 27 56  1  0  0  0  0
 28 57  1  0  0  0  0
 30 58  1  0  0  0  0
 31 59  1  0  0  0  0
 36 60  1  0  0  0  0
 37 61  1  0  0  0  0
M  END
>  <result-rank>
84

>  <similarity>
0.843

>  <query-name>


>  <query-smiles>
Clc1ccc(cc1)CS(=O)(=O)c2cc3N=C(c4c(N(c3cc2)C)cc5c(c4)C(CCC5(C)C)(C)C)c6ccc(cc6)C([O-])=O

>  <source>
REALspace_2019-12

>  <similarity-descriptor>
0.975;0.998;0.597;0.830;0.947;0.855;0.597;0.597;0.0;0.947;0.947;0.0;1.000;0.490;0.0

>  <similarity-descriptor-smiles>
c1ccc(cc1)C(F)(F)F;c1ccccc1;C1=CC=CS1;S1C=Ccc1;C=1CCCCC1;c1ccccn1;C1=CC=CS1;C1=CC=CS1;;C=1CCCCC1;C=1CCCCC1;;C;OC;

>  <reaction-name>
s_42a

>  <reagent1-name>
8631722

>  <reagent1-smiles>
[R1*]=NC=1SC2=C(C1C(=[R2*])c3ccc(OC)cc3)CCC2

>  <reagent2-name>
768888

>  <reagent2-smiles>
[R1*]=C(C=1SC(c2ccc(cc2)C(F)(F)F)=CC1)C=[R2*]

$$$$
m_276096____13706966____13710720
          04022017333D 1   1.00000     0.00000     0
            
 53 56  0  0  0  0            999 V2000
    2.8873    5.8155    2.0614 S   0  0  0  0  0  0  0  0  0  0  0  0
    4.1834    6.2948    2.4667 O   0  0  0  0  0  0  0  0  0  0  0  0
    2.7103    6.0447    0.6509 O   0  0  0  0  0  0  0  0  0  0  0  0
    1.7305    6.6102    2.8904 N   0  0  0  0  0  0  0  0  0  0  0  0
    1.8296    8.0502    2.6117 C   0  0  0  0  0  0  0  0  0  0  0  0
    0.7512    8.7909    3.3845 C   0  0  0  0  0  0  0  0  0  0  0  0
    1.0345    9.2492    4.6669 C   0  0  0  0  0  0  0  0  0  0  0  0
    0.0466    9.9277    5.3721 C   0  0  0  0  0  0  0  0  0  0  0  0
    0.2960   10.3733    6.6001 F   0  0  0  0  0  0  0  0  0  0  0  0
   -1.2049   10.1441    4.8045 C   0  0  0  0  0  0  0  0  0  0  0  0
   -1.4766    9.6798    3.5212 C   0  0  0  0  0  0  0  0  0  0  0  0
   -0.4962    9.0006    2.8052 C   0  0  0  0  0  0  0  0  0  0  0  0
    2.7654    4.0425    2.4046 C   0  0  0  0  0  0  0  0  0  0  0  0
    1.9621    3.2384    1.6023 C   0  0  0  0  0  0  0  0  0  0  0  0
    1.8777    1.8777    1.8777 C   0  0  0  0  0  0  0  0  0  0  0  0
    2.5829    1.3173    2.9375 C   0  0  0  0  0  0  0  0  0  0  0  0
    3.3805    2.1390    3.7273 C   0  0  0  0  0  0  0  0  0  0  0  0
    3.4786    3.5025    3.4697 C   0  0  0  0  0  0  0  0  0  0  0  0
    1.0000    1.0000    1.0000 C   0  0  0  0  0  0  0  0  0  0  0  0
    1.7938    0.4804   -0.1228 N   0  0  0  0  0  0  0  0  0  0  0  0
    2.4756   -0.7336    0.0057 C   0  0  0  0  0  0  0  0  0  0  0  0
    3.4362   -1.4814   -1.1838 S   0  0  0  0  0  0  0  0  0  0  0  0
    3.8772   -2.8533   -0.2761 C   0  0  0  0  0  0  0  0  0  0  0  0
    3.2490   -2.6631    0.9131 C   0  0  0  0  0  0  0  0  0  0  0  0
    2.5000   -1.5247    1.0489 N   0  0  0  0  0  0  0  0  0  0  0  0
    3.4120   -3.6727    1.9411 C   0  0  0  0  0  0  0  0  0  0  0  0
    4.2020   -4.7874    1.6785 C   0  0  0  0  0  0  0  0  0  0  0  0
    4.3645   -5.7613    2.6583 C   0  0  0  0  0  0  0  0  0  0  0  0
    3.7340   -5.6089    3.8890 C   0  0  0  0  0  0  0  0  0  0  0  0
    3.8995   -6.6329    4.9306 N   0  3  0  0  0  0  0  0  0  0  0  0
    3.3468   -6.4999    6.0101 O   0  5  0  0  0  0  0  0  0  0  0  0
    4.5839   -7.6077    4.7174 O   0  0  0  0  0  0  0  0  0  0  0  0
    2.9439   -4.4938    4.1510 C   0  0  0  0  0  0  0  0  0  0  0  0
    2.7817   -3.5199    3.1712 C   0  0  0  0  0  0  0  0  0  0  0  0
    1.8535    6.4510    3.8700 H   0  0  0  0  0  0  0  0  0  0  0  0
    1.7066    8.2093    1.6322 H   0  0  0  0  0  0  0  0  0  0  0  0
    2.7296    8.3830    2.8932 H   0  0  0  0  0  0  0  0  0  0  0  0
    1.9339    9.0933    5.0751 H   0  0  0  0  0  0  0  0  0  0  0  0
   -1.9093   10.6334    5.3187 H   0  0  0  0  0  0  0  0  0  0  0  0
   -2.3766    9.8343    3.1137 H   0  0  0  0  0  0  0  0  0  0  0  0
   -0.6864    8.6661    1.8822 H   0  0  0  0  0  0  0  0  0  0  0  0
    1.4522    3.6334    0.8381 H   0  0  0  0  0  0  0  0  0  0  0  0
    2.5176    0.3380    3.1289 H   0  0  0  0  0  0  0  0  0  0  0  0
    3.8906    1.7438    4.4913 H   0  0  0  0  0  0  0  0  0  0  0  0
    4.0541    4.0864    4.0423 H   0  0  0  0  0  0  0  0  0  0  0  0
    0.6465    0.2362    1.5400 H   0  0  0  0  0  0  0  0  0  0  0  0
    0.2362    1.5400    0.6465 H   0  0  0  0  0  0  0  0  0  0  0  0
    1.8462    0.9951   -0.9786 H   0  0  0  0  0  0  0  0  0  0  0  0
    4.4601   -3.6173   -0.5529 H   0  0  0  0  0  0  0  0  0  0  0  0
    4.6505   -4.8879    0.7903 H   0  0  0  0  0  0  0  0  0  0  0  0
    4.9308   -6.5657    2.4793 H   0  0  0  0  0  0  0  0  0  0  0  0
    2.4952   -4.3932    5.0390 H   0  0  0  0  0  0  0  0  0  0  0  0
    2.2156   -2.7152    3.3502 H   0  0  0  0  0  0  0  0  0  0  0  0
  1  2  2  0  0  0  0
  1  3  2  0  0  0  0
  1  4  1  0  0  0  0
  4  5  1  0  0  0  0
  5  6  1  0  0  0  0
  6  7  1  0  0  0  0
  7  8  2  0  0  0  0
  8  9  1  0  0  0  0
  8 10  1  0  0  0  0
 10 11  2  0  0  0  0
 11 12  1  0  0  0  0
 12  6  2  0  0  0  0
  1 13  1  0  0  0  0
 13 14  1  0  0  0  0
 14 15  2  0  0  0  0
 15 16  1  0  0  0  0
 16 17  2  0  0  0  0
 17 18  1  0  0  0  0
 18 13  2  0  0  0  0
 15 19  1  0  0  0  0
 19 20  1  0  0  0  0
 20 21  1  0  0  0  0
 21 22  1  0  0  0  0
 22 23  1  0  0  0  0
 23 24  2  0  0  0  0
 24 25  1  0  0  0  0
 21 25  2  0  0  0  0
 24 26  1  0  0  0  0
 26 27  1  0  0  0  0
 27 28  2  0  0  0  0
 28 29  1  0  0  0  0
 29 30  1  0  0  0  0
 30 31  1  0  0  0  0
 30 32  2  0  0  0  0
 29 33  2  0  0  0  0
 33 34  1  0  0  0  0
 34 26  2  0  0  0  0
  4 35  1  0  0  0  0
  5 36  1  0  0  0  0
  5 37  1  0  0  0  0
  7 38  1  0  0  0  0
 10 39  1  0  0  0  0
 11 40  1  0  0  0  0
 12 41  1  0  0  0  0
 14 42  1  0  0  0  0
 16 43  1  0  0  0  0
 17 44  1  0  0  0  0
 18 45  1  0  0  0  0
 19 46  1  0  0  0  0
 19 47  1  0  0  0  0
 20 48  1  0  0  0  0
 23 49  1  0  0  0  0
 27 50  1  0  0  0  0
 28 51  1  0  0  0  0
 33 52  1  0  0  0  0
 34 53  1  0  0  0  0
M  CHG  2  30   1  31  -1
M  END
>  <result-rank>
85

>  <similarity>
0.842

>  <query-name>


>  <query-smiles>
Clc1ccc(cc1)CS(=O)(=O)c2cc3N=C(c4c(N(c3cc2)C)cc5c(c4)C(CCC5(C)C)(C)C)c6ccc(cc6)C([O-])=O

>  <source>
REALspace_2019-12

>  <similarity-descriptor>
0.985;0.998;0.793;0.0;0.0;0.795;0.996;0.822;0.795;0.0;0.0;0.0;0.0;0.910;0.0

>  <similarity-descriptor-smiles>
c1cccc(c1)F;c1ccccc1;c1cccc(c1)CN;;;C1=NC=CS1;C;S(=O)(=O)N;C1=NC=CS1;;;;;[N+]([O-])=O;

>  <reaction-name>
m_276096

>  <reagent1-name>
13706966

>  <reagent1-smiles>
[R1*]SC(=N[R2*])NCc1cc(S(=O)(=O)NCc2cc(F)ccc2)ccc1

>  <reagent2-name>
13710720

>  <reagent2-smiles>
[R2*]C(c1ccc([N+]([O-])=O)cc1)=C[R1*]

$$$$
s_7a____8400____13973748
          04022017333D 1   1.00000     0.00000     0
            
 70 75  0  0  0  0            999 V2000
    1.2161    4.7144   -2.3993 S   0  0  0  0  0  0  0  0  0  0  0  0
   -0.3039    4.0320   -2.0515 C   0  0  0  0  0  0  0  0  0  0  0  0
   -0.6523    3.6832   -0.7788 N   0  0  0  0  0  0  0  0  0  0  0  0
   -1.8494    3.1595   -0.6165 C   0  0  0  0  0  0  0  0  0  0  0  0
   -2.3133    2.7065    1.0000 S   0  0  0  0  0  0  0  0  0  0  0  0
   -1.7100    1.0000    1.0000 C   0  0  0  0  0  0  0  0  0  0  0  0
   -0.1900    1.0000    1.0000 C   0  0  0  0  0  0  0  0  0  0  0  0
    1.0000    1.0000    1.0000 C   0  0  0  0  0  0  0  0  0  0  0  0
    2.5200    1.0000    1.0000 C   0  0  0  0  0  0  0  0  0  0  0  0
    3.2044    2.1926    0.7897 C   0  0  0  0  0  0  0  0  0  0  0  0
    4.5953    2.1975    0.7896 C   0  0  0  0  0  0  0  0  0  0  0  0
    5.2849    1.0078    1.0007 C   0  0  0  0  0  0  0  0  0  0  0  0
    6.6348    1.0080    1.0010 O   0  0  0  0  0  0  0  0  0  0  0  0
    7.3452   -0.2215    1.0023 C   0  0  0  0  0  0  0  0  0  0  0  0
    7.7072   -0.5990   -0.4249 C   0  0  0  0  0  0  0  0  0  0  0  0
    8.4678   -1.9154   -0.4235 C   0  0  0  0  0  0  0  0  0  0  0  0
    7.7702   -3.1143   -0.5280 C   0  0  0  0  0  0  0  0  0  0  0  0
    8.4700   -4.3166   -0.5255 C   0  0  0  0  0  0  0  0  0  0  0  0
    9.8570   -4.3139   -0.4205 C   0  0  0  0  0  0  0  0  0  0  0  0
   10.5432   -3.1102   -0.3172 C   0  0  0  0  0  0  0  0  0  0  0  0
    9.8550   -1.9013   -0.3178 C   0  0  0  0  0  0  0  0  0  0  0  0
    4.6053   -0.1877    1.2111 C   0  0  0  0  0  0  0  0  0  0  0  0
    3.2145   -0.1868    1.2106 C   0  0  0  0  0  0  0  0  0  0  0  0
   -2.6736    2.9944   -1.7017 N   0  0  0  0  0  0  0  0  0  0  0  0
   -3.9397    2.4328   -1.4977 C   0  0  0  0  0  0  0  0  0  0  0  0
   -5.0216    3.2607   -1.2182 C   0  0  0  0  0  0  0  0  0  0  0  0
   -4.8502    4.5774   -1.1466 F   0  0  0  0  0  0  0  0  0  0  0  0
   -6.2869    2.7204   -1.0130 C   0  0  0  0  0  0  0  0  0  0  0  0
   -6.4522    1.3417   -1.0915 C   0  0  0  0  0  0  0  0  0  0  0  0
   -5.3729    0.5100   -1.3699 C   0  0  0  0  0  0  0  0  0  0  0  0
   -4.1102    1.0544   -1.5750 C   0  0  0  0  0  0  0  0  0  0  0  0
   -2.2814    3.3633   -2.9650 C   0  0  0  0  0  0  0  0  0  0  0  0
   -3.0494    3.1950   -3.9011 O   0  0  0  0  0  0  0  0  0  0  0  0
   -1.0013    3.9322   -3.2137 C   0  0  0  0  0  0  0  0  0  0  0  0
   -0.2674    4.3978   -4.3623 C   0  0  0  0  0  0  0  0  0  0  0  0
    0.9870    4.8967   -4.0721 C   0  0  0  0  0  0  0  0  0  0  0  0
    2.0696    5.5258   -4.9279 C   0  0  0  0  0  0  0  0  0  0  0  0
    1.7291    5.1469   -6.3605 C   0  0  3  0  0  0  0  0  0  0  0  0
    0.2609    5.4160   -6.6506 C   0  0  0  0  0  0  0  0  0  0  0  0
   -0.6034    4.4481   -5.8502 C   0  0  0  0  0  0  0  0  0  0  0  0
    2.6033    6.0038   -7.2609 C   0  0  0  0  0  0  0  0  0  0  0  0
   -2.0433    0.5286    0.1835 H   0  0  0  0  0  0  0  0  0  0  0  0
   -2.0433    0.5286    1.8165 H   0  0  0  0  0  0  0  0  0  0  0  0
    2.6989    3.0422    0.6393 H   0  0  0  0  0  0  0  0  0  0  0  0
    5.0959    3.0500    0.6390 H   0  0  0  0  0  0  0  0  0  0  0  0
    6.7720   -0.9373    1.4012 H   0  0  0  0  0  0  0  0  0  0  0  0
    8.1805   -0.1233    1.5432 H   0  0  0  0  0  0  0  0  0  0  0  0
    6.8719   -0.6972   -0.9658 H   0  0  0  0  0  0  0  0  0  0  0  0
    8.2804    0.1168   -0.8238 H   0  0  0  0  0  0  0  0  0  0  0  0
    6.7732   -3.1120   -0.6043 H   0  0  0  0  0  0  0  0  0  0  0  0
    7.9759   -5.1828   -0.5992 H   0  0  0  0  0  0  0  0  0  0  0  0
   10.3601   -5.1781   -0.4193 H   0  0  0  0  0  0  0  0  0  0  0  0
   11.5404   -3.1129   -0.2417 H   0  0  0  0  0  0  0  0  0  0  0  0
   10.3497   -1.0354   -0.2435 H   0  0  0  0  0  0  0  0  0  0  0  0
    5.1107   -1.0375    1.3610 H   0  0  0  0  0  0  0  0  0  0  0  0
    2.7138   -1.0391    1.3617 H   0  0  0  0  0  0  0  0  0  0  0  0
   -7.0659    3.3143   -0.8120 H   0  0  0  0  0  0  0  0  0  0  0  0
   -7.3580    0.9437   -0.9459 H   0  0  0  0  0  0  0  0  0  0  0  0
   -5.5052   -0.4798   -1.4226 H   0  0  0  0  0  0  0  0  0  0  0  0
   -3.3314    0.4603   -1.7763 H   0  0  0  0  0  0  0  0  0  0  0  0
    2.9677    5.1657   -4.6754 H   0  0  0  0  0  0  0  0  0  0  0  0
    2.0667    6.5200   -4.8195 H   0  0  0  0  0  0  0  0  0  0  0  0
    1.9325    4.1796   -6.5122 H   0  0  0  0  0  0  0  0  0  0  0  0
    0.0859    5.2894   -7.6270 H   0  0  0  0  0  0  0  0  0  0  0  0
    0.0369    6.3553   -6.3909 H   0  0  0  0  0  0  0  0  0  0  0  0
   -1.5590    4.7263   -5.9472 H   0  0  0  0  0  0  0  0  0  0  0  0
   -0.4830    3.5311   -6.2306 H   0  0  0  0  0  0  0  0  0  0  0  0
    2.4108    5.7858   -8.2177 H   0  0  0  0  0  0  0  0  0  0  0  0
    2.4080    6.9701   -7.0934 H   0  0  0  0  0  0  0  0  0  0  0  0
    3.5662    5.8193   -7.0643 H   0  0  0  0  0  0  0  0  0  0  0  0
  1  2  1  0  0  0  0
  2  3  1  0  0  0  0
  3  4  2  0  0  0  0
  4  5  1  0  0  0  0
  5  6  1  0  0  0  0
  6  7  1  0  0  0  0
  7  8  3  0  0  0  0
  8  9  1  0  0  0  0
  9 10  1  0  0  0  0
 10 11  2  0  0  0  0
 11 12  1  0  0  0  0
 12 13  1  0  0  0  0
 13 14  1  0  0  0  0
 14 15  1  0  0  0  0
 15 16  1  0  0  0  0
 16 17  1  0  0  0  0
 17 18  2  0  0  0  0
 18 19  1  0  0  0  0
 19 20  2  0  0  0  0
 20 21  1  0  0  0  0
 21 16  2  0  0  0  0
 12 22  2  0  0  0  0
 22 23  1  0  0  0  0
 23  9  2  0  0  0  0
  4 24  1  0  0  0  0
 24 25  1  0  0  0  0
 25 26  1  0  0  0  0
 26 27  1  0  0  0  0
 26 28  2  0  0  0  0
 28 29  1  0  0  0  0
 29 30  2  0  0  0  0
 30 31  1  0  0  0  0
 31 25  2  0  0  0  0
 24 32  1  0  0  0  0
 32 33  2  0  0  0  0
 32 34  1  0  0  0  0
  2 34  2  0  0  0  0
 34 35  1  0  0  0  0
 35 36  2  0  0  0  0
 36  1  1  0  0  0  0
 36 37  1  0  0  0  0
 37 38  1  0  0  0  0
 38 39  1  0  0  0  0
 39 40  1  0  0  0  0
 40 35  1  0  0  0  0
 38 41  1  0  0  0  0
  6 42  1  0  0  0  0
  6 43  1  0  0  0  0
 10 44  1  0  0  0  0
 11 45  1  0  0  0  0
 14 46  1  0  0  0  0
 14 47  1  0  0  0  0
 15 48  1  0  0  0  0
 15 49  1  0  0  0  0
 17 50  1  0  0  0  0
 18 51  1  0  0  0  0
 19 52  1  0  0  0  0
 20 53  1  0  0  0  0
 21 54  1  0  0  0  0
 22 55  1  0  0  0  0
 23 56  1  0  0  0  0
 28 57  1  0  0  0  0
 29 58  1  0  0  0  0
 30 59  1  0  0  0  0
 31 60  1  0  0  0  0
 37 61  1  0  0  0  0
 37 62  1  0  0  0  0
 38 63  1  0  0  0  0
 39 64  1  0  0  0  0
 39 65  1  0  0  0  0
 40 66  1  0  0  0  0
 40 67  1  0  0  0  0
 41 68  1  0  0  0  0
 41 69  1  0  0  0  0
 41 70  1  0  0  0  0
M  END
>  <result-rank>
86

>  <similarity>
0.842

>  <query-name>


>  <query-smiles>
Clc1ccc(cc1)CS(=O)(=O)c2cc3N=C(c4c(N(c3cc2)C)cc5c(c4)C(CCC5(C)C)(C)C)c6ccc(cc6)C([O-])=O

>  <source>
REALspace_2019-12

>  <similarity-descriptor>
0.952;0.980;0.847;0.827;0.947;0.648;0.998;0.545;0.0;0.947;0.947;0.0;1.000;0.0;0.0

>  <similarity-descriptor-smiles>
c1ccccc1;c1ccccc1F;CC#Cc1ccccc1;S1C=CC=C1;C=1CCCCC1;C1=CC(NC(=N1)S)=O;C;OC;;C=1CCCCC1;C=1CCCCC1;;C;;

>  <reaction-name>
s_7a

>  <reagent1-name>
8400

>  <reagent1-smiles>
[R1*]SC1=NC=2SC3=C(C2C(=O)N1c4c(F)cccc4)CCC(C3)C

>  <reagent2-name>
13973748

>  <reagent2-smiles>
[R1*]CC#Cc1ccc(OCCc2ccccc2)cc1

$$$$
m_276010a____17281432____17249466____17280774
          04022017333D 1   1.00000     0.00000     0
            
 71 76  0  0  0  0            999 V2000
    4.8067    7.5667   -3.8448 Cl  0  0  0  0  0  0  0  0  0  0  0  0
    4.8459    8.2722   -2.2112 C   0  0  0  0  0  0  0  0  0  0  0  0
    3.8106    8.0051   -1.3217 C   0  0  0  0  0  0  0  0  0  0  0  0
    3.8542    8.5636   -0.0483 C   0  0  0  0  0  0  0  0  0  0  0  0
    4.9130    9.3788    0.3382 C   0  0  0  0  0  0  0  0  0  0  0  0
    5.9386    9.6333   -0.5664 C   0  0  0  0  0  0  0  0  0  0  0  0
    5.9144    9.0843   -1.8443 C   0  0  0  0  0  0  0  0  0  0  0  0
    2.7245    8.2738    0.9267 C   0  0  0  0  0  0  0  0  0  0  0  0
    3.0460    7.0690    1.7049 N   0  0  0  0  0  0  0  0  0  0  0  0
    3.6585    7.0470    2.8629 N   0  0  0  0  0  0  0  0  0  0  0  0
    3.7945    5.8669    3.2919 N   0  0  0  0  0  0  0  0  0  0  0  0
    3.2424    5.0325    2.3689 C   0  0  0  0  0  0  0  0  0  0  0  0
    3.1777    3.5871    2.4587 C   0  0  0  0  0  0  0  0  0  0  0  0
    1.9715    2.9006    2.5596 C   0  0  0  0  0  0  0  0  0  0  0  0
    0.6272    3.2845    2.5910 N   0  0  0  0  0  0  0  0  0  0  0  0
    0.1173    4.5411    2.9461 C   0  0  0  0  0  0  0  0  0  0  0  0
    0.7034    5.2240    3.7399 O   0  0  0  0  0  0  0  0  0  0  0  0
   -1.1162    5.0148    2.3553 C   0  0  0  0  0  0  0  0  0  0  0  0
   -1.1223    5.4657    1.0438 C   0  0  0  0  0  0  0  0  0  0  0  0
   -2.2946    5.9258    0.4559 C   0  0  0  0  0  0  0  0  0  0  0  0
   -3.4680    5.9233    1.2226 C   0  0  0  0  0  0  0  0  0  0  0  0
   -3.4511    5.4693    2.5365 C   0  0  0  0  0  0  0  0  0  0  0  0
   -2.2763    5.0096    3.1163 C   0  0  0  0  0  0  0  0  0  0  0  0
   -4.8020    6.3974    0.6539 C   0  0  0  0  0  0  0  0  0  0  0  0
   -4.6176    7.2328   -0.6032 C   0  0  0  0  0  0  0  0  0  0  0  0
   -3.6568    6.5598   -1.5760 C   0  0  0  0  0  0  0  0  0  0  0  0
   -2.2590    6.4166   -0.9905 C   0  0  0  0  0  0  0  0  0  0  0  0
   -1.3595    5.5750   -1.8849 C   0  0  0  0  0  0  0  0  0  0  0  0
   -1.6927    7.8276   -0.9628 C   0  0  0  0  0  0  0  0  0  0  0  0
   -5.6614    7.1355    1.6681 C   0  0  0  0  0  0  0  0  0  0  0  0
   -5.5769    5.1638    0.2200 C   0  0  0  0  0  0  0  0  0  0  0  0
   -0.2127    2.1443    2.2323 C   0  0  0  0  0  0  0  0  0  0  0  0
    0.6103    1.0204    2.8245 C   0  0  0  0  0  0  0  0  0  0  0  0
    2.0278    1.5265    2.6544 C   0  0  0  0  0  0  0  0  0  0  0  0
    3.2116    0.8148    2.6018 C   0  0  0  0  0  0  0  0  0  0  0  0
    4.4011    1.5252    2.4996 C   0  0  0  0  0  0  0  0  0  0  0  0
    4.3946    2.9141    2.4355 C   0  0  0  0  0  0  0  0  0  0  0  0
    2.7575    5.7909    1.3479 C   0  0  0  0  0  0  0  0  0  0  0  0
    3.0463    7.4204   -1.5935 H   0  0  0  0  0  0  0  0  0  0  0  0
    4.9365    9.7771    1.2552 H   0  0  0  0  0  0  0  0  0  0  0  0
    6.7029   10.2181   -0.2947 H   0  0  0  0  0  0  0  0  0  0  0  0
    6.6546    9.2706   -2.4902 H   0  0  0  0  0  0  0  0  0  0  0  0
    2.6115    9.0505    1.5463 H   0  0  0  0  0  0  0  0  0  0  0  0
    1.8757    8.1261    0.4190 H   0  0  0  0  0  0  0  0  0  0  0  0
   -0.2735    5.4597    0.5151 H   0  0  0  0  0  0  0  0  0  0  0  0
   -4.2962    5.4738    3.0710 H   0  0  0  0  0  0  0  0  0  0  0  0
   -2.2666    4.6822    4.0612 H   0  0  0  0  0  0  0  0  0  0  0  0
   -4.2510    8.1278   -0.3492 H   0  0  0  0  0  0  0  0  0  0  0  0
   -5.5047    7.3504   -1.0497 H   0  0  0  0  0  0  0  0  0  0  0  0
   -4.0079    5.6505   -1.7993 H   0  0  0  0  0  0  0  0  0  0  0  0
   -3.6029    7.1102   -2.4091 H   0  0  0  0  0  0  0  0  0  0  0  0
   -1.3763    5.9424   -2.8148 H   0  0  0  0  0  0  0  0  0  0  0  0
   -0.4235    5.5993   -1.5338 H   0  0  0  0  0  0  0  0  0  0  0  0
   -1.6878    4.6305   -1.8937 H   0  0  0  0  0  0  0  0  0  0  0  0
   -1.6518    8.1887   -1.8944 H   0  0  0  0  0  0  0  0  0  0  0  0
   -2.2813    8.4121   -0.4042 H   0  0  0  0  0  0  0  0  0  0  0  0
   -0.7726    7.8099   -0.5714 H   0  0  0  0  0  0  0  0  0  0  0  0
   -6.5176    7.4188    1.2361 H   0  0  0  0  0  0  0  0  0  0  0  0
   -5.8611    6.5305    2.4388 H   0  0  0  0  0  0  0  0  0  0  0  0
   -5.1706    7.9426    1.9963 H   0  0  0  0  0  0  0  0  0  0  0  0
   -6.4598    5.4410   -0.1589 H   0  0  0  0  0  0  0  0  0  0  0  0
   -5.0554    4.6704   -0.4762 H   0  0  0  0  0  0  0  0  0  0  0  0
   -5.7251    4.5684    1.0096 H   0  0  0  0  0  0  0  0  0  0  0  0
   -0.3101    2.0515    1.2414 H   0  0  0  0  0  0  0  0  0  0  0  0
   -1.1184    2.2030    2.6522 H   0  0  0  0  0  0  0  0  0  0  0  0
    0.3898    0.8811    3.7899 H   0  0  0  0  0  0  0  0  0  0  0  0
    0.4690    0.1664    2.3237 H   0  0  0  0  0  0  0  0  0  0  0  0
    3.2118   -0.1846    2.6363 H   0  0  0  0  0  0  0  0  0  0  0  0
    5.2709    1.0326    2.4719 H   0  0  0  0  0  0  0  0  0  0  0  0
    5.2535    3.4223    2.3734 H   0  0  0  0  0  0  0  0  0  0  0  0
    2.2927    5.4771    0.5199 H   0  0  0  0  0  0  0  0  0  0  0  0
  1  2  1  0  0  0  0
  2  3  1  0  0  0  0
  3  4  2  0  0  0  0
  4  5  1  0  0  0  0
  5  6  2  0  0  0  0
  6  7  1  0  0  0  0
  7  2  2  0  0  0  0
  4  8  1  0  0  0  0
  8  9  1  0  0  0  0
  9 10  1  0  0  0  0
 10 11  2  0  0  0  0
 11 12  1  0  0  0  0
 12 13  1  0  0  0  0
 13 14  1  0  0  0  0
 14 15  1  0  0  0  0
 15 16  1  0  0  0  0
 16 17  2  0  0  0  0
 16 18  1  0  0  0  0
 18 19  1  0  0  0  0
 19 20  2  0  0  0  0
 20 21  1  0  0  0  0
 21 22  2  0  0  0  0
 22 23  1  0  0  0  0
 23 18  2  0  0  0  0
 21 24  1  0  0  0  0
 24 25  1  0  0  0  0
 25 26  1  0  0  0  0
 26 27  1  0  0  0  0
 27 20  1  0  0  0  0
 27 28  1  0  0  0  0
 27 29  1  0  0  0  0
 24 30  1  0  0  0  0
 24 31  1  0  0  0  0
 15 32  1  0  0  0  0
 32 33  1  0  0  0  0
 33 34  1  0  0  0  0
 34 14  2  0  0  0  0
 34 35  1  0  0  0  0
 35 36  2  0  0  0  0
 36 37  1  0  0  0  0
 37 13  2  0  0  0  0
 12 38  2  0  0  0  0
 38  9  1  0  0  0  0
  3 39  1  0  0  0  0
  5 40  1  0  0  0  0
  6 41  1  0  0  0  0
  7 42  1  0  0  0  0
  8 43  1  0  0  0  0
  8 44  1  0  0  0  0
 19 45  1  0  0  0  0
 22 46  1  0  0  0  0
 23 47  1  0  0  0  0
 25 48  1  0  0  0  0
 25 49  1  0  0  0  0
 26 50  1  0  0  0  0
 26 51  1  0  0  0  0
 28 52  1  0  0  0  0
 28 53  1  0  0  0  0
 28 54  1  0  0  0  0
 29 55  1  0  0  0  0
 29 56  1  0  0  0  0
 29 57  1  0  0  0  0
 30 58  1  0  0  0  0
 30 59  1  0  0  0  0
 30 60  1  0  0  0  0
 31 61  1  0  0  0  0
 31 62  1  0  0  0  0
 31 63  1  0  0  0  0
 32 64  1  0  0  0  0
 32 65  1  0  0  0  0
 33 66  1  0  0  0  0
 33 67  1  0  0  0  0
 35 68  1  0  0  0  0
 36 69  1  0  0  0  0
 37 70  1  0  0  0  0
 38 71  1  0  0  0  0
M  END
>  <result-rank>
87

>  <similarity>
0.842

>  <query-name>


>  <query-smiles>
Clc1ccc(cc1)CS(=O)(=O)c2cc3N=C(c4c(N(c3cc2)C)cc5c(c4)C(CCC5(C)C)(C)C)c6ccc(cc6)C([O-])=O

>  <source>
REALspace_2019-12

>  <similarity-descriptor>
1.000;0.0;0.998;0.926;1.000;0.604;0.996;0.526;0.0;1.000;1.000;1.000;1.000;0.0;0.0

>  <similarity-descriptor-smiles>
Clc1ccccc1;;c1ccccc1;c1ccccc1;c1CCCCc1;c1cCCN1C=O;C;N1C=CN=N1;;C;C;C;C;;

>  <reaction-name>
m_276010a

>  <reagent1-name>
17281432

>  <reagent1-smiles>
[R1*]N=NN([R2*])Cc1cc(Cl)ccc1

>  <reagent2-name>
17249466

>  <reagent2-smiles>
[R3*]C(=O)c1cc2c(cc1)C(CCC2(C)C)(C)C

>  <reagent3-name>
17280774

>  <reagent3-smiles>
[R3*]N1c2c(cccc2CC1)C([R1*])=C[R2*]

$$$$
s_2____510282____7594322____9284808
          04022017333D 1   1.00000     0.00000     0
            
 76 82  0  0  0  0            999 V2000
    3.2932    2.2218    0.3944 S   0  0  0  0  0  0  0  0  0  0  0  0
    2.2727    1.0000    1.0000 C   0  0  0  0  0  0  0  0  0  0  0  0
    1.0000    1.0000    1.0000 N   0  0  0  0  0  0  0  0  0  0  0  0
    0.2999    2.2052    0.8655 C   0  0  0  0  0  0  0  0  0  0  0  0
   -0.0458    2.6665   -0.4003 C   0  0  0  0  0  0  0  0  0  0  0  0
   -0.7410    3.8661   -0.5133 C   0  0  0  0  0  0  0  0  0  0  0  0
   -1.0893    4.3308   -1.7866 N   0  0  0  0  0  0  0  0  0  0  0  0
   -2.4076    4.5086   -2.1140 C   0  0  0  0  0  0  0  0  0  0  0  0
   -3.2497    3.8192   -1.6084 O   0  0  0  0  0  0  0  0  0  0  0  0
   -2.8037    5.5792   -3.1177 C   0  0  0  0  0  0  0  0  0  0  0  0
   -1.0921    4.6015    0.6139 C   0  0  0  0  0  0  0  0  0  0  0  0
   -0.7359    4.1210    1.8695 C   0  0  0  0  0  0  0  0  0  0  0  0
   -0.0406    2.9246    2.0065 C   0  0  0  0  0  0  0  0  0  0  0  0
    3.0922    0.0268    1.4798 N   0  0  0  0  0  0  0  0  0  0  0  0
    4.4252    0.2929    1.3410 C   0  0  0  0  0  0  0  0  0  0  0  0
    5.4808   -0.5996    1.7731 C   0  0  0  0  0  0  0  0  0  0  0  0
    6.4063   -0.1751    2.7214 C   0  0  0  0  0  0  0  0  0  0  0  0
    6.3441    1.1084    3.2773 N   0  0  0  0  0  0  0  0  0  0  0  0
    5.4931    1.5089    4.3032 C   0  0  0  0  0  0  0  0  0  0  0  0
    4.6781    0.7947    4.8631 O   0  0  0  0  0  0  0  0  0  0  0  0
    5.7390    2.9030    4.5842 C   0  0  0  0  0  0  0  0  0  0  0  0
    6.7205    3.3104    3.7192 C   0  0  0  0  0  0  0  0  0  0  0  0
    7.1085    4.6435    3.8084 C   0  0  0  0  0  0  0  0  0  0  0  0
    6.5246    5.5053    4.7298 C   0  0  0  0  0  0  0  0  0  0  0  0
    5.5297    5.0545    5.5913 C   0  0  0  0  0  0  0  0  0  0  0  0
    5.1221    3.7264    5.5181 C   0  0  0  0  0  0  0  0  0  0  0  0
    7.1261    2.1949    2.8974 C   0  0  0  0  0  0  0  0  0  0  0  0
    7.9900    2.2149    2.0354 O   0  0  0  0  0  0  0  0  0  0  0  0
    7.4196   -1.0322    3.1364 C   0  0  0  0  0  0  0  0  0  0  0  0
    7.5083   -2.3142    2.6034 C   0  0  0  0  0  0  0  0  0  0  0  0
    6.5833   -2.7388    1.6552 C   0  0  0  0  0  0  0  0  0  0  0  0
    5.5700   -1.8813    1.2394 C   0  0  0  0  0  0  0  0  0  0  0  0
    4.7811    1.4716    0.7594 C   0  0  0  0  0  0  0  0  0  0  0  0
    2.5424   -1.1964    2.0815 C   0  0  0  0  0  0  0  0  0  0  0  0
    2.4676   -1.0294    3.5903 C   0  0  0  0  0  0  0  0  0  0  0  0
    3.1713   -1.8999    4.4214 C   0  0  0  0  0  0  0  0  0  0  0  0
    3.9191   -2.8886    3.8853 O   0  0  0  0  0  0  0  0  0  0  0  0
    4.6359   -3.7754    4.7316 C   0  0  0  0  0  0  0  0  0  0  0  0
    3.0840   -1.7384    5.8015 C   0  0  0  0  0  0  0  0  0  0  0  0
    2.3043   -0.7051    6.3094 C   0  0  0  0  0  0  0  0  0  0  0  0
    1.5986    0.1930    5.5374 C   0  0  0  0  0  0  0  0  0  0  0  0
    0.9392    1.0620    6.3394 O   0  0  0  0  0  0  0  0  0  0  0  0
    1.4650    1.0680    7.6565 C   0  0  3  0  0  0  0  0  0  0  0  0
    2.0168   -0.3367    7.7527 C   0  0  0  0  0  0  0  0  0  0  0  0
    0.4009    1.2981    8.7172 C   0  0  0  0  0  0  0  0  0  0  0  0
    1.7060   -0.0125    4.1610 C   0  0  0  0  0  0  0  0  0  0  0  0
    0.2014    2.1440   -1.2163 H   0  0  0  0  0  0  0  0  0  0  0  0
   -0.3758    4.5331   -2.4574 H   0  0  0  0  0  0  0  0  0  0  0  0
   -1.9848    6.0560   -3.4371 H   0  0  0  0  0  0  0  0  0  0  0  0
   -3.2656    5.1525   -3.8953 H   0  0  0  0  0  0  0  0  0  0  0  0
   -3.4214    6.2333   -2.6811 H   0  0  0  0  0  0  0  0  0  0  0  0
   -1.5929    5.4623    0.5229 H   0  0  0  0  0  0  0  0  0  0  0  0
   -0.9833    4.6435    2.6855 H   0  0  0  0  0  0  0  0  0  0  0  0
    0.2113    2.5858    2.9131 H   0  0  0  0  0  0  0  0  0  0  0  0
    7.8212    4.9886    3.1977 H   0  0  0  0  0  0  0  0  0  0  0  0
    6.8228    6.4588    4.7738 H   0  0  0  0  0  0  0  0  0  0  0  0
    5.1132    5.6766    6.2542 H   0  0  0  0  0  0  0  0  0  0  0  0
    4.4056    3.3744    6.1204 H   0  0  0  0  0  0  0  0  0  0  0  0
    8.0847   -0.7270    3.8180 H   0  0  0  0  0  0  0  0  0  0  0  0
    8.2371   -2.9305    2.9019 H   0  0  0  0  0  0  0  0  0  0  0  0
    6.6467   -3.6604    1.2724 H   0  0  0  0  0  0  0  0  0  0  0  0
    4.9057   -2.1861    0.5570 H   0  0  0  0  0  0  0  0  0  0  0  0
    5.7030    1.8179    0.5861 H   0  0  0  0  0  0  0  0  0  0  0  0
    3.1343   -1.9716    1.8608 H   0  0  0  0  0  0  0  0  0  0  0  0
    1.6255   -1.3633    1.7188 H   0  0  0  0  0  0  0  0  0  0  0  0
    5.1321   -4.4406    4.1737 H   0  0  0  0  0  0  0  0  0  0  0  0
    5.2852   -3.2550    5.2861 H   0  0  0  0  0  0  0  0  0  0  0  0
    3.9951   -4.2550    5.3311 H   0  0  0  0  0  0  0  0  0  0  0  0
    3.5740   -2.3553    6.4174 H   0  0  0  0  0  0  0  0  0  0  0  0
    2.1989    1.7421    7.7405 H   0  0  0  0  0  0  0  0  0  0  0  0
    2.8538   -0.3551    8.2997 H   0  0  0  0  0  0  0  0  0  0  0  0
    1.3434   -0.9584    8.1528 H   0  0  0  0  0  0  0  0  0  0  0  0
    0.8258    1.2926    9.6224 H   0  0  0  0  0  0  0  0  0  0  0  0
   -0.0396    2.1822    8.5611 H   0  0  0  0  0  0  0  0  0  0  0  0
   -0.2837    0.5710    8.6658 H   0  0  0  0  0  0  0  0  0  0  0  0
    1.2087    0.6044    3.5510 H   0  0  0  0  0  0  0  0  0  0  0  0
  1  2  1  0  0  0  0
  2  3  2  0  0  0  0
  3  4  1  0  0  0  0
  4  5  1  0  0  0  0
  5  6  2  0  0  0  0
  6  7  1  0  0  0  0
  7  8  1  0  0  0  0
  8  9  2  0  0  0  0
  8 10  1  0  0  0  0
  6 11  1  0  0  0  0
 11 12  2  0  0  0  0
 12 13  1  0  0  0  0
 13  4  2  0  0  0  0
  2 14  1  0  0  0  0
 14 15  1  0  0  0  0
 15 16  1  0  0  0  0
 16 17  1  0  0  0  0
 17 18  1  0  0  0  0
 18 19  1  0  0  0  0
 19 20  2  0  0  0  0
 19 21  1  0  0  0  0
 21 22  1  0  0  0  0
 22 23  2  0  0  0  0
 23 24  1  0  0  0  0
 24 25  2  0  0  0  0
 25 26  1  0  0  0  0
 26 21  2  0  0  0  0
 22 27  1  0  0  0  0
 27 18  1  0  0  0  0
 27 28  2  0  0  0  0
 17 29  2  0  0  0  0
 29 30  1  0  0  0  0
 30 31  2  0  0  0  0
 31 32  1  0  0  0  0
 32 16  2  0  0  0  0
 15 33  2  0  0  0  0
 33  1  1  0  0  0  0
 14 34  1  0  0  0  0
 34 35  1  0  0  0  0
 35 36  1  0  0  0  0
 36 37  1  0  0  0  0
 37 38  1  0  0  0  0
 36 39  2  0  0  0  0
 39 40  1  0  0  0  0
 40 41  2  0  0  0  0
 41 42  1  0  0  0  0
 42 43  1  0  0  0  0
 43 44  1  0  0  0  0
 44 40  1  0  0  0  0
 43 45  1  0  0  0  0
 41 46  1  0  0  0  0
 46 35  2  0  0  0  0
  5 47  1  0  0  0  0
  7 48  1  0  0  0  0
 10 49  1  0  0  0  0
 10 50  1  0  0  0  0
 10 51  1  0  0  0  0
 11 52  1  0  0  0  0
 12 53  1  0  0  0  0
 13 54  1  0  0  0  0
 23 55  1  0  0  0  0
 24 56  1  0  0  0  0
 25 57  1  0  0  0  0
 26 58  1  0  0  0  0
 29 59  1  0  0  0  0
 30 60  1  0  0  0  0
 31 61  1  0  0  0  0
 32 62  1  0  0  0  0
 33 63  1  0  0  0  0
 34 64  1  0  0  0  0
 34 65  1  0  0  0  0
 38 66  1  0  0  0  0
 38 67  1  0  0  0  0
 38 68  1  0  0  0  0
 39 69  1  0  0  0  0
 43 70  1  0  0  0  0
 44 71  1  0  0  0  0
 44 72  1  0  0  0  0
 45 73  1  0  0  0  0
 45 74  1  0  0  0  0
 45 75  1  0  0  0  0
 46 76  1  0  0  0  0
M  END
>  <result-rank>
88

>  <similarity>
0.842

>  <query-name>


>  <query-smiles>
Clc1ccc(cc1)CS(=O)(=O)c2cc3N=C(c4c(N(c3cc2)C)cc5c(c4)C(CCC5(C)C)(C)C)c6ccc(cc6)C([O-])=O

>  <source>
REALspace_2019-12

>  <similarity-descriptor>
0.951;0.996;0.938;0.893;0.782;0.768;0.705;0.705;0.0;0.0;0.0;0.0;1.000;0.752;0.200

>  <similarity-descriptor-smiles>
c1ccccc1;c1ccccc1;c1ccccc1;Cc1ccccc1;c1CCOc1;S1C=CNC1=N;N1C(ccC1=O)=O;N1C(ccC1=O)=O;;;;;C;NC=O;C.O.C

>  <reaction-name>
s_2

>  <reagent1-name>
510282

>  <reagent1-smiles>
[R1*]SC([R3*])=Nc1cc(NC(=O)C)ccc1

>  <reagent2-name>
7594322

>  <reagent2-smiles>
[R2*]N([R3*])Cc1c(OC)cc2c(OC(C2)C)c1

>  <reagent3-name>
9284808

>  <reagent3-smiles>
[R2*]C(c1c(N2C(=O)c3c(cccc3)C2=O)cccc1)=C[R1*]

$$$$
s_43____746388____9284818
          04022017333D 1   1.00000     0.00000     0
            
 44 48  0  0  0  0            999 V2000
    3.3303    3.5831    2.4714 S   0  0  0  0  0  0  0  0  0  0  0  0
    4.2182    2.1329    2.4615 C   0  0  0  0  0  0  0  0  0  0  0  0
    3.3498    1.1464    2.4729 N   0  0  0  0  0  0  0  0  0  0  0  0
    2.0375    1.5302    2.4908 C   0  0  0  0  0  0  0  0  0  0  0  0
    0.9114    0.6167    2.5151 C   0  0  0  0  0  0  0  0  0  0  0  0
   -0.3489    1.0549    2.1203 C   0  0  0  0  0  0  0  0  0  0  0  0
   -0.5625    2.3712    1.6941 N   0  0  0  0  0  0  0  0  0  0  0  0
   -1.0991    3.3980    2.4655 C   0  0  0  0  0  0  0  0  0  0  0  0
   -1.4611    3.2934    3.6256 O   0  0  0  0  0  0  0  0  0  0  0  0
   -1.1543    4.5946    1.6606 C   0  0  0  0  0  0  0  0  0  0  0  0
   -0.6612    4.2606    0.4267 C   0  0  0  0  0  0  0  0  0  0  0  0
   -0.6352    5.2762   -0.5240 C   0  0  0  0  0  0  0  0  0  0  0  0
   -1.0874    6.5564   -0.2255 C   0  0  0  0  0  0  0  0  0  0  0  0
   -1.5823    6.8569    1.0395 C   0  0  0  0  0  0  0  0  0  0  0  0
   -1.6221    5.8568    2.0056 C   0  0  0  0  0  0  0  0  0  0  0  0
   -0.2697    2.8711    0.4288 C   0  0  0  0  0  0  0  0  0  0  0  0
    0.2210    2.2620   -0.5082 O   0  0  0  0  0  0  0  0  0  0  0  0
   -1.4285    0.1788    2.1434 C   0  0  0  0  0  0  0  0  0  0  0  0
   -1.2488   -1.1360    2.5614 C   0  0  0  0  0  0  0  0  0  0  0  0
    0.0110   -1.5743    2.9562 C   0  0  0  0  0  0  0  0  0  0  0  0
    1.0909   -0.6978    2.9338 C   0  0  0  0  0  0  0  0  0  0  0  0
    1.7841    2.8690    2.4950 C   0  0  0  0  0  0  0  0  0  0  0  0
    5.6658    2.0266    2.4390 C   0  0  0  0  0  0  0  0  0  0  0  0
    6.2600    0.7688    2.4332 C   0  0  0  0  0  0  0  0  0  0  0  0
    7.6479    0.6802    2.4098 C   0  0  0  0  0  0  0  0  0  0  0  0
    8.4389    1.8244    2.3931 C   0  0  0  0  0  0  0  0  0  0  0  0
    7.8221    3.0709    2.3993 C   0  0  0  0  0  0  0  0  0  0  0  0
    6.4362    3.1844    2.4221 C   0  0  0  0  0  0  0  0  0  0  0  0
    8.2752   -0.6274    2.4038 C   0  0  0  0  0  0  0  0  0  0  0  0
    9.4816   -0.7196    2.3844 O   0  5  0  0  0  0  0  0  0  0  0  0
    7.5697   -1.6592    2.4187 O   0  0  0  0  0  0  0  0  0  0  0  0
   -0.2844    5.0814   -1.4400 H   0  0  0  0  0  0  0  0  0  0  0  0
   -1.0567    7.2684   -0.9270 H   0  0  0  0  0  0  0  0  0  0  0  0
   -1.9050    7.7793    1.2514 H   0  0  0  0  0  0  0  0  0  0  0  0
   -1.9773    6.0409    2.9221 H   0  0  0  0  0  0  0  0  0  0  0  0
   -2.3341    0.4938    1.8596 H   0  0  0  0  0  0  0  0  0  0  0  0
   -2.0252   -1.7659    2.5780 H   0  0  0  0  0  0  0  0  0  0  0  0
    0.1403   -2.5194    3.2562 H   0  0  0  0  0  0  0  0  0  0  0  0
    1.9963   -1.0126    3.2187 H   0  0  0  0  0  0  0  0  0  0  0  0
    0.8951    3.3268    2.5089 H   0  0  0  0  0  0  0  0  0  0  0  0
    5.6983   -0.0585    2.4457 H   0  0  0  0  0  0  0  0  0  0  0  0
    9.4361    1.7517    2.3770 H   0  0  0  0  0  0  0  0  0  0  0  0
    8.3837    3.8982    2.3871 H   0  0  0  0  0  0  0  0  0  0  0  0
    6.0004    4.0845    2.4262 H   0  0  0  0  0  0  0  0  0  0  0  0
  1  2  1  0  0  0  0
  2  3  2  0  0  0  0
  3  4  1  0  0  0  0
  4  5  1  0  0  0  0
  5  6  1  0  0  0  0
  6  7  1  0  0  0  0
  7  8  1  0  0  0  0
  8  9  2  0  0  0  0
  8 10  1  0  0  0  0
 10 11  1  0  0  0  0
 11 12  2  0  0  0  0
 12 13  1  0  0  0  0
 13 14  2  0  0  0  0
 14 15  1  0  0  0  0
 15 10  2  0  0  0  0
 11 16  1  0  0  0  0
 16  7  1  0  0  0  0
 16 17  2  0  0  0  0
  6 18  2  0  0  0  0
 18 19  1  0  0  0  0
 19 20  2  0  0  0  0
 20 21  1  0  0  0  0
 21  5  2  0  0  0  0
  4 22  2  0  0  0  0
 22  1  1  0  0  0  0
  2 23  1  0  0  0  0
 23 24  1  0  0  0  0
 24 25  2  0  0  0  0
 25 26  1  0  0  0  0
 26 27  2  0  0  0  0
 27 28  1  0  0  0  0
 28 23  2  0  0  0  0
 25 29  1  0  0  0  0
 29 30  1  0  0  0  0
 29 31  2  0  0  0  0
 12 32  1  0  0  0  0
 13 33  1  0  0  0  0
 14 34  1  0  0  0  0
 15 35  1  0  0  0  0
 18 36  1  0  0  0  0
 19 37  1  0  0  0  0
 20 38  1  0  0  0  0
 21 39  1  0  0  0  0
 22 40  1  0  0  0  0
 24 41  1  0  0  0  0
 26 42  1  0  0  0  0
 27 43  1  0  0  0  0
 28 44  1  0  0  0  0
M  CHG  1  30  -1
M  END
>  <result-rank>
89

>  <similarity>
0.842

>  <query-name>


>  <query-smiles>
Clc1ccc(cc1)CS(=O)(=O)c2cc3N=C(c4c(N(c3cc2)C)cc5c(c4)C(CCC5(C)C)(C)C)c6ccc(cc6)C([O-])=O

>  <source>
REALspace_2019-12

>  <similarity-descriptor>
0.951;1.000;0.938;0.0;0.0;0.792;0.705;0.705;0.792;0.0;0.0;0.0;0.0;1.000;0.0

>  <similarity-descriptor-smiles>
c1ccccc1;c1ccccc1;c1ccccc1;;;S1C=CN=C1;N1C(ccC1=O)=O;N1C(ccC1=O)=O;S1C=CN=C1;;;;;C([O-])=O;

>  <reaction-name>
s_43

>  <reagent1-name>
746388

>  <reagent1-smiles>
[R1*]SC(=N[R2*])c1cc(ccc1)C(=O)O

>  <reagent2-name>
9284818

>  <reagent2-smiles>
[R2*]C(c1c(N2C(=O)c3c(cccc3)C2=O)cccc1)=C[R1*]

$$$$
s_42a____87937____125250
          04022017333D 1   1.00000     0.00000     0
            
 69 73  0  0  0  0            999 V2000
    5.1504    0.5471   -0.3826 Br  0  0  0  0  0  0  0  0  0  0  0  0
    6.1680    0.3101    1.2759 C   0  0  0  0  0  0  0  0  0  0  0  0
    5.6609    0.8210    2.4637 C   0  0  0  0  0  0  0  0  0  0  0  0
    6.3463    0.6711    3.6022 N   0  0  0  0  0  0  0  0  0  0  0  0
    7.5235    0.0252    3.5260 C   0  0  0  0  0  0  0  0  0  0  0  0
    8.5044   -0.1724    4.8910 S   0  0  0  0  0  0  0  0  0  0  0  0
    9.7867   -0.9667    4.1204 C   0  0  0  0  0  0  0  0  0  0  0  0
    9.4133   -1.0737    2.8091 C   0  0  0  0  0  0  0  0  0  0  0  0
    8.1464   -0.5225    2.4462 C   0  0  0  0  0  0  0  0  0  0  0  0
    7.3846   -0.3556    1.2711 C   0  0  0  0  0  0  0  0  0  0  0  0
    7.8853   -0.8714    0.0088 C   0  0  0  0  0  0  0  0  0  0  0  0
    7.9052   -2.2452   -0.2070 C   0  0  0  0  0  0  0  0  0  0  0  0
    8.3870   -2.7272   -1.4192 C   0  0  0  0  0  0  0  0  0  0  0  0
    8.4117   -4.0586   -1.6416 O   0  0  0  0  0  0  0  0  0  0  0  0
    7.9486   -4.9542   -0.6416 C   0  0  0  0  0  0  0  0  0  0  0  0
    8.8429   -1.8591   -2.4052 C   0  0  0  0  0  0  0  0  0  0  0  0
    8.8123   -0.4899   -2.1642 C   0  0  0  0  0  0  0  0  0  0  0  0
    9.2539    0.3589   -3.1161 O   0  0  0  0  0  0  0  0  0  0  0  0
    9.7432   -0.1490   -4.3486 C   0  0  0  0  0  0  0  0  0  0  0  0
    8.3357    0.0183   -0.9604 C   0  0  0  0  0  0  0  0  0  0  0  0
   10.5381   -1.8068    2.1137 C   0  0  0  0  0  0  0  0  0  0  0  0
   11.8276   -1.1121    2.4838 C   0  0  0  0  0  0  0  0  0  0  0  0
   11.9964   -0.7183    3.9508 C   0  0  0  0  0  0  0  0  0  0  0  0
   11.0070   -1.2837    4.9482 C   0  0  0  0  0  0  0  0  0  0  0  0
    4.3937    1.5243    2.4800 C   0  0  0  0  0  0  0  0  0  0  0  0
    4.3836    2.9156    2.4883 C   0  0  0  0  0  0  0  0  0  0  0  0
    3.1740    3.6024    2.5029 C   0  0  0  0  0  0  0  0  0  0  0  0
    1.9848    2.8811    2.5100 C   0  0  0  0  0  0  0  0  0  0  0  0
    0.4648    3.7275    2.5286 S   0  0  0  0  0  0  0  0  0  0  0  0
    0.6112    4.9918    1.8552 O   0  0  0  0  0  0  0  0  0  0  0  0
   -0.5328    2.9373    1.8547 O   0  0  0  0  0  0  0  0  0  0  0  0
    0.0043    3.9835    4.0711 N   0  0  0  0  0  0  0  0  0  0  0  0
    1.0227    4.7901    4.7590 C   0  0  0  0  0  0  0  0  0  0  0  0
    1.0366    4.4354    6.2370 C   0  0  0  0  0  0  0  0  0  0  0  0
   -1.2799    4.6986    4.0868 C   0  0  0  0  0  0  0  0  0  0  0  0
   -2.4197    3.6930    4.0919 C   0  0  0  0  0  0  0  0  0  0  0  0
    1.9898    1.4900    2.5021 C   0  0  0  0  0  0  0  0  0  0  0  0
    3.2017    0.8072    2.4872 C   0  0  0  0  0  0  0  0  0  0  0  0
    7.5788   -2.8755    0.4973 H   0  0  0  0  0  0  0  0  0  0  0  0
    8.0373   -5.8947   -0.9695 H   0  0  0  0  0  0  0  0  0  0  0  0
    8.4939   -4.8377    0.1885 H   0  0  0  0  0  0  0  0  0  0  0  0
    6.9885   -4.7607   -0.4397 H   0  0  0  0  0  0  0  0  0  0  0  0
    9.1874   -2.2140   -3.2743 H   0  0  0  0  0  0  0  0  0  0  0  0
   10.0266    0.6111   -4.9333 H   0  0  0  0  0  0  0  0  0  0  0  0
   10.5262   -0.7464   -4.1756 H   0  0  0  0  0  0  0  0  0  0  0  0
    9.0212   -0.6693   -4.8048 H   0  0  0  0  0  0  0  0  0  0  0  0
    8.3173    1.0044   -0.7951 H   0  0  0  0  0  0  0  0  0  0  0  0
   10.4052   -1.7757    1.1230 H   0  0  0  0  0  0  0  0  0  0  0  0
   10.5639   -2.7594    2.4167 H   0  0  0  0  0  0  0  0  0  0  0  0
   11.8905   -0.2776    1.9365 H   0  0  0  0  0  0  0  0  0  0  0  0
   12.5813   -1.7246    2.2455 H   0  0  0  0  0  0  0  0  0  0  0  0
   12.9090   -1.0115    4.2359 H   0  0  0  0  0  0  0  0  0  0  0  0
   11.9356    0.2786    4.0016 H   0  0  0  0  0  0  0  0  0  0  0  0
   11.1281   -2.2640    5.1045 H   0  0  0  0  0  0  0  0  0  0  0  0
   11.0190   -0.8025    5.8247 H   0  0  0  0  0  0  0  0  0  0  0  0
    5.2459    3.4219    2.4837 H   0  0  0  0  0  0  0  0  0  0  0  0
    3.1597    4.6022    2.5083 H   0  0  0  0  0  0  0  0  0  0  0  0
    0.8079    5.7608    4.6512 H   0  0  0  0  0  0  0  0  0  0  0  0
    1.9211    4.6015    4.3625 H   0  0  0  0  0  0  0  0  0  0  0  0
    1.7294    4.9841    6.7050 H   0  0  0  0  0  0  0  0  0  0  0  0
    0.1382    4.6241    6.6335 H   0  0  0  0  0  0  0  0  0  0  0  0
    1.2514    3.4648    6.3448 H   0  0  0  0  0  0  0  0  0  0  0  0
   -1.3494    5.2770    3.2740 H   0  0  0  0  0  0  0  0  0  0  0  0
   -1.3343    5.2682    4.9069 H   0  0  0  0  0  0  0  0  0  0  0  0
   -3.2934    4.1795    4.1026 H   0  0  0  0  0  0  0  0  0  0  0  0
   -2.3654    3.1234    3.2718 H   0  0  0  0  0  0  0  0  0  0  0  0
   -2.3503    3.1146    4.9047 H   0  0  0  0  0  0  0  0  0  0  0  0
    1.1273    0.9839    2.5071 H   0  0  0  0  0  0  0  0  0  0  0  0
    3.2159   -0.1927    2.4818 H   0  0  0  0  0  0  0  0  0  0  0  0
  1  2  1  0  0  0  0
  2  3  1  0  0  0  0
  3  4  2  0  0  0  0
  4  5  1  0  0  0  0
  5  6  1  0  0  0  0
  6  7  1  0  0  0  0
  7  8  2  0  0  0  0
  8  9  1  0  0  0  0
  9  5  2  0  0  0  0
  9 10  1  0  0  0  0
 10  2  2  0  0  0  0
 10 11  1  0  0  0  0
 11 12  1  0  0  0  0
 12 13  2  0  0  0  0
 13 14  1  0  0  0  0
 14 15  1  0  0  0  0
 13 16  1  0  0  0  0
 16 17  2  0  0  0  0
 17 18  1  0  0  0  0
 18 19  1  0  0  0  0
 17 20  1  0  0  0  0
 20 11  2  0  0  0  0
  8 21  1  0  0  0  0
 21 22  1  0  0  0  0
 22 23  1  0  0  0  0
 23 24  1  0  0  0  0
 24  7  1  0  0  0  0
  3 25  1  0  0  0  0
 25 26  1  0  0  0  0
 26 27  2  0  0  0  0
 27 28  1  0  0  0  0
 28 29  1  0  0  0  0
 29 30  2  0  0  0  0
 29 31  2  0  0  0  0
 29 32  1  0  0  0  0
 32 33  1  0  0  0  0
 33 34  1  0  0  0  0
 32 35  1  0  0  0  0
 35 36  1  0  0  0  0
 28 37  2  0  0  0  0
 37 38  1  0  0  0  0
 38 25  2  0  0  0  0
 12 39  1  0  0  0  0
 15 40  1  0  0  0  0
 15 41  1  0  0  0  0
 15 42  1  0  0  0  0
 16 43  1  0  0  0  0
 19 44  1  0  0  0  0
 19 45  1  0  0  0  0
 19 46  1  0  0  0  0
 20 47  1  0  0  0  0
 21 48  1  0  0  0  0
 21 49  1  0  0  0  0
 22 50  1  0  0  0  0
 22 51  1  0  0  0  0
 23 52  1  0  0  0  0
 23 53  1  0  0  0  0
 24 54  1  0  0  0  0
 24 55  1  0  0  0  0
 26 56  1  0  0  0  0
 27 57  1  0  0  0  0
 33 58  1  0  0  0  0
 33 59  1  0  0  0  0
 34 60  1  0  0  0  0
 34 61  1  0  0  0  0
 34 62  1  0  0  0  0
 35 63  1  0  0  0  0
 35 64  1  0  0  0  0
 36 65  1  0  0  0  0
 36 66  1  0  0  0  0
 36 67  1  0  0  0  0
 37 68  1  0  0  0  0
 38 69  1  0  0  0  0
M  END
>  <result-rank>
90

>  <similarity>
0.842

>  <query-name>


>  <query-smiles>
Clc1ccc(cc1)CS(=O)(=O)c2cc3N=C(c4c(N(c3cc2)C)cc5c(c4)C(CCC5(C)C)(C)C)c6ccc(cc6)C([O-])=O

>  <source>
REALspace_2019-12

>  <similarity-descriptor>
0.0;0.999;0.981;0.830;0.961;0.881;0.576;0.576;0.881;0.961;0.961;0.0;0.0;0.909;0.467

>  <similarity-descriptor-smiles>
;c1ccccc1;c1ccccc1;c1cC=CS1;C=1CCCCC1;Brc1cccnc1;OC;OC;Brc1cccnc1;C=1CCCCC1;C=1CCCCC1;;;S(=O)=O;O.C.N.C.C.C.C

>  <reaction-name>
s_42a

>  <reagent1-name>
87937

>  <reagent1-smiles>
[R1*]=NC=1SC2=C(C1C(=[R2*])c3cc(OC)cc(OC)c3)CCCC2

>  <reagent2-name>
125250

>  <reagent2-smiles>
[R2*]=C(Br)C(=[R1*])c1ccc(S(=O)(=O)N(CC)CC)cc1

$$$$
s_42a____8624698____6815534
          04022017333D 1   1.00000     0.00000     0
            
 53 58  0  0  0  0            999 V2000
    6.3475   -1.7317    2.4452 Cl  0  0  0  0  0  0  0  0  0  0  0  0
    5.4895   -0.1716    2.4623 C   0  0  0  0  0  0  0  0  0  0  0  0
    6.2041    1.0209    2.4727 C   0  0  0  0  0  0  0  0  0  0  0  0
    5.5681    2.1934    2.4862 N   0  0  0  0  0  0  0  0  0  0  0  0
    4.2375    2.1262    2.4803 C   0  0  0  0  0  0  0  0  0  0  0  0
    3.3979    3.5944    2.4874 S   0  0  0  0  0  0  0  0  0  0  0  0
    1.8644    2.8671    2.4627 C   0  0  0  0  0  0  0  0  0  0  0  0
    2.0219    1.5128    2.4766 C   0  0  0  0  0  0  0  0  0  0  0  0
    3.3740    1.0517    2.4704 C   0  0  0  0  0  0  0  0  0  0  0  0
    4.0998   -0.1305    2.4630 C   0  0  0  0  0  0  0  0  0  0  0  0
    3.3762   -1.3871    2.4514 C   0  0  0  0  0  0  0  0  0  0  0  0
    3.0324   -1.9959    3.6541 C   0  0  0  0  0  0  0  0  0  0  0  0
    2.3393   -3.2015    3.6372 C   0  0  0  0  0  0  0  0  0  0  0  0
    1.9976   -3.7830    2.4202 C   0  0  0  0  0  0  0  0  0  0  0  0
    2.3397   -3.1720    1.2177 C   0  0  0  0  0  0  0  0  0  0  0  0
    3.0342   -1.9669    1.2345 C   0  0  0  0  0  0  0  0  0  0  0  0
    1.2412   -5.1017    2.4083 C   0  0  0  0  0  0  0  0  0  0  0  0
   -0.0671   -4.8624    2.4122 F   0  0  0  0  0  0  0  0  0  0  0  0
    1.5631   -5.7876    1.3152 F   0  0  0  0  0  0  0  0  0  0  0  0
    1.5658   -5.8087    3.4870 F   0  0  0  0  0  0  0  0  0  0  0  0
    0.5857    1.0192    2.4857 C   0  0  0  0  0  0  0  0  0  0  0  0
   -0.2067    2.1682    3.0661 C   0  0  0  0  0  0  0  0  0  0  0  0
    0.4353    3.3517    2.3912 C   0  0  0  0  0  0  0  0  0  0  0  0
    7.6546    1.0007    2.4628 C   0  0  0  0  0  0  0  0  0  0  0  0
    8.4510    0.1374    3.1531 N   0  0  0  0  0  0  0  0  0  0  0  0
    9.6525    0.4272    2.8953 N   0  0  0  0  0  0  0  0  0  0  0  0
    9.7229    1.4368    2.0625 N   0  0  0  0  0  0  0  0  0  0  0  0
   10.9029    2.0069    1.5710 C   0  0  0  0  0  0  0  0  0  0  0  0
   10.8308    3.0798    0.6888 C   0  0  0  0  0  0  0  0  0  0  0  0
   12.0102    3.6378    0.2070 C   0  0  0  0  0  0  0  0  0  0  0  0
   13.2485    3.1376    0.5951 C   0  0  0  0  0  0  0  0  0  0  0  0
   13.2958    2.0639    1.4788 C   0  0  0  0  0  0  0  0  0  0  0  0
   12.1297    1.4902    1.9734 C   0  0  0  0  0  0  0  0  0  0  0  0
   11.9379    4.8103   -0.7577 C   0  0  0  0  0  0  0  0  0  0  0  0
    8.4597    1.8370    1.7574 C   0  0  0  0  0  0  0  0  0  0  0  0
    3.2817   -1.5701    4.5239 H   0  0  0  0  0  0  0  0  0  0  0  0
    2.0877   -3.6484    4.4956 H   0  0  0  0  0  0  0  0  0  0  0  0
    2.0882   -3.5962    0.3478 H   0  0  0  0  0  0  0  0  0  0  0  0
    3.2862   -1.5199    0.3762 H   0  0  0  0  0  0  0  0  0  0  0  0
    0.4959    0.2037    3.0573 H   0  0  0  0  0  0  0  0  0  0  0  0
    0.2778    0.8110    1.5573 H   0  0  0  0  0  0  0  0  0  0  0  0
   -1.1765    2.0970    2.8328 H   0  0  0  0  0  0  0  0  0  0  0  0
   -0.1056    2.2158    4.0598 H   0  0  0  0  0  0  0  0  0  0  0  0
    0.1200    3.4704    1.4497 H   0  0  0  0  0  0  0  0  0  0  0  0
    0.2956    4.2017    2.8992 H   0  0  0  0  0  0  0  0  0  0  0  0
    9.9440    3.4446    0.4051 H   0  0  0  0  0  0  0  0  0  0  0  0
   14.0924    3.5435    0.2443 H   0  0  0  0  0  0  0  0  0  0  0  0
   14.1825    1.6991    1.7628 H   0  0  0  0  0  0  0  0  0  0  0  0
   12.1725    0.7186    2.6081 H   0  0  0  0  0  0  0  0  0  0  0  0
   12.8637    5.0934   -1.0083 H   0  0  0  0  0  0  0  0  0  0  0  0
   11.4395    4.5353   -1.5799 H   0  0  0  0  0  0  0  0  0  0  0  0
   11.4630    5.5736   -0.3197 H   0  0  0  0  0  0  0  0  0  0  0  0
    8.1846    2.5814    1.1490 H   0  0  0  0  0  0  0  0  0  0  0  0
  1  2  1  0  0  0  0
  2  3  1  0  0  0  0
  3  4  2  0  0  0  0
  4  5  1  0  0  0  0
  5  6  1  0  0  0  0
  6  7  1  0  0  0  0
  7  8  2  0  0  0  0
  8  9  1  0  0  0  0
  9  5  2  0  0  0  0
  9 10  1  0  0  0  0
 10  2  2  0  0  0  0
 10 11  1  0  0  0  0
 11 12  1  0  0  0  0
 12 13  2  0  0  0  0
 13 14  1  0  0  0  0
 14 15  2  0  0  0  0
 15 16  1  0  0  0  0
 16 11  2  0  0  0  0
 14 17  1  0  0  0  0
 17 18  1  0  0  0  0
 17 19  1  0  0  0  0
 17 20  1  0  0  0  0
  8 21  1  0  0  0  0
 21 22  1  0  0  0  0
 22 23  1  0  0  0  0
 23  7  1  0  0  0  0
  3 24  1  0  0  0  0
 24 25  1  0  0  0  0
 25 26  2  0  0  0  0
 26 27  1  0  0  0  0
 27 28  1  0  0  0  0
 28 29  1  0  0  0  0
 29 30  2  0  0  0  0
 30 31  1  0  0  0  0
 31 32  2  0  0  0  0
 32 33  1  0  0  0  0
 33 28  2  0  0  0  0
 30 34  1  0  0  0  0
 27 35  1  0  0  0  0
 24 35  2  0  0  0  0
 12 36  1  0  0  0  0
 13 37  1  0  0  0  0
 15 38  1  0  0  0  0
 16 39  1  0  0  0  0
 21 40  1  0  0  0  0
 21 41  1  0  0  0  0
 22 42  1  0  0  0  0
 22 43  1  0  0  0  0
 23 44  1  0  0  0  0
 23 45  1  0  0  0  0
 29 46  1  0  0  0  0
 31 47  1  0  0  0  0
 32 48  1  0  0  0  0
 33 49  1  0  0  0  0
 34 50  1  0  0  0  0
 34 51  1  0  0  0  0
 34 52  1  0  0  0  0
 35 53  1  0  0  0  0
M  END
>  <result-rank>
91

>  <similarity>
0.842

>  <query-name>


>  <query-smiles>
Clc1ccc(cc1)CS(=O)(=O)c2cc3N=C(c4c(N(c3cc2)C)cc5c(c4)C(CCC5(C)C)(C)C)c6ccc(cc6)C([O-])=O

>  <source>
REALspace_2019-12

>  <similarity-descriptor>
0.957;0.942;0.614;0.830;0.965;0.870;0.614;0.614;0.870;0.965;0.0;0.0;0.0;0.0;0.0

>  <similarity-descriptor-smiles>
c1cccc(c1)C;c1ccc(cc1)C(F)(F)F;C1=CNN=N1;c1cC=CS1;C=1CCCC1;Clc1cccnc1;C1=CNN=N1;C1=CNN=N1;Clc1cccnc1;C=1CCCC1;;;;;

>  <reaction-name>
s_42a

>  <reagent1-name>
8624698

>  <reagent1-smiles>
[R1*]=NC=1SC2=C(C1C(=[R2*])c3ccc(cc3)C(F)(F)F)CCC2

>  <reagent2-name>
6815534

>  <reagent2-smiles>
[R2*]=C(Cl)C(=[R1*])C=1N=NN(c2cc(ccc2)C)C1

$$$$
m_270942____15422214____9830432____9836002
          04022017343D 1   1.00000     0.00000     0
            
 83 88  0  0  0  0            999 V2000
   -1.5710    8.6784    6.5124 S   0  0  0  0  0  0  0  0  0  0  0  0
   -2.2305    9.9274    6.7929 O   0  0  0  0  0  0  0  0  0  0  0  0
   -2.5466    7.6204    6.4655 O   0  0  0  0  0  0  0  0  0  0  0  0
   -0.8076    8.7777    5.0756 N   0  0  0  0  0  0  0  0  0  0  0  0
    0.1534    7.8220    4.7262 C   0  0  0  0  0  0  0  0  0  0  0  0
   -0.2459    6.5208    4.4396 C   0  0  0  0  0  0  0  0  0  0  0  0
    0.7182    5.5798    4.0938 C   0  0  0  0  0  0  0  0  0  0  0  0
    2.0642    5.9244    4.0330 C   0  0  0  0  0  0  0  0  0  0  0  0
    2.4398    7.2322    4.3236 C   0  0  0  0  0  0  0  0  0  0  0  0
    1.4933    8.1897    4.6715 C   0  0  0  0  0  0  0  0  0  0  0  0
    0.2881    4.1559    3.7799 C   0  0  0  0  0  0  0  0  0  0  0  0
    0.8853    3.7336    2.5048 N   0  0  0  0  0  0  0  0  0  0  0  0
    2.0315    2.9267    2.5008 C   0  0  0  0  0  0  0  0  0  0  0  0
    3.2789    3.3271    2.4974 N   0  0  0  0  0  0  0  0  0  0  0  0
    4.1071    2.3065    2.4903 N   0  0  0  0  0  0  0  0  0  0  0  0
    3.3905    1.2051    2.4893 C   0  0  0  0  0  0  0  0  0  0  0  0
    2.0806    1.5694    2.4959 N   0  0  0  0  0  0  0  0  0  0  0  0
    0.9245    0.6605    2.4981 C   0  0  0  0  0  0  0  0  0  0  0  0
    0.8234   -0.0293    1.1572 C   0  0  0  0  0  0  0  0  0  0  0  0
    1.6973    0.1920    0.1322 N   0  0  0  0  0  0  0  0  0  0  0  0
    1.4549   -0.4919   -0.9642 C   0  0  0  0  0  0  0  0  0  0  0  0
    0.0729   -1.4345   -0.6659 S   0  0  0  0  0  0  0  0  0  0  0  0
   -0.1827   -0.9174    0.9388 C   0  0  0  0  0  0  0  0  0  0  0  0
    2.1572   -0.4836   -2.1680 N   0  0  0  0  0  0  0  0  0  0  0  0
    3.3705   -1.1134   -2.2576 C   0  0  0  0  0  0  0  0  0  0  0  0
    3.8286   -1.6723   -1.2995 O   0  0  0  0  0  0  0  0  0  0  0  0
    4.1364   -1.1044   -3.5705 C   0  0  0  0  0  0  0  0  0  0  0  0
    1.5960    0.2010   -3.3416 C   0  0  0  0  0  0  0  0  0  0  0  0
    3.9073   -0.1477    2.4826 C   0  0  0  0  0  0  0  0  0  0  0  0
    3.2638   -1.4469    3.3760 S   0  0  0  0  0  0  0  0  0  0  0  0
    4.3611   -2.6356    2.8496 C   0  0  0  0  0  0  0  0  0  0  0  0
    5.2266   -2.0124    1.9791 C   0  0  0  0  0  0  0  0  0  0  0  0
    4.9743   -0.6222    1.7765 C   0  0  0  0  0  0  0  0  0  0  0  0
    6.3535   -2.7991    1.3130 C   0  0  0  0  0  0  0  0  0  0  0  0
    7.6223   -2.9304    2.1505 C   0  0  0  0  0  0  0  0  0  0  0  0
    7.7255   -4.1929    3.0052 C   0  0  0  0  0  0  0  0  0  0  0  0
    6.5745   -4.4709    3.9749 C   0  0  0  0  0  0  0  0  0  0  0  0
    5.2894   -4.9781    3.3297 C   0  0  0  0  0  0  0  0  0  0  0  0
    4.0997   -4.0220    3.4304 C   0  0  0  0  0  0  0  0  0  0  0  0
    0.2805    4.1574    1.2338 C   0  0  0  0  0  0  0  0  0  0  0  0
   -0.4101    8.3418    7.7638 C   0  0  0  0  0  0  0  0  0  0  0  0
    0.2140    9.3917    8.4296 C   0  0  0  0  0  0  0  0  0  0  0  0
    1.1402    9.1083    9.4285 C   0  0  0  0  0  0  0  0  0  0  0  0
    1.4400    7.7905    9.7573 C   0  0  0  0  0  0  0  0  0  0  0  0
    0.8109    6.7481    9.0848 C   0  0  0  0  0  0  0  0  0  0  0  0
   -0.1168    7.0200    8.0847 C   0  0  0  0  0  0  0  0  0  0  0  0
   -1.0259    9.5215    4.4438 H   0  0  0  0  0  0  0  0  0  0  0  0
   -1.2119    6.2656    4.4815 H   0  0  0  0  0  0  0  0  0  0  0  0
    2.7519    5.2424    3.7841 H   0  0  0  0  0  0  0  0  0  0  0  0
    3.4057    7.4877    4.2815 H   0  0  0  0  0  0  0  0  0  0  0  0
    1.7718    9.1275    4.8791 H   0  0  0  0  0  0  0  0  0  0  0  0
    0.5958    3.5461    4.5102 H   0  0  0  0  0  0  0  0  0  0  0  0
   -0.7087    4.1164    3.7104 H   0  0  0  0  0  0  0  0  0  0  0  0
    0.0893    1.1838    2.6675 H   0  0  0  0  0  0  0  0  0  0  0  0
    1.0403   -0.0245    3.2174 H   0  0  0  0  0  0  0  0  0  0  0  0
   -0.9037   -1.2009    1.5711 H   0  0  0  0  0  0  0  0  0  0  0  0
    3.6145   -0.5986   -4.2574 H   0  0  0  0  0  0  0  0  0  0  0  0
    5.0240   -0.6641   -3.4355 H   0  0  0  0  0  0  0  0  0  0  0  0
    4.2745   -2.0444   -3.8823 H   0  0  0  0  0  0  0  0  0  0  0  0
    2.2251    0.1092   -4.1135 H   0  0  0  0  0  0  0  0  0  0  0  0
    0.7158   -0.2104   -3.5782 H   0  0  0  0  0  0  0  0  0  0  0  0
    1.4653    1.1699   -3.1314 H   0  0  0  0  0  0  0  0  0  0  0  0
    5.5283   -0.0488    1.1729 H   0  0  0  0  0  0  0  0  0  0  0  0
    6.5913   -2.3387    0.4577 H   0  0  0  0  0  0  0  0  0  0  0  0
    6.0155   -3.7189    1.1136 H   0  0  0  0  0  0  0  0  0  0  0  0
    7.6696   -2.1407    2.7622 H   0  0  0  0  0  0  0  0  0  0  0  0
    8.4043   -2.9167    1.5274 H   0  0  0  0  0  0  0  0  0  0  0  0
    8.5647   -4.1243    3.5447 H   0  0  0  0  0  0  0  0  0  0  0  0
    7.7917   -4.9735    2.3837 H   0  0  0  0  0  0  0  0  0  0  0  0
    6.8830   -5.1586    4.6321 H   0  0  0  0  0  0  0  0  0  0  0  0
    6.3637   -3.6203    4.4567 H   0  0  0  0  0  0  0  0  0  0  0  0
    5.4728   -5.1455    2.3610 H   0  0  0  0  0  0  0  0  0  0  0  0
    5.0363   -5.8373    3.7744 H   0  0  0  0  0  0  0  0  0  0  0  0
    3.3289   -4.4276    2.9392 H   0  0  0  0  0  0  0  0  0  0  0  0
    3.8619   -3.9177    4.3961 H   0  0  0  0  0  0  0  0  0  0  0  0
   -0.5229    4.7233    1.4192 H   0  0  0  0  0  0  0  0  0  0  0  0
    0.9465    4.6863    0.7077 H   0  0  0  0  0  0  0  0  0  0  0  0
    0.0065    3.3510    0.7097 H   0  0  0  0  0  0  0  0  0  0  0  0
   -0.0006   10.3393    8.1931 H   0  0  0  0  0  0  0  0  0  0  0  0
    1.5931    9.8568    9.9130 H   0  0  0  0  0  0  0  0  0  0  0  0
    2.1067    7.5929   10.4760 H   0  0  0  0  0  0  0  0  0  0  0  0
    1.0263    5.8006    9.3209 H   0  0  0  0  0  0  0  0  0  0  0  0
   -0.5694    6.2714    7.6002 H   0  0  0  0  0  0  0  0  0  0  0  0
  1  2  2  0  0  0  0
  1  3  2  0  0  0  0
  1  4  1  0  0  0  0
  4  5  1  0  0  0  0
  5  6  1  0  0  0  0
  6  7  2  0  0  0  0
  7  8  1  0  0  0  0
  8  9  2  0  0  0  0
  9 10  1  0  0  0  0
 10  5  2  0  0  0  0
  7 11  1  0  0  0  0
 11 12  1  0  0  0  0
 12 13  1  0  0  0  0
 13 14  2  0  0  0  0
 14 15  1  0  0  0  0
 15 16  2  0  0  0  0
 16 17  1  0  0  0  0
 17 13  1  0  0  0  0
 17 18  1  0  0  0  0
 18 19  1  0  0  0  0
 19 20  1  0  0  0  0
 20 21  2  0  0  0  0
 21 22  1  0  0  0  0
 22 23  1  0  0  0  0
 19 23  2  0  0  0  0
 21 24  1  0  0  0  0
 24 25  1  0  0  0  0
 25 26  2  0  0  0  0
 25 27  1  0  0  0  0
 24 28  1  0  0  0  0
 16 29  1  0  0  0  0
 29 30  1  0  0  0  0
 30 31  1  0  0  0  0
 31 32  2  0  0  0  0
 32 33  1  0  0  0  0
 29 33  2  0  0  0  0
 32 34  1  0  0  0  0
 34 35  1  0  0  0  0
 35 36  1  0  0  0  0
 36 37  1  0  0  0  0
 37 38  1  0  0  0  0
 38 39  1  0  0  0  0
 39 31  1  0  0  0  0
 12 40  1  0  0  0  0
  1 41  1  0  0  0  0
 41 42  1  0  0  0  0
 42 43  2  0  0  0  0
 43 44  1  0  0  0  0
 44 45  2  0  0  0  0
 45 46  1  0  0  0  0
 46 41  2  0  0  0  0
  4 47  1  0  0  0  0
  6 48  1  0  0  0  0
  8 49  1  0  0  0  0
  9 50  1  0  0  0  0
 10 51  1  0  0  0  0
 11 52  1  0  0  0  0
 11 53  1  0  0  0  0
 18 54  1  0  0  0  0
 18 55  1  0  0  0  0
 23 56  1  0  0  0  0
 27 57  1  0  0  0  0
 27 58  1  0  0  0  0
 27 59  1  0  0  0  0
 28 60  1  0  0  0  0
 28 61  1  0  0  0  0
 28 62  1  0  0  0  0
 33 63  1  0  0  0  0
 34 64  1  0  0  0  0
 34 65  1  0  0  0  0
 35 66  1  0  0  0  0
 35 67  1  0  0  0  0
 36 68  1  0  0  0  0
 36 69  1  0  0  0  0
 37 70  1  0  0  0  0
 37 71  1  0  0  0  0
 38 72  1  0  0  0  0
 38 73  1  0  0  0  0
 39 74  1  0  0  0  0
 39 75  1  0  0  0  0
 40 76  1  0  0  0  0
 40 77  1  0  0  0  0
 40 78  1  0  0  0  0
 42 79  1  0  0  0  0
 43 80  1  0  0  0  0
 44 81  1  0  0  0  0
 45 82  1  0  0  0  0
 46 83  1  0  0  0  0
M  END
>  <result-rank>
92

>  <similarity>
0.841

>  <query-name>


>  <query-smiles>
Clc1ccc(cc1)CS(=O)(=O)c2cc3N=C(c4c(N(c3cc2)C)cc5c(c4)C(CCC5(C)C)(C)C)c6ccc(cc6)C([O-])=O

>  <source>
REALspace_2019-12

>  <similarity-descriptor>
0.898;0.720;0.875;0.916;0.957;0.661;0.898;0.885;1.000;0.957;0.957;0.957;0.957;0.789;0.125

>  <similarity-descriptor-smiles>
c1ccccc1;CC1=CSC=N1;c1cccc(c1)C;C1=CC=CS1;C=1CCCCCCC1;NC=1NC=NN1;c1ccccc1;S(=O)(=O)N;C;C=1CCCCCCC1;C=1CCCCCCC1;C=1CCCCCCC1;C=1CCCCCCC1;NC=O;C.C

>  <reaction-name>
m_270942

>  <reagent1-name>
15422214

>  <reagent1-smiles>
[R3*]=C([R2*])N([R1*])CC=1N=C(SC1)N(C(=O)C)C

>  <reagent2-name>
9830432

>  <reagent2-smiles>
[R2*]N(Cc1cc(NS(=O)(=O)c2ccccc2)ccc1)C

>  <reagent3-name>
9836002

>  <reagent3-smiles>
[R3*]=NN=C([R1*])C=1SC2=C(C1)CCCCCC2

$$$$
s_22____2072168____59237
          04022017343D 1   1.00000     0.00000     0
            
 61 66  0  0  0  0            999 V2000
    4.7992   -2.7373   -0.0998 S   0  0  0  0  0  0  0  0  0  0  0  0
    5.1331   -1.5223    1.0504 C   0  0  0  0  0  0  0  0  0  0  0  0
    6.1458   -1.9130    1.7921 N   0  0  0  0  0  0  0  0  0  0  0  0
    6.6854   -3.1321    1.4622 C   0  0  0  0  0  0  0  0  0  0  0  0
    6.0430   -3.7712    0.4268 C   0  0  0  0  0  0  0  0  0  0  0  0
    6.2246   -5.1077   -0.2745 C   0  0  0  0  0  0  0  0  0  0  0  0
    6.8507   -6.1007    0.6935 C   0  0  0  0  0  0  0  0  0  0  0  0
    8.3589   -5.9235    0.8124 C   0  0  0  0  0  0  0  0  0  0  0  0
    8.8034   -4.5088    1.1730 C   0  0  0  0  0  0  0  0  0  0  0  0
    7.8895   -3.7651    2.1454 C   0  0  0  0  0  0  0  0  0  0  0  0
    4.4212   -0.3214    1.1549 N   0  0  0  0  0  0  0  0  0  0  0  0
    3.0600   -0.3164    1.0000 C   0  0  0  0  0  0  0  0  0  0  0  0
    2.4677   -1.3511    0.8644 O   0  0  0  0  0  0  0  0  0  0  0  0
    2.3000    1.0000    1.0000 C   0  0  0  0  0  0  0  0  0  0  0  0
    1.0000    1.0000    1.0000 C   0  0  0  0  0  0  0  0  0  0  0  0
    0.2743    2.2569    1.0000 C   0  0  0  0  0  0  0  0  0  0  0  0
   -1.1290    2.4102    1.0000 C   0  0  0  0  0  0  0  0  0  0  0  0
   -1.3474    3.7064    0.9965 N   0  0  0  0  0  0  0  0  0  0  0  0
   -0.2226    4.3809    1.0015 N   0  0  0  0  0  0  0  0  0  0  0  0
   -0.1068    5.7763    1.0014 C   0  0  0  0  0  0  0  0  0  0  0  0
    1.1548    6.3627    1.0070 C   0  0  0  0  0  0  0  0  0  0  0  0
    1.2658    7.7492    1.0067 C   0  0  0  0  0  0  0  0  0  0  0  0
    0.1207    8.5385    1.0010 C   0  0  0  0  0  0  0  0  0  0  0  0
   -1.1355    7.9414    0.9948 C   0  0  0  0  0  0  0  0  0  0  0  0
   -1.2588    6.5559    0.9952 C   0  0  0  0  0  0  0  0  0  0  0  0
    0.8192    3.5039    0.9982 C   0  0  0  0  0  0  0  0  0  0  0  0
   -2.1272    1.3579    1.0024 C   0  0  0  0  0  0  0  0  0  0  0  0
   -2.6442    0.8092   -0.2030 C   0  0  0  0  0  0  0  0  0  0  0  0
   -2.2312    1.2413   -1.2676 O   0  0  0  0  0  0  0  0  0  0  0  0
   -3.5542   -0.1495   -0.1689 O   0  0  0  0  0  0  0  0  0  0  0  0
   -4.0194   -0.6366    0.9691 C   0  0  0  0  0  0  0  0  0  0  0  0
   -3.5634   -0.1529    2.1918 C   0  0  0  0  0  0  0  0  0  0  0  0
   -4.0372   -0.6484    3.4023 C   0  0  0  0  0  0  0  0  0  0  0  0
   -4.9947   -1.6569    3.3902 C   0  0  0  0  0  0  0  0  0  0  0  0
   -5.4647   -2.1556    2.1790 C   0  0  0  0  0  0  0  0  0  0  0  0
   -4.9770   -1.6452    0.9804 C   0  0  0  0  0  0  0  0  0  0  0  0
   -2.5866    0.8771    2.2007 C   0  0  0  0  0  0  0  0  0  0  0  0
    6.8230   -4.9908   -1.0671 H   0  0  0  0  0  0  0  0  0  0  0  0
    5.3349   -5.4505   -0.5762 H   0  0  0  0  0  0  0  0  0  0  0  0
    6.6608   -7.0278    0.3701 H   0  0  0  0  0  0  0  0  0  0  0  0
    6.4400   -5.9719    1.5961 H   0  0  0  0  0  0  0  0  0  0  0  0
    8.7721   -6.1666   -0.0651 H   0  0  0  0  0  0  0  0  0  0  0  0
    8.6915   -6.5456    1.5212 H   0  0  0  0  0  0  0  0  0  0  0  0
    9.7123   -4.5664    1.5860 H   0  0  0  0  0  0  0  0  0  0  0  0
    8.8543   -3.9762    0.3282 H   0  0  0  0  0  0  0  0  0  0  0  0
    7.5618   -4.4125    2.8335 H   0  0  0  0  0  0  0  0  0  0  0  0
    8.4186   -3.0435    2.5919 H   0  0  0  0  0  0  0  0  0  0  0  0
    4.9063    0.5327    1.3425 H   0  0  0  0  0  0  0  0  0  0  0  0
    2.8000    1.8660    1.0000 H   0  0  0  0  0  0  0  0  0  0  0  0
    0.5000    0.1340    1.0000 H   0  0  0  0  0  0  0  0  0  0  0  0
    1.9757    5.7916    1.0113 H   0  0  0  0  0  0  0  0  0  0  0  0
    2.1690    8.1785    1.0106 H   0  0  0  0  0  0  0  0  0  0  0  0
    0.2005    9.5353    1.0014 H   0  0  0  0  0  0  0  0  0  0  0  0
   -1.9563    8.5126    0.9901 H   0  0  0  0  0  0  0  0  0  0  0  0
   -2.1620    6.1268    0.9911 H   0  0  0  0  0  0  0  0  0  0  0  0
    1.7930    3.7315    0.9950 H   0  0  0  0  0  0  0  0  0  0  0  0
   -3.6942   -0.2848    4.2684 H   0  0  0  0  0  0  0  0  0  0  0  0
   -5.3455   -2.0237    4.2518 H   0  0  0  0  0  0  0  0  0  0  0  0
   -6.1531   -2.8809    2.1703 H   0  0  0  0  0  0  0  0  0  0  0  0
   -5.3199   -2.0088    0.1143 H   0  0  0  0  0  0  0  0  0  0  0  0
   -2.2407    1.2445    3.0640 H   0  0  0  0  0  0  0  0  0  0  0  0
  1  2  1  0  0  0  0
  2  3  2  0  0  0  0
  3  4  1  0  0  0  0
  4  5  2  0  0  0  0
  5  1  1  0  0  0  0
  5  6  1  0  0  0  0
  6  7  1  0  0  0  0
  7  8  1  0  0  0  0
  8  9  1  0  0  0  0
  9 10  1  0  0  0  0
 10  4  1  0  0  0  0
  2 11  1  0  0  0  0
 11 12  1  0  0  0  0
 12 13  2  0  0  0  0
 12 14  1  0  0  0  0
 14 15  2  0  0  0  0
 15 16  1  0  0  0  0
 16 17  1  0  0  0  0
 17 18  2  0  0  0  0
 18 19  1  0  0  0  0
 19 20  1  0  0  0  0
 20 21  1  0  0  0  0
 21 22  2  0  0  0  0
 22 23  1  0  0  0  0
 23 24  2  0  0  0  0
 24 25  1  0  0  0  0
 25 20  2  0  0  0  0
 19 26  1  0  0  0  0
 16 26  2  0  0  0  0
 17 27  1  0  0  0  0
 27 28  1  0  0  0  0
 28 29  2  0  0  0  0
 28 30  1  0  0  0  0
 30 31  1  0  0  0  0
 31 32  1  0  0  0  0
 32 33  2  0  0  0  0
 33 34  1  0  0  0  0
 34 35  2  0  0  0  0
 35 36  1  0  0  0  0
 36 31  2  0  0  0  0
 32 37  1  0  0  0  0
 27 37  2  0  0  0  0
  6 38  1  0  0  0  0
  6 39  1  0  0  0  0
  7 40  1  0  0  0  0
  7 41  1  0  0  0  0
  8 42  1  0  0  0  0
  8 43  1  0  0  0  0
  9 44  1  0  0  0  0
  9 45  1  0  0  0  0
 10 46  1  0  0  0  0
 10 47  1  0  0  0  0
 11 48  1  0  0  0  0
 14 49  1  0  0  0  0
 15 50  1  0  0  0  0
 21 51  1  0  0  0  0
 22 52  1  0  0  0  0
 23 53  1  0  0  0  0
 24 54  1  0  0  0  0
 25 55  1  0  0  0  0
 26 56  1  0  0  0  0
 33 57  1  0  0  0  0
 34 58  1  0  0  0  0
 35 59  1  0  0  0  0
 36 60  1  0  0  0  0
 37 61  1  0  0  0  0
M  END
>  <result-rank>
93

>  <similarity>
0.841

>  <query-name>


>  <query-smiles>
Clc1ccc(cc1)CS(=O)(=O)c2cc3N=C(c4c(N(c3cc2)C)cc5c(c4)C(CCC5(C)C)(C)C)c6ccc(cc6)C([O-])=O

>  <source>
REALspace_2019-12

>  <similarity-descriptor>
0.952;0.956;0.819;0.647;0.959;0.788;0.819;0.819;0.0;0.959;0.959;0.959;0.0;0.0;0.0

>  <similarity-descriptor-smiles>
c1ccccc1;c1ccccc1;C1=CccOC1=O;S1C=CN=C1NC=O;C=1CCCCCC1;C=CC1=CNN=C1;C1=CccOC1=O;C1=CccOC1=O;;C=1CCCCCC1;C=1CCCCCC1;C=1CCCCCC1;;;

>  <reaction-name>
s_22

>  <reagent1-name>
2072168

>  <reagent1-smiles>
[R1*]NC=1SC2=C(N1)CCCCC2

>  <reagent2-name>
59237

>  <reagent2-smiles>
[R1*]C(=O)C=CC=1C(=NN(c2ccccc2)C1)C=3C(=O)Oc4c(cccc4)C3

$$$$
s_1____86402____86332____7793930
          04022017343D 1   1.00000     0.00000     0
            
 78 83  0  0  0  0            999 V2000
    7.3562    0.7401    2.3397 S   0  0  0  0  0  0  0  0  0  0  0  0
    6.5740    1.1785    3.4665 O   0  0  0  0  0  0  0  0  0  0  0  0
    7.6069   -0.6736    2.4504 O   0  0  0  0  0  0  0  0  0  0  0  0
    6.5647    1.0316    1.0037 O   0  0  0  0  0  0  0  0  0  0  0  0
    5.2153    1.0213    1.0030 C   0  0  0  0  0  0  0  0  0  0  0  0
    4.5113    2.2191    1.0552 C   0  0  0  0  0  0  0  0  0  0  0  0
    5.1850    3.3878    1.1065 O   0  0  0  0  0  0  0  0  0  0  0  0
    4.4737    4.6156    1.1601 C   0  0  0  0  0  0  0  0  0  0  0  0
    3.1200    2.2173    1.0538 C   0  0  0  0  0  0  0  0  0  0  0  0
    2.4495    1.0000    1.0000 C   0  0  0  0  0  0  0  0  0  0  0  0
    3.1415   -0.2054    0.9474 C   0  0  0  0  0  0  0  0  0  0  0  0
    4.5329   -0.1900    0.9487 C   0  0  0  0  0  0  0  0  0  0  0  0
    1.0000    1.0000    1.0000 C   0  0  0  0  0  0  0  0  0  0  0  0
    0.3750    2.0815    1.0478 N   0  0  0  0  0  0  0  0  0  0  0  0
   -0.9744    2.0815    1.0478 N   0  0  0  0  0  0  0  0  0  0  0  0
   -1.6769    1.7318   -0.0633 C   0  0  0  0  0  0  0  0  0  0  0  0
   -3.3197    1.8642    0.3689 S   0  0  0  0  0  0  0  0  0  0  0  0
   -3.1027    2.3787    1.9766 C   0  0  0  0  0  0  0  0  0  0  0  0
   -1.7515    2.4232    2.1255 C   0  0  0  0  0  0  0  0  0  0  0  0
   -1.2341    2.8275    3.4092 C   0  0  0  0  0  0  0  0  0  0  0  0
    0.4035    2.8774    3.8623 S   0  0  0  0  0  0  0  0  0  0  0  0
    0.1825    3.4463    5.4541 C   0  0  0  0  0  0  0  0  0  0  0  0
   -1.1579    3.6180    5.6137 C   0  0  0  0  0  0  0  0  0  0  0  0
   -1.9441    3.2466    4.4905 C   0  0  0  0  0  0  0  0  0  0  0  0
   -1.6264    4.1734    6.9511 C   0  0  0  0  0  0  0  0  0  0  0  0
   -0.5961    5.0960    7.4469 N   0  0  0  0  0  0  0  0  0  0  0  0
   -1.0194    6.3330    7.9455 C   0  0  0  0  0  0  0  0  0  0  0  0
   -2.1876    6.6073    7.9572 O   0  0  0  0  0  0  0  0  0  0  0  0
    0.0005    7.3294    8.4723 C   0  0  0  0  0  0  0  0  0  0  0  0
    0.8508    4.8115    7.4511 C   0  0  0  0  0  0  0  0  0  0  0  0
    1.2670    3.7096    6.4874 C   0  0  0  0  0  0  0  0  0  0  0  0
   -1.2108    1.3821   -1.1906 N   0  0  0  0  0  0  0  0  0  0  0  0
   -0.9550    2.3470   -2.1722 C   0  0  0  0  0  0  0  0  0  0  0  0
   -1.8837    2.5591   -3.1855 C   0  0  0  0  0  0  0  0  0  0  0  0
   -3.0069    1.8480   -3.2175 F   0  0  0  0  0  0  0  0  0  0  0  0
   -1.6465    3.5137   -4.1691 C   0  0  0  0  0  0  0  0  0  0  0  0
   -0.4680    4.2509   -4.1231 C   0  0  0  0  0  0  0  0  0  0  0  0
    0.4637    4.0414   -3.1122 C   0  0  0  0  0  0  0  0  0  0  0  0
    0.2222    3.0867   -2.1307 C   0  0  0  0  0  0  0  0  0  0  0  0
    8.8703    1.5975    2.3158 C   0  0  0  0  0  0  0  0  0  0  0  0
    8.9748    2.8905    2.8202 C   0  0  0  0  0  0  0  0  0  0  0  0
   10.1974    3.5525    2.7881 C   0  0  0  0  0  0  0  0  0  0  0  0
   11.3152    2.9223    2.2520 C   0  0  0  0  0  0  0  0  0  0  0  0
   11.2057    1.6301    1.7495 C   0  0  0  0  0  0  0  0  0  0  0  0
    9.9853    0.9630    1.7788 C   0  0  0  0  0  0  0  0  0  0  0  0
   12.4247    0.9361    1.1624 C   0  0  0  0  0  0  0  0  0  0  0  0
    7.7733    3.6086    3.4133 C   0  0  0  0  0  0  0  0  0  0  0  0
    5.1227    5.3757    1.1935 H   0  0  0  0  0  0  0  0  0  0  0  0
    3.8989    4.7036    0.3465 H   0  0  0  0  0  0  0  0  0  0  0  0
    3.8985    4.6322    1.9780 H   0  0  0  0  0  0  0  0  0  0  0  0
    2.6105    3.0770    1.0909 H   0  0  0  0  0  0  0  0  0  0  0  0
    2.6451   -1.0726    0.9090 H   0  0  0  0  0  0  0  0  0  0  0  0
    5.0424   -1.0496    0.9107 H   0  0  0  0  0  0  0  0  0  0  0  0
    0.5000    0.1348    0.9617 H   0  0  0  0  0  0  0  0  0  0  0  0
   -3.8051    2.5973    2.6541 H   0  0  0  0  0  0  0  0  0  0  0  0
   -2.9432    3.2899    4.4947 H   0  0  0  0  0  0  0  0  0  0  0  0
   -2.4904    4.6624    6.8315 H   0  0  0  0  0  0  0  0  0  0  0  0
   -1.7540    3.4257    7.6028 H   0  0  0  0  0  0  0  0  0  0  0  0
    0.9187    6.9423    8.3885 H   0  0  0  0  0  0  0  0  0  0  0  0
   -0.0545    8.1750    7.9412 H   0  0  0  0  0  0  0  0  0  0  0  0
   -0.1918    7.5264    9.4336 H   0  0  0  0  0  0  0  0  0  0  0  0
    1.1148    4.5370    8.3757 H   0  0  0  0  0  0  0  0  0  0  0  0
    1.3368    5.6487    7.2004 H   0  0  0  0  0  0  0  0  0  0  0  0
    2.1053    3.9862    6.0176 H   0  0  0  0  0  0  0  0  0  0  0  0
    1.4360    2.8704    7.0043 H   0  0  0  0  0  0  0  0  0  0  0  0
   -2.3132    3.6676   -4.8982 H   0  0  0  0  0  0  0  0  0  0  0  0
   -0.2886    4.9398   -4.8254 H   0  0  0  0  0  0  0  0  0  0  0  0
    1.3076    4.5776   -3.0912 H   0  0  0  0  0  0  0  0  0  0  0  0
    0.8890    2.9332   -1.4014 H   0  0  0  0  0  0  0  0  0  0  0  0
   10.2727    4.4815    3.1504 H   0  0  0  0  0  0  0  0  0  0  0  0
   12.1951    3.3968    2.2280 H   0  0  0  0  0  0  0  0  0  0  0  0
    9.9104    0.0340    1.4165 H   0  0  0  0  0  0  0  0  0  0  0  0
   13.2145    1.5470    1.2169 H   0  0  0  0  0  0  0  0  0  0  0  0
   12.6133    0.1006    1.6785 H   0  0  0  0  0  0  0  0  0  0  0  0
   12.2479    0.7043    0.2059 H   0  0  0  0  0  0  0  0  0  0  0  0
    8.0474    4.5203    3.7192 H   0  0  0  0  0  0  0  0  0  0  0  0
    7.0581    3.6909    2.7192 H   0  0  0  0  0  0  0  0  0  0  0  0
    7.4239    3.0869    4.1916 H   0  0  0  0  0  0  0  0  0  0  0  0
  1  2  2  0  0  0  0
  1  3  2  0  0  0  0
  1  4  1  0  0  0  0
  4  5  1  0  0  0  0
  5  6  1  0  0  0  0
  6  7  1  0  0  0  0
  7  8  1  0  0  0  0
  6  9  2  0  0  0  0
  9 10  1  0  0  0  0
 10 11  2  0  0  0  0
 11 12  1  0  0  0  0
 12  5  2  0  0  0  0
 10 13  1  0  0  0  0
 13 14  2  0  0  0  0
 14 15  1  0  0  0  0
 15 16  1  0  0  0  0
 16 17  1  0  0  0  0
 17 18  1  0  0  0  0
 18 19  2  0  0  0  0
 19 15  1  0  0  0  0
 19 20  1  0  0  0  0
 20 21  1  0  0  0  0
 21 22  1  0  0  0  0
 22 23  2  0  0  0  0
 23 24  1  0  0  0  0
 20 24  2  0  0  0  0
 23 25  1  0  0  0  0
 25 26  1  0  0  0  0
 26 27  1  0  0  0  0
 27 28  2  0  0  0  0
 27 29  1  0  0  0  0
 26 30  1  0  0  0  0
 30 31  1  0  0  0  0
 31 22  1  0  0  0  0
 16 32  2  0  0  0  0
 32 33  1  0  0  0  0
 33 34  1  0  0  0  0
 34 35  1  0  0  0  0
 34 36  2  0  0  0  0
 36 37  1  0  0  0  0
 37 38  2  0  0  0  0
 38 39  1  0  0  0  0
 39 33  2  0  0  0  0
  1 40  1  0  0  0  0
 40 41  1  0  0  0  0
 41 42  2  0  0  0  0
 42 43  1  0  0  0  0
 43 44  2  0  0  0  0
 44 45  1  0  0  0  0
 45 40  2  0  0  0  0
 44 46  1  0  0  0  0
 41 47  1  0  0  0  0
  8 48  1  0  0  0  0
  8 49  1  0  0  0  0
  8 50  1  0  0  0  0
  9 51  1  0  0  0  0
 11 52  1  0  0  0  0
 12 53  1  0  0  0  0
 13 54  1  0  0  0  0
 18 55  1  0  0  0  0
 24 56  1  0  0  0  0
 25 57  1  0  0  0  0
 25 58  1  0  0  0  0
 29 59  1  0  0  0  0
 29 60  1  0  0  0  0
 29 61  1  0  0  0  0
 30 62  1  0  0  0  0
 30 63  1  0  0  0  0
 31 64  1  0  0  0  0
 31 65  1  0  0  0  0
 36 66  1  0  0  0  0
 37 67  1  0  0  0  0
 38 68  1  0  0  0  0
 39 69  1  0  0  0  0
 42 70  1  0  0  0  0
 43 71  1  0  0  0  0
 45 72  1  0  0  0  0
 46 73  1  0  0  0  0
 46 74  1  0  0  0  0
 46 75  1  0  0  0  0
 47 76  1  0  0  0  0
 47 77  1  0  0  0  0
 47 78  1  0  0  0  0
M  END
>  <result-rank>
94

>  <similarity>
0.841

>  <query-name>


>  <query-smiles>
Clc1ccc(cc1)CS(=O)(=O)c2cc3N=C(c4c(N(c3cc2)C)cc5c(c4)C(CCC5(C)C)(C)C)c6ccc(cc6)C([O-])=O

>  <source>
REALspace_2019-12

>  <similarity-descriptor>
0.938;0.890;0.884;0.916;0.976;0.779;0.900;0.900;0.0;0.976;0.0;0.0;0.243;0.0;0.235

>  <similarity-descriptor-smiles>
c1cc(ccc1)C;Nc1ccccc1F;Oc1ccccc1;C1=CC=CS1;C=1CCNCC1;C=NN1C=CSC1;S(=O)=O;S(=O)=O;;C=1CCNCC1;;;C=O;;O.C.C.C

>  <reaction-name>
s_1

>  <reagent1-name>
86402

>  <reagent1-smiles>
[R3*]=NN([R2*])C(S[R1*])=Nc1c(F)cccc1

>  <reagent2-name>
86332

>  <reagent2-smiles>
[R3*]=Cc1cc(OC)c(OS(=O)(=O)c2c(ccc(c2)C)C)cc1

>  <reagent3-name>
7793930

>  <reagent3-smiles>
[R2*]C(C=1SC2=C(C1)CN(C(=O)C)CC2)=C[R1*]

$$$$
s_2____11687950____15108542____9284808
          04022017343D 1   1.00000     0.00000     0
            
 75 81  0  0  0  0            999 V2000
    8.6746    4.8465    6.5666 S   0  0  0  0  0  0  0  0  0  0  0  0
    7.7920    5.6072    7.4126 O   0  0  0  0  0  0  0  0  0  0  0  0
    9.3913    3.8840    7.3627 O   0  0  0  0  0  0  0  0  0  0  0  0
    9.7352    5.8517    5.8444 N   0  0  0  0  0  0  0  0  0  0  0  0
    7.7433    4.0173    5.3535 C   0  0  0  0  0  0  0  0  0  0  0  0
    8.0233    4.2276    4.0074 C   0  0  0  0  0  0  0  0  0  0  0  0
    7.2750    3.5624    3.0423 C   0  0  0  0  0  0  0  0  0  0  0  0
    6.2585    2.6964    3.4312 C   0  0  0  0  0  0  0  0  0  0  0  0
    5.5094    2.0301    2.4537 N   0  0  0  0  0  0  0  0  0  0  0  0
    4.2406    2.1295    2.4468 C   0  0  0  0  0  0  0  0  0  0  0  0
    3.3299    3.5681    2.4036 S   0  0  0  0  0  0  0  0  0  0  0  0
    1.7813    2.8529    2.4247 C   0  0  0  0  0  0  0  0  0  0  0  0
    2.0334    1.5154    2.4653 C   0  0  0  0  0  0  0  0  0  0  0  0
    3.3388    1.1121    2.4746 N   0  0  0  0  0  0  0  0  0  0  0  0
    3.7804   -0.2891    2.5193 C   0  0  0  0  0  0  0  0  0  0  0  0
    4.0572   -0.7784    1.1070 C   0  0  0  0  0  0  0  0  0  0  0  0
    4.5138   -2.2274    1.1532 C   0  0  0  0  0  0  0  0  0  0  0  0
    4.7815   -2.7007   -0.2127 N   0  0  0  0  0  0  0  0  0  0  0  0
    5.9941   -2.6129   -0.8491 C   0  0  0  0  0  0  0  0  0  0  0  0
    5.7785   -3.1506   -2.0962 C   0  0  0  0  0  0  0  0  0  0  0  0
    4.4851   -3.5813   -2.1593 N   0  0  0  0  0  0  0  0  0  0  0  0
    3.8704   -3.3039   -1.0301 C   0  0  0  0  0  0  0  0  0  0  0  0
    6.8483   -3.2373   -3.1769 C   0  0  0  0  0  0  0  0  0  0  0  0
    8.2505   -3.1210   -2.6067 C   0  0  0  0  0  0  0  0  0  0  0  0
    8.2768   -1.8576   -1.7625 C   0  0  0  0  0  0  0  0  0  0  0  0
    7.4037   -2.1136   -0.5418 C   0  0  0  0  0  0  0  0  0  0  0  0
    0.9034    0.6099    2.4960 C   0  0  0  0  0  0  0  0  0  0  0  0
   -0.0191    0.6125    1.4544 C   0  0  0  0  0  0  0  0  0  0  0  0
    0.1171    1.4778    0.3622 N   0  0  0  0  0  0  0  0  0  0  0  0
    0.9615    1.2844   -0.7272 C   0  0  0  0  0  0  0  0  0  0  0  0
    1.7051    0.3301   -0.8826 O   0  0  0  0  0  0  0  0  0  0  0  0
    0.8070    2.3997   -1.6300 C   0  0  0  0  0  0  0  0  0  0  0  0
   -0.1148    3.2394   -1.0622 C   0  0  0  0  0  0  0  0  0  0  0  0
   -0.4091    4.4019   -1.7678 C   0  0  0  0  0  0  0  0  0  0  0  0
    0.2052    4.6842   -2.9825 C   0  0  0  0  0  0  0  0  0  0  0  0
    1.1374    3.8068   -3.5268 C   0  0  0  0  0  0  0  0  0  0  0  0
    1.4512    2.6398   -2.8376 C   0  0  0  0  0  0  0  0  0  0  0  0
   -0.5728    2.6731    0.1843 C   0  0  0  0  0  0  0  0  0  0  0  0
   -1.4052    3.1613    0.9318 O   0  0  0  0  0  0  0  0  0  0  0  0
   -1.1037   -0.2571    1.4839 C   0  0  0  0  0  0  0  0  0  0  0  0
   -1.2669   -1.1298    2.5551 C   0  0  0  0  0  0  0  0  0  0  0  0
   -0.3448   -1.1324    3.5967 C   0  0  0  0  0  0  0  0  0  0  0  0
    0.7399   -0.2621    3.5676 C   0  0  0  0  0  0  0  0  0  0  0  0
    5.9835    2.4907    4.7785 C   0  0  0  0  0  0  0  0  0  0  0  0
    6.7279    3.1530    5.7488 C   0  0  0  0  0  0  0  0  0  0  0  0
   10.3481    5.3235    5.2569 H   0  0  0  0  0  0  0  0  0  0  0  0
    9.2375    6.5201    5.2916 H   0  0  0  0  0  0  0  0  0  0  0  0
    8.7562    4.8515    3.7361 H   0  0  0  0  0  0  0  0  0  0  0  0
    7.4671    3.7063    2.0716 H   0  0  0  0  0  0  0  0  0  0  0  0
    0.8925    3.3109    2.4105 H   0  0  0  0  0  0  0  0  0  0  0  0
    3.0640   -0.8513    2.9324 H   0  0  0  0  0  0  0  0  0  0  0  0
    4.6151   -0.3583    3.0656 H   0  0  0  0  0  0  0  0  0  0  0  0
    4.7735   -0.2162    0.6938 H   0  0  0  0  0  0  0  0  0  0  0  0
    3.2225   -0.7092    0.5607 H   0  0  0  0  0  0  0  0  0  0  0  0
    5.3485   -2.2966    1.6996 H   0  0  0  0  0  0  0  0  0  0  0  0
    3.7974   -2.7897    1.5664 H   0  0  0  0  0  0  0  0  0  0  0  0
    2.9142   -3.4987   -0.8115 H   0  0  0  0  0  0  0  0  0  0  0  0
    6.7047   -2.4958   -3.8323 H   0  0  0  0  0  0  0  0  0  0  0  0
    6.7629   -4.1169   -3.6447 H   0  0  0  0  0  0  0  0  0  0  0  0
    8.9191   -3.0542   -3.3474 H   0  0  0  0  0  0  0  0  0  0  0  0
    8.4592   -3.9182   -2.0402 H   0  0  0  0  0  0  0  0  0  0  0  0
    9.2138   -1.6555   -1.4772 H   0  0  0  0  0  0  0  0  0  0  0  0
    7.9147   -1.0872   -2.2872 H   0  0  0  0  0  0  0  0  0  0  0  0
    7.8585   -2.7994    0.0264 H   0  0  0  0  0  0  0  0  0  0  0  0
    7.3249   -1.2571   -0.0317 H   0  0  0  0  0  0  0  0  0  0  0  0
   -1.0756    5.0468   -1.3939 H   0  0  0  0  0  0  0  0  0  0  0  0
   -0.0252    5.5265   -3.4698 H   0  0  0  0  0  0  0  0  0  0  0  0
    1.5761    4.0121   -4.4017 H   0  0  0  0  0  0  0  0  0  0  0  0
    2.1212    1.9924   -3.2007 H   0  0  0  0  0  0  0  0  0  0  0  0
   -1.7666   -0.2552    0.7352 H   0  0  0  0  0  0  0  0  0  0  0  0
   -2.0469   -1.7551    2.5763 H   0  0  0  0  0  0  0  0  0  0  0  0
   -0.4618   -1.7600    4.3664 H   0  0  0  0  0  0  0  0  0  0  0  0
    1.4021   -0.2632    4.3169 H   0  0  0  0  0  0  0  0  0  0  0  0
    5.2507    1.8668    5.0498 H   0  0  0  0  0  0  0  0  0  0  0  0
    6.5353    3.0094    6.7195 H   0  0  0  0  0  0  0  0  0  0  0  0
  1  2  2  0  0  0  0
  1  3  2  0  0  0  0
  1  4  1  0  0  0  0
  1  5  1  0  0  0  0
  5  6  1  0  0  0  0
  6  7  2  0  0  0  0
  7  8  1  0  0  0  0
  8  9  1  0  0  0  0
  9 10  2  0  0  0  0
 10 11  1  0  0  0  0
 11 12  1  0  0  0  0
 12 13  2  0  0  0  0
 13 14  1  0  0  0  0
 14 10  1  0  0  0  0
 14 15  1  0  0  0  0
 15 16  1  0  0  0  0
 16 17  1  0  0  0  0
 17 18  1  0  0  0  0
 18 19  1  0  0  0  0
 19 20  2  0  0  0  0
 20 21  1  0  0  0  0
 21 22  2  0  0  0  0
 22 18  1  0  0  0  0
 20 23  1  0  0  0  0
 23 24  1  0  0  0  0
 24 25  1  0  0  0  0
 25 26  1  0  0  0  0
 26 19  1  0  0  0  0
 13 27  1  0  0  0  0
 27 28  1  0  0  0  0
 28 29  1  0  0  0  0
 29 30  1  0  0  0  0
 30 31  2  0  0  0  0
 30 32  1  0  0  0  0
 32 33  1  0  0  0  0
 33 34  2  0  0  0  0
 34 35  1  0  0  0  0
 35 36  2  0  0  0  0
 36 37  1  0  0  0  0
 37 32  2  0  0  0  0
 33 38  1  0  0  0  0
 38 29  1  0  0  0  0
 38 39  2  0  0  0  0
 28 40  2  0  0  0  0
 40 41  1  0  0  0  0
 41 42  2  0  0  0  0
 42 43  1  0  0  0  0
 43 27  2  0  0  0  0
  8 44  2  0  0  0  0
 44 45  1  0  0  0  0
 45  5  2  0  0  0  0
  4 46  1  0  0  0  0
  4 47  1  0  0  0  0
  6 48  1  0  0  0  0
  7 49  1  0  0  0  0
 12 50  1  0  0  0  0
 15 51  1  0  0  0  0
 15 52  1  0  0  0  0
 16 53  1  0  0  0  0
 16 54  1  0  0  0  0
 17 55  1  0  0  0  0
 17 56  1  0  0  0  0
 22 57  1  0  0  0  0
 23 58  1  0  0  0  0
 23 59  1  0  0  0  0
 24 60  1  0  0  0  0
 24 61  1  0  0  0  0
 25 62  1  0  0  0  0
 25 63  1  0  0  0  0
 26 64  1  0  0  0  0
 26 65  1  0  0  0  0
 34 66  1  0  0  0  0
 35 67  1  0  0  0  0
 36 68  1  0  0  0  0
 37 69  1  0  0  0  0
 40 70  1  0  0  0  0
 41 71  1  0  0  0  0
 42 72  1  0  0  0  0
 43 73  1  0  0  0  0
 44 74  1  0  0  0  0
 45 75  1  0  0  0  0
M  END
>  <result-rank>
95

>  <similarity>
0.841

>  <query-name>


>  <query-smiles>
Clc1ccc(cc1)CS(=O)(=O)c2cc3N=C(c4c(N(c3cc2)C)cc5c(c4)C(CCC5(C)C)(C)C)c6ccc(cc6)C([O-])=O

>  <source>
REALspace_2019-12

>  <similarity-descriptor>
0.951;0.998;0.938;0.572;0.962;0.768;0.705;0.705;0.0;0.962;0.962;0.0;0.0;0.909;0.077

>  <similarity-descriptor-smiles>
c1ccccc1;c1ccccc1;c1ccccc1;CCCN1C=NC=C1;C=1CCCCC1;N=C1NC=CS1;N1C(ccC1=O)=O;N1C(ccC1=O)=O;;C=1CCCCC1;C=1CCCCC1;;;S(=O)=O;N

>  <reaction-name>
s_2

>  <reagent1-name>
11687950

>  <reagent1-smiles>
[R1*]SC([R3*])=Nc1ccc(S(=O)(=O)N)cc1

>  <reagent2-name>
15108542

>  <reagent2-smiles>
[R2*]N([R3*])CCCN1C2=C(N=C1)CCCC2

>  <reagent3-name>
9284808

>  <reagent3-smiles>
[R2*]C(c1c(N2C(=O)c3c(cccc3)C2=O)cccc1)=C[R1*]

$$$$
s_1____3000760____14589724____9967402
          04022017343D 1   1.00000     0.00000     0
            
 76 80  0  0  0  0            999 V2000
    8.4241   -0.3255   -2.5718 S   0  0  0  0  0  0  0  0  0  0  0  0
    8.8866   -1.4473   -3.3472 O   0  0  0  0  0  0  0  0  0  0  0  0
    7.7151    0.5900   -3.4278 O   0  0  0  0  0  0  0  0  0  0  0  0
    7.3595   -0.8880   -1.3159 C   0  0  0  0  0  0  0  0  0  0  0  0
    6.3364   -0.0630   -0.8609 C   0  0  0  0  0  0  0  0  0  0  0  0
    5.4930   -0.5256    0.1441 C   0  0  0  0  0  0  0  0  0  0  0  0
    5.6632   -1.7928    0.6923 C   0  0  0  0  0  0  0  0  0  0  0  0
    6.6923   -2.6024    0.2229 C   0  0  0  0  0  0  0  0  0  0  0  0
    7.5464   -2.1590   -0.7816 C   0  0  0  0  0  0  0  0  0  0  0  0
    4.4314    0.3272    0.6179 C   0  0  0  0  0  0  0  0  0  0  0  0
    3.0944    0.0541    0.4763 N   0  0  0  0  0  0  0  0  0  0  0  0
    2.5988   -1.0465   -0.1270 N   0  0  0  0  0  0  0  0  0  0  0  0
    2.4951   -1.0837   -1.3721 C   0  0  0  0  0  0  0  0  0  0  0  0
    1.9640   -2.2631   -2.0185 C   0  0  0  0  0  0  0  0  0  0  0  0
    1.5775   -3.3388   -1.2282 C   0  0  0  0  0  0  0  0  0  0  0  0
    1.0619   -4.4649   -1.8563 C   0  0  0  0  0  0  0  0  0  0  0  0
    0.9574   -4.4885   -3.2285 C   0  0  0  0  0  0  0  0  0  0  0  0
    1.3470   -3.4132   -4.0209 C   0  0  0  0  0  0  0  0  0  0  0  0
    1.8581   -2.2778   -3.4042 C   0  0  0  0  0  0  0  0  0  0  0  0
    0.3767   -5.8334   -3.6179 C   0  0  0  0  0  0  0  0  0  0  0  0
   -0.3917   -6.1920   -2.3668 C   0  0  0  0  0  0  0  0  0  0  0  0
    0.5624   -5.7685   -1.2758 C   0  0  0  0  0  0  0  0  0  0  0  0
   -0.5314   -5.7545   -4.8338 C   0  0  0  0  0  0  0  0  0  0  0  0
    1.4669   -6.8506   -3.9195 C   0  0  0  0  0  0  0  0  0  0  0  0
    2.2690    1.0000    1.0000 C   0  0  0  0  0  0  0  0  0  0  0  0
    3.2928    2.1936    1.6560 S   0  0  0  0  0  0  0  0  0  0  0  0
    4.7831    1.4801    1.2480 C   0  0  0  0  0  0  0  0  0  0  0  0
    1.0000    1.0000    1.0000 N   0  0  0  0  0  0  0  0  0  0  0  0
    0.2997    2.1987    1.1855 C   0  0  0  0  0  0  0  0  0  0  0  0
   -1.0290    2.1718    1.5984 C   0  0  0  0  0  0  0  0  0  0  0  0
   -1.6338    0.9853    1.8173 O   0  0  0  0  0  0  0  0  0  0  0  0
   -3.0373    0.9316    2.0257 C   0  0  0  0  0  0  0  0  0  0  0  0
   -3.4618   -0.5111    2.2471 C   0  0  0  0  0  0  0  0  0  0  0  0
   -1.7341    3.3564    1.7859 C   0  0  0  0  0  0  0  0  0  0  0  0
   -1.0944    4.5700    1.5551 C   0  0  0  0  0  0  0  0  0  0  0  0
    0.2341    4.5891    1.1423 C   0  0  0  0  0  0  0  0  0  0  0  0
    0.8447    5.7728    0.9223 O   0  0  0  0  0  0  0  0  0  0  0  0
    0.0831    6.9711    0.8996 C   0  0  0  0  0  0  0  0  0  0  0  0
    1.0036    8.1515    0.6351 C   0  0  0  0  0  0  0  0  0  0  0  0
    0.9445    3.4086    0.9539 C   0  0  0  0  0  0  0  0  0  0  0  0
    9.8417    0.5190   -1.8278 C   0  0  0  0  0  0  0  0  0  0  0  0
    6.2090    0.8492   -1.2504 H   0  0  0  0  0  0  0  0  0  0  0  0
    5.0531   -2.1177    1.4149 H   0  0  0  0  0  0  0  0  0  0  0  0
    6.8198   -3.5145    0.6124 H   0  0  0  0  0  0  0  0  0  0  0  0
    8.2844   -2.7456   -1.1151 H   0  0  0  0  0  0  0  0  0  0  0  0
    2.7794   -0.2978   -1.9212 H   0  0  0  0  0  0  0  0  0  0  0  0
    1.6684   -3.3030   -0.2330 H   0  0  0  0  0  0  0  0  0  0  0  0
    1.2607   -3.4567   -5.0162 H   0  0  0  0  0  0  0  0  0  0  0  0
    2.1439   -1.4875   -3.9462 H   0  0  0  0  0  0  0  0  0  0  0  0
   -0.5785   -7.1735   -2.3245 H   0  0  0  0  0  0  0  0  0  0  0  0
   -1.2527   -5.6862   -2.3123 H   0  0  0  0  0  0  0  0  0  0  0  0
    0.0920   -5.6306   -0.4042 H   0  0  0  0  0  0  0  0  0  0  0  0
    1.3035   -6.4287   -1.1539 H   0  0  0  0  0  0  0  0  0  0  0  0
   -0.8851   -6.6656   -5.0454 H   0  0  0  0  0  0  0  0  0  0  0  0
   -1.2942   -5.1374   -4.6406 H   0  0  0  0  0  0  0  0  0  0  0  0
   -0.0125   -5.4084   -5.6155 H   0  0  0  0  0  0  0  0  0  0  0  0
    1.0482   -7.7230   -4.1719 H   0  0  0  0  0  0  0  0  0  0  0  0
    2.0310   -6.5202   -4.6762 H   0  0  0  0  0  0  0  0  0  0  0  0
    2.0381   -6.9773   -3.1085 H   0  0  0  0  0  0  0  0  0  0  0  0
    5.7031    1.8276    1.4293 H   0  0  0  0  0  0  0  0  0  0  0  0
   -3.5078    1.2980    1.2230 H   0  0  0  0  0  0  0  0  0  0  0  0
   -3.2761    1.4764    2.8296 H   0  0  0  0  0  0  0  0  0  0  0  0
   -4.4503   -0.5489    2.3939 H   0  0  0  0  0  0  0  0  0  0  0  0
   -3.2231   -1.0559    1.4432 H   0  0  0  0  0  0  0  0  0  0  0  0
   -2.9913   -0.8775    3.0498 H   0  0  0  0  0  0  0  0  0  0  0  0
   -2.6887    3.3358    2.0829 H   0  0  0  0  0  0  0  0  0  0  0  0
   -1.5897    5.4288    1.6859 H   0  0  0  0  0  0  0  0  0  0  0  0
   -0.3714    7.0940    1.7818 H   0  0  0  0  0  0  0  0  0  0  0  0
   -0.6042    6.9156    0.1754 H   0  0  0  0  0  0  0  0  0  0  0  0
    0.4673    8.9953    0.6191 H   0  0  0  0  0  0  0  0  0  0  0  0
    1.6909    8.2070    1.3593 H   0  0  0  0  0  0  0  0  0  0  0  0
    1.4581    8.0286   -0.2472 H   0  0  0  0  0  0  0  0  0  0  0  0
    1.8995    3.4294    0.6580 H   0  0  0  0  0  0  0  0  0  0  0  0
    9.5205    1.2980   -1.2893 H   0  0  0  0  0  0  0  0  0  0  0  0
   10.3340   -0.1168   -1.2334 H   0  0  0  0  0  0  0  0  0  0  0  0
   10.4536    0.8423   -2.5496 H   0  0  0  0  0  0  0  0  0  0  0  0
  1  2  2  0  0  0  0
  1  3  2  0  0  0  0
  1  4  1  0  0  0  0
  4  5  1  0  0  0  0
  5  6  2  0  0  0  0
  6  7  1  0  0  0  0
  7  8  2  0  0  0  0
  8  9  1  0  0  0  0
  9  4  2  0  0  0  0
  6 10  1  0  0  0  0
 10 11  1  0  0  0  0
 11 12  1  0  0  0  0
 12 13  2  0  0  0  0
 13 14  1  0  0  0  0
 14 15  1  0  0  0  0
 15 16  2  0  0  0  0
 16 17  1  0  0  0  0
 17 18  2  0  0  0  0
 18 19  1  0  0  0  0
 19 14  2  0  0  0  0
 17 20  1  0  0  0  0
 20 21  1  0  0  0  0
 21 22  1  0  0  0  0
 22 16  1  0  0  0  0
 20 23  1  0  0  0  0
 20 24  1  0  0  0  0
 11 25  1  0  0  0  0
 25 26  1  0  0  0  0
 26 27  1  0  0  0  0
 10 27  2  0  0  0  0
 25 28  2  0  0  0  0
 28 29  1  0  0  0  0
 29 30  1  0  0  0  0
 30 31  1  0  0  0  0
 31 32  1  0  0  0  0
 32 33  1  0  0  0  0
 30 34  2  0  0  0  0
 34 35  1  0  0  0  0
 35 36  2  0  0  0  0
 36 37  1  0  0  0  0
 37 38  1  0  0  0  0
 38 39  1  0  0  0  0
 36 40  1  0  0  0  0
 40 29  2  0  0  0  0
  1 41  1  0  0  0  0
  5 42  1  0  0  0  0
  7 43  1  0  0  0  0
  8 44  1  0  0  0  0
  9 45  1  0  0  0  0
 13 46  1  0  0  0  0
 15 47  1  0  0  0  0
 18 48  1  0  0  0  0
 19 49  1  0  0  0  0
 21 50  1  0  0  0  0
 21 51  1  0  0  0  0
 22 52  1  0  0  0  0
 22 53  1  0  0  0  0
 23 54  1  0  0  0  0
 23 55  1  0  0  0  0
 23 56  1  0  0  0  0
 24 57  1  0  0  0  0
 24 58  1  0  0  0  0
 24 59  1  0  0  0  0
 27 60  1  0  0  0  0
 32 61  1  0  0  0  0
 32 62  1  0  0  0  0
 33 63  1  0  0  0  0
 33 64  1  0  0  0  0
 33 65  1  0  0  0  0
 34 66  1  0  0  0  0
 35 67  1  0  0  0  0
 38 68  1  0  0  0  0
 38 69  1  0  0  0  0
 39 70  1  0  0  0  0
 39 71  1  0  0  0  0
 39 72  1  0  0  0  0
 40 73  1  0  0  0  0
 41 74  1  0  0  0  0
 41 75  1  0  0  0  0
 41 76  1  0  0  0  0
M  END
>  <result-rank>
96

>  <similarity>
0.841

>  <query-name>


>  <query-smiles>
Clc1ccc(cc1)CS(=O)(=O)c2cc3N=C(c4c(N(c3cc2)C)cc5c(c4)C(CCC5(C)C)(C)C)c6ccc(cc6)C([O-])=O

>  <source>
REALspace_2019-12

>  <similarity-descriptor>
0.0;0.999;0.881;0.926;0.986;0.779;0.951;0.545;0.0;0.0;0.0;1.000;1.000;0.913;0.222

>  <similarity-descriptor-smiles>
;c1ccccc1;Nc1ccccc1;c1ccccc1;c1CCCc1;C1=CSCN1N=C;C;OC;;;;C;C;S(=O)=O;O.C.C.C

>  <reaction-name>
s_1

>  <reagent1-name>
3000760

>  <reagent1-smiles>
[R3*]=NN([R2*])C(S[R1*])=Nc1c(OCC)ccc(OCC)c1

>  <reagent2-name>
14589724

>  <reagent2-smiles>
[R3*]=Cc1cc2c(cc1)C(CC2)(C)C

>  <reagent3-name>
9967402

>  <reagent3-smiles>
[R2*]C(c1cc(S(=O)(=O)C)ccc1)=C[R1*]

$$$$
s_270196____8770000____8781396
          04022017343D 1   1.00000     0.00000     0
            
 63 67  0  0  0  0            999 V2000
   -2.9216    1.5635    2.5540 F   0  0  0  0  0  0  0  0  0  0  0  0
   -2.9381    2.8934    2.5596 C   0  0  0  0  0  0  0  0  0  0  0  0
   -1.7418    3.6046    2.5502 C   0  0  0  0  0  0  0  0  0  0  0  0
   -1.7593    4.9949    2.5564 C   0  0  0  0  0  0  0  0  0  0  0  0
   -2.9725    5.6751    2.5703 C   0  0  0  0  0  0  0  0  0  0  0  0
   -4.1685    4.9643    2.5796 C   0  0  0  0  0  0  0  0  0  0  0  0
   -4.1511    3.5737    2.5737 C   0  0  0  0  0  0  0  0  0  0  0  0
   -0.4768    2.8955    2.5349 C   0  0  0  0  0  0  0  0  0  0  0  0
   -0.4616    1.6956    2.5303 O   0  0  0  0  0  0  0  0  0  0  0  0
    0.7008    3.5955    2.5256 N   0  0  0  0  0  0  0  0  0  0  0  0
    1.9830    2.8768    2.5101 C   0  0  0  0  0  0  0  0  0  0  0  0
    3.1728    3.5972    2.5008 C   0  0  0  0  0  0  0  0  0  0  0  0
    4.3800    2.9062    2.4867 C   0  0  0  0  0  0  0  0  0  0  0  0
    4.4072    1.5158    2.4809 C   0  0  0  0  0  0  0  0  0  0  0  0
    3.2053    0.8159    2.4905 C   0  0  0  0  0  0  0  0  0  0  0  0
    1.9867    1.4860    2.5051 C   0  0  0  0  0  0  0  0  0  0  0  0
    5.6233    3.6529    2.4786 C   0  0  0  0  0  0  0  0  0  0  0  0
    6.8334    3.1452    2.4653 N   0  0  0  0  0  0  0  0  0  0  0  0
    7.6726    4.0952    2.4590 O   0  0  0  0  0  0  0  0  0  0  0  0
    7.0370    5.2416    2.4694 C   0  0  0  0  0  0  0  0  0  0  0  0
    5.7496    5.0058    2.4805 N   0  0  0  0  0  0  0  0  0  0  0  0
    7.6564    6.5516    2.4676 C   0  0  0  0  0  0  0  0  0  0  0  0
    6.8800    7.7033    2.4795 C   0  0  0  0  0  0  0  0  0  0  0  0
    7.4462    8.9784    2.4989 C   0  0  0  0  0  0  0  0  0  0  0  0
    8.8380    9.0761    2.5198 C   0  0  0  0  0  0  0  0  0  0  0  0
    9.6070    7.9133    2.5002 C   0  0  0  0  0  0  0  0  0  0  0  0
    9.0438    6.6421    2.4633 C   0  0  0  0  0  0  0  0  0  0  0  0
    9.5598   10.4224    2.5759 C   0  0  0  0  0  0  0  0  0  0  0  0
    8.6529   11.5773    2.1770 C   0  0  0  0  0  0  0  0  0  0  0  0
    7.2982   11.4809    2.8652 C   0  0  0  0  0  0  0  0  0  0  0  0
    6.5520   10.2128    2.4759 C   0  0  0  0  0  0  0  0  0  0  0  0
    5.2920   10.0404    3.3082 C   0  0  0  0  0  0  0  0  0  0  0  0
    6.1198   10.4324    1.0353 C   0  0  0  0  0  0  0  0  0  0  0  0
   10.8463   10.4432    1.7667 C   0  0  0  0  0  0  0  0  0  0  0  0
    9.9465   10.6690    4.0251 C   0  0  0  0  0  0  0  0  0  0  0  0
   -0.8996    5.5058    2.5508 H   0  0  0  0  0  0  0  0  0  0  0  0
   -2.9851    6.6750    2.5737 H   0  0  0  0  0  0  0  0  0  0  0  0
   -5.0407    5.4533    2.5904 H   0  0  0  0  0  0  0  0  0  0  0  0
   -5.0108    3.0629    2.5797 H   0  0  0  0  0  0  0  0  0  0  0  0
    0.6881    4.5954    2.5294 H   0  0  0  0  0  0  0  0  0  0  0  0
    3.1605    4.5971    2.5042 H   0  0  0  0  0  0  0  0  0  0  0  0
    5.2790    1.0260    2.4700 H   0  0  0  0  0  0  0  0  0  0  0  0
    3.2176   -0.1840    2.4868 H   0  0  0  0  0  0  0  0  0  0  0  0
    1.1266    0.9758    2.5119 H   0  0  0  0  0  0  0  0  0  0  0  0
    5.8838    7.6158    2.4739 H   0  0  0  0  0  0  0  0  0  0  0  0
   10.6034    7.9966    2.5131 H   0  0  0  0  0  0  0  0  0  0  0  0
    9.6162    5.8227    2.4347 H   0  0  0  0  0  0  0  0  0  0  0  0
    8.5170   11.5575    1.1865 H   0  0  0  0  0  0  0  0  0  0  0  0
    9.0893   12.4388    2.4365 H   0  0  0  0  0  0  0  0  0  0  0  0
    7.4379   11.4825    3.8554 H   0  0  0  0  0  0  0  0  0  0  0  0
    6.7464   12.2733    2.6051 H   0  0  0  0  0  0  0  0  0  0  0  0
    4.7433   10.8750    3.2592 H   0  0  0  0  0  0  0  0  0  0  0  0
    4.7608    9.2710    2.9535 H   0  0  0  0  0  0  0  0  0  0  0  0
    5.5428    9.8617    4.2597 H   0  0  0  0  0  0  0  0  0  0  0  0
    5.5294   11.2378    0.9835 H   0  0  0  0  0  0  0  0  0  0  0  0
    6.9274   10.5737    0.4628 H   0  0  0  0  0  0  0  0  0  0  0  0
    5.6182    9.6300    0.7118 H   0  0  0  0  0  0  0  0  0  0  0  0
   11.2722   11.3449    1.8408 H   0  0  0  0  0  0  0  0  0  0  0  0
   11.4731    9.7484    2.1193 H   0  0  0  0  0  0  0  0  0  0  0  0
   10.6398   10.2499    0.8075 H   0  0  0  0  0  0  0  0  0  0  0  0
   10.4228   11.5452    4.0986 H   0  0  0  0  0  0  0  0  0  0  0  0
    9.1224   10.6890    4.5912 H   0  0  0  0  0  0  0  0  0  0  0  0
   10.5487    9.9349    4.3389 H   0  0  0  0  0  0  0  0  0  0  0  0
  1  2  1  0  0  0  0
  2  3  1  0  0  0  0
  3  4  2  0  0  0  0
  4  5  1  0  0  0  0
  5  6  2  0  0  0  0
  6  7  1  0  0  0  0
  7  2  2  0  0  0  0
  3  8  1  0  0  0  0
  8  9  2  0  0  0  0
  8 10  1  0  0  0  0
 10 11  1  0  0  0  0
 11 12  1  0  0  0  0
 12 13  2  0  0  0  0
 13 14  1  0  0  0  0
 14 15  2  0  0  0  0
 15 16  1  0  0  0  0
 16 11  2  0  0  0  0
 13 17  1  0  0  0  0
 17 18  2  0  0  0  0
 18 19  1  0  0  0  0
 19 20  1  0  0  0  0
 20 21  2  0  0  0  0
 21 17  1  0  0  0  0
 20 22  1  0  0  0  0
 22 23  1  0  0  0  0
 23 24  2  0  0  0  0
 24 25  1  0  0  0  0
 25 26  2  0  0  0  0
 26 27  1  0  0  0  0
 27 22  2  0  0  0  0
 25 28  1  0  0  0  0
 28 29  1  0  0  0  0
 29 30  1  0  0  0  0
 30 31  1  0  0  0  0
 31 24  1  0  0  0  0
 31 32  1  0  0  0  0
 31 33  1  0  0  0  0
 28 34  1  0  0  0  0
 28 35  1  0  0  0  0
  4 36  1  0  0  0  0
  5 37  1  0  0  0  0
  6 38  1  0  0  0  0
  7 39  1  0  0  0  0
 10 40  1  0  0  0  0
 12 41  1  0  0  0  0
 14 42  1  0  0  0  0
 15 43  1  0  0  0  0
 16 44  1  0  0  0  0
 23 45  1  0  0  0  0
 26 46  1  0  0  0  0
 27 47  1  0  0  0  0
 29 48  1  0  0  0  0
 29 49  1  0  0  0  0
 30 50  1  0  0  0  0
 30 51  1  0  0  0  0
 32 52  1  0  0  0  0
 32 53  1  0  0  0  0
 32 54  1  0  0  0  0
 33 55  1  0  0  0  0
 33 56  1  0  0  0  0
 33 57  1  0  0  0  0
 34 58  1  0  0  0  0
 34 59  1  0  0  0  0
 34 60  1  0  0  0  0
 35 61  1  0  0  0  0
 35 62  1  0  0  0  0
 35 63  1  0  0  0  0
M  END
>  <result-rank>
97

>  <similarity>
0.841

>  <query-name>


>  <query-smiles>
Clc1ccc(cc1)CS(=O)(=O)c2cc3N=C(c4c(N(c3cc2)C)cc5c(c4)C(CCC5(C)C)(C)C)c6ccc(cc6)C([O-])=O

>  <source>
REALspace_2019-12

>  <similarity-descriptor>
0.928;0.0;0.938;0.926;1.000;0.620;0.928;0.626;0.0;1.000;1.000;1.000;1.000;0.0;0.0

>  <similarity-descriptor-smiles>
Fc1ccccc1;;c1ccccc1;c1ccccc1;c1CCCCc1;C=1N=CON1;Fc1ccccc1;C(=O)N;;C;C;C;C;;

>  <reaction-name>
s_270196

>  <reagent1-name>
8770000

>  <reagent1-smiles>
[R1*]=NC(=NO[R2*])c1cc(NC(=O)c2c(F)cccc2)ccc1

>  <reagent2-name>
8781396

>  <reagent2-smiles>
[R1*]C([R2*])c1cc2c(cc1)C(CCC2(C)C)(C)C

$$$$
s_60____90615____11946250
          04022017343D 1   1.00000     0.00000     0
            
 64 68  0  0  0  0            999 V2000
    5.9860   -0.2205   -1.3277 F   0  0  0  0  0  0  0  0  0  0  0  0
    5.3678   -0.3576   -0.1572 C   0  0  0  0  0  0  0  0  0  0  0  0
    5.4830   -1.5472    0.5553 C   0  0  0  0  0  0  0  0  0  0  0  0
    4.8365   -1.6912    1.7785 C   0  0  0  0  0  0  0  0  0  0  0  0
    4.0740   -0.6461    2.2897 C   0  0  0  0  0  0  0  0  0  0  0  0
    3.9640    0.5401    1.5714 C   0  0  0  0  0  0  0  0  0  0  0  0
    4.6071    0.6923    0.3477 C   0  0  0  0  0  0  0  0  0  0  0  0
    3.1708    1.6354    2.0965 C   0  0  0  0  0  0  0  0  0  0  0  0
    3.6091    2.5840    2.8914 N   0  0  0  0  0  0  0  0  0  0  0  0
    2.5721    3.4285    3.1689 C   0  0  0  0  0  0  0  0  0  0  0  0
    2.5220    4.5556    3.9486 N   0  0  0  0  0  0  0  0  0  0  0  0
    1.3524    5.2577    4.0936 C   0  0  0  0  0  0  0  0  0  0  0  0
    1.2866    6.2627    4.7831 O   0  0  0  0  0  0  0  0  0  0  0  0
    0.2221    4.8259    3.4503 N   0  0  0  0  0  0  0  0  0  0  0  0
    0.2625    3.7026    2.6703 C   0  0  0  0  0  0  0  0  0  0  0  0
   -0.7729    3.3618    2.1234 O   0  0  0  0  0  0  0  0  0  0  0  0
    1.4758    2.9752    2.5196 C   0  0  0  0  0  0  0  0  0  0  0  0
    1.8494    1.8494    1.8494 N   0  0  0  0  0  0  0  0  0  0  0  0
    1.0000    1.0000    1.0000 C   0  0  0  0  0  0  0  0  0  0  0  0
    0.6465    1.7499   -0.2740 C   0  0  0  0  0  0  0  0  0  0  0  0
   -0.2307    0.8727   -1.1512 C   0  0  0  0  0  0  0  0  0  0  0  0
   -1.6122    0.9298   -1.0048 C   0  0  0  0  0  0  0  0  0  0  0  0
   -2.4062    0.1233   -1.8131 C   0  0  0  0  0  0  0  0  0  0  0  0
   -3.7494    0.1668   -1.6843 O   0  0  0  0  0  0  0  0  0  0  0  0
   -4.3432    1.0318   -0.7275 C   0  0  0  0  0  0  0  0  0  0  0  0
   -1.8238   -0.7239   -2.7502 C   0  0  0  0  0  0  0  0  0  0  0  0
   -2.6112   -1.4992   -3.5267 O   0  0  0  0  0  0  0  0  0  0  0  0
   -2.0273   -2.3677   -4.4866 C   0  0  0  0  0  0  0  0  0  0  0  0
   -0.4404   -0.7782   -2.8938 C   0  0  0  0  0  0  0  0  0  0  0  0
    0.3569    0.0280   -2.0862 C   0  0  0  0  0  0  0  0  0  0  0  0
    3.7230    5.0345    4.6490 C   0  0  0  0  0  0  0  0  0  0  0  0
    4.0545    4.0879    5.7916 C   0  0  0  0  0  0  0  0  0  0  0  0
    3.5110    4.3124    7.0522 C   0  0  0  0  0  0  0  0  0  0  0  0
    3.8176    3.4444    8.0951 C   0  0  0  0  0  0  0  0  0  0  0  0
    4.6608    2.3607    7.8729 C   0  0  0  0  0  0  0  0  0  0  0  0
    5.1975    2.1460    6.6094 C   0  0  0  0  0  0  0  0  0  0  0  0
    4.8992    3.0072    5.5586 C   0  0  0  0  0  0  0  0  0  0  0  0
    6.2743   -2.6472    0.0415 C   0  0  0  0  0  0  0  0  0  0  0  0
    7.4680   -2.6768    0.2368 O   0  5  0  0  0  0  0  0  0  0  0  0
    5.7236   -3.5655   -0.6035 O   0  0  0  0  0  0  0  0  0  0  0  0
    4.9199   -2.5461    2.2905 H   0  0  0  0  0  0  0  0  0  0  0  0
    3.6077   -0.7468    3.1686 H   0  0  0  0  0  0  0  0  0  0  0  0
    4.5236    1.5474   -0.1640 H   0  0  0  0  0  0  0  0  0  0  0  0
   -0.6340    5.3329    3.5512 H   0  0  0  0  0  0  0  0  0  0  0  0
    0.1618    0.7675    1.4934 H   0  0  0  0  0  0  0  0  0  0  0  0
    1.4934    0.1618    0.7675 H   0  0  0  0  0  0  0  0  0  0  0  0
    0.1532    2.5881   -0.0415 H   0  0  0  0  0  0  0  0  0  0  0  0
    1.4847    1.9825   -0.7674 H   0  0  0  0  0  0  0  0  0  0  0  0
   -2.0275    1.5400   -0.3302 H   0  0  0  0  0  0  0  0  0  0  0  0
   -5.3381    0.9383   -0.7658 H   0  0  0  0  0  0  0  0  0  0  0  0
   -4.0206    0.7887    0.1873 H   0  0  0  0  0  0  0  0  0  0  0  0
   -4.0892    1.9775   -0.9301 H   0  0  0  0  0  0  0  0  0  0  0  0
   -2.7488   -2.8636   -4.9699 H   0  0  0  0  0  0  0  0  0  0  0  0
   -1.4953   -1.8311   -5.1416 H   0  0  0  0  0  0  0  0  0  0  0  0
   -1.4267   -3.0200   -4.0242 H   0  0  0  0  0  0  0  0  0  0  0  0
   -0.0246   -1.3883   -3.5682 H   0  0  0  0  0  0  0  0  0  0  0  0
    1.3522   -0.0004   -2.1785 H   0  0  0  0  0  0  0  0  0  0  0  0
    3.5536    5.9502    5.0133 H   0  0  0  0  0  0  0  0  0  0  0  0
    4.4911    5.0669    4.0096 H   0  0  0  0  0  0  0  0  0  0  0  0
    2.9044    5.0921    7.2076 H   0  0  0  0  0  0  0  0  0  0  0  0
    3.4317    3.5994    9.0045 H   0  0  0  0  0  0  0  0  0  0  0  0
    4.8807    1.7363    8.6224 H   0  0  0  0  0  0  0  0  0  0  0  0
    5.8034    1.3657    6.4542 H   0  0  0  0  0  0  0  0  0  0  0  0
    5.2858    2.8518    4.6495 H   0  0  0  0  0  0  0  0  0  0  0  0
  1  2  1  0  0  0  0
  2  3  1  0  0  0  0
  3  4  2  0  0  0  0
  4  5  1  0  0  0  0
  5  6  2  0  0  0  0
  6  7  1  0  0  0  0
  7  2  2  0  0  0  0
  6  8  1  0  0  0  0
  8  9  2  0  0  0  0
  9 10  1  0  0  0  0
 10 11  1  0  0  0  0
 11 12  1  0  0  0  0
 12 13  2  0  0  0  0
 12 14  1  0  0  0  0
 14 15  1  0  0  0  0
 15 16  2  0  0  0  0
 15 17  1  0  0  0  0
 10 17  2  0  0  0  0
 17 18  1  0  0  0  0
 18  8  1  0  0  0  0
 18 19  1  0  0  0  0
 19 20  1  0  0  0  0
 20 21  1  0  0  0  0
 21 22  1  0  0  0  0
 22 23  2  0  0  0  0
 23 24  1  0  0  0  0
 24 25  1  0  0  0  0
 23 26  1  0  0  0  0
 26 27  1  0  0  0  0
 27 28  1  0  0  0  0
 26 29  2  0  0  0  0
 29 30  1  0  0  0  0
 30 21  2  0  0  0  0
 11 31  1  0  0  0  0
 31 32  1  0  0  0  0
 32 33  1  0  0  0  0
 33 34  2  0  0  0  0
 34 35  1  0  0  0  0
 35 36  2  0  0  0  0
 36 37  1  0  0  0  0
 37 32  2  0  0  0  0
  3 38  1  0  0  0  0
 38 39  1  0  0  0  0
 38 40  2  0  0  0  0
  4 41  1  0  0  0  0
  5 42  1  0  0  0  0
  7 43  1  0  0  0  0
 14 44  1  0  0  0  0
 19 45  1  0  0  0  0
 19 46  1  0  0  0  0
 20 47  1  0  0  0  0
 20 48  1  0  0  0  0
 22 49  1  0  0  0  0
 25 50  1  0  0  0  0
 25 51  1  0  0  0  0
 25 52  1  0  0  0  0
 28 53  1  0  0  0  0
 28 54  1  0  0  0  0
 28 55  1  0  0  0  0
 29 56  1  0  0  0  0
 30 57  1  0  0  0  0
 31 58  1  0  0  0  0
 31 59  1  0  0  0  0
 33 60  1  0  0  0  0
 34 61  1  0  0  0  0
 35 62  1  0  0  0  0
 36 63  1  0  0  0  0
 37 64  1  0  0  0  0
M  CHG  1  39  -1
M  END
>  <result-rank>
98

>  <similarity>
0.840

>  <query-name>


>  <query-smiles>
Clc1ccc(cc1)CS(=O)(=O)c2cc3N=C(c4c(N(c3cc2)C)cc5c(c4)C(CCC5(C)C)(C)C)c6ccc(cc6)C([O-])=O

>  <source>
REALspace_2019-12

>  <similarity-descriptor>
0.952;0.964;0.850;0.839;0.0;0.748;0.996;0.850;0.0;0.0;0.0;0.0;0.0;1.000;0.308

>  <similarity-descriptor-smiles>
c1ccccc1;Fc1ccccc1;C1=CC(NC(N1)=O)=O;Cc1ccccc1;;C=1N(C=CN1)C;C;C1=CC(NC(N1)=O)=O;;;;;;C([O-])=O;O.C.O.C

>  <reaction-name>
s_60

>  <reagent1-name>
90615

>  <reagent1-smiles>
[R1*]C1=NC=2N(C(=O)NC(=O)C2N1CCc3cc(OC)c(OC)cc3)Cc4ccccc4

>  <reagent2-name>
11946250

>  <reagent2-smiles>
[R1*]c1cc(F)c(cc1)C(=O)O

$$$$
s_4____66625____67310
          04022017343D 1   1.00000     0.00000     0
            
 74 78  0  0  0  0            999 V2000
    8.8345    0.9998   -0.1423 S   0  0  0  0  0  0  0  0  0  0  0  0
    9.3062    0.3209    1.0368 O   0  0  0  0  0  0  0  0  0  0  0  0
    9.3228    0.3212   -1.3147 O   0  0  0  0  0  0  0  0  0  0  0  0
    9.3777    2.5366   -0.1383 N   0  0  0  0  0  0  0  0  0  0  0  0
    9.8011    3.1264    1.0590 C   0  0  0  0  0  0  0  0  0  0  0  0
    8.8854    3.8128    1.8501 C   0  0  0  0  0  0  0  0  0  0  0  0
    9.3097    4.3971    3.0389 C   0  0  0  0  0  0  0  0  0  0  0  0
   10.6407    4.2930    3.4287 C   0  0  0  0  0  0  0  0  0  0  0  0
   11.5473    3.6038    2.6301 C   0  0  0  0  0  0  0  0  0  0  0  0
   11.1345    3.0155    1.4392 C   0  0  0  0  0  0  0  0  0  0  0  0
    9.4231    3.3034   -1.3916 C   0  0  0  0  0  0  0  0  0  0  0  0
    8.1064    4.0381   -1.5841 C   0  0  0  0  0  0  0  0  0  0  0  0
    7.0938    0.9997   -0.1546 C   0  0  0  0  0  0  0  0  0  0  0  0
    6.3695    0.9998   -1.3427 C   0  0  0  0  0  0  0  0  0  0  0  0
    5.0281    1.0000   -1.3350 N   0  0  0  0  0  0  0  0  0  0  0  0
    4.3349    1.0000   -0.1865 C   0  0  0  0  0  0  0  0  0  0  0  0
    2.9350    1.0000   -0.1865 N   0  0  0  0  0  0  0  0  0  0  0  0
    2.2500    1.0000    1.0000 N   0  0  0  0  0  0  0  0  0  0  0  0
    1.0000    1.0000    1.0000 C   0  0  0  0  0  0  0  0  0  0  0  0
    0.2743    2.2569    1.0000 C   0  0  0  0  0  0  0  0  0  0  0  0
   -1.1290    2.4102    1.0000 C   0  0  0  0  0  0  0  0  0  0  0  0
   -1.3474    3.7064    0.9965 N   0  0  0  0  0  0  0  0  0  0  0  0
   -0.2226    4.3809    1.0015 N   0  0  0  0  0  0  0  0  0  0  0  0
   -0.1068    5.7763    1.0014 C   0  0  0  0  0  0  0  0  0  0  0  0
    1.1548    6.3627    1.0070 C   0  0  0  0  0  0  0  0  0  0  0  0
    1.2658    7.7492    1.0067 C   0  0  0  0  0  0  0  0  0  0  0  0
    0.1207    8.5385    1.0010 C   0  0  0  0  0  0  0  0  0  0  0  0
   -1.1355    7.9414    0.9948 C   0  0  0  0  0  0  0  0  0  0  0  0
   -1.2588    6.5559    0.9952 C   0  0  0  0  0  0  0  0  0  0  0  0
    0.8192    3.5039    0.9982 C   0  0  0  0  0  0  0  0  0  0  0  0
   -2.1270    1.3582    1.0024 C   0  0  0  0  0  0  0  0  0  0  0  0
   -3.2709    1.4985    0.2228 C   0  0  0  0  0  0  0  0  0  0  0  0
   -4.2356    0.4962    0.2156 C   0  0  0  0  0  0  0  0  0  0  0  0
   -4.0390   -0.6391    0.9950 C   0  0  0  0  0  0  0  0  0  0  0  0
   -5.2372   -1.9005    0.9956 S   0  0  0  0  0  0  0  0  0  0  0  0
   -6.2672   -1.3120    2.3626 C   0  0  0  0  0  0  0  0  0  0  0  0
   -7.4257   -2.2730    2.5744 C   0  0  0  0  0  0  0  0  0  0  0  0
   -8.2907   -1.7788    3.7224 C   0  0  0  0  0  0  0  0  0  0  0  0
   -2.8972   -0.7839    1.7764 C   0  0  0  0  0  0  0  0  0  0  0  0
   -1.9352    0.2210    1.7804 C   0  0  0  0  0  0  0  0  0  0  0  0
    4.9989    1.0000    1.0360 C   0  0  0  0  0  0  0  0  0  0  0  0
    6.3899    0.9996    1.0456 C   0  0  0  0  0  0  0  0  0  0  0  0
    7.9293    3.8855    1.5662 H   0  0  0  0  0  0  0  0  0  0  0  0
    8.6578    4.8921    3.6134 H   0  0  0  0  0  0  0  0  0  0  0  0
   10.9459    4.7135    4.2831 H   0  0  0  0  0  0  0  0  0  0  0  0
   12.5033    3.5307    2.9144 H   0  0  0  0  0  0  0  0  0  0  0  0
   11.7865    2.5204    0.8651 H   0  0  0  0  0  0  0  0  0  0  0  0
    9.5720    2.6796   -2.1588 H   0  0  0  0  0  0  0  0  0  0  0  0
   10.1713    3.9656   -1.3503 H   0  0  0  0  0  0  0  0  0  0  0  0
    8.1373    4.5597   -2.4367 H   0  0  0  0  0  0  0  0  0  0  0  0
    7.3582    3.3759   -1.6253 H   0  0  0  0  0  0  0  0  0  0  0  0
    7.9575    4.6619   -0.8168 H   0  0  0  0  0  0  0  0  0  0  0  0
    6.8566    0.9998   -2.2160 H   0  0  0  0  0  0  0  0  0  0  0  0
    2.4350    1.0000   -1.0525 H   0  0  0  0  0  0  0  0  0  0  0  0
    0.5000    0.1340    1.0000 H   0  0  0  0  0  0  0  0  0  0  0  0
    1.9757    5.7916    1.0113 H   0  0  0  0  0  0  0  0  0  0  0  0
    2.1690    8.1785    1.0106 H   0  0  0  0  0  0  0  0  0  0  0  0
    0.2005    9.5353    1.0014 H   0  0  0  0  0  0  0  0  0  0  0  0
   -1.9563    8.5126    0.9901 H   0  0  0  0  0  0  0  0  0  0  0  0
   -2.1620    6.1268    0.9911 H   0  0  0  0  0  0  0  0  0  0  0  0
    1.7930    3.7315    0.9950 H   0  0  0  0  0  0  0  0  0  0  0  0
   -3.3996    2.3201   -0.3325 H   0  0  0  0  0  0  0  0  0  0  0  0
   -5.0599    0.5906   -0.3426 H   0  0  0  0  0  0  0  0  0  0  0  0
   -6.6235   -0.4034    2.1444 H   0  0  0  0  0  0  0  0  0  0  0  0
   -5.7179   -1.2632    3.1968 H   0  0  0  0  0  0  0  0  0  0  0  0
   -7.0694   -3.1816    2.7926 H   0  0  0  0  0  0  0  0  0  0  0  0
   -7.9750   -2.3219    1.7402 H   0  0  0  0  0  0  0  0  0  0  0  0
   -9.0528   -2.4111    3.8617 H   0  0  0  0  0  0  0  0  0  0  0  0
   -7.7413   -1.7300    4.5566 H   0  0  0  0  0  0  0  0  0  0  0  0
   -8.6469   -0.8703    3.5042 H   0  0  0  0  0  0  0  0  0  0  0  0
   -2.7687   -1.6055    2.3318 H   0  0  0  0  0  0  0  0  0  0  0  0
   -1.1111    0.1265    2.3389 H   0  0  0  0  0  0  0  0  0  0  0  0
    4.4847    1.0003    1.8937 H   0  0  0  0  0  0  0  0  0  0  0  0
    6.8839    0.9992    1.9150 H   0  0  0  0  0  0  0  0  0  0  0  0
  1  2  2  0  0  0  0
  1  3  2  0  0  0  0
  1  4  1  0  0  0  0
  4  5  1  0  0  0  0
  5  6  1  0  0  0  0
  6  7  2  0  0  0  0
  7  8  1  0  0  0  0
  8  9  2  0  0  0  0
  9 10  1  0  0  0  0
 10  5  2  0  0  0  0
  4 11  1  0  0  0  0
 11 12  1  0  0  0  0
  1 13  1  0  0  0  0
 13 14  1  0  0  0  0
 14 15  2  0  0  0  0
 15 16  1  0  0  0  0
 16 17  1  0  0  0  0
 17 18  1  0  0  0  0
 18 19  2  0  0  0  0
 19 20  1  0  0  0  0
 20 21  1  0  0  0  0
 21 22  2  0  0  0  0
 22 23  1  0  0  0  0
 23 24  1  0  0  0  0
 24 25  1  0  0  0  0
 25 26  2  0  0  0  0
 26 27  1  0  0  0  0
 27 28  2  0  0  0  0
 28 29  1  0  0  0  0
 29 24  2  0  0  0  0
 23 30  1  0  0  0  0
 20 30  2  0  0  0  0
 21 31  1  0  0  0  0
 31 32  1  0  0  0  0
 32 33  2  0  0  0  0
 33 34  1  0  0  0  0
 34 35  1  0  0  0  0
 35 36  1  0  0  0  0
 36 37  1  0  0  0  0
 37 38  1  0  0  0  0
 34 39  2  0  0  0  0
 39 40  1  0  0  0  0
 40 31  2  0  0  0  0
 16 41  2  0  0  0  0
 41 42  1  0  0  0  0
 42 13  2  0  0  0  0
  6 43  1  0  0  0  0
  7 44  1  0  0  0  0
  8 45  1  0  0  0  0
  9 46  1  0  0  0  0
 10 47  1  0  0  0  0
 11 48  1  0  0  0  0
 11 49  1  0  0  0  0
 12 50  1  0  0  0  0
 12 51  1  0  0  0  0
 12 52  1  0  0  0  0
 14 53  1  0  0  0  0
 17 54  1  0  0  0  0
 19 55  1  0  0  0  0
 25 56  1  0  0  0  0
 26 57  1  0  0  0  0
 27 58  1  0  0  0  0
 28 59  1  0  0  0  0
 29 60  1  0  0  0  0
 30 61  1  0  0  0  0
 32 62  1  0  0  0  0
 33 63  1  0  0  0  0
 36 64  1  0  0  0  0
 36 65  1  0  0  0  0
 37 66  1  0  0  0  0
 37 67  1  0  0  0  0
 38 68  1  0  0  0  0
 38 69  1  0  0  0  0
 38 70  1  0  0  0  0
 39 71  1  0  0  0  0
 40 72  1  0  0  0  0
 41 73  1  0  0  0  0
 42 74  1  0  0  0  0
M  END
>  <result-rank>
99

>  <similarity>
0.840

>  <query-name>


>  <query-smiles>
Clc1ccc(cc1)CS(=O)(=O)c2cc3N=C(c4c(N(c3cc2)C)cc5c(c4)C(CCC5(C)C)(C)C)c6ccc(cc6)C([O-])=O

>  <source>
REALspace_2019-12

>  <similarity-descriptor>
0.954;0.956;0.715;0.863;0.800;0.770;0.965;0.997;0.0;0.0;0.0;0.0;1.000;0.0;0.063

>  <similarity-descriptor-smiles>
c1ccccc1;c1ccccc1;c1ccc(nc1)NN;c1ccccc1;SCC;CC1=CNN=C1;NC;S(=O)=O;;;;;C;;C

>  <reaction-name>
s_4

>  <reagent1-name>
66625

>  <reagent1-smiles>
[R1*]=NNc1ncc(S(=O)(=O)N(c2ccccc2)CC)cc1

>  <reagent2-name>
67310

>  <reagent2-smiles>
[R1*]=CC=1C(=NN(c2ccccc2)C1)c3ccc(SCCC)cc3

$$$$
s_2____11687950____9285048____7793932
          04022017343D 1   1.00000     0.00000     0
            
 70 75  0  0  0  0            999 V2000
    8.8234    6.6324    4.0978 S   0  0  0  0  0  0  0  0  0  0  0  0
    8.0230    7.5515    4.8648 O   0  0  0  0  0  0  0  0  0  0  0  0
    9.9248    6.1690    4.9013 O   0  0  0  0  0  0  0  0  0  0  0  0
    9.3977    7.3874    2.7722 N   0  0  0  0  0  0  0  0  0  0  0  0
    7.8467    5.2761    3.6152 C   0  0  0  0  0  0  0  0  0  0  0  0
    7.4230    4.3582    4.5705 C   0  0  0  0  0  0  0  0  0  0  0  0
    6.6430    3.2756    4.1785 C   0  0  0  0  0  0  0  0  0  0  0  0
    6.2951    3.1226    2.8406 C   0  0  0  0  0  0  0  0  0  0  0  0
    5.5094    2.0301    2.4537 N   0  0  0  0  0  0  0  0  0  0  0  0
    4.2406    2.1295    2.4468 C   0  0  0  0  0  0  0  0  0  0  0  0
    3.3299    3.5681    2.4036 S   0  0  0  0  0  0  0  0  0  0  0  0
    1.7813    2.8529    2.4247 C   0  0  0  0  0  0  0  0  0  0  0  0
    2.0334    1.5154    2.4653 C   0  0  0  0  0  0  0  0  0  0  0  0
    3.3388    1.1121    2.4746 N   0  0  0  0  0  0  0  0  0  0  0  0
    3.7804   -0.2891    2.5193 C   0  0  3  0  0  0  0  0  0  0  0  0
    4.7661   -0.5790    1.4115 C   0  0  0  0  0  0  0  0  0  0  0  0
    4.7332   -0.1126    0.2852 O   0  0  0  0  0  0  0  0  0  0  0  0
    5.7283   -1.4527    1.9040 N   0  0  0  0  0  0  0  0  0  0  0  0
    6.8769   -1.9705    1.1470 C   0  0  0  0  0  0  0  0  0  0  0  0
    8.1005   -1.1165    1.4359 C   0  0  0  0  0  0  0  0  0  0  0  0
    8.3644   -0.0090    0.6369 C   0  0  0  0  0  0  0  0  0  0  0  0
    9.4827    0.7766    0.8964 C   0  0  0  0  0  0  0  0  0  0  0  0
   10.3234    0.4437    1.9536 C   0  0  0  0  0  0  0  0  0  0  0  0
   11.3941    1.1909    2.2082 F   0  0  0  0  0  0  0  0  0  0  0  0
   10.0645   -0.6633    2.7551 C   0  0  0  0  0  0  0  0  0  0  0  0
    8.9447   -1.4449    2.4911 C   0  0  0  0  0  0  0  0  0  0  0  0
    5.4092   -1.7795    3.2971 C   0  0  0  0  0  0  0  0  0  0  0  0
    4.6404   -0.5528    3.7303 C   0  0  0  0  0  0  0  0  0  0  0  0
    0.9034    0.6099    2.4960 C   0  0  0  0  0  0  0  0  0  0  0  0
    0.7740   -0.8645    1.6602 S   0  0  0  0  0  0  0  0  0  0  0  0
   -0.7786   -1.3034    2.2109 C   0  0  0  0  0  0  0  0  0  0  0  0
   -1.1742   -0.3157    3.0593 C   0  0  0  0  0  0  0  0  0  0  0  0
   -0.2545    0.7584    3.1934 C   0  0  0  0  0  0  0  0  0  0  0  0
   -2.5258   -0.4907    3.7369 C   0  0  0  0  0  0  0  0  0  0  0  0
   -2.7400   -1.9267    3.9611 N   0  0  0  0  0  0  0  0  0  0  0  0
   -3.2062   -2.3240    5.2192 C   0  0  0  0  0  0  0  0  0  0  0  0
   -3.7324   -1.5251    5.9438 O   0  0  0  0  0  0  0  0  0  0  0  0
   -3.0461   -3.7673    5.6681 C   0  0  0  0  0  0  0  0  0  0  0  0
   -2.4939   -2.9771    2.9557 C   0  0  0  0  0  0  0  0  0  0  0  0
   -1.5628   -2.5497    1.8303 C   0  0  0  0  0  0  0  0  0  0  0  0
    6.7221    4.0437    1.8906 C   0  0  0  0  0  0  0  0  0  0  0  0
    7.5026    5.1284    2.2758 C   0  0  0  0  0  0  0  0  0  0  0  0
    9.9535    6.7491    2.2396 H   0  0  0  0  0  0  0  0  0  0  0  0
    8.6328    7.7092    2.2142 H   0  0  0  0  0  0  0  0  0  0  0  0
    7.6771    4.4756    5.5305 H   0  0  0  0  0  0  0  0  0  0  0  0
    6.3332    2.6091    4.8566 H   0  0  0  0  0  0  0  0  0  0  0  0
    0.8925    3.3109    2.4105 H   0  0  0  0  0  0  0  0  0  0  0  0
    3.0018   -0.9156    2.4845 H   0  0  0  0  0  0  0  0  0  0  0  0
    6.6725   -1.9399    0.1686 H   0  0  0  0  0  0  0  0  0  0  0  0
    7.0578   -2.9152    1.4204 H   0  0  0  0  0  0  0  0  0  0  0  0
    7.7533    0.2213   -0.1204 H   0  0  0  0  0  0  0  0  0  0  0  0
    9.6808    1.5747    0.3274 H   0  0  0  0  0  0  0  0  0  0  0  0
   10.6759   -0.8944    3.5119 H   0  0  0  0  0  0  0  0  0  0  0  0
    8.7466   -2.2431    3.0600 H   0  0  0  0  0  0  0  0  0  0  0  0
    6.2387   -1.9014    3.8422 H   0  0  0  0  0  0  0  0  0  0  0  0
    4.8459   -2.6035    3.3586 H   0  0  0  0  0  0  0  0  0  0  0  0
    4.0834   -0.7385    4.5398 H   0  0  0  0  0  0  0  0  0  0  0  0
    5.2535    0.2149    3.9165 H   0  0  0  0  0  0  0  0  0  0  0  0
   -0.4440    1.5622    3.7573 H   0  0  0  0  0  0  0  0  0  0  0  0
   -2.5319   -0.0062    4.6117 H   0  0  0  0  0  0  0  0  0  0  0  0
   -3.2492   -0.1275    3.1496 H   0  0  0  0  0  0  0  0  0  0  0  0
   -2.5910   -4.2917    4.9484 H   0  0  0  0  0  0  0  0  0  0  0  0
   -2.4951   -3.7979    6.5020 H   0  0  0  0  0  0  0  0  0  0  0  0
   -3.9469   -4.1620    5.8491 H   0  0  0  0  0  0  0  0  0  0  0  0
   -3.3713   -3.2410    2.5550 H   0  0  0  0  0  0  0  0  0  0  0  0
   -2.0878   -3.7657    3.4176 H   0  0  0  0  0  0  0  0  0  0  0  0
   -0.9217   -3.2924    1.6371 H   0  0  0  0  0  0  0  0  0  0  0  0
   -2.1057   -2.3569    1.0130 H   0  0  0  0  0  0  0  0  0  0  0  0
    6.4680    3.9262    0.9306 H   0  0  0  0  0  0  0  0  0  0  0  0
    7.8128    5.7945    1.5975 H   0  0  0  0  0  0  0  0  0  0  0  0
  1  2  2  0  0  0  0
  1  3  2  0  0  0  0
  1  4  1  0  0  0  0
  1  5  1  0  0  0  0
  5  6  1  0  0  0  0
  6  7  2  0  0  0  0
  7  8  1  0  0  0  0
  8  9  1  0  0  0  0
  9 10  2  0  0  0  0
 10 11  1  0  0  0  0
 11 12  1  0  0  0  0
 12 13  2  0  0  0  0
 13 14  1  0  0  0  0
 14 10  1  0  0  0  0
 14 15  1  0  0  0  0
 15 16  1  0  0  0  0
 16 17  2  0  0  0  0
 16 18  1  0  0  0  0
 18 19  1  0  0  0  0
 19 20  1  0  0  0  0
 20 21  1  0  0  0  0
 21 22  2  0  0  0  0
 22 23  1  0  0  0  0
 23 24  1  0  0  0  0
 23 25  2  0  0  0  0
 25 26  1  0  0  0  0
 26 20  2  0  0  0  0
 18 27  1  0  0  0  0
 27 28  1  0  0  0  0
 28 15  1  0  0  0  0
 13 29  1  0  0  0  0
 29 30  1  0  0  0  0
 30 31  1  0  0  0  0
 31 32  2  0  0  0  0
 32 33  1  0  0  0  0
 29 33  2  0  0  0  0
 32 34  1  0  0  0  0
 34 35  1  0  0  0  0
 35 36  1  0  0  0  0
 36 37  2  0  0  0  0
 36 38  1  0  0  0  0
 35 39  1  0  0  0  0
 39 40  1  0  0  0  0
 40 31  1  0  0  0  0
  8 41  2  0  0  0  0
 41 42  1  0  0  0  0
 42  5  2  0  0  0  0
  4 43  1  0  0  0  0
  4 44  1  0  0  0  0
  6 45  1  0  0  0  0
  7 46  1  0  0  0  0
 12 47  1  0  0  0  0
 15 48  1  0  0  0  0
 19 49  1  0  0  0  0
 19 50  1  0  0  0  0
 21 51  1  0  0  0  0
 22 52  1  0  0  0  0
 25 53  1  0  0  0  0
 26 54  1  0  0  0  0
 27 55  1  0  0  0  0
 27 56  1  0  0  0  0
 28 57  1  0  0  0  0
 28 58  1  0  0  0  0
 33 59  1  0  0  0  0
 34 60  1  0  0  0  0
 34 61  1  0  0  0  0
 38 62  1  0  0  0  0
 38 63  1  0  0  0  0
 38 64  1  0  0  0  0
 39 65  1  0  0  0  0
 39 66  1  0  0  0  0
 40 67  1  0  0  0  0
 40 68  1  0  0  0  0
 41 69  1  0  0  0  0
 42 70  1  0  0  0  0
M  END
>  <result-rank>
100

>  <similarity>
0.840

>  <query-name>


>  <query-smiles>
Clc1ccc(cc1)CS(=O)(=O)c2cc3N=C(c4c(N(c3cc2)C)cc5c(c4)C(CCC5(C)C)(C)C)c6ccc(cc6)C([O-])=O

>  <source>
REALspace_2019-12

>  <similarity-descriptor>
0.985;0.998;0.632;0.916;0.976;0.768;0.996;0.632;0.0;0.976;0.0;0.0;0.243;0.909;0.167

>  <similarity-descriptor-smiles>
c1ccc(cc1)F;c1ccccc1;C1CCNC1=O;C1=CC=CS1;C=1CCNCC1;N=C1NC=CS1;C;C1CCNC1=O;;C=1CCNCC1;;;C=O;S(=O)=O;N.C

>  <reaction-name>
s_2

>  <reagent1-name>
11687950

>  <reagent1-smiles>
[R1*]SC([R3*])=Nc1ccc(S(=O)(=O)N)cc1

>  <reagent2-name>
9285048

>  <reagent2-smiles>
[R2*]N([R3*])C1C(=O)N(Cc2ccc(F)cc2)CC1

>  <reagent3-name>
7793932

>  <reagent3-smiles>
[R2*]C(C=1SC2=C(C1)CN(C(=O)C)CC2)=C[R1*]

$$$$
