m_275030____14114078____14125676____14147198
          04022017303D 1   1.00000     0.00000     0
            
 73 78  0  0  0  0            999 V2000
   -2.5430    0.4737    0.9991 O   0  0  0  0  0  0  0  0  0  0  0  0
   -2.0680    0.3926   -0.1236 C   0  0  0  0  0  0  0  0  0  0  0  0
   -0.8911    1.0118   -0.5436 N   0  0  0  0  0  0  0  0  0  0  0  0
   -0.6178    0.7179   -1.8795 C   0  0  0  0  0  0  0  0  0  0  0  0
    0.3383    1.1072   -2.5402 O   0  0  0  0  0  0  0  0  0  0  0  0
   -1.7502   -0.1748   -2.3387 C   0  0  0  0  0  0  0  0  0  0  0  0
   -2.6307   -0.3304   -1.1759 N   0  0  0  0  0  0  0  0  0  0  0  0
   -2.3711    0.3402   -3.6205 C   0  0  0  0  0  0  0  0  0  0  0  0
   -3.1846   -0.8287   -4.1383 C   0  0  0  0  0  0  0  0  0  0  0  0
   -2.3619   -2.0342   -3.7337 C   0  0  0  0  0  0  0  0  0  0  0  0
   -1.2216   -1.4710   -2.9095 C   0  0  0  0  0  0  0  0  0  0  0  0
   -0.0426    1.8602    0.3048 C   0  0  0  0  0  0  0  0  0  0  0  0
    1.0000    1.0000    1.0000 C   0  0  0  0  0  0  0  0  0  0  0  0
    1.8485    1.8485    1.8485 N   0  3  3  0  0  0  0  0  0  0  0  0
    1.0141    2.5174    2.8532 C   0  0  0  0  0  0  0  0  0  0  0  0
    1.8632    3.6882    3.3035 C   0  0  3  0  0  0  0  0  0  0  0  0
    2.9010    3.3002    4.3396 C   0  0  0  0  0  0  0  0  0  0  0  0
    3.7288    4.4587    4.7004 N   0  0  0  0  0  0  0  0  0  0  0  0
    4.9774    4.7035    4.1095 C   0  0  0  0  0  0  0  0  0  0  0  0
    5.4046    3.9525    3.2767 O   0  0  0  0  0  0  0  0  0  0  0  0
    5.7513    5.8634    4.5048 C   0  0  0  0  0  0  0  0  0  0  0  0
    5.2205    7.1155    4.3328 N   0  0  0  0  0  0  0  0  0  0  0  0
    5.9228    8.2346    4.6956 C   0  0  0  0  0  0  0  0  0  0  0  0
    5.3987    9.3236    4.5179 O   0  0  0  0  0  0  0  0  0  0  0  0
    7.2223    8.0944    5.2599 C   0  0  0  0  0  0  0  0  0  0  0  0
    7.7522    6.8197    5.4299 C   0  0  0  0  0  0  0  0  0  0  0  0
    9.0181    6.6343    5.9763 C   0  0  0  0  0  0  0  0  0  0  0  0
    9.7626    7.7452    6.3582 C   0  0  0  0  0  0  0  0  0  0  0  0
    9.2594    9.0323    6.2012 C   0  0  0  0  0  0  0  0  0  0  0  0
    7.9916    9.1870    5.6518 C   0  0  0  0  0  0  0  0  0  0  0  0
    6.9981    5.6796    5.0433 C   0  0  0  0  0  0  0  0  0  0  0  0
    3.1740    5.3580    5.7294 C   0  0  0  0  0  0  0  0  0  0  0  0
    2.3943    6.5369    5.1618 C   0  0  0  0  0  0  0  0  0  0  0  0
    1.5887    6.1841    3.9176 C   0  0  0  0  0  0  0  0  0  0  0  0
    0.9620    4.7892    3.8537 C   0  0  0  0  0  0  0  0  0  0  0  0
    2.4330    4.1541    1.9724 C   0  0  0  0  0  0  0  0  0  0  0  0
    2.4209    2.9468    1.0593 C   0  0  0  0  0  0  0  0  0  0  0  0
    2.5690    1.3096    2.2848 H   0  0  0  0  0  0  0  0  0  0  0  0
   -3.4793   -0.8584   -1.1433 H   0  0  0  0  0  0  0  0  0  0  0  0
   -1.6634    0.5983   -4.2782 H   0  0  0  0  0  0  0  0  0  0  0  0
   -2.9594    1.1279   -3.4377 H   0  0  0  0  0  0  0  0  0  0  0  0
   -3.2862   -0.7819   -5.1320 H   0  0  0  0  0  0  0  0  0  0  0  0
   -4.0886   -0.8527   -3.7115 H   0  0  0  0  0  0  0  0  0  0  0  0
   -2.9108   -2.6674   -3.1880 H   0  0  0  0  0  0  0  0  0  0  0  0
   -2.0113   -2.5079   -4.5416 H   0  0  0  0  0  0  0  0  0  0  0  0
   -0.9740   -2.1029   -2.1750 H   0  0  0  0  0  0  0  0  0  0  0  0
   -0.4226   -1.3006   -3.4862 H   0  0  0  0  0  0  0  0  0  0  0  0
   -0.6086    2.3176    0.9908 H   0  0  0  0  0  0  0  0  0  0  0  0
    0.4147    2.5462   -0.2611 H   0  0  0  0  0  0  0  0  0  0  0  0
    0.5427    0.3140    1.5660 H   0  0  0  0  0  0  0  0  0  0  0  0
    1.5660    0.5427    0.3140 H   0  0  0  0  0  0  0  0  0  0  0  0
    0.8172    1.9045    3.6185 H   0  0  0  0  0  0  0  0  0  0  0  0
    0.1553    2.8338    2.4501 H   0  0  0  0  0  0  0  0  0  0  0  0
    2.4375    2.9599    5.1577 H   0  0  0  0  0  0  0  0  0  0  0  0
    3.4868    2.5815    3.9651 H   0  0  0  0  0  0  0  0  0  0  0  0
    4.3075    7.2135    3.9369 H   0  0  0  0  0  0  0  0  0  0  0  0
    9.3885    5.7128    6.0930 H   0  0  0  0  0  0  0  0  0  0  0  0
   10.6730    7.6167    6.7515 H   0  0  0  0  0  0  0  0  0  0  0  0
    9.7975    9.8287    6.4772 H   0  0  0  0  0  0  0  0  0  0  0  0
    7.6218   10.1087    5.5348 H   0  0  0  0  0  0  0  0  0  0  0  0
    7.3704    4.7591    5.1620 H   0  0  0  0  0  0  0  0  0  0  0  0
    3.9308    5.7151    6.2769 H   0  0  0  0  0  0  0  0  0  0  0  0
    2.5609    4.8271    6.3144 H   0  0  0  0  0  0  0  0  0  0  0  0
    3.0418    7.2615    4.9258 H   0  0  0  0  0  0  0  0  0  0  0  0
    1.7645    6.8684    5.8643 H   0  0  0  0  0  0  0  0  0  0  0  0
    0.8462    6.8498    3.8428 H   0  0  0  0  0  0  0  0  0  0  0  0
    2.1984    6.2749    3.1302 H   0  0  0  0  0  0  0  0  0  0  0  0
    0.6910    4.5306    4.7809 H   0  0  0  0  0  0  0  0  0  0  0  0
    0.1505    4.8425    3.2719 H   0  0  0  0  0  0  0  0  0  0  0  0
    3.3681    4.4872    2.0936 H   0  0  0  0  0  0  0  0  0  0  0  0
    1.8663    4.8836    1.5894 H   0  0  0  0  0  0  0  0  0  0  0  0
    1.8569    3.1262    0.2533 H   0  0  0  0  0  0  0  0  0  0  0  0
    3.3512    2.7196    0.7713 H   0  0  0  0  0  0  0  0  0  0  0  0
  1  2  2  0  0  0  0
  2  3  1  0  0  0  0
  3  4  1  0  0  0  0
  4  5  2  0  0  0  0
  4  6  1  0  0  0  0
  6  7  1  0  0  0  0
  7  2  1  0  0  0  0
  6  8  1  0  0  0  0
  8  9  1  0  0  0  0
  9 10  1  0  0  0  0
 10 11  1  0  0  0  0
 11  6  1  0  0  0  0
  3 12  1  0  0  0  0
 12 13  1  0  0  0  0
 13 14  1  0  0  0  0
 14 15  1  0  0  0  0
 15 16  1  0  0  0  0
 16 17  1  0  0  0  0
 17 18  1  0  0  0  0
 18 19  1  0  0  0  0
 19 20  2  0  0  0  0
 19 21  1  0  0  0  0
 21 22  1  0  0  0  0
 22 23  1  0  0  0  0
 23 24  2  0  0  0  0
 23 25  1  0  0  0  0
 25 26  1  0  0  0  0
 26 27  2  0  0  0  0
 27 28  1  0  0  0  0
 28 29  2  0  0  0  0
 29 30  1  0  0  0  0
 30 25  2  0  0  0  0
 26 31  1  0  0  0  0
 21 31  2  0  0  0  0
 18 32  1  0  0  0  0
 32 33  1  0  0  0  0
 33 34  1  0  0  0  0
 34 35  1  0  0  0  0
 35 16  1  0  0  0  0
 16 36  1  0  0  0  0
 36 37  1  0  0  0  0
 37 14  1  0  0  0  0
 14 38  1  0  0  0  0
  7 39  1  0  0  0  0
  8 40  1  0  0  0  0
  8 41  1  0  0  0  0
  9 42  1  0  0  0  0
  9 43  1  0  0  0  0
 10 44  1  0  0  0  0
 10 45  1  0  0  0  0
 11 46  1  0  0  0  0
 11 47  1  0  0  0  0
 12 48  1  0  0  0  0
 12 49  1  0  0  0  0
 13 50  1  0  0  0  0
 13 51  1  0  0  0  0
 15 52  1  0  0  0  0
 15 53  1  0  0  0  0
 17 54  1  0  0  0  0
 17 55  1  0  0  0  0
 22 56  1  0  0  0  0
 27 57  1  0  0  0  0
 28 58  1  0  0  0  0
 29 59  1  0  0  0  0
 30 60  1  0  0  0  0
 31 61  1  0  0  0  0
 32 62  1  0  0  0  0
 32 63  1  0  0  0  0
 33 64  1  0  0  0  0
 33 65  1  0  0  0  0
 34 66  1  0  0  0  0
 34 67  1  0  0  0  0
 35 68  1  0  0  0  0
 35 69  1  0  0  0  0
 36 70  1  0  0  0  0
 36 71  1  0  0  0  0
 37 72  1  0  0  0  0
 37 73  1  0  0  0  0
M  CHG  1  14   1
M  END
>  <result-rank>
1

>  <similarity>
0.953

>  <query-name>


>  <query-smiles>
S1c2c(cccc2)C(C(=O)N3CCC([N@H+]4CC5(C(=O)N6N(C5=O)CCCC6)CCC4)CC3)=C1NC(=O)NC

>  <source>
REALspace_2019-12

>  <similarity-descriptor>
0.986;0.940;1.000;0.859;0.998;0.994;1.000;0.940;0.940;0.0;0.0;0.0

>  <similarity-descriptor-smiles>
C1CCCCNC1;C1=CccC(N1)=O;c1ccccc1;O=C1NCC(N1C)=O;C[NH+]1CCCC1;C1CCCC1;C=O;C1=CccC(N1)=O;C1=CccC(N1)=O;;;

>  <reaction-name>
m_275030

>  <reagent1-name>
14114078

>  <reagent1-smiles>
[R2*]N1CC2(CN([R1*])CCCC2)CC1

>  <reagent2-name>
14125676

>  <reagent2-smiles>
[R1*]C(=O)C=1NC(=O)c2c(cccc2)C1

>  <reagent3-name>
14147198

>  <reagent3-smiles>
[R2*]CCN1C(=O)NC2(C1=O)CCCC2

$$$$
m_275030____14114236____14125180____14148780
          04022017303D 1   1.00000     0.00000     0
            
 66 71  0  0  0  0            999 V2000
   -4.9625    3.8651   -4.6308 O   0  0  0  0  0  0  0  0  0  0  0  0
   -4.3404    3.8183   -3.5796 C   0  0  0  0  0  0  0  0  0  0  0  0
   -4.0947    2.5844   -3.0349 N   0  0  0  0  0  0  0  0  0  0  0  0
   -3.4045    2.4452   -1.8587 C   0  0  0  0  0  0  0  0  0  0  0  0
   -2.9339    3.5428   -1.1861 C   0  0  0  0  0  0  0  0  0  0  0  0
   -3.1696    4.8409   -1.7220 C   0  0  0  0  0  0  0  0  0  0  0  0
   -3.8716    4.9877   -2.9164 C   0  0  0  0  0  0  0  0  0  0  0  0
   -4.0944    6.2644   -3.4279 C   0  0  0  0  0  0  0  0  0  0  0  0
   -3.6335    7.4045   -2.7776 C   0  0  0  0  0  0  0  0  0  0  0  0
   -2.9319    7.2620   -1.5847 C   0  0  0  0  0  0  0  0  0  0  0  0
   -2.7111    5.9866   -1.0755 C   0  0  0  0  0  0  0  0  0  0  0  0
   -2.2118    3.3199    0.0522 C   0  0  0  0  0  0  0  0  0  0  0  0
   -2.8050    3.2848    1.0947 O   0  0  0  0  0  0  0  0  0  0  0  0
   -0.8237    3.1460    0.0310 N   0  0  0  0  0  0  0  0  0  0  0  0
   -0.1166    2.9215    1.3029 C   0  0  0  0  0  0  0  0  0  0  0  0
    1.2839    3.5183    1.2943 C   0  0  3  0  0  0  0  0  0  0  0  0
    2.0264    3.0056    2.5174 C   0  0  3  0  0  0  0  0  0  0  0  0
    2.1200    1.4943    2.4902 C   0  0  0  0  0  0  0  0  0  0  0  0
    3.2207    1.2161    3.4213 N   0  3  3  0  0  0  0  0  0  0  0  0
    3.7451   -0.1319    3.1570 C   0  0  0  0  0  0  0  0  0  0  0  0
    2.6372   -1.1546    3.3544 C   0  0  0  0  0  0  0  0  0  0  0  0
    1.8092   -1.5734    2.4294 O   0  0  0  0  0  0  0  0  0  0  0  0
    1.0100   -2.4208    2.9227 N   0  0  0  0  0  0  0  0  0  0  0  0
    1.3048   -2.5754    4.1890 C   0  0  0  0  0  0  0  0  0  0  0  0
    2.3552   -1.7601    4.4814 N   0  0  0  0  0  0  0  0  0  0  0  0
    0.5927   -3.5015    5.1619 C   0  0  0  0  0  0  0  0  0  0  0  0
    1.2633   -4.8661    5.1459 C   0  0  0  0  0  0  0  0  0  0  0  0
    2.7052   -4.7611    5.5489 C   0  0  0  0  0  0  0  0  0  0  0  0
    2.3420   -4.9629    4.1057 C   0  0  0  0  0  0  0  0  0  0  0  0
    4.2351    2.2138    3.0607 C   0  0  0  0  0  0  0  0  0  0  0  0
    3.4945    3.3904    2.4629 C   0  0  0  0  0  0  0  0  0  0  0  0
    2.0478    3.1796    0.0220 C   0  0  0  0  0  0  0  0  0  0  0  0
    1.2707    3.7785   -1.1429 C   0  0  0  0  0  0  0  0  0  0  0  0
   -0.1319    3.1993   -1.2679 C   0  0  0  0  0  0  0  0  0  0  0  0
    2.9301    1.3163    4.3729 H   0  0  0  0  0  0  0  0  0  0  0  0
   -4.4265    1.7673   -3.5063 H   0  0  0  0  0  0  0  0  0  0  0  0
   -3.2424    1.5312   -1.4867 H   0  0  0  0  0  0  0  0  0  0  0  0
   -4.5991    6.3639   -4.2855 H   0  0  0  0  0  0  0  0  0  0  0  0
   -3.8038    8.3120   -3.1615 H   0  0  0  0  0  0  0  0  0  0  0  0
   -2.5905    8.0668   -1.0992 H   0  0  0  0  0  0  0  0  0  0  0  0
   -2.2069    5.8889   -0.2174 H   0  0  0  0  0  0  0  0  0  0  0  0
   -0.0462    1.9369    1.4630 H   0  0  0  0  0  0  0  0  0  0  0  0
   -0.6418    3.3427    2.0422 H   0  0  0  0  0  0  0  0  0  0  0  0
    1.2062    4.5129    1.3633 H   0  0  0  0  0  0  0  0  0  0  0  0
    1.5987    3.3271    3.3622 H   0  0  0  0  0  0  0  0  0  0  0  0
    1.2682    1.0756    2.8049 H   0  0  0  0  0  0  0  0  0  0  0  0
    2.3342    1.1638    1.5710 H   0  0  0  0  0  0  0  0  0  0  0  0
    4.4955   -0.3274    3.7884 H   0  0  0  0  0  0  0  0  0  0  0  0
    4.0800   -0.1808    2.2160 H   0  0  0  0  0  0  0  0  0  0  0  0
   -0.3650   -3.5975    4.8904 H   0  0  0  0  0  0  0  0  0  0  0  0
    0.6409   -3.1172    6.0838 H   0  0  0  0  0  0  0  0  0  0  0  0
    0.7374   -5.6802    5.3923 H   0  0  0  0  0  0  0  0  0  0  0  0
    3.1354   -5.5021    6.0645 H   0  0  0  0  0  0  0  0  0  0  0  0
    3.0767   -3.8840    5.8531 H   0  0  0  0  0  0  0  0  0  0  0  0
    2.4715   -4.2200    3.4489 H   0  0  0  0  0  0  0  0  0  0  0  0
    2.5302   -5.8382    3.6603 H   0  0  0  0  0  0  0  0  0  0  0  0
    4.8720    1.8313    2.3914 H   0  0  0  0  0  0  0  0  0  0  0  0
    4.7399    2.5017    3.8745 H   0  0  0  0  0  0  0  0  0  0  0  0
    3.6603    4.2182    2.9989 H   0  0  0  0  0  0  0  0  0  0  0  0
    3.7824    3.5424    1.5173 H   0  0  0  0  0  0  0  0  0  0  0  0
    2.1138    2.1874   -0.0841 H   0  0  0  0  0  0  0  0  0  0  0  0
    2.9666    3.5727    0.0591 H   0  0  0  0  0  0  0  0  0  0  0  0
    1.1986    4.7664   -1.0061 H   0  0  0  0  0  0  0  0  0  0  0  0
    1.7701    3.5948   -1.9896 H   0  0  0  0  0  0  0  0  0  0  0  0
   -0.6629    3.7710   -1.8934 H   0  0  0  0  0  0  0  0  0  0  0  0
   -0.0669    2.2724   -1.6375 H   0  0  0  0  0  0  0  0  0  0  0  0
  1  2  2  0  0  0  0
  2  3  1  0  0  0  0
  3  4  1  0  0  0  0
  4  5  2  0  0  0  0
  5  6  1  0  0  0  0
  6  7  1  0  0  0  0
  7  2  1  0  0  0  0
  7  8  2  0  0  0  0
  8  9  1  0  0  0  0
  9 10  2  0  0  0  0
 10 11  1  0  0  0  0
 11  6  2  0  0  0  0
  5 12  1  0  0  0  0
 12 13  2  0  0  0  0
 12 14  1  0  0  0  0
 14 15  1  0  0  0  0
 15 16  1  0  0  0  0
 16 17  1  0  0  0  0
 17 18  1  0  0  0  0
 18 19  1  0  0  0  0
 19 20  1  0  0  0  0
 20 21  1  0  0  0  0
 21 22  1  0  0  0  0
 22 23  1  0  0  0  0
 23 24  2  0  0  0  0
 24 25  1  0  0  0  0
 21 25  2  0  0  0  0
 24 26  1  0  0  0  0
 26 27  1  0  0  0  0
 27 28  1  0  0  0  0
 28 29  1  0  0  0  0
 29 27  1  0  0  0  0
 19 30  1  0  0  0  0
 30 31  1  0  0  0  0
 31 17  1  0  0  0  0
 16 32  1  0  0  0  0
 32 33  1  0  0  0  0
 33 34  1  0  0  0  0
 34 14  1  0  0  0  0
 19 35  1  0  0  0  0
  3 36  1  0  0  0  0
  4 37  1  0  0  0  0
  8 38  1  0  0  0  0
  9 39  1  0  0  0  0
 10 40  1  0  0  0  0
 11 41  1  0  0  0  0
 15 42  1  0  0  0  0
 15 43  1  0  0  0  0
 16 44  1  0  0  0  0
 17 45  1  0  0  0  0
 18 46  1  0  0  0  0
 18 47  1  0  0  0  0
 20 48  1  0  0  0  0
 20 49  1  0  0  0  0
 26 50  1  0  0  0  0
 26 51  1  0  0  0  0
 27 52  1  0  0  0  0
 28 53  1  0  0  0  0
 28 54  1  0  0  0  0
 29 55  1  0  0  0  0
 29 56  1  0  0  0  0
 30 57  1  0  0  0  0
 30 58  1  0  0  0  0
 31 59  1  0  0  0  0
 31 60  1  0  0  0  0
 32 61  1  0  0  0  0
 32 62  1  0  0  0  0
 33 63  1  0  0  0  0
 33 64  1  0  0  0  0
 34 65  1  0  0  0  0
 34 66  1  0  0  0  0
M  CHG  1  19   1
M  END
>  <result-rank>
2

>  <similarity>
0.934

>  <query-name>


>  <query-smiles>
S1c2c(cccc2)C(C(=O)N3CCC([N@H+]4CC5(C(=O)N6N(C5=O)CCCC6)CCC4)CC3)=C1NC(=O)NC

>  <source>
REALspace_2019-12

>  <similarity-descriptor>
0.999;0.940;1.000;0.780;0.936;0.973;1.000;0.940;0.940;0.0;0.0;0.0

>  <similarity-descriptor-smiles>
N1CCCCC1;O=C1ccC=CN1;c1ccccc1;C1=NC=NO1;C1CC[NH+](C1)C;CC1CC1;C=O;O=C1ccC=CN1;O=C1ccC=CN1;;;

>  <reaction-name>
m_275030

>  <reagent1-name>
14114236

>  <reagent1-smiles>
[R2*]N1CC(C2CN([R1*])CCC2)CC1

>  <reagent2-name>
14125180

>  <reagent2-smiles>
[R1*]C(=O)C=1c2c(cccc2)C(=O)NC1

>  <reagent3-name>
14148780

>  <reagent3-smiles>
[R2*]CC=1ON=C(N1)CC2CC2

$$$$
m_275030____14114078____14125982____14147198
          04022017303D 1   1.00000     0.00000     0
            
 74 79  0  0  0  0            999 V2000
    3.9636    5.5408   -1.4896 F   0  0  0  0  0  0  0  0  0  0  0  0
    5.1364    4.9309   -1.3378 C   0  0  0  0  0  0  0  0  0  0  0  0
    5.1880    3.7039   -0.6863 C   0  0  0  0  0  0  0  0  0  0  0  0
    4.1912    2.9548   -0.1338 N   0  0  0  0  0  0  0  0  0  0  0  0
    4.7648    1.8310    0.3832 C   0  0  0  0  0  0  0  0  0  0  0  0
    4.0516    0.7677    1.0644 C   0  0  0  0  0  0  0  0  0  0  0  0
    4.0835   -0.3504    0.6300 O   0  0  0  0  0  0  0  0  0  0  0  0
    3.3245    1.0464    2.2313 N   0  0  0  0  0  0  0  0  0  0  0  0
    2.5835    0.0105    2.9630 C   0  0  0  0  0  0  0  0  0  0  0  0
    1.1221    0.0122    2.5563 C   0  0  3  0  0  0  0  0  0  0  0  0
    0.3187   -1.0741    3.2412 C   0  0  0  0  0  0  0  0  0  0  0  0
    0.5981   -2.2710    2.4397 N   0  3  3  0  0  0  0  0  0  0  0  0
   -0.4495   -3.2728    2.6823 C   0  0  0  0  0  0  0  0  0  0  0  0
   -0.1643   -4.5149    1.8539 C   0  0  0  0  0  0  0  0  0  0  0  0
   -1.2119   -5.5166    2.0965 N   0  0  0  0  0  0  0  0  0  0  0  0
   -2.3938   -5.6236    1.3640 C   0  0  0  0  0  0  0  0  0  0  0  0
   -2.7106   -4.9008    0.4313 O   0  0  0  0  0  0  0  0  0  0  0  0
   -3.1626   -6.6828    1.8472 N   0  0  0  0  0  0  0  0  0  0  0  0
   -2.4321   -7.2825    2.9689 C   0  0  0  0  0  0  0  0  0  0  0  0
   -1.1521   -6.4856    3.0982 C   0  0  0  0  0  0  0  0  0  0  0  0
   -0.2480   -6.6550    3.9081 O   0  0  0  0  0  0  0  0  0  0  0  0
   -2.1498   -8.7691    2.9031 C   0  0  0  0  0  0  0  0  0  0  0  0
   -3.4937   -9.4172    3.1679 C   0  0  0  0  0  0  0  0  0  0  0  0
   -4.1480   -8.4751    4.1568 C   0  0  0  0  0  0  0  0  0  0  0  0
   -3.1903   -7.3067    4.2766 C   0  0  0  0  0  0  0  0  0  0  0  0
    0.5410   -1.8013    1.0495 C   0  0  0  0  0  0  0  0  0  0  0  0
    0.8656   -0.3234    1.0951 C   0  0  0  0  0  0  0  0  0  0  0  0
    0.4985    1.3720    2.8550 C   0  0  0  0  0  0  0  0  0  0  0  0
    0.8866    2.5005    1.8966 C   0  0  0  0  0  0  0  0  0  0  0  0
    2.1634    3.2742    2.2015 C   0  0  0  0  0  0  0  0  0  0  0  0
    3.2659    2.4077    2.7959 C   0  0  0  0  0  0  0  0  0  0  0  0
    6.1089    1.8580    0.1649 C   0  0  0  0  0  0  0  0  0  0  0  0
    6.3914    3.0601   -0.5246 C   0  0  0  0  0  0  0  0  0  0  0  0
    7.5640    3.6391   -1.0102 C   0  0  0  0  0  0  0  0  0  0  0  0
    7.5156    4.8690   -1.6616 C   0  0  0  0  0  0  0  0  0  0  0  0
    6.2973    5.5203   -1.8287 C   0  0  0  0  0  0  0  0  0  0  0  0
    8.9158    2.9617   -0.8493 C   0  0  0  0  0  0  0  0  0  0  0  0
    1.5020   -2.6410    2.6544 H   0  0  0  0  0  0  0  0  0  0  0  0
    3.2188    3.1869   -0.1118 H   0  0  0  0  0  0  0  0  0  0  0  0
    2.6518    0.1888    3.9446 H   0  0  0  0  0  0  0  0  0  0  0  0
    2.9806   -0.8842    2.7584 H   0  0  0  0  0  0  0  0  0  0  0  0
    0.6210   -1.1991    4.1861 H   0  0  0  0  0  0  0  0  0  0  0  0
   -0.6573   -0.8569    3.2294 H   0  0  0  0  0  0  0  0  0  0  0  0
   -1.3383   -2.8954    2.4220 H   0  0  0  0  0  0  0  0  0  0  0  0
   -0.4613   -3.5146    3.6525 H   0  0  0  0  0  0  0  0  0  0  0  0
   -0.1526   -4.2731    0.8837 H   0  0  0  0  0  0  0  0  0  0  0  0
    0.7244   -4.8923    2.1142 H   0  0  0  0  0  0  0  0  0  0  0  0
   -4.0498   -6.9791    1.4935 H   0  0  0  0  0  0  0  0  0  0  0  0
   -1.4848   -9.0347    3.6011 H   0  0  0  0  0  0  0  0  0  0  0  0
   -1.8051   -9.0246    1.9999 H   0  0  0  0  0  0  0  0  0  0  0  0
   -3.3798  -10.3287    3.5632 H   0  0  0  0  0  0  0  0  0  0  0  0
   -4.0311   -9.4833    2.3271 H   0  0  0  0  0  0  0  0  0  0  0  0
   -5.0362   -8.1681    3.8151 H   0  0  0  0  0  0  0  0  0  0  0  0
   -4.2684   -8.9233    5.0426 H   0  0  0  0  0  0  0  0  0  0  0  0
   -3.6934   -6.4524    4.4064 H   0  0  0  0  0  0  0  0  0  0  0  0
   -2.5632   -7.4441    5.0434 H   0  0  0  0  0  0  0  0  0  0  0  0
   -0.3736   -1.9447    0.6715 H   0  0  0  0  0  0  0  0  0  0  0  0
    1.2127   -2.2875    0.4905 H   0  0  0  0  0  0  0  0  0  0  0  0
    1.6797   -0.1306    0.5474 H   0  0  0  0  0  0  0  0  0  0  0  0
    0.0954    0.2111    0.7470 H   0  0  0  0  0  0  0  0  0  0  0  0
    0.7758    1.6421    3.7771 H   0  0  0  0  0  0  0  0  0  0  0  0
   -0.4956    1.2687    2.8227 H   0  0  0  0  0  0  0  0  0  0  0  0
    0.1330    3.1578    1.8870 H   0  0  0  0  0  0  0  0  0  0  0  0
    0.9899    2.0986    0.9868 H   0  0  0  0  0  0  0  0  0  0  0  0
    2.5006    3.6778    1.3510 H   0  0  0  0  0  0  0  0  0  0  0  0
    1.9458    4.0016    2.8524 H   0  0  0  0  0  0  0  0  0  0  0  0
    4.1439    2.8562    2.6284 H   0  0  0  0  0  0  0  0  0  0  0  0
    3.1119    2.3338    3.7812 H   0  0  0  0  0  0  0  0  0  0  0  0
    6.7705    1.1604    0.4399 H   0  0  0  0  0  0  0  0  0  0  0  0
    8.3563    5.2841   -2.0093 H   0  0  0  0  0  0  0  0  0  0  0  0
    6.2565    6.4030   -2.2969 H   0  0  0  0  0  0  0  0  0  0  0  0
    9.6259    3.5326   -1.2614 H   0  0  0  0  0  0  0  0  0  0  0  0
    9.1119    2.8359    0.1232 H   0  0  0  0  0  0  0  0  0  0  0  0
    8.8985    2.0712   -1.3038 H   0  0  0  0  0  0  0  0  0  0  0  0
  1  2  1  0  0  0  0
  2  3  1  0  0  0  0
  3  4  1  0  0  0  0
  4  5  1  0  0  0  0
  5  6  1  0  0  0  0
  6  7  2  0  0  0  0
  6  8  1  0  0  0  0
  8  9  1  0  0  0  0
  9 10  1  0  0  0  0
 10 11  1  0  0  0  0
 11 12  1  0  0  0  0
 12 13  1  0  0  0  0
 13 14  1  0  0  0  0
 14 15  1  0  0  0  0
 15 16  1  0  0  0  0
 16 17  2  0  0  0  0
 16 18  1  0  0  0  0
 18 19  1  0  0  0  0
 19 20  1  0  0  0  0
 20 15  1  0  0  0  0
 20 21  2  0  0  0  0
 19 22  1  0  0  0  0
 22 23  1  0  0  0  0
 23 24  1  0  0  0  0
 24 25  1  0  0  0  0
 25 19  1  0  0  0  0
 12 26  1  0  0  0  0
 26 27  1  0  0  0  0
 27 10  1  0  0  0  0
 10 28  1  0  0  0  0
 28 29  1  0  0  0  0
 29 30  1  0  0  0  0
 30 31  1  0  0  0  0
 31  8  1  0  0  0  0
  5 32  2  0  0  0  0
 32 33  1  0  0  0  0
 33  3  2  0  0  0  0
 33 34  1  0  0  0  0
 34 35  2  0  0  0  0
 35 36  1  0  0  0  0
 36  2  2  0  0  0  0
 34 37  1  0  0  0  0
 12 38  1  0  0  0  0
  4 39  1  0  0  0  0
  9 40  1  0  0  0  0
  9 41  1  0  0  0  0
 11 42  1  0  0  0  0
 11 43  1  0  0  0  0
 13 44  1  0  0  0  0
 13 45  1  0  0  0  0
 14 46  1  0  0  0  0
 14 47  1  0  0  0  0
 18 48  1  0  0  0  0
 22 49  1  0  0  0  0
 22 50  1  0  0  0  0
 23 51  1  0  0  0  0
 23 52  1  0  0  0  0
 24 53  1  0  0  0  0
 24 54  1  0  0  0  0
 25 55  1  0  0  0  0
 25 56  1  0  0  0  0
 26 57  1  0  0  0  0
 26 58  1  0  0  0  0
 27 59  1  0  0  0  0
 27 60  1  0  0  0  0
 28 61  1  0  0  0  0
 28 62  1  0  0  0  0
 29 63  1  0  0  0  0
 29 64  1  0  0  0  0
 30 65  1  0  0  0  0
 30 66  1  0  0  0  0
 31 67  1  0  0  0  0
 31 68  1  0  0  0  0
 32 69  1  0  0  0  0
 35 70  1  0  0  0  0
 36 71  1  0  0  0  0
 37 72  1  0  0  0  0
 37 73  1  0  0  0  0
 37 74  1  0  0  0  0
M  CHG  1  12   1
M  END
>  <result-rank>
3

>  <similarity>
0.926

>  <query-name>


>  <query-smiles>
S1c2c(cccc2)C(C(=O)N3CCC([N@H+]4CC5(C(=O)N6N(C5=O)CCCC6)CCC4)CC3)=C1NC(=O)NC

>  <source>
REALspace_2019-12

>  <similarity-descriptor>
0.986;0.899;0.926;0.859;0.998;0.994;1.000;0.899;0.0;0.0;0.0;0.100

>  <similarity-descriptor-smiles>
N1CCCCCC1;c1cC=CN1;Fc1ccccc1;CN1C(CNC1=O)=O;C1CC[NH+](C1)C;C1CCCC1;C=O;c1cC=CN1;;;;C

>  <reaction-name>
m_275030

>  <reagent1-name>
14114078

>  <reagent1-smiles>
[R2*]N1CC2(CN([R1*])CCCC2)CC1

>  <reagent2-name>
14125982

>  <reagent2-smiles>
[R1*]C(=O)C=1Nc2c(F)ccc(c2C1)C

>  <reagent3-name>
14147198

>  <reagent3-smiles>
[R2*]CCN1C(=O)NC2(C1=O)CCCC2

$$$$
m_275030____14114236____14125180____14146146
          04022017303D 1   1.00000     0.00000     0
            
 68 72  0  0  0  0            999 V2000
    3.4718    0.3781   13.7083 O   0  0  0  0  0  0  0  0  0  0  0  0
    3.6010    0.8940   12.6077 C   0  0  0  0  0  0  0  0  0  0  0  0
    3.9855    0.0913   11.5649 N   0  0  0  0  0  0  0  0  0  0  0  0
    4.1531    0.5918   10.2997 C   0  0  0  0  0  0  0  0  0  0  0  0
    3.9389    1.9194   10.0353 C   0  0  0  0  0  0  0  0  0  0  0  0
    3.5379    2.7837   11.0937 C   0  0  0  0  0  0  0  0  0  0  0  0
    3.3675    2.2802   12.3814 C   0  0  0  0  0  0  0  0  0  0  0  0
    2.9751    3.1384   13.4065 C   0  0  0  0  0  0  0  0  0  0  0  0
    2.7466    4.4919   13.1811 C   0  0  0  0  0  0  0  0  0  0  0  0
    2.9156    4.9985   11.8964 C   0  0  0  0  0  0  0  0  0  0  0  0
    3.3080    4.1402   10.8747 C   0  0  0  0  0  0  0  0  0  0  0  0
    4.1351    2.3789    8.6733 C   0  0  0  0  0  0  0  0  0  0  0  0
    5.2132    2.7717    8.3221 O   0  0  0  0  0  0  0  0  0  0  0  0
    3.0620    2.3639    7.7648 N   0  0  0  0  0  0  0  0  0  0  0  0
    3.2275    2.8224    6.3785 C   0  0  0  0  0  0  0  0  0  0  0  0
    2.2409    2.0739    5.4965 C   0  0  3  0  0  0  0  0  0  0  0  0
    2.4676    2.4015    4.0297 C   0  0  3  0  0  0  0  0  0  0  0  0
    1.2951    1.9303    3.1975 C   0  0  0  0  0  0  0  0  0  0  0  0
    1.8489    1.8489    1.8489 N   0  3  3  0  0  0  0  0  0  0  0  0
    1.0000    1.0000    1.0000 C   0  0  0  0  0  0  0  0  0  0  0  0
    1.0912    1.4729   -0.4417 C   0  0  0  0  0  0  0  0  0  0  0  0
    1.4717    2.5845   -0.6856 O   0  0  0  0  0  0  0  0  0  0  0  0
    0.7389    0.6301   -1.4627 N   0  0  0  0  0  0  0  0  0  0  0  0
    0.2732   -0.7302   -1.1642 C   0  0  0  0  0  0  0  0  0  0  0  0
    1.2731   -1.7637   -1.5962 C   0  0  0  0  0  0  0  0  0  0  0  0
    0.0345   -1.5292   -2.4130 C   0  0  0  0  0  0  0  0  0  0  0  0
    0.8271    1.0874   -2.8569 C   0  0  0  0  0  0  0  0  0  0  0  0
   -0.4320    1.8586   -3.2178 C   0  0  0  0  0  0  0  0  0  0  0  0
    3.1287    1.1599    2.0623 C   0  0  0  0  0  0  0  0  0  0  0  0
    3.5870    1.5492    3.4582 C   0  0  0  0  0  0  0  0  0  0  0  0
    0.8406    2.5324    5.8681 C   0  0  0  0  0  0  0  0  0  0  0  0
    0.6652    2.6708    7.3731 C   0  0  0  0  0  0  0  0  0  0  0  0
    1.7214    1.8952    8.1447 C   0  0  0  0  0  0  0  0  0  0  0  0
    1.9806    2.7560    1.4490 H   0  0  0  0  0  0  0  0  0  0  0  0
    4.1473   -0.8814   11.7309 H   0  0  0  0  0  0  0  0  0  0  0  0
    4.4352   -0.0196    9.5604 H   0  0  0  0  0  0  0  0  0  0  0  0
    2.8545    2.7715   14.3289 H   0  0  0  0  0  0  0  0  0  0  0  0
    2.4654    5.0912   13.9306 H   0  0  0  0  0  0  0  0  0  0  0  0
    2.7570    5.9680   11.7098 H   0  0  0  0  0  0  0  0  0  0  0  0
    3.4289    4.5087    9.9529 H   0  0  0  0  0  0  0  0  0  0  0  0
    4.1610    2.6368    6.0718 H   0  0  0  0  0  0  0  0  0  0  0  0
    3.0483    3.8048    6.3253 H   0  0  0  0  0  0  0  0  0  0  0  0
    2.3288    1.0888    5.6445 H   0  0  0  0  0  0  0  0  0  0  0  0
    2.6441    3.3766    3.8951 H   0  0  0  0  0  0  0  0  0  0  0  0
    0.9733    1.0354    3.5068 H   0  0  0  0  0  0  0  0  0  0  0  0
    0.5419    2.5870    3.2360 H   0  0  0  0  0  0  0  0  0  0  0  0
    0.0515    1.0600    1.3111 H   0  0  0  0  0  0  0  0  0  0  0  0
    1.3111    0.0515    1.0600 H   0  0  0  0  0  0  0  0  0  0  0  0
   -0.2913   -0.8944   -0.3553 H   0  0  0  0  0  0  0  0  0  0  0  0
    1.3747   -2.6102   -1.0737 H   0  0  0  0  0  0  0  0  0  0  0  0
    2.1652   -1.4800   -1.9480 H   0  0  0  0  0  0  0  0  0  0  0  0
    0.1019   -1.0894   -3.3086 H   0  0  0  0  0  0  0  0  0  0  0  0
   -0.6886   -2.2196   -2.4343 H   0  0  0  0  0  0  0  0  0  0  0  0
    0.9185    0.2965   -3.4620 H   0  0  0  0  0  0  0  0  0  0  0  0
    1.6241    1.6821   -2.9629 H   0  0  0  0  0  0  0  0  0  0  0  0
   -0.3720    2.1698   -4.1662 H   0  0  0  0  0  0  0  0  0  0  0  0
   -1.2290    1.2640   -3.1118 H   0  0  0  0  0  0  0  0  0  0  0  0
   -0.5234    2.6495   -2.6127 H   0  0  0  0  0  0  0  0  0  0  0  0
    3.7996    1.4544    1.3817 H   0  0  0  0  0  0  0  0  0  0  0  0
    3.0045    0.1695    2.0011 H   0  0  0  0  0  0  0  0  0  0  0  0
    3.7272    0.7340    4.0201 H   0  0  0  0  0  0  0  0  0  0  0  0
    4.4374    2.0735    3.4134 H   0  0  0  0  0  0  0  0  0  0  0  0
    0.1807    1.8631    5.5266 H   0  0  0  0  0  0  0  0  0  0  0  0
    0.6674    3.4195    5.4402 H   0  0  0  0  0  0  0  0  0  0  0  0
    0.7320    3.6381    7.6181 H   0  0  0  0  0  0  0  0  0  0  0  0
   -0.2383    2.3246    7.6258 H   0  0  0  0  0  0  0  0  0  0  0  0
    1.5861    2.0362    9.1254 H   0  0  0  0  0  0  0  0  0  0  0  0
    1.6382    0.9213    7.9334 H   0  0  0  0  0  0  0  0  0  0  0  0
  1  2  2  0  0  0  0
  2  3  1  0  0  0  0
  3  4  1  0  0  0  0
  4  5  2  0  0  0  0
  5  6  1  0  0  0  0
  6  7  1  0  0  0  0
  7  2  1  0  0  0  0
  7  8  2  0  0  0  0
  8  9  1  0  0  0  0
  9 10  2  0  0  0  0
 10 11  1  0  0  0  0
 11  6  2  0  0  0  0
  5 12  1  0  0  0  0
 12 13  2  0  0  0  0
 12 14  1  0  0  0  0
 14 15  1  0  0  0  0
 15 16  1  0  0  0  0
 16 17  1  0  0  0  0
 17 18  1  0  0  0  0
 18 19  1  0  0  0  0
 19 20  1  0  0  0  0
 20 21  1  0  0  0  0
 21 22  2  0  0  0  0
 21 23  1  0  0  0  0
 23 24  1  0  0  0  0
 24 25  1  0  0  0  0
 25 26  1  0  0  0  0
 26 24  1  0  0  0  0
 23 27  1  0  0  0  0
 27 28  1  0  0  0  0
 19 29  1  0  0  0  0
 29 30  1  0  0  0  0
 30 17  1  0  0  0  0
 16 31  1  0  0  0  0
 31 32  1  0  0  0  0
 32 33  1  0  0  0  0
 33 14  1  0  0  0  0
 19 34  1  0  0  0  0
  3 35  1  0  0  0  0
  4 36  1  0  0  0  0
  8 37  1  0  0  0  0
  9 38  1  0  0  0  0
 10 39  1  0  0  0  0
 11 40  1  0  0  0  0
 15 41  1  0  0  0  0
 15 42  1  0  0  0  0
 16 43  1  0  0  0  0
 17 44  1  0  0  0  0
 18 45  1  0  0  0  0
 18 46  1  0  0  0  0
 20 47  1  0  0  0  0
 20 48  1  0  0  0  0
 24 49  1  0  0  0  0
 25 50  1  0  0  0  0
 25 51  1  0  0  0  0
 26 52  1  0  0  0  0
 26 53  1  0  0  0  0
 27 54  1  0  0  0  0
 27 55  1  0  0  0  0
 28 56  1  0  0  0  0
 28 57  1  0  0  0  0
 28 58  1  0  0  0  0
 29 59  1  0  0  0  0
 29 60  1  0  0  0  0
 30 61  1  0  0  0  0
 30 62  1  0  0  0  0
 31 63  1  0  0  0  0
 31 64  1  0  0  0  0
 32 65  1  0  0  0  0
 32 66  1  0  0  0  0
 33 67  1  0  0  0  0
 33 68  1  0  0  0  0
M  CHG  1  19   1
M  END
>  <result-rank>
4

>  <similarity>
0.925

>  <query-name>


>  <query-smiles>
S1c2c(cccc2)C(C(=O)N3CCC([N@H+]4CC5(C(=O)N6N(C5=O)CCCC6)CCC4)CC3)=C1NC(=O)NC

>  <source>
REALspace_2019-12

>  <similarity-descriptor>
0.999;0.940;1.000;0.637;0.982;0.984;1.000;0.940;0.940;0.0;0.0;0.091

>  <similarity-descriptor-smiles>
N1CCCCC1;O=C1ccC=CN1;c1ccccc1;CC=O;C1CC[NH+]C1;N(C1CC1)C;C=O;O=C1ccC=CN1;O=C1ccC=CN1;;;C

>  <reaction-name>
m_275030

>  <reagent1-name>
14114236

>  <reagent1-smiles>
[R2*]N1CC(C2CN([R1*])CCC2)CC1

>  <reagent2-name>
14125180

>  <reagent2-smiles>
[R1*]C(=O)C=1c2c(cccc2)C(=O)NC1

>  <reagent3-name>
14146146

>  <reagent3-smiles>
[R2*]CC(=O)N(C1CC1)CC

$$$$
m_275030____14114236____14128248____14146862
          04022017303D 1   1.00000     0.00000     0
            
 74 78  0  0  0  0            999 V2000
    2.1897    5.0999   13.9893 O   0  0  0  0  0  0  0  0  0  0  0  0
    2.1791    5.0808   12.7684 C   0  0  0  0  0  0  0  0  0  0  0  0
    0.9381    5.0750   12.1215 N   0  0  0  0  0  0  0  0  0  0  0  0
    0.8496    4.9765   10.6562 C   0  0  0  0  0  0  0  0  0  0  0  0
    1.9951    4.1527   10.0894 C   0  0  3  0  0  0  0  0  0  0  0  0
    3.3362    4.5732   10.6794 C   0  0  0  0  0  0  0  0  0  0  0  0
    3.4048    5.0374   11.9901 C   0  0  0  0  0  0  0  0  0  0  0  0
    4.6329    5.4409   12.5089 C   0  0  0  0  0  0  0  0  0  0  0  0
    5.8092    5.3897   11.7667 C   0  0  0  0  0  0  0  0  0  0  0  0
    5.7485    4.9060   10.4652 C   0  0  0  0  0  0  0  0  0  0  0  0
    4.5198    4.5126    9.9437 C   0  0  0  0  0  0  0  0  0  0  0  0
    1.9369    4.3127    8.5776 C   0  0  0  0  0  0  0  0  0  0  0  0
    1.5587    5.3454    8.0977 O   0  0  0  0  0  0  0  0  0  0  0  0
    2.3243    3.2557    7.7469 N   0  0  0  0  0  0  0  0  0  0  0  0
    2.3643    3.4744    6.2913 C   0  0  0  0  0  0  0  0  0  0  0  0
    2.0093    2.2159    5.5116 C   0  0  3  0  0  0  0  0  0  0  0  0
    2.3431    2.4537    4.0480 C   0  0  3  0  0  0  0  0  0  0  0  0
    1.8976    1.2796    3.2015 C   0  0  0  0  0  0  0  0  0  0  0  0
    1.8489    1.8489    1.8489 N   0  3  3  0  0  0  0  0  0  0  0  0
    1.0000    1.0000    1.0000 C   0  0  0  0  0  0  0  0  0  0  0  0
    1.0912    1.4729   -0.4417 C   0  0  0  0  0  0  0  0  0  0  0  0
    2.0201    2.1455   -0.7949 O   0  0  0  0  0  0  0  0  0  0  0  0
    0.1129    1.1313   -1.3378 N   0  0  0  0  0  0  0  0  0  0  0  0
    0.2011    1.5886   -2.7321 C   0  0  0  0  0  0  0  0  0  0  0  0
   -0.9998    1.0762   -3.5103 C   0  0  0  0  0  0  0  0  0  0  0  0
   -1.8302    0.4071   -2.9602 O   0  0  0  0  0  0  0  0  0  0  0  0
   -1.1373    1.3855   -4.8719 N   0  0  0  0  0  0  0  0  0  0  0  0
   -2.2400    0.9589   -5.7385 C   0  0  0  0  0  0  0  0  0  0  0  0
   -2.3640    2.0567   -6.7767 C   0  0  0  0  0  0  0  0  0  0  0  0
   -1.0411    2.8029   -6.7758 C   0  0  0  0  0  0  0  0  0  0  0  0
   -0.2030    2.1831   -5.6740 C   0  0  0  0  0  0  0  0  0  0  0  0
    1.1962    3.1485    2.0474 C   0  0  0  0  0  0  0  0  0  0  0  0
    1.4909    3.5704    3.4706 C   0  0  0  0  0  0  0  0  0  0  0  0
    2.7394    0.9872    6.0355 C   0  0  0  0  0  0  0  0  0  0  0  0
    2.3043    0.7872    7.4813 C   0  0  0  0  0  0  0  0  0  0  0  0
    2.6720    1.9675    8.3700 C   0  0  0  0  0  0  0  0  0  0  0  0
    2.7652    1.9542    1.4624 H   0  0  0  0  0  0  0  0  0  0  0  0
    0.0997    5.1387   12.6628 H   0  0  0  0  0  0  0  0  0  0  0  0
    0.8846    5.8961   10.2649 H   0  0  0  0  0  0  0  0  0  0  0  0
   -0.0170    4.5423   10.4104 H   0  0  0  0  0  0  0  0  0  0  0  0
    1.8366    3.1911   10.3137 H   0  0  0  0  0  0  0  0  0  0  0  0
    4.6709    5.7797   13.4490 H   0  0  0  0  0  0  0  0  0  0  0  0
    6.6769    5.6935   12.1603 H   0  0  0  0  0  0  0  0  0  0  0  0
    6.5778    4.8414    9.9101 H   0  0  0  0  0  0  0  0  0  0  0  0
    4.4838    4.1728    9.0039 H   0  0  0  0  0  0  0  0  0  0  0  0
    3.2865    3.7633    6.0341 H   0  0  0  0  0  0  0  0  0  0  0  0
    1.7116    4.1943    6.0556 H   0  0  0  0  0  0  0  0  0  0  0  0
    1.0249    2.0592    5.5919 H   0  0  0  0  0  0  0  0  0  0  0  0
    3.3176    2.6405    3.9243 H   0  0  0  0  0  0  0  0  0  0  0  0
    2.5565    0.5291    3.2523 H   0  0  0  0  0  0  0  0  0  0  0  0
    0.9967    0.9521    3.4865 H   0  0  0  0  0  0  0  0  0  0  0  0
    0.0515    1.0600    1.3111 H   0  0  0  0  0  0  0  0  0  0  0  0
    1.3111    0.0515    1.0600 H   0  0  0  0  0  0  0  0  0  0  0  0
   -0.6612    0.5708   -1.0435 H   0  0  0  0  0  0  0  0  0  0  0  0
    1.0410    1.2372   -3.1457 H   0  0  0  0  0  0  0  0  0  0  0  0
    0.2112    2.5883   -2.7550 H   0  0  0  0  0  0  0  0  0  0  0  0
   -3.0871    0.8727   -5.2141 H   0  0  0  0  0  0  0  0  0  0  0  0
   -2.0274    0.0843   -6.1744 H   0  0  0  0  0  0  0  0  0  0  0  0
   -3.1106    2.6770   -6.5361 H   0  0  0  0  0  0  0  0  0  0  0  0
   -2.5368    1.6612   -7.6788 H   0  0  0  0  0  0  0  0  0  0  0  0
   -0.5840    2.6982   -7.6590 H   0  0  0  0  0  0  0  0  0  0  0  0
   -1.1917    3.7742   -6.5915 H   0  0  0  0  0  0  0  0  0  0  0  0
    0.5096    1.5996   -6.0634 H   0  0  0  0  0  0  0  0  0  0  0  0
    0.2189    2.8955   -5.1132 H   0  0  0  0  0  0  0  0  0  0  0  0
    0.2093    3.0630    1.9106 H   0  0  0  0  0  0  0  0  0  0  0  0
    1.5646    3.8209    1.4054 H   0  0  0  0  0  0  0  0  0  0  0  0
    1.9915    4.4360    3.4834 H   0  0  0  0  0  0  0  0  0  0  0  0
    0.6422    3.6684    3.9903 H   0  0  0  0  0  0  0  0  0  0  0  0
    3.7279    1.1317    5.9920 H   0  0  0  0  0  0  0  0  0  0  0  0
    2.4954    0.1853    5.4902 H   0  0  0  0  0  0  0  0  0  0  0  0
    1.3119    0.6659    7.5036 H   0  0  0  0  0  0  0  0  0  0  0  0
    2.7486   -0.0342    7.8390 H   0  0  0  0  0  0  0  0  0  0  0  0
    2.1801    1.8848    9.2367 H   0  0  0  0  0  0  0  0  0  0  0  0
    3.6568    1.9476    8.5425 H   0  0  0  0  0  0  0  0  0  0  0  0
  1  2  2  0  0  0  0
  2  3  1  0  0  0  0
  3  4  1  0  0  0  0
  4  5  1  0  0  0  0
  5  6  1  0  0  0  0
  6  7  1  0  0  0  0
  7  2  1  0  0  0  0
  7  8  2  0  0  0  0
  8  9  1  0  0  0  0
  9 10  2  0  0  0  0
 10 11  1  0  0  0  0
 11  6  2  0  0  0  0
  5 12  1  0  0  0  0
 12 13  2  0  0  0  0
 12 14  1  0  0  0  0
 14 15  1  0  0  0  0
 15 16  1  0  0  0  0
 16 17  1  0  0  0  0
 17 18  1  0  0  0  0
 18 19  1  0  0  0  0
 19 20  1  0  0  0  0
 20 21  1  0  0  0  0
 21 22  2  0  0  0  0
 21 23  1  0  0  0  0
 23 24  1  0  0  0  0
 24 25  1  0  0  0  0
 25 26  2  0  0  0  0
 25 27  1  0  0  0  0
 27 28  1  0  0  0  0
 28 29  1  0  0  0  0
 29 30  1  0  0  0  0
 30 31  1  0  0  0  0
 31 27  1  0  0  0  0
 19 32  1  0  0  0  0
 32 33  1  0  0  0  0
 33 17  1  0  0  0  0
 16 34  1  0  0  0  0
 34 35  1  0  0  0  0
 35 36  1  0  0  0  0
 36 14  1  0  0  0  0
 19 37  1  0  0  0  0
  3 38  1  0  0  0  0
  4 39  1  0  0  0  0
  4 40  1  0  0  0  0
  5 41  1  0  0  0  0
  8 42  1  0  0  0  0
  9 43  1  0  0  0  0
 10 44  1  0  0  0  0
 11 45  1  0  0  0  0
 15 46  1  0  0  0  0
 15 47  1  0  0  0  0
 16 48  1  0  0  0  0
 17 49  1  0  0  0  0
 18 50  1  0  0  0  0
 18 51  1  0  0  0  0
 20 52  1  0  0  0  0
 20 53  1  0  0  0  0
 23 54  1  0  0  0  0
 24 55  1  0  0  0  0
 24 56  1  0  0  0  0
 28 57  1  0  0  0  0
 28 58  1  0  0  0  0
 29 59  1  0  0  0  0
 29 60  1  0  0  0  0
 30 61  1  0  0  0  0
 30 62  1  0  0  0  0
 31 63  1  0  0  0  0
 31 64  1  0  0  0  0
 32 65  1  0  0  0  0
 32 66  1  0  0  0  0
 33 67  1  0  0  0  0
 33 68  1  0  0  0  0
 34 69  1  0  0  0  0
 34 70  1  0  0  0  0
 35 71  1  0  0  0  0
 35 72  1  0  0  0  0
 36 73  1  0  0  0  0
 36 74  1  0  0  0  0
M  CHG  1  19   1
M  END
>  <result-rank>
5

>  <similarity>
0.923

>  <query-name>


>  <query-smiles>
S1c2c(cccc2)C(C(=O)N3CCC([N@H+]4CC5(C(=O)N6N(C5=O)CCCC6)CCC4)CC3)=C1NC(=O)NC

>  <source>
REALspace_2019-12

>  <similarity-descriptor>
0.999;0.857;1.000;0.792;0.936;0.999;0.999;0.857;0.857;0.0;0.0;0.0

>  <similarity-descriptor-smiles>
N1CCCCC1;O=C1ccCCN1;c1ccccc1;C(=O)NCC=O;C1CC[NH+](C1)C;N1CCCC1;C=O;O=C1ccCCN1;O=C1ccCCN1;;;

>  <reaction-name>
m_275030

>  <reagent1-name>
14114236

>  <reagent1-smiles>
[R2*]N1CC(C2CN([R1*])CCC2)CC1

>  <reagent2-name>
14128248

>  <reagent2-smiles>
[R1*]C(=O)C1c2c(cccc2)C(=O)NC1

>  <reagent3-name>
14146862

>  <reagent3-smiles>
[R2*]CC(=O)NCC(=O)N1CCCC1

$$$$
m_275030____14114032____14126114____14146516
          04022017303D 1   1.00000     0.00000     0
            
 71 74  0  0  0  0            999 V2000
   -0.4350    2.4463    0.1000 O   0  0  0  0  0  0  0  0  0  0  0  0
    0.3150    2.1865    1.0000 C   0  0  0  0  0  0  0  0  0  0  0  0
    1.0000    1.0000    1.0000 N   0  0  0  0  0  0  0  0  0  0  0  0
    2.3700    1.0000    1.0000 C   0  0  0  0  0  0  0  0  0  0  0  0
    2.9700    0.4039    1.8513 O   0  0  0  0  0  0  0  0  0  0  0  0
    3.1300    1.7550   -0.0783 C   0  0  0  0  0  0  0  0  0  0  0  0
    4.5570    1.8041    0.2712 N   0  3  3  0  0  0  0  0  0  0  0  0
    5.3744    1.8456   -0.9490 C   0  0  0  0  0  0  0  0  0  0  0  0
    6.7039    2.4046   -0.4704 C   0  0  3  0  0  0  0  0  0  0  0  0
    7.3349    3.2963   -1.5286 C   0  0  0  0  0  0  0  0  0  0  0  0
    7.2524    2.6692   -2.9129 C   0  0  0  0  0  0  0  0  0  0  0  0
    8.4104    1.7147   -3.1610 C   0  0  0  0  0  0  0  0  0  0  0  0
    9.6310    2.5297   -3.2247 N   0  0  0  0  0  0  0  0  0  0  0  0
   10.7327    2.1517   -4.0113 C   0  0  0  0  0  0  0  0  0  0  0  0
   10.6918    1.1392   -4.6541 O   0  0  0  0  0  0  0  0  0  0  0  0
   11.9167    2.9836   -4.0460 C   0  0  0  0  0  0  0  0  0  0  0  0
   11.8417    4.2815   -4.4814 N   0  0  0  0  0  0  0  0  0  0  0  0
   12.9531    5.0827   -4.5218 C   0  0  0  0  0  0  0  0  0  0  0  0
   14.1862    4.5809   -4.1145 C   0  0  0  0  0  0  0  0  0  0  0  0
   15.3017    5.4131   -4.1638 C   0  0  0  0  0  0  0  0  0  0  0  0
   15.2129    6.7276   -4.6074 C   0  0  0  0  0  0  0  0  0  0  0  0
   13.9725    7.2105   -5.0090 C   0  0  0  0  0  0  0  0  0  0  0  0
   12.8459    6.3963   -4.9678 C   0  0  0  0  0  0  0  0  0  0  0  0
   14.2692    3.2342   -3.6617 C   0  0  0  0  0  0  0  0  0  0  0  0
   15.3189    2.7301   -3.2912 O   0  0  0  0  0  0  0  0  0  0  0  0
   13.0995    2.4298   -3.6322 C   0  0  0  0  0  0  0  0  0  0  0  0
    9.6410    3.7576   -2.4219 C   0  0  0  0  0  0  0  0  0  0  0  0
    8.8057    3.4705   -1.1814 C   0  0  0  0  0  0  0  0  0  0  0  0
    6.3953    3.1546    0.8116 C   0  0  0  0  0  0  0  0  0  0  0  0
    4.8824    3.0905    0.8860 C   0  0  0  0  0  0  0  0  0  0  0  0
    0.4862    3.0763    2.0275 N   0  0  0  0  0  0  0  0  0  0  0  0
   -0.2488    4.3494    2.0275 C   0  0  0  0  0  0  0  0  0  0  0  0
    0.1185    5.1464    3.2686 C   0  0  0  0  0  0  0  0  0  0  0  0
   -0.2488    4.3494    4.5096 C   0  0  0  0  0  0  0  0  0  0  0  0
    0.1185    5.1464    5.7507 C   0  0  0  0  0  0  0  0  0  0  0  0
    4.8168    1.0395    0.8609 H   0  0  0  0  0  0  0  0  0  0  0  0
    0.5000    0.1340    1.0000 H   0  0  0  0  0  0  0  0  0  0  0  0
    3.0174    1.2874   -0.9550 H   0  0  0  0  0  0  0  0  0  0  0  0
    2.7718    2.6860   -0.1487 H   0  0  0  0  0  0  0  0  0  0  0  0
    4.9615    2.4446   -1.6350 H   0  0  0  0  0  0  0  0  0  0  0  0
    5.4897    0.9293   -1.3326 H   0  0  0  0  0  0  0  0  0  0  0  0
    7.3244    1.6473   -0.2666 H   0  0  0  0  0  0  0  0  0  0  0  0
    6.8812    4.1875   -1.5339 H   0  0  0  0  0  0  0  0  0  0  0  0
    7.2762    3.3948   -3.6006 H   0  0  0  0  0  0  0  0  0  0  0  0
    6.3927    2.1644   -2.9905 H   0  0  0  0  0  0  0  0  0  0  0  0
    8.4772    1.0538   -2.4135 H   0  0  0  0  0  0  0  0  0  0  0  0
    8.2762    1.2287   -4.0246 H   0  0  0  0  0  0  0  0  0  0  0  0
   10.9598    4.6504   -4.7750 H   0  0  0  0  0  0  0  0  0  0  0  0
   16.1893    5.0561   -3.8726 H   0  0  0  0  0  0  0  0  0  0  0  0
   16.0232    7.3128   -4.6371 H   0  0  0  0  0  0  0  0  0  0  0  0
   13.8895    8.1537   -5.3309 H   0  0  0  0  0  0  0  0  0  0  0  0
   11.9588    6.7548   -5.2586 H   0  0  0  0  0  0  0  0  0  0  0  0
   13.1381    1.4816   -3.3170 H   0  0  0  0  0  0  0  0  0  0  0  0
    9.2405    4.5128   -2.9408 H   0  0  0  0  0  0  0  0  0  0  0  0
   10.5775    3.9921   -2.1611 H   0  0  0  0  0  0  0  0  0  0  0  0
    9.1398    2.6317   -0.7515 H   0  0  0  0  0  0  0  0  0  0  0  0
    8.9007    4.2334   -0.5419 H   0  0  0  0  0  0  0  0  0  0  0  0
    6.7132    4.1013    0.7600 H   0  0  0  0  0  0  0  0  0  0  0  0
    6.8136    2.7051    1.6010 H   0  0  0  0  0  0  0  0  0  0  0  0
    4.5709    3.1203    1.8358 H   0  0  0  0  0  0  0  0  0  0  0  0
    4.4685    3.8442    0.3756 H   0  0  0  0  0  0  0  0  0  0  0  0
    1.1112    2.8598    2.7775 H   0  0  0  0  0  0  0  0  0  0  0  0
   -1.2319    4.1666    2.0275 H   0  0  0  0  0  0  0  0  0  0  0  0
   -0.0072    4.8737    1.2110 H   0  0  0  0  0  0  0  0  0  0  0  0
   -0.3815    6.0124    3.2686 H   0  0  0  0  0  0  0  0  0  0  0  0
    1.1016    5.3291    3.2686 H   0  0  0  0  0  0  0  0  0  0  0  0
    0.2512    3.4833    4.5096 H   0  0  0  0  0  0  0  0  0  0  0  0
   -1.2319    4.1666    4.5096 H   0  0  0  0  0  0  0  0  0  0  0  0
   -0.1231    4.6220    6.5672 H   0  0  0  0  0  0  0  0  0  0  0  0
    1.1016    5.3291    5.7507 H   0  0  0  0  0  0  0  0  0  0  0  0
   -0.3815    6.0124    5.7507 H   0  0  0  0  0  0  0  0  0  0  0  0
  1  2  2  0  0  0  0
  2  3  1  0  0  0  0
  3  4  1  0  0  0  0
  4  5  2  0  0  0  0
  4  6  1  0  0  0  0
  6  7  1  0  0  0  0
  7  8  1  0  0  0  0
  8  9  1  0  0  0  0
  9 10  1  0  0  0  0
 10 11  1  0  0  0  0
 11 12  1  0  0  0  0
 12 13  1  0  0  0  0
 13 14  1  0  0  0  0
 14 15  2  0  0  0  0
 14 16  1  0  0  0  0
 16 17  1  0  0  0  0
 17 18  1  0  0  0  0
 18 19  1  0  0  0  0
 19 20  2  0  0  0  0
 20 21  1  0  0  0  0
 21 22  2  0  0  0  0
 22 23  1  0  0  0  0
 23 18  2  0  0  0  0
 19 24  1  0  0  0  0
 24 25  2  0  0  0  0
 24 26  1  0  0  0  0
 16 26  2  0  0  0  0
 13 27  1  0  0  0  0
 27 28  1  0  0  0  0
 28 10  1  0  0  0  0
  9 29  1  0  0  0  0
 29 30  1  0  0  0  0
 30  7  1  0  0  0  0
  2 31  1  0  0  0  0
 31 32  1  0  0  0  0
 32 33  1  0  0  0  0
 33 34  1  0  0  0  0
 34 35  1  0  0  0  0
  7 36  1  0  0  0  0
  3 37  1  0  0  0  0
  6 38  1  0  0  0  0
  6 39  1  0  0  0  0
  8 40  1  0  0  0  0
  8 41  1  0  0  0  0
  9 42  1  0  0  0  0
 10 43  1  0  0  0  0
 11 44  1  0  0  0  0
 11 45  1  0  0  0  0
 12 46  1  0  0  0  0
 12 47  1  0  0  0  0
 17 48  1  0  0  0  0
 20 49  1  0  0  0  0
 21 50  1  0  0  0  0
 22 51  1  0  0  0  0
 23 52  1  0  0  0  0
 26 53  1  0  0  0  0
 27 54  1  0  0  0  0
 27 55  1  0  0  0  0
 28 56  1  0  0  0  0
 28 57  1  0  0  0  0
 29 58  1  0  0  0  0
 29 59  1  0  0  0  0
 30 60  1  0  0  0  0
 30 61  1  0  0  0  0
 31 62  1  0  0  0  0
 32 63  1  0  0  0  0
 32 64  1  0  0  0  0
 33 65  1  0  0  0  0
 33 66  1  0  0  0  0
 34 67  1  0  0  0  0
 34 68  1  0  0  0  0
 35 69  1  0  0  0  0
 35 70  1  0  0  0  0
 35 71  1  0  0  0  0
M  CHG  1   7   1
M  END
>  <result-rank>
6

>  <similarity>
0.922

>  <query-name>


>  <query-smiles>
S1c2c(cccc2)C(C(=O)N3CCC([N@H+]4CC5(C(=O)N6N(C5=O)CCCC6)CCC4)CC3)=C1NC(=O)NC

>  <source>
REALspace_2019-12

>  <similarity-descriptor>
0.999;0.935;0.999;0.784;0.936;0.897;1.000;0.935;0.935;0.0;0.0;0.0

>  <similarity-descriptor-smiles>
C1CCNCC1;C1=CC(ccN1)=O;c1ccccc1;O=C(NC=O)N;C[NH+]1CCCC1;CCCC;C=O;C1=CC(ccN1)=O;C1=CC(ccN1)=O;;;

>  <reaction-name>
m_275030

>  <reagent1-name>
14114032

>  <reagent1-smiles>
[R2*]N1CC(C2CCN([R1*])CC2)CC1

>  <reagent2-name>
14126114

>  <reagent2-smiles>
[R1*]C(=O)C=1Nc2c(cccc2)C(=O)C1

>  <reagent3-name>
14146516

>  <reagent3-smiles>
[R2*]CC(=O)NC(=O)NCCCC

$$$$
m_275030____14114032____14126114____14146794
          04022017303D 1   1.00000     0.00000     0
            
 78 82  0  0  0  0            999 V2000
    5.7871    2.7409    8.8500 O   0  0  0  0  0  0  0  0  0  0  0  0
    4.9728    1.8736    8.6930 C   0  0  0  0  0  0  0  0  0  0  0  0
    4.0067    1.9918    7.6791 N   0  0  0  0  0  0  0  0  0  0  0  0
    3.9582    3.1601    6.7898 C   0  0  0  0  0  0  0  0  0  0  0  0
    2.5030    3.3548    6.3926 C   0  0  0  0  0  0  0  0  0  0  0  0
    2.0092    2.2158    5.5121 C   0  0  0  0  0  0  0  0  0  0  0  0
    2.3431    2.4537    4.0480 C   0  0  3  0  0  0  0  0  0  0  0  0
    1.8976    1.2796    3.2015 C   0  0  0  0  0  0  0  0  0  0  0  0
    1.8489    1.8489    1.8489 N   0  3  3  0  0  0  0  0  0  0  0  0
    1.0000    1.0000    1.0000 C   0  0  0  0  0  0  0  0  0  0  0  0
    1.0912    1.4729   -0.4417 C   0  0  0  0  0  0  0  0  0  0  0  0
    2.1468    1.8221   -0.8929 O   0  0  0  0  0  0  0  0  0  0  0  0
   -0.0318    1.5005   -1.2259 N   0  0  0  0  0  0  0  0  0  0  0  0
   -1.3250    1.0727   -0.6731 C   0  0  3  0  0  0  0  0  0  0  0  0
   -2.1876    2.2937   -0.3987 C   0  0  0  0  0  0  0  0  0  0  0  0
   -2.0034    3.3086   -1.0120 O   0  0  0  0  0  0  0  0  0  0  0  0
   -3.2012    2.2342    0.5738 N   0  0  0  0  0  0  0  0  0  0  0  0
   -4.5506    2.7630    0.3239 C   0  0  0  0  0  0  0  0  0  0  0  0
   -5.5626    1.9615    1.1275 C   0  0  0  0  0  0  0  0  0  0  0  0
   -5.3246    2.1379    2.6182 C   0  0  0  0  0  0  0  0  0  0  0  0
   -3.8480    2.3533    2.9129 C   0  0  0  0  0  0  0  0  0  0  0  0
   -2.9675    1.6399    1.8980 C   0  0  0  0  0  0  0  0  0  0  0  0
   -2.0291    0.1691   -1.6722 C   0  0  0  0  0  0  0  0  0  0  0  0
    1.1962    3.1485    2.0474 C   0  0  0  0  0  0  0  0  0  0  0  0
    1.4909    3.5704    3.4706 C   0  0  0  0  0  0  0  0  0  0  0  0
    2.7149    0.9430    5.9550 C   0  0  0  0  0  0  0  0  0  0  0  0
    2.9956    0.9535    7.4517 C   0  0  0  0  0  0  0  0  0  0  0  0
    4.9856    0.7056    9.5479 C   0  0  0  0  0  0  0  0  0  0  0  0
    3.8965    0.3991   10.3223 N   0  0  0  0  0  0  0  0  0  0  0  0
    3.8922   -0.7023   11.1382 C   0  0  0  0  0  0  0  0  0  0  0  0
    5.0079   -1.5334   11.1891 C   0  0  0  0  0  0  0  0  0  0  0  0
    4.9810   -2.6469   12.0249 C   0  0  0  0  0  0  0  0  0  0  0  0
    3.8706   -2.9471   12.8055 C   0  0  0  0  0  0  0  0  0  0  0  0
    2.7657   -2.1056   12.7401 C   0  0  0  0  0  0  0  0  0  0  0  0
    2.7718   -0.9884   11.9121 C   0  0  0  0  0  0  0  0  0  0  0  0
    6.1410   -1.2195   10.3871 C   0  0  0  0  0  0  0  0  0  0  0  0
    7.1529   -1.9045   10.3841 O   0  0  0  0  0  0  0  0  0  0  0  0
    6.1143   -0.0709    9.5526 C   0  0  0  0  0  0  0  0  0  0  0  0
    2.7652    1.9542    1.4624 H   0  0  0  0  0  0  0  0  0  0  0  0
    4.5174    2.9966    5.9770 H   0  0  0  0  0  0  0  0  0  0  0  0
    4.2952    3.9707    7.2686 H   0  0  0  0  0  0  0  0  0  0  0  0
    1.9424    3.3928    7.2198 H   0  0  0  0  0  0  0  0  0  0  0  0
    2.4153    4.2153    5.8907 H   0  0  0  0  0  0  0  0  0  0  0  0
    1.0208    2.1093    5.6203 H   0  0  0  0  0  0  0  0  0  0  0  0
    3.3176    2.6405    3.9243 H   0  0  0  0  0  0  0  0  0  0  0  0
    2.5565    0.5291    3.2523 H   0  0  0  0  0  0  0  0  0  0  0  0
    0.9967    0.9521    3.4865 H   0  0  0  0  0  0  0  0  0  0  0  0
    0.0515    1.0600    1.3111 H   0  0  0  0  0  0  0  0  0  0  0  0
    1.3111    0.0515    1.0600 H   0  0  0  0  0  0  0  0  0  0  0  0
    0.0282    1.8116   -2.1744 H   0  0  0  0  0  0  0  0  0  0  0  0
   -1.1740    0.5728    0.1797 H   0  0  0  0  0  0  0  0  0  0  0  0
   -4.7634    2.6881   -0.6503 H   0  0  0  0  0  0  0  0  0  0  0  0
   -4.5895    3.7231    0.6008 H   0  0  0  0  0  0  0  0  0  0  0  0
   -5.4753    0.9933    0.8933 H   0  0  0  0  0  0  0  0  0  0  0  0
   -6.4845    2.2770    0.9025 H   0  0  0  0  0  0  0  0  0  0  0  0
   -5.6379    1.3187    3.0985 H   0  0  0  0  0  0  0  0  0  0  0  0
   -5.8414    2.9312    2.9402 H   0  0  0  0  0  0  0  0  0  0  0  0
   -3.6502    3.3331    2.8830 H   0  0  0  0  0  0  0  0  0  0  0  0
   -3.6439    1.9997    3.8257 H   0  0  0  0  0  0  0  0  0  0  0  0
   -2.0061    1.7484    2.1510 H   0  0  0  0  0  0  0  0  0  0  0  0
   -3.1987    0.6672    1.8762 H   0  0  0  0  0  0  0  0  0  0  0  0
   -2.9088   -0.1219   -1.2961 H   0  0  0  0  0  0  0  0  0  0  0  0
   -2.1801    0.6690   -2.5250 H   0  0  0  0  0  0  0  0  0  0  0  0
   -1.4616   -0.6342   -1.8527 H   0  0  0  0  0  0  0  0  0  0  0  0
    0.2093    3.0630    1.9106 H   0  0  0  0  0  0  0  0  0  0  0  0
    1.5646    3.8209    1.4054 H   0  0  0  0  0  0  0  0  0  0  0  0
    1.9915    4.4360    3.4834 H   0  0  0  0  0  0  0  0  0  0  0  0
    0.6422    3.6684    3.9903 H   0  0  0  0  0  0  0  0  0  0  0  0
    3.5814    0.8635    5.4623 H   0  0  0  0  0  0  0  0  0  0  0  0
    2.1350    0.1576    5.7385 H   0  0  0  0  0  0  0  0  0  0  0  0
    2.1604    1.1678    7.9583 H   0  0  0  0  0  0  0  0  0  0  0  0
    3.3435    0.0627    7.7441 H   0  0  0  0  0  0  0  0  0  0  0  0
    3.0904    0.9900   10.2913 H   0  0  0  0  0  0  0  0  0  0  0  0
    5.7808   -3.2459   12.0646 H   0  0  0  0  0  0  0  0  0  0  0  0
    3.8665   -3.7505   13.4009 H   0  0  0  0  0  0  0  0  0  0  0  0
    1.9579   -2.3060   13.2944 H   0  0  0  0  0  0  0  0  0  0  0  0
    1.9711   -0.3906   11.8728 H   0  0  0  0  0  0  0  0  0  0  0  0
    6.9006    0.1656    8.9818 H   0  0  0  0  0  0  0  0  0  0  0  0
  1  2  2  0  0  0  0
  2  3  1  0  0  0  0
  3  4  1  0  0  0  0
  4  5  1  0  0  0  0
  5  6  1  0  0  0  0
  6  7  1  0  0  0  0
  7  8  1  0  0  0  0
  8  9  1  0  0  0  0
  9 10  1  0  0  0  0
 10 11  1  0  0  0  0
 11 12  2  0  0  0  0
 11 13  1  0  0  0  0
 13 14  1  0  0  0  0
 14 15  1  0  0  0  0
 15 16  2  0  0  0  0
 15 17  1  0  0  0  0
 17 18  1  0  0  0  0
 18 19  1  0  0  0  0
 19 20  1  0  0  0  0
 20 21  1  0  0  0  0
 21 22  1  0  0  0  0
 22 17  1  0  0  0  0
 14 23  1  0  0  0  0
  9 24  1  0  0  0  0
 24 25  1  0  0  0  0
 25  7  1  0  0  0  0
  6 26  1  0  0  0  0
 26 27  1  0  0  0  0
 27  3  1  0  0  0  0
  2 28  1  0  0  0  0
 28 29  1  0  0  0  0
 29 30  1  0  0  0  0
 30 31  1  0  0  0  0
 31 32  2  0  0  0  0
 32 33  1  0  0  0  0
 33 34  2  0  0  0  0
 34 35  1  0  0  0  0
 35 30  2  0  0  0  0
 31 36  1  0  0  0  0
 36 37  2  0  0  0  0
 36 38  1  0  0  0  0
 28 38  2  0  0  0  0
  9 39  1  0  0  0  0
  4 40  1  0  0  0  0
  4 41  1  0  0  0  0
  5 42  1  0  0  0  0
  5 43  1  0  0  0  0
  6 44  1  0  0  0  0
  7 45  1  0  0  0  0
  8 46  1  0  0  0  0
  8 47  1  0  0  0  0
 10 48  1  0  0  0  0
 10 49  1  0  0  0  0
 13 50  1  0  0  0  0
 14 51  1  0  0  0  0
 18 52  1  0  0  0  0
 18 53  1  0  0  0  0
 19 54  1  0  0  0  0
 19 55  1  0  0  0  0
 20 56  1  0  0  0  0
 20 57  1  0  0  0  0
 21 58  1  0  0  0  0
 21 59  1  0  0  0  0
 22 60  1  0  0  0  0
 22 61  1  0  0  0  0
 23 62  1  0  0  0  0
 23 63  1  0  0  0  0
 23 64  1  0  0  0  0
 24 65  1  0  0  0  0
 24 66  1  0  0  0  0
 25 67  1  0  0  0  0
 25 68  1  0  0  0  0
 26 69  1  0  0  0  0
 26 70  1  0  0  0  0
 27 71  1  0  0  0  0
 27 72  1  0  0  0  0
 29 73  1  0  0  0  0
 32 74  1  0  0  0  0
 33 75  1  0  0  0  0
 34 76  1  0  0  0  0
 35 77  1  0  0  0  0
 38 78  1  0  0  0  0
M  CHG  1   9   1
M  END
>  <result-rank>
7

>  <similarity>
0.920

>  <query-name>


>  <query-smiles>
S1c2c(cccc2)C(C(=O)N3CCC([N@H+]4CC5(C(=O)N6N(C5=O)CCCC6)CCC4)CC3)=C1NC(=O)NC

>  <source>
REALspace_2019-12

>  <similarity-descriptor>
0.999;0.935;0.999;0.804;0.936;0.892;1.000;0.935;0.935;0.0;0.0;0.083

>  <similarity-descriptor-smiles>
N1CCCCC1;C1=CC(ccN1)=O;c1ccccc1;C(=O)NCC=O;C1CC[NH+](C1)C;N1CCCCC1;O=C;C1=CC(ccN1)=O;C1=CC(ccN1)=O;;;C

>  <reaction-name>
m_275030

>  <reagent1-name>
14114032

>  <reagent1-smiles>
[R2*]N1CC(C2CCN([R1*])CC2)CC1

>  <reagent2-name>
14126114

>  <reagent2-smiles>
[R1*]C(=O)C=1Nc2c(cccc2)C(=O)C1

>  <reagent3-name>
14146794

>  <reagent3-smiles>
[R2*]CC(=O)NC(C(=O)N1CCCCC1)C

$$$$
m_275030____14114236____14125180____14146632
          04022017303D 1   1.00000     0.00000     0
            
 64 68  0  0  0  0            999 V2000
   -4.9625    3.8651   -4.6308 O   0  0  0  0  0  0  0  0  0  0  0  0
   -4.3404    3.8183   -3.5796 C   0  0  0  0  0  0  0  0  0  0  0  0
   -4.0947    2.5844   -3.0349 N   0  0  0  0  0  0  0  0  0  0  0  0
   -3.4045    2.4452   -1.8587 C   0  0  0  0  0  0  0  0  0  0  0  0
   -2.9339    3.5428   -1.1861 C   0  0  0  0  0  0  0  0  0  0  0  0
   -3.1696    4.8409   -1.7220 C   0  0  0  0  0  0  0  0  0  0  0  0
   -3.8716    4.9877   -2.9164 C   0  0  0  0  0  0  0  0  0  0  0  0
   -4.0944    6.2644   -3.4279 C   0  0  0  0  0  0  0  0  0  0  0  0
   -3.6335    7.4045   -2.7776 C   0  0  0  0  0  0  0  0  0  0  0  0
   -2.9319    7.2620   -1.5847 C   0  0  0  0  0  0  0  0  0  0  0  0
   -2.7111    5.9866   -1.0755 C   0  0  0  0  0  0  0  0  0  0  0  0
   -2.2118    3.3199    0.0522 C   0  0  0  0  0  0  0  0  0  0  0  0
   -2.8050    3.2848    1.0947 O   0  0  0  0  0  0  0  0  0  0  0  0
   -0.8237    3.1460    0.0310 N   0  0  0  0  0  0  0  0  0  0  0  0
   -0.1166    2.9215    1.3029 C   0  0  0  0  0  0  0  0  0  0  0  0
    1.2839    3.5183    1.2943 C   0  0  3  0  0  0  0  0  0  0  0  0
    2.0264    3.0056    2.5174 C   0  0  3  0  0  0  0  0  0  0  0  0
    2.1200    1.4943    2.4902 C   0  0  0  0  0  0  0  0  0  0  0  0
    3.2207    1.2161    3.4213 N   0  3  3  0  0  0  0  0  0  0  0  0
    3.7451   -0.1319    3.1570 C   0  0  0  0  0  0  0  0  0  0  0  0
    4.8858   -0.4290    4.1168 C   0  0  0  0  0  0  0  0  0  0  0  0
    5.4120   -1.7817    3.8515 N   0  0  0  0  0  0  0  0  0  0  0  0
    6.4389   -2.0664    2.9589 C   0  0  0  0  0  0  0  0  0  0  0  0
    6.9849   -1.2357    2.2513 O   0  0  0  0  0  0  0  0  0  0  0  0
    6.7941   -3.5385    2.9938 C   0  0  0  0  0  0  0  0  0  0  0  0
    5.6925   -4.1603    3.8293 C   0  0  0  0  0  0  0  0  0  0  0  0
    4.9666   -2.9753    4.4386 C   0  0  0  0  0  0  0  0  0  0  0  0
    4.1063   -3.0647    5.3073 O   0  0  0  0  0  0  0  0  0  0  0  0
    4.2351    2.2138    3.0607 C   0  0  0  0  0  0  0  0  0  0  0  0
    3.4945    3.3904    2.4629 C   0  0  0  0  0  0  0  0  0  0  0  0
    2.0478    3.1796    0.0220 C   0  0  0  0  0  0  0  0  0  0  0  0
    1.2707    3.7785   -1.1429 C   0  0  0  0  0  0  0  0  0  0  0  0
   -0.1319    3.1993   -1.2679 C   0  0  0  0  0  0  0  0  0  0  0  0
    2.9301    1.3163    4.3729 H   0  0  0  0  0  0  0  0  0  0  0  0
   -4.4265    1.7673   -3.5063 H   0  0  0  0  0  0  0  0  0  0  0  0
   -3.2424    1.5312   -1.4867 H   0  0  0  0  0  0  0  0  0  0  0  0
   -4.5991    6.3639   -4.2855 H   0  0  0  0  0  0  0  0  0  0  0  0
   -3.8038    8.3120   -3.1615 H   0  0  0  0  0  0  0  0  0  0  0  0
   -2.5905    8.0668   -1.0992 H   0  0  0  0  0  0  0  0  0  0  0  0
   -2.2069    5.8889   -0.2174 H   0  0  0  0  0  0  0  0  0  0  0  0
   -0.0462    1.9369    1.4630 H   0  0  0  0  0  0  0  0  0  0  0  0
   -0.6418    3.3427    2.0422 H   0  0  0  0  0  0  0  0  0  0  0  0
    1.2062    4.5129    1.3633 H   0  0  0  0  0  0  0  0  0  0  0  0
    1.5987    3.3271    3.3622 H   0  0  0  0  0  0  0  0  0  0  0  0
    1.2682    1.0756    2.8049 H   0  0  0  0  0  0  0  0  0  0  0  0
    2.3342    1.1638    1.5710 H   0  0  0  0  0  0  0  0  0  0  0  0
    4.0800   -0.1808    2.2160 H   0  0  0  0  0  0  0  0  0  0  0  0
    3.0165   -0.8044    3.2868 H   0  0  0  0  0  0  0  0  0  0  0  0
    5.6144    0.2435    3.9869 H   0  0  0  0  0  0  0  0  0  0  0  0
    4.5509   -0.3802    5.0578 H   0  0  0  0  0  0  0  0  0  0  0  0
    7.6871   -3.6788    3.4213 H   0  0  0  0  0  0  0  0  0  0  0  0
    6.8018   -3.9245    2.0713 H   0  0  0  0  0  0  0  0  0  0  0  0
    5.0740   -4.6976    3.2560 H   0  0  0  0  0  0  0  0  0  0  0  0
    6.0773   -4.7450    4.5436 H   0  0  0  0  0  0  0  0  0  0  0  0
    4.8720    1.8313    2.3914 H   0  0  0  0  0  0  0  0  0  0  0  0
    4.7399    2.5017    3.8745 H   0  0  0  0  0  0  0  0  0  0  0  0
    3.6603    4.2182    2.9989 H   0  0  0  0  0  0  0  0  0  0  0  0
    3.7824    3.5424    1.5173 H   0  0  0  0  0  0  0  0  0  0  0  0
    2.1138    2.1874   -0.0841 H   0  0  0  0  0  0  0  0  0  0  0  0
    2.9666    3.5727    0.0591 H   0  0  0  0  0  0  0  0  0  0  0  0
    1.1986    4.7664   -1.0061 H   0  0  0  0  0  0  0  0  0  0  0  0
    1.7701    3.5948   -1.9896 H   0  0  0  0  0  0  0  0  0  0  0  0
   -0.6629    3.7710   -1.8934 H   0  0  0  0  0  0  0  0  0  0  0  0
   -0.0669    2.2724   -1.6375 H   0  0  0  0  0  0  0  0  0  0  0  0
  1  2  2  0  0  0  0
  2  3  1  0  0  0  0
  3  4  1  0  0  0  0
  4  5  2  0  0  0  0
  5  6  1  0  0  0  0
  6  7  1  0  0  0  0
  7  2  1  0  0  0  0
  7  8  2  0  0  0  0
  8  9  1  0  0  0  0
  9 10  2  0  0  0  0
 10 11  1  0  0  0  0
 11  6  2  0  0  0  0
  5 12  1  0  0  0  0
 12 13  2  0  0  0  0
 12 14  1  0  0  0  0
 14 15  1  0  0  0  0
 15 16  1  0  0  0  0
 16 17  1  0  0  0  0
 17 18  1  0  0  0  0
 18 19  1  0  0  0  0
 19 20  1  0  0  0  0
 20 21  1  0  0  0  0
 21 22  1  0  0  0  0
 22 23  1  0  0  0  0
 23 24  2  0  0  0  0
 23 25  1  0  0  0  0
 25 26  1  0  0  0  0
 26 27  1  0  0  0  0
 27 22  1  0  0  0  0
 27 28  2  0  0  0  0
 19 29  1  0  0  0  0
 29 30  1  0  0  0  0
 30 17  1  0  0  0  0
 16 31  1  0  0  0  0
 31 32  1  0  0  0  0
 32 33  1  0  0  0  0
 33 14  1  0  0  0  0
 19 34  1  0  0  0  0
  3 35  1  0  0  0  0
  4 36  1  0  0  0  0
  8 37  1  0  0  0  0
  9 38  1  0  0  0  0
 10 39  1  0  0  0  0
 11 40  1  0  0  0  0
 15 41  1  0  0  0  0
 15 42  1  0  0  0  0
 16 43  1  0  0  0  0
 17 44  1  0  0  0  0
 18 45  1  0  0  0  0
 18 46  1  0  0  0  0
 20 47  1  0  0  0  0
 20 48  1  0  0  0  0
 21 49  1  0  0  0  0
 21 50  1  0  0  0  0
 25 51  1  0  0  0  0
 25 52  1  0  0  0  0
 26 53  1  0  0  0  0
 26 54  1  0  0  0  0
 29 55  1  0  0  0  0
 29 56  1  0  0  0  0
 30 57  1  0  0  0  0
 30 58  1  0  0  0  0
 31 59  1  0  0  0  0
 31 60  1  0  0  0  0
 32 61  1  0  0  0  0
 32 62  1  0  0  0  0
 33 63  1  0  0  0  0
 33 64  1  0  0  0  0
M  CHG  1  19   1
M  END
>  <result-rank>
8

>  <similarity>
0.918

>  <query-name>


>  <query-smiles>
S1c2c(cccc2)C(C(=O)N3CCC([N@H+]4CC5(C(=O)N6N(C5=O)CCCC6)CCC4)CC3)=C1NC(=O)NC

>  <source>
REALspace_2019-12

>  <similarity-descriptor>
0.999;0.940;1.000;0.850;0.867;0.850;1.000;0.940;0.940;0.0;0.0;0.0

>  <similarity-descriptor-smiles>
N1CCCCC1;O=C1ccC=CN1;c1ccccc1;N1C(CCC1=O)=O;C1CC[NH+](C1)CC;N1C(CCC1=O)=O;C=O;O=C1ccC=CN1;O=C1ccC=CN1;;;

>  <reaction-name>
m_275030

>  <reagent1-name>
14114236

>  <reagent1-smiles>
[R2*]N1CC(C2CN([R1*])CCC2)CC1

>  <reagent2-name>
14125180

>  <reagent2-smiles>
[R1*]C(=O)C=1c2c(cccc2)C(=O)NC1

>  <reagent3-name>
14146632

>  <reagent3-smiles>
[R2*]CCN1C(=O)CCC1=O

$$$$
m_275030____14114196____14123524____14147198
          04022017303D 1   1.00000     0.00000     0
            
 72 77  0  0  0  0            999 V2000
   -5.3139    0.5919    1.7897 O   0  0  0  0  0  0  0  0  0  0  0  0
   -5.7284    1.7250    1.9822 C   0  0  0  0  0  0  0  0  0  0  0  0
   -5.0174    2.7422    2.6183 N   0  0  0  0  0  0  0  0  0  0  0  0
   -5.7653    3.9183    2.6751 C   0  0  0  0  0  0  0  0  0  0  0  0
   -5.4234    4.9872    3.1678 O   0  0  0  0  0  0  0  0  0  0  0  0
   -7.0839    3.5935    2.0075 C   0  0  0  0  0  0  0  0  0  0  0  0
   -6.9885    2.1873    1.6012 N   0  0  0  0  0  0  0  0  0  0  0  0
   -8.2552    3.9894    2.8822 C   0  0  0  0  0  0  0  0  0  0  0  0
   -9.4459    3.9688    1.9451 C   0  0  0  0  0  0  0  0  0  0  0  0
   -8.8628    4.4360    0.6278 C   0  0  0  0  0  0  0  0  0  0  0  0
   -7.3736    4.5589    0.8807 C   0  0  0  0  0  0  0  0  0  0  0  0
   -3.6573    2.6025    3.1569 C   0  0  0  0  0  0  0  0  0  0  0  0
   -2.6466    2.9648    2.0809 C   0  0  0  0  0  0  0  0  0  0  0  0
   -1.2870    2.8251    2.6192 N   0  3  3  0  0  0  0  0  0  0  0  0
   -0.3500    3.1824    1.5536 C   0  0  0  0  0  0  0  0  0  0  0  0
    0.9259    2.4201    1.8882 C   0  0  3  0  0  0  0  0  0  0  0  0
    0.5317    1.3809    2.9250 C   0  0  3  0  0  0  0  0  0  0  0  0
   -0.9806    1.4088    2.8317 C   0  0  0  0  0  0  0  0  0  0  0  0
    1.1165    0.0147    2.5972 C   0  0  0  0  0  0  0  0  0  0  0  0
    2.5893    0.0277    2.9739 C   0  0  0  0  0  0  0  0  0  0  0  0
    3.3344    1.0727    2.2557 N   0  0  0  0  0  0  0  0  0  0  0  0
    4.0546    0.7944    1.0865 C   0  0  0  0  0  0  0  0  0  0  0  0
    4.8257    1.6036    0.6499 O   0  0  0  0  0  0  0  0  0  0  0  0
    3.8682   -0.4716    0.4040 C   0  0  0  0  0  0  0  0  0  0  0  0
    4.8463   -1.3946    0.1766 N   0  0  0  0  0  0  0  0  0  0  0  0
    4.2770   -2.4403   -0.4868 C   0  0  0  0  0  0  0  0  0  0  0  0
    4.9759   -3.6358   -0.9179 C   0  0  0  0  0  0  0  0  0  0  0  0
    4.3118   -4.8580   -0.9236 C   0  0  0  0  0  0  0  0  0  0  0  0
    4.9862   -6.0023   -1.3370 C   0  0  0  0  0  0  0  0  0  0  0  0
    6.3143   -5.9189   -1.7418 C   0  0  0  0  0  0  0  0  0  0  0  0
    6.9674   -4.6926   -1.7324 C   0  0  0  0  0  0  0  0  0  0  0  0
    6.3043   -3.5412   -1.3206 C   0  0  0  0  0  0  0  0  0  0  0  0
    2.9515   -2.1909   -0.6824 C   0  0  0  0  0  0  0  0  0  0  0  0
    2.6895   -0.9251   -0.1091 C   0  0  0  0  0  0  0  0  0  0  0  0
    3.2798    2.4275    2.8316 C   0  0  0  0  0  0  0  0  0  0  0  0
    2.1447    3.2569    2.2479 C   0  0  0  0  0  0  0  0  0  0  0  0
   -1.1482    3.3713    3.4452 H   0  0  0  0  0  0  0  0  0  0  0  0
   -7.6972    1.6568    1.1362 H   0  0  0  0  0  0  0  0  0  0  0  0
   -8.1198    4.9042    3.2628 H   0  0  0  0  0  0  0  0  0  0  0  0
   -8.3790    3.3335    3.6268 H   0  0  0  0  0  0  0  0  0  0  0  0
  -10.1611    4.5921    2.2612 H   0  0  0  0  0  0  0  0  0  0  0  0
   -9.8209    3.0454    1.8631 H   0  0  0  0  0  0  0  0  0  0  0  0
   -9.0429    3.7672   -0.0935 H   0  0  0  0  0  0  0  0  0  0  0  0
   -9.2491    5.3205    0.3663 H   0  0  0  0  0  0  0  0  0  0  0  0
   -6.8567    4.3082    0.0622 H   0  0  0  0  0  0  0  0  0  0  0  0
   -7.1392    5.4930    1.1499 H   0  0  0  0  0  0  0  0  0  0  0  0
   -3.5096    1.6574    3.4483 H   0  0  0  0  0  0  0  0  0  0  0  0
   -3.5443    3.2142    3.9398 H   0  0  0  0  0  0  0  0  0  0  0  0
   -2.7596    2.3530    1.2979 H   0  0  0  0  0  0  0  0  0  0  0  0
   -2.7943    3.9099    1.7894 H   0  0  0  0  0  0  0  0  0  0  0  0
   -0.1808    4.1680    1.5487 H   0  0  0  0  0  0  0  0  0  0  0  0
   -0.7056    2.9008    0.6624 H   0  0  0  0  0  0  0  0  0  0  0  0
    1.1710    1.9113    1.0629 H   0  0  0  0  0  0  0  0  0  0  0  0
    0.8264    1.6727    3.8350 H   0  0  0  0  0  0  0  0  0  0  0  0
   -1.3011    0.8550    2.0631 H   0  0  0  0  0  0  0  0  0  0  0  0
   -1.3967    1.0766    3.6782 H   0  0  0  0  0  0  0  0  0  0  0  0
    1.0185   -0.1700    1.6193 H   0  0  0  0  0  0  0  0  0  0  0  0
    0.6394   -0.6922    3.1194 H   0  0  0  0  0  0  0  0  0  0  0  0
    2.6694    0.1924    3.9570 H   0  0  0  0  0  0  0  0  0  0  0  0
    2.9870   -0.8625    2.7517 H   0  0  0  0  0  0  0  0  0  0  0  0
    5.8059   -1.3181    0.4472 H   0  0  0  0  0  0  0  0  0  0  0  0
    3.3566   -4.9137   -0.6328 H   0  0  0  0  0  0  0  0  0  0  0  0
    4.5161   -6.8849   -1.3431 H   0  0  0  0  0  0  0  0  0  0  0  0
    6.7990   -6.7413   -2.0395 H   0  0  0  0  0  0  0  0  0  0  0  0
    7.9224   -4.6372   -2.0241 H   0  0  0  0  0  0  0  0  0  0  0  0
    6.7751   -2.6590   -1.3142 H   0  0  0  0  0  0  0  0  0  0  0  0
    2.2927   -2.7867   -1.1417 H   0  0  0  0  0  0  0  0  0  0  0  0
    1.8083   -0.4530   -0.0847 H   0  0  0  0  0  0  0  0  0  0  0  0
    4.1459    2.8914    2.6455 H   0  0  0  0  0  0  0  0  0  0  0  0
    3.1478    2.3519    3.8200 H   0  0  0  0  0  0  0  0  0  0  0  0
    1.8726    3.9444    2.9212 H   0  0  0  0  0  0  0  0  0  0  0  0
    2.4746    3.7125    1.4210 H   0  0  0  0  0  0  0  0  0  0  0  0
  1  2  2  0  0  0  0
  2  3  1  0  0  0  0
  3  4  1  0  0  0  0
  4  5  2  0  0  0  0
  4  6  1  0  0  0  0
  6  7  1  0  0  0  0
  7  2  1  0  0  0  0
  6  8  1  0  0  0  0
  8  9  1  0  0  0  0
  9 10  1  0  0  0  0
 10 11  1  0  0  0  0
 11  6  1  0  0  0  0
  3 12  1  0  0  0  0
 12 13  1  0  0  0  0
 13 14  1  0  0  0  0
 14 15  1  0  0  0  0
 15 16  1  0  0  0  0
 16 17  1  0  0  0  0
 17 18  1  0  0  0  0
 18 14  1  0  0  0  0
 17 19  1  0  0  0  0
 19 20  1  0  0  0  0
 20 21  1  0  0  0  0
 21 22  1  0  0  0  0
 22 23  2  0  0  0  0
 22 24  1  0  0  0  0
 24 25  1  0  0  0  0
 25 26  1  0  0  0  0
 26 27  1  0  0  0  0
 27 28  1  0  0  0  0
 28 29  2  0  0  0  0
 29 30  1  0  0  0  0
 30 31  2  0  0  0  0
 31 32  1  0  0  0  0
 32 27  2  0  0  0  0
 26 33  2  0  0  0  0
 33 34  1  0  0  0  0
 24 34  2  0  0  0  0
 21 35  1  0  0  0  0
 35 36  1  0  0  0  0
 36 16  1  0  0  0  0
 14 37  1  0  0  0  0
  7 38  1  0  0  0  0
  8 39  1  0  0  0  0
  8 40  1  0  0  0  0
  9 41  1  0  0  0  0
  9 42  1  0  0  0  0
 10 43  1  0  0  0  0
 10 44  1  0  0  0  0
 11 45  1  0  0  0  0
 11 46  1  0  0  0  0
 12 47  1  0  0  0  0
 12 48  1  0  0  0  0
 13 49  1  0  0  0  0
 13 50  1  0  0  0  0
 15 51  1  0  0  0  0
 15 52  1  0  0  0  0
 16 53  1  0  0  0  0
 17 54  1  0  0  0  0
 18 55  1  0  0  0  0
 18 56  1  0  0  0  0
 19 57  1  0  0  0  0
 19 58  1  0  0  0  0
 20 59  1  0  0  0  0
 20 60  1  0  0  0  0
 25 61  1  0  0  0  0
 28 62  1  0  0  0  0
 29 63  1  0  0  0  0
 30 64  1  0  0  0  0
 31 65  1  0  0  0  0
 32 66  1  0  0  0  0
 33 67  1  0  0  0  0
 34 68  1  0  0  0  0
 35 69  1  0  0  0  0
 35 70  1  0  0  0  0
 36 71  1  0  0  0  0
 36 72  1  0  0  0  0
M  CHG  1  14   1
M  END
>  <result-rank>
9

>  <similarity>
0.916

>  <query-name>


>  <query-smiles>
S1c2c(cccc2)C(C(=O)N3CCC([N@H+]4CC5(C(=O)N6N(C5=O)CCCC6)CCC4)CC3)=C1NC(=O)NC

>  <source>
REALspace_2019-12

>  <similarity-descriptor>
0.935;0.882;0.942;0.924;0.894;0.994;1.000;0.882;0.0;0.0;0.0;0.0

>  <similarity-descriptor-smiles>
C1CCNCCC1;C1=CC=CN1;c1ccccc1;O=C1NCC(N1)=O;CC[NH+]1CCCC1;C1CCCC1;C=O;C1=CC=CN1;;;;

>  <reaction-name>
m_275030

>  <reagent1-name>
14114196

>  <reagent1-smiles>
[R2*]N1CC2C(C1)CCN([R1*])CC2

>  <reagent2-name>
14123524

>  <reagent2-smiles>
[R1*]C(=O)C=1NC(c2ccccc2)=CC1

>  <reagent3-name>
14147198

>  <reagent3-smiles>
[R2*]CCN1C(=O)NC2(C1=O)CCCC2

$$$$
s_22____4971012____138882
          04022017303D 1   1.00000     0.00000     0
            
 65 68  0  0  0  0            999 V2000
    1.2913   -0.5676    4.2455 O   0  0  0  0  0  0  0  0  0  0  0  0
    2.3665   -0.0710    4.4388 C   0  0  0  0  0  0  0  0  0  0  0  0
    3.1762   -0.5880    5.3294 O   0  0  0  0  0  0  0  0  0  0  0  0
    2.7816   -1.7361    6.0660 C   0  0  0  0  0  0  0  0  0  0  0  0
    1.5202   -1.4234    6.8543 C   0  0  0  0  0  0  0  0  0  0  0  0
    2.5087   -2.8839    5.1076 C   0  0  0  0  0  0  0  0  0  0  0  0
    3.8935   -2.1299    7.0246 C   0  0  0  0  0  0  0  0  0  0  0  0
    2.7553    1.0603    3.7129 N   0  0  0  0  0  0  0  0  0  0  0  0
    4.0808    1.6419    3.9769 C   0  0  0  0  0  0  0  0  0  0  0  0
    4.0751    3.1516    3.7908 C   0  0  0  0  0  0  0  0  0  0  0  0
    3.3824    3.5502    2.5542 N   0  3  0  0  0  0  0  0  0  0  0  0
    3.3997    5.0201    2.5065 C   0  0  3  0  0  0  0  0  0  0  0  0
    4.8248    5.5478    2.4967 C   0  0  0  0  0  0  0  0  0  0  0  0
    4.7825    7.0041    2.3002 N   0  0  0  0  0  0  0  0  0  0  0  0
    5.8353    7.6858    1.6674 C   0  0  0  0  0  0  0  0  0  0  0  0
    6.7932    7.0787    1.2751 O   0  0  0  0  0  0  0  0  0  0  0  0
    5.7646    9.1204    1.4885 C   0  0  0  0  0  0  0  0  0  0  0  0
    4.7459    9.6809    0.7621 N   0  0  0  0  0  0  0  0  0  0  0  0
    4.6645   11.0373    0.5819 C   0  0  0  0  0  0  0  0  0  0  0  0
    5.6274   11.8716    1.1431 C   0  0  0  0  0  0  0  0  0  0  0  0
    5.5243   13.2465    0.9473 C   0  0  0  0  0  0  0  0  0  0  0  0
    4.4865   13.8029    0.2085 C   0  0  0  0  0  0  0  0  0  0  0  0
    3.5342   12.9532   -0.3432 C   0  0  0  0  0  0  0  0  0  0  0  0
    3.6184   11.5773   -0.1598 C   0  0  0  0  0  0  0  0  0  0  0  0
    6.6869   11.2945    1.8981 C   0  0  0  0  0  0  0  0  0  0  0  0
    7.5652   11.9674    2.4168 O   0  0  0  0  0  0  0  0  0  0  0  0
    6.7433    9.8856    2.0661 C   0  0  0  0  0  0  0  0  0  0  0  0
    3.5909    7.7096    2.7970 C   0  0  0  0  0  0  0  0  0  0  0  0
    3.0591    6.9980    4.0338 C   0  0  0  0  0  0  0  0  0  0  0  0
    2.6877    5.5493    3.7432 C   0  0  0  0  0  0  0  0  0  0  0  0
    1.9698    3.1393    2.6183 C   0  0  0  0  0  0  0  0  0  0  0  0
    1.8216    1.6287    2.7272 C   0  0  0  0  0  0  0  0  0  0  0  0
    3.8323    3.1608    1.7506 H   0  0  0  0  0  0  0  0  0  0  0  0
    1.2423   -2.2319    7.3731 H   0  0  0  0  0  0  0  0  0  0  0  0
    1.6997   -0.6683    7.4848 H   0  0  0  0  0  0  0  0  0  0  0  0
    0.7886   -1.1644    6.2236 H   0  0  0  0  0  0  0  0  0  0  0  0
    2.2308   -3.6924    5.6264 H   0  0  0  0  0  0  0  0  0  0  0  0
    1.7772   -2.6248    4.4770 H   0  0  0  0  0  0  0  0  0  0  0  0
    3.3386   -3.0896    4.5890 H   0  0  0  0  0  0  0  0  0  0  0  0
    3.6157   -2.9384    7.5434 H   0  0  0  0  0  0  0  0  0  0  0  0
    4.7234   -2.3356    6.5060 H   0  0  0  0  0  0  0  0  0  0  0  0
    4.0731   -1.3748    7.6551 H   0  0  0  0  0  0  0  0  0  0  0  0
    4.7437    1.2393    3.3456 H   0  0  0  0  0  0  0  0  0  0  0  0
    4.3463    1.4315    4.9178 H   0  0  0  0  0  0  0  0  0  0  0  0
    3.6113    3.5717    4.5709 H   0  0  0  0  0  0  0  0  0  0  0  0
    5.0202    3.4760    3.7508 H   0  0  0  0  0  0  0  0  0  0  0  0
    2.9216    5.3335    1.6860 H   0  0  0  0  0  0  0  0  0  0  0  0
    5.2682    5.3378    3.3681 H   0  0  0  0  0  0  0  0  0  0  0  0
    5.3370    5.1217    1.7509 H   0  0  0  0  0  0  0  0  0  0  0  0
    4.0494    9.0892    0.3561 H   0  0  0  0  0  0  0  0  0  0  0  0
    6.2145   13.8488    1.3484 H   0  0  0  0  0  0  0  0  0  0  0  0
    4.4263   14.7923    0.0766 H   0  0  0  0  0  0  0  0  0  0  0  0
    2.7805   13.3357   -0.8776 H   0  0  0  0  0  0  0  0  0  0  0  0
    2.9273   10.9761   -0.5608 H   0  0  0  0  0  0  0  0  0  0  0  0
    7.4799    9.4620    2.5934 H   0  0  0  0  0  0  0  0  0  0  0  0
    2.8867    7.7154    2.0871 H   0  0  0  0  0  0  0  0  0  0  0  0
    3.8345    8.6504    3.0326 H   0  0  0  0  0  0  0  0  0  0  0  0
    2.2461    7.4806    4.3594 H   0  0  0  0  0  0  0  0  0  0  0  0
    3.7633    7.0146    4.7436 H   0  0  0  0  0  0  0  0  0  0  0  0
    2.9424    4.9859    4.5292 H   0  0  0  0  0  0  0  0  0  0  0  0
    1.7000    5.4913    3.5977 H   0  0  0  0  0  0  0  0  0  0  0  0
    1.5049    3.4506    1.7895 H   0  0  0  0  0  0  0  0  0  0  0  0
    1.5457    3.5641    3.4180 H   0  0  0  0  0  0  0  0  0  0  0  0
    0.8856    1.4141    3.0061 H   0  0  0  0  0  0  0  0  0  0  0  0
    2.0052    1.2197    1.8334 H   0  0  0  0  0  0  0  0  0  0  0  0
  1  2  2  0  0  0  0
  2  3  1  0  0  0  0
  3  4  1  0  0  0  0
  4  5  1  0  0  0  0
  4  6  1  0  0  0  0
  4  7  1  0  0  0  0
  2  8  1  0  0  0  0
  8  9  1  0  0  0  0
  9 10  1  0  0  0  0
 10 11  1  0  0  0  0
 11 12  1  0  0  0  0
 12 13  1  0  0  0  0
 13 14  1  0  0  0  0
 14 15  1  0  0  0  0
 15 16  2  0  0  0  0
 15 17  1  0  0  0  0
 17 18  1  0  0  0  0
 18 19  1  0  0  0  0
 19 20  1  0  0  0  0
 20 21  2  0  0  0  0
 21 22  1  0  0  0  0
 22 23  2  0  0  0  0
 23 24  1  0  0  0  0
 24 19  2  0  0  0  0
 20 25  1  0  0  0  0
 25 26  2  0  0  0  0
 25 27  1  0  0  0  0
 17 27  2  0  0  0  0
 14 28  1  0  0  0  0
 28 29  1  0  0  0  0
 29 30  1  0  0  0  0
 30 12  1  0  0  0  0
 11 31  1  0  0  0  0
 31 32  1  0  0  0  0
 32  8  1  0  0  0  0
 11 33  1  0  0  0  0
  5 34  1  0  0  0  0
  5 35  1  0  0  0  0
  5 36  1  0  0  0  0
  6 37  1  0  0  0  0
  6 38  1  0  0  0  0
  6 39  1  0  0  0  0
  7 40  1  0  0  0  0
  7 41  1  0  0  0  0
  7 42  1  0  0  0  0
  9 43  1  0  0  0  0
  9 44  1  0  0  0  0
 10 45  1  0  0  0  0
 10 46  1  0  0  0  0
 12 47  1  0  0  0  0
 13 48  1  0  0  0  0
 13 49  1  0  0  0  0
 18 50  1  0  0  0  0
 21 51  1  0  0  0  0
 22 52  1  0  0  0  0
 23 53  1  0  0  0  0
 24 54  1  0  0  0  0
 27 55  1  0  0  0  0
 28 56  1  0  0  0  0
 28 57  1  0  0  0  0
 29 58  1  0  0  0  0
 29 59  1  0  0  0  0
 30 60  1  0  0  0  0
 30 61  1  0  0  0  0
 31 62  1  0  0  0  0
 31 63  1  0  0  0  0
 32 64  1  0  0  0  0
 32 65  1  0  0  0  0
M  CHG  1  11   1
M  END
>  <result-rank>
10

>  <similarity>
0.915

>  <query-name>


>  <query-smiles>
S1c2c(cccc2)C(C(=O)N3CCC([N@H+]4CC5(C(=O)N6N(C5=O)CCCC6)CCC4)CC3)=C1NC(=O)NC

>  <source>
REALspace_2019-12

>  <similarity-descriptor>
1.000;0.935;0.999;0.708;0.995;0.795;1.000;0.935;0.935;0.0;0.0;0.0

>  <similarity-descriptor-smiles>
C1CCCNC1;C1=CC(ccN1)=O;c1ccccc1;O=CO;N1CC[NH+]CC1;C(C)(C)C;C=O;C1=CC(ccN1)=O;C1=CC(ccN1)=O;;;

>  <reaction-name>
s_22

>  <reagent1-name>
4971012

>  <reagent1-smiles>
[R1*]N1CC(N2CCN(C(=O)OC(C)(C)C)CC2)CCC1

>  <reagent2-name>
138882

>  <reagent2-smiles>
[R1*]C(=O)C=1Nc2c(cccc2)C(=O)C1

$$$$
m_275030____14114236____14127500____14147198
          04022017303D 1   1.00000     0.00000     0
            
 73 78  0  0  0  0            999 V2000
   -4.9460    4.4153   -4.6701 F   0  0  0  0  0  0  0  0  0  0  0  0
   -4.3017    4.0988   -3.5487 C   0  0  0  0  0  0  0  0  0  0  0  0
   -4.1409    2.7782   -3.1340 C   0  0  0  0  0  0  0  0  0  0  0  0
   -3.4566    2.4991   -1.9529 C   0  0  0  0  0  0  0  0  0  0  0  0
   -2.9345    3.5430   -1.1872 C   0  0  0  0  0  0  0  0  0  0  0  0
   -3.0968    4.8602   -1.6037 C   0  0  0  0  0  0  0  0  0  0  0  0
   -3.7804    5.1379   -2.7840 C   0  0  0  0  0  0  0  0  0  0  0  0
   -2.2118    3.3199    0.0522 C   0  0  0  0  0  0  0  0  0  0  0  0
   -2.8050    3.2848    1.0947 O   0  0  0  0  0  0  0  0  0  0  0  0
   -0.8237    3.1460    0.0310 N   0  0  0  0  0  0  0  0  0  0  0  0
   -0.1166    2.9215    1.3029 C   0  0  0  0  0  0  0  0  0  0  0  0
    1.2839    3.5183    1.2943 C   0  0  3  0  0  0  0  0  0  0  0  0
    2.0264    3.0056    2.5174 C   0  0  3  0  0  0  0  0  0  0  0  0
    2.1200    1.4943    2.4902 C   0  0  0  0  0  0  0  0  0  0  0  0
    3.2207    1.2161    3.4213 N   0  3  3  0  0  0  0  0  0  0  0  0
    3.7451   -0.1319    3.1570 C   0  0  0  0  0  0  0  0  0  0  0  0
    4.8858   -0.4290    4.1168 C   0  0  0  0  0  0  0  0  0  0  0  0
    5.4099   -1.7763    3.8526 N   0  0  0  0  0  0  0  0  0  0  0  0
    6.4397   -2.0669    2.9582 C   0  0  0  0  0  0  0  0  0  0  0  0
    7.0355   -1.2433    2.2805 O   0  0  0  0  0  0  0  0  0  0  0  0
    6.6970   -3.4382    2.9532 N   0  0  0  0  0  0  0  0  0  0  0  0
    5.7630   -4.0658    3.8941 C   0  0  0  0  0  0  0  0  0  0  0  0
    4.9347   -2.9356    4.4657 C   0  0  0  0  0  0  0  0  0  0  0  0
    4.0371   -3.0165    5.2963 O   0  0  0  0  0  0  0  0  0  0  0  0
    6.3517   -4.9262    4.9928 C   0  0  0  0  0  0  0  0  0  0  0  0
    6.7993   -6.1870    4.2815 C   0  0  0  0  0  0  0  0  0  0  0  0
    5.7569   -6.3663    3.1976 C   0  0  0  0  0  0  0  0  0  0  0  0
    4.8798   -5.1340    3.2905 C   0  0  0  0  0  0  0  0  0  0  0  0
    4.2351    2.2138    3.0607 C   0  0  0  0  0  0  0  0  0  0  0  0
    3.4945    3.3904    2.4629 C   0  0  0  0  0  0  0  0  0  0  0  0
    2.0478    3.1796    0.0220 C   0  0  0  0  0  0  0  0  0  0  0  0
    1.2707    3.7785   -1.1429 C   0  0  0  0  0  0  0  0  0  0  0  0
   -0.1319    3.1993   -1.2679 C   0  0  0  0  0  0  0  0  0  0  0  0
   -3.3117    1.1667   -1.5653 C   0  0  0  0  0  0  0  0  0  0  0  0
   -3.8254    0.1135   -2.3144 C   0  0  0  0  0  0  0  0  0  0  0  0
   -4.5080    0.3956   -3.4929 C   0  0  0  0  0  0  0  0  0  0  0  0
   -4.6552    1.7221   -3.8847 C   0  0  0  0  0  0  0  0  0  0  0  0
    2.9301    1.3163    4.3729 H   0  0  0  0  0  0  0  0  0  0  0  0
   -2.7223    5.6077   -1.0551 H   0  0  0  0  0  0  0  0  0  0  0  0
   -3.8970    6.0851   -3.0827 H   0  0  0  0  0  0  0  0  0  0  0  0
   -0.0462    1.9369    1.4630 H   0  0  0  0  0  0  0  0  0  0  0  0
   -0.6418    3.3427    2.0422 H   0  0  0  0  0  0  0  0  0  0  0  0
    1.2062    4.5129    1.3633 H   0  0  0  0  0  0  0  0  0  0  0  0
    1.5987    3.3271    3.3622 H   0  0  0  0  0  0  0  0  0  0  0  0
    1.2682    1.0756    2.8049 H   0  0  0  0  0  0  0  0  0  0  0  0
    2.3342    1.1638    1.5710 H   0  0  0  0  0  0  0  0  0  0  0  0
    4.0800   -0.1808    2.2160 H   0  0  0  0  0  0  0  0  0  0  0  0
    3.0165   -0.8044    3.2868 H   0  0  0  0  0  0  0  0  0  0  0  0
    5.6144    0.2435    3.9869 H   0  0  0  0  0  0  0  0  0  0  0  0
    4.5509   -0.3802    5.0578 H   0  0  0  0  0  0  0  0  0  0  0  0
    7.3914   -3.9075    2.4078 H   0  0  0  0  0  0  0  0  0  0  0  0
    5.6622   -5.1363    5.6861 H   0  0  0  0  0  0  0  0  0  0  0  0
    7.1288   -4.4676    5.4239 H   0  0  0  0  0  0  0  0  0  0  0  0
    6.8042   -6.9679    4.9061 H   0  0  0  0  0  0  0  0  0  0  0  0
    7.7105   -6.0707    3.8862 H   0  0  0  0  0  0  0  0  0  0  0  0
    6.1907   -6.4221    2.2983 H   0  0  0  0  0  0  0  0  0  0  0  0
    5.2193   -7.1937    3.3602 H   0  0  0  0  0  0  0  0  0  0  0  0
    4.5654   -4.8576    2.3824 H   0  0  0  0  0  0  0  0  0  0  0  0
    4.0896   -5.3092    3.8778 H   0  0  0  0  0  0  0  0  0  0  0  0
    4.8720    1.8313    2.3914 H   0  0  0  0  0  0  0  0  0  0  0  0
    4.7399    2.5017    3.8745 H   0  0  0  0  0  0  0  0  0  0  0  0
    3.6603    4.2182    2.9989 H   0  0  0  0  0  0  0  0  0  0  0  0
    3.7824    3.5424    1.5173 H   0  0  0  0  0  0  0  0  0  0  0  0
    2.1138    2.1874   -0.0841 H   0  0  0  0  0  0  0  0  0  0  0  0
    2.9666    3.5727    0.0591 H   0  0  0  0  0  0  0  0  0  0  0  0
    1.1986    4.7664   -1.0061 H   0  0  0  0  0  0  0  0  0  0  0  0
    1.7701    3.5948   -1.9896 H   0  0  0  0  0  0  0  0  0  0  0  0
   -0.6629    3.7710   -1.8934 H   0  0  0  0  0  0  0  0  0  0  0  0
   -0.0669    2.2724   -1.6375 H   0  0  0  0  0  0  0  0  0  0  0  0
   -2.8208    0.9616   -0.7186 H   0  0  0  0  0  0  0  0  0  0  0  0
   -3.7059   -0.8317   -2.0104 H   0  0  0  0  0  0  0  0  0  0  0  0
   -4.8870   -0.3435   -4.0497 H   0  0  0  0  0  0  0  0  0  0  0  0
   -5.1458    1.9247   -4.7322 H   0  0  0  0  0  0  0  0  0  0  0  0
  1  2  1  0  0  0  0
  2  3  1  0  0  0  0
  3  4  2  0  0  0  0
  4  5  1  0  0  0  0
  5  6  2  0  0  0  0
  6  7  1  0  0  0  0
  7  2  2  0  0  0  0
  5  8  1  0  0  0  0
  8  9  2  0  0  0  0
  8 10  1  0  0  0  0
 10 11  1  0  0  0  0
 11 12  1  0  0  0  0
 12 13  1  0  0  0  0
 13 14  1  0  0  0  0
 14 15  1  0  0  0  0
 15 16  1  0  0  0  0
 16 17  1  0  0  0  0
 17 18  1  0  0  0  0
 18 19  1  0  0  0  0
 19 20  2  0  0  0  0
 19 21  1  0  0  0  0
 21 22  1  0  0  0  0
 22 23  1  0  0  0  0
 23 18  1  0  0  0  0
 23 24  2  0  0  0  0
 22 25  1  0  0  0  0
 25 26  1  0  0  0  0
 26 27  1  0  0  0  0
 27 28  1  0  0  0  0
 28 22  1  0  0  0  0
 15 29  1  0  0  0  0
 29 30  1  0  0  0  0
 30 13  1  0  0  0  0
 12 31  1  0  0  0  0
 31 32  1  0  0  0  0
 32 33  1  0  0  0  0
 33 10  1  0  0  0  0
  4 34  1  0  0  0  0
 34 35  2  0  0  0  0
 35 36  1  0  0  0  0
 36 37  2  0  0  0  0
 37  3  1  0  0  0  0
 15 38  1  0  0  0  0
  6 39  1  0  0  0  0
  7 40  1  0  0  0  0
 11 41  1  0  0  0  0
 11 42  1  0  0  0  0
 12 43  1  0  0  0  0
 13 44  1  0  0  0  0
 14 45  1  0  0  0  0
 14 46  1  0  0  0  0
 16 47  1  0  0  0  0
 16 48  1  0  0  0  0
 17 49  1  0  0  0  0
 17 50  1  0  0  0  0
 21 51  1  0  0  0  0
 25 52  1  0  0  0  0
 25 53  1  0  0  0  0
 26 54  1  0  0  0  0
 26 55  1  0  0  0  0
 27 56  1  0  0  0  0
 27 57  1  0  0  0  0
 28 58  1  0  0  0  0
 28 59  1  0  0  0  0
 29 60  1  0  0  0  0
 29 61  1  0  0  0  0
 30 62  1  0  0  0  0
 30 63  1  0  0  0  0
 31 64  1  0  0  0  0
 31 65  1  0  0  0  0
 32 66  1  0  0  0  0
 32 67  1  0  0  0  0
 33 68  1  0  0  0  0
 33 69  1  0  0  0  0
 34 70  1  0  0  0  0
 35 71  1  0  0  0  0
 36 72  1  0  0  0  0
 37 73  1  0  0  0  0
M  CHG  1  15   1
M  END
>  <result-rank>
11

>  <similarity>
0.915

>  <query-name>


>  <query-smiles>
S1c2c(cccc2)C(C(=O)N3CCC([N@H+]4CC5(C(=O)N6N(C5=O)CCCC6)CCC4)CC3)=C1NC(=O)NC

>  <source>
REALspace_2019-12

>  <similarity-descriptor>
0.999;0.769;0.999;0.859;0.936;0.994;0.999;0.769;0.769;0.0;0.0;0.0

>  <similarity-descriptor-smiles>
N1CCCCC1;Fc1ccccc1;c1ccccc1;CN1C(CNC1=O)=O;C1CC[NH+](C1)C;C1CCCC1;C=O;Fc1ccccc1;Fc1ccccc1;;;

>  <reaction-name>
m_275030

>  <reagent1-name>
14114236

>  <reagent1-smiles>
[R2*]N1CC(C2CN([R1*])CCC2)CC1

>  <reagent2-name>
14127500

>  <reagent2-smiles>
[R1*]C(=O)c1c2c(c(F)cc1)cccc2

>  <reagent3-name>
14147198

>  <reagent3-smiles>
[R2*]CCN1C(=O)NC2(C1=O)CCCC2

$$$$
m_275030____14114218____14128248____14147198
          04022017303D 1   1.00000     0.00000     0
            
 75 80  0  0  0  0            999 V2000
   -1.7410    1.8242   -1.1534 O   0  0  0  0  0  0  0  0  0  0  0  0
   -1.0990    0.8734   -1.5734 C   0  0  0  0  0  0  0  0  0  0  0  0
    0.2435    0.6238   -1.2903 N   0  0  0  0  0  0  0  0  0  0  0  0
    0.6804   -0.5438   -1.9160 C   0  0  0  0  0  0  0  0  0  0  0  0
    1.8029   -1.0333   -1.8642 O   0  0  0  0  0  0  0  0  0  0  0  0
   -0.5188   -1.0717   -2.6730 C   0  0  0  0  0  0  0  0  0  0  0  0
   -1.6039   -0.1194   -2.4136 N   0  0  0  0  0  0  0  0  0  0  0  0
   -0.1731   -1.3589   -4.1194 C   0  0  0  0  0  0  0  0  0  0  0  0
   -1.3187   -2.2184   -4.6145 C   0  0  0  0  0  0  0  0  0  0  0  0
   -1.6894   -3.0418   -3.3986 C   0  0  0  0  0  0  0  0  0  0  0  0
   -0.8230   -2.4994   -2.2797 C   0  0  0  0  0  0  0  0  0  0  0  0
    1.0920    1.4723   -0.4418 C   0  0  0  0  0  0  0  0  0  0  0  0
    1.0000    1.0000    1.0000 C   0  0  0  0  0  0  0  0  0  0  0  0
    1.8484    1.8484    1.8484 N   0  3  3  0  0  0  0  0  0  0  0  0
    1.3387    3.2290    1.8701 C   0  0  0  0  0  0  0  0  0  0  0  0
    2.1595    4.1201    2.7930 C   0  0  0  0  0  0  0  0  0  0  0  0
    2.2546    3.5869    4.2133 C   0  0  3  0  0  0  0  0  0  0  0  0
    2.8572    2.1972    4.0521 C   0  0  0  0  0  0  0  0  0  0  0  0
    2.0090    1.2703    3.1920 C   0  0  0  0  0  0  0  0  0  0  0  0
    0.8688    3.6056    4.8495 C   0  0  0  0  0  0  0  0  0  0  0  0
    0.8258    3.0385    6.2642 C   0  0  0  0  0  0  0  0  0  0  0  0
    1.8586    3.7016    7.0766 N   0  0  0  0  0  0  0  0  0  0  0  0
    1.5679    3.9913    8.4142 C   0  0  0  0  0  0  0  0  0  0  0  0
    0.5341    3.6203    8.8975 O   0  0  0  0  0  0  0  0  0  0  0  0
    2.5616    4.7759    9.2551 C   0  0  3  0  0  0  0  0  0  0  0  0
    3.5670    3.8916    9.9798 C   0  0  0  0  0  0  0  0  0  0  0  0
    4.1553    4.3318   11.1653 C   0  0  0  0  0  0  0  0  0  0  0  0
    5.0609    3.4954   11.8118 C   0  0  0  0  0  0  0  0  0  0  0  0
    5.4015    2.2422   11.3122 C   0  0  0  0  0  0  0  0  0  0  0  0
    4.8196    1.8084   10.1258 C   0  0  0  0  0  0  0  0  0  0  0  0
    3.9132    2.6390    9.4759 C   0  0  0  0  0  0  0  0  0  0  0  0
    3.8029    5.6472   11.6663 C   0  0  0  0  0  0  0  0  0  0  0  0
    4.5142    6.2707   12.4383 O   0  0  0  0  0  0  0  0  0  0  0  0
    2.6126    6.2374   11.2313 N   0  0  0  0  0  0  0  0  0  0  0  0
    1.7385    5.5849   10.2451 C   0  0  0  0  0  0  0  0  0  0  0  0
    3.1775    4.0872    6.5426 C   0  0  0  0  0  0  0  0  0  0  0  0
    3.1237    4.4963    5.0731 C   0  0  0  0  0  0  0  0  0  0  0  0
    2.7552    1.8746    1.4275 H   0  0  0  0  0  0  0  0  0  0  0  0
   -2.5355   -0.1722   -2.7733 H   0  0  0  0  0  0  0  0  0  0  0  0
    0.6942   -1.8525   -4.1851 H   0  0  0  0  0  0  0  0  0  0  0  0
   -0.1142   -0.5101   -4.6448 H   0  0  0  0  0  0  0  0  0  0  0  0
   -1.0255   -2.8059   -5.3687 H   0  0  0  0  0  0  0  0  0  0  0  0
   -2.0879   -1.6529   -4.9120 H   0  0  0  0  0  0  0  0  0  0  0  0
   -2.6585   -2.9284   -3.1794 H   0  0  0  0  0  0  0  0  0  0  0  0
   -1.4944   -4.0098   -3.5566 H   0  0  0  0  0  0  0  0  0  0  0  0
   -1.3156   -2.5265   -1.4099 H   0  0  0  0  0  0  0  0  0  0  0  0
    0.0213   -3.0294   -2.2013 H   0  0  0  0  0  0  0  0  0  0  0  0
    0.7813    2.4209   -0.5024 H   0  0  0  0  0  0  0  0  0  0  0  0
    2.0406    1.4118   -0.7525 H   0  0  0  0  0  0  0  0  0  0  0  0
    0.0514    1.0605    1.3107 H   0  0  0  0  0  0  0  0  0  0  0  0
    1.3107    0.0514    1.0605 H   0  0  0  0  0  0  0  0  0  0  0  0
    0.3907    3.2192    2.1883 H   0  0  0  0  0  0  0  0  0  0  0  0
    1.3752    3.6022    0.9430 H   0  0  0  0  0  0  0  0  0  0  0  0
    3.0842    4.1974    2.4202 H   0  0  0  0  0  0  0  0  0  0  0  0
    1.7347    5.0250    2.8212 H   0  0  0  0  0  0  0  0  0  0  0  0
    2.9564    1.7869    4.9587 H   0  0  0  0  0  0  0  0  0  0  0  0
    3.7579    2.2889    3.6273 H   0  0  0  0  0  0  0  0  0  0  0  0
    2.4589    0.3802    3.1192 H   0  0  0  0  0  0  0  0  0  0  0  0
    1.1097    1.1557    3.6141 H   0  0  0  0  0  0  0  0  0  0  0  0
    0.2526    3.0659    4.2759 H   0  0  0  0  0  0  0  0  0  0  0  0
    0.5505    4.5531    4.8811 H   0  0  0  0  0  0  0  0  0  0  0  0
   -0.0749    3.2053    6.6653 H   0  0  0  0  0  0  0  0  0  0  0  0
    1.0013    2.0544    6.2366 H   0  0  0  0  0  0  0  0  0  0  0  0
    3.0590    5.4067    8.6596 H   0  0  0  0  0  0  0  0  0  0  0  0
    5.4812    3.8058   12.6644 H   0  0  0  0  0  0  0  0  0  0  0  0
    6.0547    1.6622   11.7989 H   0  0  0  0  0  0  0  0  0  0  0  0
    5.0497    0.9125    9.7457 H   0  0  0  0  0  0  0  0  0  0  0  0
    3.4973    2.3282    8.6213 H   0  0  0  0  0  0  0  0  0  0  0  0
    2.3482    7.1281   11.6011 H   0  0  0  0  0  0  0  0  0  0  0  0
    1.2221    6.2836    9.7500 H   0  0  0  0  0  0  0  0  0  0  0  0
    1.1038    4.9756   10.7204 H   0  0  0  0  0  0  0  0  0  0  0  0
    3.7995    3.3097    6.6353 H   0  0  0  0  0  0  0  0  0  0  0  0
    3.5255    4.8579    7.0764 H   0  0  0  0  0  0  0  0  0  0  0  0
    2.7589    5.4258    5.0177 H   0  0  0  0  0  0  0  0  0  0  0  0
    4.0543    4.4812    4.7073 H   0  0  0  0  0  0  0  0  0  0  0  0
  1  2  2  0  0  0  0
  2  3  1  0  0  0  0
  3  4  1  0  0  0  0
  4  5  2  0  0  0  0
  4  6  1  0  0  0  0
  6  7  1  0  0  0  0
  7  2  1  0  0  0  0
  6  8  1  0  0  0  0
  8  9  1  0  0  0  0
  9 10  1  0  0  0  0
 10 11  1  0  0  0  0
 11  6  1  0  0  0  0
  3 12  1  0  0  0  0
 12 13  1  0  0  0  0
 13 14  1  0  0  0  0
 14 15  1  0  0  0  0
 15 16  1  0  0  0  0
 16 17  1  0  0  0  0
 17 18  1  0  0  0  0
 18 19  1  0  0  0  0
 19 14  1  0  0  0  0
 17 20  1  0  0  0  0
 20 21  1  0  0  0  0
 21 22  1  0  0  0  0
 22 23  1  0  0  0  0
 23 24  2  0  0  0  0
 23 25  1  0  0  0  0
 25 26  1  0  0  0  0
 26 27  1  0  0  0  0
 27 28  2  0  0  0  0
 28 29  1  0  0  0  0
 29 30  2  0  0  0  0
 30 31  1  0  0  0  0
 31 26  2  0  0  0  0
 27 32  1  0  0  0  0
 32 33  2  0  0  0  0
 32 34  1  0  0  0  0
 34 35  1  0  0  0  0
 35 25  1  0  0  0  0
 22 36  1  0  0  0  0
 36 37  1  0  0  0  0
 37 17  1  0  0  0  0
 14 38  1  0  0  0  0
  7 39  1  0  0  0  0
  8 40  1  0  0  0  0
  8 41  1  0  0  0  0
  9 42  1  0  0  0  0
  9 43  1  0  0  0  0
 10 44  1  0  0  0  0
 10 45  1  0  0  0  0
 11 46  1  0  0  0  0
 11 47  1  0  0  0  0
 12 48  1  0  0  0  0
 12 49  1  0  0  0  0
 13 50  1  0  0  0  0
 13 51  1  0  0  0  0
 15 52  1  0  0  0  0
 15 53  1  0  0  0  0
 16 54  1  0  0  0  0
 16 55  1  0  0  0  0
 18 56  1  0  0  0  0
 18 57  1  0  0  0  0
 19 58  1  0  0  0  0
 19 59  1  0  0  0  0
 20 60  1  0  0  0  0
 20 61  1  0  0  0  0
 21 62  1  0  0  0  0
 21 63  1  0  0  0  0
 25 64  1  0  0  0  0
 28 65  1  0  0  0  0
 29 66  1  0  0  0  0
 30 67  1  0  0  0  0
 31 68  1  0  0  0  0
 34 69  1  0  0  0  0
 35 70  1  0  0  0  0
 35 71  1  0  0  0  0
 36 72  1  0  0  0  0
 36 73  1  0  0  0  0
 37 74  1  0  0  0  0
 37 75  1  0  0  0  0
M  CHG  1  14   1
M  END
>  <result-rank>
12

>  <similarity>
0.915

>  <query-name>


>  <query-smiles>
S1c2c(cccc2)C(C(=O)N3CCC([N@H+]4CC5(C(=O)N6N(C5=O)CCCC6)CCC4)CC3)=C1NC(=O)NC

>  <source>
REALspace_2019-12

>  <similarity-descriptor>
0.905;0.857;1.000;0.809;1.000;0.994;0.999;0.857;0.857;0.0;0.0;0.0

>  <similarity-descriptor-smiles>
C1CCNCC1;C1CNC(cc1)=O;c1ccccc1;O=C1NCC(N1CC)=O;[NH+]1CCCCC1;C1CCCC1;C=O;C1CNC(cc1)=O;C1CNC(cc1)=O;;;

>  <reaction-name>
m_275030

>  <reagent1-name>
14114218

>  <reagent1-smiles>
[R1*]N1CCC2(CC1)CCN([R2*])CC2

>  <reagent2-name>
14128248

>  <reagent2-smiles>
[R1*]C(=O)C1c2c(cccc2)C(=O)NC1

>  <reagent3-name>
14147198

>  <reagent3-smiles>
[R2*]CCN1C(=O)NC2(C1=O)CCCC2

$$$$
m_275030____14114236____14125180____14147726
          04022017303D 1   1.00000     0.00000     0
            
 75 80  0  0  0  0            999 V2000
    6.2454    1.4988    7.5429 O   0  0  0  0  0  0  0  0  0  0  0  0
    5.2665    0.9696    7.9921 C   0  0  0  0  0  0  0  0  0  0  0  0
    4.0173    1.1640    7.3767 N   0  0  0  0  0  0  0  0  0  0  0  0
    3.8763    2.0088    6.1827 C   0  0  0  0  0  0  0  0  0  0  0  0
    2.7044    1.4980    5.3598 C   0  0  3  0  0  0  0  0  0  0  0  0
    2.6027    2.2443    4.0383 C   0  0  3  0  0  0  0  0  0  0  0  0
    1.3916    1.7854    3.2435 C   0  0  0  0  0  0  0  0  0  0  0  0
    1.8487    1.8487    1.8487 N   0  3  3  0  0  0  0  0  0  0  0  0
    1.0000    1.0000    1.0000 C   0  0  0  0  0  0  0  0  0  0  0  0
    1.0912    1.4729   -0.4417 C   0  0  0  0  0  0  0  0  0  0  0  0
    1.1163    2.6472   -0.6875 O   0  0  0  0  0  0  0  0  0  0  0  0
    1.1447    0.5585   -1.4605 N   0  0  0  0  0  0  0  0  0  0  0  0
    1.6398    0.9365   -2.7162 C   0  0  0  0  0  0  0  0  0  0  0  0
    2.9475    1.0593   -3.0740 N   0  0  0  0  0  0  0  0  0  0  0  0
    3.0446    1.4399   -4.3331 N   0  0  0  0  0  0  0  0  0  0  0  0
    1.8399    1.5783   -4.8439 C   0  0  0  0  0  0  0  0  0  0  0  0
    0.9136    1.2592   -3.8240 C   0  0  0  0  0  0  0  0  0  0  0  0
    4.0788    0.8041   -2.1700 C   0  0  0  0  0  0  0  0  0  0  0  0
    5.3223    0.3976   -2.9321 C   0  0  0  0  0  0  0  0  0  0  0  0
    6.4522    0.6903   -1.9652 C   0  0  0  0  0  0  0  0  0  0  0  0
    5.9632    1.7890   -1.0377 C   0  0  0  0  0  0  0  0  0  0  0  0
    4.5489    2.0776   -1.5053 C   0  0  0  0  0  0  0  0  0  0  0  0
    3.1906    1.2768    1.9536 C   0  0  0  0  0  0  0  0  0  0  0  0
    3.7998    1.9985    3.1395 C   0  0  0  0  0  0  0  0  0  0  0  0
    1.4311    1.7617    6.1460 C   0  0  0  0  0  0  0  0  0  0  0  0
    1.5993    1.4533    7.6263 C   0  0  0  0  0  0  0  0  0  0  0  0
    2.7876    0.5411    7.8880 C   0  0  0  0  0  0  0  0  0  0  0  0
    5.3720    0.1293    9.1699 C   0  0  0  0  0  0  0  0  0  0  0  0
    5.2334    0.6326   10.4949 C   0  0  0  0  0  0  0  0  0  0  0  0
    5.3466   -0.2273   11.5851 C   0  0  0  0  0  0  0  0  0  0  0  0
    5.2087    0.2802   12.8754 C   0  0  0  0  0  0  0  0  0  0  0  0
    4.9594    1.6285   13.1091 C   0  0  0  0  0  0  0  0  0  0  0  0
    4.8455    2.4904   12.0229 C   0  0  0  0  0  0  0  0  0  0  0  0
    4.9841    1.9819   10.7357 C   0  0  0  0  0  0  0  0  0  0  0  0
    5.6004   -1.6070   11.3416 C   0  0  0  0  0  0  0  0  0  0  0  0
    5.7118   -2.4229   12.2449 O   0  0  0  0  0  0  0  0  0  0  0  0
    5.7276   -2.0566   10.0527 N   0  0  0  0  0  0  0  0  0  0  0  0
    5.6166   -1.2063    8.9832 C   0  0  0  0  0  0  0  0  0  0  0  0
    1.8766    2.7907    1.5142 H   0  0  0  0  0  0  0  0  0  0  0  0
    4.7142    1.9648    5.6385 H   0  0  0  0  0  0  0  0  0  0  0  0
    3.7071    2.9551    6.4581 H   0  0  0  0  0  0  0  0  0  0  0  0
    2.8059    0.5175    5.1919 H   0  0  0  0  0  0  0  0  0  0  0  0
    2.5242    3.2245    4.2199 H   0  0  0  0  0  0  0  0  0  0  0  0
    1.1340    0.8518    3.4927 H   0  0  0  0  0  0  0  0  0  0  0  0
    0.6143    2.3966    3.3925 H   0  0  0  0  0  0  0  0  0  0  0  0
    0.0515    1.0600    1.3111 H   0  0  0  0  0  0  0  0  0  0  0  0
    1.3111    0.0515    1.0600 H   0  0  0  0  0  0  0  0  0  0  0  0
    0.8305   -0.3786   -1.3083 H   0  0  0  0  0  0  0  0  0  0  0  0
    1.6203    1.8570   -5.7788 H   0  0  0  0  0  0  0  0  0  0  0  0
   -0.0834    1.2685   -3.9007 H   0  0  0  0  0  0  0  0  0  0  0  0
    3.8393    0.1142   -1.4869 H   0  0  0  0  0  0  0  0  0  0  0  0
    5.4201    0.9377   -3.7680 H   0  0  0  0  0  0  0  0  0  0  0  0
    5.2955   -0.5746   -3.1646 H   0  0  0  0  0  0  0  0  0  0  0  0
    7.2621    0.9971   -2.4651 H   0  0  0  0  0  0  0  0  0  0  0  0
    6.6761   -0.1300   -1.4390 H   0  0  0  0  0  0  0  0  0  0  0  0
    5.9648    1.4767   -0.0877 H   0  0  0  0  0  0  0  0  0  0  0  0
    6.5367    2.6040   -1.1215 H   0  0  0  0  0  0  0  0  0  0  0  0
    3.9623    2.3035   -0.7276 H   0  0  0  0  0  0  0  0  0  0  0  0
    4.5438    2.8354   -2.1578 H   0  0  0  0  0  0  0  0  0  0  0  0
    3.7178    1.4503    1.1217 H   0  0  0  0  0  0  0  0  0  0  0  0
    3.1459    0.2918    2.1205 H   0  0  0  0  0  0  0  0  0  0  0  0
    4.4816    1.4274    3.5966 H   0  0  0  0  0  0  0  0  0  0  0  0
    4.2214    2.8605    2.8582 H   0  0  0  0  0  0  0  0  0  0  0  0
    0.6998    1.1874    5.7779 H   0  0  0  0  0  0  0  0  0  0  0  0
    1.1821    2.7248    6.0434 H   0  0  0  0  0  0  0  0  0  0  0  0
    1.7363    2.3115    8.1212 H   0  0  0  0  0  0  0  0  0  0  0  0
    0.7694    1.0055    7.9590 H   0  0  0  0  0  0  0  0  0  0  0  0
    2.8778    0.3877    8.8720 H   0  0  0  0  0  0  0  0  0  0  0  0
    2.6422   -0.3339    7.4262 H   0  0  0  0  0  0  0  0  0  0  0  0
    5.2912   -0.3416   13.6542 H   0  0  0  0  0  0  0  0  0  0  0  0
    4.8636    1.9729   14.0431 H   0  0  0  0  0  0  0  0  0  0  0  0
    4.6662    3.4637   12.1659 H   0  0  0  0  0  0  0  0  0  0  0  0
    4.9022    2.6051    9.9579 H   0  0  0  0  0  0  0  0  0  0  0  0
    5.9054   -3.0270    9.8890 H   0  0  0  0  0  0  0  0  0  0  0  0
    5.7154   -1.5650    8.0550 H   0  0  0  0  0  0  0  0  0  0  0  0
  1  2  2  0  0  0  0
  2  3  1  0  0  0  0
  3  4  1  0  0  0  0
  4  5  1  0  0  0  0
  5  6  1  0  0  0  0
  6  7  1  0  0  0  0
  7  8  1  0  0  0  0
  8  9  1  0  0  0  0
  9 10  1  0  0  0  0
 10 11  2  0  0  0  0
 10 12  1  0  0  0  0
 12 13  1  0  0  0  0
 13 14  1  0  0  0  0
 14 15  1  0  0  0  0
 15 16  2  0  0  0  0
 16 17  1  0  0  0  0
 13 17  2  0  0  0  0
 14 18  1  0  0  0  0
 18 19  1  0  0  0  0
 19 20  1  0  0  0  0
 20 21  1  0  0  0  0
 21 22  1  0  0  0  0
 22 18  1  0  0  0  0
  8 23  1  0  0  0  0
 23 24  1  0  0  0  0
 24  6  1  0  0  0  0
  5 25  1  0  0  0  0
 25 26  1  0  0  0  0
 26 27  1  0  0  0  0
 27  3  1  0  0  0  0
  2 28  1  0  0  0  0
 28 29  1  0  0  0  0
 29 30  1  0  0  0  0
 30 31  2  0  0  0  0
 31 32  1  0  0  0  0
 32 33  2  0  0  0  0
 33 34  1  0  0  0  0
 34 29  2  0  0  0  0
 30 35  1  0  0  0  0
 35 36  2  0  0  0  0
 35 37  1  0  0  0  0
 37 38  1  0  0  0  0
 28 38  2  0  0  0  0
  8 39  1  0  0  0  0
  4 40  1  0  0  0  0
  4 41  1  0  0  0  0
  5 42  1  0  0  0  0
  6 43  1  0  0  0  0
  7 44  1  0  0  0  0
  7 45  1  0  0  0  0
  9 46  1  0  0  0  0
  9 47  1  0  0  0  0
 12 48  1  0  0  0  0
 16 49  1  0  0  0  0
 17 50  1  0  0  0  0
 18 51  1  0  0  0  0
 19 52  1  0  0  0  0
 19 53  1  0  0  0  0
 20 54  1  0  0  0  0
 20 55  1  0  0  0  0
 21 56  1  0  0  0  0
 21 57  1  0  0  0  0
 22 58  1  0  0  0  0
 22 59  1  0  0  0  0
 23 60  1  0  0  0  0
 23 61  1  0  0  0  0
 24 62  1  0  0  0  0
 24 63  1  0  0  0  0
 25 64  1  0  0  0  0
 25 65  1  0  0  0  0
 26 66  1  0  0  0  0
 26 67  1  0  0  0  0
 27 68  1  0  0  0  0
 27 69  1  0  0  0  0
 31 70  1  0  0  0  0
 32 71  1  0  0  0  0
 33 72  1  0  0  0  0
 34 73  1  0  0  0  0
 37 74  1  0  0  0  0
 38 75  1  0  0  0  0
M  CHG  1   8   1
M  END
>  <result-rank>
13

>  <similarity>
0.913

>  <query-name>


>  <query-smiles>
S1c2c(cccc2)C(C(=O)N3CCC([N@H+]4CC5(C(=O)N6N(C5=O)CCCC6)CCC4)CC3)=C1NC(=O)NC

>  <source>
REALspace_2019-12

>  <similarity-descriptor>
0.999;0.940;1.000;0.742;0.936;0.911;1.000;0.940;0.940;0.0;0.0;0.0

>  <similarity-descriptor-smiles>
N1CCCCC1;C1=CNC(cc1)=O;c1ccccc1;C(=O)NC1=CC=NN1;C1CC[NH+](C1)C;C1CCCC1;O=C;C1=CNC(cc1)=O;C1=CNC(cc1)=O;;;

>  <reaction-name>
m_275030

>  <reagent1-name>
14114236

>  <reagent1-smiles>
[R2*]N1CC(C2CN([R1*])CCC2)CC1

>  <reagent2-name>
14125180

>  <reagent2-smiles>
[R1*]C(=O)C=1c2c(cccc2)C(=O)NC1

>  <reagent3-name>
14147726

>  <reagent3-smiles>
[R2*]CC(=O)NC=1N(N=CC1)C2CCCC2

$$$$
m_275030____14114032____14127584____14146862
          04022017303D 1   1.00000     0.00000     0
            
 73 77  0  0  0  0            999 V2000
    1.6884   15.5684    1.5222 F   0  0  0  0  0  0  0  0  0  0  0  0
    2.4548   14.6028    1.0231 C   0  0  0  0  0  0  0  0  0  0  0  0
    2.6647   13.4023    1.6988 C   0  0  0  0  0  0  0  0  0  0  0  0
    3.4698   12.3888    1.1827 C   0  0  0  0  0  0  0  0  0  0  0  0
    4.0679   12.6093   -0.0336 C   0  0  0  0  0  0  0  0  0  0  0  0
    4.8095   11.5097   -0.3465 N   0  0  0  0  0  0  0  0  0  0  0  0
    4.7103   10.5758    0.6404 C   0  0  0  0  0  0  0  0  0  0  0  0
    3.8890   11.1016    1.5903 C   0  0  0  0  0  0  0  0  0  0  0  0
    3.4897   10.4075    2.8837 C   0  0  0  0  0  0  0  0  0  0  0  0
    2.2236    9.5983    2.6544 C   0  0  0  0  0  0  0  0  0  0  0  0
    1.1491   10.1031    2.8289 O   0  0  0  0  0  0  0  0  0  0  0  0
    2.3093    8.2926    2.2487 N   0  0  0  0  0  0  0  0  0  0  0  0
    1.0589    7.5448    2.0383 C   0  0  0  0  0  0  0  0  0  0  0  0
    1.2171    6.0664    2.3657 C   0  0  0  0  0  0  0  0  0  0  0  0
    2.4886    5.4771    1.7714 C   0  0  0  0  0  0  0  0  0  0  0  0
    2.5864    4.0302    2.2281 C   0  0  3  0  0  0  0  0  0  0  0  0
    1.3851    3.2389    1.7547 C   0  0  0  0  0  0  0  0  0  0  0  0
    1.8489    1.8489    1.8489 N   0  3  3  0  0  0  0  0  0  0  0  0
    1.0000    1.0000    1.0000 C   0  0  0  0  0  0  0  0  0  0  0  0
    1.0912    1.4729   -0.4417 C   0  0  0  0  0  0  0  0  0  0  0  0
    0.3256    2.3014   -0.8509 O   0  0  0  0  0  0  0  0  0  0  0  0
    2.0474    0.9533   -1.2738 N   0  0  0  0  0  0  0  0  0  0  0  0
    2.1356    1.4107   -2.6681 C   0  0  0  0  0  0  0  0  0  0  0  0
    3.0740    2.6035   -2.7516 C   0  0  0  0  0  0  0  0  0  0  0  0
    2.6428    3.7162   -2.6248 O   0  0  0  0  0  0  0  0  0  0  0  0
    4.4443    2.4037   -2.9771 N   0  0  0  0  0  0  0  0  0  0  0  0
    5.4568    3.4588   -3.0796 C   0  0  0  0  0  0  0  0  0  0  0  0
    6.7370    2.8172   -2.5816 C   0  0  0  0  0  0  0  0  0  0  0  0
    6.5356    1.3154   -2.6853 C   0  0  0  0  0  0  0  0  0  0  0  0
    5.1090    1.1082   -3.1570 C   0  0  0  0  0  0  0  0  0  0  0  0
    3.2040    1.9010    1.2872 C   0  0  0  0  0  0  0  0  0  0  0  0
    3.7133    3.3086    1.5100 C   0  0  0  0  0  0  0  0  0  0  0  0
    3.6723    6.2208    2.3737 C   0  0  0  0  0  0  0  0  0  0  0  0
    3.6460    7.7081    2.0499 C   0  0  0  0  0  0  0  0  0  0  0  0
    3.8745   13.7955   -0.7341 C   0  0  0  0  0  0  0  0  0  0  0  0
    3.0667   14.7985   -0.2110 C   0  0  0  0  0  0  0  0  0  0  0  0
    1.8569    1.5286    2.7962 H   0  0  0  0  0  0  0  0  0  0  0  0
    2.2222   13.2633    2.5847 H   0  0  0  0  0  0  0  0  0  0  0  0
    5.3495   11.4035   -1.1815 H   0  0  0  0  0  0  0  0  0  0  0  0
    5.1538    9.6798    0.6627 H   0  0  0  0  0  0  0  0  0  0  0  0
    4.2266    9.7980    3.1761 H   0  0  0  0  0  0  0  0  0  0  0  0
    3.3234   11.0932    3.5923 H   0  0  0  0  0  0  0  0  0  0  0  0
    0.7853    7.6361    1.0808 H   0  0  0  0  0  0  0  0  0  0  0  0
    0.3485    7.9316    2.6263 H   0  0  0  0  0  0  0  0  0  0  0  0
    1.2462    5.9582    3.3594 H   0  0  0  0  0  0  0  0  0  0  0  0
    0.4304    5.5697    1.9992 H   0  0  0  0  0  0  0  0  0  0  0  0
    2.4877    5.5435    0.7736 H   0  0  0  0  0  0  0  0  0  0  0  0
    2.6919    3.9699    3.2207 H   0  0  0  0  0  0  0  0  0  0  0  0
    0.5951    3.3953    2.3475 H   0  0  0  0  0  0  0  0  0  0  0  0
    1.1471    3.4755    0.8127 H   0  0  0  0  0  0  0  0  0  0  0  0
    0.0515    1.0600    1.3111 H   0  0  0  0  0  0  0  0  0  0  0  0
    1.3111    0.0515    1.0600 H   0  0  0  0  0  0  0  0  0  0  0  0
    2.6855    0.2630   -0.9328 H   0  0  0  0  0  0  0  0  0  0  0  0
    1.2272    1.6781   -2.9893 H   0  0  0  0  0  0  0  0  0  0  0  0
    2.4868    0.6696   -3.2404 H   0  0  0  0  0  0  0  0  0  0  0  0
    5.2094    4.2411   -2.5079 H   0  0  0  0  0  0  0  0  0  0  0  0
    5.5587    3.7582   -4.0282 H   0  0  0  0  0  0  0  0  0  0  0  0
    6.9072    3.0780   -1.6314 H   0  0  0  0  0  0  0  0  0  0  0  0
    7.5096    3.1021   -3.1490 H   0  0  0  0  0  0  0  0  0  0  0  0
    7.1783    0.9246   -3.3444 H   0  0  0  0  0  0  0  0  0  0  0  0
    6.6710    0.8855   -1.7927 H   0  0  0  0  0  0  0  0  0  0  0  0
    5.0950    0.8391   -4.1200 H   0  0  0  0  0  0  0  0  0  0  0  0
    4.6580    0.4048   -2.6077 H   0  0  0  0  0  0  0  0  0  0  0  0
    3.1797    1.6940    0.3091 H   0  0  0  0  0  0  0  0  0  0  0  0
    3.7955    1.2427    1.7526 H   0  0  0  0  0  0  0  0  0  0  0  0
    4.5387    3.2977    2.0745 H   0  0  0  0  0  0  0  0  0  0  0  0
    3.9130    3.7518    0.6361 H   0  0  0  0  0  0  0  0  0  0  0  0
    4.5173    5.8277    2.0110 H   0  0  0  0  0  0  0  0  0  0  0  0
    3.6514    6.1075    3.3670 H   0  0  0  0  0  0  0  0  0  0  0  0
    4.2963    8.1797    2.6454 H   0  0  0  0  0  0  0  0  0  0  0  0
    3.9153    7.8355    1.0953 H   0  0  0  0  0  0  0  0  0  0  0  0
    4.3195   13.9275   -1.6199 H   0  0  0  0  0  0  0  0  0  0  0  0
    2.9271   15.6505   -0.7156 H   0  0  0  0  0  0  0  0  0  0  0  0
  1  2  1  0  0  0  0
  2  3  1  0  0  0  0
  3  4  2  0  0  0  0
  4  5  1  0  0  0  0
  5  6  1  0  0  0  0
  6  7  1  0  0  0  0
  7  8  2  0  0  0  0
  8  4  1  0  0  0  0
  8  9  1  0  0  0  0
  9 10  1  0  0  0  0
 10 11  2  0  0  0  0
 10 12  1  0  0  0  0
 12 13  1  0  0  0  0
 13 14  1  0  0  0  0
 14 15  1  0  0  0  0
 15 16  1  0  0  0  0
 16 17  1  0  0  0  0
 17 18  1  0  0  0  0
 18 19  1  0  0  0  0
 19 20  1  0  0  0  0
 20 21  2  0  0  0  0
 20 22  1  0  0  0  0
 22 23  1  0  0  0  0
 23 24  1  0  0  0  0
 24 25  2  0  0  0  0
 24 26  1  0  0  0  0
 26 27  1  0  0  0  0
 27 28  1  0  0  0  0
 28 29  1  0  0  0  0
 29 30  1  0  0  0  0
 30 26  1  0  0  0  0
 18 31  1  0  0  0  0
 31 32  1  0  0  0  0
 32 16  1  0  0  0  0
 15 33  1  0  0  0  0
 33 34  1  0  0  0  0
 34 12  1  0  0  0  0
  5 35  2  0  0  0  0
 35 36  1  0  0  0  0
 36  2  2  0  0  0  0
 18 37  1  0  0  0  0
  3 38  1  0  0  0  0
  6 39  1  0  0  0  0
  7 40  1  0  0  0  0
  9 41  1  0  0  0  0
  9 42  1  0  0  0  0
 13 43  1  0  0  0  0
 13 44  1  0  0  0  0
 14 45  1  0  0  0  0
 14 46  1  0  0  0  0
 15 47  1  0  0  0  0
 16 48  1  0  0  0  0
 17 49  1  0  0  0  0
 17 50  1  0  0  0  0
 19 51  1  0  0  0  0
 19 52  1  0  0  0  0
 22 53  1  0  0  0  0
 23 54  1  0  0  0  0
 23 55  1  0  0  0  0
 27 56  1  0  0  0  0
 27 57  1  0  0  0  0
 28 58  1  0  0  0  0
 28 59  1  0  0  0  0
 29 60  1  0  0  0  0
 29 61  1  0  0  0  0
 30 62  1  0  0  0  0
 30 63  1  0  0  0  0
 31 64  1  0  0  0  0
 31 65  1  0  0  0  0
 32 66  1  0  0  0  0
 32 67  1  0  0  0  0
 33 68  1  0  0  0  0
 33 69  1  0  0  0  0
 34 70  1  0  0  0  0
 34 71  1  0  0  0  0
 35 72  1  0  0  0  0
 36 73  1  0  0  0  0
M  CHG  1  18   1
M  END
>  <result-rank>
14

>  <similarity>
0.911

>  <query-name>


>  <query-smiles>
S1c2c(cccc2)C(C(=O)N3CCC([N@H+]4CC5(C(=O)N6N(C5=O)CCCC6)CCC4)CC3)=C1NC(=O)NC

>  <source>
REALspace_2019-12

>  <similarity-descriptor>
0.999;0.899;0.963;0.792;0.936;0.999;0.860;0.899;0.0;0.0;0.0;0.0

>  <similarity-descriptor-smiles>
N1CCCCC1;c1C=CNc1;Fc1ccccc1;C(=O)NCC=O;C1CC[NH+](C1)C;N1CCCC1;CC=O;c1C=CNc1;;;;

>  <reaction-name>
m_275030

>  <reagent1-name>
14114032

>  <reagent1-smiles>
[R2*]N1CC(C2CCN([R1*])CC2)CC1

>  <reagent2-name>
14127584

>  <reagent2-smiles>
[R1*]C(=O)CC=1c2c(NC1)ccc(F)c2

>  <reagent3-name>
14146862

>  <reagent3-smiles>
[R2*]CC(=O)NCC(=O)N1CCCC1

$$$$
m_275030____14114236____14128104____14146862
          04022017303D 1   1.00000     0.00000     0
            
 75 79  0  0  0  0            999 V2000
   -1.9062    3.4271    6.9270 O   0  0  0  0  0  0  0  0  0  0  0  0
   -1.8007    4.5370    6.4831 C   0  0  0  0  0  0  0  0  0  0  0  0
   -0.6020    4.9365    5.8662 N   0  0  0  0  0  0  0  0  0  0  0  0
    0.3101    3.9561    5.2610 C   0  0  0  0  0  0  0  0  0  0  0  0
    1.0614    4.6275    4.1224 C   0  0  3  0  0  0  0  0  0  0  0  0
    1.9124    3.6207    3.3658 C   0  0  3  0  0  0  0  0  0  0  0  0
    1.1641    3.1010    2.1577 C   0  0  0  0  0  0  0  0  0  0  0  0
    1.8489    1.8489    1.8489 N   0  3  3  0  0  0  0  0  0  0  0  0
    1.0000    1.0000    1.0000 C   0  0  0  0  0  0  0  0  0  0  0  0
    1.0912    1.4729   -0.4417 C   0  0  0  0  0  0  0  0  0  0  0  0
    2.1468    1.8221   -0.8929 O   0  0  0  0  0  0  0  0  0  0  0  0
   -0.0318    1.5005   -1.2259 N   0  0  0  0  0  0  0  0  0  0  0  0
    0.0564    1.9578   -2.6201 C   0  0  0  0  0  0  0  0  0  0  0  0
   -1.3193    1.8913   -3.2632 C   0  0  0  0  0  0  0  0  0  0  0  0
   -2.2610    1.5060   -2.6270 O   0  0  0  0  0  0  0  0  0  0  0  0
   -1.4881    2.2804   -4.6006 N   0  0  0  0  0  0  0  0  0  0  0  0
   -2.7526    2.2667   -5.3419 C   0  0  0  0  0  0  0  0  0  0  0  0
   -2.6187    3.3846   -6.3573 C   0  0  0  0  0  0  0  0  0  0  0  0
   -1.1324    3.6625   -6.4996 C   0  0  0  0  0  0  0  0  0  0  0  0
   -0.4329    2.7633   -5.4982 C   0  0  0  0  0  0  0  0  0  0  0  0
    1.9734    1.2111    3.1665 C   0  0  0  0  0  0  0  0  0  0  0  0
    2.0761    2.3450    4.1733 C   0  0  0  0  0  0  0  0  0  0  0  0
    1.9909    5.6677    4.7249 C   0  0  0  0  0  0  0  0  0  0  0  0
    1.3246    6.4466    5.8493 C   0  0  0  0  0  0  0  0  0  0  0  0
   -0.1918    6.3464    5.7926 C   0  0  0  0  0  0  0  0  0  0  0  0
   -2.9093    5.4658    6.5827 C   0  0  0  0  0  0  0  0  0  0  0  0
   -3.6908    5.7730    5.4717 C   0  0  0  0  0  0  0  0  0  0  0  0
   -4.7135    6.6341    5.5880 N   0  0  0  0  0  0  0  0  0  0  0  0
   -5.0153    7.2199    6.7569 C   0  0  0  0  0  0  0  0  0  0  0  0
   -4.2660    6.9479    7.8968 C   0  0  0  0  0  0  0  0  0  0  0  0
   -4.5686    7.5652    9.1731 C   0  0  0  0  0  0  0  0  0  0  0  0
   -4.4021    6.8379   10.3471 C   0  0  0  0  0  0  0  0  0  0  0  0
   -4.6944    7.4339   11.5696 C   0  0  0  0  0  0  0  0  0  0  0  0
   -5.1482    8.7480   11.6119 C   0  0  0  0  0  0  0  0  0  0  0  0
   -5.3103    9.4651   10.4328 C   0  0  0  0  0  0  0  0  0  0  0  0
   -5.0220    8.8802    9.2041 C   0  0  0  0  0  0  0  0  0  0  0  0
   -3.2002    6.0591    7.8068 C   0  0  0  0  0  0  0  0  0  0  0  0
    2.7432    2.0108    1.4316 H   0  0  0  0  0  0  0  0  0  0  0  0
   -0.2146    3.1817    4.9075 H   0  0  0  0  0  0  0  0  0  0  0  0
    0.9603    3.6323    5.9484 H   0  0  0  0  0  0  0  0  0  0  0  0
    0.4153    5.0667    3.4983 H   0  0  0  0  0  0  0  0  0  0  0  0
    2.7978    4.0084    3.1096 H   0  0  0  0  0  0  0  0  0  0  0  0
    0.2018    2.9383    2.3753 H   0  0  0  0  0  0  0  0  0  0  0  0
    1.2292    3.7424    1.3932 H   0  0  0  0  0  0  0  0  0  0  0  0
    0.0515    1.0600    1.3111 H   0  0  0  0  0  0  0  0  0  0  0  0
    1.3111    0.0515    1.0600 H   0  0  0  0  0  0  0  0  0  0  0  0
   -0.9115    1.2094   -0.8498 H   0  0  0  0  0  0  0  0  0  0  0  0
    0.6888    1.3699   -3.1244 H   0  0  0  0  0  0  0  0  0  0  0  0
    0.3890    2.9007   -2.6413 H   0  0  0  0  0  0  0  0  0  0  0  0
   -3.5228    2.4390   -4.7279 H   0  0  0  0  0  0  0  0  0  0  0  0
   -2.8823    1.3877   -5.8009 H   0  0  0  0  0  0  0  0  0  0  0  0
   -3.0938    4.2032   -6.0344 H   0  0  0  0  0  0  0  0  0  0  0  0
   -3.0028    3.1011   -7.2359 H   0  0  0  0  0  0  0  0  0  0  0  0
   -0.8277    3.4496   -7.4280 H   0  0  0  0  0  0  0  0  0  0  0  0
   -0.9387    4.6225   -6.2972 H   0  0  0  0  0  0  0  0  0  0  0  0
    0.0069    1.9961   -5.9651 H   0  0  0  0  0  0  0  0  0  0  0  0
    0.2533    3.2790   -4.9853 H   0  0  0  0  0  0  0  0  0  0  0  0
    2.7944    0.6411    3.2003 H   0  0  0  0  0  0  0  0  0  0  0  0
    1.1690    0.6486    3.3575 H   0  0  0  0  0  0  0  0  0  0  0  0
    1.3521    2.2701    4.8591 H   0  0  0  0  0  0  0  0  0  0  0  0
    2.9674    2.3303    4.6266 H   0  0  0  0  0  0  0  0  0  0  0  0
    2.2664    6.3081    4.0080 H   0  0  0  0  0  0  0  0  0  0  0  0
    2.8000    5.2056    5.0880 H   0  0  0  0  0  0  0  0  0  0  0  0
    1.6395    6.0816    6.7254 H   0  0  0  0  0  0  0  0  0  0  0  0
    1.5874    7.4086    5.7751 H   0  0  0  0  0  0  0  0  0  0  0  0
   -0.5864    6.8474    6.5628 H   0  0  0  0  0  0  0  0  0  0  0  0
   -0.5186    6.7426    4.9346 H   0  0  0  0  0  0  0  0  0  0  0  0
   -3.4899    5.3519    4.5872 H   0  0  0  0  0  0  0  0  0  0  0  0
   -5.7846    7.8567    6.8088 H   0  0  0  0  0  0  0  0  0  0  0  0
   -4.0747    5.8937   10.3125 H   0  0  0  0  0  0  0  0  0  0  0  0
   -4.5783    6.9175   12.4180 H   0  0  0  0  0  0  0  0  0  0  0  0
   -5.3578    9.1767   12.4907 H   0  0  0  0  0  0  0  0  0  0  0  0
   -5.6369   10.4096   10.4679 H   0  0  0  0  0  0  0  0  0  0  0  0
   -5.1389    9.3970    8.3560 H   0  0  0  0  0  0  0  0  0  0  0  0
   -2.6486    5.8486    8.6138 H   0  0  0  0  0  0  0  0  0  0  0  0
  1  2  2  0  0  0  0
  2  3  1  0  0  0  0
  3  4  1  0  0  0  0
  4  5  1  0  0  0  0
  5  6  1  0  0  0  0
  6  7  1  0  0  0  0
  7  8  1  0  0  0  0
  8  9  1  0  0  0  0
  9 10  1  0  0  0  0
 10 11  2  0  0  0  0
 10 12  1  0  0  0  0
 12 13  1  0  0  0  0
 13 14  1  0  0  0  0
 14 15  2  0  0  0  0
 14 16  1  0  0  0  0
 16 17  1  0  0  0  0
 17 18  1  0  0  0  0
 18 19  1  0  0  0  0
 19 20  1  0  0  0  0
 20 16  1  0  0  0  0
  8 21  1  0  0  0  0
 21 22  1  0  0  0  0
 22  6  1  0  0  0  0
  5 23  1  0  0  0  0
 23 24  1  0  0  0  0
 24 25  1  0  0  0  0
 25  3  1  0  0  0  0
  2 26  1  0  0  0  0
 26 27  1  0  0  0  0
 27 28  2  0  0  0  0
 28 29  1  0  0  0  0
 29 30  2  0  0  0  0
 30 31  1  0  0  0  0
 31 32  1  0  0  0  0
 32 33  2  0  0  0  0
 33 34  1  0  0  0  0
 34 35  2  0  0  0  0
 35 36  1  0  0  0  0
 36 31  2  0  0  0  0
 30 37  1  0  0  0  0
 37 26  2  0  0  0  0
  8 38  1  0  0  0  0
  4 39  1  0  0  0  0
  4 40  1  0  0  0  0
  5 41  1  0  0  0  0
  6 42  1  0  0  0  0
  7 43  1  0  0  0  0
  7 44  1  0  0  0  0
  9 45  1  0  0  0  0
  9 46  1  0  0  0  0
 12 47  1  0  0  0  0
 13 48  1  0  0  0  0
 13 49  1  0  0  0  0
 17 50  1  0  0  0  0
 17 51  1  0  0  0  0
 18 52  1  0  0  0  0
 18 53  1  0  0  0  0
 19 54  1  0  0  0  0
 19 55  1  0  0  0  0
 20 56  1  0  0  0  0
 20 57  1  0  0  0  0
 21 58  1  0  0  0  0
 21 59  1  0  0  0  0
 22 60  1  0  0  0  0
 22 61  1  0  0  0  0
 23 62  1  0  0  0  0
 23 63  1  0  0  0  0
 24 64  1  0  0  0  0
 24 65  1  0  0  0  0
 25 66  1  0  0  0  0
 25 67  1  0  0  0  0
 27 68  1  0  0  0  0
 29 69  1  0  0  0  0
 32 70  1  0  0  0  0
 33 71  1  0  0  0  0
 34 72  1  0  0  0  0
 35 73  1  0  0  0  0
 36 74  1  0  0  0  0
 37 75  1  0  0  0  0
M  CHG  1   8   1
M  END
>  <result-rank>
15

>  <similarity>
0.909

>  <query-name>


>  <query-smiles>
S1c2c(cccc2)C(C(=O)N3CCC([N@H+]4CC5(C(=O)N6N(C5=O)CCCC6)CCC4)CC3)=C1NC(=O)NC

>  <source>
REALspace_2019-12

>  <similarity-descriptor>
0.999;0.824;0.942;0.792;0.936;0.999;0.999;0.824;0.824;0.0;0.0;0.0

>  <similarity-descriptor-smiles>
N1CCCCC1;c1cccnc1;c1ccccc1;C(=O)NCC=O;C1CC[NH+](C1)C;N1CCCC1;O=C;c1cccnc1;c1cccnc1;;;

>  <reaction-name>
m_275030

>  <reagent1-name>
14114236

>  <reagent1-smiles>
[R2*]N1CC(C2CN([R1*])CCC2)CC1

>  <reagent2-name>
14128104

>  <reagent2-smiles>
[R1*]C(=O)c1cncc(c2ccccc2)c1

>  <reagent3-name>
14146862

>  <reagent3-smiles>
[R2*]CC(=O)NCC(=O)N1CCCC1

$$$$
m_275030____14114100____14123352____14147198
          04022017303D 1   1.00000     0.00000     0
            
 78 83  0  0  0  0            999 V2000
    3.2707   -5.1385    8.8627 O   0  0  0  0  0  0  0  0  0  0  0  0
    4.4415   -5.3083    8.5575 C   0  0  0  0  0  0  0  0  0  0  0  0
    4.9863   -5.0609    7.2978 N   0  0  0  0  0  0  0  0  0  0  0  0
    6.3508   -5.3493    7.2750 C   0  0  0  0  0  0  0  0  0  0  0  0
    7.1131   -5.2371    6.3218 O   0  0  0  0  0  0  0  0  0  0  0  0
    6.6868   -5.8329    8.6690 C   0  0  0  0  0  0  0  0  0  0  0  0
    5.4282   -5.7853    9.4208 N   0  0  0  0  0  0  0  0  0  0  0  0
    7.4266   -7.1539    8.6292 C   0  0  0  0  0  0  0  0  0  0  0  0
    8.0157   -7.2949   10.0182 C   0  0  0  0  0  0  0  0  0  0  0  0
    8.3518   -5.8690   10.4024 C   0  0  0  0  0  0  0  0  0  0  0  0
    7.8124   -5.0207    9.2683 C   0  0  0  0  0  0  0  0  0  0  0  0
    4.2298   -4.5584    6.1424 C   0  0  0  0  0  0  0  0  0  0  0  0
    4.2643   -3.0388    6.1362 C   0  0  0  0  0  0  0  0  0  0  0  0
    3.5068   -2.5357    4.9794 N   0  3  3  0  0  0  0  0  0  0  0  0
    3.5186   -1.0647    4.9409 C   0  0  0  0  0  0  0  0  0  0  0  0
    2.7627   -0.5311    3.7331 C   0  0  3  0  0  0  0  0  0  0  0  0
    2.7657    0.9893    3.7020 C   0  0  0  0  0  0  0  0  0  0  0  0
    4.2152    1.4493    3.6340 C   0  0  0  0  0  0  0  0  0  0  0  0
    4.3351    2.9624    3.5155 C   0  0  0  0  0  0  0  0  0  0  0  0
    3.4072    3.5117    2.5135 N   0  0  0  0  0  0  0  0  0  0  0  0
    3.8017    4.6453    1.7979 C   0  0  0  0  0  0  0  0  0  0  0  0
    4.8724    5.1448    2.0077 O   0  0  0  0  0  0  0  0  0  0  0  0
    2.9169    5.2183    0.8014 C   0  0  0  0  0  0  0  0  0  0  0  0
    2.4491    4.5870   -0.3044 N   0  0  0  0  0  0  0  0  0  0  0  0
    1.6458    5.4421   -1.0060 C   0  0  0  0  0  0  0  0  0  0  0  0
    1.5975    6.6406   -0.3330 C   0  0  0  0  0  0  0  0  0  0  0  0
    0.8347    7.6862   -0.8447 C   0  0  0  0  0  0  0  0  0  0  0  0
    0.1174    7.5419   -2.0278 C   0  0  0  0  0  0  0  0  0  0  0  0
    0.1695    6.3274   -2.7038 C   0  0  0  0  0  0  0  0  0  0  0  0
    0.9328    5.2844   -2.1900 C   0  0  0  0  0  0  0  0  0  0  0  0
    2.4093    6.4791    0.8094 C   0  0  0  0  0  0  0  0  0  0  0  0
    2.6428    7.4181    1.7511 O   0  0  0  0  0  0  0  0  0  0  0  0
    3.7404    8.3079    1.6097 C   0  0  0  0  0  0  0  0  0  0  0  0
    2.0878    2.9259    2.2239 C   0  0  0  0  0  0  0  0  0  0  0  0
    2.0810    1.4150    2.4110 C   0  0  0  0  0  0  0  0  0  0  0  0
    1.3324   -1.0463    3.7613 C   0  0  0  0  0  0  0  0  0  0  0  0
    1.3542   -2.5662    3.7912 C   0  0  0  0  0  0  0  0  0  0  0  0
    2.1328   -3.0589    5.0005 C   0  0  0  0  0  0  0  0  0  0  0  0
    3.9523   -2.8702    4.1490 H   0  0  0  0  0  0  0  0  0  0  0  0
    5.3007   -6.0470   10.3775 H   0  0  0  0  0  0  0  0  0  0  0  0
    8.1493   -7.1345    7.9382 H   0  0  0  0  0  0  0  0  0  0  0  0
    6.7979   -7.9063    8.4330 H   0  0  0  0  0  0  0  0  0  0  0  0
    8.8375   -7.8645   10.0024 H   0  0  0  0  0  0  0  0  0  0  0  0
    7.3493   -7.6886   10.6514 H   0  0  0  0  0  0  0  0  0  0  0  0
    7.9102   -5.6240   11.2655 H   0  0  0  0  0  0  0  0  0  0  0  0
    9.3411   -5.7520   10.4891 H   0  0  0  0  0  0  0  0  0  0  0  0
    7.4692   -4.1479    9.6153 H   0  0  0  0  0  0  0  0  0  0  0  0
    8.5246   -4.8517    8.5870 H   0  0  0  0  0  0  0  0  0  0  0  0
    3.2815   -4.8700    6.2038 H   0  0  0  0  0  0  0  0  0  0  0  0
    4.6405   -4.9046    5.2989 H   0  0  0  0  0  0  0  0  0  0  0  0
    3.8536   -2.6926    6.9797 H   0  0  0  0  0  0  0  0  0  0  0  0
    5.2126   -2.7272    6.0749 H   0  0  0  0  0  0  0  0  0  0  0  0
    4.4663   -0.7486    4.8964 H   0  0  0  0  0  0  0  0  0  0  0  0
    3.0892   -0.7146    5.7734 H   0  0  0  0  0  0  0  0  0  0  0  0
    3.2074   -0.8684    2.9034 H   0  0  0  0  0  0  0  0  0  0  0  0
    2.3012    1.3697    4.5018 H   0  0  0  0  0  0  0  0  0  0  0  0
    4.6491    1.0287    2.8372 H   0  0  0  0  0  0  0  0  0  0  0  0
    4.6860    1.1533    4.4651 H   0  0  0  0  0  0  0  0  0  0  0  0
    4.1310    3.3731    4.4041 H   0  0  0  0  0  0  0  0  0  0  0  0
    5.2712    3.1923    3.2491 H   0  0  0  0  0  0  0  0  0  0  0  0
    2.6588    3.6446   -0.5652 H   0  0  0  0  0  0  0  0  0  0  0  0
    0.8017    8.5565   -0.3532 H   0  0  0  0  0  0  0  0  0  0  0  0
   -0.4275    8.2998   -2.3868 H   0  0  0  0  0  0  0  0  0  0  0  0
   -0.3396    6.2047   -3.5558 H   0  0  0  0  0  0  0  0  0  0  0  0
    0.9694    4.4117   -2.6769 H   0  0  0  0  0  0  0  0  0  0  0  0
    3.7656    8.9327    2.3900 H   0  0  0  0  0  0  0  0  0  0  0  0
    4.5916    7.7842    1.5743 H   0  0  0  0  0  0  0  0  0  0  0  0
    3.6369    8.8333    0.7651 H   0  0  0  0  0  0  0  0  0  0  0  0
    1.8424    3.1351    1.2773 H   0  0  0  0  0  0  0  0  0  0  0  0
    1.4125    3.3306    2.8405 H   0  0  0  0  0  0  0  0  0  0  0  0
    1.1329    1.0976    2.4301 H   0  0  0  0  0  0  0  0  0  0  0  0
    2.5581    0.9934    1.6398 H   0  0  0  0  0  0  0  0  0  0  0  0
    0.8474   -0.7339    2.9445 H   0  0  0  0  0  0  0  0  0  0  0  0
    0.8679   -0.7016    4.5771 H   0  0  0  0  0  0  0  0  0  0  0  0
    0.4160   -2.9087    3.8409 H   0  0  0  0  0  0  0  0  0  0  0  0
    1.7895   -2.9063    2.9576 H   0  0  0  0  0  0  0  0  0  0  0  0
    1.6758   -2.7489    5.8342 H   0  0  0  0  0  0  0  0  0  0  0  0
    2.1615   -4.0584    4.9881 H   0  0  0  0  0  0  0  0  0  0  0  0
  1  2  2  0  0  0  0
  2  3  1  0  0  0  0
  3  4  1  0  0  0  0
  4  5  2  0  0  0  0
  4  6  1  0  0  0  0
  6  7  1  0  0  0  0
  7  2  1  0  0  0  0
  6  8  1  0  0  0  0
  8  9  1  0  0  0  0
  9 10  1  0  0  0  0
 10 11  1  0  0  0  0
 11  6  1  0  0  0  0
  3 12  1  0  0  0  0
 12 13  1  0  0  0  0
 13 14  1  0  0  0  0
 14 15  1  0  0  0  0
 15 16  1  0  0  0  0
 16 17  1  0  0  0  0
 17 18  1  0  0  0  0
 18 19  1  0  0  0  0
 19 20  1  0  0  0  0
 20 21  1  0  0  0  0
 21 22  2  0  0  0  0
 21 23  1  0  0  0  0
 23 24  1  0  0  0  0
 24 25  1  0  0  0  0
 25 26  1  0  0  0  0
 26 27  2  0  0  0  0
 27 28  1  0  0  0  0
 28 29  2  0  0  0  0
 29 30  1  0  0  0  0
 30 25  2  0  0  0  0
 26 31  1  0  0  0  0
 23 31  2  0  0  0  0
 31 32  1  0  0  0  0
 32 33  1  0  0  0  0
 20 34  1  0  0  0  0
 34 35  1  0  0  0  0
 35 17  1  0  0  0  0
 16 36  1  0  0  0  0
 36 37  1  0  0  0  0
 37 38  1  0  0  0  0
 38 14  1  0  0  0  0
 14 39  1  0  0  0  0
  7 40  1  0  0  0  0
  8 41  1  0  0  0  0
  8 42  1  0  0  0  0
  9 43  1  0  0  0  0
  9 44  1  0  0  0  0
 10 45  1  0  0  0  0
 10 46  1  0  0  0  0
 11 47  1  0  0  0  0
 11 48  1  0  0  0  0
 12 49  1  0  0  0  0
 12 50  1  0  0  0  0
 13 51  1  0  0  0  0
 13 52  1  0  0  0  0
 15 53  1  0  0  0  0
 15 54  1  0  0  0  0
 16 55  1  0  0  0  0
 17 56  1  0  0  0  0
 18 57  1  0  0  0  0
 18 58  1  0  0  0  0
 19 59  1  0  0  0  0
 19 60  1  0  0  0  0
 24 61  1  0  0  0  0
 27 62  1  0  0  0  0
 28 63  1  0  0  0  0
 29 64  1  0  0  0  0
 30 65  1  0  0  0  0
 33 66  1  0  0  0  0
 33 67  1  0  0  0  0
 33 68  1  0  0  0  0
 34 69  1  0  0  0  0
 34 70  1  0  0  0  0
 35 71  1  0  0  0  0
 35 72  1  0  0  0  0
 36 73  1  0  0  0  0
 36 74  1  0  0  0  0
 37 75  1  0  0  0  0
 37 76  1  0  0  0  0
 38 77  1  0  0  0  0
 38 78  1  0  0  0  0
M  CHG  1  14   1
M  END
>  <result-rank>
16

>  <similarity>
0.909

>  <query-name>


>  <query-smiles>
S1c2c(cccc2)C(C(=O)N3CCC([N@H+]4CC5(C(=O)N6N(C5=O)CCCC6)CCC4)CC3)=C1NC(=O)NC

>  <source>
REALspace_2019-12

>  <similarity-descriptor>
0.999;0.906;0.999;0.809;0.937;0.994;1.000;0.906;0.563;0.563;0.563;0.0

>  <similarity-descriptor-smiles>
C1CCNCC1;C1=CccN1;c1ccccc1;O=C1NCC(N1CC)=O;[NH+]1CCCCC1;C1CCCC1;C=O;C1=CccN1;OC;OC;OC;

>  <reaction-name>
m_275030

>  <reagent1-name>
14114100

>  <reagent1-smiles>
[R1*]N1CC(C2CCN([R2*])CC2)CCC1

>  <reagent2-name>
14123352

>  <reagent2-smiles>
[R1*]C(=O)C=1Nc2c(cccc2)C1OC

>  <reagent3-name>
14147198

>  <reagent3-smiles>
[R2*]CCN1C(=O)NC2(C1=O)CCCC2

$$$$
m_275030____14114158____14125052____14146862
          04022017303D 1   1.00000     0.00000     0
            
 74 78  0  0  0  0            999 V2000
    7.1712    5.0132   -1.1282 O   0  0  0  0  0  0  0  0  0  0  0  0
    6.4815    5.9952   -1.1382 C   0  0  0  0  0  0  0  0  0  0  0  0
    5.2000    5.9602   -0.5607 N   0  0  0  0  0  0  0  0  0  0  0  0
    4.6756    4.7373    0.0631 C   0  0  0  0  0  0  0  0  0  0  0  0
    3.6993    5.1300    1.1605 C   0  0  3  0  0  0  0  0  0  0  0  0
    3.2367    3.9084    1.9378 C   0  0  3  0  0  0  0  0  0  0  0  0
    2.3207    3.0278    1.1000 C   0  0  0  0  0  0  0  0  0  0  0  0
    1.8518    1.8518    1.8518 N   0  3  3  0  0  0  0  0  0  0  0  0
    1.0000    1.0000    1.0000 C   0  0  0  0  0  0  0  0  0  0  0  0
    1.8773    0.1448    0.1004 C   0  0  0  0  0  0  0  0  0  0  0  0
    2.8855   -0.3419    0.5324 O   0  0  0  0  0  0  0  0  0  0  0  0
    1.5170   -0.0705   -1.2038 N   0  0  0  0  0  0  0  0  0  0  0  0
    2.3654   -0.8976   -2.0738 C   0  0  0  0  0  0  0  0  0  0  0  0
    1.7451   -0.9771   -3.4592 C   0  0  0  0  0  0  0  0  0  0  0  0
    0.7141   -0.4075   -3.6885 O   0  0  0  0  0  0  0  0  0  0  0  0
    2.3779   -1.7164   -4.4698 N   0  0  0  0  0  0  0  0  0  0  0  0
    1.8924   -1.8766   -5.8436 C   0  0  0  0  0  0  0  0  0  0  0  0
    3.1448   -2.0575   -6.6787 C   0  0  0  0  0  0  0  0  0  0  0  0
    4.2425   -2.4899   -5.7221 C   0  0  0  0  0  0  0  0  0  0  0  0
    3.6319   -2.4658   -4.3339 C   0  0  0  0  0  0  0  0  0  0  0  0
    1.1441    2.2532    3.0768 C   0  0  0  0  0  0  0  0  0  0  0  0
    2.0374    3.1084    3.9610 C   0  0  0  0  0  0  0  0  0  0  0  0
    2.4932    4.3383    3.1918 C   0  0  0  0  0  0  0  0  0  0  0  0
    2.4812    5.7546    0.5007 C   0  0  0  0  0  0  0  0  0  0  0  0
    2.8638    6.6872   -0.6389 C   0  0  0  0  0  0  0  0  0  0  0  0
    4.3146    7.1338   -0.5486 C   0  0  0  0  0  0  0  0  0  0  0  0
    6.9699    7.2182   -1.7462 C   0  0  0  0  0  0  0  0  0  0  0  0
    7.0977    8.3341   -1.0483 N   0  0  0  0  0  0  0  0  0  0  0  0
    7.5417    9.4568   -1.5891 N   0  0  0  0  0  0  0  0  0  0  0  0
    7.8999    9.5393   -2.9109 C   0  0  0  0  0  0  0  0  0  0  0  0
    7.7942    8.4084   -3.7136 C   0  0  0  0  0  0  0  0  0  0  0  0
    8.1547    8.4852   -5.0568 C   0  0  0  0  0  0  0  0  0  0  0  0
    8.6220    9.6663   -5.6222 C   0  0  0  0  0  0  0  0  0  0  0  0
    8.7263   10.7937   -4.8148 C   0  0  0  0  0  0  0  0  0  0  0  0
    8.3662   10.7236   -3.4734 C   0  0  0  0  0  0  0  0  0  0  0  0
    7.3165    7.2061   -3.1236 C   0  0  0  0  0  0  0  0  0  0  0  0
    7.1946    6.1674   -3.7569 O   0  0  0  0  0  0  0  0  0  0  0  0
    2.6532    1.3170    2.1196 H   0  0  0  0  0  0  0  0  0  0  0  0
    5.4292    4.2102    0.4559 H   0  0  0  0  0  0  0  0  0  0  0  0
    4.2047    4.1843   -0.6242 H   0  0  0  0  0  0  0  0  0  0  0  0
    4.1277    5.7877    1.7801 H   0  0  0  0  0  0  0  0  0  0  0  0
    4.0388    3.3749    2.2062 H   0  0  0  0  0  0  0  0  0  0  0  0
    1.5278    3.5659    0.8140 H   0  0  0  0  0  0  0  0  0  0  0  0
    2.8214    2.7166    0.2923 H   0  0  0  0  0  0  0  0  0  0  0  0
    0.4081    1.5772    0.4373 H   0  0  0  0  0  0  0  0  0  0  0  0
    0.4373    0.4081    1.5772 H   0  0  0  0  0  0  0  0  0  0  0  0
    0.6768    0.3351   -1.5638 H   0  0  0  0  0  0  0  0  0  0  0  0
    2.4407   -1.8175   -1.6890 H   0  0  0  0  0  0  0  0  0  0  0  0
    3.2753   -0.4880   -2.1390 H   0  0  0  0  0  0  0  0  0  0  0  0
    1.3884   -1.0640   -6.1361 H   0  0  0  0  0  0  0  0  0  0  0  0
    1.3012   -2.6798   -5.9169 H   0  0  0  0  0  0  0  0  0  0  0  0
    3.3922   -1.1957   -7.1215 H   0  0  0  0  0  0  0  0  0  0  0  0
    2.9972   -2.7598   -7.3751 H   0  0  0  0  0  0  0  0  0  0  0  0
    4.5542   -3.4130   -5.9473 H   0  0  0  0  0  0  0  0  0  0  0  0
    5.0144   -1.8561   -5.7718 H   0  0  0  0  0  0  0  0  0  0  0  0
    3.4502   -3.3963   -4.0160 H   0  0  0  0  0  0  0  0  0  0  0  0
    4.2449   -2.0074   -3.6904 H   0  0  0  0  0  0  0  0  0  0  0  0
    0.8713    1.4339    3.5812 H   0  0  0  0  0  0  0  0  0  0  0  0
    0.3299    2.7779    2.8281 H   0  0  0  0  0  0  0  0  0  0  0  0
    2.8365    2.5760    4.2402 H   0  0  0  0  0  0  0  0  0  0  0  0
    1.5270    3.3939    4.7721 H   0  0  0  0  0  0  0  0  0  0  0  0
    1.6960    4.8848    2.9352 H   0  0  0  0  0  0  0  0  0  0  0  0
    3.1007    4.8851    3.7680 H   0  0  0  0  0  0  0  0  0  0  0  0
    1.9740    6.2755    1.1874 H   0  0  0  0  0  0  0  0  0  0  0  0
    1.9004    5.0251    0.1395 H   0  0  0  0  0  0  0  0  0  0  0  0
    2.7267    6.2094   -1.5066 H   0  0  0  0  0  0  0  0  0  0  0  0
    2.2750    7.4948   -0.6065 H   0  0  0  0  0  0  0  0  0  0  0  0
    4.5305    7.7202   -1.3293 H   0  0  0  0  0  0  0  0  0  0  0  0
    4.4523    7.6445    0.3000 H   0  0  0  0  0  0  0  0  0  0  0  0
    7.6187   10.2723   -1.0155 H   0  0  0  0  0  0  0  0  0  0  0  0
    8.0754    7.6693   -5.6295 H   0  0  0  0  0  0  0  0  0  0  0  0
    8.8774    9.7043   -6.5883 H   0  0  0  0  0  0  0  0  0  0  0  0
    9.0602   11.6547   -5.1986 H   0  0  0  0  0  0  0  0  0  0  0  0
    8.4438   11.5404   -2.9018 H   0  0  0  0  0  0  0  0  0  0  0  0
  1  2  2  0  0  0  0
  2  3  1  0  0  0  0
  3  4  1  0  0  0  0
  4  5  1  0  0  0  0
  5  6  1  0  0  0  0
  6  7  1  0  0  0  0
  7  8  1  0  0  0  0
  8  9  1  0  0  0  0
  9 10  1  0  0  0  0
 10 11  2  0  0  0  0
 10 12  1  0  0  0  0
 12 13  1  0  0  0  0
 13 14  1  0  0  0  0
 14 15  2  0  0  0  0
 14 16  1  0  0  0  0
 16 17  1  0  0  0  0
 17 18  1  0  0  0  0
 18 19  1  0  0  0  0
 19 20  1  0  0  0  0
 20 16  1  0  0  0  0
  8 21  1  0  0  0  0
 21 22  1  0  0  0  0
 22 23  1  0  0  0  0
 23  6  1  0  0  0  0
  5 24  1  0  0  0  0
 24 25  1  0  0  0  0
 25 26  1  0  0  0  0
 26  3  1  0  0  0  0
  2 27  1  0  0  0  0
 27 28  2  0  0  0  0
 28 29  1  0  0  0  0
 29 30  1  0  0  0  0
 30 31  1  0  0  0  0
 31 32  2  0  0  0  0
 32 33  1  0  0  0  0
 33 34  2  0  0  0  0
 34 35  1  0  0  0  0
 35 30  2  0  0  0  0
 31 36  1  0  0  0  0
 36 27  1  0  0  0  0
 36 37  2  0  0  0  0
  8 38  1  0  0  0  0
  4 39  1  0  0  0  0
  4 40  1  0  0  0  0
  5 41  1  0  0  0  0
  6 42  1  0  0  0  0
  7 43  1  0  0  0  0
  7 44  1  0  0  0  0
  9 45  1  0  0  0  0
  9 46  1  0  0  0  0
 12 47  1  0  0  0  0
 13 48  1  0  0  0  0
 13 49  1  0  0  0  0
 17 50  1  0  0  0  0
 17 51  1  0  0  0  0
 18 52  1  0  0  0  0
 18 53  1  0  0  0  0
 19 54  1  0  0  0  0
 19 55  1  0  0  0  0
 20 56  1  0  0  0  0
 20 57  1  0  0  0  0
 21 58  1  0  0  0  0
 21 59  1  0  0  0  0
 22 60  1  0  0  0  0
 22 61  1  0  0  0  0
 23 62  1  0  0  0  0
 23 63  1  0  0  0  0
 24 64  1  0  0  0  0
 24 65  1  0  0  0  0
 25 66  1  0  0  0  0
 25 67  1  0  0  0  0
 26 68  1  0  0  0  0
 26 69  1  0  0  0  0
 29 70  1  0  0  0  0
 32 71  1  0  0  0  0
 33 72  1  0  0  0  0
 34 73  1  0  0  0  0
 35 74  1  0  0  0  0
M  CHG  1   8   1
M  END
>  <result-rank>
17

>  <similarity>
0.908

>  <query-name>


>  <query-smiles>
S1c2c(cccc2)C(C(=O)N3CCC([N@H+]4CC5(C(=O)N6N(C5=O)CCCC6)CCC4)CC3)=C1NC(=O)NC

>  <source>
REALspace_2019-12

>  <similarity-descriptor>
0.999;0.825;0.999;0.751;0.937;0.999;1.000;0.825;0.825;0.0;0.0;0.0

>  <similarity-descriptor-smiles>
N1CCCCC1;C=1C(ccNN1)=O;c1ccccc1;CC(=O)NCC=O;C1CCC[NH+]C1;N1CCCC1;O=C;C=1C(ccNN1)=O;C=1C(ccNN1)=O;;;

>  <reaction-name>
m_275030

>  <reagent1-name>
14114158

>  <reagent1-smiles>
[R1*]N1CC(C2CN([R2*])CCC2)CCC1

>  <reagent2-name>
14125052

>  <reagent2-smiles>
[R1*]C(=O)C1=NNc2c(cccc2)C1=O

>  <reagent3-name>
14146862

>  <reagent3-smiles>
[R2*]CC(=O)NCC(=O)N1CCCC1

$$$$
m_275030____14114032____14125676____14147874
          04022017303D 1   1.00000     0.00000     0
            
 73 77  0  0  0  0            999 V2000
    4.7528    1.6884   12.1683 O   0  0  0  0  0  0  0  0  0  0  0  0
    4.5113    2.7684   11.6513 C   0  0  0  0  0  0  0  0  0  0  0  0
    3.5577    2.8127   10.6685 N   0  0  0  0  0  0  0  0  0  0  0  0
    3.2385    3.9927   10.0483 C   0  0  0  0  0  0  0  0  0  0  0  0
    2.2247    3.9991    9.0124 C   0  0  0  0  0  0  0  0  0  0  0  0
    1.2374    4.6685    9.1433 O   0  0  0  0  0  0  0  0  0  0  0  0
    2.3982    3.2214    7.8547 N   0  0  0  0  0  0  0  0  0  0  0  0
    1.3958    3.1990    6.7810 C   0  0  0  0  0  0  0  0  0  0  0  0
    1.4707    1.8248    6.1332 C   0  0  0  0  0  0  0  0  0  0  0  0
    2.7874    1.6282    5.3957 C   0  0  0  0  0  0  0  0  0  0  0  0
    2.7279    2.1873    3.9836 C   0  0  3  0  0  0  0  0  0  0  0  0
    1.5132    1.6532    3.2564 C   0  0  0  0  0  0  0  0  0  0  0  0
    1.8489    1.8489    1.8489 N   0  3  3  0  0  0  0  0  0  0  0  0
    1.0000    1.0000    1.0000 C   0  0  0  0  0  0  0  0  0  0  0  0
    1.0912    1.4729   -0.4417 C   0  0  0  0  0  0  0  0  0  0  0  0
    1.1163    2.6472   -0.6875 O   0  0  0  0  0  0  0  0  0  0  0  0
    1.1447    0.5585   -1.4605 N   0  0  0  0  0  0  0  0  0  0  0  0
    0.8113    0.9434   -2.7650 C   0  0  0  0  0  0  0  0  0  0  0  0
   -0.1711    1.7424   -3.1053 O   0  0  0  0  0  0  0  0  0  0  0  0
   -0.2023    1.8876   -4.3744 N   0  0  0  0  0  0  0  0  0  0  0  0
    0.7551    1.1982   -4.9472 C   0  0  0  0  0  0  0  0  0  0  0  0
    1.4487    0.5551   -3.9008 C   0  0  0  0  0  0  0  0  0  0  0  0
    1.0567    1.1067   -6.4345 C   0  0  0  0  0  0  0  0  0  0  0  0
    1.7176   -0.2283   -6.7363 C   0  0  0  0  0  0  0  0  0  0  0  0
   -0.2384    1.2205   -7.2219 C   0  0  0  0  0  0  0  0  0  0  0  0
    1.9923    2.2367   -6.8321 C   0  0  0  0  0  0  0  0  0  0  0  0
    3.2291    1.3519    1.7700 C   0  0  0  0  0  0  0  0  0  0  0  0
    3.8477    1.6133    3.1335 C   0  0  0  0  0  0  0  0  0  0  0  0
    3.8664    2.3843    6.1562 C   0  0  0  0  0  0  0  0  0  0  0  0
    3.5913    2.3916    7.6540 C   0  0  0  0  0  0  0  0  0  0  0  0
    3.8556    5.1698   10.3829 C   0  0  0  0  0  0  0  0  0  0  0  0
    4.8491    5.1579   11.3982 C   0  0  0  0  0  0  0  0  0  0  0  0
    5.1804    3.9656   12.0331 C   0  0  0  0  0  0  0  0  0  0  0  0
    6.1598    3.9944   13.0227 C   0  0  0  0  0  0  0  0  0  0  0  0
    6.8035    5.1727   13.3837 C   0  0  0  0  0  0  0  0  0  0  0  0
    6.4503    6.3492   12.7313 C   0  0  0  0  0  0  0  0  0  0  0  0
    5.4759    6.3523   11.7389 C   0  0  0  0  0  0  0  0  0  0  0  0
    1.7881    2.8118    1.5857 H   0  0  0  0  0  0  0  0  0  0  0  0
    3.0878    1.9719   10.3996 H   0  0  0  0  0  0  0  0  0  0  0  0
    1.5990    3.9085    6.1062 H   0  0  0  0  0  0  0  0  0  0  0  0
    0.4829    3.3510    7.1599 H   0  0  0  0  0  0  0  0  0  0  0  0
    1.3882    1.1256    6.8434 H   0  0  0  0  0  0  0  0  0  0  0  0
    0.7167    1.7303    5.4832 H   0  0  0  0  0  0  0  0  0  0  0  0
    3.0151    0.6550    5.3644 H   0  0  0  0  0  0  0  0  0  0  0  0
    2.7441    3.1872    3.9845 H   0  0  0  0  0  0  0  0  0  0  0  0
    1.3720    0.6842    3.4592 H   0  0  0  0  0  0  0  0  0  0  0  0
    0.6927    2.1685    3.5036 H   0  0  0  0  0  0  0  0  0  0  0  0
    0.0515    1.0600    1.3111 H   0  0  0  0  0  0  0  0  0  0  0  0
    1.3111    0.0515    1.0600 H   0  0  0  0  0  0  0  0  0  0  0  0
    1.4218   -0.3838   -1.2725 H   0  0  0  0  0  0  0  0  0  0  0  0
    2.2379   -0.0541   -3.9779 H   0  0  0  0  0  0  0  0  0  0  0  0
    1.9160   -0.2885   -7.7146 H   0  0  0  0  0  0  0  0  0  0  0  0
    2.5697   -0.3031   -6.2182 H   0  0  0  0  0  0  0  0  0  0  0  0
    1.1021   -0.9717   -6.4747 H   0  0  0  0  0  0  0  0  0  0  0  0
   -0.0401    1.1603   -8.2002 H   0  0  0  0  0  0  0  0  0  0  0  0
   -0.8540    0.4771   -6.9603 H   0  0  0  0  0  0  0  0  0  0  0  0
   -0.6733    2.0988   -7.0234 H   0  0  0  0  0  0  0  0  0  0  0  0
    2.1907    2.1766   -7.8104 H   0  0  0  0  0  0  0  0  0  0  0  0
    1.5575    3.1151   -6.6336 H   0  0  0  0  0  0  0  0  0  0  0  0
    2.8444    2.1619   -6.3141 H   0  0  0  0  0  0  0  0  0  0  0  0
    3.7346    1.8415    1.0596 H   0  0  0  0  0  0  0  0  0  0  0  0
    3.2346    0.3725    1.5680 H   0  0  0  0  0  0  0  0  0  0  0  0
    4.1876    0.7615    3.5322 H   0  0  0  0  0  0  0  0  0  0  0  0
    4.5991    2.2685    3.0566 H   0  0  0  0  0  0  0  0  0  0  0  0
    3.8959    3.3279    5.8265 H   0  0  0  0  0  0  0  0  0  0  0  0
    4.7494    1.9453    5.9901 H   0  0  0  0  0  0  0  0  0  0  0  0
    3.4233    1.4609    7.9789 H   0  0  0  0  0  0  0  0  0  0  0  0
    4.3697    2.7812    8.1462 H   0  0  0  0  0  0  0  0  0  0  0  0
    3.6109    6.0220    9.9204 H   0  0  0  0  0  0  0  0  0  0  0  0
    6.4070    3.1438   13.4866 H   0  0  0  0  0  0  0  0  0  0  0  0
    7.5048    5.1743   14.0966 H   0  0  0  0  0  0  0  0  0  0  0  0
    6.9035    7.2054   12.9794 H   0  0  0  0  0  0  0  0  0  0  0  0
    5.2287    7.2033   11.2755 H   0  0  0  0  0  0  0  0  0  0  0  0
  1  2  2  0  0  0  0
  2  3  1  0  0  0  0
  3  4  1  0  0  0  0
  4  5  1  0  0  0  0
  5  6  2  0  0  0  0
  5  7  1  0  0  0  0
  7  8  1  0  0  0  0
  8  9  1  0  0  0  0
  9 10  1  0  0  0  0
 10 11  1  0  0  0  0
 11 12  1  0  0  0  0
 12 13  1  0  0  0  0
 13 14  1  0  0  0  0
 14 15  1  0  0  0  0
 15 16  2  0  0  0  0
 15 17  1  0  0  0  0
 17 18  1  0  0  0  0
 18 19  1  0  0  0  0
 19 20  1  0  0  0  0
 20 21  2  0  0  0  0
 21 22  1  0  0  0  0
 18 22  2  0  0  0  0
 21 23  1  0  0  0  0
 23 24  1  0  0  0  0
 23 25  1  0  0  0  0
 23 26  1  0  0  0  0
 13 27  1  0  0  0  0
 27 28  1  0  0  0  0
 28 11  1  0  0  0  0
 10 29  1  0  0  0  0
 29 30  1  0  0  0  0
 30  7  1  0  0  0  0
  4 31  2  0  0  0  0
 31 32  1  0  0  0  0
 32 33  1  0  0  0  0
 33  2  1  0  0  0  0
 33 34  2  0  0  0  0
 34 35  1  0  0  0  0
 35 36  2  0  0  0  0
 36 37  1  0  0  0  0
 37 32  2  0  0  0  0
 13 38  1  0  0  0  0
  3 39  1  0  0  0  0
  8 40  1  0  0  0  0
  8 41  1  0  0  0  0
  9 42  1  0  0  0  0
  9 43  1  0  0  0  0
 10 44  1  0  0  0  0
 11 45  1  0  0  0  0
 12 46  1  0  0  0  0
 12 47  1  0  0  0  0
 14 48  1  0  0  0  0
 14 49  1  0  0  0  0
 17 50  1  0  0  0  0
 22 51  1  0  0  0  0
 24 52  1  0  0  0  0
 24 53  1  0  0  0  0
 24 54  1  0  0  0  0
 25 55  1  0  0  0  0
 25 56  1  0  0  0  0
 25 57  1  0  0  0  0
 26 58  1  0  0  0  0
 26 59  1  0  0  0  0
 26 60  1  0  0  0  0
 27 61  1  0  0  0  0
 27 62  1  0  0  0  0
 28 63  1  0  0  0  0
 28 64  1  0  0  0  0
 29 65  1  0  0  0  0
 29 66  1  0  0  0  0
 30 67  1  0  0  0  0
 30 68  1  0  0  0  0
 31 69  1  0  0  0  0
 34 70  1  0  0  0  0
 35 71  1  0  0  0  0
 36 72  1  0  0  0  0
 37 73  1  0  0  0  0
M  CHG  1  13   1
M  END
>  <result-rank>
18

>  <similarity>
0.908

>  <query-name>


>  <query-smiles>
S1c2c(cccc2)C(C(=O)N3CCC([N@H+]4CC5(C(=O)N6N(C5=O)CCCC6)CCC4)CC3)=C1NC(=O)NC

>  <source>
REALspace_2019-12

>  <similarity-descriptor>
0.999;0.940;1.000;0.794;0.936;0.797;1.000;0.940;0.940;0.0;0.0;0.0

>  <similarity-descriptor-smiles>
N1CCCCC1;O=C1ccC=CN1;c1ccccc1;C(=O)NC1=CC=NO1;C1CC[NH+](C1)C;C(C)(C)C;C=O;O=C1ccC=CN1;O=C1ccC=CN1;;;

>  <reaction-name>
m_275030

>  <reagent1-name>
14114032

>  <reagent1-smiles>
[R2*]N1CC(C2CCN([R1*])CC2)CC1

>  <reagent2-name>
14125676

>  <reagent2-smiles>
[R1*]C(=O)C=1NC(=O)c2c(cccc2)C1

>  <reagent3-name>
14147874

>  <reagent3-smiles>
[R2*]CC(=O)NC=1ON=C(C1)C(C)(C)C

$$$$
m_275030____14114236____14128568____14147198
          04022017303D 1   1.00000     0.00000     0
            
 73 78  0  0  0  0            999 V2000
    7.0355   -1.2433    2.2805 O   0  0  0  0  0  0  0  0  0  0  0  0
    6.4397   -2.0669    2.9582 C   0  0  0  0  0  0  0  0  0  0  0  0
    5.4099   -1.7763    3.8526 N   0  0  0  0  0  0  0  0  0  0  0  0
    4.9347   -2.9356    4.4657 C   0  0  0  0  0  0  0  0  0  0  0  0
    4.0371   -3.0165    5.2963 O   0  0  0  0  0  0  0  0  0  0  0  0
    5.7630   -4.0658    3.8941 C   0  0  0  0  0  0  0  0  0  0  0  0
    6.6970   -3.4382    2.9532 N   0  0  0  0  0  0  0  0  0  0  0  0
    6.3517   -4.9262    4.9928 C   0  0  0  0  0  0  0  0  0  0  0  0
    6.7993   -6.1870    4.2815 C   0  0  0  0  0  0  0  0  0  0  0  0
    5.7569   -6.3663    3.1976 C   0  0  0  0  0  0  0  0  0  0  0  0
    4.8798   -5.1340    3.2905 C   0  0  0  0  0  0  0  0  0  0  0  0
    4.8858   -0.4290    4.1168 C   0  0  0  0  0  0  0  0  0  0  0  0
    3.7451   -0.1319    3.1570 C   0  0  0  0  0  0  0  0  0  0  0  0
    3.2207    1.2161    3.4213 N   0  3  3  0  0  0  0  0  0  0  0  0
    2.1200    1.4943    2.4902 C   0  0  0  0  0  0  0  0  0  0  0  0
    2.0264    3.0056    2.5174 C   0  0  3  0  0  0  0  0  0  0  0  0
    1.2839    3.5183    1.2943 C   0  0  3  0  0  0  0  0  0  0  0  0
   -0.1689    3.0756    1.3992 C   0  0  0  0  0  0  0  0  0  0  0  0
   -0.9084    3.2955    0.1451 N   0  0  0  0  0  0  0  0  0  0  0  0
   -2.2684    3.6172    0.2112 C   0  0  0  0  0  0  0  0  0  0  0  0
   -2.8915    3.3872    1.2107 O   0  0  0  0  0  0  0  0  0  0  0  0
   -2.9254    4.2288   -0.9284 C   0  0  0  0  0  0  0  0  0  0  0  0
   -3.9835    3.7161   -1.6165 N   0  0  0  0  0  0  0  0  0  0  0  0
   -4.2767    4.5273   -2.5384 N   0  0  0  0  0  0  0  0  0  0  0  0
   -3.4821    5.5694   -2.5162 N   0  0  0  0  0  0  0  0  0  0  0  0
   -3.5369    6.6556   -3.3989 C   0  0  0  0  0  0  0  0  0  0  0  0
   -4.7087    6.9117   -4.1038 C   0  0  0  0  0  0  0  0  0  0  0  0
   -4.7594    7.9914   -4.9793 C   0  0  0  0  0  0  0  0  0  0  0  0
   -3.6439    8.8053   -5.1448 C   0  0  0  0  0  0  0  0  0  0  0  0
   -2.4779    8.5402   -4.4344 C   0  0  0  0  0  0  0  0  0  0  0  0
   -2.4154    7.4633   -3.5563 C   0  0  0  0  0  0  0  0  0  0  0  0
   -2.5970    5.4189   -1.4950 C   0  0  0  0  0  0  0  0  0  0  0  0
   -0.2772    3.1950   -1.1815 C   0  0  0  0  0  0  0  0  0  0  0  0
    1.1822    3.6282   -1.1522 C   0  0  0  0  0  0  0  0  0  0  0  0
    1.9475    3.0227    0.0172 C   0  0  0  0  0  0  0  0  0  0  0  0
    3.4945    3.3904    2.4629 C   0  0  0  0  0  0  0  0  0  0  0  0
    4.2351    2.2138    3.0607 C   0  0  0  0  0  0  0  0  0  0  0  0
    2.9301    1.3163    4.3729 H   0  0  0  0  0  0  0  0  0  0  0  0
    7.3914   -3.9075    2.4078 H   0  0  0  0  0  0  0  0  0  0  0  0
    5.6622   -5.1363    5.6861 H   0  0  0  0  0  0  0  0  0  0  0  0
    7.1288   -4.4676    5.4239 H   0  0  0  0  0  0  0  0  0  0  0  0
    6.8042   -6.9679    4.9061 H   0  0  0  0  0  0  0  0  0  0  0  0
    7.7105   -6.0707    3.8862 H   0  0  0  0  0  0  0  0  0  0  0  0
    6.1907   -6.4221    2.2983 H   0  0  0  0  0  0  0  0  0  0  0  0
    5.2193   -7.1937    3.3602 H   0  0  0  0  0  0  0  0  0  0  0  0
    4.5654   -4.8576    2.3824 H   0  0  0  0  0  0  0  0  0  0  0  0
    4.0896   -5.3092    3.8778 H   0  0  0  0  0  0  0  0  0  0  0  0
    5.6144    0.2435    3.9869 H   0  0  0  0  0  0  0  0  0  0  0  0
    4.5509   -0.3802    5.0578 H   0  0  0  0  0  0  0  0  0  0  0  0
    4.0800   -0.1808    2.2160 H   0  0  0  0  0  0  0  0  0  0  0  0
    3.0165   -0.8044    3.2868 H   0  0  0  0  0  0  0  0  0  0  0  0
    1.2682    1.0756    2.8049 H   0  0  0  0  0  0  0  0  0  0  0  0
    2.3342    1.1638    1.5710 H   0  0  0  0  0  0  0  0  0  0  0  0
    1.5987    3.3271    3.3622 H   0  0  0  0  0  0  0  0  0  0  0  0
    1.3130    4.5179    1.3005 H   0  0  0  0  0  0  0  0  0  0  0  0
   -0.1934    2.1008    1.6211 H   0  0  0  0  0  0  0  0  0  0  0  0
   -0.6120    3.5950    2.1299 H   0  0  0  0  0  0  0  0  0  0  0  0
   -5.5085    6.3239   -3.9820 H   0  0  0  0  0  0  0  0  0  0  0  0
   -5.5979    8.1824   -5.4896 H   0  0  0  0  0  0  0  0  0  0  0  0
   -3.6802    9.5812   -5.7746 H   0  0  0  0  0  0  0  0  0  0  0  0
   -1.6783    9.1283   -4.5559 H   0  0  0  0  0  0  0  0  0  0  0  0
   -1.5769    7.2726   -3.0459 H   0  0  0  0  0  0  0  0  0  0  0  0
   -1.8667    6.0451   -1.2218 H   0  0  0  0  0  0  0  0  0  0  0  0
   -0.7751    3.7805   -1.8213 H   0  0  0  0  0  0  0  0  0  0  0  0
   -0.3261    2.2455   -1.4914 H   0  0  0  0  0  0  0  0  0  0  0  0
    1.2195    4.6247   -1.0782 H   0  0  0  0  0  0  0  0  0  0  0  0
    1.6192    3.3407   -2.0045 H   0  0  0  0  0  0  0  0  0  0  0  0
    1.9052    2.0245   -0.0257 H   0  0  0  0  0  0  0  0  0  0  0  0
    2.9027    3.3173   -0.0092 H   0  0  0  0  0  0  0  0  0  0  0  0
    3.6603    4.2182    2.9989 H   0  0  0  0  0  0  0  0  0  0  0  0
    3.7824    3.5424    1.5173 H   0  0  0  0  0  0  0  0  0  0  0  0
    4.8720    1.8313    2.3914 H   0  0  0  0  0  0  0  0  0  0  0  0
    4.7399    2.5017    3.8745 H   0  0  0  0  0  0  0  0  0  0  0  0
  1  2  2  0  0  0  0
  2  3  1  0  0  0  0
  3  4  1  0  0  0  0
  4  5  2  0  0  0  0
  4  6  1  0  0  0  0
  6  7  1  0  0  0  0
  7  2  1  0  0  0  0
  6  8  1  0  0  0  0
  8  9  1  0  0  0  0
  9 10  1  0  0  0  0
 10 11  1  0  0  0  0
 11  6  1  0  0  0  0
  3 12  1  0  0  0  0
 12 13  1  0  0  0  0
 13 14  1  0  0  0  0
 14 15  1  0  0  0  0
 15 16  1  0  0  0  0
 16 17  1  0  0  0  0
 17 18  1  0  0  0  0
 18 19  1  0  0  0  0
 19 20  1  0  0  0  0
 20 21  2  0  0  0  0
 20 22  1  0  0  0  0
 22 23  1  0  0  0  0
 23 24  2  0  0  0  0
 24 25  1  0  0  0  0
 25 26  1  0  0  0  0
 26 27  1  0  0  0  0
 27 28  2  0  0  0  0
 28 29  1  0  0  0  0
 29 30  2  0  0  0  0
 30 31  1  0  0  0  0
 31 26  2  0  0  0  0
 25 32  1  0  0  0  0
 22 32  2  0  0  0  0
 19 33  1  0  0  0  0
 33 34  1  0  0  0  0
 34 35  1  0  0  0  0
 35 17  1  0  0  0  0
 16 36  1  0  0  0  0
 36 37  1  0  0  0  0
 37 14  1  0  0  0  0
 14 38  1  0  0  0  0
  7 39  1  0  0  0  0
  8 40  1  0  0  0  0
  8 41  1  0  0  0  0
  9 42  1  0  0  0  0
  9 43  1  0  0  0  0
 10 44  1  0  0  0  0
 10 45  1  0  0  0  0
 11 46  1  0  0  0  0
 11 47  1  0  0  0  0
 12 48  1  0  0  0  0
 12 49  1  0  0  0  0
 13 50  1  0  0  0  0
 13 51  1  0  0  0  0
 15 52  1  0  0  0  0
 15 53  1  0  0  0  0
 16 54  1  0  0  0  0
 17 55  1  0  0  0  0
 18 56  1  0  0  0  0
 18 57  1  0  0  0  0
 27 58  1  0  0  0  0
 28 59  1  0  0  0  0
 29 60  1  0  0  0  0
 30 61  1  0  0  0  0
 31 62  1  0  0  0  0
 32 63  1  0  0  0  0
 33 64  1  0  0  0  0
 33 65  1  0  0  0  0
 34 66  1  0  0  0  0
 34 67  1  0  0  0  0
 35 68  1  0  0  0  0
 35 69  1  0  0  0  0
 36 70  1  0  0  0  0
 36 71  1  0  0  0  0
 37 72  1  0  0  0  0
 37 73  1  0  0  0  0
M  CHG  1  14   1
M  END
>  <result-rank>
19

>  <similarity>
0.907

>  <query-name>


>  <query-smiles>
S1c2c(cccc2)C(C(=O)N3CCC([N@H+]4CC5(C(=O)N6N(C5=O)CCCC6)CCC4)CC3)=C1NC(=O)NC

>  <source>
REALspace_2019-12

>  <similarity-descriptor>
0.999;0.754;0.941;0.859;0.936;0.994;1.000;0.754;0.754;0.0;0.0;0.0

>  <similarity-descriptor-smiles>
C1CCCNC1;C1=CNN=N1;c1ccccc1;O=C1NCC(N1C)=O;C[NH+]1CCCC1;C1CCCC1;C=O;C1=CNN=N1;C1=CNN=N1;;;

>  <reaction-name>
m_275030

>  <reagent1-name>
14114236

>  <reagent1-smiles>
[R2*]N1CC(C2CN([R1*])CCC2)CC1

>  <reagent2-name>
14128568

>  <reagent2-smiles>
[R1*]C(=O)C=1N=NN(c2ccccc2)C1

>  <reagent3-name>
14147198

>  <reagent3-smiles>
[R2*]CCN1C(=O)NC2(C1=O)CCCC2

$$$$
m_275030____14114158____14128494____14147198
          04022017303D 1   1.00000     0.00000     0
            
 75 80  0  0  0  0            999 V2000
   -1.6721    5.5421    1.1061 O   0  0  0  0  0  0  0  0  0  0  0  0
   -0.9065    5.7468    0.1762 C   0  0  0  0  0  0  0  0  0  0  0  0
    0.4713    5.5334    0.2094 N   0  0  0  0  0  0  0  0  0  0  0  0
    1.0594    5.8572   -1.0133 C   0  0  0  0  0  0  0  0  0  0  0  0
    2.2475    5.7797   -1.3043 O   0  0  0  0  0  0  0  0  0  0  0  0
   -0.0750    6.3275   -1.8976 C   0  0  0  0  0  0  0  0  0  0  0  0
   -1.2855    6.2356   -1.0744 N   0  0  0  0  0  0  0  0  0  0  0  0
    0.2396    7.6676   -2.5293 C   0  0  0  0  0  0  0  0  0  0  0  0
   -0.7751    7.8020   -3.6466 C   0  0  0  0  0  0  0  0  0  0  0  0
   -0.9461    6.3794   -4.1373 C   0  0  0  0  0  0  0  0  0  0  0  0
   -0.1238    5.5354   -3.1843 C   0  0  0  0  0  0  0  0  0  0  0  0
    1.2127    5.0296    1.3739 C   0  0  0  0  0  0  0  0  0  0  0  0
    1.2710    3.5117    1.3196 C   0  0  0  0  0  0  0  0  0  0  0  0
    2.0133    3.0074    2.4857 N   0  3  3  0  0  0  0  0  0  0  0  0
    3.3880    3.5321    2.5027 C   0  0  0  0  0  0  0  0  0  0  0  0
    4.1586    3.0412    3.7192 C   0  0  3  0  0  0  0  0  0  0  0  0
    5.5819    3.5744    3.7283 C   0  0  3  0  0  0  0  0  0  0  0  0
    5.5203    5.0952    3.7574 C   0  0  0  0  0  0  0  0  0  0  0  0
    6.8346    5.7093    3.5051 N   0  0  0  0  0  0  0  0  0  0  0  0
    7.1456    6.9199    4.1337 C   0  0  0  0  0  0  0  0  0  0  0  0
    6.3472    7.4395    4.8636 O   0  0  0  0  0  0  0  0  0  0  0  0
    8.4329    7.5470    3.9032 C   0  0  0  0  0  0  0  0  0  0  0  0
    8.6237    8.4745    2.8444 C   0  0  0  0  0  0  0  0  0  0  0  0
    7.6666    8.7323    2.1272 O   0  0  0  0  0  0  0  0  0  0  0  0
    9.8616    9.0443    2.6637 N   0  0  0  0  0  0  0  0  0  0  0  0
   10.8933    8.7095    3.5072 C   0  0  0  0  0  0  0  0  0  0  0  0
   10.7215    7.8477    4.4932 N   0  0  0  0  0  0  0  0  0  0  0  0
    9.5036    7.2572    4.7078 C   0  0  0  0  0  0  0  0  0  0  0  0
   12.1849    9.2791    3.3496 C   0  0  0  0  0  0  0  0  0  0  0  0
   12.3842   10.1756    2.3323 C   0  0  0  0  0  0  0  0  0  0  0  0
   11.3229   10.5266    1.4566 C   0  0  0  0  0  0  0  0  0  0  0  0
   10.0974    9.9468    1.6547 C   0  0  0  0  0  0  0  0  0  0  0  0
    7.8423    5.1019    2.6197 C   0  0  0  0  0  0  0  0  0  0  0  0
    7.7815    3.5807    2.6467 C   0  0  0  0  0  0  0  0  0  0  0  0
    6.3584    3.0512    2.5281 C   0  0  0  0  0  0  0  0  0  0  0  0
    4.1745    1.5208    3.7303 C   0  0  0  0  0  0  0  0  0  0  0  0
    2.7424    1.0107    3.7219 C   0  0  0  0  0  0  0  0  0  0  0  0
    2.0021    1.5371    2.5027 C   0  0  0  0  0  0  0  0  0  0  0  0
    1.5492    3.3296    3.3107 H   0  0  0  0  0  0  0  0  0  0  0  0
   -2.2132    6.4789   -1.3578 H   0  0  0  0  0  0  0  0  0  0  0  0
    1.1709    7.6778   -2.8933 H   0  0  0  0  0  0  0  0  0  0  0  0
    0.1337    8.4065   -1.8638 H   0  0  0  0  0  0  0  0  0  0  0  0
   -0.4290    8.3929   -4.3754 H   0  0  0  0  0  0  0  0  0  0  0  0
   -1.6397    8.1684   -3.3028 H   0  0  0  0  0  0  0  0  0  0  0  0
   -1.9085    6.1096   -4.1050 H   0  0  0  0  0  0  0  0  0  0  0  0
   -0.6051    6.2868   -5.0728 H   0  0  0  0  0  0  0  0  0  0  0  0
   -0.5611    4.6487   -3.0343 H   0  0  0  0  0  0  0  0  0  0  0  0
    0.7981    5.3956   -3.5456 H   0  0  0  0  0  0  0  0  0  0  0  0
    0.7498    5.3156    2.2129 H   0  0  0  0  0  0  0  0  0  0  0  0
    2.1417    5.3995    1.3631 H   0  0  0  0  0  0  0  0  0  0  0  0
    0.3419    3.1419    1.3304 H   0  0  0  0  0  0  0  0  0  0  0  0
    1.7338    3.2257    0.4806 H   0  0  0  0  0  0  0  0  0  0  0  0
    3.3539    4.5314    2.5215 H   0  0  0  0  0  0  0  0  0  0  0  0
    3.8611    3.2302    1.6751 H   0  0  0  0  0  0  0  0  0  0  0  0
    3.6922    3.3618    4.5436 H   0  0  0  0  0  0  0  0  0  0  0  0
    6.0345    3.2584    4.5622 H   0  0  0  0  0  0  0  0  0  0  0  0
    4.8796    5.4052    3.0549 H   0  0  0  0  0  0  0  0  0  0  0  0
    5.1955    5.3874    4.6569 H   0  0  0  0  0  0  0  0  0  0  0  0
    9.3951    6.6075    5.4602 H   0  0  0  0  0  0  0  0  0  0  0  0
   12.9318    9.0316    3.9667 H   0  0  0  0  0  0  0  0  0  0  0  0
   13.2868   10.5870    2.2054 H   0  0  0  0  0  0  0  0  0  0  0  0
   11.4663   11.1807    0.7139 H   0  0  0  0  0  0  0  0  0  0  0  0
    9.3457   10.1897    1.0415 H   0  0  0  0  0  0  0  0  0  0  0  0
    8.7514    5.3941    2.9167 H   0  0  0  0  0  0  0  0  0  0  0  0
    7.6807    5.4150    1.6838 H   0  0  0  0  0  0  0  0  0  0  0  0
    8.1722    3.2594    3.5093 H   0  0  0  0  0  0  0  0  0  0  0  0
    8.3207    3.2246    1.8834 H   0  0  0  0  0  0  0  0  0  0  0  0
    5.9405    3.3785    1.6806 H   0  0  0  0  0  0  0  0  0  0  0  0
    6.3634    2.0512    2.5328 H   0  0  0  0  0  0  0  0  0  0  0  0
    4.6411    1.1964    4.5531 H   0  0  0  0  0  0  0  0  0  0  0  0
    4.6549    1.1846    2.9202 H   0  0  0  0  0  0  0  0  0  0  0  0
    2.7484    0.0110    3.6980 H   0  0  0  0  0  0  0  0  0  0  0  0
    2.2766    1.3215    4.5504 H   0  0  0  0  0  0  0  0  0  0  0  0
    2.4472    1.1953    1.6750 H   0  0  0  0  0  0  0  0  0  0  0  0
    1.0555    1.2159    2.5289 H   0  0  0  0  0  0  0  0  0  0  0  0
  1  2  2  0  0  0  0
  2  3  1  0  0  0  0
  3  4  1  0  0  0  0
  4  5  2  0  0  0  0
  4  6  1  0  0  0  0
  6  7  1  0  0  0  0
  7  2  1  0  0  0  0
  6  8  1  0  0  0  0
  8  9  1  0  0  0  0
  9 10  1  0  0  0  0
 10 11  1  0  0  0  0
 11  6  1  0  0  0  0
  3 12  1  0  0  0  0
 12 13  1  0  0  0  0
 13 14  1  0  0  0  0
 14 15  1  0  0  0  0
 15 16  1  0  0  0  0
 16 17  1  0  0  0  0
 17 18  1  0  0  0  0
 18 19  1  0  0  0  0
 19 20  1  0  0  0  0
 20 21  2  0  0  0  0
 20 22  1  0  0  0  0
 22 23  1  0  0  0  0
 23 24  2  0  0  0  0
 23 25  1  0  0  0  0
 25 26  1  0  0  0  0
 26 27  2  0  0  0  0
 27 28  1  0  0  0  0
 22 28  2  0  0  0  0
 26 29  1  0  0  0  0
 29 30  2  0  0  0  0
 30 31  1  0  0  0  0
 31 32  2  0  0  0  0
 32 25  1  0  0  0  0
 19 33  1  0  0  0  0
 33 34  1  0  0  0  0
 34 35  1  0  0  0  0
 35 17  1  0  0  0  0
 16 36  1  0  0  0  0
 36 37  1  0  0  0  0
 37 38  1  0  0  0  0
 38 14  1  0  0  0  0
 14 39  1  0  0  0  0
  7 40  1  0  0  0  0
  8 41  1  0  0  0  0
  8 42  1  0  0  0  0
  9 43  1  0  0  0  0
  9 44  1  0  0  0  0
 10 45  1  0  0  0  0
 10 46  1  0  0  0  0
 11 47  1  0  0  0  0
 11 48  1  0  0  0  0
 12 49  1  0  0  0  0
 12 50  1  0  0  0  0
 13 51  1  0  0  0  0
 13 52  1  0  0  0  0
 15 53  1  0  0  0  0
 15 54  1  0  0  0  0
 16 55  1  0  0  0  0
 17 56  1  0  0  0  0
 18 57  1  0  0  0  0
 18 58  1  0  0  0  0
 28 59  1  0  0  0  0
 29 60  1  0  0  0  0
 30 61  1  0  0  0  0
 31 62  1  0  0  0  0
 32 63  1  0  0  0  0
 33 64  1  0  0  0  0
 33 65  1  0  0  0  0
 34 66  1  0  0  0  0
 34 67  1  0  0  0  0
 35 68  1  0  0  0  0
 35 69  1  0  0  0  0
 36 70  1  0  0  0  0
 36 71  1  0  0  0  0
 37 72  1  0  0  0  0
 37 73  1  0  0  0  0
 38 74  1  0  0  0  0
 38 75  1  0  0  0  0
M  CHG  1  14   1
M  END
>  <result-rank>
20

>  <similarity>
0.907

>  <query-name>


>  <query-smiles>
S1c2c(cccc2)C(C(=O)N3CCC([N@H+]4CC5(C(=O)N6N(C5=O)CCCC6)CCC4)CC3)=C1NC(=O)NC

>  <source>
REALspace_2019-12

>  <similarity-descriptor>
0.999;0.800;0.969;0.809;0.937;0.994;1.000;0.800;0.800;0.0;0.0;0.0

>  <similarity-descriptor-smiles>
C1CCCNC1;C1=CN=CNC1=O;N1C=CC=CC1;O=C1NCC(N1CC)=O;[NH+]1CCCCC1;C1CCCC1;C=O;C1=CN=CNC1=O;C1=CN=CNC1=O;;;

>  <reaction-name>
m_275030

>  <reagent1-name>
14114158

>  <reagent1-smiles>
[R1*]N1CC(C2CN([R2*])CCC2)CCC1

>  <reagent2-name>
14128494

>  <reagent2-smiles>
[R1*]C(=O)C=1C(=O)N2C(=NC1)C=CC=C2

>  <reagent3-name>
14147198

>  <reagent3-smiles>
[R2*]CCN1C(=O)NC2(C1=O)CCCC2

$$$$
m_275030____14114078____14125812____14147198
          04022017303D 1   1.00000     0.00000     0
            
 73 78  0  0  0  0            999 V2000
   -2.7106   -4.9008    0.4313 O   0  0  0  0  0  0  0  0  0  0  0  0
   -2.3938   -5.6236    1.3640 C   0  0  0  0  0  0  0  0  0  0  0  0
   -1.2119   -5.5166    2.0965 N   0  0  0  0  0  0  0  0  0  0  0  0
   -1.1521   -6.4856    3.0982 C   0  0  0  0  0  0  0  0  0  0  0  0
   -0.2480   -6.6550    3.9081 O   0  0  0  0  0  0  0  0  0  0  0  0
   -2.4321   -7.2825    2.9689 C   0  0  0  0  0  0  0  0  0  0  0  0
   -3.1626   -6.6828    1.8472 N   0  0  0  0  0  0  0  0  0  0  0  0
   -2.1498   -8.7691    2.9031 C   0  0  0  0  0  0  0  0  0  0  0  0
   -3.4937   -9.4172    3.1679 C   0  0  0  0  0  0  0  0  0  0  0  0
   -4.1480   -8.4751    4.1568 C   0  0  0  0  0  0  0  0  0  0  0  0
   -3.1903   -7.3067    4.2766 C   0  0  0  0  0  0  0  0  0  0  0  0
   -0.1643   -4.5149    1.8539 C   0  0  0  0  0  0  0  0  0  0  0  0
   -0.4495   -3.2728    2.6823 C   0  0  0  0  0  0  0  0  0  0  0  0
    0.5981   -2.2710    2.4397 N   0  3  3  0  0  0  0  0  0  0  0  0
    0.3187   -1.0741    3.2412 C   0  0  0  0  0  0  0  0  0  0  0  0
    1.1221    0.0122    2.5563 C   0  0  3  0  0  0  0  0  0  0  0  0
    2.5835    0.0105    2.9630 C   0  0  0  0  0  0  0  0  0  0  0  0
    3.3245    1.0464    2.2313 N   0  0  0  0  0  0  0  0  0  0  0  0
    4.0516    0.7677    1.0644 C   0  0  0  0  0  0  0  0  0  0  0  0
    4.1825    1.6130    0.2228 O   0  0  0  0  0  0  0  0  0  0  0  0
    4.6454   -0.5422    0.8753 C   0  0  0  0  0  0  0  0  0  0  0  0
    5.7918   -0.9011    1.5772 C   0  0  0  0  0  0  0  0  0  0  0  0
    6.3364   -2.1643    1.3724 C   0  0  0  0  0  0  0  0  0  0  0  0
    5.7651   -3.0216    0.5132 N   0  0  0  0  0  0  0  0  0  0  0  0
    4.6610   -2.6938   -0.1726 C   0  0  0  0  0  0  0  0  0  0  0  0
    4.0693   -1.4455   -0.0119 C   0  0  0  0  0  0  0  0  0  0  0  0
    7.5316   -2.5221    2.1125 C   0  0  0  0  0  0  0  0  0  0  0  0
    8.1014   -1.8044    3.0584 O   0  0  0  0  0  0  0  0  0  0  0  0
    9.1736   -2.4090    3.5168 C   0  0  0  0  0  0  0  0  0  0  0  0
    9.3161   -3.5814    2.8370 C   0  0  0  0  0  0  0  0  0  0  0  0
    8.2473   -3.6652    1.9155 C   0  0  0  0  0  0  0  0  0  0  0  0
    3.2659    2.4077    2.7959 C   0  0  0  0  0  0  0  0  0  0  0  0
    2.1634    3.2742    2.2015 C   0  0  0  0  0  0  0  0  0  0  0  0
    0.8866    2.5005    1.8966 C   0  0  0  0  0  0  0  0  0  0  0  0
    0.4985    1.3720    2.8550 C   0  0  0  0  0  0  0  0  0  0  0  0
    0.8656   -0.3234    1.0951 C   0  0  0  0  0  0  0  0  0  0  0  0
    0.5410   -1.8013    1.0495 C   0  0  0  0  0  0  0  0  0  0  0  0
    1.5020   -2.6410    2.6544 H   0  0  0  0  0  0  0  0  0  0  0  0
   -4.0498   -6.9791    1.4935 H   0  0  0  0  0  0  0  0  0  0  0  0
   -1.4848   -9.0347    3.6011 H   0  0  0  0  0  0  0  0  0  0  0  0
   -1.8051   -9.0246    1.9999 H   0  0  0  0  0  0  0  0  0  0  0  0
   -3.3798  -10.3287    3.5632 H   0  0  0  0  0  0  0  0  0  0  0  0
   -4.0311   -9.4833    2.3271 H   0  0  0  0  0  0  0  0  0  0  0  0
   -5.0362   -8.1681    3.8151 H   0  0  0  0  0  0  0  0  0  0  0  0
   -4.2684   -8.9233    5.0426 H   0  0  0  0  0  0  0  0  0  0  0  0
   -3.6934   -6.4524    4.4064 H   0  0  0  0  0  0  0  0  0  0  0  0
   -2.5632   -7.4441    5.0434 H   0  0  0  0  0  0  0  0  0  0  0  0
   -0.1526   -4.2731    0.8837 H   0  0  0  0  0  0  0  0  0  0  0  0
    0.7244   -4.8923    2.1142 H   0  0  0  0  0  0  0  0  0  0  0  0
   -1.3383   -2.8954    2.4220 H   0  0  0  0  0  0  0  0  0  0  0  0
   -0.4613   -3.5146    3.6525 H   0  0  0  0  0  0  0  0  0  0  0  0
    0.6210   -1.1991    4.1861 H   0  0  0  0  0  0  0  0  0  0  0  0
   -0.6573   -0.8569    3.2294 H   0  0  0  0  0  0  0  0  0  0  0  0
    2.6518    0.1888    3.9446 H   0  0  0  0  0  0  0  0  0  0  0  0
    2.9806   -0.8842    2.7584 H   0  0  0  0  0  0  0  0  0  0  0  0
    6.2168   -0.2618    2.2180 H   0  0  0  0  0  0  0  0  0  0  0  0
    4.2584   -3.3540   -0.8066 H   0  0  0  0  0  0  0  0  0  0  0  0
    3.2457   -1.2020   -0.5241 H   0  0  0  0  0  0  0  0  0  0  0  0
    9.7782   -2.0692    4.2371 H   0  0  0  0  0  0  0  0  0  0  0  0
   10.0419   -4.2570    2.9660 H   0  0  0  0  0  0  0  0  0  0  0  0
    8.0583   -4.3999    1.2639 H   0  0  0  0  0  0  0  0  0  0  0  0
    4.1439    2.8562    2.6284 H   0  0  0  0  0  0  0  0  0  0  0  0
    3.1119    2.3338    3.7812 H   0  0  0  0  0  0  0  0  0  0  0  0
    2.5006    3.6778    1.3510 H   0  0  0  0  0  0  0  0  0  0  0  0
    1.9458    4.0016    2.8524 H   0  0  0  0  0  0  0  0  0  0  0  0
    0.1330    3.1578    1.8870 H   0  0  0  0  0  0  0  0  0  0  0  0
    0.9899    2.0986    0.9868 H   0  0  0  0  0  0  0  0  0  0  0  0
    0.7758    1.6421    3.7771 H   0  0  0  0  0  0  0  0  0  0  0  0
   -0.4956    1.2687    2.8227 H   0  0  0  0  0  0  0  0  0  0  0  0
    1.6797   -0.1306    0.5474 H   0  0  0  0  0  0  0  0  0  0  0  0
    0.0954    0.2111    0.7470 H   0  0  0  0  0  0  0  0  0  0  0  0
   -0.3736   -1.9447    0.6715 H   0  0  0  0  0  0  0  0  0  0  0  0
    1.2127   -2.2875    0.4905 H   0  0  0  0  0  0  0  0  0  0  0  0
  1  2  2  0  0  0  0
  2  3  1  0  0  0  0
  3  4  1  0  0  0  0
  4  5  2  0  0  0  0
  4  6  1  0  0  0  0
  6  7  1  0  0  0  0
  7  2  1  0  0  0  0
  6  8  1  0  0  0  0
  8  9  1  0  0  0  0
  9 10  1  0  0  0  0
 10 11  1  0  0  0  0
 11  6  1  0  0  0  0
  3 12  1  0  0  0  0
 12 13  1  0  0  0  0
 13 14  1  0  0  0  0
 14 15  1  0  0  0  0
 15 16  1  0  0  0  0
 16 17  1  0  0  0  0
 17 18  1  0  0  0  0
 18 19  1  0  0  0  0
 19 20  2  0  0  0  0
 19 21  1  0  0  0  0
 21 22  1  0  0  0  0
 22 23  2  0  0  0  0
 23 24  1  0  0  0  0
 24 25  2  0  0  0  0
 25 26  1  0  0  0  0
 26 21  2  0  0  0  0
 23 27  1  0  0  0  0
 27 28  1  0  0  0  0
 28 29  1  0  0  0  0
 29 30  2  0  0  0  0
 30 31  1  0  0  0  0
 27 31  2  0  0  0  0
 18 32  1  0  0  0  0
 32 33  1  0  0  0  0
 33 34  1  0  0  0  0
 34 35  1  0  0  0  0
 35 16  1  0  0  0  0
 16 36  1  0  0  0  0
 36 37  1  0  0  0  0
 37 14  1  0  0  0  0
 14 38  1  0  0  0  0
  7 39  1  0  0  0  0
  8 40  1  0  0  0  0
  8 41  1  0  0  0  0
  9 42  1  0  0  0  0
  9 43  1  0  0  0  0
 10 44  1  0  0  0  0
 10 45  1  0  0  0  0
 11 46  1  0  0  0  0
 11 47  1  0  0  0  0
 12 48  1  0  0  0  0
 12 49  1  0  0  0  0
 13 50  1  0  0  0  0
 13 51  1  0  0  0  0
 15 52  1  0  0  0  0
 15 53  1  0  0  0  0
 17 54  1  0  0  0  0
 17 55  1  0  0  0  0
 22 56  1  0  0  0  0
 25 57  1  0  0  0  0
 26 58  1  0  0  0  0
 29 59  1  0  0  0  0
 30 60  1  0  0  0  0
 31 61  1  0  0  0  0
 32 62  1  0  0  0  0
 32 63  1  0  0  0  0
 33 64  1  0  0  0  0
 33 65  1  0  0  0  0
 34 66  1  0  0  0  0
 34 67  1  0  0  0  0
 35 68  1  0  0  0  0
 35 69  1  0  0  0  0
 36 70  1  0  0  0  0
 36 71  1  0  0  0  0
 37 72  1  0  0  0  0
 37 73  1  0  0  0  0
M  CHG  1  14   1
M  END
>  <result-rank>
21

>  <similarity>
0.907

>  <query-name>


>  <query-smiles>
S1c2c(cccc2)C(C(=O)N3CCC([N@H+]4CC5(C(=O)N6N(C5=O)CCCC6)CCC4)CC3)=C1NC(=O)NC

>  <source>
REALspace_2019-12

>  <similarity-descriptor>
0.986;0.824;0.809;0.859;0.998;0.994;0.999;0.824;0.824;0.0;0.0;0.0

>  <similarity-descriptor-smiles>
C1CCCCNC1;c1ccncc1;C1=CC=CO1;O=C1NCC(N1C)=O;C[NH+]1CCCC1;C1CCCC1;C=O;c1ccncc1;c1ccncc1;;;

>  <reaction-name>
m_275030

>  <reagent1-name>
14114078

>  <reagent1-smiles>
[R2*]N1CC2(CN([R1*])CCCC2)CC1

>  <reagent2-name>
14125812

>  <reagent2-smiles>
[R1*]C(=O)c1cc(ncc1)C=2OC=CC2

>  <reagent3-name>
14147198

>  <reagent3-smiles>
[R2*]CCN1C(=O)NC2(C1=O)CCCC2

$$$$
m_275030____14113648____14125052____14147198
          04022017303D 1   1.00000     0.00000     0
            
 70 76  0  0  0  0            999 V2000
   -3.0931    4.7239   -0.2165 O   0  0  0  0  0  0  0  0  0  0  0  0
   -3.5412    3.5881   -0.2579 C   0  0  0  0  0  0  0  0  0  0  0  0
   -2.8369    2.4346    0.0860 N   0  0  0  0  0  0  0  0  0  0  0  0
   -3.6309    1.2975   -0.0638 C   0  0  0  0  0  0  0  0  0  0  0  0
   -3.3063    0.1364    0.1567 O   0  0  0  0  0  0  0  0  0  0  0  0
   -4.9697    1.7997   -0.5592 C   0  0  0  0  0  0  0  0  0  0  0  0
   -4.8344    3.2566   -0.6635 N   0  0  0  0  0  0  0  0  0  0  0  0
   -5.4142    1.0496   -1.7976 C   0  0  0  0  0  0  0  0  0  0  0  0
   -6.8873    1.3804   -1.9268 C   0  0  0  0  0  0  0  0  0  0  0  0
   -7.3511    1.4809   -0.4886 C   0  0  0  0  0  0  0  0  0  0  0  0
   -6.0911    1.3316    0.3401 C   0  0  0  0  0  0  0  0  0  0  0  0
   -1.4426    2.4120    0.5499 C   0  0  0  0  0  0  0  0  0  0  0  0
   -1.4107    2.5341    2.0647 C   0  0  0  0  0  0  0  0  0  0  0  0
   -0.0150    2.5115    2.5291 N   0  3  3  0  0  0  0  0  0  0  0  0
    0.6558    1.2645    2.1490 C   0  0  0  0  0  0  0  0  0  0  0  0
    2.1148    1.5325    2.4634 C   0  0  3  0  0  0  0  0  0  0  0  0
    2.6594    1.2293    3.8474 C   0  0  3  0  0  0  0  0  0  0  0  0
    4.0507    1.6854    3.8773 N   0  0  0  0  0  0  0  0  0  0  0  0
    5.0671    0.9281    4.4751 C   0  0  0  0  0  0  0  0  0  0  0  0
    4.8089   -0.1281    4.9827 O   0  0  0  0  0  0  0  0  0  0  0  0
    6.4313    1.4211    4.4802 C   0  0  0  0  0  0  0  0  0  0  0  0
    7.0811    1.6689    3.3555 N   0  0  0  0  0  0  0  0  0  0  0  0
    8.3252    2.1187    3.3447 N   0  0  0  0  0  0  0  0  0  0  0  0
    9.0253    2.3588    4.4998 C   0  0  0  0  0  0  0  0  0  0  0  0
    8.4121    2.1225    5.7256 C   0  0  0  0  0  0  0  0  0  0  0  0
    9.1174    2.3627    6.9023 C   0  0  0  0  0  0  0  0  0  0  0  0
   10.4245    2.8364    6.8878 C   0  0  0  0  0  0  0  0  0  0  0  0
   11.0325    3.0714    5.6594 C   0  0  0  0  0  0  0  0  0  0  0  0
   10.3339    2.8319    4.4811 C   0  0  0  0  0  0  0  0  0  0  0  0
    7.0747    1.6397    5.7275 C   0  0  0  0  0  0  0  0  0  0  0  0
    6.4620    1.4076    6.7597 O   0  0  0  0  0  0  0  0  0  0  0  0
    4.2959    2.9858    3.2476 C   0  0  0  0  0  0  0  0  0  0  0  0
    2.9490    3.6821    3.2808 C   0  0  3  0  0  0  0  0  0  0  0  0
    2.2468    2.9982    2.1245 C   0  0  3  0  0  0  0  0  0  0  0  0
    0.8394    3.4774    1.8266 C   0  0  0  0  0  0  0  0  0  0  0  0
    2.2463    3.5256    4.6226 C   0  0  0  0  0  0  0  0  0  0  0  0
    2.0260    2.0578    4.9519 C   0  0  0  0  0  0  0  0  0  0  0  0
    0.0314    2.6514    3.5182 H   0  0  0  0  0  0  0  0  0  0  0  0
   -5.5401    3.8955   -0.9694 H   0  0  0  0  0  0  0  0  0  0  0  0
   -5.2810    0.0652   -1.6824 H   0  0  0  0  0  0  0  0  0  0  0  0
   -4.9089    1.3625   -2.6018 H   0  0  0  0  0  0  0  0  0  0  0  0
   -7.3761    0.6545   -2.4107 H   0  0  0  0  0  0  0  0  0  0  0  0
   -7.0186    2.2478   -2.4067 H   0  0  0  0  0  0  0  0  0  0  0  0
   -7.7806    2.3679   -0.3188 H   0  0  0  0  0  0  0  0  0  0  0  0
   -8.0000    0.7502   -0.2765 H   0  0  0  0  0  0  0  0  0  0  0  0
   -6.1422    1.8993    1.1618 H   0  0  0  0  0  0  0  0  0  0  0  0
   -5.9549    0.3764    0.6028 H   0  0  0  0  0  0  0  0  0  0  0  0
   -0.9436    3.1773    0.1433 H   0  0  0  0  0  0  0  0  0  0  0  0
   -1.0140    1.5512    0.2757 H   0  0  0  0  0  0  0  0  0  0  0  0
   -1.8394    3.3949    2.3389 H   0  0  0  0  0  0  0  0  0  0  0  0
   -1.9098    1.7688    2.4713 H   0  0  0  0  0  0  0  0  0  0  0  0
    0.5298    1.0740    1.1754 H   0  0  0  0  0  0  0  0  0  0  0  0
    0.3105    0.4953    2.6866 H   0  0  0  0  0  0  0  0  0  0  0  0
    2.6645    1.0198    1.8040 H   0  0  0  0  0  0  0  0  0  0  0  0
    2.5975    0.2523    4.0513 H   0  0  0  0  0  0  0  0  0  0  0  0
    8.7699    2.2894    2.4654 H   0  0  0  0  0  0  0  0  0  0  0  0
    8.6720    2.1899    7.7808 H   0  0  0  0  0  0  0  0  0  0  0  0
   10.9167    3.0044    7.7420 H   0  0  0  0  0  0  0  0  0  0  0  0
   11.9718    3.4126    5.6234 H   0  0  0  0  0  0  0  0  0  0  0  0
   10.7807    3.0030    3.6030 H   0  0  0  0  0  0  0  0  0  0  0  0
    4.6105    2.8690    2.3056 H   0  0  0  0  0  0  0  0  0  0  0  0
    4.9759    3.5063    3.7641 H   0  0  0  0  0  0  0  0  0  0  0  0
    3.0677    4.6534    3.0748 H   0  0  0  0  0  0  0  0  0  0  0  0
    2.8055    3.0937    1.3006 H   0  0  0  0  0  0  0  0  0  0  0  0
    0.6959    4.4022    2.1788 H   0  0  0  0  0  0  0  0  0  0  0  0
    0.6589    3.4634    0.8431 H   0  0  0  0  0  0  0  0  0  0  0  0
    1.3610    3.9891    4.5845 H   0  0  0  0  0  0  0  0  0  0  0  0
    2.8093    3.9406    5.3373 H   0  0  0  0  0  0  0  0  0  0  0  0
    2.4541    1.8387    5.8287 H   0  0  0  0  0  0  0  0  0  0  0  0
    1.0461    1.8645    5.0019 H   0  0  0  0  0  0  0  0  0  0  0  0
  1  2  2  0  0  0  0
  2  3  1  0  0  0  0
  3  4  1  0  0  0  0
  4  5  2  0  0  0  0
  4  6  1  0  0  0  0
  6  7  1  0  0  0  0
  7  2  1  0  0  0  0
  6  8  1  0  0  0  0
  8  9  1  0  0  0  0
  9 10  1  0  0  0  0
 10 11  1  0  0  0  0
 11  6  1  0  0  0  0
  3 12  1  0  0  0  0
 12 13  1  0  0  0  0
 13 14  1  0  0  0  0
 14 15  1  0  0  0  0
 15 16  1  0  0  0  0
 16 17  1  0  0  0  0
 17 18  1  0  0  0  0
 18 19  1  0  0  0  0
 19 20  2  0  0  0  0
 19 21  1  0  0  0  0
 21 22  2  0  0  0  0
 22 23  1  0  0  0  0
 23 24  1  0  0  0  0
 24 25  1  0  0  0  0
 25 26  2  0  0  0  0
 26 27  1  0  0  0  0
 27 28  2  0  0  0  0
 28 29  1  0  0  0  0
 29 24  2  0  0  0  0
 25 30  1  0  0  0  0
 30 21  1  0  0  0  0
 30 31  2  0  0  0  0
 18 32  1  0  0  0  0
 32 33  1  0  0  0  0
 33 34  1  0  0  0  0
 34 16  1  0  0  0  0
 34 35  1  0  0  0  0
 35 14  1  0  0  0  0
 33 36  1  0  0  0  0
 36 37  1  0  0  0  0
 37 17  1  0  0  0  0
 14 38  1  0  0  0  0
  7 39  1  0  0  0  0
  8 40  1  0  0  0  0
  8 41  1  0  0  0  0
  9 42  1  0  0  0  0
  9 43  1  0  0  0  0
 10 44  1  0  0  0  0
 10 45  1  0  0  0  0
 11 46  1  0  0  0  0
 11 47  1  0  0  0  0
 12 48  1  0  0  0  0
 12 49  1  0  0  0  0
 13 50  1  0  0  0  0
 13 51  1  0  0  0  0
 15 52  1  0  0  0  0
 15 53  1  0  0  0  0
 16 54  1  0  0  0  0
 17 55  1  0  0  0  0
 23 56  1  0  0  0  0
 26 57  1  0  0  0  0
 27 58  1  0  0  0  0
 28 59  1  0  0  0  0
 29 60  1  0  0  0  0
 32 61  1  0  0  0  0
 32 62  1  0  0  0  0
 33 63  1  0  0  0  0
 34 64  1  0  0  0  0
 35 65  1  0  0  0  0
 35 66  1  0  0  0  0
 36 67  1  0  0  0  0
 36 68  1  0  0  0  0
 37 69  1  0  0  0  0
 37 70  1  0  0  0  0
M  CHG  1  14   1
M  END
>  <result-rank>
22

>  <similarity>
0.905

>  <query-name>


>  <query-smiles>
S1c2c(cccc2)C(C(=O)N3CCC([N@H+]4CC5(C(=O)N6N(C5=O)CCCC6)CCC4)CC3)=C1NC(=O)NC

>  <source>
REALspace_2019-12

>  <similarity-descriptor>
0.938;0.825;0.999;0.809;0.938;0.994;1.000;0.825;0.825;0.0;0.0;0.0

>  <similarity-descriptor-smiles>
[NH+]1CC2C3CNC(C2C1)CC3;C=1C(ccNN1)=O;c1ccccc1;O=C1NCC(N1CC)=O;[NH+]1CC2C3CNC(C2C1)CC3;C1CCCC1;C=O;C=1C(ccNN1)=O;C=1C(ccNN1)=O;;;

>  <reaction-name>
m_275030

>  <reagent1-name>
14113648

>  <reagent1-smiles>
[R2*]N1C2C3C(C(C1)CC2)CN([R1*])C3

>  <reagent2-name>
14125052

>  <reagent2-smiles>
[R1*]C(=O)C1=NNc2c(cccc2)C1=O

>  <reagent3-name>
14147198

>  <reagent3-smiles>
[R2*]CCN1C(=O)NC2(C1=O)CCCC2

$$$$
m_275030____14114236____14125982____14148758
          04022017303D 1   1.00000     0.00000     0
            
 67 72  0  0  0  0            999 V2000
    1.0117    4.0537   -2.8004 F   0  0  0  0  0  0  0  0  0  0  0  0
    0.9602    5.2281   -2.1771 C   0  0  0  0  0  0  0  0  0  0  0  0
    1.6699    5.4046   -0.9948 C   0  0  0  0  0  0  0  0  0  0  0  0
    2.4653    4.5381   -0.3045 N   0  0  0  0  0  0  0  0  0  0  0  0
    2.9302    5.1987    0.7941 C   0  0  0  0  0  0  0  0  0  0  0  0
    3.8110    4.6328    1.7976 C   0  0  0  0  0  0  0  0  0  0  0  0
    4.8848    5.1280    2.0014 O   0  0  0  0  0  0  0  0  0  0  0  0
    3.4087    3.5093    2.5281 N   0  0  0  0  0  0  0  0  0  0  0  0
    4.3233    2.9558    3.5406 C   0  0  0  0  0  0  0  0  0  0  0  0
    4.1958    1.4438    3.6644 C   0  0  3  0  0  0  0  0  0  0  0  0
    4.9585    1.0023    4.9033 C   0  0  3  0  0  0  0  0  0  0  0  0
    4.3905    1.6614    6.1428 C   0  0  0  0  0  0  0  0  0  0  0  0
    4.8851    0.8040    7.2273 N   0  3  3  0  0  0  0  0  0  0  0  0
    4.0576    1.0166    8.4240 C   0  0  0  0  0  0  0  0  0  0  0  0
    4.5626    0.1324    9.5530 C   0  0  0  0  0  0  0  0  0  0  0  0
    5.4710    0.4616   10.4366 N   0  0  0  0  0  0  0  0  0  0  0  0
    5.6364   -0.5178   11.2198 O   0  0  0  0  0  0  0  0  0  0  0  0
    4.8444   -1.5018   10.8722 C   0  0  0  0  0  0  0  0  0  0  0  0
    4.1476   -1.1354    9.8249 N   0  0  0  0  0  0  0  0  0  0  0  0
    4.7454   -2.8527   11.5695 C   0  0  0  0  0  0  0  0  0  0  0  0
    3.3511   -3.1213   12.1005 C   0  0  0  0  0  0  0  0  0  0  0  0
    4.0246   -3.7831   13.2826 C   0  0  0  0  0  0  0  0  0  0  0  0
    5.1922   -2.8515   13.0150 C   0  0  0  0  0  0  0  0  0  0  0  0
    4.6655   -0.5547    6.7173 C   0  0  0  0  0  0  0  0  0  0  0  0
    4.7002   -0.4632    5.2070 C   0  0  0  0  0  0  0  0  0  0  0  0
    2.7443    0.9913    3.7385 C   0  0  0  0  0  0  0  0  0  0  0  0
    2.0724    1.4186    2.4401 C   0  0  0  0  0  0  0  0  0  0  0  0
    2.0852    2.9288    2.2459 C   0  0  0  0  0  0  0  0  0  0  0  0
    2.4413    6.4699    0.8080 C   0  0  0  0  0  0  0  0  0  0  0  0
    1.6292    6.6128   -0.3411 C   0  0  0  0  0  0  0  0  0  0  0  0
    0.8719    7.6629   -0.8606 C   0  0  0  0  0  0  0  0  0  0  0  0
    0.1586    7.4884   -2.0438 C   0  0  0  0  0  0  0  0  0  0  0  0
    0.2015    6.2665   -2.7083 C   0  0  0  0  0  0  0  0  0  0  0  0
    0.7975    9.0140   -0.1670 C   0  0  0  0  0  0  0  0  0  0  0  0
    5.8525    0.9728    7.4159 H   0  0  0  0  0  0  0  0  0  0  0  0
    2.6700    3.5926   -0.5574 H   0  0  0  0  0  0  0  0  0  0  0  0
    4.1128    3.3705    4.4259 H   0  0  0  0  0  0  0  0  0  0  0  0
    5.2632    3.1798    3.2827 H   0  0  0  0  0  0  0  0  0  0  0  0
    4.6198    1.0223    2.8629 H   0  0  0  0  0  0  0  0  0  0  0  0
    5.9371    1.1862    4.8112 H   0  0  0  0  0  0  0  0  0  0  0  0
    4.7303    2.5968    6.2405 H   0  0  0  0  0  0  0  0  0  0  0  0
    3.3908    1.6707    6.1192 H   0  0  0  0  0  0  0  0  0  0  0  0
    3.1072    0.7837    8.2178 H   0  0  0  0  0  0  0  0  0  0  0  0
    4.1131    1.9757    8.7015 H   0  0  0  0  0  0  0  0  0  0  0  0
    5.1227   -3.6085   11.0342 H   0  0  0  0  0  0  0  0  0  0  0  0
    2.7973   -3.7333   11.5359 H   0  0  0  0  0  0  0  0  0  0  0  0
    2.8216   -2.3027   12.3230 H   0  0  0  0  0  0  0  0  0  0  0  0
    4.2256   -4.7554   13.1627 H   0  0  0  0  0  0  0  0  0  0  0  0
    3.5669   -3.6432   14.1606 H   0  0  0  0  0  0  0  0  0  0  0  0
    5.1347   -1.9638   13.4718 H   0  0  0  0  0  0  0  0  0  0  0  0
    6.0944   -3.2515   13.1763 H   0  0  0  0  0  0  0  0  0  0  0  0
    3.7767   -0.8976    7.0215 H   0  0  0  0  0  0  0  0  0  0  0  0
    5.3874   -1.1657    7.0422 H   0  0  0  0  0  0  0  0  0  0  0  0
    5.4347   -1.0326    4.8379 H   0  0  0  0  0  0  0  0  0  0  0  0
    3.8259   -0.7532    4.8179 H   0  0  0  0  0  0  0  0  0  0  0  0
    2.2900    1.4234    4.5176 H   0  0  0  0  0  0  0  0  0  0  0  0
    2.6999   -0.0029    3.8361 H   0  0  0  0  0  0  0  0  0  0  0  0
    2.5545    0.9928    1.6745 H   0  0  0  0  0  0  0  0  0  0  0  0
    1.1230    1.1049    2.4521 H   0  0  0  0  0  0  0  0  0  0  0  0
    1.8372    3.1348    1.2993 H   0  0  0  0  0  0  0  0  0  0  0  0
    1.4141    3.3395    2.8632 H   0  0  0  0  0  0  0  0  0  0  0  0
    2.6223    7.1694    1.4993 H   0  0  0  0  0  0  0  0  0  0  0  0
   -0.3845    8.2411   -2.4159 H   0  0  0  0  0  0  0  0  0  0  0  0
   -0.3077    6.1360   -3.5590 H   0  0  0  0  0  0  0  0  0  0  0  0
    0.2082    9.6269   -0.6933 H   0  0  0  0  0  0  0  0  0  0  0  0
    0.4207    8.8967    0.7518 H   0  0  0  0  0  0  0  0  0  0  0  0
    1.7149    9.4069   -0.1033 H   0  0  0  0  0  0  0  0  0  0  0  0
  1  2  1  0  0  0  0
  2  3  1  0  0  0  0
  3  4  1  0  0  0  0
  4  5  1  0  0  0  0
  5  6  1  0  0  0  0
  6  7  2  0  0  0  0
  6  8  1  0  0  0  0
  8  9  1  0  0  0  0
  9 10  1  0  0  0  0
 10 11  1  0  0  0  0
 11 12  1  0  0  0  0
 12 13  1  0  0  0  0
 13 14  1  0  0  0  0
 14 15  1  0  0  0  0
 15 16  2  0  0  0  0
 16 17  1  0  0  0  0
 17 18  1  0  0  0  0
 18 19  2  0  0  0  0
 19 15  1  0  0  0  0
 18 20  1  0  0  0  0
 20 21  1  0  0  0  0
 21 22  1  0  0  0  0
 22 23  1  0  0  0  0
 23 20  1  0  0  0  0
 13 24  1  0  0  0  0
 24 25  1  0  0  0  0
 25 11  1  0  0  0  0
 10 26  1  0  0  0  0
 26 27  1  0  0  0  0
 27 28  1  0  0  0  0
 28  8  1  0  0  0  0
  5 29  2  0  0  0  0
 29 30  1  0  0  0  0
 30  3  2  0  0  0  0
 30 31  1  0  0  0  0
 31 32  2  0  0  0  0
 32 33  1  0  0  0  0
 33  2  2  0  0  0  0
 31 34  1  0  0  0  0
 13 35  1  0  0  0  0
  4 36  1  0  0  0  0
  9 37  1  0  0  0  0
  9 38  1  0  0  0  0
 10 39  1  0  0  0  0
 11 40  1  0  0  0  0
 12 41  1  0  0  0  0
 12 42  1  0  0  0  0
 14 43  1  0  0  0  0
 14 44  1  0  0  0  0
 20 45  1  0  0  0  0
 21 46  1  0  0  0  0
 21 47  1  0  0  0  0
 22 48  1  0  0  0  0
 22 49  1  0  0  0  0
 23 50  1  0  0  0  0
 23 51  1  0  0  0  0
 24 52  1  0  0  0  0
 24 53  1  0  0  0  0
 25 54  1  0  0  0  0
 25 55  1  0  0  0  0
 26 56  1  0  0  0  0
 26 57  1  0  0  0  0
 27 58  1  0  0  0  0
 27 59  1  0  0  0  0
 28 60  1  0  0  0  0
 28 61  1  0  0  0  0
 29 62  1  0  0  0  0
 32 63  1  0  0  0  0
 33 64  1  0  0  0  0
 34 65  1  0  0  0  0
 34 66  1  0  0  0  0
 34 67  1  0  0  0  0
M  CHG  1  13   1
M  END
>  <result-rank>
23

>  <similarity>
0.905

>  <query-name>


>  <query-smiles>
S1c2c(cccc2)C(C(=O)N3CCC([N@H+]4CC5(C(=O)N6N(C5=O)CCCC6)CCC4)CC3)=C1NC(=O)NC

>  <source>
REALspace_2019-12

>  <similarity-descriptor>
0.999;0.899;0.926;0.780;0.936;0.973;1.000;0.899;0.0;0.0;0.0;0.111

>  <similarity-descriptor-smiles>
N1CCCCC1;c1cC=CN1;Fc1ccccc1;C=1N=CON1;C1CC[NH+](C1)C;C1CCC1;C=O;c1cC=CN1;;;;C

>  <reaction-name>
m_275030

>  <reagent1-name>
14114236

>  <reagent1-smiles>
[R2*]N1CC(C2CN([R1*])CCC2)CC1

>  <reagent2-name>
14125982

>  <reagent2-smiles>
[R1*]C(=O)C=1Nc2c(F)ccc(c2C1)C

>  <reagent3-name>
14148758

>  <reagent3-smiles>
[R2*]CC1=NOC(=N1)C2CCC2

$$$$
m_275030____14114236____14126114____12659366
          04022017303D 1   1.00000     0.00000     0
            
 67 72  0  0  0  0            999 V2000
    4.8848    5.1280    2.0014 O   0  0  0  0  0  0  0  0  0  0  0  0
    3.8110    4.6328    1.7976 C   0  0  0  0  0  0  0  0  0  0  0  0
    3.4087    3.5093    2.5281 N   0  0  0  0  0  0  0  0  0  0  0  0
    4.3233    2.9558    3.5406 C   0  0  0  0  0  0  0  0  0  0  0  0
    4.1958    1.4438    3.6644 C   0  0  3  0  0  0  0  0  0  0  0  0
    4.9585    1.0023    4.9033 C   0  0  3  0  0  0  0  0  0  0  0  0
    4.3905    1.6614    6.1428 C   0  0  0  0  0  0  0  0  0  0  0  0
    4.8851    0.8040    7.2273 N   0  3  3  0  0  0  0  0  0  0  0  0
    4.0576    1.0166    8.4240 C   0  0  0  0  0  0  0  0  0  0  0  0
    4.1419    2.4735    8.8455 C   0  0  0  0  0  0  0  0  0  0  0  0
    3.3511    3.4407    8.4498 N   0  0  0  0  0  0  0  0  0  0  0  0
    3.7268    4.5091    9.0211 O   0  0  0  0  0  0  0  0  0  0  0  0
    4.7478    4.3491    9.8432 C   0  0  0  0  0  0  0  0  0  0  0  0
    5.0817    3.0420    9.7408 C   0  0  0  0  0  0  0  0  0  0  0  0
    6.2750    2.5010   10.5098 C   0  0  0  0  0  0  0  0  0  0  0  0
    6.6735    3.3818   11.6875 C   0  0  0  0  0  0  0  0  0  0  0  0
    6.8624    4.7861   11.1325 C   0  0  0  0  0  0  0  0  0  0  0  0
    5.4782    5.3045   10.7700 C   0  0  0  0  0  0  0  0  0  0  0  0
    4.6655   -0.5547    6.7173 C   0  0  0  0  0  0  0  0  0  0  0  0
    4.7002   -0.4632    5.2070 C   0  0  0  0  0  0  0  0  0  0  0  0
    2.7443    0.9913    3.7385 C   0  0  0  0  0  0  0  0  0  0  0  0
    2.0724    1.4186    2.4401 C   0  0  0  0  0  0  0  0  0  0  0  0
    2.0852    2.9288    2.2459 C   0  0  0  0  0  0  0  0  0  0  0  0
    2.9318    5.1976    0.7960 C   0  0  0  0  0  0  0  0  0  0  0  0
    2.5221    4.4443   -0.2737 N   0  0  0  0  0  0  0  0  0  0  0  0
    1.6908    4.9638   -1.2318 C   0  0  0  0  0  0  0  0  0  0  0  0
    1.2466    6.2790   -1.1269 C   0  0  0  0  0  0  0  0  0  0  0  0
    0.4023    6.7855   -2.1117 C   0  0  0  0  0  0  0  0  0  0  0  0
   -0.0061    6.0116   -3.1919 C   0  0  0  0  0  0  0  0  0  0  0  0
    0.4475    4.7001   -3.2784 C   0  0  0  0  0  0  0  0  0  0  0  0
    1.2912    4.1747   -2.3058 C   0  0  0  0  0  0  0  0  0  0  0  0
    1.6691    7.0651   -0.0182 C   0  0  0  0  0  0  0  0  0  0  0  0
    1.3183    8.2256    0.1349 O   0  0  0  0  0  0  0  0  0  0  0  0
    2.5310    6.4977    0.9572 C   0  0  0  0  0  0  0  0  0  0  0  0
    5.8525    0.9728    7.4159 H   0  0  0  0  0  0  0  0  0  0  0  0
    4.1128    3.3705    4.4259 H   0  0  0  0  0  0  0  0  0  0  0  0
    5.2632    3.1798    3.2827 H   0  0  0  0  0  0  0  0  0  0  0  0
    4.6198    1.0223    2.8629 H   0  0  0  0  0  0  0  0  0  0  0  0
    5.9371    1.1862    4.8112 H   0  0  0  0  0  0  0  0  0  0  0  0
    4.7303    2.5968    6.2405 H   0  0  0  0  0  0  0  0  0  0  0  0
    3.3908    1.6707    6.1192 H   0  0  0  0  0  0  0  0  0  0  0  0
    4.3897    0.4350    9.1666 H   0  0  0  0  0  0  0  0  0  0  0  0
    3.1072    0.7837    8.2178 H   0  0  0  0  0  0  0  0  0  0  0  0
    7.0528    2.4335    9.8849 H   0  0  0  0  0  0  0  0  0  0  0  0
    6.0454    1.5913   10.8557 H   0  0  0  0  0  0  0  0  0  0  0  0
    7.5267    3.0525   12.0919 H   0  0  0  0  0  0  0  0  0  0  0  0
    5.9529    3.3784   12.3808 H   0  0  0  0  0  0  0  0  0  0  0  0
    7.2811    5.3759   11.8231 H   0  0  0  0  0  0  0  0  0  0  0  0
    7.4442    4.7598   10.3196 H   0  0  0  0  0  0  0  0  0  0  0  0
    4.9438    5.4157   11.6079 H   0  0  0  0  0  0  0  0  0  0  0  0
    5.5723    6.1898   10.3147 H   0  0  0  0  0  0  0  0  0  0  0  0
    3.7767   -0.8976    7.0215 H   0  0  0  0  0  0  0  0  0  0  0  0
    5.3874   -1.1657    7.0422 H   0  0  0  0  0  0  0  0  0  0  0  0
    5.4347   -1.0326    4.8379 H   0  0  0  0  0  0  0  0  0  0  0  0
    3.8259   -0.7532    4.8179 H   0  0  0  0  0  0  0  0  0  0  0  0
    2.2900    1.4234    4.5176 H   0  0  0  0  0  0  0  0  0  0  0  0
    2.6999   -0.0029    3.8361 H   0  0  0  0  0  0  0  0  0  0  0  0
    2.5545    0.9928    1.6745 H   0  0  0  0  0  0  0  0  0  0  0  0
    1.1230    1.1049    2.4521 H   0  0  0  0  0  0  0  0  0  0  0  0
    1.8372    3.1348    1.2993 H   0  0  0  0  0  0  0  0  0  0  0  0
    1.4141    3.3395    2.8632 H   0  0  0  0  0  0  0  0  0  0  0  0
    2.8356    3.4983   -0.3566 H   0  0  0  0  0  0  0  0  0  0  0  0
    0.0816    7.7300   -2.0401 H   0  0  0  0  0  0  0  0  0  0  0  0
   -0.6127    6.3897   -3.8912 H   0  0  0  0  0  0  0  0  0  0  0  0
    0.1639    4.1285   -4.0484 H   0  0  0  0  0  0  0  0  0  0  0  0
    1.6106    3.2298   -2.3783 H   0  0  0  0  0  0  0  0  0  0  0  0
    2.8382    7.0344    1.7431 H   0  0  0  0  0  0  0  0  0  0  0  0
  1  2  2  0  0  0  0
  2  3  1  0  0  0  0
  3  4  1  0  0  0  0
  4  5  1  0  0  0  0
  5  6  1  0  0  0  0
  6  7  1  0  0  0  0
  7  8  1  0  0  0  0
  8  9  1  0  0  0  0
  9 10  1  0  0  0  0
 10 11  2  0  0  0  0
 11 12  1  0  0  0  0
 12 13  1  0  0  0  0
 13 14  2  0  0  0  0
 14 10  1  0  0  0  0
 14 15  1  0  0  0  0
 15 16  1  0  0  0  0
 16 17  1  0  0  0  0
 17 18  1  0  0  0  0
 18 13  1  0  0  0  0
  8 19  1  0  0  0  0
 19 20  1  0  0  0  0
 20  6  1  0  0  0  0
  5 21  1  0  0  0  0
 21 22  1  0  0  0  0
 22 23  1  0  0  0  0
 23  3  1  0  0  0  0
  2 24  1  0  0  0  0
 24 25  1  0  0  0  0
 25 26  1  0  0  0  0
 26 27  1  0  0  0  0
 27 28  2  0  0  0  0
 28 29  1  0  0  0  0
 29 30  2  0  0  0  0
 30 31  1  0  0  0  0
 31 26  2  0  0  0  0
 27 32  1  0  0  0  0
 32 33  2  0  0  0  0
 32 34  1  0  0  0  0
 24 34  2  0  0  0  0
  8 35  1  0  0  0  0
  4 36  1  0  0  0  0
  4 37  1  0  0  0  0
  5 38  1  0  0  0  0
  6 39  1  0  0  0  0
  7 40  1  0  0  0  0
  7 41  1  0  0  0  0
  9 42  1  0  0  0  0
  9 43  1  0  0  0  0
 15 44  1  0  0  0  0
 15 45  1  0  0  0  0
 16 46  1  0  0  0  0
 16 47  1  0  0  0  0
 17 48  1  0  0  0  0
 17 49  1  0  0  0  0
 18 50  1  0  0  0  0
 18 51  1  0  0  0  0
 19 52  1  0  0  0  0
 19 53  1  0  0  0  0
 20 54  1  0  0  0  0
 20 55  1  0  0  0  0
 21 56  1  0  0  0  0
 21 57  1  0  0  0  0
 22 58  1  0  0  0  0
 22 59  1  0  0  0  0
 23 60  1  0  0  0  0
 23 61  1  0  0  0  0
 25 62  1  0  0  0  0
 28 63  1  0  0  0  0
 29 64  1  0  0  0  0
 30 65  1  0  0  0  0
 31 66  1  0  0  0  0
 34 67  1  0  0  0  0
M  CHG  1   8   1
M  END
>  <result-rank>
24

>  <similarity>
0.905

>  <query-name>


>  <query-smiles>
S1c2c(cccc2)C(C(=O)N3CCC([N@H+]4CC5(C(=O)N6N(C5=O)CCCC6)CCC4)CC3)=C1NC(=O)NC

>  <source>
REALspace_2019-12

>  <similarity-descriptor>
0.999;0.935;0.999;0.652;0.982;0.857;1.000;0.935;0.935;0.0;0.0;0.0

>  <similarity-descriptor-smiles>
N1CCCCC1;C1=CC(ccN1)=O;c1ccccc1;CC=1C=CON1;C1CC[NH+]C1;C=1CCCCC1;O=C;C1=CC(ccN1)=O;C1=CC(ccN1)=O;;;

>  <reaction-name>
m_275030

>  <reagent1-name>
14114236

>  <reagent1-smiles>
[R2*]N1CC(C2CN([R1*])CCC2)CC1

>  <reagent2-name>
14126114

>  <reagent2-smiles>
[R1*]C(=O)C=1Nc2c(cccc2)C(=O)C1

>  <reagent3-name>
12659366

>  <reagent3-smiles>
[R2*]CC1=NOC2=C1CCCC2

$$$$
m_275030____14114236____14125676____14147992
          04022017303D 1   1.00000     0.00000     0
            
 73 78  0  0  0  0            999 V2000
    2.8714    6.5744   -1.0397 O   0  0  0  0  0  0  0  0  0  0  0  0
    1.8529    6.0350   -1.3737 C   0  0  0  0  0  0  0  0  0  0  0  0
    1.4362    4.8577   -0.7277 N   0  0  0  0  0  0  0  0  0  0  0  0
    2.2250    4.2622    0.3599 C   0  0  0  0  0  0  0  0  0  0  0  0
    1.2837    3.5185    1.2939 C   0  0  3  0  0  0  0  0  0  0  0  0
    2.0264    3.0056    2.5174 C   0  0  3  0  0  0  0  0  0  0  0  0
    2.1200    1.4943    2.4902 C   0  0  0  0  0  0  0  0  0  0  0  0
    3.2207    1.2161    3.4213 N   0  3  3  0  0  0  0  0  0  0  0  0
    3.7451   -0.1319    3.1570 C   0  0  0  0  0  0  0  0  0  0  0  0
    4.4555   -0.6512    4.3964 C   0  0  0  0  0  0  0  0  0  0  0  0
    3.9932   -0.4438    5.4841 O   0  0  0  0  0  0  0  0  0  0  0  0
    5.6499   -1.3719    4.2688 N   0  0  0  0  0  0  0  0  0  0  0  0
    6.9510   -0.7029    4.4331 C   0  0  3  0  0  0  0  0  0  0  0  0
    6.8646    0.5353    5.3115 C   0  0  0  0  0  0  0  0  0  0  0  0
    7.7197    1.6417    4.7662 C   0  0  0  0  0  0  0  0  0  0  0  0
    8.1741    0.8649    5.9685 C   0  0  0  0  0  0  0  0  0  0  0  0
    7.9181   -1.6759    5.0898 C   0  0  0  0  0  0  0  0  0  0  0  0
    7.9394   -2.9171    4.3981 O   0  0  0  0  0  0  0  0  0  0  0  0
    6.6983   -3.5858    4.5873 C   0  0  0  0  0  0  0  0  0  0  0  0
    5.5486   -2.8080    3.9650 C   0  0  0  0  0  0  0  0  0  0  0  0
    4.2351    2.2138    3.0607 C   0  0  0  0  0  0  0  0  0  0  0  0
    3.4945    3.3904    2.4629 C   0  0  0  0  0  0  0  0  0  0  0  0
    0.7322    2.3180    0.5431 C   0  0  0  0  0  0  0  0  0  0  0  0
    0.3716    2.6597   -0.8950 C   0  0  0  0  0  0  0  0  0  0  0  0
    0.1987    4.1567   -1.0999 C   0  0  0  0  0  0  0  0  0  0  0  0
    1.0521    6.5972   -2.4431 C   0  0  0  0  0  0  0  0  0  0  0  0
   -0.2393    6.9783   -2.1861 N   0  0  0  0  0  0  0  0  0  0  0  0
   -1.0255    7.5141   -3.1720 C   0  0  0  0  0  0  0  0  0  0  0  0
   -2.1684    7.8346   -2.8839 O   0  0  0  0  0  0  0  0  0  0  0  0
   -0.4926    7.6777   -4.4820 C   0  0  0  0  0  0  0  0  0  0  0  0
    0.8186    7.2875   -4.7328 C   0  0  0  0  0  0  0  0  0  0  0  0
    1.3812    7.4277   -5.9974 C   0  0  0  0  0  0  0  0  0  0  0  0
    0.6160    7.9683   -7.0253 C   0  0  0  0  0  0  0  0  0  0  0  0
   -0.6979    8.3682   -6.8051 C   0  0  0  0  0  0  0  0  0  0  0  0
   -1.2337    8.2156   -5.5312 C   0  0  0  0  0  0  0  0  0  0  0  0
    1.6074    6.7352   -3.6884 C   0  0  0  0  0  0  0  0  0  0  0  0
    2.9301    1.3163    4.3729 H   0  0  0  0  0  0  0  0  0  0  0  0
    2.7000    4.9829    0.8647 H   0  0  0  0  0  0  0  0  0  0  0  0
    2.8949    3.6246   -0.0204 H   0  0  0  0  0  0  0  0  0  0  0  0
    0.5354    4.1194    1.5750 H   0  0  0  0  0  0  0  0  0  0  0  0
    1.5987    3.3271    3.3622 H   0  0  0  0  0  0  0  0  0  0  0  0
    1.2682    1.0756    2.8049 H   0  0  0  0  0  0  0  0  0  0  0  0
    2.3342    1.1638    1.5710 H   0  0  0  0  0  0  0  0  0  0  0  0
    4.3904   -0.0949    2.3939 H   0  0  0  0  0  0  0  0  0  0  0  0
    2.9892   -0.7441    2.9250 H   0  0  0  0  0  0  0  0  0  0  0  0
    7.3040   -0.4445    3.5339 H   0  0  0  0  0  0  0  0  0  0  0  0
    6.0071    0.7545    5.7769 H   0  0  0  0  0  0  0  0  0  0  0  0
    7.4295    2.5934    4.8663 H   0  0  0  0  0  0  0  0  0  0  0  0
    8.1879    1.5263    3.8902 H   0  0  0  0  0  0  0  0  0  0  0  0
    8.9447    0.2321    5.8931 H   0  0  0  0  0  0  0  0  0  0  0  0
    8.1863    1.2992    6.8692 H   0  0  0  0  0  0  0  0  0  0  0  0
    8.8366   -1.2805    5.0805 H   0  0  0  0  0  0  0  0  0  0  0  0
    7.6324   -1.8331    6.0351 H   0  0  0  0  0  0  0  0  0  0  0  0
    6.5295   -3.6873    5.5677 H   0  0  0  0  0  0  0  0  0  0  0  0
    6.7475   -4.4896    4.1621 H   0  0  0  0  0  0  0  0  0  0  0  0
    5.5693   -2.9336    2.9731 H   0  0  0  0  0  0  0  0  0  0  0  0
    4.6847   -3.1577    4.3273 H   0  0  0  0  0  0  0  0  0  0  0  0
    4.8720    1.8313    2.3914 H   0  0  0  0  0  0  0  0  0  0  0  0
    4.7399    2.5017    3.8745 H   0  0  0  0  0  0  0  0  0  0  0  0
    3.6603    4.2182    2.9989 H   0  0  0  0  0  0  0  0  0  0  0  0
    3.7824    3.5424    1.5173 H   0  0  0  0  0  0  0  0  0  0  0  0
   -0.0884    1.9928    1.0129 H   0  0  0  0  0  0  0  0  0  0  0  0
    1.4228    1.5948    0.5393 H   0  0  0  0  0  0  0  0  0  0  0  0
    1.1007    2.3338   -1.4966 H   0  0  0  0  0  0  0  0  0  0  0  0
   -0.4851    2.2008   -1.1305 H   0  0  0  0  0  0  0  0  0  0  0  0
   -0.0091    4.3381   -2.0611 H   0  0  0  0  0  0  0  0  0  0  0  0
   -0.5533    4.4851   -0.5285 H   0  0  0  0  0  0  0  0  0  0  0  0
   -0.6130    6.8637   -1.2656 H   0  0  0  0  0  0  0  0  0  0  0  0
    2.3249    7.1430   -6.1655 H   0  0  0  0  0  0  0  0  0  0  0  0
    1.0162    8.0710   -7.9359 H   0  0  0  0  0  0  0  0  0  0  0  0
   -1.2449    8.7568   -7.5465 H   0  0  0  0  0  0  0  0  0  0  0  0
   -2.1776    8.5000   -5.3638 H   0  0  0  0  0  0  0  0  0  0  0  0
    2.5513    6.4521   -3.8589 H   0  0  0  0  0  0  0  0  0  0  0  0
  1  2  2  0  0  0  0
  2  3  1  0  0  0  0
  3  4  1  0  0  0  0
  4  5  1  0  0  0  0
  5  6  1  0  0  0  0
  6  7  1  0  0  0  0
  7  8  1  0  0  0  0
  8  9  1  0  0  0  0
  9 10  1  0  0  0  0
 10 11  2  0  0  0  0
 10 12  1  0  0  0  0
 12 13  1  0  0  0  0
 13 14  1  0  0  0  0
 14 15  1  0  0  0  0
 15 16  1  0  0  0  0
 16 14  1  0  0  0  0
 13 17  1  0  0  0  0
 17 18  1  0  0  0  0
 18 19  1  0  0  0  0
 19 20  1  0  0  0  0
 20 12  1  0  0  0  0
  8 21  1  0  0  0  0
 21 22  1  0  0  0  0
 22  6  1  0  0  0  0
  5 23  1  0  0  0  0
 23 24  1  0  0  0  0
 24 25  1  0  0  0  0
 25  3  1  0  0  0  0
  2 26  1  0  0  0  0
 26 27  1  0  0  0  0
 27 28  1  0  0  0  0
 28 29  2  0  0  0  0
 28 30  1  0  0  0  0
 30 31  1  0  0  0  0
 31 32  2  0  0  0  0
 32 33  1  0  0  0  0
 33 34  2  0  0  0  0
 34 35  1  0  0  0  0
 35 30  2  0  0  0  0
 31 36  1  0  0  0  0
 26 36  2  0  0  0  0
  8 37  1  0  0  0  0
  4 38  1  0  0  0  0
  4 39  1  0  0  0  0
  5 40  1  0  0  0  0
  6 41  1  0  0  0  0
  7 42  1  0  0  0  0
  7 43  1  0  0  0  0
  9 44  1  0  0  0  0
  9 45  1  0  0  0  0
 13 46  1  0  0  0  0
 14 47  1  0  0  0  0
 15 48  1  0  0  0  0
 15 49  1  0  0  0  0
 16 50  1  0  0  0  0
 16 51  1  0  0  0  0
 17 52  1  0  0  0  0
 17 53  1  0  0  0  0
 19 54  1  0  0  0  0
 19 55  1  0  0  0  0
 20 56  1  0  0  0  0
 20 57  1  0  0  0  0
 21 58  1  0  0  0  0
 21 59  1  0  0  0  0
 22 60  1  0  0  0  0
 22 61  1  0  0  0  0
 23 62  1  0  0  0  0
 23 63  1  0  0  0  0
 24 64  1  0  0  0  0
 24 65  1  0  0  0  0
 25 66  1  0  0  0  0
 25 67  1  0  0  0  0
 27 68  1  0  0  0  0
 32 69  1  0  0  0  0
 33 70  1  0  0  0  0
 34 71  1  0  0  0  0
 35 72  1  0  0  0  0
 36 73  1  0  0  0  0
M  CHG  1   8   1
M  END
>  <result-rank>
25

>  <similarity>
0.904

>  <query-name>


>  <query-smiles>
S1c2c(cccc2)C(C(=O)N3CCC([N@H+]4CC5(C(=O)N6N(C5=O)CCCC6)CCC4)CC3)=C1NC(=O)NC

>  <source>
REALspace_2019-12

>  <similarity-descriptor>
0.999;0.940;1.000;0.747;0.936;0.826;1.000;0.940;0.940;0.0;0.0;0.0

>  <similarity-descriptor-smiles>
N1CCCCC1;C1=CccC(N1)=O;c1ccccc1;C(=O)N1CCOCC1;C1CC[NH+](C1)C;C1CC1;O=C;C1=CccC(N1)=O;C1=CccC(N1)=O;;;

>  <reaction-name>
m_275030

>  <reagent1-name>
14114236

>  <reagent1-smiles>
[R2*]N1CC(C2CN([R1*])CCC2)CC1

>  <reagent2-name>
14125676

>  <reagent2-smiles>
[R1*]C(=O)C=1NC(=O)c2c(cccc2)C1

>  <reagent3-name>
14147992

>  <reagent3-smiles>
[R2*]CC(=O)N1C(C2CC2)COCC1

$$$$
m_275030____14114032____14125676____14148072
          04022017303D 1   1.00000     0.00000     0
            
 73 77  0  0  0  0            999 V2000
    1.3658    2.8711   -4.7152 S   0  0  0  0  0  0  0  0  0  0  0  0
    0.9189    4.2371   -4.8030 O   0  0  0  0  0  0  0  0  0  0  0  0
    2.7323    2.7834   -5.1608 O   0  0  0  0  0  0  0  0  0  0  0  0
    1.2590    2.3320   -3.0645 C   0  0  0  0  0  0  0  0  0  0  0  0
    0.7932    3.1993   -2.0822 C   0  0  0  0  0  0  0  0  0  0  0  0
    0.7070    2.7706   -0.7615 C   0  0  0  0  0  0  0  0  0  0  0  0
    1.0912    1.4728   -0.4415 C   0  0  0  0  0  0  0  0  0  0  0  0
    1.5575    0.6061   -1.4245 C   0  0  0  0  0  0  0  0  0  0  0  0
    1.6433    1.0338   -2.7448 C   0  0  0  0  0  0  0  0  0  0  0  0
    1.0000    1.0000    1.0000 C   0  0  0  0  0  0  0  0  0  0  0  0
    1.8489    1.8489    1.8489 N   0  3  3  0  0  0  0  0  0  0  0  0
    1.5132    1.6532    3.2564 C   0  0  0  0  0  0  0  0  0  0  0  0
    2.7279    2.1873    3.9836 C   0  0  3  0  0  0  0  0  0  0  0  0
    2.7874    1.6282    5.3957 C   0  0  0  0  0  0  0  0  0  0  0  0
    1.4707    1.8248    6.1332 C   0  0  0  0  0  0  0  0  0  0  0  0
    1.3958    3.1990    6.7810 C   0  0  0  0  0  0  0  0  0  0  0  0
    2.3982    3.2214    7.8547 N   0  0  0  0  0  0  0  0  0  0  0  0
    2.2247    3.9991    9.0124 C   0  0  0  0  0  0  0  0  0  0  0  0
    1.2374    4.6685    9.1433 O   0  0  0  0  0  0  0  0  0  0  0  0
    3.2385    3.9927   10.0483 C   0  0  0  0  0  0  0  0  0  0  0  0
    3.5577    2.8127   10.6685 N   0  0  0  0  0  0  0  0  0  0  0  0
    4.5113    2.7684   11.6513 C   0  0  0  0  0  0  0  0  0  0  0  0
    4.7528    1.6884   12.1683 O   0  0  0  0  0  0  0  0  0  0  0  0
    5.1804    3.9656   12.0331 C   0  0  0  0  0  0  0  0  0  0  0  0
    4.8491    5.1579   11.3982 C   0  0  0  0  0  0  0  0  0  0  0  0
    5.4759    6.3523   11.7389 C   0  0  0  0  0  0  0  0  0  0  0  0
    6.4503    6.3492   12.7313 C   0  0  0  0  0  0  0  0  0  0  0  0
    6.8035    5.1727   13.3837 C   0  0  0  0  0  0  0  0  0  0  0  0
    6.1598    3.9944   13.0227 C   0  0  0  0  0  0  0  0  0  0  0  0
    3.8556    5.1698   10.3829 C   0  0  0  0  0  0  0  0  0  0  0  0
    3.5913    2.3916    7.6540 C   0  0  0  0  0  0  0  0  0  0  0  0
    3.8664    2.3843    6.1562 C   0  0  0  0  0  0  0  0  0  0  0  0
    3.8477    1.6133    3.1335 C   0  0  0  0  0  0  0  0  0  0  0  0
    3.2291    1.3519    1.7700 C   0  0  0  0  0  0  0  0  0  0  0  0
    0.3218    1.8263   -5.7614 C   0  0  0  0  0  0  0  0  0  0  0  0
   -1.1206    1.9188   -5.2910 C   0  0  0  0  0  0  0  0  0  0  0  0
    0.4158    2.2985   -7.2032 C   0  0  0  0  0  0  0  0  0  0  0  0
    1.7881    2.8118    1.5857 H   0  0  0  0  0  0  0  0  0  0  0  0
    0.5204    4.1302   -2.3250 H   0  0  0  0  0  0  0  0  0  0  0  0
    0.3725    3.3888   -0.0502 H   0  0  0  0  0  0  0  0  0  0  0  0
    1.8310   -0.3246   -1.1816 H   0  0  0  0  0  0  0  0  0  0  0  0
    1.9773    0.4154   -3.4562 H   0  0  0  0  0  0  0  0  0  0  0  0
    0.0515    1.0600    1.3111 H   0  0  0  0  0  0  0  0  0  0  0  0
    1.3111    0.0515    1.0600 H   0  0  0  0  0  0  0  0  0  0  0  0
    1.3720    0.6842    3.4592 H   0  0  0  0  0  0  0  0  0  0  0  0
    0.6927    2.1685    3.5036 H   0  0  0  0  0  0  0  0  0  0  0  0
    2.7441    3.1872    3.9845 H   0  0  0  0  0  0  0  0  0  0  0  0
    3.0151    0.6550    5.3644 H   0  0  0  0  0  0  0  0  0  0  0  0
    1.3882    1.1256    6.8434 H   0  0  0  0  0  0  0  0  0  0  0  0
    0.7167    1.7303    5.4832 H   0  0  0  0  0  0  0  0  0  0  0  0
    1.5990    3.9085    6.1062 H   0  0  0  0  0  0  0  0  0  0  0  0
    0.4829    3.3510    7.1599 H   0  0  0  0  0  0  0  0  0  0  0  0
    3.0878    1.9719   10.3996 H   0  0  0  0  0  0  0  0  0  0  0  0
    5.2287    7.2033   11.2755 H   0  0  0  0  0  0  0  0  0  0  0  0
    6.9035    7.2054   12.9794 H   0  0  0  0  0  0  0  0  0  0  0  0
    7.5048    5.1743   14.0966 H   0  0  0  0  0  0  0  0  0  0  0  0
    6.4070    3.1438   13.4866 H   0  0  0  0  0  0  0  0  0  0  0  0
    3.6109    6.0220    9.9204 H   0  0  0  0  0  0  0  0  0  0  0  0
    3.4233    1.4609    7.9789 H   0  0  0  0  0  0  0  0  0  0  0  0
    4.3697    2.7812    8.1462 H   0  0  0  0  0  0  0  0  0  0  0  0
    3.8959    3.3279    5.8265 H   0  0  0  0  0  0  0  0  0  0  0  0
    4.7494    1.9453    5.9901 H   0  0  0  0  0  0  0  0  0  0  0  0
    4.1876    0.7615    3.5322 H   0  0  0  0  0  0  0  0  0  0  0  0
    4.5991    2.2685    3.0566 H   0  0  0  0  0  0  0  0  0  0  0  0
    3.7346    1.8415    1.0596 H   0  0  0  0  0  0  0  0  0  0  0  0
    3.2346    0.3725    1.5680 H   0  0  0  0  0  0  0  0  0  0  0  0
    0.6321    0.8777   -5.7005 H   0  0  0  0  0  0  0  0  0  0  0  0
   -1.6974    1.3416   -5.8691 H   0  0  0  0  0  0  0  0  0  0  0  0
   -1.1825    1.6082   -4.3425 H   0  0  0  0  0  0  0  0  0  0  0  0
   -1.4310    2.8675   -5.3520 H   0  0  0  0  0  0  0  0  0  0  0  0
   -0.1610    1.7213   -7.7812 H   0  0  0  0  0  0  0  0  0  0  0  0
    0.1054    3.2472   -7.2642 H   0  0  0  0  0  0  0  0  0  0  0  0
    1.3647    2.2376   -7.5127 H   0  0  0  0  0  0  0  0  0  0  0  0
  1  2  2  0  0  0  0
  1  3  2  0  0  0  0
  1  4  1  0  0  0  0
  4  5  1  0  0  0  0
  5  6  2  0  0  0  0
  6  7  1  0  0  0  0
  7  8  2  0  0  0  0
  8  9  1  0  0  0  0
  9  4  2  0  0  0  0
  7 10  1  0  0  0  0
 10 11  1  0  0  0  0
 11 12  1  0  0  0  0
 12 13  1  0  0  0  0
 13 14  1  0  0  0  0
 14 15  1  0  0  0  0
 15 16  1  0  0  0  0
 16 17  1  0  0  0  0
 17 18  1  0  0  0  0
 18 19  2  0  0  0  0
 18 20  1  0  0  0  0
 20 21  1  0  0  0  0
 21 22  1  0  0  0  0
 22 23  2  0  0  0  0
 22 24  1  0  0  0  0
 24 25  1  0  0  0  0
 25 26  2  0  0  0  0
 26 27  1  0  0  0  0
 27 28  2  0  0  0  0
 28 29  1  0  0  0  0
 29 24  2  0  0  0  0
 25 30  1  0  0  0  0
 20 30  2  0  0  0  0
 17 31  1  0  0  0  0
 31 32  1  0  0  0  0
 32 14  1  0  0  0  0
 13 33  1  0  0  0  0
 33 34  1  0  0  0  0
 34 11  1  0  0  0  0
  1 35  1  0  0  0  0
 35 36  1  0  0  0  0
 35 37  1  0  0  0  0
 11 38  1  0  0  0  0
  5 39  1  0  0  0  0
  6 40  1  0  0  0  0
  8 41  1  0  0  0  0
  9 42  1  0  0  0  0
 10 43  1  0  0  0  0
 10 44  1  0  0  0  0
 12 45  1  0  0  0  0
 12 46  1  0  0  0  0
 13 47  1  0  0  0  0
 14 48  1  0  0  0  0
 15 49  1  0  0  0  0
 15 50  1  0  0  0  0
 16 51  1  0  0  0  0
 16 52  1  0  0  0  0
 21 53  1  0  0  0  0
 26 54  1  0  0  0  0
 27 55  1  0  0  0  0
 28 56  1  0  0  0  0
 29 57  1  0  0  0  0
 30 58  1  0  0  0  0
 31 59  1  0  0  0  0
 31 60  1  0  0  0  0
 32 61  1  0  0  0  0
 32 62  1  0  0  0  0
 33 63  1  0  0  0  0
 33 64  1  0  0  0  0
 34 65  1  0  0  0  0
 34 66  1  0  0  0  0
 35 67  1  0  0  0  0
 36 68  1  0  0  0  0
 36 69  1  0  0  0  0
 36 70  1  0  0  0  0
 37 71  1  0  0  0  0
 37 72  1  0  0  0  0
 37 73  1  0  0  0  0
M  CHG  1  11   1
M  END
>  <result-rank>
26

>  <similarity>
0.903

>  <query-name>


>  <query-smiles>
S1c2c(cccc2)C(C(=O)N3CCC([N@H+]4CC5(C(=O)N6N(C5=O)CCCC6)CCC4)CC3)=C1NC(=O)NC

>  <source>
REALspace_2019-12

>  <similarity-descriptor>
0.999;0.940;1.000;0.779;0.936;0.777;1.000;0.940;0.940;0.0;0.0;0.0

>  <similarity-descriptor-smiles>
C1CCNCC1;C1=CccC(N1)=O;c1ccccc1;S(=O)(=O)c1ccccc1;C[NH+]1CCCC1;C(C)C;C=O;C1=CccC(N1)=O;C1=CccC(N1)=O;;;

>  <reaction-name>
m_275030

>  <reagent1-name>
14114032

>  <reagent1-smiles>
[R2*]N1CC(C2CCN([R1*])CC2)CC1

>  <reagent2-name>
14125676

>  <reagent2-smiles>
[R1*]C(=O)C=1NC(=O)c2c(cccc2)C1

>  <reagent3-name>
14148072

>  <reagent3-smiles>
[R2*]Cc1ccc(S(=O)(=O)C(C)C)cc1

$$$$
m_275030____14114032____14125180____12659436
          04022017303D 1   1.00000     0.00000     0
            
 71 76  0  0  0  0            999 V2000
   -3.0138    4.9918   -0.6904 O   0  0  0  0  0  0  0  0  0  0  0  0
   -2.0017    5.5851   -0.4384 C   0  0  0  0  0  0  0  0  0  0  0  0
   -0.8781    4.8890    0.0152 N   0  0  0  0  0  0  0  0  0  0  0  0
   -0.9789    3.4285    0.1699 C   0  0  0  0  0  0  0  0  0  0  0  0
   -0.1140    2.9157    1.3131 C   0  0  0  0  0  0  0  0  0  0  0  0
    1.2837    3.5185    1.2940 C   0  0  0  0  0  0  0  0  0  0  0  0
    2.0264    3.0056    2.5174 C   0  0  3  0  0  0  0  0  0  0  0  0
    2.1200    1.4943    2.4902 C   0  0  0  0  0  0  0  0  0  0  0  0
    3.2207    1.2161    3.4213 N   0  3  3  0  0  0  0  0  0  0  0  0
    3.7451   -0.1319    3.1570 C   0  0  0  0  0  0  0  0  0  0  0  0
    2.6373   -1.1545    3.3544 C   0  0  0  0  0  0  0  0  0  0  0  0
    1.8065   -1.5771    2.4336 N   0  0  0  0  0  0  0  0  0  0  0  0
    0.9879   -2.4530    2.9690 N   0  0  0  0  0  0  0  0  0  0  0  0
    1.2720   -2.6251    4.2899 C   0  0  0  0  0  0  0  0  0  0  0  0
    2.3249   -1.8069    4.5677 C   0  0  0  0  0  0  0  0  0  0  0  0
   -0.0860   -3.1494    2.2466 C   0  0  0  0  0  0  0  0  0  0  0  0
    0.1011   -4.6527    2.2759 C   0  0  0  0  0  0  0  0  0  0  0  0
   -0.7699   -5.1577    1.1419 C   0  0  0  0  0  0  0  0  0  0  0  0
   -0.8460   -4.0089    0.1581 C   0  0  0  0  0  0  0  0  0  0  0  0
   -0.0164   -2.8836    0.7549 C   0  0  0  0  0  0  0  0  0  0  0  0
    4.2351    2.2138    3.0607 C   0  0  0  0  0  0  0  0  0  0  0  0
    3.4945    3.3904    2.4629 C   0  0  0  0  0  0  0  0  0  0  0  0
    1.1428    5.0259    1.4514 C   0  0  0  0  0  0  0  0  0  0  0  0
    0.3433    5.6533    0.3178 C   0  0  0  0  0  0  0  0  0  0  0  0
   -1.9444    7.0251   -0.6046 C   0  0  0  0  0  0  0  0  0  0  0  0
   -1.5480    7.6488   -1.8219 C   0  0  0  0  0  0  0  0  0  0  0  0
   -1.5129    9.0382   -1.9170 C   0  0  0  0  0  0  0  0  0  0  0  0
   -1.1226    9.6336   -3.1147 C   0  0  0  0  0  0  0  0  0  0  0  0
   -0.7649    8.8773   -4.2259 C   0  0  0  0  0  0  0  0  0  0  0  0
   -0.7987    7.4893   -4.1349 C   0  0  0  0  0  0  0  0  0  0  0  0
   -1.1880    6.8970   -2.9382 C   0  0  0  0  0  0  0  0  0  0  0  0
   -1.8812    9.8089   -0.7777 C   0  0  0  0  0  0  0  0  0  0  0  0
   -1.8766   11.0312   -0.7833 O   0  0  0  0  0  0  0  0  0  0  0  0
   -2.2582    9.1747    0.3778 N   0  0  0  0  0  0  0  0  0  0  0  0
   -2.2899    7.8071    0.4667 C   0  0  0  0  0  0  0  0  0  0  0  0
    2.9301    1.3163    4.3729 H   0  0  0  0  0  0  0  0  0  0  0  0
   -0.6827    2.9925   -0.6799 H   0  0  0  0  0  0  0  0  0  0  0  0
   -1.9321    3.1882    0.3533 H   0  0  0  0  0  0  0  0  0  0  0  0
   -0.5539    3.1506    2.1798 H   0  0  0  0  0  0  0  0  0  0  0  0
   -0.0367    1.9216    1.2371 H   0  0  0  0  0  0  0  0  0  0  0  0
    1.7682    3.2852    0.4509 H   0  0  0  0  0  0  0  0  0  0  0  0
    1.5987    3.3271    3.3622 H   0  0  0  0  0  0  0  0  0  0  0  0
    1.2682    1.0756    2.8049 H   0  0  0  0  0  0  0  0  0  0  0  0
    2.3342    1.1638    1.5710 H   0  0  0  0  0  0  0  0  0  0  0  0
    4.4955   -0.3274    3.7884 H   0  0  0  0  0  0  0  0  0  0  0  0
    4.0800   -0.1808    2.2160 H   0  0  0  0  0  0  0  0  0  0  0  0
    0.8006   -3.2324    4.9295 H   0  0  0  0  0  0  0  0  0  0  0  0
    2.7826   -1.6918    5.4493 H   0  0  0  0  0  0  0  0  0  0  0  0
   -0.9819   -2.8957    2.6112 H   0  0  0  0  0  0  0  0  0  0  0  0
   -0.2013   -5.0308    3.1508 H   0  0  0  0  0  0  0  0  0  0  0  0
    1.0592   -4.8939    2.1217 H   0  0  0  0  0  0  0  0  0  0  0  0
   -1.6820   -5.3926    1.4780 H   0  0  0  0  0  0  0  0  0  0  0  0
   -0.3560   -5.9604    0.7124 H   0  0  0  0  0  0  0  0  0  0  0  0
   -0.4705   -4.2848   -0.7267 H   0  0  0  0  0  0  0  0  0  0  0  0
   -1.7947   -3.7154    0.0407 H   0  0  0  0  0  0  0  0  0  0  0  0
    0.9279   -2.9229    0.4280 H   0  0  0  0  0  0  0  0  0  0  0  0
   -0.4096   -1.9917    0.5315 H   0  0  0  0  0  0  0  0  0  0  0  0
    4.8720    1.8313    2.3914 H   0  0  0  0  0  0  0  0  0  0  0  0
    4.7399    2.5017    3.8745 H   0  0  0  0  0  0  0  0  0  0  0  0
    3.6603    4.2182    2.9989 H   0  0  0  0  0  0  0  0  0  0  0  0
    3.7824    3.5424    1.5173 H   0  0  0  0  0  0  0  0  0  0  0  0
    2.0555    5.4344    1.4656 H   0  0  0  0  0  0  0  0  0  0  0  0
    0.6787    5.2169    2.3163 H   0  0  0  0  0  0  0  0  0  0  0  0
    0.0855    6.5831    0.5807 H   0  0  0  0  0  0  0  0  0  0  0  0
    0.9155    5.6852   -0.5017 H   0  0  0  0  0  0  0  0  0  0  0  0
   -1.0991   10.6314   -3.1771 H   0  0  0  0  0  0  0  0  0  0  0  0
   -0.4877    9.3240   -5.0766 H   0  0  0  0  0  0  0  0  0  0  0  0
   -0.5463    6.9245   -4.9205 H   0  0  0  0  0  0  0  0  0  0  0  0
   -1.2103    5.8991   -2.8771 H   0  0  0  0  0  0  0  0  0  0  0  0
   -2.5160    9.7222    1.1739 H   0  0  0  0  0  0  0  0  0  0  0  0
   -2.5686    7.3745    1.3241 H   0  0  0  0  0  0  0  0  0  0  0  0
  1  2  2  0  0  0  0
  2  3  1  0  0  0  0
  3  4  1  0  0  0  0
  4  5  1  0  0  0  0
  5  6  1  0  0  0  0
  6  7  1  0  0  0  0
  7  8  1  0  0  0  0
  8  9  1  0  0  0  0
  9 10  1  0  0  0  0
 10 11  1  0  0  0  0
 11 12  2  0  0  0  0
 12 13  1  0  0  0  0
 13 14  1  0  0  0  0
 14 15  2  0  0  0  0
 15 11  1  0  0  0  0
 13 16  1  0  0  0  0
 16 17  1  0  0  0  0
 17 18  1  0  0  0  0
 18 19  1  0  0  0  0
 19 20  1  0  0  0  0
 20 16  1  0  0  0  0
  9 21  1  0  0  0  0
 21 22  1  0  0  0  0
 22  7  1  0  0  0  0
  6 23  1  0  0  0  0
 23 24  1  0  0  0  0
 24  3  1  0  0  0  0
  2 25  1  0  0  0  0
 25 26  1  0  0  0  0
 26 27  1  0  0  0  0
 27 28  2  0  0  0  0
 28 29  1  0  0  0  0
 29 30  2  0  0  0  0
 30 31  1  0  0  0  0
 31 26  2  0  0  0  0
 27 32  1  0  0  0  0
 32 33  2  0  0  0  0
 32 34  1  0  0  0  0
 34 35  1  0  0  0  0
 25 35  2  0  0  0  0
  9 36  1  0  0  0  0
  4 37  1  0  0  0  0
  4 38  1  0  0  0  0
  5 39  1  0  0  0  0
  5 40  1  0  0  0  0
  6 41  1  0  0  0  0
  7 42  1  0  0  0  0
  8 43  1  0  0  0  0
  8 44  1  0  0  0  0
 10 45  1  0  0  0  0
 10 46  1  0  0  0  0
 14 47  1  0  0  0  0
 15 48  1  0  0  0  0
 16 49  1  0  0  0  0
 17 50  1  0  0  0  0
 17 51  1  0  0  0  0
 18 52  1  0  0  0  0
 18 53  1  0  0  0  0
 19 54  1  0  0  0  0
 19 55  1  0  0  0  0
 20 56  1  0  0  0  0
 20 57  1  0  0  0  0
 21 58  1  0  0  0  0
 21 59  1  0  0  0  0
 22 60  1  0  0  0  0
 22 61  1  0  0  0  0
 23 62  1  0  0  0  0
 23 63  1  0  0  0  0
 24 64  1  0  0  0  0
 24 65  1  0  0  0  0
 28 66  1  0  0  0  0
 29 67  1  0  0  0  0
 30 68  1  0  0  0  0
 31 69  1  0  0  0  0
 34 70  1  0  0  0  0
 35 71  1  0  0  0  0
M  CHG  1   9   1
M  END
>  <result-rank>
27

>  <similarity>
0.903

>  <query-name>


>  <query-smiles>
S1c2c(cccc2)C(C(=O)N3CCC([N@H+]4CC5(C(=O)N6N(C5=O)CCCC6)CCC4)CC3)=C1NC(=O)NC

>  <source>
REALspace_2019-12

>  <similarity-descriptor>
0.999;0.940;1.000;0.627;0.936;0.911;1.000;0.940;0.940;0.0;0.0;0.0

>  <similarity-descriptor-smiles>
N1CCCCC1;C1=CNC(cc1)=O;c1ccccc1;C=1C=CNN1;C1CC[NH+](C1)C;C1CCCC1;O=C;C1=CNC(cc1)=O;C1=CNC(cc1)=O;;;

>  <reaction-name>
m_275030

>  <reagent1-name>
14114032

>  <reagent1-smiles>
[R2*]N1CC(C2CCN([R1*])CC2)CC1

>  <reagent2-name>
14125180

>  <reagent2-smiles>
[R1*]C(=O)C=1c2c(cccc2)C(=O)NC1

>  <reagent3-name>
12659436

>  <reagent3-smiles>
[R2*]CC1=NN(C=C1)C2CCCC2

$$$$
m_275030____14114236____14126114____14148682
          04022017303D 1   1.00000     0.00000     0
            
 69 73  0  0  0  0            999 V2000
   -2.8052    3.2850    1.0943 O   0  0  0  0  0  0  0  0  0  0  0  0
   -2.2120    3.3201    0.0518 C   0  0  0  0  0  0  0  0  0  0  0  0
   -0.8239    3.1462    0.0305 N   0  0  0  0  0  0  0  0  0  0  0  0
   -0.1168    2.9217    1.3024 C   0  0  0  0  0  0  0  0  0  0  0  0
    1.2837    3.5185    1.2939 C   0  0  3  0  0  0  0  0  0  0  0  0
    2.0264    3.0056    2.5174 C   0  0  3  0  0  0  0  0  0  0  0  0
    2.1200    1.4943    2.4902 C   0  0  0  0  0  0  0  0  0  0  0  0
    3.2207    1.2161    3.4213 N   0  3  3  0  0  0  0  0  0  0  0  0
    3.7451   -0.1319    3.1570 C   0  0  0  0  0  0  0  0  0  0  0  0
    4.7553   -0.5018    4.2300 C   0  0  0  0  0  0  0  0  0  0  0  0
    4.5676   -0.4014    5.5758 N   0  0  0  0  0  0  0  0  0  0  0  0
    5.6259   -0.7968    6.1411 N   0  0  0  0  0  0  0  0  0  0  0  0
    6.5235   -1.1612    5.2589 N   0  0  0  0  0  0  0  0  0  0  0  0
    6.0060   -0.9882    4.0142 C   0  0  0  0  0  0  0  0  0  0  0  0
    7.8683   -1.6706    5.5645 C   0  0  0  0  0  0  0  0  0  0  0  0
    8.3121   -2.6210    4.4643 C   0  0  0  0  0  0  0  0  0  0  0  0
    8.8427   -0.5075    5.6529 C   0  0  0  0  0  0  0  0  0  0  0  0
    7.8403   -2.4102    6.8921 C   0  0  0  0  0  0  0  0  0  0  0  0
    4.2351    2.2138    3.0607 C   0  0  0  0  0  0  0  0  0  0  0  0
    3.4945    3.3904    2.4629 C   0  0  0  0  0  0  0  0  0  0  0  0
    2.0476    3.1798    0.0216 C   0  0  0  0  0  0  0  0  0  0  0  0
    1.2704    3.7787   -1.1433 C   0  0  0  0  0  0  0  0  0  0  0  0
   -0.1322    3.1995   -1.2683 C   0  0  0  0  0  0  0  0  0  0  0  0
   -2.9326    3.5425   -1.1838 C   0  0  0  0  0  0  0  0  0  0  0  0
   -2.6433    4.6265   -1.9717 N   0  0  0  0  0  0  0  0  0  0  0  0
   -3.3166    4.8527   -3.1441 C   0  0  0  0  0  0  0  0  0  0  0  0
   -4.3138    3.9717   -3.5534 C   0  0  0  0  0  0  0  0  0  0  0  0
   -4.9843    4.2212   -4.7481 C   0  0  0  0  0  0  0  0  0  0  0  0
   -4.6819    5.3241   -5.5385 C   0  0  0  0  0  0  0  0  0  0  0  0
   -3.6822    6.1917   -5.1131 C   0  0  0  0  0  0  0  0  0  0  0  0
   -3.0003    5.9611   -3.9233 C   0  0  0  0  0  0  0  0  0  0  0  0
   -4.6178    2.8448   -2.7389 C   0  0  0  0  0  0  0  0  0  0  0  0
   -5.4811    2.0332   -3.0375 O   0  0  0  0  0  0  0  0  0  0  0  0
   -3.9024    2.6387   -1.5297 C   0  0  0  0  0  0  0  0  0  0  0  0
    2.9301    1.3163    4.3729 H   0  0  0  0  0  0  0  0  0  0  0  0
   -0.0465    1.9371    1.4625 H   0  0  0  0  0  0  0  0  0  0  0  0
   -0.6421    3.3429    2.0418 H   0  0  0  0  0  0  0  0  0  0  0  0
    1.2059    4.5131    1.3629 H   0  0  0  0  0  0  0  0  0  0  0  0
    1.5987    3.3271    3.3622 H   0  0  0  0  0  0  0  0  0  0  0  0
    1.2682    1.0756    2.8049 H   0  0  0  0  0  0  0  0  0  0  0  0
    2.3342    1.1638    1.5710 H   0  0  0  0  0  0  0  0  0  0  0  0
    4.1896   -0.1470    2.2613 H   0  0  0  0  0  0  0  0  0  0  0  0
    2.9925   -0.7902    3.1667 H   0  0  0  0  0  0  0  0  0  0  0  0
    6.4466   -1.1765    3.1365 H   0  0  0  0  0  0  0  0  0  0  0  0
    9.2269   -2.9675    4.6722 H   0  0  0  0  0  0  0  0  0  0  0  0
    7.6710   -3.3862    4.4062 H   0  0  0  0  0  0  0  0  0  0  0  0
    8.3305   -2.1344    3.5909 H   0  0  0  0  0  0  0  0  0  0  0  0
    9.7575   -0.8540    5.8607 H   0  0  0  0  0  0  0  0  0  0  0  0
    8.8611   -0.0209    4.7794 H   0  0  0  0  0  0  0  0  0  0  0  0
    8.5507    0.1178    6.3766 H   0  0  0  0  0  0  0  0  0  0  0  0
    8.7550   -2.7568    7.1000 H   0  0  0  0  0  0  0  0  0  0  0  0
    7.5483   -1.7850    7.6159 H   0  0  0  0  0  0  0  0  0  0  0  0
    7.1992   -3.1755    6.8339 H   0  0  0  0  0  0  0  0  0  0  0  0
    4.8720    1.8313    2.3914 H   0  0  0  0  0  0  0  0  0  0  0  0
    4.7399    2.5017    3.8745 H   0  0  0  0  0  0  0  0  0  0  0  0
    3.6603    4.2182    2.9989 H   0  0  0  0  0  0  0  0  0  0  0  0
    3.7824    3.5424    1.5173 H   0  0  0  0  0  0  0  0  0  0  0  0
    2.1135    2.1876   -0.0845 H   0  0  0  0  0  0  0  0  0  0  0  0
    2.9663    3.5729    0.0587 H   0  0  0  0  0  0  0  0  0  0  0  0
    1.1983    4.7666   -1.0065 H   0  0  0  0  0  0  0  0  0  0  0  0
    1.7698    3.5950   -1.9900 H   0  0  0  0  0  0  0  0  0  0  0  0
   -0.6631    3.7712   -1.8938 H   0  0  0  0  0  0  0  0  0  0  0  0
   -0.0671    2.2726   -1.6379 H   0  0  0  0  0  0  0  0  0  0  0  0
   -1.9278    5.2640   -1.6858 H   0  0  0  0  0  0  0  0  0  0  0  0
   -5.7017    3.5909   -5.0451 H   0  0  0  0  0  0  0  0  0  0  0  0
   -5.1725    5.4898   -6.3939 H   0  0  0  0  0  0  0  0  0  0  0  0
   -3.4510    6.9903   -5.6689 H   0  0  0  0  0  0  0  0  0  0  0  0
   -2.2827    6.5918   -3.6278 H   0  0  0  0  0  0  0  0  0  0  0  0
   -4.1017    1.8527   -0.9446 H   0  0  0  0  0  0  0  0  0  0  0  0
  1  2  2  0  0  0  0
  2  3  1  0  0  0  0
  3  4  1  0  0  0  0
  4  5  1  0  0  0  0
  5  6  1  0  0  0  0
  6  7  1  0  0  0  0
  7  8  1  0  0  0  0
  8  9  1  0  0  0  0
  9 10  1  0  0  0  0
 10 11  1  0  0  0  0
 11 12  2  0  0  0  0
 12 13  1  0  0  0  0
 13 14  1  0  0  0  0
 10 14  2  0  0  0  0
 13 15  1  0  0  0  0
 15 16  1  0  0  0  0
 15 17  1  0  0  0  0
 15 18  1  0  0  0  0
  8 19  1  0  0  0  0
 19 20  1  0  0  0  0
 20  6  1  0  0  0  0
  5 21  1  0  0  0  0
 21 22  1  0  0  0  0
 22 23  1  0  0  0  0
 23  3  1  0  0  0  0
  2 24  1  0  0  0  0
 24 25  1  0  0  0  0
 25 26  1  0  0  0  0
 26 27  1  0  0  0  0
 27 28  2  0  0  0  0
 28 29  1  0  0  0  0
 29 30  2  0  0  0  0
 30 31  1  0  0  0  0
 31 26  2  0  0  0  0
 27 32  1  0  0  0  0
 32 33  2  0  0  0  0
 32 34  1  0  0  0  0
 24 34  2  0  0  0  0
  8 35  1  0  0  0  0
  4 36  1  0  0  0  0
  4 37  1  0  0  0  0
  5 38  1  0  0  0  0
  6 39  1  0  0  0  0
  7 40  1  0  0  0  0
  7 41  1  0  0  0  0
  9 42  1  0  0  0  0
  9 43  1  0  0  0  0
 14 44  1  0  0  0  0
 16 45  1  0  0  0  0
 16 46  1  0  0  0  0
 16 47  1  0  0  0  0
 17 48  1  0  0  0  0
 17 49  1  0  0  0  0
 17 50  1  0  0  0  0
 18 51  1  0  0  0  0
 18 52  1  0  0  0  0
 18 53  1  0  0  0  0
 19 54  1  0  0  0  0
 19 55  1  0  0  0  0
 20 56  1  0  0  0  0
 20 57  1  0  0  0  0
 21 58  1  0  0  0  0
 21 59  1  0  0  0  0
 22 60  1  0  0  0  0
 22 61  1  0  0  0  0
 23 62  1  0  0  0  0
 23 63  1  0  0  0  0
 25 64  1  0  0  0  0
 28 65  1  0  0  0  0
 29 66  1  0  0  0  0
 30 67  1  0  0  0  0
 31 68  1  0  0  0  0
 34 69  1  0  0  0  0
M  CHG  1   8   1
M  END
>  <result-rank>
28

>  <similarity>
0.903

>  <query-name>


>  <query-smiles>
S1c2c(cccc2)C(C(=O)N3CCC([N@H+]4CC5(C(=O)N6N(C5=O)CCCC6)CCC4)CC3)=C1NC(=O)NC

>  <source>
REALspace_2019-12

>  <similarity-descriptor>
0.999;0.935;0.999;0.732;0.936;0.796;1.000;0.935;0.935;0.0;0.0;0.0

>  <similarity-descriptor-smiles>
N1CCCCC1;C1=CC(ccN1)=O;c1ccccc1;C1=CNN=N1;C1CC[NH+](C1)C;C(C)(C)C;O=C;C1=CC(ccN1)=O;C1=CC(ccN1)=O;;;

>  <reaction-name>
m_275030

>  <reagent1-name>
14114236

>  <reagent1-smiles>
[R2*]N1CC(C2CN([R1*])CCC2)CC1

>  <reagent2-name>
14126114

>  <reagent2-smiles>
[R1*]C(=O)C=1Nc2c(cccc2)C(=O)C1

>  <reagent3-name>
14148682

>  <reagent3-smiles>
[R2*]CC=1N=NN(C1)C(C)(C)C

$$$$
m_275030____14114218____14127584____14147198
          04022017303D 1   1.00000     0.00000     0
            
 74 79  0  0  0  0            999 V2000
   -2.1868   -3.8155   10.7500 F   0  0  0  0  0  0  0  0  0  0  0  0
   -1.0967   -4.0293   10.0136 C   0  0  0  0  0  0  0  0  0  0  0  0
   -1.0081   -3.6136    8.6865 C   0  0  0  0  0  0  0  0  0  0  0  0
    0.1273   -3.8381    7.9106 C   0  0  0  0  0  0  0  0  0  0  0  0
    1.1787   -4.4976    8.4983 C   0  0  0  0  0  0  0  0  0  0  0  0
    2.1722   -4.6199    7.5737 N   0  0  0  0  0  0  0  0  0  0  0  0
    1.7919   -4.0558    6.3933 C   0  0  0  0  0  0  0  0  0  0  0  0
    0.5344   -3.5699    6.5836 C   0  0  0  0  0  0  0  0  0  0  0  0
   -0.2953   -2.8524    5.5297 C   0  0  0  0  0  0  0  0  0  0  0  0
   -0.2167   -1.3517    5.7580 C   0  0  0  0  0  0  0  0  0  0  0  0
   -0.8973   -0.8367    6.6014 O   0  0  0  0  0  0  0  0  0  0  0  0
    0.6494   -0.5709    4.9848 N   0  0  0  0  0  0  0  0  0  0  0  0
    0.6969    0.8786    5.2362 C   0  0  0  0  0  0  0  0  0  0  0  0
    2.1353    1.3607    5.0831 C   0  0  0  0  0  0  0  0  0  0  0  0
    2.7954    0.9440    3.7731 C   0  0  0  0  0  0  0  0  0  0  0  0
    4.1972    1.5285    3.7120 C   0  0  0  0  0  0  0  0  0  0  0  0
    4.2117    3.0499    3.6427 C   0  0  0  0  0  0  0  0  0  0  0  0
    3.4150    3.5527    2.5118 N   0  3  0  0  0  0  0  0  0  0  0  0
    3.3966    5.0220    2.5085 C   0  0  0  0  0  0  0  0  0  0  0  0
    2.5689    5.5157    1.3331 C   0  0  0  0  0  0  0  0  0  0  0  0
    2.5505    6.9852    1.3298 N   0  0  0  0  0  0  0  0  0  0  0  0
    3.4797    7.7899    0.6709 C   0  0  0  0  0  0  0  0  0  0  0  0
    4.4257    7.3793    0.0157 O   0  0  0  0  0  0  0  0  0  0  0  0
    3.1688    9.1363    0.8631 N   0  0  0  0  0  0  0  0  0  0  0  0
    1.9727    9.1964    1.7102 C   0  0  0  0  0  0  0  0  0  0  0  0
    1.5974    7.7580    1.9930 C   0  0  0  0  0  0  0  0  0  0  0  0
    0.6527    7.3523    2.6604 O   0  0  0  0  0  0  0  0  0  0  0  0
    0.7871    9.9817    1.1891 C   0  0  0  0  0  0  0  0  0  0  0  0
    1.2071   11.4309    1.3297 C   0  0  0  0  0  0  0  0  0  0  0  0
    2.0451   11.4317    2.5912 C   0  0  0  0  0  0  0  0  0  0  0  0
    2.1461    9.9744    2.9947 C   0  0  0  0  0  0  0  0  0  0  0  0
    2.0514    3.0008    2.4747 C   0  0  0  0  0  0  0  0  0  0  0  0
    2.1111    1.4801    2.5222 C   0  0  0  0  0  0  0  0  0  0  0  0
    2.8470   -0.5787    3.7947 C   0  0  0  0  0  0  0  0  0  0  0  0
    1.4816   -1.2387    3.9675 C   0  0  0  0  0  0  0  0  0  0  0  0
    1.1221   -4.9214    9.8221 C   0  0  0  0  0  0  0  0  0  0  0  0
   -0.0148   -4.6893   10.5877 C   0  0  0  0  0  0  0  0  0  0  0  0
    3.8750    3.2608    1.6732 H   0  0  0  0  0  0  0  0  0  0  0  0
   -1.7863   -3.1378    8.2768 H   0  0  0  0  0  0  0  0  0  0  0  0
    3.0546   -5.0607    7.7381 H   0  0  0  0  0  0  0  0  0  0  0  0
    2.3306   -4.0080    5.5522 H   0  0  0  0  0  0  0  0  0  0  0  0
    0.0598   -3.0703    4.6206 H   0  0  0  0  0  0  0  0  0  0  0  0
   -1.2477   -3.1501    5.5957 H   0  0  0  0  0  0  0  0  0  0  0  0
    0.3762    1.0688    6.1640 H   0  0  0  0  0  0  0  0  0  0  0  0
    0.1123    1.3526    4.5777 H   0  0  0  0  0  0  0  0  0  0  0  0
    2.1387    2.3595    5.1327 H   0  0  0  0  0  0  0  0  0  0  0  0
    2.6737    0.9876    5.8387 H   0  0  0  0  0  0  0  0  0  0  0  0
    4.6560    1.1691    2.8994 H   0  0  0  0  0  0  0  0  0  0  0  0
    4.6963    1.2430    4.5302 H   0  0  0  0  0  0  0  0  0  0  0  0
    3.8341    3.4163    4.4930 H   0  0  0  0  0  0  0  0  0  0  0  0
    5.1564    3.3601    3.5365 H   0  0  0  0  0  0  0  0  0  0  0  0
    4.3317    5.3669    2.4259 H   0  0  0  0  0  0  0  0  0  0  0  0
    2.9937    5.3523    3.3620 H   0  0  0  0  0  0  0  0  0  0  0  0
    2.9718    5.1855    0.4795 H   0  0  0  0  0  0  0  0  0  0  0  0
    1.6339    5.1709    1.4157 H   0  0  0  0  0  0  0  0  0  0  0  0
    3.6699    9.9178    0.4913 H   0  0  0  0  0  0  0  0  0  0  0  0
   -0.0293    9.7949    1.7355 H   0  0  0  0  0  0  0  0  0  0  0  0
    0.6062    9.7566    0.2317 H   0  0  0  0  0  0  0  0  0  0  0  0
    0.4101   12.0265    1.4290 H   0  0  0  0  0  0  0  0  0  0  0  0
    1.7470   11.7252    0.5411 H   0  0  0  0  0  0  0  0  0  0  0  0
    2.9528   11.8101    2.4101 H   0  0  0  0  0  0  0  0  0  0  0  0
    1.5987   11.9653    3.3095 H   0  0  0  0  0  0  0  0  0  0  0  0
    3.0393    9.7842    3.4024 H   0  0  0  0  0  0  0  0  0  0  0  0
    1.4253    9.7401    3.6470 H   0  0  0  0  0  0  0  0  0  0  0  0
    1.5990    3.2894    1.6309 H   0  0  0  0  0  0  0  0  0  0  0  0
    1.5350    3.3379    3.2619 H   0  0  0  0  0  0  0  0  0  0  0  0
    1.1769    1.1246    2.4940 H   0  0  0  0  0  0  0  0  0  0  0  0
    2.6151    1.1569    1.7212 H   0  0  0  0  0  0  0  0  0  0  0  0
    3.4332   -0.8637    4.5530 H   0  0  0  0  0  0  0  0  0  0  0  0
    3.2422   -0.8931    2.9315 H   0  0  0  0  0  0  0  0  0  0  0  0
    0.9998   -1.2104    3.0917 H   0  0  0  0  0  0  0  0  0  0  0  0
    1.6192   -2.1905    4.2417 H   0  0  0  0  0  0  0  0  0  0  0  0
    1.9043   -5.3961   10.2256 H   0  0  0  0  0  0  0  0  0  0  0  0
   -0.0545   -4.9931   11.5396 H   0  0  0  0  0  0  0  0  0  0  0  0
  1  2  1  0  0  0  0
  2  3  1  0  0  0  0
  3  4  2  0  0  0  0
  4  5  1  0  0  0  0
  5  6  1  0  0  0  0
  6  7  1  0  0  0  0
  7  8  2  0  0  0  0
  8  4  1  0  0  0  0
  8  9  1  0  0  0  0
  9 10  1  0  0  0  0
 10 11  2  0  0  0  0
 10 12  1  0  0  0  0
 12 13  1  0  0  0  0
 13 14  1  0  0  0  0
 14 15  1  0  0  0  0
 15 16  1  0  0  0  0
 16 17  1  0  0  0  0
 17 18  1  0  0  0  0
 18 19  1  0  0  0  0
 19 20  1  0  0  0  0
 20 21  1  0  0  0  0
 21 22  1  0  0  0  0
 22 23  2  0  0  0  0
 22 24  1  0  0  0  0
 24 25  1  0  0  0  0
 25 26  1  0  0  0  0
 26 21  1  0  0  0  0
 26 27  2  0  0  0  0
 25 28  1  0  0  0  0
 28 29  1  0  0  0  0
 29 30  1  0  0  0  0
 30 31  1  0  0  0  0
 31 25  1  0  0  0  0
 18 32  1  0  0  0  0
 32 33  1  0  0  0  0
 33 15  1  0  0  0  0
 15 34  1  0  0  0  0
 34 35  1  0  0  0  0
 35 12  1  0  0  0  0
  5 36  2  0  0  0  0
 36 37  1  0  0  0  0
 37  2  2  0  0  0  0
 18 38  1  0  0  0  0
  3 39  1  0  0  0  0
  6 40  1  0  0  0  0
  7 41  1  0  0  0  0
  9 42  1  0  0  0  0
  9 43  1  0  0  0  0
 13 44  1  0  0  0  0
 13 45  1  0  0  0  0
 14 46  1  0  0  0  0
 14 47  1  0  0  0  0
 16 48  1  0  0  0  0
 16 49  1  0  0  0  0
 17 50  1  0  0  0  0
 17 51  1  0  0  0  0
 19 52  1  0  0  0  0
 19 53  1  0  0  0  0
 20 54  1  0  0  0  0
 20 55  1  0  0  0  0
 24 56  1  0  0  0  0
 28 57  1  0  0  0  0
 28 58  1  0  0  0  0
 29 59  1  0  0  0  0
 29 60  1  0  0  0  0
 30 61  1  0  0  0  0
 30 62  1  0  0  0  0
 31 63  1  0  0  0  0
 31 64  1  0  0  0  0
 32 65  1  0  0  0  0
 32 66  1  0  0  0  0
 33 67  1  0  0  0  0
 33 68  1  0  0  0  0
 34 69  1  0  0  0  0
 34 70  1  0  0  0  0
 35 71  1  0  0  0  0
 35 72  1  0  0  0  0
 36 73  1  0  0  0  0
 37 74  1  0  0  0  0
M  CHG  1  18   1
M  END
>  <result-rank>
29

>  <similarity>
0.903

>  <query-name>


>  <query-smiles>
S1c2c(cccc2)C(C(=O)N3CCC([N@H+]4CC5(C(=O)N6N(C5=O)CCCC6)CCC4)CC3)=C1NC(=O)NC

>  <source>
REALspace_2019-12

>  <similarity-descriptor>
0.905;0.899;0.963;0.809;1.000;0.994;0.860;0.899;0.0;0.0;0.0;0.0

>  <similarity-descriptor-smiles>
N1CCCCC1;c1C=CNc1;Fc1ccccc1;CCN1C(CNC1=O)=O;C1CC[NH+]CC1;C1CCCC1;CC=O;c1C=CNc1;;;;

>  <reaction-name>
m_275030

>  <reagent1-name>
14114218

>  <reagent1-smiles>
[R1*]N1CCC2(CC1)CCN([R2*])CC2

>  <reagent2-name>
14127584

>  <reagent2-smiles>
[R1*]C(=O)CC=1c2c(NC1)ccc(F)c2

>  <reagent3-name>
14147198

>  <reagent3-smiles>
[R2*]CCN1C(=O)NC2(C1=O)CCCC2

$$$$
m_275030____14114218____14124522____14147198
          04022017303D 1   1.00000     0.00000     0
            
 76 81  0  0  0  0            999 V2000
    4.4257    7.3793    0.0157 O   0  0  0  0  0  0  0  0  0  0  0  0
    3.4797    7.7899    0.6709 C   0  0  0  0  0  0  0  0  0  0  0  0
    2.5505    6.9852    1.3298 N   0  0  0  0  0  0  0  0  0  0  0  0
    1.5974    7.7580    1.9930 C   0  0  0  0  0  0  0  0  0  0  0  0
    0.6527    7.3523    2.6604 O   0  0  0  0  0  0  0  0  0  0  0  0
    1.9727    9.1964    1.7102 C   0  0  0  0  0  0  0  0  0  0  0  0
    3.1688    9.1363    0.8631 N   0  0  0  0  0  0  0  0  0  0  0  0
    0.7871    9.9817    1.1891 C   0  0  0  0  0  0  0  0  0  0  0  0
    1.2071   11.4309    1.3297 C   0  0  0  0  0  0  0  0  0  0  0  0
    2.0451   11.4317    2.5912 C   0  0  0  0  0  0  0  0  0  0  0  0
    2.1461    9.9744    2.9947 C   0  0  0  0  0  0  0  0  0  0  0  0
    2.5689    5.5157    1.3331 C   0  0  0  0  0  0  0  0  0  0  0  0
    3.3966    5.0220    2.5085 C   0  0  0  0  0  0  0  0  0  0  0  0
    3.4150    3.5527    2.5118 N   0  3  0  0  0  0  0  0  0  0  0  0
    4.2117    3.0499    3.6427 C   0  0  0  0  0  0  0  0  0  0  0  0
    4.1972    1.5285    3.7120 C   0  0  0  0  0  0  0  0  0  0  0  0
    2.7954    0.9440    3.7731 C   0  0  0  0  0  0  0  0  0  0  0  0
    2.1111    1.4801    2.5222 C   0  0  0  0  0  0  0  0  0  0  0  0
    2.0514    3.0008    2.4747 C   0  0  0  0  0  0  0  0  0  0  0  0
    2.1353    1.3607    5.0831 C   0  0  0  0  0  0  0  0  0  0  0  0
    0.6969    0.8786    5.2362 C   0  0  0  0  0  0  0  0  0  0  0  0
    0.6494   -0.5709    4.9848 N   0  0  0  0  0  0  0  0  0  0  0  0
   -0.2167   -1.3517    5.7580 C   0  0  0  0  0  0  0  0  0  0  0  0
   -0.9777   -0.8258    6.5223 O   0  0  0  0  0  0  0  0  0  0  0  0
   -0.1946   -2.7982    5.6356 C   0  0  0  0  0  0  0  0  0  0  0  0
   -1.0003   -3.4673    4.7194 C   0  0  0  0  0  0  0  0  0  0  0  0
   -0.9679   -4.8049    4.6217 N   0  0  0  0  0  0  0  0  0  0  0  0
   -0.1632   -5.5474    5.3976 C   0  0  0  0  0  0  0  0  0  0  0  0
   -0.1273   -6.9929    5.2906 C   0  0  0  0  0  0  0  0  0  0  0  0
    0.2368   -7.7568    6.3947 C   0  0  0  0  0  0  0  0  0  0  0  0
    0.2708   -9.1433    6.2874 C   0  0  0  0  0  0  0  0  0  0  0  0
   -0.0590   -9.7560    5.0830 C   0  0  0  0  0  0  0  0  0  0  0  0
   -0.4216   -8.9829    3.9870 C   0  0  0  0  0  0  0  0  0  0  0  0
   -0.4589   -7.5956    4.0813 C   0  0  0  0  0  0  0  0  0  0  0  0
    0.6660   -4.9377    6.3336 C   0  0  0  0  0  0  0  0  0  0  0  0
    0.6462   -3.5517    6.4485 C   0  0  0  0  0  0  0  0  0  0  0  0
    1.4816   -1.2387    3.9675 C   0  0  0  0  0  0  0  0  0  0  0  0
    2.8470   -0.5787    3.7947 C   0  0  0  0  0  0  0  0  0  0  0  0
    3.8750    3.2608    1.6732 H   0  0  0  0  0  0  0  0  0  0  0  0
    3.6699    9.9178    0.4913 H   0  0  0  0  0  0  0  0  0  0  0  0
   -0.0293    9.7949    1.7355 H   0  0  0  0  0  0  0  0  0  0  0  0
    0.6062    9.7566    0.2317 H   0  0  0  0  0  0  0  0  0  0  0  0
    0.4101   12.0265    1.4290 H   0  0  0  0  0  0  0  0  0  0  0  0
    1.7470   11.7252    0.5411 H   0  0  0  0  0  0  0  0  0  0  0  0
    2.9528   11.8101    2.4101 H   0  0  0  0  0  0  0  0  0  0  0  0
    1.5987   11.9653    3.3095 H   0  0  0  0  0  0  0  0  0  0  0  0
    3.0393    9.7842    3.4024 H   0  0  0  0  0  0  0  0  0  0  0  0
    1.4253    9.7401    3.6470 H   0  0  0  0  0  0  0  0  0  0  0  0
    2.9718    5.1855    0.4795 H   0  0  0  0  0  0  0  0  0  0  0  0
    1.6339    5.1709    1.4157 H   0  0  0  0  0  0  0  0  0  0  0  0
    4.3317    5.3669    2.4259 H   0  0  0  0  0  0  0  0  0  0  0  0
    2.9937    5.3523    3.3620 H   0  0  0  0  0  0  0  0  0  0  0  0
    3.8341    3.4163    4.4930 H   0  0  0  0  0  0  0  0  0  0  0  0
    5.1564    3.3601    3.5365 H   0  0  0  0  0  0  0  0  0  0  0  0
    4.6560    1.1691    2.8994 H   0  0  0  0  0  0  0  0  0  0  0  0
    4.6963    1.2430    4.5302 H   0  0  0  0  0  0  0  0  0  0  0  0
    1.1769    1.1246    2.4940 H   0  0  0  0  0  0  0  0  0  0  0  0
    2.6151    1.1569    1.7212 H   0  0  0  0  0  0  0  0  0  0  0  0
    1.5990    3.2894    1.6309 H   0  0  0  0  0  0  0  0  0  0  0  0
    1.5350    3.3379    3.2619 H   0  0  0  0  0  0  0  0  0  0  0  0
    2.1387    2.3595    5.1327 H   0  0  0  0  0  0  0  0  0  0  0  0
    2.6737    0.9876    5.8387 H   0  0  0  0  0  0  0  0  0  0  0  0
    0.3762    1.0688    6.1640 H   0  0  0  0  0  0  0  0  0  0  0  0
    0.1123    1.3526    4.5777 H   0  0  0  0  0  0  0  0  0  0  0  0
   -1.6117   -2.9441    4.1258 H   0  0  0  0  0  0  0  0  0  0  0  0
    0.4723   -7.3125    7.2591 H   0  0  0  0  0  0  0  0  0  0  0  0
    0.5324   -9.6995    7.0762 H   0  0  0  0  0  0  0  0  0  0  0  0
   -0.0351  -10.7528    5.0060 H   0  0  0  0  0  0  0  0  0  0  0  0
   -0.6578   -9.4276    3.1230 H   0  0  0  0  0  0  0  0  0  0  0  0
   -0.7200   -7.0399    3.2919 H   0  0  0  0  0  0  0  0  0  0  0  0
    1.2667   -5.4870    6.9144 H   0  0  0  0  0  0  0  0  0  0  0  0
    1.2363   -3.0968    7.1155 H   0  0  0  0  0  0  0  0  0  0  0  0
    0.9998   -1.2104    3.0917 H   0  0  0  0  0  0  0  0  0  0  0  0
    1.6192   -2.1905    4.2417 H   0  0  0  0  0  0  0  0  0  0  0  0
    3.4332   -0.8637    4.5530 H   0  0  0  0  0  0  0  0  0  0  0  0
    3.2422   -0.8931    2.9315 H   0  0  0  0  0  0  0  0  0  0  0  0
  1  2  2  0  0  0  0
  2  3  1  0  0  0  0
  3  4  1  0  0  0  0
  4  5  2  0  0  0  0
  4  6  1  0  0  0  0
  6  7  1  0  0  0  0
  7  2  1  0  0  0  0
  6  8  1  0  0  0  0
  8  9  1  0  0  0  0
  9 10  1  0  0  0  0
 10 11  1  0  0  0  0
 11  6  1  0  0  0  0
  3 12  1  0  0  0  0
 12 13  1  0  0  0  0
 13 14  1  0  0  0  0
 14 15  1  0  0  0  0
 15 16  1  0  0  0  0
 16 17  1  0  0  0  0
 17 18  1  0  0  0  0
 18 19  1  0  0  0  0
 19 14  1  0  0  0  0
 17 20  1  0  0  0  0
 20 21  1  0  0  0  0
 21 22  1  0  0  0  0
 22 23  1  0  0  0  0
 23 24  2  0  0  0  0
 23 25  1  0  0  0  0
 25 26  1  0  0  0  0
 26 27  2  0  0  0  0
 27 28  1  0  0  0  0
 28 29  1  0  0  0  0
 29 30  1  0  0  0  0
 30 31  2  0  0  0  0
 31 32  1  0  0  0  0
 32 33  2  0  0  0  0
 33 34  1  0  0  0  0
 34 29  2  0  0  0  0
 28 35  2  0  0  0  0
 35 36  1  0  0  0  0
 36 25  2  0  0  0  0
 22 37  1  0  0  0  0
 37 38  1  0  0  0  0
 38 17  1  0  0  0  0
 14 39  1  0  0  0  0
  7 40  1  0  0  0  0
  8 41  1  0  0  0  0
  8 42  1  0  0  0  0
  9 43  1  0  0  0  0
  9 44  1  0  0  0  0
 10 45  1  0  0  0  0
 10 46  1  0  0  0  0
 11 47  1  0  0  0  0
 11 48  1  0  0  0  0
 12 49  1  0  0  0  0
 12 50  1  0  0  0  0
 13 51  1  0  0  0  0
 13 52  1  0  0  0  0
 15 53  1  0  0  0  0
 15 54  1  0  0  0  0
 16 55  1  0  0  0  0
 16 56  1  0  0  0  0
 18 57  1  0  0  0  0
 18 58  1  0  0  0  0
 19 59  1  0  0  0  0
 19 60  1  0  0  0  0
 20 61  1  0  0  0  0
 20 62  1  0  0  0  0
 21 63  1  0  0  0  0
 21 64  1  0  0  0  0
 26 65  1  0  0  0  0
 30 66  1  0  0  0  0
 31 67  1  0  0  0  0
 32 68  1  0  0  0  0
 33 69  1  0  0  0  0
 34 70  1  0  0  0  0
 35 71  1  0  0  0  0
 36 72  1  0  0  0  0
 37 73  1  0  0  0  0
 37 74  1  0  0  0  0
 38 75  1  0  0  0  0
 38 76  1  0  0  0  0
M  CHG  1  14   1
M  END
>  <result-rank>
30

>  <similarity>
0.902

>  <query-name>


>  <query-smiles>
S1c2c(cccc2)C(C(=O)N3CCC([N@H+]4CC5(C(=O)N6N(C5=O)CCCC6)CCC4)CC3)=C1NC(=O)NC

>  <source>
REALspace_2019-12

>  <similarity-descriptor>
0.905;0.824;0.942;0.809;1.000;0.994;0.999;0.824;0.824;0.0;0.0;0.0

>  <similarity-descriptor-smiles>
C1CCNCC1;c1cccnc1;c1ccccc1;O=C1NCC(N1CC)=O;[NH+]1CCCCC1;C1CCCC1;C=O;c1cccnc1;c1cccnc1;;;

>  <reaction-name>
m_275030

>  <reagent1-name>
14114218

>  <reagent1-smiles>
[R1*]N1CCC2(CC1)CCN([R2*])CC2

>  <reagent2-name>
14124522

>  <reagent2-smiles>
[R1*]C(=O)c1cnc(c2ccccc2)cc1

>  <reagent3-name>
14147198

>  <reagent3-smiles>
[R2*]CCN1C(=O)NC2(C1=O)CCCC2

$$$$
m_275030____14114032____14125676____14146770
          04022017303D 1   1.00000     0.00000     0
            
 73 78  0  0  0  0            999 V2000
    8.6056   -0.3903    5.0489 S   0  0  0  0  0  0  0  0  0  0  0  0
    9.0708   -1.1188    6.2006 O   0  0  0  0  0  0  0  0  0  0  0  0
    9.2242   -0.9223    3.8624 O   0  0  0  0  0  0  0  0  0  0  0  0
    9.0291    1.3097    5.2195 N   0  0  0  0  0  0  0  0  0  0  0  0
    8.5803    2.1039    4.0743 C   0  0  0  0  0  0  0  0  0  0  0  0
    9.3541    3.3938    4.2102 C   0  0  0  0  0  0  0  0  0  0  0  0
   10.6329    2.9963    4.9195 C   0  0  0  0  0  0  0  0  0  0  0  0
   10.4829    1.5135    5.2024 C   0  0  0  0  0  0  0  0  0  0  0  0
    6.8774   -0.5475    4.9222 C   0  0  0  0  0  0  0  0  0  0  0  0
    6.1529   -0.1693    3.8958 O   0  0  0  0  0  0  0  0  0  0  0  0
    4.8857   -0.4290    4.1167 C   0  0  0  0  0  0  0  0  0  0  0  0
    4.7570   -1.0053    5.3431 C   0  0  0  0  0  0  0  0  0  0  0  0
    6.0639   -1.0843    5.8718 C   0  0  0  0  0  0  0  0  0  0  0  0
    3.7451   -0.1319    3.1570 C   0  0  0  0  0  0  0  0  0  0  0  0
    3.2207    1.2161    3.4213 N   0  3  3  0  0  0  0  0  0  0  0  0
    2.1200    1.4943    2.4902 C   0  0  0  0  0  0  0  0  0  0  0  0
    2.0264    3.0056    2.5174 C   0  0  3  0  0  0  0  0  0  0  0  0
    1.2837    3.5185    1.2940 C   0  0  0  0  0  0  0  0  0  0  0  0
   -0.1140    2.9157    1.3131 C   0  0  0  0  0  0  0  0  0  0  0  0
   -0.9789    3.4285    0.1699 C   0  0  0  0  0  0  0  0  0  0  0  0
   -0.8781    4.8890    0.0152 N   0  0  0  0  0  0  0  0  0  0  0  0
   -2.0017    5.5851   -0.4384 C   0  0  0  0  0  0  0  0  0  0  0  0
   -3.0138    4.9918   -0.6904 O   0  0  0  0  0  0  0  0  0  0  0  0
   -1.9445    7.0239   -0.6045 C   0  0  0  0  0  0  0  0  0  0  0  0
   -1.6665    7.8147    0.4801 N   0  0  0  0  0  0  0  0  0  0  0  0
   -1.6035    9.1781    0.3605 C   0  0  0  0  0  0  0  0  0  0  0  0
   -1.3526    9.8310    1.3620 O   0  0  0  0  0  0  0  0  0  0  0  0
   -1.8296    9.7816   -0.9089 C   0  0  0  0  0  0  0  0  0  0  0  0
   -2.1113    8.9706   -2.0031 C   0  0  0  0  0  0  0  0  0  0  0  0
   -2.3399    9.5160   -3.2624 C   0  0  0  0  0  0  0  0  0  0  0  0
   -2.2840   10.8960   -3.4255 C   0  0  0  0  0  0  0  0  0  0  0  0
   -2.0040   11.7329   -2.3504 C   0  0  0  0  0  0  0  0  0  0  0  0
   -1.7805   11.1597   -1.1035 C   0  0  0  0  0  0  0  0  0  0  0  0
   -2.1694    7.5600   -1.8456 C   0  0  0  0  0  0  0  0  0  0  0  0
    0.3433    5.6533    0.3178 C   0  0  0  0  0  0  0  0  0  0  0  0
    1.1428    5.0259    1.4514 C   0  0  0  0  0  0  0  0  0  0  0  0
    3.4945    3.3904    2.4629 C   0  0  0  0  0  0  0  0  0  0  0  0
    4.2351    2.2138    3.0607 C   0  0  0  0  0  0  0  0  0  0  0  0
    2.9301    1.3163    4.3729 H   0  0  0  0  0  0  0  0  0  0  0  0
    7.5956    2.2719    4.1205 H   0  0  0  0  0  0  0  0  0  0  0  0
    8.8001    1.6448    3.2135 H   0  0  0  0  0  0  0  0  0  0  0  0
    8.8408    4.0584    4.7530 H   0  0  0  0  0  0  0  0  0  0  0  0
    9.5548    3.7820    3.3107 H   0  0  0  0  0  0  0  0  0  0  0  0
   11.4259    3.1635    4.3337 H   0  0  0  0  0  0  0  0  0  0  0  0
   10.7349    3.5079    5.7726 H   0  0  0  0  0  0  0  0  0  0  0  0
   10.9113    0.9676    4.4823 H   0  0  0  0  0  0  0  0  0  0  0  0
   10.8870    1.2760    6.0857 H   0  0  0  0  0  0  0  0  0  0  0  0
    3.9107   -1.3101    5.7800 H   0  0  0  0  0  0  0  0  0  0  0  0
    6.3352   -1.4571    6.7591 H   0  0  0  0  0  0  0  0  0  0  0  0
    4.0800   -0.1808    2.2160 H   0  0  0  0  0  0  0  0  0  0  0  0
    3.0165   -0.8044    3.2868 H   0  0  0  0  0  0  0  0  0  0  0  0
    1.2682    1.0756    2.8049 H   0  0  0  0  0  0  0  0  0  0  0  0
    2.3342    1.1638    1.5710 H   0  0  0  0  0  0  0  0  0  0  0  0
    1.5987    3.3271    3.3622 H   0  0  0  0  0  0  0  0  0  0  0  0
    1.7682    3.2852    0.4509 H   0  0  0  0  0  0  0  0  0  0  0  0
   -0.5539    3.1506    2.1798 H   0  0  0  0  0  0  0  0  0  0  0  0
   -0.0367    1.9216    1.2371 H   0  0  0  0  0  0  0  0  0  0  0  0
   -0.6827    2.9925   -0.6799 H   0  0  0  0  0  0  0  0  0  0  0  0
   -1.9321    3.1882    0.3533 H   0  0  0  0  0  0  0  0  0  0  0  0
   -1.5073    7.3904    1.3715 H   0  0  0  0  0  0  0  0  0  0  0  0
   -2.5420    8.9225   -4.0415 H   0  0  0  0  0  0  0  0  0  0  0  0
   -2.4475   11.2924   -4.3289 H   0  0  0  0  0  0  0  0  0  0  0  0
   -1.9644   12.7247   -2.4715 H   0  0  0  0  0  0  0  0  0  0  0  0
   -1.5788   11.7536   -0.3247 H   0  0  0  0  0  0  0  0  0  0  0  0
   -2.3708    6.9686   -2.6264 H   0  0  0  0  0  0  0  0  0  0  0  0
    0.0855    6.5831    0.5807 H   0  0  0  0  0  0  0  0  0  0  0  0
    0.9155    5.6852   -0.5017 H   0  0  0  0  0  0  0  0  0  0  0  0
    2.0555    5.4344    1.4656 H   0  0  0  0  0  0  0  0  0  0  0  0
    0.6787    5.2169    2.3163 H   0  0  0  0  0  0  0  0  0  0  0  0
    3.6603    4.2182    2.9989 H   0  0  0  0  0  0  0  0  0  0  0  0
    3.7824    3.5424    1.5173 H   0  0  0  0  0  0  0  0  0  0  0  0
    4.8720    1.8313    2.3914 H   0  0  0  0  0  0  0  0  0  0  0  0
    4.7399    2.5017    3.8745 H   0  0  0  0  0  0  0  0  0  0  0  0
  1  2  2  0  0  0  0
  1  3  2  0  0  0  0
  1  4  1  0  0  0  0
  4  5  1  0  0  0  0
  5  6  1  0  0  0  0
  6  7  1  0  0  0  0
  7  8  1  0  0  0  0
  8  4  1  0  0  0  0
  1  9  1  0  0  0  0
  9 10  1  0  0  0  0
 10 11  1  0  0  0  0
 11 12  2  0  0  0  0
 12 13  1  0  0  0  0
  9 13  2  0  0  0  0
 11 14  1  0  0  0  0
 14 15  1  0  0  0  0
 15 16  1  0  0  0  0
 16 17  1  0  0  0  0
 17 18  1  0  0  0  0
 18 19  1  0  0  0  0
 19 20  1  0  0  0  0
 20 21  1  0  0  0  0
 21 22  1  0  0  0  0
 22 23  2  0  0  0  0
 22 24  1  0  0  0  0
 24 25  1  0  0  0  0
 25 26  1  0  0  0  0
 26 27  2  0  0  0  0
 26 28  1  0  0  0  0
 28 29  1  0  0  0  0
 29 30  2  0  0  0  0
 30 31  1  0  0  0  0
 31 32  2  0  0  0  0
 32 33  1  0  0  0  0
 33 28  2  0  0  0  0
 29 34  1  0  0  0  0
 24 34  2  0  0  0  0
 21 35  1  0  0  0  0
 35 36  1  0  0  0  0
 36 18  1  0  0  0  0
 17 37  1  0  0  0  0
 37 38  1  0  0  0  0
 38 15  1  0  0  0  0
 15 39  1  0  0  0  0
  5 40  1  0  0  0  0
  5 41  1  0  0  0  0
  6 42  1  0  0  0  0
  6 43  1  0  0  0  0
  7 44  1  0  0  0  0
  7 45  1  0  0  0  0
  8 46  1  0  0  0  0
  8 47  1  0  0  0  0
 12 48  1  0  0  0  0
 13 49  1  0  0  0  0
 14 50  1  0  0  0  0
 14 51  1  0  0  0  0
 16 52  1  0  0  0  0
 16 53  1  0  0  0  0
 17 54  1  0  0  0  0
 18 55  1  0  0  0  0
 19 56  1  0  0  0  0
 19 57  1  0  0  0  0
 20 58  1  0  0  0  0
 20 59  1  0  0  0  0
 25 60  1  0  0  0  0
 30 61  1  0  0  0  0
 31 62  1  0  0  0  0
 32 63  1  0  0  0  0
 33 64  1  0  0  0  0
 34 65  1  0  0  0  0
 35 66  1  0  0  0  0
 35 67  1  0  0  0  0
 36 68  1  0  0  0  0
 36 69  1  0  0  0  0
 37 70  1  0  0  0  0
 37 71  1  0  0  0  0
 38 72  1  0  0  0  0
 38 73  1  0  0  0  0
M  CHG  1  15   1
M  END
>  <result-rank>
31

>  <similarity>
0.901

>  <query-name>


>  <query-smiles>
S1c2c(cccc2)C(C(=O)N3CCC([N@H+]4CC5(C(=O)N6N(C5=O)CCCC6)CCC4)CC3)=C1NC(=O)NC

>  <source>
REALspace_2019-12

>  <similarity-descriptor>
0.999;0.940;1.000;0.754;0.936;0.809;1.000;0.940;0.940;0.0;0.0;0.0

>  <similarity-descriptor-smiles>
C1CCNCC1;C1=CccC(N1)=O;c1ccccc1;S(=O)(=O)C1=CC=CO1;C[NH+]1CCCC1;N1CCCC1;C=O;C1=CccC(N1)=O;C1=CccC(N1)=O;;;

>  <reaction-name>
m_275030

>  <reagent1-name>
14114032

>  <reagent1-smiles>
[R2*]N1CC(C2CCN([R1*])CC2)CC1

>  <reagent2-name>
14125676

>  <reagent2-smiles>
[R1*]C(=O)C=1NC(=O)c2c(cccc2)C1

>  <reagent3-name>
14146770

>  <reagent3-smiles>
[R2*]CC=1OC(S(=O)(=O)N2CCCC2)=CC1

$$$$
m_275030____14114100____14125676____14147664
          04022017303D 1   1.00000     0.00000     0
            
 78 82  0  0  0  0            999 V2000
   -0.5116   -0.1002   -2.1453 O   0  0  0  0  0  0  0  0  0  0  0  0
    0.3216   -0.6728   -1.4989 C   0  0  0  0  0  0  0  0  0  0  0  0
    1.5106   -0.0552   -1.2126 N   0  0  0  0  0  0  0  0  0  0  0  0
    1.8770    0.1547    0.0907 C   0  0  0  0  0  0  0  0  0  0  0  0
    2.8903   -0.3287    0.5144 O   0  0  0  0  0  0  0  0  0  0  0  0
    1.0000    1.0000    1.0000 C   0  0  0  0  0  0  0  0  0  0  0  0
    1.8516    1.8516    1.8516 N   0  3  3  0  0  0  0  0  0  0  0  0
    2.3986    2.9640    1.0606 C   0  0  0  0  0  0  0  0  0  0  0  0
    3.3099    3.8317    1.9135 C   0  0  0  0  0  0  0  0  0  0  0  0
    2.5465    4.3668    3.1143 C   0  0  3  0  0  0  0  0  0  0  0  0
    3.4569    5.2158    3.9910 C   0  0  3  0  0  0  0  0  0  0  0  0
    4.3358    4.3395    4.8692 C   0  0  0  0  0  0  0  0  0  0  0  0
    5.0870    5.2011    5.7927 N   0  0  0  0  0  0  0  0  0  0  0  0
    5.4921    4.7398    7.0577 C   0  0  0  0  0  0  0  0  0  0  0  0
    5.2254    3.6218    7.4023 O   0  0  0  0  0  0  0  0  0  0  0  0
    6.2319    5.6147    7.9453 C   0  0  0  0  0  0  0  0  0  0  0  0
    5.6631    6.7926    8.3552 N   0  0  0  0  0  0  0  0  0  0  0  0
    6.3324    7.6440    9.1946 C   0  0  0  0  0  0  0  0  0  0  0  0
    5.7752    8.6794    9.5253 O   0  0  0  0  0  0  0  0  0  0  0  0
    7.6372    7.2994    9.6478 C   0  0  0  0  0  0  0  0  0  0  0  0
    8.2059    6.1023    9.2259 C   0  0  0  0  0  0  0  0  0  0  0  0
    9.4785    5.7246    9.6422 C   0  0  0  0  0  0  0  0  0  0  0  0
   10.1903    6.5612   10.4953 C   0  0  0  0  0  0  0  0  0  0  0  0
    9.6480    7.7642   10.9347 C   0  0  0  0  0  0  0  0  0  0  0  0
    8.3744    8.1158   10.5017 C   0  0  0  0  0  0  0  0  0  0  0  0
    7.4854    5.2416    8.3552 C   0  0  0  0  0  0  0  0  0  0  0  0
    5.3901    6.5602    5.3213 C   0  0  0  0  0  0  0  0  0  0  0  0
    5.5887    6.5516    3.8136 C   0  0  0  0  0  0  0  0  0  0  0  0
    4.3650    6.0239    3.0793 C   0  0  0  0  0  0  0  0  0  0  0  0
    2.0060    3.1883    3.9082 C   0  0  0  0  0  0  0  0  0  0  0  0
    1.1106    2.3315    3.0275 C   0  0  0  0  0  0  0  0  0  0  0  0
    0.0840   -1.9442   -1.0472 N   0  0  0  0  0  0  0  0  0  0  0  0
   -1.1915   -2.6068   -1.3544 C   0  0  0  0  0  0  0  0  0  0  0  0
   -0.9379   -3.8809   -2.1436 C   0  0  0  0  0  0  0  0  0  0  0  0
   -2.2560   -4.5677   -2.4628 C   0  0  0  0  0  0  0  0  0  0  0  0
   -3.0004   -4.8912   -1.1775 C   0  0  0  0  0  0  0  0  0  0  0  0
   -3.2555   -3.6171   -0.3885 C   0  0  0  0  0  0  0  0  0  0  0  0
   -1.9373   -2.9302   -0.0699 C   0  0  0  0  0  0  0  0  0  0  0  0
    2.6180    1.2965    2.1749 H   0  0  0  0  0  0  0  0  0  0  0  0
    2.1109    0.2423   -1.9549 H   0  0  0  0  0  0  0  0  0  0  0  0
    0.4018    1.5770    0.4439 H   0  0  0  0  0  0  0  0  0  0  0  0
    0.4439    0.4018    1.5770 H   0  0  0  0  0  0  0  0  0  0  0  0
    1.6448    3.5218    0.7132 H   0  0  0  0  0  0  0  0  0  0  0  0
    2.9215    2.5947    0.2923 H   0  0  0  0  0  0  0  0  0  0  0  0
    4.0850    3.2854    2.2308 H   0  0  0  0  0  0  0  0  0  0  0  0
    3.6445    4.5985    1.3657 H   0  0  0  0  0  0  0  0  0  0  0  0
    1.7819    4.9267    2.7951 H   0  0  0  0  0  0  0  0  0  0  0  0
    2.9091    5.8295    4.5595 H   0  0  0  0  0  0  0  0  0  0  0  0
    3.7648    3.7050    5.3902 H   0  0  0  0  0  0  0  0  0  0  0  0
    4.9730    3.8223    4.2979 H   0  0  0  0  0  0  0  0  0  0  0  0
    4.7463    7.0340    8.0370 H   0  0  0  0  0  0  0  0  0  0  0  0
    9.8769    4.8616    9.3316 H   0  0  0  0  0  0  0  0  0  0  0  0
   11.1054    6.2938   10.7972 H   0  0  0  0  0  0  0  0  0  0  0  0
   10.1627    8.3630   11.5484 H   0  0  0  0  0  0  0  0  0  0  0  0
    7.9766    8.9791   10.8123 H   0  0  0  0  0  0  0  0  0  0  0  0
    7.8857    4.3786    8.0468 H   0  0  0  0  0  0  0  0  0  0  0  0
    6.2253    6.8864    5.7640 H   0  0  0  0  0  0  0  0  0  0  0  0
    4.6309    7.1686    5.5524 H   0  0  0  0  0  0  0  0  0  0  0  0
    6.3721    5.9699    3.5946 H   0  0  0  0  0  0  0  0  0  0  0  0
    5.7710    7.4857    3.5068 H   0  0  0  0  0  0  0  0  0  0  0  0
    3.8488    6.7987    2.7142 H   0  0  0  0  0  0  0  0  0  0  0  0
    4.6677    5.4403    2.3258 H   0  0  0  0  0  0  0  0  0  0  0  0
    1.4773    3.5282    4.6860 H   0  0  0  0  0  0  0  0  0  0  0  0
    2.7699    2.6352    4.2405 H   0  0  0  0  0  0  0  0  0  0  0  0
    0.7851    1.5463    3.5543 H   0  0  0  0  0  0  0  0  0  0  0  0
    0.3289    2.8764    2.7240 H   0  0  0  0  0  0  0  0  0  0  0  0
    0.7783   -2.4214   -0.5086 H   0  0  0  0  0  0  0  0  0  0  0  0
   -1.7517   -1.9898   -1.9072 H   0  0  0  0  0  0  0  0  0  0  0  0
   -0.3662   -4.4974   -1.6021 H   0  0  0  0  0  0  0  0  0  0  0  0
   -0.4680   -3.6538   -2.9966 H   0  0  0  0  0  0  0  0  0  0  0  0
   -2.0752   -5.4148   -2.9626 H   0  0  0  0  0  0  0  0  0  0  0  0
   -2.8170   -3.9614   -3.0264 H   0  0  0  0  0  0  0  0  0  0  0  0
   -2.4505   -5.5180   -0.6253 H   0  0  0  0  0  0  0  0  0  0  0  0
   -3.8744   -5.3229   -1.4008 H   0  0  0  0  0  0  0  0  0  0  0  0
   -3.8275   -3.0011   -0.9301 H   0  0  0  0  0  0  0  0  0  0  0  0
   -3.7252   -3.8443    0.4646 H   0  0  0  0  0  0  0  0  0  0  0  0
   -2.1183   -2.0830    0.4295 H   0  0  0  0  0  0  0  0  0  0  0  0
   -1.3766   -3.5364    0.4942 H   0  0  0  0  0  0  0  0  0  0  0  0
  1  2  2  0  0  0  0
  2  3  1  0  0  0  0
  3  4  1  0  0  0  0
  4  5  2  0  0  0  0
  4  6  1  0  0  0  0
  6  7  1  0  0  0  0
  7  8  1  0  0  0  0
  8  9  1  0  0  0  0
  9 10  1  0  0  0  0
 10 11  1  0  0  0  0
 11 12  1  0  0  0  0
 12 13  1  0  0  0  0
 13 14  1  0  0  0  0
 14 15  2  0  0  0  0
 14 16  1  0  0  0  0
 16 17  1  0  0  0  0
 17 18  1  0  0  0  0
 18 19  2  0  0  0  0
 18 20  1  0  0  0  0
 20 21  1  0  0  0  0
 21 22  2  0  0  0  0
 22 23  1  0  0  0  0
 23 24  2  0  0  0  0
 24 25  1  0  0  0  0
 25 20  2  0  0  0  0
 21 26  1  0  0  0  0
 16 26  2  0  0  0  0
 13 27  1  0  0  0  0
 27 28  1  0  0  0  0
 28 29  1  0  0  0  0
 29 11  1  0  0  0  0
 10 30  1  0  0  0  0
 30 31  1  0  0  0  0
 31  7  1  0  0  0  0
  2 32  1  0  0  0  0
 32 33  1  0  0  0  0
 33 34  1  0  0  0  0
 34 35  1  0  0  0  0
 35 36  1  0  0  0  0
 36 37  1  0  0  0  0
 37 38  1  0  0  0  0
 38 33  1  0  0  0  0
  7 39  1  0  0  0  0
  3 40  1  0  0  0  0
  6 41  1  0  0  0  0
  6 42  1  0  0  0  0
  8 43  1  0  0  0  0
  8 44  1  0  0  0  0
  9 45  1  0  0  0  0
  9 46  1  0  0  0  0
 10 47  1  0  0  0  0
 11 48  1  0  0  0  0
 12 49  1  0  0  0  0
 12 50  1  0  0  0  0
 17 51  1  0  0  0  0
 22 52  1  0  0  0  0
 23 53  1  0  0  0  0
 24 54  1  0  0  0  0
 25 55  1  0  0  0  0
 26 56  1  0  0  0  0
 27 57  1  0  0  0  0
 27 58  1  0  0  0  0
 28 59  1  0  0  0  0
 28 60  1  0  0  0  0
 29 61  1  0  0  0  0
 29 62  1  0  0  0  0
 30 63  1  0  0  0  0
 30 64  1  0  0  0  0
 31 65  1  0  0  0  0
 31 66  1  0  0  0  0
 32 67  1  0  0  0  0
 33 68  1  0  0  0  0
 34 69  1  0  0  0  0
 34 70  1  0  0  0  0
 35 71  1  0  0  0  0
 35 72  1  0  0  0  0
 36 73  1  0  0  0  0
 36 74  1  0  0  0  0
 37 75  1  0  0  0  0
 37 76  1  0  0  0  0
 38 77  1  0  0  0  0
 38 78  1  0  0  0  0
M  CHG  1   7   1
M  END
>  <result-rank>
32

>  <similarity>
0.901

>  <query-name>


>  <query-smiles>
S1c2c(cccc2)C(C(=O)N3CCC([N@H+]4CC5(C(=O)N6N(C5=O)CCCC6)CCC4)CC3)=C1NC(=O)NC

>  <source>
REALspace_2019-12

>  <similarity-descriptor>
0.999;0.940;1.000;0.738;0.937;0.820;1.000;0.940;0.940;0.0;0.0;0.0

>  <similarity-descriptor-smiles>
C1CCCNC1;C1=CccC(N1)=O;c1ccccc1;O=C(NC(=O)C)N;[NH+]1CCCCC1;C1CCCCC1;C=O;C1=CccC(N1)=O;C1=CccC(N1)=O;;;

>  <reaction-name>
m_275030

>  <reagent1-name>
14114100

>  <reagent1-smiles>
[R1*]N1CC(C2CCN([R2*])CC2)CCC1

>  <reagent2-name>
14125676

>  <reagent2-smiles>
[R1*]C(=O)C=1NC(=O)c2c(cccc2)C1

>  <reagent3-name>
14147664

>  <reagent3-smiles>
[R2*]CC(=O)NC(=O)NC1CCCCC1

$$$$
m_275030____14114236____14125180____14147104
          04022017303D 1   1.00000     0.00000     0
            
 71 76  0  0  0  0            999 V2000
    1.7834    1.7311   -2.7385 S   0  0  0  0  0  0  0  0  0  0  0  0
    0.4768    2.6931   -2.2336 C   0  0  0  0  0  0  0  0  0  0  0  0
    0.2559    2.4079   -0.9694 N   0  0  0  0  0  0  0  0  0  0  0  0
    1.0907    1.4702   -0.4334 C   0  0  0  0  0  0  0  0  0  0  0  0
    2.0433    0.9440   -1.2484 C   0  0  0  0  0  0  0  0  0  0  0  0
    1.0000    1.0000    1.0000 C   0  0  0  0  0  0  0  0  0  0  0  0
    1.8489    1.8489    1.8489 N   0  3  3  0  0  0  0  0  0  0  0  0
    1.7547    1.3851    3.2389 C   0  0  0  0  0  0  0  0  0  0  0  0
    2.2281    2.5864    4.0302 C   0  0  3  0  0  0  0  0  0  0  0  0
    1.7715    2.4887    5.4766 C   0  0  3  0  0  0  0  0  0  0  0  0
    2.3603    1.2196    6.0769 C   0  0  0  0  0  0  0  0  0  0  0  0
    1.7690    0.8985    7.3866 N   0  0  0  0  0  0  0  0  0  0  0  0
    2.5666    0.2753    8.3526 C   0  0  0  0  0  0  0  0  0  0  0  0
    3.7112    0.0119    8.1067 O   0  0  0  0  0  0  0  0  0  0  0  0
    2.0098   -0.0524    9.6515 C   0  0  0  0  0  0  0  0  0  0  0  0
    1.3776   -1.2974    9.9310 C   0  0  0  0  0  0  0  0  0  0  0  0
    0.8617   -1.5506   11.2001 C   0  0  0  0  0  0  0  0  0  0  0  0
    0.2457   -2.7735   11.4581 C   0  0  0  0  0  0  0  0  0  0  0  0
    0.1299   -3.7557   10.4800 C   0  0  0  0  0  0  0  0  0  0  0  0
    0.6440   -3.5067    9.2114 C   0  0  0  0  0  0  0  0  0  0  0  0
    1.2579   -2.2851    8.9558 C   0  0  0  0  0  0  0  0  0  0  0  0
    0.9835   -0.5431   12.1988 C   0  0  0  0  0  0  0  0  0  0  0  0
    0.5572   -0.6908   13.3349 O   0  0  0  0  0  0  0  0  0  0  0  0
    1.5989    0.6435   11.8944 N   0  0  0  0  0  0  0  0  0  0  0  0
    2.1038    0.8884   10.6437 C   0  0  0  0  0  0  0  0  0  0  0  0
    0.3705    1.2084    7.7282 C   0  0  0  0  0  0  0  0  0  0  0  0
   -0.1165    2.4761    7.0397 C   0  0  0  0  0  0  0  0  0  0  0  0
    0.2520    2.5165    5.5625 C   0  0  0  0  0  0  0  0  0  0  0  0
    1.5100    3.7133    3.3086 C   0  0  0  0  0  0  0  0  0  0  0  0
    1.2872    3.2040    1.9010 C   0  0  0  0  0  0  0  0  0  0  0  0
   -0.1986    3.5960   -3.0527 N   0  0  0  0  0  0  0  0  0  0  0  0
    0.2246    4.8965   -3.1335 C   0  0  0  0  0  0  0  0  0  0  0  0
    1.1767    5.2582   -2.4990 O   0  0  0  0  0  0  0  0  0  0  0  0
   -0.5120    5.8813   -4.0269 C   0  0  0  0  0  0  0  0  0  0  0  0
   -1.3637    3.1534   -3.8292 C   0  0  0  0  0  0  0  0  0  0  0  0
   -2.4568    2.6365   -2.9390 C   0  0  0  0  0  0  0  0  0  0  0  0
   -1.5935    1.6747   -3.7045 C   0  0  0  0  0  0  0  0  0  0  0  0
    2.7962    1.8569    1.5286 H   0  0  0  0  0  0  0  0  0  0  0  0
    2.7346    0.2564   -1.0260 H   0  0  0  0  0  0  0  0  0  0  0  0
    0.0515    1.0600    1.3111 H   0  0  0  0  0  0  0  0  0  0  0  0
    1.3111    0.0515    1.0600 H   0  0  0  0  0  0  0  0  0  0  0  0
    2.3475    0.5951    3.3953 H   0  0  0  0  0  0  0  0  0  0  0  0
    0.8127    1.1471    3.4755 H   0  0  0  0  0  0  0  0  0  0  0  0
    3.2207    2.6919    3.9699 H   0  0  0  0  0  0  0  0  0  0  0  0
    2.1328    3.2749    5.9780 H   0  0  0  0  0  0  0  0  0  0  0  0
    2.1903    0.4582    5.4513 H   0  0  0  0  0  0  0  0  0  0  0  0
    3.3461    1.3441    6.1903 H   0  0  0  0  0  0  0  0  0  0  0  0
   -0.1230   -2.9496   12.3707 H   0  0  0  0  0  0  0  0  0  0  0  0
   -0.3158   -4.6270   10.6854 H   0  0  0  0  0  0  0  0  0  0  0  0
    0.5729   -4.1976    8.4920 H   0  0  0  0  0  0  0  0  0  0  0  0
    1.6254   -2.1101    8.0424 H   0  0  0  0  0  0  0  0  0  0  0  0
    1.6813    1.3465   12.6009 H   0  0  0  0  0  0  0  0  0  0  0  0
    2.5463    1.7647   10.4529 H   0  0  0  0  0  0  0  0  0  0  0  0
    0.2993    1.3307    8.7181 H   0  0  0  0  0  0  0  0  0  0  0  0
   -0.2083    0.4439    7.4444 H   0  0  0  0  0  0  0  0  0  0  0  0
    0.2946    3.2661    7.4944 H   0  0  0  0  0  0  0  0  0  0  0  0
   -1.1119    2.5241    7.1232 H   0  0  0  0  0  0  0  0  0  0  0  0
   -0.1323    1.7223    5.0916 H   0  0  0  0  0  0  0  0  0  0  0  0
   -0.0995    3.3541    5.1444 H   0  0  0  0  0  0  0  0  0  0  0  0
    2.0745    4.5387    3.2977 H   0  0  0  0  0  0  0  0  0  0  0  0
    0.6361    3.9130    3.7518 H   0  0  0  0  0  0  0  0  0  0  0  0
    0.3091    3.1797    1.6940 H   0  0  0  0  0  0  0  0  0  0  0  0
    1.7526    3.7955    1.2427 H   0  0  0  0  0  0  0  0  0  0  0  0
   -1.2736    5.4164   -4.4785 H   0  0  0  0  0  0  0  0  0  0  0  0
   -0.8635    6.6357   -3.4726 H   0  0  0  0  0  0  0  0  0  0  0  0
    0.1164    6.2395   -4.7173 H   0  0  0  0  0  0  0  0  0  0  0  0
   -1.5981    3.6213   -4.6813 H   0  0  0  0  0  0  0  0  0  0  0  0
   -3.4144    2.7638   -3.1976 H   0  0  0  0  0  0  0  0  0  0  0  0
   -2.3677    2.7067   -1.9455 H   0  0  0  0  0  0  0  0  0  0  0  0
   -0.9296    1.1046   -3.2206 H   0  0  0  0  0  0  0  0  0  0  0  0
   -1.9762    1.1616   -4.4727 H   0  0  0  0  0  0  0  0  0  0  0  0
  1  2  1  0  0  0  0
  2  3  2  0  0  0  0
  3  4  1  0  0  0  0
  4  5  2  0  0  0  0
  5  1  1  0  0  0  0
  4  6  1  0  0  0  0
  6  7  1  0  0  0  0
  7  8  1  0  0  0  0
  8  9  1  0  0  0  0
  9 10  1  0  0  0  0
 10 11  1  0  0  0  0
 11 12  1  0  0  0  0
 12 13  1  0  0  0  0
 13 14  2  0  0  0  0
 13 15  1  0  0  0  0
 15 16  1  0  0  0  0
 16 17  1  0  0  0  0
 17 18  2  0  0  0  0
 18 19  1  0  0  0  0
 19 20  2  0  0  0  0
 20 21  1  0  0  0  0
 21 16  2  0  0  0  0
 17 22  1  0  0  0  0
 22 23  2  0  0  0  0
 22 24  1  0  0  0  0
 24 25  1  0  0  0  0
 15 25  2  0  0  0  0
 12 26  1  0  0  0  0
 26 27  1  0  0  0  0
 27 28  1  0  0  0  0
 28 10  1  0  0  0  0
  9 29  1  0  0  0  0
 29 30  1  0  0  0  0
 30  7  1  0  0  0  0
  2 31  1  0  0  0  0
 31 32  1  0  0  0  0
 32 33  2  0  0  0  0
 32 34  1  0  0  0  0
 31 35  1  0  0  0  0
 35 36  1  0  0  0  0
 36 37  1  0  0  0  0
 37 35  1  0  0  0  0
  7 38  1  0  0  0  0
  5 39  1  0  0  0  0
  6 40  1  0  0  0  0
  6 41  1  0  0  0  0
  8 42  1  0  0  0  0
  8 43  1  0  0  0  0
  9 44  1  0  0  0  0
 10 45  1  0  0  0  0
 11 46  1  0  0  0  0
 11 47  1  0  0  0  0
 18 48  1  0  0  0  0
 19 49  1  0  0  0  0
 20 50  1  0  0  0  0
 21 51  1  0  0  0  0
 24 52  1  0  0  0  0
 25 53  1  0  0  0  0
 26 54  1  0  0  0  0
 26 55  1  0  0  0  0
 27 56  1  0  0  0  0
 27 57  1  0  0  0  0
 28 58  1  0  0  0  0
 28 59  1  0  0  0  0
 29 60  1  0  0  0  0
 29 61  1  0  0  0  0
 30 62  1  0  0  0  0
 30 63  1  0  0  0  0
 34 64  1  0  0  0  0
 34 65  1  0  0  0  0
 34 66  1  0  0  0  0
 35 67  1  0  0  0  0
 36 68  1  0  0  0  0
 36 69  1  0  0  0  0
 37 70  1  0  0  0  0
 37 71  1  0  0  0  0
M  CHG  1   7   1
M  END
>  <result-rank>
33

>  <similarity>
0.901

>  <query-name>


>  <query-smiles>
S1c2c(cccc2)C(C(=O)N3CCC([N@H+]4CC5(C(=O)N6N(C5=O)CCCC6)CCC4)CC3)=C1NC(=O)NC

>  <source>
REALspace_2019-12

>  <similarity-descriptor>
0.999;0.940;1.000;0.746;0.936;0.829;1.000;0.940;0.940;0.0;0.0;0.091

>  <similarity-descriptor-smiles>
C1CCCNC1;C1=CNC(cc1)=O;c1ccccc1;S1C=CN=C1NC=O;C[NH+]1CCCC1;C1CC1;C=O;C1=CNC(cc1)=O;C1=CNC(cc1)=O;;;C

>  <reaction-name>
m_275030

>  <reagent1-name>
14114236

>  <reagent1-smiles>
[R2*]N1CC(C2CN([R1*])CCC2)CC1

>  <reagent2-name>
14125180

>  <reagent2-smiles>
[R1*]C(=O)C=1c2c(cccc2)C(=O)NC1

>  <reagent3-name>
14147104

>  <reagent3-smiles>
[R2*]CC=1N=C(SC1)N(C(=O)C)C2CC2

$$$$
s_22____14937630____881160
          04022017303D 1   1.00000     0.00000     0
            
 63 66  0  0  0  0            999 V2000
    9.7059   13.7732    0.3074 Br  0  0  0  0  0  0  0  0  0  0  0  0
    9.0203   11.9358    0.3019 C   0  0  0  0  0  0  0  0  0  0  0  0
    7.7883   11.6097   -0.2599 C   0  0  0  0  0  0  0  0  0  0  0  0
    7.2917   10.3070   -0.2680 C   0  0  0  0  0  0  0  0  0  0  0  0
    8.0676    9.3267    0.3121 C   0  0  0  0  0  0  0  0  0  0  0  0
    7.4149    8.1317    0.2175 N   0  0  0  0  0  0  0  0  0  0  0  0
    6.2292    8.3396   -0.4192 C   0  0  0  0  0  0  0  0  0  0  0  0
    6.1230    9.6628   -0.7289 C   0  0  0  0  0  0  0  0  0  0  0  0
    4.7565   10.4417   -1.5625 Cl  0  0  0  0  0  0  0  0  0  0  0  0
    5.2401    7.3231   -0.7174 C   0  0  0  0  0  0  0  0  0  0  0  0
    4.9265    7.1066   -1.8553 O   0  0  0  0  0  0  0  0  0  0  0  0
    4.6480    6.5906    0.3265 N   0  0  0  0  0  0  0  0  0  0  0  0
    3.6426    5.5533    0.0634 C   0  0  0  0  0  0  0  0  0  0  0  0
    2.7064    5.5596    1.2615 C   0  0  0  0  0  0  0  0  0  0  0  0
    3.3997    5.0215    2.5065 C   0  0  0  0  0  0  0  0  0  0  0  0
    3.3824    3.5502    2.5542 N   0  3  0  0  0  0  0  0  0  0  0  0
    4.0751    3.1516    3.7908 C   0  0  0  0  0  0  0  0  0  0  0  0
    4.0808    1.6419    3.9769 C   0  0  0  0  0  0  0  0  0  0  0  0
    2.7553    1.0603    3.7129 N   0  0  0  0  0  0  0  0  0  0  0  0
    2.3665   -0.0710    4.4388 C   0  0  0  0  0  0  0  0  0  0  0  0
    1.2913   -0.5676    4.2455 O   0  0  0  0  0  0  0  0  0  0  0  0
    3.1762   -0.5880    5.3294 O   0  0  0  0  0  0  0  0  0  0  0  0
    2.7816   -1.7361    6.0660 C   0  0  0  0  0  0  0  0  0  0  0  0
    1.5202   -1.4234    6.8543 C   0  0  0  0  0  0  0  0  0  0  0  0
    2.5087   -2.8839    5.1076 C   0  0  0  0  0  0  0  0  0  0  0  0
    3.8935   -2.1299    7.0246 C   0  0  0  0  0  0  0  0  0  0  0  0
    1.8216    1.6287    2.7272 C   0  0  0  0  0  0  0  0  0  0  0  0
    1.9698    3.1393    2.6183 C   0  0  0  0  0  0  0  0  0  0  0  0
    4.8531    5.4753    2.4517 C   0  0  0  0  0  0  0  0  0  0  0  0
    4.9928    6.8128    1.7392 C   0  0  0  0  0  0  0  0  0  0  0  0
    9.3022    9.6231    0.8813 C   0  0  0  0  0  0  0  0  0  0  0  0
    9.7854   10.9277    0.8789 C   0  0  0  0  0  0  0  0  0  0  0  0
    3.8323    3.1608    1.7506 H   0  0  0  0  0  0  0  0  0  0  0  0
    7.2397   12.3368   -0.6727 H   0  0  0  0  0  0  0  0  0  0  0  0
    7.7502    7.2532    0.5579 H   0  0  0  0  0  0  0  0  0  0  0  0
    4.0819    4.6598   -0.0290 H   0  0  0  0  0  0  0  0  0  0  0  0
    3.1370    5.7643   -0.7731 H   0  0  0  0  0  0  0  0  0  0  0  0
    2.4058    6.4973    1.4354 H   0  0  0  0  0  0  0  0  0  0  0  0
    1.9122    4.9873    1.0576 H   0  0  0  0  0  0  0  0  0  0  0  0
    2.9603    5.3917    3.3250 H   0  0  0  0  0  0  0  0  0  0  0  0
    3.6113    3.5717    4.5709 H   0  0  0  0  0  0  0  0  0  0  0  0
    5.0202    3.4760    3.7508 H   0  0  0  0  0  0  0  0  0  0  0  0
    4.7437    1.2393    3.3456 H   0  0  0  0  0  0  0  0  0  0  0  0
    4.3463    1.4315    4.9178 H   0  0  0  0  0  0  0  0  0  0  0  0
    1.2423   -2.2319    7.3731 H   0  0  0  0  0  0  0  0  0  0  0  0
    1.6997   -0.6683    7.4848 H   0  0  0  0  0  0  0  0  0  0  0  0
    0.7886   -1.1644    6.2236 H   0  0  0  0  0  0  0  0  0  0  0  0
    2.2308   -3.6924    5.6264 H   0  0  0  0  0  0  0  0  0  0  0  0
    1.7772   -2.6248    4.4770 H   0  0  0  0  0  0  0  0  0  0  0  0
    3.3386   -3.0896    4.5890 H   0  0  0  0  0  0  0  0  0  0  0  0
    3.6157   -2.9384    7.5434 H   0  0  0  0  0  0  0  0  0  0  0  0
    4.7234   -2.3356    6.5060 H   0  0  0  0  0  0  0  0  0  0  0  0
    4.0731   -1.3748    7.6551 H   0  0  0  0  0  0  0  0  0  0  0  0
    0.8856    1.4141    3.0061 H   0  0  0  0  0  0  0  0  0  0  0  0
    2.0052    1.2197    1.8334 H   0  0  0  0  0  0  0  0  0  0  0  0
    1.5049    3.4506    1.7895 H   0  0  0  0  0  0  0  0  0  0  0  0
    1.5457    3.5641    3.4180 H   0  0  0  0  0  0  0  0  0  0  0  0
    5.3899    4.7884    1.9618 H   0  0  0  0  0  0  0  0  0  0  0  0
    5.2006    5.5664    3.3850 H   0  0  0  0  0  0  0  0  0  0  0  0
    4.3697    7.4828    2.1428 H   0  0  0  0  0  0  0  0  0  0  0  0
    5.9332    7.1446    1.8144 H   0  0  0  0  0  0  0  0  0  0  0  0
    9.8461    8.8931    1.2951 H   0  0  0  0  0  0  0  0  0  0  0  0
   10.6733   11.1384    1.2878 H   0  0  0  0  0  0  0  0  0  0  0  0
  1  2  1  0  0  0  0
  2  3  1  0  0  0  0
  3  4  2  0  0  0  0
  4  5  1  0  0  0  0
  5  6  1  0  0  0  0
  6  7  1  0  0  0  0
  7  8  2  0  0  0  0
  8  4  1  0  0  0  0
  8  9  1  0  0  0  0
  7 10  1  0  0  0  0
 10 11  2  0  0  0  0
 10 12  1  0  0  0  0
 12 13  1  0  0  0  0
 13 14  1  0  0  0  0
 14 15  1  0  0  0  0
 15 16  1  0  0  0  0
 16 17  1  0  0  0  0
 17 18  1  0  0  0  0
 18 19  1  0  0  0  0
 19 20  1  0  0  0  0
 20 21  2  0  0  0  0
 20 22  1  0  0  0  0
 22 23  1  0  0  0  0
 23 24  1  0  0  0  0
 23 25  1  0  0  0  0
 23 26  1  0  0  0  0
 19 27  1  0  0  0  0
 27 28  1  0  0  0  0
 28 16  1  0  0  0  0
 15 29  1  0  0  0  0
 29 30  1  0  0  0  0
 30 12  1  0  0  0  0
  5 31  2  0  0  0  0
 31 32  1  0  0  0  0
 32  2  2  0  0  0  0
 16 33  1  0  0  0  0
  3 34  1  0  0  0  0
  6 35  1  0  0  0  0
 13 36  1  0  0  0  0
 13 37  1  0  0  0  0
 14 38  1  0  0  0  0
 14 39  1  0  0  0  0
 15 40  1  0  0  0  0
 17 41  1  0  0  0  0
 17 42  1  0  0  0  0
 18 43  1  0  0  0  0
 18 44  1  0  0  0  0
 24 45  1  0  0  0  0
 24 46  1  0  0  0  0
 24 47  1  0  0  0  0
 25 48  1  0  0  0  0
 25 49  1  0  0  0  0
 25 50  1  0  0  0  0
 26 51  1  0  0  0  0
 26 52  1  0  0  0  0
 26 53  1  0  0  0  0
 27 54  1  0  0  0  0
 27 55  1  0  0  0  0
 28 56  1  0  0  0  0
 28 57  1  0  0  0  0
 29 58  1  0  0  0  0
 29 59  1  0  0  0  0
 30 60  1  0  0  0  0
 30 61  1  0  0  0  0
 31 62  1  0  0  0  0
 32 63  1  0  0  0  0
M  CHG  1  16   1
M  END
>  <result-rank>
34

>  <similarity>
0.900

>  <query-name>


>  <query-smiles>
S1c2c(cccc2)C(C(=O)N3CCC([N@H+]4CC5(C(=O)N6N(C5=O)CCCC6)CCC4)CC3)=C1NC(=O)NC

>  <source>
REALspace_2019-12

>  <similarity-descriptor>
1.000;0.957;0.938;0.708;0.995;0.795;1.000;0.957;0.0;0.0;0.0;0.0

>  <similarity-descriptor-smiles>
N1CCCCC1;c1C(=CNc1)Cl;Brc1ccccc1;C(=O)O;[NH+]1CCNCC1;C(C)(C)C;C=O;c1C(=CNc1)Cl;;;;

>  <reaction-name>
s_22

>  <reagent1-name>
14937630

>  <reagent1-smiles>
[R1*]N1CCC(N2CCN(C(=O)OC(C)(C)C)CC2)CC1

>  <reagent2-name>
881160

>  <reagent2-smiles>
[R1*]C(=O)C=1Nc2c(cc(Br)cc2)C1Cl

$$$$
m_274310____14112894____14116038____15867528
          04022017303D 1   1.00000     0.00000     0
            
 67 71  0  0  0  0            999 V2000
   -2.9828    5.1778   -0.6450 O   0  0  0  0  0  0  0  0  0  0  0  0
   -1.9245    5.7098   -0.4527 C   0  0  0  0  0  0  0  0  0  0  0  0
   -0.8386    4.9597    0.0065 N   0  0  0  0  0  0  0  0  0  0  0  0
   -1.0359    3.5200    0.2416 C   0  0  0  0  0  0  0  0  0  0  0  0
   -0.1737    3.0062    1.3863 C   0  0  0  0  0  0  0  0  0  0  0  0
    1.2613    3.5064    1.2970 C   0  0  0  0  0  0  0  0  0  0  0  0
    2.0041    3.0054    2.5252 C   0  0  3  0  0  0  0  0  0  0  0  0
    2.0058    1.4971    2.5989 C   0  0  0  0  0  0  0  0  0  0  0  0
    3.2132    1.2251    3.3828 N   0  0  0  0  0  0  0  0  0  0  0  0
    3.3548    0.1868    4.3116 C   0  0  0  0  0  0  0  0  0  0  0  0
    4.4340   -0.0593    5.0147 O   0  0  0  0  0  0  0  0  0  0  0  0
    4.1609   -1.1054    5.7561 C   0  0  0  0  0  0  0  0  0  0  0  0
    2.9325   -1.5022    5.5164 N   0  0  0  0  0  0  0  0  0  0  0  0
    2.4289   -0.6936    4.6130 N   0  0  0  0  0  0  0  0  0  0  0  0
    5.1183   -1.7574    6.7408 C   0  0  0  0  0  0  0  0  0  0  0  0
    5.5221   -0.7453    7.8005 C   0  0  0  0  0  0  0  0  0  0  0  0
    6.4793   -1.3972    8.7850 C   0  0  0  0  0  0  0  0  0  0  0  0
    4.4336   -2.9407    7.4052 C   0  0  0  0  0  0  0  0  0  0  0  0
    6.3562   -2.2380    6.0013 C   0  0  0  0  0  0  0  0  0  0  0  0
    4.2383    2.2188    3.0463 C   0  0  0  0  0  0  0  0  0  0  0  0
    3.4674    3.3882    2.4540 C   0  0  0  0  0  0  0  0  0  0  0  0
    1.2305    5.0261    1.3776 C   0  0  0  0  0  0  0  0  0  0  0  0
    0.4418    5.6499    0.2345 C   0  0  0  0  0  0  0  0  0  0  0  0
   -1.7726    7.1304   -0.6967 C   0  0  0  0  0  0  0  0  0  0  0  0
   -1.4069    7.9541    0.3362 N   0  0  0  0  0  0  0  0  0  0  0  0
   -1.2530    9.3017    0.1425 C   0  0  0  0  0  0  0  0  0  0  0  0
   -0.9263    9.9855    1.1005 O   0  0  0  0  0  0  0  0  0  0  0  0
   -1.4757    9.8538   -1.1507 C   0  0  0  0  0  0  0  0  0  0  0  0
   -1.8470    9.0099   -2.1920 C   0  0  0  0  0  0  0  0  0  0  0  0
   -2.0760    9.5049   -3.4719 C   0  0  0  0  0  0  0  0  0  0  0  0
   -1.9294   10.8673   -3.7097 C   0  0  0  0  0  0  0  0  0  0  0  0
   -1.5587   11.7361   -2.6888 C   0  0  0  0  0  0  0  0  0  0  0  0
   -1.3370   11.2131   -1.4197 C   0  0  0  0  0  0  0  0  0  0  0  0
   -1.9981    7.6169   -1.9580 C   0  0  0  0  0  0  0  0  0  0  0  0
   -0.7972    3.0211   -0.5916 H   0  0  0  0  0  0  0  0  0  0  0  0
   -1.9973    3.3577    0.4634 H   0  0  0  0  0  0  0  0  0  0  0  0
   -0.5691    3.3159    2.2511 H   0  0  0  0  0  0  0  0  0  0  0  0
   -0.1681    2.0066    1.3614 H   0  0  0  0  0  0  0  0  0  0  0  0
    1.7020    3.1964    0.4546 H   0  0  0  0  0  0  0  0  0  0  0  0
    1.5917    3.3869    3.3525 H   0  0  0  0  0  0  0  0  0  0  0  0
    1.1881    1.1561    3.0629 H   0  0  0  0  0  0  0  0  0  0  0  0
    2.0661    1.0899    1.6876 H   0  0  0  0  0  0  0  0  0  0  0  0
    4.7077   -0.4291    8.2870 H   0  0  0  0  0  0  0  0  0  0  0  0
    5.9726    0.0332    7.3634 H   0  0  0  0  0  0  0  0  0  0  0  0
    6.7450   -0.7313    9.4822 H   0  0  0  0  0  0  0  0  0  0  0  0
    6.0289   -2.1757    9.2221 H   0  0  0  0  0  0  0  0  0  0  0  0
    7.2937   -1.7134    8.2985 H   0  0  0  0  0  0  0  0  0  0  0  0
    5.0633   -3.3696    8.0529 H   0  0  0  0  0  0  0  0  0  0  0  0
    3.6192   -2.6245    7.8917 H   0  0  0  0  0  0  0  0  0  0  0  0
    4.1679   -3.6066    6.7080 H   0  0  0  0  0  0  0  0  0  0  0  0
    6.9859   -2.6669    6.6490 H   0  0  0  0  0  0  0  0  0  0  0  0
    6.0905   -2.9039    5.3041 H   0  0  0  0  0  0  0  0  0  0  0  0
    6.8066   -1.4595    5.5642 H   0  0  0  0  0  0  0  0  0  0  0  0
    4.8829    1.8474    2.3780 H   0  0  0  0  0  0  0  0  0  0  0  0
    4.7351    2.5037    3.8660 H   0  0  0  0  0  0  0  0  0  0  0  0
    3.6350    4.2190    2.9848 H   0  0  0  0  0  0  0  0  0  0  0  0
    3.7409    3.5387    1.5040 H   0  0  0  0  0  0  0  0  0  0  0  0
    2.1694    5.3689    1.3451 H   0  0  0  0  0  0  0  0  0  0  0  0
    0.8078    5.2937    2.2435 H   0  0  0  0  0  0  0  0  0  0  0  0
    0.2575    6.6078    0.4544 H   0  0  0  0  0  0  0  0  0  0  0  0
    0.9891    5.5990   -0.6009 H   0  0  0  0  0  0  0  0  0  0  0  0
   -1.2500    7.5657    1.2442 H   0  0  0  0  0  0  0  0  0  0  0  0
   -2.3430    8.8881   -4.2123 H   0  0  0  0  0  0  0  0  0  0  0  0
   -2.0929   11.2275   -4.6281 H   0  0  0  0  0  0  0  0  0  0  0  0
   -1.4540   12.7151   -2.8636 H   0  0  0  0  0  0  0  0  0  0  0  0
   -1.0705   11.8303   -0.6795 H   0  0  0  0  0  0  0  0  0  0  0  0
   -2.2643    7.0021   -2.7004 H   0  0  0  0  0  0  0  0  0  0  0  0
  1  2  2  0  0  0  0
  2  3  1  0  0  0  0
  3  4  1  0  0  0  0
  4  5  1  0  0  0  0
  5  6  1  0  0  0  0
  6  7  1  0  0  0  0
  7  8  1  0  0  0  0
  8  9  1  0  0  0  0
  9 10  1  0  0  0  0
 10 11  1  0  0  0  0
 11 12  1  0  0  0  0
 12 13  2  0  0  0  0
 13 14  1  0  0  0  0
 10 14  2  0  0  0  0
 12 15  1  0  0  0  0
 15 16  1  0  0  0  0
 16 17  1  0  0  0  0
 15 18  1  0  0  0  0
 15 19  1  0  0  0  0
  9 20  1  0  0  0  0
 20 21  1  0  0  0  0
 21  7  1  0  0  0  0
  6 22  1  0  0  0  0
 22 23  1  0  0  0  0
 23  3  1  0  0  0  0
  2 24  1  0  0  0  0
 24 25  1  0  0  0  0
 25 26  1  0  0  0  0
 26 27  2  0  0  0  0
 26 28  1  0  0  0  0
 28 29  1  0  0  0  0
 29 30  2  0  0  0  0
 30 31  1  0  0  0  0
 31 32  2  0  0  0  0
 32 33  1  0  0  0  0
 33 28  2  0  0  0  0
 29 34  1  0  0  0  0
 24 34  2  0  0  0  0
  4 35  1  0  0  0  0
  4 36  1  0  0  0  0
  5 37  1  0  0  0  0
  5 38  1  0  0  0  0
  6 39  1  0  0  0  0
  7 40  1  0  0  0  0
  8 41  1  0  0  0  0
  8 42  1  0  0  0  0
 16 43  1  0  0  0  0
 16 44  1  0  0  0  0
 17 45  1  0  0  0  0
 17 46  1  0  0  0  0
 17 47  1  0  0  0  0
 18 48  1  0  0  0  0
 18 49  1  0  0  0  0
 18 50  1  0  0  0  0
 19 51  1  0  0  0  0
 19 52  1  0  0  0  0
 19 53  1  0  0  0  0
 20 54  1  0  0  0  0
 20 55  1  0  0  0  0
 21 56  1  0  0  0  0
 21 57  1  0  0  0  0
 22 58  1  0  0  0  0
 22 59  1  0  0  0  0
 23 60  1  0  0  0  0
 23 61  1  0  0  0  0
 25 62  1  0  0  0  0
 30 63  1  0  0  0  0
 31 64  1  0  0  0  0
 32 65  1  0  0  0  0
 33 66  1  0  0  0  0
 34 67  1  0  0  0  0
M  END
>  <result-rank>
35

>  <similarity>
0.900

>  <query-name>


>  <query-smiles>
S1c2c(cccc2)C(C(=O)N3CCC([N@H+]4CC5(C(=O)N6N(C5=O)CCCC6)CCC4)CC3)=C1NC(=O)NC

>  <source>
REALspace_2019-12

>  <similarity-descriptor>
0.999;0.940;1.000;0.787;0.791;0.876;1.000;0.940;0.940;0.0;0.0;0.0

>  <similarity-descriptor-smiles>
N1CCCCC1;C1=CccC(N1)=O;c1ccccc1;C1=NN=CO1;C1CCNC1;C(CC)(C)C;O=C;C1=CccC(N1)=O;C1=CccC(N1)=O;;;

>  <reaction-name>
m_274310

>  <reagent1-name>
14112894

>  <reagent1-smiles>
[R2*]N1CC(C2CCN([R1*])CC2)CC1

>  <reagent2-name>
14116038

>  <reagent2-smiles>
[R1*]C(=O)C=1NC(=O)c2c(cccc2)C1

>  <reagent3-name>
15867528

>  <reagent3-smiles>
[R2*]C=1OC(=NN1)C(CC)(C)C

$$$$
s_272164____9389230____17339712
          04022017303D 1   1.00000     0.00000     0
            
 72 76  0  0  0  0            999 V2000
    0.0788   -0.8447   -0.7664 O   0  0  0  0  0  0  0  0  0  0  0  0
    1.2716   -0.8150   -0.6382 C   0  0  0  0  0  0  0  0  0  0  0  0
    2.0249   -1.6365   -1.3264 O   0  0  0  0  0  0  0  0  0  0  0  0
    1.4301   -2.5622   -2.2240 C   0  0  0  0  0  0  0  0  0  0  0  0
    0.4914   -3.4796   -1.4575 C   0  0  0  0  0  0  0  0  0  0  0  0
    0.6462   -1.8070   -3.2849 C   0  0  0  0  0  0  0  0  0  0  0  0
    2.5161   -3.3909   -2.8906 C   0  0  0  0  0  0  0  0  0  0  0  0
    1.8454    0.0781    0.2278 N   0  0  0  0  0  0  0  0  0  0  0  0
    1.0000    1.0000    1.0000 C   0  0  0  0  0  0  0  0  0  0  0  0
    1.8767    1.8767    1.8767 C   0  0  0  0  0  0  0  0  0  0  0  0
    1.0730    2.8620    2.7105 C   0  0  3  0  0  0  0  0  0  0  0  0
    0.1308    2.1795    3.6117 N   0  0  0  0  0  0  0  0  0  0  0  0
    0.3831    0.8978    4.1159 C   0  0  0  0  0  0  0  0  0  0  0  0
    1.3925    0.3228    3.8152 O   0  0  0  0  0  0  0  0  0  0  0  0
   -0.5402    0.2886    4.9686 N   0  0  0  0  0  0  0  0  0  0  0  0
   -1.7417    0.8823    5.3726 C   0  0  0  0  0  0  0  0  0  0  0  0
   -2.8814    0.5022    4.7193 C   0  0  0  0  0  0  0  0  0  0  0  0
   -3.0253   -0.6379    3.9572 C   0  0  0  0  0  0  0  0  0  0  0  0
   -2.2740   -1.7934    3.8946 N   0  0  0  0  0  0  0  0  0  0  0  0
   -1.0888   -2.0578    4.6000 C   0  0  0  0  0  0  0  0  0  0  0  0
   -0.5942   -3.1724    4.5386 O   0  0  0  0  0  0  0  0  0  0  0  0
   -0.3536   -1.0661    5.4944 C   0  0  0  0  0  0  0  0  0  0  0  0
   -4.1303   -0.7740    3.1161 C   0  0  0  0  0  0  0  0  0  0  0  0
   -5.1279    0.1830    3.1593 C   0  0  0  0  0  0  0  0  0  0  0  0
   -5.0412    1.1843    4.1116 C   0  0  0  0  0  0  0  0  0  0  0  0
   -3.9426    1.3412    4.9415 C   0  0  0  0  0  0  0  0  0  0  0  0
   -3.9957    2.3014    5.9390 C   0  0  0  0  0  0  0  0  0  0  0  0
   -2.8782    2.5180    6.7181 C   0  0  0  0  0  0  0  0  0  0  0  0
   -1.7068    1.8321    6.3857 C   0  0  0  0  0  0  0  0  0  0  0  0
   -1.0975    2.8977    3.9835 C   0  0  0  0  0  0  0  0  0  0  0  0
   -0.7868    4.3864    3.9554 C   0  0  0  0  0  0  0  0  0  0  0  0
   -0.4293    4.8474    2.5500 C   0  0  0  0  0  0  0  0  0  0  0  0
    0.2876    3.7581    1.7664 C   0  0  0  0  0  0  0  0  0  0  0  0
    3.0171    2.4481    1.0755 C   0  0  0  0  0  0  0  0  0  0  0  0
    3.9020    2.1960    2.2733 C   0  0  0  0  0  0  0  0  0  0  0  0
    2.9408    1.0729    2.5851 C   0  0  0  0  0  0  0  0  0  0  0  0
    0.0725   -4.1315   -2.0896 H   0  0  0  0  0  0  0  0  0  0  0  0
    1.0072   -3.9765   -0.7595 H   0  0  0  0  0  0  0  0  0  0  0  0
   -0.2231   -2.9344   -1.0190 H   0  0  0  0  0  0  0  0  0  0  0  0
    0.2273   -2.4588   -3.9170 H   0  0  0  0  0  0  0  0  0  0  0  0
   -0.0683   -1.2618   -2.8464 H   0  0  0  0  0  0  0  0  0  0  0  0
    1.2638   -1.2034   -3.7892 H   0  0  0  0  0  0  0  0  0  0  0  0
    2.0973   -4.0428   -3.5227 H   0  0  0  0  0  0  0  0  0  0  0  0
    3.1337   -2.7874   -3.3949 H   0  0  0  0  0  0  0  0  0  0  0  0
    3.0319   -3.8878   -2.1926 H   0  0  0  0  0  0  0  0  0  0  0  0
    2.8394    0.1028    0.3346 H   0  0  0  0  0  0  0  0  0  0  0  0
    0.3729    0.4747    1.5751 H   0  0  0  0  0  0  0  0  0  0  0  0
    0.4747    1.5751    0.3729 H   0  0  0  0  0  0  0  0  0  0  0  0
    1.6993    3.4228    3.2521 H   0  0  0  0  0  0  0  0  0  0  0  0
   -2.6064   -2.5143    3.2865 H   0  0  0  0  0  0  0  0  0  0  0  0
   -0.7206   -1.1178    6.4231 H   0  0  0  0  0  0  0  0  0  0  0  0
    0.6214   -1.2879    5.5085 H   0  0  0  0  0  0  0  0  0  0  0  0
   -4.1999   -1.5518    2.4915 H   0  0  0  0  0  0  0  0  0  0  0  0
   -5.8943    0.1523    2.5176 H   0  0  0  0  0  0  0  0  0  0  0  0
   -5.8053    1.8227    4.2045 H   0  0  0  0  0  0  0  0  0  0  0  0
   -4.8312    2.8292    6.0917 H   0  0  0  0  0  0  0  0  0  0  0  0
   -2.9054    3.1459    7.4959 H   0  0  0  0  0  0  0  0  0  0  0  0
   -0.8537    2.0227    6.8714 H   0  0  0  0  0  0  0  0  0  0  0  0
   -1.3859    2.6269    4.9019 H   0  0  0  0  0  0  0  0  0  0  0  0
   -1.8254    2.6889    3.3303 H   0  0  0  0  0  0  0  0  0  0  0  0
   -0.0158    4.5703    4.5650 H   0  0  0  0  0  0  0  0  0  0  0  0
   -1.5893    4.8931    4.2706 H   0  0  0  0  0  0  0  0  0  0  0  0
   -1.2689    5.0953    2.0667 H   0  0  0  0  0  0  0  0  0  0  0  0
    0.1674    5.6474    2.6132 H   0  0  0  0  0  0  0  0  0  0  0  0
   -0.3864    3.2081    1.2733 H   0  0  0  0  0  0  0  0  0  0  0  0
    0.9157    4.1804    1.1129 H   0  0  0  0  0  0  0  0  0  0  0  0
    2.9123    3.4120    0.8305 H   0  0  0  0  0  0  0  0  0  0  0  0
    3.2589    1.9214    0.2607 H   0  0  0  0  0  0  0  0  0  0  0  0
    3.9262    2.9345    2.9472 H   0  0  0  0  0  0  0  0  0  0  0  0
    4.8359    1.9094    2.0593 H   0  0  0  0  0  0  0  0  0  0  0  0
    3.1634    0.2004    2.1501 H   0  0  0  0  0  0  0  0  0  0  0  0
    2.7729    0.9260    3.5599 H   0  0  0  0  0  0  0  0  0  0  0  0
  1  2  2  0  0  0  0
  2  3  1  0  0  0  0
  3  4  1  0  0  0  0
  4  5  1  0  0  0  0
  4  6  1  0  0  0  0
  4  7  1  0  0  0  0
  2  8  1  0  0  0  0
  8  9  1  0  0  0  0
  9 10  1  0  0  0  0
 10 11  1  0  0  0  0
 11 12  1  0  0  0  0
 12 13  1  0  0  0  0
 13 14  2  0  0  0  0
 13 15  1  0  0  0  0
 15 16  1  0  0  0  0
 16 17  1  0  0  0  0
 17 18  2  0  0  0  0
 18 19  1  0  0  0  0
 19 20  1  0  0  0  0
 20 21  2  0  0  0  0
 20 22  1  0  0  0  0
 22 15  1  0  0  0  0
 18 23  1  0  0  0  0
 23 24  2  0  0  0  0
 24 25  1  0  0  0  0
 25 26  2  0  0  0  0
 26 17  1  0  0  0  0
 26 27  1  0  0  0  0
 27 28  2  0  0  0  0
 28 29  1  0  0  0  0
 29 16  2  0  0  0  0
 12 30  1  0  0  0  0
 30 31  1  0  0  0  0
 31 32  1  0  0  0  0
 32 33  1  0  0  0  0
 33 11  1  0  0  0  0
 10 34  1  0  0  0  0
 34 35  1  0  0  0  0
 35 36  1  0  0  0  0
 36 10  1  0  0  0  0
  5 37  1  0  0  0  0
  5 38  1  0  0  0  0
  5 39  1  0  0  0  0
  6 40  1  0  0  0  0
  6 41  1  0  0  0  0
  6 42  1  0  0  0  0
  7 43  1  0  0  0  0
  7 44  1  0  0  0  0
  7 45  1  0  0  0  0
  8 46  1  0  0  0  0
  9 47  1  0  0  0  0
  9 48  1  0  0  0  0
 11 49  1  0  0  0  0
 19 50  1  0  0  0  0
 22 51  1  0  0  0  0
 22 52  1  0  0  0  0
 23 53  1  0  0  0  0
 24 54  1  0  0  0  0
 25 55  1  0  0  0  0
 27 56  1  0  0  0  0
 28 57  1  0  0  0  0
 29 58  1  0  0  0  0
 30 59  1  0  0  0  0
 30 60  1  0  0  0  0
 31 61  1  0  0  0  0
 31 62  1  0  0  0  0
 32 63  1  0  0  0  0
 32 64  1  0  0  0  0
 33 65  1  0  0  0  0
 33 66  1  0  0  0  0
 34 67  1  0  0  0  0
 34 68  1  0  0  0  0
 35 69  1  0  0  0  0
 35 70  1  0  0  0  0
 36 71  1  0  0  0  0
 36 72  1  0  0  0  0
M  END
>  <result-rank>
36

>  <similarity>
0.899

>  <query-name>


>  <query-smiles>
S1c2c(cccc2)C(C(=O)N3CCC([N@H+]4CC5(C(=O)N6N(C5=O)CCCC6)CCC4)CC3)=C1NC(=O)NC

>  <source>
REALspace_2019-12

>  <similarity-descriptor>
0.999;0.895;0.895;0.708;0.992;0.795;0.994;0.895;0.895;0.895;0.895;0.0

>  <similarity-descriptor-smiles>
C1CCCCN1;N1CC(Nc2c3c1cccc3ccc2)=O;N1CC(Nc2c3c1cccc3ccc2)=O;O=CO;NCC1CCC1;C(C)(C)C;C=O;N1CC(Nc2c3c1cccc3ccc2)=O;N1CC(Nc2c3c1cccc3ccc2)=O;N1CC(Nc2c3c1cccc3ccc2)=O;N1CC(Nc2c3c1cccc3ccc2)=O;

>  <reaction-name>
s_272164

>  <reagent1-name>
9389230

>  <reagent1-smiles>
[R1*]C(=O)N1c2c3c(NC(=O)C1)cccc3ccc2

>  <reagent2-name>
17339712

>  <reagent2-smiles>
[R1*]N1C(C2(CNC(=O)OC(C)(C)C)CCC2)CCCC1

$$$$
m_274310____14112962____14120794____15870848
          04022017303D 1   1.00000     0.00000     0
            
 69 73  0  0  0  0            999 V2000
    7.0547   -3.8389   11.7234 F   0  0  0  0  0  0  0  0  0  0  0  0
    6.2219   -4.6696   11.1025 C   0  0  0  0  0  0  0  0  0  0  0  0
    5.2138   -4.1642   10.2868 C   0  0  0  0  0  0  0  0  0  0  0  0
    5.0707   -2.7313   10.1143 C   0  0  0  0  0  0  0  0  0  0  0  0
    5.1640   -2.1343    8.9137 N   0  0  0  0  0  0  0  0  0  0  0  0
    5.0322   -0.8068    8.7534 C   0  0  0  0  0  0  0  0  0  0  0  0
    4.7983   -0.0378    9.8279 N   0  0  0  0  0  0  0  0  0  0  0  0
    4.6931   -0.5651   11.0566 C   0  0  0  0  0  0  0  0  0  0  0  0
    4.8280   -1.9381   11.2310 C   0  0  0  0  0  0  0  0  0  0  0  0
    5.1316   -0.1954    7.4961 N   0  0  0  0  0  0  0  0  0  0  0  0
    4.9732    1.2660    7.4175 C   0  0  0  0  0  0  0  0  0  0  0  0
    4.3364    1.7003    6.1046 C   0  0  0  0  0  0  0  0  0  0  0  0
    4.9584    1.0023    4.9033 C   0  0  0  0  0  0  0  0  0  0  0  0
    4.1958    1.4438    3.6644 C   0  0  3  0  0  0  0  0  0  0  0  0
    4.3233    2.9558    3.5406 C   0  0  0  0  0  0  0  0  0  0  0  0
    3.4087    3.5093    2.5281 N   0  0  0  0  0  0  0  0  0  0  0  0
    3.8110    4.6328    1.7976 C   0  0  0  0  0  0  0  0  0  0  0  0
    4.8848    5.1280    2.0014 O   0  0  0  0  0  0  0  0  0  0  0  0
    2.8878    5.2259    0.7458 C   0  0  0  0  0  0  0  0  0  0  0  0
    2.6775    4.6287   -0.2736 O   0  0  0  0  0  0  0  0  0  0  0  0
    2.2819    6.4707    0.9666 N   0  0  0  0  0  0  0  0  0  0  0  0
    1.3761    7.1456    0.0336 C   0  0  0  0  0  0  0  0  0  0  0  0
    0.3979    7.8188    0.9666 C   0  0  3  0  0  0  0  0  0  0  0  0
    1.2256    8.2142    2.1712 C   0  0  0  0  0  0  0  0  0  0  0  0
    2.4406    7.2996    2.1664 C   0  0  0  0  0  0  0  0  0  0  0  0
   -0.2337    9.0450    0.3277 C   0  0  0  0  0  0  0  0  0  0  0  0
    2.0852    2.9288    2.2459 C   0  0  0  0  0  0  0  0  0  0  0  0
    2.0724    1.4186    2.4401 C   0  0  0  0  0  0  0  0  0  0  0  0
    2.7443    0.9913    3.7385 C   0  0  0  0  0  0  0  0  0  0  0  0
    4.7294   -0.4939    5.0640 C   0  0  0  0  0  0  0  0  0  0  0  0
    5.3845   -1.0472    6.3221 C   0  0  0  0  0  0  0  0  0  0  0  0
    4.3432   -5.0327    9.6380 C   0  0  0  0  0  0  0  0  0  0  0  0
    4.4808   -6.4070    9.8027 C   0  0  0  0  0  0  0  0  0  0  0  0
    5.4886   -6.9125   10.6179 C   0  0  0  0  0  0  0  0  0  0  0  0
    6.3592   -6.0438   11.2672 C   0  0  0  0  0  0  0  0  0  0  0  0
    4.5183    0.0265   11.8437 H   0  0  0  0  0  0  0  0  0  0  0  0
    4.7523   -2.3469   12.1405 H   0  0  0  0  0  0  0  0  0  0  0  0
    5.8740    1.6932    7.4964 H   0  0  0  0  0  0  0  0  0  0  0  0
    4.3932    1.5691    8.1736 H   0  0  0  0  0  0  0  0  0  0  0  0
    3.3606    1.4834    6.1330 H   0  0  0  0  0  0  0  0  0  0  0  0
    4.4555    2.6877    6.0003 H   0  0  0  0  0  0  0  0  0  0  0  0
    5.9326    1.2141    4.8246 H   0  0  0  0  0  0  0  0  0  0  0  0
    4.6198    1.0223    2.8629 H   0  0  0  0  0  0  0  0  0  0  0  0
    4.1128    3.3705    4.4259 H   0  0  0  0  0  0  0  0  0  0  0  0
    5.2632    3.1798    3.2827 H   0  0  0  0  0  0  0  0  0  0  0  0
    0.9147    6.4886   -0.5626 H   0  0  0  0  0  0  0  0  0  0  0  0
    1.8647    7.8163   -0.5245 H   0  0  0  0  0  0  0  0  0  0  0  0
   -0.3139    7.1715    1.2394 H   0  0  0  0  0  0  0  0  0  0  0  0
    0.6986    8.0868    3.0114 H   0  0  0  0  0  0  0  0  0  0  0  0
    1.5104    9.1700    2.0980 H   0  0  0  0  0  0  0  0  0  0  0  0
    3.2839    7.8347    2.1157 H   0  0  0  0  0  0  0  0  0  0  0  0
    2.4560    6.7302    2.9883 H   0  0  0  0  0  0  0  0  0  0  0  0
   -0.8737    9.4640    0.9717 H   0  0  0  0  0  0  0  0  0  0  0  0
    0.4810    9.7034    0.0919 H   0  0  0  0  0  0  0  0  0  0  0  0
   -0.7238    8.7741   -0.5008 H   0  0  0  0  0  0  0  0  0  0  0  0
    1.8372    3.1348    1.2993 H   0  0  0  0  0  0  0  0  0  0  0  0
    1.4141    3.3395    2.8632 H   0  0  0  0  0  0  0  0  0  0  0  0
    2.5545    0.9928    1.6745 H   0  0  0  0  0  0  0  0  0  0  0  0
    1.1230    1.1049    2.4521 H   0  0  0  0  0  0  0  0  0  0  0  0
    2.2900    1.4234    4.5176 H   0  0  0  0  0  0  0  0  0  0  0  0
    2.6999   -0.0029    3.8361 H   0  0  0  0  0  0  0  0  0  0  0  0
    5.1114   -0.9649    4.2689 H   0  0  0  0  0  0  0  0  0  0  0  0
    3.7454   -0.6653    5.1120 H   0  0  0  0  0  0  0  0  0  0  0  0
    5.0191   -1.9606    6.5013 H   0  0  0  0  0  0  0  0  0  0  0  0
    6.3715   -1.1063    6.1728 H   0  0  0  0  0  0  0  0  0  0  0  0
    3.6182   -4.6694    9.0529 H   0  0  0  0  0  0  0  0  0  0  0  0
    3.8554   -7.0318    9.3352 H   0  0  0  0  0  0  0  0  0  0  0  0
    5.5870   -7.9005   10.7370 H   0  0  0  0  0  0  0  0  0  0  0  0
    7.0840   -6.4072   11.8525 H   0  0  0  0  0  0  0  0  0  0  0  0
  1  2  1  0  0  0  0
  2  3  1  0  0  0  0
  3  4  1  0  0  0  0
  4  5  1  0  0  0  0
  5  6  2  0  0  0  0
  6  7  1  0  0  0  0
  7  8  2  0  0  0  0
  8  9  1  0  0  0  0
  9  4  2  0  0  0  0
  6 10  1  0  0  0  0
 10 11  1  0  0  0  0
 11 12  1  0  0  0  0
 12 13  1  0  0  0  0
 13 14  1  0  0  0  0
 14 15  1  0  0  0  0
 15 16  1  0  0  0  0
 16 17  1  0  0  0  0
 17 18  2  0  0  0  0
 17 19  1  0  0  0  0
 19 20  2  0  0  0  0
 19 21  1  0  0  0  0
 21 22  1  0  0  0  0
 22 23  1  0  0  0  0
 23 24  1  0  0  0  0
 24 25  1  0  0  0  0
 25 21  1  0  0  0  0
 23 26  1  0  0  0  0
 16 27  1  0  0  0  0
 27 28  1  0  0  0  0
 28 29  1  0  0  0  0
 29 14  1  0  0  0  0
 13 30  1  0  0  0  0
 30 31  1  0  0  0  0
 31 10  1  0  0  0  0
  3 32  2  0  0  0  0
 32 33  1  0  0  0  0
 33 34  2  0  0  0  0
 34 35  1  0  0  0  0
 35  2  2  0  0  0  0
  8 36  1  0  0  0  0
  9 37  1  0  0  0  0
 11 38  1  0  0  0  0
 11 39  1  0  0  0  0
 12 40  1  0  0  0  0
 12 41  1  0  0  0  0
 13 42  1  0  0  0  0
 14 43  1  0  0  0  0
 15 44  1  0  0  0  0
 15 45  1  0  0  0  0
 22 46  1  0  0  0  0
 22 47  1  0  0  0  0
 23 48  1  0  0  0  0
 24 49  1  0  0  0  0
 24 50  1  0  0  0  0
 25 51  1  0  0  0  0
 25 52  1  0  0  0  0
 26 53  1  0  0  0  0
 26 54  1  0  0  0  0
 26 55  1  0  0  0  0
 27 56  1  0  0  0  0
 27 57  1  0  0  0  0
 28 58  1  0  0  0  0
 28 59  1  0  0  0  0
 29 60  1  0  0  0  0
 29 61  1  0  0  0  0
 30 62  1  0  0  0  0
 30 63  1  0  0  0  0
 31 64  1  0  0  0  0
 31 65  1  0  0  0  0
 32 66  1  0  0  0  0
 33 67  1  0  0  0  0
 34 68  1  0  0  0  0
 35 69  1  0  0  0  0
M  END
>  <result-rank>
37

>  <similarity>
0.898

>  <query-name>


>  <query-smiles>
S1c2c(cccc2)C(C(=O)N3CCC([N@H+]4CC5(C(=O)N6N(C5=O)CCCC6)CCC4)CC3)=C1NC(=O)NC

>  <source>
REALspace_2019-12

>  <similarity-descriptor>
0.999;0.945;0.966;0.882;0.752;0.984;0.945;0.0;0.0;0.0;0.0;0.125

>  <similarity-descriptor-smiles>
N1CCCCC1;c1ccncn1;Fc1ccccc1;C(=O)C=O;C1CCCNC1;N1CCCC1;c1ccncn1;;;;;C

>  <reaction-name>
m_274310

>  <reagent1-name>
14112962

>  <reagent1-smiles>
[R1*]N1CC(C2CCN([R2*])CC2)CCC1

>  <reagent2-name>
14120794

>  <reagent2-smiles>
[R1*]C(=O)C(=O)N1CC(CC1)C

>  <reagent3-name>
15870848

>  <reagent3-smiles>
[R2*]c1nc(c2c(F)cccc2)ccn1

$$$$
m_275030____14114032____14123822____14147198
          04022017303D 1   1.00000     0.00000     0
            
 73 78  0  0  0  0            999 V2000
    7.0355   -1.2433    2.2805 O   0  0  0  0  0  0  0  0  0  0  0  0
    6.4397   -2.0669    2.9582 C   0  0  0  0  0  0  0  0  0  0  0  0
    5.4099   -1.7763    3.8526 N   0  0  0  0  0  0  0  0  0  0  0  0
    4.9347   -2.9356    4.4657 C   0  0  0  0  0  0  0  0  0  0  0  0
    4.0371   -3.0165    5.2963 O   0  0  0  0  0  0  0  0  0  0  0  0
    5.7630   -4.0658    3.8941 C   0  0  0  0  0  0  0  0  0  0  0  0
    6.6970   -3.4382    2.9532 N   0  0  0  0  0  0  0  0  0  0  0  0
    6.3517   -4.9262    4.9928 C   0  0  0  0  0  0  0  0  0  0  0  0
    6.7993   -6.1870    4.2815 C   0  0  0  0  0  0  0  0  0  0  0  0
    5.7569   -6.3663    3.1976 C   0  0  0  0  0  0  0  0  0  0  0  0
    4.8798   -5.1340    3.2905 C   0  0  0  0  0  0  0  0  0  0  0  0
    4.8858   -0.4290    4.1168 C   0  0  0  0  0  0  0  0  0  0  0  0
    3.7451   -0.1319    3.1570 C   0  0  0  0  0  0  0  0  0  0  0  0
    3.2207    1.2161    3.4213 N   0  3  3  0  0  0  0  0  0  0  0  0
    2.1200    1.4943    2.4902 C   0  0  0  0  0  0  0  0  0  0  0  0
    2.0264    3.0056    2.5174 C   0  0  3  0  0  0  0  0  0  0  0  0
    1.2837    3.5185    1.2940 C   0  0  0  0  0  0  0  0  0  0  0  0
   -0.1140    2.9157    1.3131 C   0  0  0  0  0  0  0  0  0  0  0  0
   -0.9789    3.4285    0.1699 C   0  0  0  0  0  0  0  0  0  0  0  0
   -0.8781    4.8890    0.0152 N   0  0  0  0  0  0  0  0  0  0  0  0
   -2.0017    5.5851   -0.4384 C   0  0  0  0  0  0  0  0  0  0  0  0
   -3.0138    4.9918   -0.6904 O   0  0  0  0  0  0  0  0  0  0  0  0
   -1.9444    7.0246   -0.6046 C   0  0  0  0  0  0  0  0  0  0  0  0
   -1.5390    7.5751   -1.8500 C   0  0  0  0  0  0  0  0  0  0  0  0
   -1.2377    6.8509   -2.7851 O   0  0  0  0  0  0  0  0  0  0  0  0
   -1.4976    8.9398   -1.9670 N   0  0  0  0  0  0  0  0  0  0  0  0
   -1.8388    9.7436   -0.9107 C   0  0  0  0  0  0  0  0  0  0  0  0
   -2.2286    9.2359    0.2825 N   0  0  0  0  0  0  0  0  0  0  0  0
   -2.5026   10.2145    1.1222 N   0  0  0  0  0  0  0  0  0  0  0  0
   -2.3031   11.3630    0.5247 C   0  0  0  0  0  0  0  0  0  0  0  0
   -1.8735   11.0995   -0.7939 C   0  0  0  0  0  0  0  0  0  0  0  0
   -2.5018   12.7377    1.1429 C   0  0  0  0  0  0  0  0  0  0  0  0
   -2.2765    7.8730    0.4195 C   0  0  0  0  0  0  0  0  0  0  0  0
    0.3433    5.6533    0.3178 C   0  0  0  0  0  0  0  0  0  0  0  0
    1.1428    5.0259    1.4514 C   0  0  0  0  0  0  0  0  0  0  0  0
    3.4945    3.3904    2.4629 C   0  0  0  0  0  0  0  0  0  0  0  0
    4.2351    2.2138    3.0607 C   0  0  0  0  0  0  0  0  0  0  0  0
    2.9301    1.3163    4.3729 H   0  0  0  0  0  0  0  0  0  0  0  0
    7.3914   -3.9075    2.4078 H   0  0  0  0  0  0  0  0  0  0  0  0
    5.6622   -5.1363    5.6861 H   0  0  0  0  0  0  0  0  0  0  0  0
    7.1288   -4.4676    5.4239 H   0  0  0  0  0  0  0  0  0  0  0  0
    6.8042   -6.9679    4.9061 H   0  0  0  0  0  0  0  0  0  0  0  0
    7.7105   -6.0707    3.8862 H   0  0  0  0  0  0  0  0  0  0  0  0
    6.1907   -6.4221    2.2983 H   0  0  0  0  0  0  0  0  0  0  0  0
    5.2193   -7.1937    3.3602 H   0  0  0  0  0  0  0  0  0  0  0  0
    4.5654   -4.8576    2.3824 H   0  0  0  0  0  0  0  0  0  0  0  0
    4.0896   -5.3092    3.8778 H   0  0  0  0  0  0  0  0  0  0  0  0
    5.6144    0.2435    3.9869 H   0  0  0  0  0  0  0  0  0  0  0  0
    4.5509   -0.3802    5.0578 H   0  0  0  0  0  0  0  0  0  0  0  0
    4.0800   -0.1808    2.2160 H   0  0  0  0  0  0  0  0  0  0  0  0
    3.0165   -0.8044    3.2868 H   0  0  0  0  0  0  0  0  0  0  0  0
    1.2682    1.0756    2.8049 H   0  0  0  0  0  0  0  0  0  0  0  0
    2.3342    1.1638    1.5710 H   0  0  0  0  0  0  0  0  0  0  0  0
    1.5987    3.3271    3.3622 H   0  0  0  0  0  0  0  0  0  0  0  0
    1.7682    3.2852    0.4509 H   0  0  0  0  0  0  0  0  0  0  0  0
   -0.5539    3.1506    2.1798 H   0  0  0  0  0  0  0  0  0  0  0  0
   -0.0367    1.9216    1.2371 H   0  0  0  0  0  0  0  0  0  0  0  0
   -0.6827    2.9925   -0.6799 H   0  0  0  0  0  0  0  0  0  0  0  0
   -1.9321    3.1882    0.3533 H   0  0  0  0  0  0  0  0  0  0  0  0
   -1.2154    9.3537   -2.8325 H   0  0  0  0  0  0  0  0  0  0  0  0
   -1.6421   11.7711   -1.4978 H   0  0  0  0  0  0  0  0  0  0  0  0
   -2.2784   13.4417    0.4688 H   0  0  0  0  0  0  0  0  0  0  0  0
   -3.4546   12.8401    1.4286 H   0  0  0  0  0  0  0  0  0  0  0  0
   -1.9030   12.8354    1.9378 H   0  0  0  0  0  0  0  0  0  0  0  0
   -2.5632    7.4849    1.2954 H   0  0  0  0  0  0  0  0  0  0  0  0
    0.0855    6.5831    0.5807 H   0  0  0  0  0  0  0  0  0  0  0  0
    0.9155    5.6852   -0.5017 H   0  0  0  0  0  0  0  0  0  0  0  0
    2.0555    5.4344    1.4656 H   0  0  0  0  0  0  0  0  0  0  0  0
    0.6787    5.2169    2.3163 H   0  0  0  0  0  0  0  0  0  0  0  0
    3.6603    4.2182    2.9989 H   0  0  0  0  0  0  0  0  0  0  0  0
    3.7824    3.5424    1.5173 H   0  0  0  0  0  0  0  0  0  0  0  0
    4.8720    1.8313    2.3914 H   0  0  0  0  0  0  0  0  0  0  0  0
    4.7399    2.5017    3.8745 H   0  0  0  0  0  0  0  0  0  0  0  0
  1  2  2  0  0  0  0
  2  3  1  0  0  0  0
  3  4  1  0  0  0  0
  4  5  2  0  0  0  0
  4  6  1  0  0  0  0
  6  7  1  0  0  0  0
  7  2  1  0  0  0  0
  6  8  1  0  0  0  0
  8  9  1  0  0  0  0
  9 10  1  0  0  0  0
 10 11  1  0  0  0  0
 11  6  1  0  0  0  0
  3 12  1  0  0  0  0
 12 13  1  0  0  0  0
 13 14  1  0  0  0  0
 14 15  1  0  0  0  0
 15 16  1  0  0  0  0
 16 17  1  0  0  0  0
 17 18  1  0  0  0  0
 18 19  1  0  0  0  0
 19 20  1  0  0  0  0
 20 21  1  0  0  0  0
 21 22  2  0  0  0  0
 21 23  1  0  0  0  0
 23 24  1  0  0  0  0
 24 25  2  0  0  0  0
 24 26  1  0  0  0  0
 26 27  1  0  0  0  0
 27 28  1  0  0  0  0
 28 29  1  0  0  0  0
 29 30  2  0  0  0  0
 30 31  1  0  0  0  0
 27 31  2  0  0  0  0
 30 32  1  0  0  0  0
 28 33  1  0  0  0  0
 23 33  2  0  0  0  0
 20 34  1  0  0  0  0
 34 35  1  0  0  0  0
 35 17  1  0  0  0  0
 16 36  1  0  0  0  0
 36 37  1  0  0  0  0
 37 14  1  0  0  0  0
 14 38  1  0  0  0  0
  7 39  1  0  0  0  0
  8 40  1  0  0  0  0
  8 41  1  0  0  0  0
  9 42  1  0  0  0  0
  9 43  1  0  0  0  0
 10 44  1  0  0  0  0
 10 45  1  0  0  0  0
 11 46  1  0  0  0  0
 11 47  1  0  0  0  0
 12 48  1  0  0  0  0
 12 49  1  0  0  0  0
 13 50  1  0  0  0  0
 13 51  1  0  0  0  0
 15 52  1  0  0  0  0
 15 53  1  0  0  0  0
 16 54  1  0  0  0  0
 17 55  1  0  0  0  0
 18 56  1  0  0  0  0
 18 57  1  0  0  0  0
 19 58  1  0  0  0  0
 19 59  1  0  0  0  0
 26 60  1  0  0  0  0
 31 61  1  0  0  0  0
 32 62  1  0  0  0  0
 32 63  1  0  0  0  0
 32 64  1  0  0  0  0
 33 65  1  0  0  0  0
 34 66  1  0  0  0  0
 34 67  1  0  0  0  0
 35 68  1  0  0  0  0
 35 69  1  0  0  0  0
 36 70  1  0  0  0  0
 36 71  1  0  0  0  0
 37 72  1  0  0  0  0
 37 73  1  0  0  0  0
M  CHG  1  14   1
M  END
>  <result-rank>
38

>  <similarity>
0.898

>  <query-name>


>  <query-smiles>
S1c2c(cccc2)C(C(=O)N3CCC([N@H+]4CC5(C(=O)N6N(C5=O)CCCC6)CCC4)CC3)=C1NC(=O)NC

>  <source>
REALspace_2019-12

>  <similarity-descriptor>
0.999;0.918;0.680;0.859;0.936;0.994;1.000;0.918;0.918;0.0;0.0;0.0

>  <similarity-descriptor-smiles>
C1CCNCC1;C1=CNCNC1=O;C1=CC(=NN1)C;O=C1NCC(N1C)=O;C[NH+]1CCCC1;C1CCCC1;C=O;C1=CNCNC1=O;C1=CNCNC1=O;;;

>  <reaction-name>
m_275030

>  <reagent1-name>
14114032

>  <reagent1-smiles>
[R2*]N1CC(C2CCN([R1*])CC2)CC1

>  <reagent2-name>
14123822

>  <reagent2-smiles>
[R1*]C(=O)C=1C(=O)NC=2N(N=C(C2)C)C1

>  <reagent3-name>
14147198

>  <reagent3-smiles>
[R2*]CCN1C(=O)NC2(C1=O)CCCC2

$$$$
m_275592____15865406____14138174____14133266
          04022017303D 1   1.00000     0.00000     0
            
 67 71  0  0  0  0            999 V2000
    9.7834   -2.7964   12.8307 F   0  0  0  0  0  0  0  0  0  0  0  0
    9.3590   -1.8117   12.0385 C   0  0  0  0  0  0  0  0  0  0  0  0
    8.3027   -1.9734   11.1436 C   0  0  0  0  0  0  0  0  0  0  0  0
    7.8620   -0.9439   10.3143 C   0  0  0  0  0  0  0  0  0  0  0  0
    8.5188    0.2599   10.4115 C   0  0  0  0  0  0  0  0  0  0  0  0
    7.9440    1.1239    9.5262 N   0  0  0  0  0  0  0  0  0  0  0  0
    6.9355    0.4847    8.8729 C   0  0  0  0  0  0  0  0  0  0  0  0
    6.0869    1.0715    7.8531 C   0  0  0  0  0  0  0  0  0  0  0  0
    6.2481    2.2139    7.5228 O   0  0  0  0  0  0  0  0  0  0  0  0
    5.1015    0.3216    7.2671 N   0  0  0  0  0  0  0  0  0  0  0  0
    4.2416    0.9162    6.2337 C   0  0  0  0  0  0  0  0  0  0  0  0
    4.9785    0.9204    4.9006 C   0  0  3  0  0  0  0  0  0  0  0  0
    4.1805    1.5154    3.7551 C   0  0  0  0  0  0  0  0  0  0  0  0
    4.1206    3.0364    3.8191 C   0  0  0  0  0  0  0  0  0  0  0  0
    3.3021    3.6889    2.7102 C   0  0  0  0  0  0  0  0  0  0  0  0
    2.0211    2.9853    2.5227 N   0  0  0  0  0  0  0  0  0  0  0  0
    0.8892    3.7522    2.2300 C   0  0  0  0  0  0  0  0  0  0  0  0
    0.9800    4.9453    2.1388 O   0  0  0  0  0  0  0  0  0  0  0  0
   -0.4563    3.0747    2.0275 C   0  0  0  0  0  0  0  0  0  0  0  0
   -0.6492    2.4034    1.0517 O   0  0  0  0  0  0  0  0  0  0  0  0
   -1.4719    3.2341    2.9806 N   0  0  0  0  0  0  0  0  0  0  0  0
   -2.8064    2.6349    2.8998 C   0  0  0  0  0  0  0  0  0  0  0  0
   -3.1079    2.3269    4.3472 C   0  0  3  0  0  0  0  0  0  0  0  0
   -2.4559    3.4516    5.1233 C   0  0  0  0  0  0  0  0  0  0  0  0
   -1.3693    4.0129    4.2194 C   0  0  0  0  0  0  0  0  0  0  0  0
   -4.6041    2.2926    4.6135 C   0  0  0  0  0  0  0  0  0  0  0  0
    1.8574    1.5290    2.6349 C   0  0  0  0  0  0  0  0  0  0  0  0
    2.7246    1.0597    3.7917 C   0  0  0  0  0  0  0  0  0  0  0  0
    5.0819    1.0325    2.6393 C   0  0  0  0  0  0  0  0  0  0  0  0
    5.2857   -0.4375    2.9461 C   0  0  0  0  0  0  0  0  0  0  0  0
    5.2524   -0.5051    4.4570 C   0  0  0  0  0  0  0  0  0  0  0  0
    6.8552   -0.7962    9.3334 C   0  0  0  0  0  0  0  0  0  0  0  0
    9.5763    0.4598   11.2923 C   0  0  0  0  0  0  0  0  0  0  0  0
   10.0012   -0.5794   12.1118 C   0  0  0  0  0  0  0  0  0  0  0  0
    7.8443   -2.8608   11.0950 H   0  0  0  0  0  0  0  0  0  0  0  0
    8.2194    2.0742    9.3806 H   0  0  0  0  0  0  0  0  0  0  0  0
    4.9672   -0.6304    7.5423 H   0  0  0  0  0  0  0  0  0  0  0  0
    4.0122    1.8550    6.4907 H   0  0  0  0  0  0  0  0  0  0  0  0
    3.4023    0.3793    6.1490 H   0  0  0  0  0  0  0  0  0  0  0  0
    5.8433    1.4130    4.9976 H   0  0  0  0  0  0  0  0  0  0  0  0
    5.0553    3.3876    3.7642 H   0  0  0  0  0  0  0  0  0  0  0  0
    3.7181    3.2956    4.6971 H   0  0  0  0  0  0  0  0  0  0  0  0
    3.1203    4.6415    2.9539 H   0  0  0  0  0  0  0  0  0  0  0  0
    3.8219    3.6566    1.8565 H   0  0  0  0  0  0  0  0  0  0  0  0
   -2.7968    1.8020    2.3466 H   0  0  0  0  0  0  0  0  0  0  0  0
   -3.4705    3.2793    2.5206 H   0  0  0  0  0  0  0  0  0  0  0  0
   -2.6958    1.4524    4.6028 H   0  0  0  0  0  0  0  0  0  0  0  0
   -2.0562    3.1023    5.9708 H   0  0  0  0  0  0  0  0  0  0  0  0
   -3.1281    4.1599    5.3389 H   0  0  0  0  0  0  0  0  0  0  0  0
   -1.5278    4.9836    4.0392 H   0  0  0  0  0  0  0  0  0  0  0  0
   -0.4682    3.8941    4.6364 H   0  0  0  0  0  0  0  0  0  0  0  0
   -4.7662    2.0866    5.5786 H   0  0  0  0  0  0  0  0  0  0  0  0
   -5.0028    3.1822    4.3911 H   0  0  0  0  0  0  0  0  0  0  0  0
   -5.0275    1.5862    4.0463 H   0  0  0  0  0  0  0  0  0  0  0  0
    2.1498    1.0862    1.7873 H   0  0  0  0  0  0  0  0  0  0  0  0
    0.8992    1.3059    2.8141 H   0  0  0  0  0  0  0  0  0  0  0  0
    2.3173    1.4006    4.6389 H   0  0  0  0  0  0  0  0  0  0  0  0
    2.7158    0.0598    3.7963 H   0  0  0  0  0  0  0  0  0  0  0  0
    5.9537    1.5222    2.6490 H   0  0  0  0  0  0  0  0  0  0  0  0
    4.6420    1.1526    1.7493 H   0  0  0  0  0  0  0  0  0  0  0  0
    6.1669   -0.7548    2.5956 H   0  0  0  0  0  0  0  0  0  0  0  0
    4.5514   -0.9884    2.5495 H   0  0  0  0  0  0  0  0  0  0  0  0
    4.5245   -1.1168    4.7667 H   0  0  0  0  0  0  0  0  0  0  0  0
    6.1302   -0.8233    4.8152 H   0  0  0  0  0  0  0  0  0  0  0  0
    6.2077   -1.4971    9.0344 H   0  0  0  0  0  0  0  0  0  0  0  0
   10.0303    1.3497   11.3359 H   0  0  0  0  0  0  0  0  0  0  0  0
   10.7608   -0.4428   12.7477 H   0  0  0  0  0  0  0  0  0  0  0  0
  1  2  1  0  0  0  0
  2  3  1  0  0  0  0
  3  4  2  0  0  0  0
  4  5  1  0  0  0  0
  5  6  1  0  0  0  0
  6  7  1  0  0  0  0
  7  8  1  0  0  0  0
  8  9  2  0  0  0  0
  8 10  1  0  0  0  0
 10 11  1  0  0  0  0
 11 12  1  0  0  0  0
 12 13  1  0  0  0  0
 13 14  1  0  0  0  0
 14 15  1  0  0  0  0
 15 16  1  0  0  0  0
 16 17  1  0  0  0  0
 17 18  2  0  0  0  0
 17 19  1  0  0  0  0
 19 20  2  0  0  0  0
 19 21  1  0  0  0  0
 21 22  1  0  0  0  0
 22 23  1  0  0  0  0
 23 24  1  0  0  0  0
 24 25  1  0  0  0  0
 25 21  1  0  0  0  0
 23 26  1  0  0  0  0
 16 27  1  0  0  0  0
 27 28  1  0  0  0  0
 28 13  1  0  0  0  0
 13 29  1  0  0  0  0
 29 30  1  0  0  0  0
 30 31  1  0  0  0  0
 31 12  1  0  0  0  0
  7 32  2  0  0  0  0
 32  4  1  0  0  0  0
  5 33  2  0  0  0  0
 33 34  1  0  0  0  0
 34  2  2  0  0  0  0
  3 35  1  0  0  0  0
  6 36  1  0  0  0  0
 10 37  1  0  0  0  0
 11 38  1  0  0  0  0
 11 39  1  0  0  0  0
 12 40  1  0  0  0  0
 14 41  1  0  0  0  0
 14 42  1  0  0  0  0
 15 43  1  0  0  0  0
 15 44  1  0  0  0  0
 22 45  1  0  0  0  0
 22 46  1  0  0  0  0
 23 47  1  0  0  0  0
 24 48  1  0  0  0  0
 24 49  1  0  0  0  0
 25 50  1  0  0  0  0
 25 51  1  0  0  0  0
 26 52  1  0  0  0  0
 26 53  1  0  0  0  0
 26 54  1  0  0  0  0
 27 55  1  0  0  0  0
 27 56  1  0  0  0  0
 28 57  1  0  0  0  0
 28 58  1  0  0  0  0
 29 59  1  0  0  0  0
 29 60  1  0  0  0  0
 30 61  1  0  0  0  0
 30 62  1  0  0  0  0
 31 63  1  0  0  0  0
 31 64  1  0  0  0  0
 32 65  1  0  0  0  0
 33 66  1  0  0  0  0
 34 67  1  0  0  0  0
M  END
>  <result-rank>
39

>  <similarity>
0.898

>  <query-name>


>  <query-smiles>
S1c2c(cccc2)C(C(=O)N3CCC([N@H+]4CC5(C(=O)N6N(C5=O)CCCC6)CCC4)CC3)=C1NC(=O)NC

>  <source>
REALspace_2019-12

>  <similarity-descriptor>
0.995;0.899;0.963;0.882;0.808;0.984;0.852;0.899;0.0;0.0;0.0;0.091

>  <similarity-descriptor-smiles>
CC1CCCC1;c1C=CNc1;Fc1ccccc1;C(=O)C=O;C1CCNCC1;N1CCCC1;C(=O)N;c1C=CNc1;;;;C

>  <reaction-name>
m_275592

>  <reagent1-name>
15865406

>  <reagent1-smiles>
[R2*]N1CCC2(C(CN[R1*])CCC2)CC1

>  <reagent2-name>
14138174

>  <reagent2-smiles>
[R1*]C(=O)C(=O)N1CC(CC1)C

>  <reagent3-name>
14133266

>  <reagent3-smiles>
[R2*]C(=O)C=1Nc2c(cc(F)cc2)C1

$$$$
m_276010b____17281604____17247274____13624678
          04022017303D 1   1.00000     0.00000     0
            
 62 67  0  0  0  0            999 V2000
   -1.7877    3.7613   -1.4044 Cl  0  0  0  0  0  0  0  0  0  0  0  0
   -2.4294    5.4214   -1.3471 C   0  0  0  0  0  0  0  0  0  0  0  0
   -2.4493    6.2527   -2.5010 C   0  0  0  0  0  0  0  0  0  0  0  0
   -2.9614    7.5441   -2.4028 C   0  0  0  0  0  0  0  0  0  0  0  0
   -3.4397    8.0020   -1.2027 N   0  0  0  0  0  0  0  0  0  0  0  0
   -3.4266    7.2120   -0.0823 C   0  0  0  0  0  0  0  0  0  0  0  0
   -3.8582    7.6445    0.9745 O   0  0  0  0  0  0  0  0  0  0  0  0
   -2.9102    5.8894   -0.1511 C   0  0  0  0  0  0  0  0  0  0  0  0
   -2.8960    5.0536    1.0344 C   0  0  0  0  0  0  0  0  0  0  0  0
   -3.9152    4.5625    1.4344 O   0  0  0  0  0  0  0  0  0  0  0  0
   -1.6894    4.8193    1.7141 N   0  0  0  0  0  0  0  0  0  0  0  0
   -0.4368    5.4983    1.3947 C   0  0  3  0  0  0  0  0  0  0  0  0
    0.7422    4.5483    1.2648 C   0  0  0  0  0  0  0  0  0  0  0  0
    0.8571    3.7663    2.5625 C   0  0  3  0  0  0  0  0  0  0  0  0
    2.0497    2.9093    2.5300 N   0  0  0  0  0  0  0  0  0  0  0  0
    3.2914    3.3277    2.5307 N   0  0  0  0  0  0  0  0  0  0  0  0
    4.0983    2.3562    2.5000 N   0  0  0  0  0  0  0  0  0  0  0  0
    3.3635    1.2089    2.4777 C   0  0  0  0  0  0  0  0  0  0  0  0
    2.0481    1.5507    2.4963 C   0  0  0  0  0  0  0  0  0  0  0  0
    3.9166   -0.2057    2.4415 C   0  0  0  0  0  0  0  0  0  0  0  0
    4.1102   -0.7123    3.8662 C   0  0  0  0  0  0  0  0  0  0  0  0
    2.9102   -0.7456    4.6265 O   0  0  0  0  0  0  0  0  0  0  0  0
    5.2765   -0.1316    4.6361 C   0  0  0  0  0  0  0  0  0  0  0  0
    6.1529   -1.1875    4.0097 C   0  0  0  0  0  0  0  0  0  0  0  0
    4.8817   -2.0086    3.9756 C   0  0  0  0  0  0  0  0  0  0  0  0
   -0.4048    2.9509    2.7943 C   0  0  0  0  0  0  0  0  0  0  0  0
   -1.5874    3.9049    2.8613 C   0  0  3  0  0  0  0  0  0  0  0  0
   -1.5353    4.8588    4.0448 C   0  0  0  0  0  0  0  0  0  0  0  0
   -1.3122    6.3193    3.6457 C   0  0  0  0  0  0  0  0  0  0  0  0
   -0.3050    6.5235    2.5173 C   0  0  0  0  0  0  0  0  0  0  0  0
   -2.9829    8.3600   -3.5291 C   0  0  0  0  0  0  0  0  0  0  0  0
   -2.4998    7.9047   -4.7506 C   0  0  0  0  0  0  0  0  0  0  0  0
   -1.9861    6.6171   -4.8587 C   0  0  0  0  0  0  0  0  0  0  0  0
   -1.9680    5.8067   -3.7287 C   0  0  0  0  0  0  0  0  0  0  0  0
   -3.8055    8.9307   -1.1433 H   0  0  0  0  0  0  0  0  0  0  0  0
   -0.5502    5.9861    0.5291 H   0  0  0  0  0  0  0  0  0  0  0  0
    0.5898    3.9200    0.5019 H   0  0  0  0  0  0  0  0  0  0  0  0
    1.5815    5.0681    1.1059 H   0  0  0  0  0  0  0  0  0  0  0  0
    0.9558    4.4167    3.3156 H   0  0  0  0  0  0  0  0  0  0  0  0
    1.2566    0.9395    2.4873 H   0  0  0  0  0  0  0  0  0  0  0  0
    4.7956   -0.2078    1.9646 H   0  0  0  0  0  0  0  0  0  0  0  0
    3.2747   -0.8024    1.9599 H   0  0  0  0  0  0  0  0  0  0  0  0
    3.1076   -1.0857    5.5460 H   0  0  0  0  0  0  0  0  0  0  0  0
    5.1920   -0.1990    5.6302 H   0  0  0  0  0  0  0  0  0  0  0  0
    5.5135    0.8068    4.3846 H   0  0  0  0  0  0  0  0  0  0  0  0
    6.8781   -1.5458    4.5977 H   0  0  0  0  0  0  0  0  0  0  0  0
    6.5344   -0.9520    3.1158 H   0  0  0  0  0  0  0  0  0  0  0  0
    4.7972   -2.6105    3.1814 H   0  0  0  0  0  0  0  0  0  0  0  0
    4.7016   -2.5300    4.8096 H   0  0  0  0  0  0  0  0  0  0  0  0
   -0.3281    2.4473    3.6548 H   0  0  0  0  0  0  0  0  0  0  0  0
   -0.5333    2.3060    2.0409 H   0  0  0  0  0  0  0  0  0  0  0  0
   -2.4292    3.3682    2.9191 H   0  0  0  0  0  0  0  0  0  0  0  0
   -0.7867    4.5773    4.6450 H   0  0  0  0  0  0  0  0  0  0  0  0
   -2.4017    4.7954    4.5402 H   0  0  0  0  0  0  0  0  0  0  0  0
   -2.1894    6.7002    3.3534 H   0  0  0  0  0  0  0  0  0  0  0  0
   -0.9847    6.8157    4.4497 H   0  0  0  0  0  0  0  0  0  0  0  0
   -0.4420    7.4357    2.1312 H   0  0  0  0  0  0  0  0  0  0  0  0
    0.6168    6.4583    2.8995 H   0  0  0  0  0  0  0  0  0  0  0  0
   -3.3510    9.2872   -3.4593 H   0  0  0  0  0  0  0  0  0  0  0  0
   -2.5218    8.5031   -5.5514 H   0  0  0  0  0  0  0  0  0  0  0  0
   -1.6362    6.2801   -5.7328 H   0  0  0  0  0  0  0  0  0  0  0  0
   -1.5998    4.8797   -3.7999 H   0  0  0  0  0  0  0  0  0  0  0  0
  1  2  1  0  0  0  0
  2  3  1  0  0  0  0
  3  4  1  0  0  0  0
  4  5  1  0  0  0  0
  5  6  1  0  0  0  0
  6  7  2  0  0  0  0
  6  8  1  0  0  0  0
  2  8  2  0  0  0  0
  8  9  1  0  0  0  0
  9 10  2  0  0  0  0
  9 11  1  0  0  0  0
 11 12  1  0  0  0  0
 12 13  1  0  0  0  0
 13 14  1  0  0  0  0
 14 15  1  0  0  0  0
 15 16  1  0  0  0  0
 16 17  2  0  0  0  0
 17 18  1  0  0  0  0
 18 19  2  0  0  0  0
 19 15  1  0  0  0  0
 18 20  1  0  0  0  0
 20 21  1  0  0  0  0
 21 22  1  0  0  0  0
 21 23  1  0  0  0  0
 23 24  1  0  0  0  0
 24 25  1  0  0  0  0
 25 21  1  0  0  0  0
 14 26  1  0  0  0  0
 26 27  1  0  0  0  0
 27 11  1  0  0  0  0
 27 28  1  0  0  0  0
 28 29  1  0  0  0  0
 29 30  1  0  0  0  0
 30 12  1  0  0  0  0
  4 31  2  0  0  0  0
 31 32  1  0  0  0  0
 32 33  2  0  0  0  0
 33 34  1  0  0  0  0
 34  3  2  0  0  0  0
  5 35  1  0  0  0  0
 12 36  1  0  0  0  0
 13 37  1  0  0  0  0
 13 38  1  0  0  0  0
 14 39  1  0  0  0  0
 19 40  1  0  0  0  0
 20 41  1  0  0  0  0
 20 42  1  0  0  0  0
 22 43  1  0  0  0  0
 23 44  1  0  0  0  0
 23 45  1  0  0  0  0
 24 46  1  0  0  0  0
 24 47  1  0  0  0  0
 25 48  1  0  0  0  0
 25 49  1  0  0  0  0
 26 50  1  0  0  0  0
 26 51  1  0  0  0  0
 27 52  1  0  0  0  0
 28 53  1  0  0  0  0
 28 54  1  0  0  0  0
 29 55  1  0  0  0  0
 29 56  1  0  0  0  0
 30 57  1  0  0  0  0
 30 58  1  0  0  0  0
 31 59  1  0  0  0  0
 32 60  1  0  0  0  0
 33 61  1  0  0  0  0
 34 62  1  0  0  0  0
M  END
>  <result-rank>
40

>  <similarity>
0.898

>  <query-name>


>  <query-smiles>
S1c2c(cccc2)C(C(=O)N3CCC([N@H+]4CC5(C(=O)N6N(C5=O)CCCC6)CCC4)CC3)=C1NC(=O)NC

>  <source>
REALspace_2019-12

>  <similarity-descriptor>
0.959;0.980;0.999;0.732;0.728;0.999;1.000;0.980;0.980;0.0;0.0;0.111

>  <similarity-descriptor-smiles>
N1CCCCC1;ClC1=CC(Ncc1)=O;c1ccccc1;N1C=CN=N1;N1CCCCC1;CC1CCC1;C=O;ClC1=CC(Ncc1)=O;ClC1=CC(Ncc1)=O;;;O

>  <reaction-name>
m_276010b

>  <reagent1-name>
17281604

>  <reagent1-smiles>
[R1*]N=NN([R2*])C1CC2N([R3*])C(C1)CCC2

>  <reagent2-name>
17247274

>  <reagent2-smiles>
[R3*]C(=O)C1=C(Cl)c2c(NC1=O)cccc2

>  <reagent3-name>
13624678

>  <reagent3-smiles>
[R1*]C(=C[R2*])CC1(O)CCC1

$$$$
m_274310____14112962____14121912____15870848
          04022017303D 1   1.00000     0.00000     0
            
 68 73  0  0  0  0            999 V2000
    7.0547   -3.8389   11.7234 F   0  0  0  0  0  0  0  0  0  0  0  0
    6.2219   -4.6696   11.1025 C   0  0  0  0  0  0  0  0  0  0  0  0
    5.2138   -4.1642   10.2868 C   0  0  0  0  0  0  0  0  0  0  0  0
    5.0707   -2.7313   10.1143 C   0  0  0  0  0  0  0  0  0  0  0  0
    5.1640   -2.1343    8.9137 N   0  0  0  0  0  0  0  0  0  0  0  0
    5.0322   -0.8068    8.7534 C   0  0  0  0  0  0  0  0  0  0  0  0
    4.7983   -0.0378    9.8279 N   0  0  0  0  0  0  0  0  0  0  0  0
    4.6931   -0.5651   11.0566 C   0  0  0  0  0  0  0  0  0  0  0  0
    4.8280   -1.9381   11.2310 C   0  0  0  0  0  0  0  0  0  0  0  0
    5.1316   -0.1954    7.4961 N   0  0  0  0  0  0  0  0  0  0  0  0
    4.9732    1.2660    7.4175 C   0  0  0  0  0  0  0  0  0  0  0  0
    4.3364    1.7003    6.1046 C   0  0  0  0  0  0  0  0  0  0  0  0
    4.9584    1.0023    4.9033 C   0  0  0  0  0  0  0  0  0  0  0  0
    4.1958    1.4438    3.6644 C   0  0  3  0  0  0  0  0  0  0  0  0
    4.3233    2.9558    3.5406 C   0  0  0  0  0  0  0  0  0  0  0  0
    3.4087    3.5093    2.5281 N   0  0  0  0  0  0  0  0  0  0  0  0
    3.8110    4.6328    1.7976 C   0  0  0  0  0  0  0  0  0  0  0  0
    4.8848    5.1280    2.0014 O   0  0  0  0  0  0  0  0  0  0  0  0
    2.9305    5.1985    0.7945 C   0  0  0  0  0  0  0  0  0  0  0  0
    2.4566    4.5552   -0.3076 N   0  0  0  0  0  0  0  0  0  0  0  0
    1.7260    5.3715   -0.9360 N   0  0  0  0  0  0  0  0  0  0  0  0
    1.6737    6.5326   -0.3311 N   0  0  0  0  0  0  0  0  0  0  0  0
    2.4374    6.4672    0.7898 C   0  0  0  0  0  0  0  0  0  0  0  0
    0.9159    7.7094   -0.7918 C   0  0  0  0  0  0  0  0  0  0  0  0
   -0.1197    8.1538    0.2222 C   0  0  0  0  0  0  0  0  0  0  0  0
   -1.0080    8.4780   -0.9589 C   0  0  0  0  0  0  0  0  0  0  0  0
   -0.2504    7.3934   -1.7022 C   0  0  0  0  0  0  0  0  0  0  0  0
    2.0852    2.9288    2.2459 C   0  0  0  0  0  0  0  0  0  0  0  0
    2.0724    1.4186    2.4401 C   0  0  0  0  0  0  0  0  0  0  0  0
    2.7443    0.9913    3.7385 C   0  0  0  0  0  0  0  0  0  0  0  0
    4.7294   -0.4939    5.0640 C   0  0  0  0  0  0  0  0  0  0  0  0
    5.3845   -1.0472    6.3221 C   0  0  0  0  0  0  0  0  0  0  0  0
    4.3432   -5.0327    9.6380 C   0  0  0  0  0  0  0  0  0  0  0  0
    4.4808   -6.4070    9.8027 C   0  0  0  0  0  0  0  0  0  0  0  0
    5.4886   -6.9125   10.6179 C   0  0  0  0  0  0  0  0  0  0  0  0
    6.3592   -6.0438   11.2672 C   0  0  0  0  0  0  0  0  0  0  0  0
    4.5183    0.0265   11.8437 H   0  0  0  0  0  0  0  0  0  0  0  0
    4.7523   -2.3469   12.1405 H   0  0  0  0  0  0  0  0  0  0  0  0
    5.8740    1.6932    7.4964 H   0  0  0  0  0  0  0  0  0  0  0  0
    4.3932    1.5691    8.1736 H   0  0  0  0  0  0  0  0  0  0  0  0
    3.3606    1.4834    6.1330 H   0  0  0  0  0  0  0  0  0  0  0  0
    4.4555    2.6877    6.0003 H   0  0  0  0  0  0  0  0  0  0  0  0
    5.9326    1.2141    4.8246 H   0  0  0  0  0  0  0  0  0  0  0  0
    4.6198    1.0223    2.8629 H   0  0  0  0  0  0  0  0  0  0  0  0
    4.1128    3.3705    4.4259 H   0  0  0  0  0  0  0  0  0  0  0  0
    5.2632    3.1798    3.2827 H   0  0  0  0  0  0  0  0  0  0  0  0
    2.6010    7.1896    1.4617 H   0  0  0  0  0  0  0  0  0  0  0  0
    1.4948    8.4533   -1.1257 H   0  0  0  0  0  0  0  0  0  0  0  0
    0.1465    8.9425    0.7764 H   0  0  0  0  0  0  0  0  0  0  0  0
   -0.4622    7.4278    0.8185 H   0  0  0  0  0  0  0  0  0  0  0  0
   -0.8956    9.3998   -1.3298 H   0  0  0  0  0  0  0  0  0  0  0  0
   -1.9803    8.2915   -0.8182 H   0  0  0  0  0  0  0  0  0  0  0  0
   -0.6263    6.4724   -1.5993 H   0  0  0  0  0  0  0  0  0  0  0  0
   -0.0901    7.5816   -2.6712 H   0  0  0  0  0  0  0  0  0  0  0  0
    1.8372    3.1348    1.2993 H   0  0  0  0  0  0  0  0  0  0  0  0
    1.4141    3.3395    2.8632 H   0  0  0  0  0  0  0  0  0  0  0  0
    2.5545    0.9928    1.6745 H   0  0  0  0  0  0  0  0  0  0  0  0
    1.1230    1.1049    2.4521 H   0  0  0  0  0  0  0  0  0  0  0  0
    2.2900    1.4234    4.5176 H   0  0  0  0  0  0  0  0  0  0  0  0
    2.6999   -0.0029    3.8361 H   0  0  0  0  0  0  0  0  0  0  0  0
    5.1114   -0.9649    4.2689 H   0  0  0  0  0  0  0  0  0  0  0  0
    3.7454   -0.6653    5.1120 H   0  0  0  0  0  0  0  0  0  0  0  0
    5.0191   -1.9606    6.5013 H   0  0  0  0  0  0  0  0  0  0  0  0
    6.3715   -1.1063    6.1728 H   0  0  0  0  0  0  0  0  0  0  0  0
    3.6182   -4.6694    9.0529 H   0  0  0  0  0  0  0  0  0  0  0  0
    3.8554   -7.0318    9.3352 H   0  0  0  0  0  0  0  0  0  0  0  0
    5.5870   -7.9005   10.7370 H   0  0  0  0  0  0  0  0  0  0  0  0
    7.0840   -6.4072   11.8525 H   0  0  0  0  0  0  0  0  0  0  0  0
  1  2  1  0  0  0  0
  2  3  1  0  0  0  0
  3  4  1  0  0  0  0
  4  5  1  0  0  0  0
  5  6  2  0  0  0  0
  6  7  1  0  0  0  0
  7  8  2  0  0  0  0
  8  9  1  0  0  0  0
  9  4  2  0  0  0  0
  6 10  1  0  0  0  0
 10 11  1  0  0  0  0
 11 12  1  0  0  0  0
 12 13  1  0  0  0  0
 13 14  1  0  0  0  0
 14 15  1  0  0  0  0
 15 16  1  0  0  0  0
 16 17  1  0  0  0  0
 17 18  2  0  0  0  0
 17 19  1  0  0  0  0
 19 20  1  0  0  0  0
 20 21  2  0  0  0  0
 21 22  1  0  0  0  0
 22 23  1  0  0  0  0
 19 23  2  0  0  0  0
 22 24  1  0  0  0  0
 24 25  1  0  0  0  0
 25 26  1  0  0  0  0
 26 27  1  0  0  0  0
 27 24  1  0  0  0  0
 16 28  1  0  0  0  0
 28 29  1  0  0  0  0
 29 30  1  0  0  0  0
 30 14  1  0  0  0  0
 13 31  1  0  0  0  0
 31 32  1  0  0  0  0
 32 10  1  0  0  0  0
  3 33  2  0  0  0  0
 33 34  1  0  0  0  0
 34 35  2  0  0  0  0
 35 36  1  0  0  0  0
 36  2  2  0  0  0  0
  8 37  1  0  0  0  0
  9 38  1  0  0  0  0
 11 39  1  0  0  0  0
 11 40  1  0  0  0  0
 12 41  1  0  0  0  0
 12 42  1  0  0  0  0
 13 43  1  0  0  0  0
 14 44  1  0  0  0  0
 15 45  1  0  0  0  0
 15 46  1  0  0  0  0
 23 47  1  0  0  0  0
 24 48  1  0  0  0  0
 25 49  1  0  0  0  0
 25 50  1  0  0  0  0
 26 51  1  0  0  0  0
 26 52  1  0  0  0  0
 27 53  1  0  0  0  0
 27 54  1  0  0  0  0
 28 55  1  0  0  0  0
 28 56  1  0  0  0  0
 29 57  1  0  0  0  0
 29 58  1  0  0  0  0
 30 59  1  0  0  0  0
 30 60  1  0  0  0  0
 31 61  1  0  0  0  0
 31 62  1  0  0  0  0
 32 63  1  0  0  0  0
 32 64  1  0  0  0  0
 33 65  1  0  0  0  0
 34 66  1  0  0  0  0
 35 67  1  0  0  0  0
 36 68  1  0  0  0  0
M  END
>  <result-rank>
41

>  <similarity>
0.897

>  <query-name>


>  <query-smiles>
S1c2c(cccc2)C(C(=O)N3CCC([N@H+]4CC5(C(=O)N6N(C5=O)CCCC6)CCC4)CC3)=C1NC(=O)NC

>  <source>
REALspace_2019-12

>  <similarity-descriptor>
0.999;0.945;0.966;0.873;0.752;0.975;0.945;0.0;0.0;0.0;0.0;0.0

>  <similarity-descriptor-smiles>
N1CCCCC1;c1ccncn1;Fc1ccccc1;C(=O)C1=CNN=N1;C1CCCNC1;C1CCC1;c1ccncn1;;;;;

>  <reaction-name>
m_274310

>  <reagent1-name>
14112962

>  <reagent1-smiles>
[R1*]N1CC(C2CCN([R2*])CC2)CCC1

>  <reagent2-name>
14121912

>  <reagent2-smiles>
[R1*]C(=O)C=1N=NN(C1)C2CCC2

>  <reagent3-name>
15870848

>  <reagent3-smiles>
[R2*]c1nc(c2c(F)cccc2)ccn1

$$$$
m_275592____15865406____14141084____14133266
          04022017303D 1   1.00000     0.00000     0
            
 66 71  0  0  0  0            999 V2000
    4.5517    0.5431   -7.6713 F   0  0  0  0  0  0  0  0  0  0  0  0
    3.6552    0.2544   -6.7278 C   0  0  0  0  0  0  0  0  0  0  0  0
    3.7522    0.7464   -5.4273 C   0  0  0  0  0  0  0  0  0  0  0  0
    2.8158    0.4414   -4.4414 C   0  0  0  0  0  0  0  0  0  0  0  0
    1.7731   -0.3780   -4.8037 C   0  0  0  0  0  0  0  0  0  0  0  0
    0.9786   -0.5544   -3.7090 N   0  0  0  0  0  0  0  0  0  0  0  0
    1.5031    0.1406   -2.6629 C   0  0  0  0  0  0  0  0  0  0  0  0
    0.9432    0.2011   -1.3260 C   0  0  0  0  0  0  0  0  0  0  0  0
   -0.0665   -0.3950   -1.0708 O   0  0  0  0  0  0  0  0  0  0  0  0
    1.5673    0.9387   -0.3547 N   0  0  0  0  0  0  0  0  0  0  0  0
    1.0000    1.0000    1.0000 C   0  0  0  0  0  0  0  0  0  0  0  0
    1.8786    1.8786    1.8786 C   0  0  3  0  0  0  0  0  0  0  0  0
    2.9855    1.1383    2.6036 C   0  0  0  0  0  0  0  0  0  0  0  0
    4.1657    0.8405    1.6780 C   0  0  0  0  0  0  0  0  0  0  0  0
    5.2801    0.0206    2.3203 C   0  0  0  0  0  0  0  0  0  0  0  0
    4.7197   -1.0986    3.0920 N   0  0  0  0  0  0  0  0  0  0  0  0
    5.3852   -2.3266    3.0232 C   0  0  0  0  0  0  0  0  0  0  0  0
    6.2831   -2.4794    2.2419 O   0  0  0  0  0  0  0  0  0  0  0  0
    4.9904   -3.4149    3.8957 C   0  0  0  0  0  0  0  0  0  0  0  0
    5.0064   -3.3944    5.2566 N   0  0  0  0  0  0  0  0  0  0  0  0
    4.5960   -4.5202    5.6558 N   0  0  0  0  0  0  0  0  0  0  0  0
    4.3025   -5.3079    4.6507 N   0  0  0  0  0  0  0  0  0  0  0  0
    4.5430   -4.6364    3.4951 C   0  0  0  0  0  0  0  0  0  0  0  0
    3.7992   -6.6886    4.7580 C   0  0  0  0  0  0  0  0  0  0  0  0
    2.4829   -6.7594    5.5067 C   0  0  0  0  0  0  0  0  0  0  0  0
    2.9904   -8.0562    6.0979 C   0  0  0  0  0  0  0  0  0  0  0  0
    4.3835   -7.4871    5.9026 C   0  0  0  0  0  0  0  0  0  0  0  0
    3.5004   -1.0211    3.9146 C   0  0  0  0  0  0  0  0  0  0  0  0
    2.4678   -0.1806    3.1740 C   0  0  0  0  0  0  0  0  0  0  0  0
    3.4237    2.2405    3.5444 C   0  0  0  0  0  0  0  0  0  0  0  0
    2.2098    3.0798    3.8785 C   0  0  0  0  0  0  0  0  0  0  0  0
    1.1017    2.4863    3.0284 C   0  0  0  0  0  0  0  0  0  0  0  0
    2.6400    0.7688   -3.0779 C   0  0  0  0  0  0  0  0  0  0  0  0
    1.6420   -0.8880   -6.0908 C   0  0  0  0  0  0  0  0  0  0  0  0
    2.5863   -0.5719   -7.0606 C   0  0  0  0  0  0  0  0  0  0  0  0
    4.5221    1.3401   -5.1932 H   0  0  0  0  0  0  0  0  0  0  0  0
    0.1448   -1.1058   -3.6798 H   0  0  0  0  0  0  0  0  0  0  0  0
    2.4088    1.4355   -0.5674 H   0  0  0  0  0  0  0  0  0  0  0  0
    0.9583    0.0784    1.3859 H   0  0  0  0  0  0  0  0  0  0  0  0
    0.0784    1.3859    0.9583 H   0  0  0  0  0  0  0  0  0  0  0  0
    2.2764    2.6096    1.3242 H   0  0  0  0  0  0  0  0  0  0  0  0
    4.5530    1.7113    1.3753 H   0  0  0  0  0  0  0  0  0  0  0  0
    3.8223    0.3352    0.8864 H   0  0  0  0  0  0  0  0  0  0  0  0
    5.8772   -0.3404    1.6040 H   0  0  0  0  0  0  0  0  0  0  0  0
    5.8103    0.6084    2.9313 H   0  0  0  0  0  0  0  0  0  0  0  0
    4.4191   -4.9658    2.5590 H   0  0  0  0  0  0  0  0  0  0  0  0
    3.7923   -7.1814    3.8879 H   0  0  0  0  0  0  0  0  0  0  0  0
    1.6739   -6.8507    4.9260 H   0  0  0  0  0  0  0  0  0  0  0  0
    2.3365   -6.0247    6.1691 H   0  0  0  0  0  0  0  0  0  0  0  0
    2.7894   -8.8728    5.5567 H   0  0  0  0  0  0  0  0  0  0  0  0
    2.7302   -8.2151    7.0503 H   0  0  0  0  0  0  0  0  0  0  0  0
    4.7243   -6.9390    6.6664 H   0  0  0  0  0  0  0  0  0  0  0  0
    5.0773   -8.1564    5.6368 H   0  0  0  0  0  0  0  0  0  0  0  0
    3.7136   -0.5952    4.7939 H   0  0  0  0  0  0  0  0  0  0  0  0
    3.1387   -1.9406    4.0686 H   0  0  0  0  0  0  0  0  0  0  0  0
    2.1120   -0.7266    2.4155 H   0  0  0  0  0  0  0  0  0  0  0  0
    1.7258    0.0286    3.8109 H   0  0  0  0  0  0  0  0  0  0  0  0
    4.1177    2.8084    3.1020 H   0  0  0  0  0  0  0  0  0  0  0  0
    3.8018    1.8427    4.3804 H   0  0  0  0  0  0  0  0  0  0  0  0
    2.3650    4.0385    3.6400 H   0  0  0  0  0  0  0  0  0  0  0  0
    1.9871    3.0100    4.8508 H   0  0  0  0  0  0  0  0  0  0  0  0
    0.5918    1.7885    3.5315 H   0  0  0  0  0  0  0  0  0  0  0  0
    0.4714    3.1933    2.7077 H   0  0  0  0  0  0  0  0  0  0  0  0
    3.2355    1.3500   -2.5233 H   0  0  0  0  0  0  0  0  0  0  0  0
    0.8697   -1.4811   -6.3183 H   0  0  0  0  0  0  0  0  0  0  0  0
    2.4983   -0.9348   -7.9883 H   0  0  0  0  0  0  0  0  0  0  0  0
  1  2  1  0  0  0  0
  2  3  1  0  0  0  0
  3  4  2  0  0  0  0
  4  5  1  0  0  0  0
  5  6  1  0  0  0  0
  6  7  1  0  0  0  0
  7  8  1  0  0  0  0
  8  9  2  0  0  0  0
  8 10  1  0  0  0  0
 10 11  1  0  0  0  0
 11 12  1  0  0  0  0
 12 13  1  0  0  0  0
 13 14  1  0  0  0  0
 14 15  1  0  0  0  0
 15 16  1  0  0  0  0
 16 17  1  0  0  0  0
 17 18  2  0  0  0  0
 17 19  1  0  0  0  0
 19 20  1  0  0  0  0
 20 21  2  0  0  0  0
 21 22  1  0  0  0  0
 22 23  1  0  0  0  0
 19 23  2  0  0  0  0
 22 24  1  0  0  0  0
 24 25  1  0  0  0  0
 25 26  1  0  0  0  0
 26 27  1  0  0  0  0
 27 24  1  0  0  0  0
 16 28  1  0  0  0  0
 28 29  1  0  0  0  0
 29 13  1  0  0  0  0
 13 30  1  0  0  0  0
 30 31  1  0  0  0  0
 31 32  1  0  0  0  0
 32 12  1  0  0  0  0
  7 33  2  0  0  0  0
 33  4  1  0  0  0  0
  5 34  2  0  0  0  0
 34 35  1  0  0  0  0
 35  2  2  0  0  0  0
  3 36  1  0  0  0  0
  6 37  1  0  0  0  0
 10 38  1  0  0  0  0
 11 39  1  0  0  0  0
 11 40  1  0  0  0  0
 12 41  1  0  0  0  0
 14 42  1  0  0  0  0
 14 43  1  0  0  0  0
 15 44  1  0  0  0  0
 15 45  1  0  0  0  0
 23 46  1  0  0  0  0
 24 47  1  0  0  0  0
 25 48  1  0  0  0  0
 25 49  1  0  0  0  0
 26 50  1  0  0  0  0
 26 51  1  0  0  0  0
 27 52  1  0  0  0  0
 27 53  1  0  0  0  0
 28 54  1  0  0  0  0
 28 55  1  0  0  0  0
 29 56  1  0  0  0  0
 29 57  1  0  0  0  0
 30 58  1  0  0  0  0
 30 59  1  0  0  0  0
 31 60  1  0  0  0  0
 31 61  1  0  0  0  0
 32 62  1  0  0  0  0
 32 63  1  0  0  0  0
 33 64  1  0  0  0  0
 34 65  1  0  0  0  0
 35 66  1  0  0  0  0
M  END
>  <result-rank>
42

>  <similarity>
0.897

>  <query-name>


>  <query-smiles>
S1c2c(cccc2)C(C(=O)N3CCC([N@H+]4CC5(C(=O)N6N(C5=O)CCCC6)CCC4)CC3)=C1NC(=O)NC

>  <source>
REALspace_2019-12

>  <similarity-descriptor>
0.995;0.899;0.963;0.873;0.808;0.975;0.852;0.899;0.0;0.0;0.0;0.0

>  <similarity-descriptor-smiles>
CC1CCCC1;c1C=CNc1;Fc1ccccc1;C(=O)C1=CNN=N1;C1CCNCC1;C1CCC1;C(=O)N;c1C=CNc1;;;;

>  <reaction-name>
m_275592

>  <reagent1-name>
15865406

>  <reagent1-smiles>
[R2*]N1CCC2(C(CN[R1*])CCC2)CC1

>  <reagent2-name>
14141084

>  <reagent2-smiles>
[R1*]C(=O)C=1N=NN(C1)C2CCC2

>  <reagent3-name>
14133266

>  <reagent3-smiles>
[R2*]C(=O)C=1Nc2c(cc(F)cc2)C1

$$$$
m_275030____14114236____14125676____14147450
          04022017303D 1   1.00000     0.00000     0
            
 69 72  0  0  0  0            999 V2000
    0.3222    1.1585   -3.0360 S   0  0  0  0  0  0  0  0  0  0  0  0
    1.6880    1.0721   -3.4840 O   0  0  0  0  0  0  0  0  0  0  0  0
   -0.5092    0.3271   -3.8674 O   0  0  0  0  0  0  0  0  0  0  0  0
   -0.2409    2.8752   -3.1446 C   0  0  0  0  0  0  0  0  0  0  0  0
   -0.1498    3.3481   -4.5862 C   0  0  0  0  0  0  0  0  0  0  0  0
   -1.6826    2.9664   -2.6717 C   0  0  0  0  0  0  0  0  0  0  0  0
    0.2136    0.5953   -1.3192 C   0  0  0  0  0  0  0  0  0  0  0  0
    1.0912    1.4729   -0.4417 C   0  0  0  0  0  0  0  0  0  0  0  0
    1.0000    1.0000    1.0000 C   0  0  0  0  0  0  0  0  0  0  0  0
    1.8489    1.8489    1.8489 N   0  3  3  0  0  0  0  0  0  0  0  0
    1.3851    3.2389    1.7547 C   0  0  0  0  0  0  0  0  0  0  0  0
    2.5864    4.0302    2.2281 C   0  0  3  0  0  0  0  0  0  0  0  0
    2.4887    5.4766    1.7715 C   0  0  3  0  0  0  0  0  0  0  0  0
    1.2196    6.0769    2.3603 C   0  0  0  0  0  0  0  0  0  0  0  0
    0.8985    7.3866    1.7690 N   0  0  0  0  0  0  0  0  0  0  0  0
    0.2753    8.3526    2.5666 C   0  0  0  0  0  0  0  0  0  0  0  0
    0.0119    8.1067    3.7112 O   0  0  0  0  0  0  0  0  0  0  0  0
   -0.0521    9.6503    2.0103 C   0  0  0  0  0  0  0  0  0  0  0  0
    0.9520   10.4424    1.5170 N   0  0  0  0  0  0  0  0  0  0  0  0
    0.6799   11.6745    0.9830 C   0  0  0  0  0  0  0  0  0  0  0  0
    1.6156   12.3358    0.5596 O   0  0  0  0  0  0  0  0  0  0  0  0
   -0.6655   12.1380    0.9396 C   0  0  0  0  0  0  0  0  0  0  0  0
   -1.6772   11.3270    1.4430 C   0  0  0  0  0  0  0  0  0  0  0  0
   -3.0059   11.7386    1.4224 C   0  0  0  0  0  0  0  0  0  0  0  0
   -3.3236   12.9826    0.8877 C   0  0  0  0  0  0  0  0  0  0  0  0
   -2.3341   13.8155    0.3763 C   0  0  0  0  0  0  0  0  0  0  0  0
   -1.0148   13.3780    0.4108 C   0  0  0  0  0  0  0  0  0  0  0  0
   -1.3615   10.0546    1.9901 C   0  0  0  0  0  0  0  0  0  0  0  0
    1.2084    7.7282    0.3705 C   0  0  0  0  0  0  0  0  0  0  0  0
    2.4761    7.0397   -0.1165 C   0  0  0  0  0  0  0  0  0  0  0  0
    2.5165    5.5625    0.2520 C   0  0  0  0  0  0  0  0  0  0  0  0
    3.7133    3.3086    1.5100 C   0  0  0  0  0  0  0  0  0  0  0  0
    3.2040    1.9010    1.2872 C   0  0  0  0  0  0  0  0  0  0  0  0
    1.8569    1.5286    2.7962 H   0  0  0  0  0  0  0  0  0  0  0  0
    0.3364    3.4526   -2.5672 H   0  0  0  0  0  0  0  0  0  0  0  0
   -0.4609    4.2966   -4.6462 H   0  0  0  0  0  0  0  0  0  0  0  0
    0.7987    3.2881   -4.8974 H   0  0  0  0  0  0  0  0  0  0  0  0
   -0.7271    2.7708   -5.1636 H   0  0  0  0  0  0  0  0  0  0  0  0
   -1.9937    3.9149   -2.7316 H   0  0  0  0  0  0  0  0  0  0  0  0
   -2.2600    2.3891   -3.2490 H   0  0  0  0  0  0  0  0  0  0  0  0
   -1.7426    2.6553   -1.7232 H   0  0  0  0  0  0  0  0  0  0  0  0
    0.5247   -0.3531   -1.2593 H   0  0  0  0  0  0  0  0  0  0  0  0
   -0.7349    0.6553   -1.0081 H   0  0  0  0  0  0  0  0  0  0  0  0
    0.7801    2.4214   -0.5017 H   0  0  0  0  0  0  0  0  0  0  0  0
    2.0397    1.4129   -0.7528 H   0  0  0  0  0  0  0  0  0  0  0  0
    0.0515    1.0600    1.3111 H   0  0  0  0  0  0  0  0  0  0  0  0
    1.3111    0.0515    1.0600 H   0  0  0  0  0  0  0  0  0  0  0  0
    0.5951    3.3953    2.3475 H   0  0  0  0  0  0  0  0  0  0  0  0
    1.1471    3.4755    0.8127 H   0  0  0  0  0  0  0  0  0  0  0  0
    2.6919    3.9699    3.2207 H   0  0  0  0  0  0  0  0  0  0  0  0
    3.2749    5.9780    2.1328 H   0  0  0  0  0  0  0  0  0  0  0  0
    0.4582    5.4513    2.1903 H   0  0  0  0  0  0  0  0  0  0  0  0
    1.3441    6.1903    3.3461 H   0  0  0  0  0  0  0  0  0  0  0  0
    1.8968   10.1163    1.5473 H   0  0  0  0  0  0  0  0  0  0  0  0
   -3.7244   11.1468    1.7878 H   0  0  0  0  0  0  0  0  0  0  0  0
   -4.2774   13.2825    0.8707 H   0  0  0  0  0  0  0  0  0  0  0  0
   -2.5663   14.7092   -0.0076 H   0  0  0  0  0  0  0  0  0  0  0  0
   -0.2966   13.9704    0.0456 H   0  0  0  0  0  0  0  0  0  0  0  0
   -2.0819    9.4643    2.3541 H   0  0  0  0  0  0  0  0  0  0  0  0
    1.3307    8.7181    0.2993 H   0  0  0  0  0  0  0  0  0  0  0  0
    0.4439    7.4444   -0.2083 H   0  0  0  0  0  0  0  0  0  0  0  0
    3.2661    7.4944    0.2946 H   0  0  0  0  0  0  0  0  0  0  0  0
    2.5241    7.1232   -1.1119 H   0  0  0  0  0  0  0  0  0  0  0  0
    1.7223    5.0916   -0.1323 H   0  0  0  0  0  0  0  0  0  0  0  0
    3.3541    5.1444   -0.0995 H   0  0  0  0  0  0  0  0  0  0  0  0
    4.5387    3.2977    2.0745 H   0  0  0  0  0  0  0  0  0  0  0  0
    3.9130    3.7518    0.6361 H   0  0  0  0  0  0  0  0  0  0  0  0
    3.1797    1.6940    0.3091 H   0  0  0  0  0  0  0  0  0  0  0  0
    3.7955    1.2427    1.7526 H   0  0  0  0  0  0  0  0  0  0  0  0
  1  2  2  0  0  0  0
  1  3  2  0  0  0  0
  1  4  1  0  0  0  0
  4  5  1  0  0  0  0
  4  6  1  0  0  0  0
  1  7  1  0  0  0  0
  7  8  1  0  0  0  0
  8  9  1  0  0  0  0
  9 10  1  0  0  0  0
 10 11  1  0  0  0  0
 11 12  1  0  0  0  0
 12 13  1  0  0  0  0
 13 14  1  0  0  0  0
 14 15  1  0  0  0  0
 15 16  1  0  0  0  0
 16 17  2  0  0  0  0
 16 18  1  0  0  0  0
 18 19  1  0  0  0  0
 19 20  1  0  0  0  0
 20 21  2  0  0  0  0
 20 22  1  0  0  0  0
 22 23  1  0  0  0  0
 23 24  2  0  0  0  0
 24 25  1  0  0  0  0
 25 26  2  0  0  0  0
 26 27  1  0  0  0  0
 27 22  2  0  0  0  0
 23 28  1  0  0  0  0
 18 28  2  0  0  0  0
 15 29  1  0  0  0  0
 29 30  1  0  0  0  0
 30 31  1  0  0  0  0
 31 13  1  0  0  0  0
 12 32  1  0  0  0  0
 32 33  1  0  0  0  0
 33 10  1  0  0  0  0
 10 34  1  0  0  0  0
  4 35  1  0  0  0  0
  5 36  1  0  0  0  0
  5 37  1  0  0  0  0
  5 38  1  0  0  0  0
  6 39  1  0  0  0  0
  6 40  1  0  0  0  0
  6 41  1  0  0  0  0
  7 42  1  0  0  0  0
  7 43  1  0  0  0  0
  8 44  1  0  0  0  0
  8 45  1  0  0  0  0
  9 46  1  0  0  0  0
  9 47  1  0  0  0  0
 11 48  1  0  0  0  0
 11 49  1  0  0  0  0
 12 50  1  0  0  0  0
 13 51  1  0  0  0  0
 14 52  1  0  0  0  0
 14 53  1  0  0  0  0
 19 54  1  0  0  0  0
 24 55  1  0  0  0  0
 25 56  1  0  0  0  0
 26 57  1  0  0  0  0
 27 58  1  0  0  0  0
 28 59  1  0  0  0  0
 29 60  1  0  0  0  0
 29 61  1  0  0  0  0
 30 62  1  0  0  0  0
 30 63  1  0  0  0  0
 31 64  1  0  0  0  0
 31 65  1  0  0  0  0
 32 66  1  0  0  0  0
 32 67  1  0  0  0  0
 33 68  1  0  0  0  0
 33 69  1  0  0  0  0
M  CHG  1  10   1
M  END
>  <result-rank>
43

>  <similarity>
0.895

>  <query-name>


>  <query-smiles>
S1c2c(cccc2)C(C(=O)N3CCC([N@H+]4CC5(C(=O)N6N(C5=O)CCCC6)CCC4)CC3)=C1NC(=O)NC

>  <source>
REALspace_2019-12

>  <similarity-descriptor>
0.999;0.940;1.000;0.680;0.936;0.777;1.000;0.940;0.940;0.0;0.0;0.0

>  <similarity-descriptor-smiles>
C1CCCNC1;C1=CccC(N1)=O;c1ccccc1;S(=O)(=O)CC;C[NH+]1CCCC1;C(C)C;C=O;C1=CccC(N1)=O;C1=CccC(N1)=O;;;

>  <reaction-name>
m_275030

>  <reagent1-name>
14114236

>  <reagent1-smiles>
[R2*]N1CC(C2CN([R1*])CCC2)CC1

>  <reagent2-name>
14125676

>  <reagent2-smiles>
[R1*]C(=O)C=1NC(=O)c2c(cccc2)C1

>  <reagent3-name>
14147450

>  <reagent3-smiles>
[R2*]CCCS(=O)(=O)C(C)C

$$$$
m_275030____14114196____14125350____14147198
          04022017303D 1   1.00000     0.00000     0
            
 71 76  0  0  0  0            999 V2000
   -5.3139    0.5919    1.7897 O   0  0  0  0  0  0  0  0  0  0  0  0
   -5.7284    1.7250    1.9822 C   0  0  0  0  0  0  0  0  0  0  0  0
   -5.0174    2.7422    2.6183 N   0  0  0  0  0  0  0  0  0  0  0  0
   -5.7653    3.9183    2.6751 C   0  0  0  0  0  0  0  0  0  0  0  0
   -5.4234    4.9872    3.1678 O   0  0  0  0  0  0  0  0  0  0  0  0
   -7.0839    3.5935    2.0075 C   0  0  0  0  0  0  0  0  0  0  0  0
   -6.9885    2.1873    1.6012 N   0  0  0  0  0  0  0  0  0  0  0  0
   -8.2552    3.9894    2.8822 C   0  0  0  0  0  0  0  0  0  0  0  0
   -9.4459    3.9688    1.9451 C   0  0  0  0  0  0  0  0  0  0  0  0
   -8.8628    4.4360    0.6278 C   0  0  0  0  0  0  0  0  0  0  0  0
   -7.3736    4.5589    0.8807 C   0  0  0  0  0  0  0  0  0  0  0  0
   -3.6573    2.6025    3.1569 C   0  0  0  0  0  0  0  0  0  0  0  0
   -2.6466    2.9648    2.0809 C   0  0  0  0  0  0  0  0  0  0  0  0
   -1.2870    2.8251    2.6192 N   0  3  3  0  0  0  0  0  0  0  0  0
   -0.3500    3.1824    1.5536 C   0  0  0  0  0  0  0  0  0  0  0  0
    0.9259    2.4201    1.8882 C   0  0  3  0  0  0  0  0  0  0  0  0
    0.5317    1.3809    2.9250 C   0  0  3  0  0  0  0  0  0  0  0  0
   -0.9806    1.4088    2.8317 C   0  0  0  0  0  0  0  0  0  0  0  0
    1.1165    0.0147    2.5972 C   0  0  0  0  0  0  0  0  0  0  0  0
    2.5893    0.0277    2.9739 C   0  0  0  0  0  0  0  0  0  0  0  0
    3.3344    1.0727    2.2557 N   0  0  0  0  0  0  0  0  0  0  0  0
    4.0546    0.7944    1.0865 C   0  0  0  0  0  0  0  0  0  0  0  0
    4.6498    1.6723    0.5252 O   0  0  0  0  0  0  0  0  0  0  0  0
    4.0808   -0.5547    0.5547 C   0  0  0  0  0  0  0  0  0  0  0  0
    5.0238   -1.5577    0.8757 C   0  0  0  0  0  0  0  0  0  0  0  0
    4.6263   -2.6403    0.1269 C   0  0  0  0  0  0  0  0  0  0  0  0
    3.5545   -2.3178   -0.5712 O   0  0  0  0  0  0  0  0  0  0  0  0
    3.1975   -1.0757   -0.3418 C   0  0  0  0  0  0  0  0  0  0  0  0
    5.3541   -3.8253    0.2112 C   0  0  0  0  0  0  0  0  0  0  0  0
    4.9768   -4.8977   -0.5175 O   0  0  0  0  0  0  0  0  0  0  0  0
    5.7154   -6.1077   -0.4349 C   0  0  0  0  0  0  0  0  0  0  0  0
    6.4709   -3.9450    1.0323 C   0  0  0  0  0  0  0  0  0  0  0  0
    6.8722   -2.8500    1.7902 C   0  0  0  0  0  0  0  0  0  0  0  0
    6.1408   -1.6703    1.7004 C   0  0  0  0  0  0  0  0  0  0  0  0
    3.2798    2.4275    2.8316 C   0  0  0  0  0  0  0  0  0  0  0  0
    2.1447    3.2569    2.2479 C   0  0  0  0  0  0  0  0  0  0  0  0
   -1.1482    3.3713    3.4452 H   0  0  0  0  0  0  0  0  0  0  0  0
   -7.6972    1.6568    1.1362 H   0  0  0  0  0  0  0  0  0  0  0  0
   -8.1198    4.9042    3.2628 H   0  0  0  0  0  0  0  0  0  0  0  0
   -8.3790    3.3335    3.6268 H   0  0  0  0  0  0  0  0  0  0  0  0
  -10.1611    4.5921    2.2612 H   0  0  0  0  0  0  0  0  0  0  0  0
   -9.8209    3.0454    1.8631 H   0  0  0  0  0  0  0  0  0  0  0  0
   -9.0429    3.7672   -0.0935 H   0  0  0  0  0  0  0  0  0  0  0  0
   -9.2491    5.3205    0.3663 H   0  0  0  0  0  0  0  0  0  0  0  0
   -6.8567    4.3082    0.0622 H   0  0  0  0  0  0  0  0  0  0  0  0
   -7.1392    5.4930    1.1499 H   0  0  0  0  0  0  0  0  0  0  0  0
   -3.5096    1.6574    3.4483 H   0  0  0  0  0  0  0  0  0  0  0  0
   -3.5443    3.2142    3.9398 H   0  0  0  0  0  0  0  0  0  0  0  0
   -2.7596    2.3530    1.2979 H   0  0  0  0  0  0  0  0  0  0  0  0
   -2.7943    3.9099    1.7894 H   0  0  0  0  0  0  0  0  0  0  0  0
   -0.1808    4.1680    1.5487 H   0  0  0  0  0  0  0  0  0  0  0  0
   -0.7056    2.9008    0.6624 H   0  0  0  0  0  0  0  0  0  0  0  0
    1.1710    1.9113    1.0629 H   0  0  0  0  0  0  0  0  0  0  0  0
    0.8264    1.6727    3.8350 H   0  0  0  0  0  0  0  0  0  0  0  0
   -1.3011    0.8550    2.0631 H   0  0  0  0  0  0  0  0  0  0  0  0
   -1.3967    1.0766    3.6782 H   0  0  0  0  0  0  0  0  0  0  0  0
    1.0185   -0.1700    1.6193 H   0  0  0  0  0  0  0  0  0  0  0  0
    0.6394   -0.6922    3.1194 H   0  0  0  0  0  0  0  0  0  0  0  0
    2.6694    0.1924    3.9570 H   0  0  0  0  0  0  0  0  0  0  0  0
    2.9870   -0.8625    2.7517 H   0  0  0  0  0  0  0  0  0  0  0  0
    2.4193   -0.5990   -0.7505 H   0  0  0  0  0  0  0  0  0  0  0  0
    5.3014   -6.7925   -1.0346 H   0  0  0  0  0  0  0  0  0  0  0  0
    6.6595   -5.9420   -0.7200 H   0  0  0  0  0  0  0  0  0  0  0  0
    5.7054   -6.4406    0.5080 H   0  0  0  0  0  0  0  0  0  0  0  0
    6.9777   -4.8059    1.0769 H   0  0  0  0  0  0  0  0  0  0  0  0
    7.6714   -2.9097    2.3883 H   0  0  0  0  0  0  0  0  0  0  0  0
    6.4249   -0.8802    2.2435 H   0  0  0  0  0  0  0  0  0  0  0  0
    4.1459    2.8914    2.6455 H   0  0  0  0  0  0  0  0  0  0  0  0
    3.1478    2.3519    3.8200 H   0  0  0  0  0  0  0  0  0  0  0  0
    1.8726    3.9444    2.9212 H   0  0  0  0  0  0  0  0  0  0  0  0
    2.4746    3.7125    1.4210 H   0  0  0  0  0  0  0  0  0  0  0  0
  1  2  2  0  0  0  0
  2  3  1  0  0  0  0
  3  4  1  0  0  0  0
  4  5  2  0  0  0  0
  4  6  1  0  0  0  0
  6  7  1  0  0  0  0
  7  2  1  0  0  0  0
  6  8  1  0  0  0  0
  8  9  1  0  0  0  0
  9 10  1  0  0  0  0
 10 11  1  0  0  0  0
 11  6  1  0  0  0  0
  3 12  1  0  0  0  0
 12 13  1  0  0  0  0
 13 14  1  0  0  0  0
 14 15  1  0  0  0  0
 15 16  1  0  0  0  0
 16 17  1  0  0  0  0
 17 18  1  0  0  0  0
 18 14  1  0  0  0  0
 17 19  1  0  0  0  0
 19 20  1  0  0  0  0
 20 21  1  0  0  0  0
 21 22  1  0  0  0  0
 22 23  2  0  0  0  0
 22 24  1  0  0  0  0
 24 25  1  0  0  0  0
 25 26  1  0  0  0  0
 26 27  1  0  0  0  0
 27 28  1  0  0  0  0
 24 28  2  0  0  0  0
 26 29  2  0  0  0  0
 29 30  1  0  0  0  0
 30 31  1  0  0  0  0
 29 32  1  0  0  0  0
 32 33  2  0  0  0  0
 33 34  1  0  0  0  0
 34 25  2  0  0  0  0
 21 35  1  0  0  0  0
 35 36  1  0  0  0  0
 36 16  1  0  0  0  0
 14 37  1  0  0  0  0
  7 38  1  0  0  0  0
  8 39  1  0  0  0  0
  8 40  1  0  0  0  0
  9 41  1  0  0  0  0
  9 42  1  0  0  0  0
 10 43  1  0  0  0  0
 10 44  1  0  0  0  0
 11 45  1  0  0  0  0
 11 46  1  0  0  0  0
 12 47  1  0  0  0  0
 12 48  1  0  0  0  0
 13 49  1  0  0  0  0
 13 50  1  0  0  0  0
 15 51  1  0  0  0  0
 15 52  1  0  0  0  0
 16 53  1  0  0  0  0
 17 54  1  0  0  0  0
 18 55  1  0  0  0  0
 18 56  1  0  0  0  0
 19 57  1  0  0  0  0
 19 58  1  0  0  0  0
 20 59  1  0  0  0  0
 20 60  1  0  0  0  0
 28 61  1  0  0  0  0
 31 62  1  0  0  0  0
 31 63  1  0  0  0  0
 31 64  1  0  0  0  0
 32 65  1  0  0  0  0
 33 66  1  0  0  0  0
 34 67  1  0  0  0  0
 35 68  1  0  0  0  0
 35 69  1  0  0  0  0
 36 70  1  0  0  0  0
 36 71  1  0  0  0  0
M  CHG  1  14   1
M  END
>  <result-rank>
44

>  <similarity>
0.895

>  <query-name>


>  <query-smiles>
S1c2c(cccc2)C(C(=O)N3CCC([N@H+]4CC5(C(=O)N6N(C5=O)CCCC6)CCC4)CC3)=C1NC(=O)NC

>  <source>
REALspace_2019-12

>  <similarity-descriptor>
0.935;0.782;0.956;0.924;0.894;0.994;1.000;0.0;0.0;0.0;0.0;0.182

>  <similarity-descriptor-smiles>
C1CCNCCC1;C1=COcc1;c1ccccc1;O=C1NCC(N1)=O;CC[NH+]1CCCC1;C1CCCC1;C=O;;;;;O.C

>  <reaction-name>
m_275030

>  <reagent1-name>
14114196

>  <reagent1-smiles>
[R2*]N1CC2C(C1)CCN([R1*])CC2

>  <reagent2-name>
14125350

>  <reagent2-smiles>
[R1*]C(=O)C=1c2c(OC1)c(OC)ccc2

>  <reagent3-name>
14147198

>  <reagent3-smiles>
[R2*]CCN1C(=O)NC2(C1=O)CCCC2

$$$$
m_274310____14113020____14120794____15870814
          04022017303D 1   1.00000     0.00000     0
            
 74 78  0  0  0  0            999 V2000
    5.3480    1.1102   11.9401 O   0  0  0  0  0  0  0  0  0  0  0  0
    4.6558    1.2395   10.9433 C   0  0  0  0  0  0  0  0  0  0  0  0
    3.2876    1.3093   11.0181 N   0  0  0  0  0  0  0  0  0  0  0  0
    2.5298    1.4551    9.8839 C   0  0  0  0  0  0  0  0  0  0  0  0
    1.3119    1.5198    9.9306 O   0  0  0  0  0  0  0  0  0  0  0  0
    3.1699    1.5341    8.6183 C   0  0  0  0  0  0  0  0  0  0  0  0
    4.5377    1.4616    8.5664 C   0  0  0  0  0  0  0  0  0  0  0  0
    5.1711    1.5392    7.3202 N   0  0  0  0  0  0  0  0  0  0  0  0
    4.3443    1.6948    6.1118 C   0  0  0  0  0  0  0  0  0  0  0  0
    4.9582    1.0024    4.9029 C   0  0  3  0  0  0  0  0  0  0  0  0
    4.1958    1.4438    3.6644 C   0  0  3  0  0  0  0  0  0  0  0  0
    4.3233    2.9558    3.5406 C   0  0  0  0  0  0  0  0  0  0  0  0
    3.4087    3.5093    2.5281 N   0  0  0  0  0  0  0  0  0  0  0  0
    3.8110    4.6328    1.7976 C   0  0  0  0  0  0  0  0  0  0  0  0
    4.8848    5.1280    2.0014 O   0  0  0  0  0  0  0  0  0  0  0  0
    2.8878    5.2259    0.7458 C   0  0  0  0  0  0  0  0  0  0  0  0
    2.6775    4.6287   -0.2736 O   0  0  0  0  0  0  0  0  0  0  0  0
    2.2819    6.4707    0.9666 N   0  0  0  0  0  0  0  0  0  0  0  0
    1.3761    7.1456    0.0336 C   0  0  0  0  0  0  0  0  0  0  0  0
    0.3979    7.8188    0.9666 C   0  0  3  0  0  0  0  0  0  0  0  0
    1.2256    8.2142    2.1712 C   0  0  0  0  0  0  0  0  0  0  0  0
    2.4406    7.2996    2.1664 C   0  0  0  0  0  0  0  0  0  0  0  0
   -0.2337    9.0450    0.3277 C   0  0  0  0  0  0  0  0  0  0  0  0
    2.0852    2.9288    2.2459 C   0  0  0  0  0  0  0  0  0  0  0  0
    2.0724    1.4186    2.4401 C   0  0  0  0  0  0  0  0  0  0  0  0
    2.7443    0.9913    3.7385 C   0  0  0  0  0  0  0  0  0  0  0  0
    6.4425    1.3065    4.7557 C   0  0  0  0  0  0  0  0  0  0  0  0
    7.1360    0.7806    6.0056 C   0  0  0  0  0  0  0  0  0  0  0  0
    6.6408    1.4576    7.2764 C   0  0  0  0  0  0  0  0  0  0  0  0
    5.2665    1.3166    9.7186 N   0  0  0  0  0  0  0  0  0  0  0  0
    2.6173    1.2292   12.3251 C   0  0  0  0  0  0  0  0  0  0  0  0
    2.4661    2.6270   12.9036 C   0  0  0  0  0  0  0  0  0  0  0  0
    1.3241    3.3695   12.6219 C   0  0  0  0  0  0  0  0  0  0  0  0
    1.1901    4.6484   13.1526 C   0  0  0  0  0  0  0  0  0  0  0  0
    2.1932    5.1752   13.9594 C   0  0  0  0  0  0  0  0  0  0  0  0
    3.3294    4.4242   14.2344 C   0  0  0  0  0  0  0  0  0  0  0  0
    3.4755    3.1444   13.7092 C   0  0  0  0  0  0  0  0  0  0  0  0
    2.6330    1.6404    7.7813 H   0  0  0  0  0  0  0  0  0  0  0  0
    4.2483    2.6696    5.9104 H   0  0  0  0  0  0  0  0  0  0  0  0
    3.4422    1.2999    6.2856 H   0  0  0  0  0  0  0  0  0  0  0  0
    4.8451    0.0147    5.0107 H   0  0  0  0  0  0  0  0  0  0  0  0
    4.6198    1.0223    2.8629 H   0  0  0  0  0  0  0  0  0  0  0  0
    4.1128    3.3705    4.4259 H   0  0  0  0  0  0  0  0  0  0  0  0
    5.2632    3.1798    3.2827 H   0  0  0  0  0  0  0  0  0  0  0  0
    0.9147    6.4886   -0.5626 H   0  0  0  0  0  0  0  0  0  0  0  0
    1.8647    7.8163   -0.5245 H   0  0  0  0  0  0  0  0  0  0  0  0
   -0.3139    7.1715    1.2394 H   0  0  0  0  0  0  0  0  0  0  0  0
    0.6986    8.0868    3.0114 H   0  0  0  0  0  0  0  0  0  0  0  0
    1.5104    9.1700    2.0980 H   0  0  0  0  0  0  0  0  0  0  0  0
    3.2839    7.8347    2.1157 H   0  0  0  0  0  0  0  0  0  0  0  0
    2.4560    6.7302    2.9883 H   0  0  0  0  0  0  0  0  0  0  0  0
   -0.8737    9.4640    0.9717 H   0  0  0  0  0  0  0  0  0  0  0  0
    0.4810    9.7034    0.0919 H   0  0  0  0  0  0  0  0  0  0  0  0
   -0.7238    8.7741   -0.5008 H   0  0  0  0  0  0  0  0  0  0  0  0
    1.8372    3.1348    1.2993 H   0  0  0  0  0  0  0  0  0  0  0  0
    1.4141    3.3395    2.8632 H   0  0  0  0  0  0  0  0  0  0  0  0
    2.5545    0.9928    1.6745 H   0  0  0  0  0  0  0  0  0  0  0  0
    1.1230    1.1049    2.4521 H   0  0  0  0  0  0  0  0  0  0  0  0
    2.2900    1.4234    4.5176 H   0  0  0  0  0  0  0  0  0  0  0  0
    2.6999   -0.0029    3.8361 H   0  0  0  0  0  0  0  0  0  0  0  0
    6.5837    2.2931    4.6750 H   0  0  0  0  0  0  0  0  0  0  0  0
    6.8068    0.8500    3.9440 H   0  0  0  0  0  0  0  0  0  0  0  0
    6.9646   -0.2019    6.0780 H   0  0  0  0  0  0  0  0  0  0  0  0
    8.1191    0.9420    5.9186 H   0  0  0  0  0  0  0  0  0  0  0  0
    6.9589    0.9336    8.0665 H   0  0  0  0  0  0  0  0  0  0  0  0
    7.0170    2.3832    7.3169 H   0  0  0  0  0  0  0  0  0  0  0  0
    6.2637    1.2659    9.6644 H   0  0  0  0  0  0  0  0  0  0  0  0
    3.1646    0.6686   12.9466 H   0  0  0  0  0  0  0  0  0  0  0  0
    1.7138    0.8159   12.2115 H   0  0  0  0  0  0  0  0  0  0  0  0
    0.6047    2.9868   12.0422 H   0  0  0  0  0  0  0  0  0  0  0  0
    0.3726    5.1890   12.9540 H   0  0  0  0  0  0  0  0  0  0  0  0
    2.0967    6.0943   14.3414 H   0  0  0  0  0  0  0  0  0  0  0  0
    4.0482    4.8070   14.8148 H   0  0  0  0  0  0  0  0  0  0  0  0
    4.2936    2.6046   13.9077 H   0  0  0  0  0  0  0  0  0  0  0  0
  1  2  2  0  0  0  0
  2  3  1  0  0  0  0
  3  4  1  0  0  0  0
  4  5  2  0  0  0  0
  4  6  1  0  0  0  0
  6  7  2  0  0  0  0
  7  8  1  0  0  0  0
  8  9  1  0  0  0  0
  9 10  1  0  0  0  0
 10 11  1  0  0  0  0
 11 12  1  0  0  0  0
 12 13  1  0  0  0  0
 13 14  1  0  0  0  0
 14 15  2  0  0  0  0
 14 16  1  0  0  0  0
 16 17  2  0  0  0  0
 16 18  1  0  0  0  0
 18 19  1  0  0  0  0
 19 20  1  0  0  0  0
 20 21  1  0  0  0  0
 21 22  1  0  0  0  0
 22 18  1  0  0  0  0
 20 23  1  0  0  0  0
 13 24  1  0  0  0  0
 24 25  1  0  0  0  0
 25 26  1  0  0  0  0
 26 11  1  0  0  0  0
 10 27  1  0  0  0  0
 27 28  1  0  0  0  0
 28 29  1  0  0  0  0
 29  8  1  0  0  0  0
  7 30  1  0  0  0  0
 30  2  1  0  0  0  0
  3 31  1  0  0  0  0
 31 32  1  0  0  0  0
 32 33  1  0  0  0  0
 33 34  2  0  0  0  0
 34 35  1  0  0  0  0
 35 36  2  0  0  0  0
 36 37  1  0  0  0  0
 37 32  2  0  0  0  0
  6 38  1  0  0  0  0
  9 39  1  0  0  0  0
  9 40  1  0  0  0  0
 10 41  1  0  0  0  0
 11 42  1  0  0  0  0
 12 43  1  0  0  0  0
 12 44  1  0  0  0  0
 19 45  1  0  0  0  0
 19 46  1  0  0  0  0
 20 47  1  0  0  0  0
 21 48  1  0  0  0  0
 21 49  1  0  0  0  0
 22 50  1  0  0  0  0
 22 51  1  0  0  0  0
 23 52  1  0  0  0  0
 23 53  1  0  0  0  0
 23 54  1  0  0  0  0
 24 55  1  0  0  0  0
 24 56  1  0  0  0  0
 25 57  1  0  0  0  0
 25 58  1  0  0  0  0
 26 59  1  0  0  0  0
 26 60  1  0  0  0  0
 27 61  1  0  0  0  0
 27 62  1  0  0  0  0
 28 63  1  0  0  0  0
 28 64  1  0  0  0  0
 29 65  1  0  0  0  0
 29 66  1  0  0  0  0
 30 67  1  0  0  0  0
 31 68  1  0  0  0  0
 31 69  1  0  0  0  0
 33 70  1  0  0  0  0
 34 71  1  0  0  0  0
 35 72  1  0  0  0  0
 36 73  1  0  0  0  0
 37 74  1  0  0  0  0
M  END
>  <result-rank>
45

>  <similarity>
0.895

>  <query-name>


>  <query-smiles>
S1c2c(cccc2)C(C(=O)N3CCC([N@H+]4CC5(C(=O)N6N(C5=O)CCCC6)CCC4)CC3)=C1NC(=O)NC

>  <source>
REALspace_2019-12

>  <similarity-descriptor>
0.999;0.927;0.884;0.882;0.752;0.984;0.927;0.927;0.927;0.0;0.0;0.111

>  <similarity-descriptor-smiles>
N1CCCCC1;O=C1NC=CC(N1)=O;Cc1ccccc1;C(=O)C=O;C1CCCNC1;N1CCCC1;O=C1NC=CC(N1)=O;O=C1NC=CC(N1)=O;O=C1NC=CC(N1)=O;;;C

>  <reaction-name>
m_274310

>  <reagent1-name>
14113020

>  <reagent1-smiles>
[R1*]N1CC(C2CN([R2*])CCC2)CCC1

>  <reagent2-name>
14120794

>  <reagent2-smiles>
[R1*]C(=O)C(=O)N1CC(CC1)C

>  <reagent3-name>
15870814

>  <reagent3-smiles>
[R2*]C=1NC(=O)N(C(=O)C1)Cc2ccccc2

$$$$
m_274310____14113098____14118380____15867458
          04022017303D 1   1.00000     0.00000     0
            
 65 70  0  0  0  0            999 V2000
    0.6204    6.5829   -2.1788 O   0  0  0  0  0  0  0  0  0  0  0  0
    1.3003    6.1934   -1.2406 C   0  0  0  0  0  0  0  0  0  0  0  0
    2.2316    5.2175   -1.4857 N   0  0  0  0  0  0  0  0  0  0  0  0
    3.0335    4.7260   -0.4885 C   0  0  0  0  0  0  0  0  0  0  0  0
    2.9299    5.1989    0.7938 C   0  0  0  0  0  0  0  0  0  0  0  0
    1.9740    6.2132    1.0860 C   0  0  0  0  0  0  0  0  0  0  0  0
    1.1558    6.7150    0.0763 C   0  0  0  0  0  0  0  0  0  0  0  0
    0.2252    7.7072    0.3780 C   0  0  0  0  0  0  0  0  0  0  0  0
    0.0879    8.2152    1.6656 C   0  0  0  0  0  0  0  0  0  0  0  0
    0.9034    7.7167    2.6766 C   0  0  0  0  0  0  0  0  0  0  0  0
    1.8313    6.7258    2.3735 C   0  0  0  0  0  0  0  0  0  0  0  0
    3.8110    4.6328    1.7976 C   0  0  0  0  0  0  0  0  0  0  0  0
    4.8848    5.1280    2.0014 O   0  0  0  0  0  0  0  0  0  0  0  0
    3.4087    3.5093    2.5281 N   0  0  0  0  0  0  0  0  0  0  0  0
    4.3233    2.9558    3.5406 C   0  0  0  0  0  0  0  0  0  0  0  0
    4.1958    1.4438    3.6644 C   0  0  3  0  0  0  0  0  0  0  0  0
    4.9583    1.0024    4.9030 C   0  0  3  0  0  0  0  0  0  0  0  0
    4.4103    1.6467    6.1540 C   0  0  0  0  0  0  0  0  0  0  0  0
    4.7847    0.6816    7.1908 N   0  0  0  0  0  0  0  0  0  0  0  0
    5.1694    1.0100    8.4993 C   0  0  0  0  0  0  0  0  0  0  0  0
    5.2317    2.2792    8.9354 N   0  0  0  0  0  0  0  0  0  0  0  0
    5.6005    2.5920   10.1886 C   0  0  0  0  0  0  0  0  0  0  0  0
    5.9205    1.6083   11.0435 N   0  0  0  0  0  0  0  0  0  0  0  0
    5.8803    0.3189   10.6762 C   0  0  0  0  0  0  0  0  0  0  0  0
    5.4996   -0.0144    9.3806 C   0  0  0  0  0  0  0  0  0  0  0  0
    5.6684    4.0351   10.6722 C   0  0  0  0  0  0  0  0  0  0  0  0
    4.7411    4.2895   11.8442 C   0  0  0  0  0  0  0  0  0  0  0  0
    4.4874    5.6505   11.2341 C   0  0  0  0  0  0  0  0  0  0  0  0
    4.7996    5.0021    9.8981 C   0  0  0  0  0  0  0  0  0  0  0  0
    4.7033   -0.6742    6.6368 C   0  0  0  0  0  0  0  0  0  0  0  0
    4.7872   -0.4848    5.1302 C   0  0  0  0  0  0  0  0  0  0  0  0
    2.7443    0.9913    3.7385 C   0  0  0  0  0  0  0  0  0  0  0  0
    2.0724    1.4186    2.4401 C   0  0  0  0  0  0  0  0  0  0  0  0
    2.0852    2.9288    2.2459 C   0  0  0  0  0  0  0  0  0  0  0  0
    2.3280    4.8560   -2.4131 H   0  0  0  0  0  0  0  0  0  0  0  0
    3.7027    4.0134   -0.6993 H   0  0  0  0  0  0  0  0  0  0  0  0
   -0.3597    8.0635   -0.3507 H   0  0  0  0  0  0  0  0  0  0  0  0
   -0.5862    8.9274    1.8615 H   0  0  0  0  0  0  0  0  0  0  0  0
    0.8233    8.0665    3.6100 H   0  0  0  0  0  0  0  0  0  0  0  0
    2.4148    6.3699    3.1034 H   0  0  0  0  0  0  0  0  0  0  0  0
    4.1128    3.3705    4.4259 H   0  0  0  0  0  0  0  0  0  0  0  0
    5.2632    3.1798    3.2827 H   0  0  0  0  0  0  0  0  0  0  0  0
    4.6198    1.0223    2.8629 H   0  0  0  0  0  0  0  0  0  0  0  0
    5.9285    1.2227    4.8028 H   0  0  0  0  0  0  0  0  0  0  0  0
    4.8341    2.5375    6.3182 H   0  0  0  0  0  0  0  0  0  0  0  0
    3.4175    1.7546    6.1010 H   0  0  0  0  0  0  0  0  0  0  0  0
    6.1226   -0.3982   11.3296 H   0  0  0  0  0  0  0  0  0  0  0  0
    5.4640   -0.9702    9.0888 H   0  0  0  0  0  0  0  0  0  0  0  0
    6.6009    4.3645   10.8203 H   0  0  0  0  0  0  0  0  0  0  0  0
    5.1891    4.3068   12.7381 H   0  0  0  0  0  0  0  0  0  0  0  0
    3.9407    3.6913   11.8841 H   0  0  0  0  0  0  0  0  0  0  0  0
    5.1286    6.3643   11.5158 H   0  0  0  0  0  0  0  0  0  0  0  0
    3.5507    5.9870   11.3302 H   0  0  0  0  0  0  0  0  0  0  0  0
    4.0144    4.5865    9.4391 H   0  0  0  0  0  0  0  0  0  0  0  0
    5.2925    5.5857    9.2528 H   0  0  0  0  0  0  0  0  0  0  0  0
    3.8378   -1.1066    6.8897 H   0  0  0  0  0  0  0  0  0  0  0  0
    5.4641   -1.2346    6.9641 H   0  0  0  0  0  0  0  0  0  0  0  0
    5.5704   -0.9848    4.7606 H   0  0  0  0  0  0  0  0  0  0  0  0
    3.9484   -0.8086    4.6925 H   0  0  0  0  0  0  0  0  0  0  0  0
    2.2900    1.4234    4.5176 H   0  0  0  0  0  0  0  0  0  0  0  0
    2.6999   -0.0029    3.8361 H   0  0  0  0  0  0  0  0  0  0  0  0
    2.5545    0.9928    1.6745 H   0  0  0  0  0  0  0  0  0  0  0  0
    1.1230    1.1049    2.4521 H   0  0  0  0  0  0  0  0  0  0  0  0
    1.8372    3.1348    1.2993 H   0  0  0  0  0  0  0  0  0  0  0  0
    1.4141    3.3395    2.8632 H   0  0  0  0  0  0  0  0  0  0  0  0
  1  2  2  0  0  0  0
  2  3  1  0  0  0  0
  3  4  1  0  0  0  0
  4  5  2  0  0  0  0
  5  6  1  0  0  0  0
  6  7  1  0  0  0  0
  7  2  1  0  0  0  0
  7  8  2  0  0  0  0
  8  9  1  0  0  0  0
  9 10  2  0  0  0  0
 10 11  1  0  0  0  0
 11  6  2  0  0  0  0
  5 12  1  0  0  0  0
 12 13  2  0  0  0  0
 12 14  1  0  0  0  0
 14 15  1  0  0  0  0
 15 16  1  0  0  0  0
 16 17  1  0  0  0  0
 17 18  1  0  0  0  0
 18 19  1  0  0  0  0
 19 20  1  0  0  0  0
 20 21  1  0  0  0  0
 21 22  2  0  0  0  0
 22 23  1  0  0  0  0
 23 24  2  0  0  0  0
 24 25  1  0  0  0  0
 25 20  2  0  0  0  0
 22 26  1  0  0  0  0
 26 27  1  0  0  0  0
 27 28  1  0  0  0  0
 28 29  1  0  0  0  0
 29 26  1  0  0  0  0
 19 30  1  0  0  0  0
 30 31  1  0  0  0  0
 31 17  1  0  0  0  0
 16 32  1  0  0  0  0
 32 33  1  0  0  0  0
 33 34  1  0  0  0  0
 34 14  1  0  0  0  0
  3 35  1  0  0  0  0
  4 36  1  0  0  0  0
  8 37  1  0  0  0  0
  9 38  1  0  0  0  0
 10 39  1  0  0  0  0
 11 40  1  0  0  0  0
 15 41  1  0  0  0  0
 15 42  1  0  0  0  0
 16 43  1  0  0  0  0
 17 44  1  0  0  0  0
 18 45  1  0  0  0  0
 18 46  1  0  0  0  0
 24 47  1  0  0  0  0
 25 48  1  0  0  0  0
 26 49  1  0  0  0  0
 27 50  1  0  0  0  0
 27 51  1  0  0  0  0
 28 52  1  0  0  0  0
 28 53  1  0  0  0  0
 29 54  1  0  0  0  0
 29 55  1  0  0  0  0
 30 56  1  0  0  0  0
 30 57  1  0  0  0  0
 31 58  1  0  0  0  0
 31 59  1  0  0  0  0
 32 60  1  0  0  0  0
 32 61  1  0  0  0  0
 33 62  1  0  0  0  0
 33 63  1  0  0  0  0
 34 64  1  0  0  0  0
 34 65  1  0  0  0  0
M  END
>  <result-rank>
46

>  <similarity>
0.894

>  <query-name>


>  <query-smiles>
S1c2c(cccc2)C(C(=O)N3CCC([N@H+]4CC5(C(=O)N6N(C5=O)CCCC6)CCC4)CC3)=C1NC(=O)NC

>  <source>
REALspace_2019-12

>  <similarity-descriptor>
0.999;0.940;1.000;0.686;0.791;0.973;1.000;0.940;0.940;0.0;0.0;0.0

>  <similarity-descriptor-smiles>
N1CCCCC1;O=C1ccC=CN1;c1ccccc1;c1ccncn1;C1CCNC1;C1CCC1;C=O;O=C1ccC=CN1;O=C1ccC=CN1;;;

>  <reaction-name>
m_274310

>  <reagent1-name>
14113098

>  <reagent1-smiles>
[R2*]N1CC(C2CN([R1*])CCC2)CC1

>  <reagent2-name>
14118380

>  <reagent2-smiles>
[R1*]C(=O)C=1c2c(cccc2)C(=O)NC1

>  <reagent3-name>
15867458

>  <reagent3-smiles>
[R2*]c1nc(ncc1)C2CCC2

$$$$
m_274310____14113020____14121912____15870814
          04022017303D 1   1.00000     0.00000     0
            
 73 78  0  0  0  0            999 V2000
    5.3480    1.1102   11.9401 O   0  0  0  0  0  0  0  0  0  0  0  0
    4.6558    1.2395   10.9433 C   0  0  0  0  0  0  0  0  0  0  0  0
    3.2876    1.3093   11.0181 N   0  0  0  0  0  0  0  0  0  0  0  0
    2.5298    1.4551    9.8839 C   0  0  0  0  0  0  0  0  0  0  0  0
    1.3119    1.5198    9.9306 O   0  0  0  0  0  0  0  0  0  0  0  0
    3.1699    1.5341    8.6183 C   0  0  0  0  0  0  0  0  0  0  0  0
    4.5377    1.4616    8.5664 C   0  0  0  0  0  0  0  0  0  0  0  0
    5.1711    1.5392    7.3202 N   0  0  0  0  0  0  0  0  0  0  0  0
    4.3443    1.6948    6.1118 C   0  0  0  0  0  0  0  0  0  0  0  0
    4.9582    1.0024    4.9029 C   0  0  3  0  0  0  0  0  0  0  0  0
    4.1958    1.4438    3.6644 C   0  0  3  0  0  0  0  0  0  0  0  0
    4.3233    2.9558    3.5406 C   0  0  0  0  0  0  0  0  0  0  0  0
    3.4087    3.5093    2.5281 N   0  0  0  0  0  0  0  0  0  0  0  0
    3.8110    4.6328    1.7976 C   0  0  0  0  0  0  0  0  0  0  0  0
    4.8848    5.1280    2.0014 O   0  0  0  0  0  0  0  0  0  0  0  0
    2.9305    5.1985    0.7945 C   0  0  0  0  0  0  0  0  0  0  0  0
    2.4566    4.5552   -0.3076 N   0  0  0  0  0  0  0  0  0  0  0  0
    1.7260    5.3715   -0.9360 N   0  0  0  0  0  0  0  0  0  0  0  0
    1.6737    6.5326   -0.3311 N   0  0  0  0  0  0  0  0  0  0  0  0
    2.4374    6.4672    0.7898 C   0  0  0  0  0  0  0  0  0  0  0  0
    0.9159    7.7094   -0.7918 C   0  0  0  0  0  0  0  0  0  0  0  0
   -0.1197    8.1538    0.2222 C   0  0  0  0  0  0  0  0  0  0  0  0
   -1.0080    8.4780   -0.9589 C   0  0  0  0  0  0  0  0  0  0  0  0
   -0.2504    7.3934   -1.7022 C   0  0  0  0  0  0  0  0  0  0  0  0
    2.0852    2.9288    2.2459 C   0  0  0  0  0  0  0  0  0  0  0  0
    2.0724    1.4186    2.4401 C   0  0  0  0  0  0  0  0  0  0  0  0
    2.7443    0.9913    3.7385 C   0  0  0  0  0  0  0  0  0  0  0  0
    6.4425    1.3065    4.7557 C   0  0  0  0  0  0  0  0  0  0  0  0
    7.1360    0.7806    6.0056 C   0  0  0  0  0  0  0  0  0  0  0  0
    6.6408    1.4576    7.2764 C   0  0  0  0  0  0  0  0  0  0  0  0
    5.2665    1.3166    9.7186 N   0  0  0  0  0  0  0  0  0  0  0  0
    2.6173    1.2292   12.3251 C   0  0  0  0  0  0  0  0  0  0  0  0
    2.4661    2.6270   12.9036 C   0  0  0  0  0  0  0  0  0  0  0  0
    1.3241    3.3695   12.6219 C   0  0  0  0  0  0  0  0  0  0  0  0
    1.1901    4.6484   13.1526 C   0  0  0  0  0  0  0  0  0  0  0  0
    2.1932    5.1752   13.9594 C   0  0  0  0  0  0  0  0  0  0  0  0
    3.3294    4.4242   14.2344 C   0  0  0  0  0  0  0  0  0  0  0  0
    3.4755    3.1444   13.7092 C   0  0  0  0  0  0  0  0  0  0  0  0
    2.6330    1.6404    7.7813 H   0  0  0  0  0  0  0  0  0  0  0  0
    4.2483    2.6696    5.9104 H   0  0  0  0  0  0  0  0  0  0  0  0
    3.4422    1.2999    6.2856 H   0  0  0  0  0  0  0  0  0  0  0  0
    4.8451    0.0147    5.0107 H   0  0  0  0  0  0  0  0  0  0  0  0
    4.6198    1.0223    2.8629 H   0  0  0  0  0  0  0  0  0  0  0  0
    4.1128    3.3705    4.4259 H   0  0  0  0  0  0  0  0  0  0  0  0
    5.2632    3.1798    3.2827 H   0  0  0  0  0  0  0  0  0  0  0  0
    2.6010    7.1896    1.4617 H   0  0  0  0  0  0  0  0  0  0  0  0
    1.4948    8.4533   -1.1257 H   0  0  0  0  0  0  0  0  0  0  0  0
    0.1465    8.9425    0.7764 H   0  0  0  0  0  0  0  0  0  0  0  0
   -0.4622    7.4278    0.8185 H   0  0  0  0  0  0  0  0  0  0  0  0
   -0.8956    9.3998   -1.3298 H   0  0  0  0  0  0  0  0  0  0  0  0
   -1.9803    8.2915   -0.8182 H   0  0  0  0  0  0  0  0  0  0  0  0
   -0.6263    6.4724   -1.5993 H   0  0  0  0  0  0  0  0  0  0  0  0
   -0.0901    7.5816   -2.6712 H   0  0  0  0  0  0  0  0  0  0  0  0
    1.8372    3.1348    1.2993 H   0  0  0  0  0  0  0  0  0  0  0  0
    1.4141    3.3395    2.8632 H   0  0  0  0  0  0  0  0  0  0  0  0
    2.5545    0.9928    1.6745 H   0  0  0  0  0  0  0  0  0  0  0  0
    1.1230    1.1049    2.4521 H   0  0  0  0  0  0  0  0  0  0  0  0
    2.2900    1.4234    4.5176 H   0  0  0  0  0  0  0  0  0  0  0  0
    2.6999   -0.0029    3.8361 H   0  0  0  0  0  0  0  0  0  0  0  0
    6.5837    2.2931    4.6750 H   0  0  0  0  0  0  0  0  0  0  0  0
    6.8068    0.8500    3.9440 H   0  0  0  0  0  0  0  0  0  0  0  0
    6.9646   -0.2019    6.0780 H   0  0  0  0  0  0  0  0  0  0  0  0
    8.1191    0.9420    5.9186 H   0  0  0  0  0  0  0  0  0  0  0  0
    6.9589    0.9336    8.0665 H   0  0  0  0  0  0  0  0  0  0  0  0
    7.0170    2.3832    7.3169 H   0  0  0  0  0  0  0  0  0  0  0  0
    6.2637    1.2659    9.6644 H   0  0  0  0  0  0  0  0  0  0  0  0
    3.1646    0.6686   12.9466 H   0  0  0  0  0  0  0  0  0  0  0  0
    1.7138    0.8159   12.2115 H   0  0  0  0  0  0  0  0  0  0  0  0
    0.6047    2.9868   12.0422 H   0  0  0  0  0  0  0  0  0  0  0  0
    0.3726    5.1890   12.9540 H   0  0  0  0  0  0  0  0  0  0  0  0
    2.0967    6.0943   14.3414 H   0  0  0  0  0  0  0  0  0  0  0  0
    4.0482    4.8070   14.8148 H   0  0  0  0  0  0  0  0  0  0  0  0
    4.2936    2.6046   13.9077 H   0  0  0  0  0  0  0  0  0  0  0  0
  1  2  2  0  0  0  0
  2  3  1  0  0  0  0
  3  4  1  0  0  0  0
  4  5  2  0  0  0  0
  4  6  1  0  0  0  0
  6  7  2  0  0  0  0
  7  8  1  0  0  0  0
  8  9  1  0  0  0  0
  9 10  1  0  0  0  0
 10 11  1  0  0  0  0
 11 12  1  0  0  0  0
 12 13  1  0  0  0  0
 13 14  1  0  0  0  0
 14 15  2  0  0  0  0
 14 16  1  0  0  0  0
 16 17  1  0  0  0  0
 17 18  2  0  0  0  0
 18 19  1  0  0  0  0
 19 20  1  0  0  0  0
 16 20  2  0  0  0  0
 19 21  1  0  0  0  0
 21 22  1  0  0  0  0
 22 23  1  0  0  0  0
 23 24  1  0  0  0  0
 24 21  1  0  0  0  0
 13 25  1  0  0  0  0
 25 26  1  0  0  0  0
 26 27  1  0  0  0  0
 27 11  1  0  0  0  0
 10 28  1  0  0  0  0
 28 29  1  0  0  0  0
 29 30  1  0  0  0  0
 30  8  1  0  0  0  0
  7 31  1  0  0  0  0
 31  2  1  0  0  0  0
  3 32  1  0  0  0  0
 32 33  1  0  0  0  0
 33 34  1  0  0  0  0
 34 35  2  0  0  0  0
 35 36  1  0  0  0  0
 36 37  2  0  0  0  0
 37 38  1  0  0  0  0
 38 33  2  0  0  0  0
  6 39  1  0  0  0  0
  9 40  1  0  0  0  0
  9 41  1  0  0  0  0
 10 42  1  0  0  0  0
 11 43  1  0  0  0  0
 12 44  1  0  0  0  0
 12 45  1  0  0  0  0
 20 46  1  0  0  0  0
 21 47  1  0  0  0  0
 22 48  1  0  0  0  0
 22 49  1  0  0  0  0
 23 50  1  0  0  0  0
 23 51  1  0  0  0  0
 24 52  1  0  0  0  0
 24 53  1  0  0  0  0
 25 54  1  0  0  0  0
 25 55  1  0  0  0  0
 26 56  1  0  0  0  0
 26 57  1  0  0  0  0
 27 58  1  0  0  0  0
 27 59  1  0  0  0  0
 28 60  1  0  0  0  0
 28 61  1  0  0  0  0
 29 62  1  0  0  0  0
 29 63  1  0  0  0  0
 30 64  1  0  0  0  0
 30 65  1  0  0  0  0
 31 66  1  0  0  0  0
 32 67  1  0  0  0  0
 32 68  1  0  0  0  0
 34 69  1  0  0  0  0
 35 70  1  0  0  0  0
 36 71  1  0  0  0  0
 37 72  1  0  0  0  0
 38 73  1  0  0  0  0
M  END
>  <result-rank>
47

>  <similarity>
0.894

>  <query-name>


>  <query-smiles>
S1c2c(cccc2)C(C(=O)N3CCC([N@H+]4CC5(C(=O)N6N(C5=O)CCCC6)CCC4)CC3)=C1NC(=O)NC

>  <source>
REALspace_2019-12

>  <similarity-descriptor>
0.999;0.927;0.884;0.873;0.752;0.975;0.927;0.927;0.927;0.0;0.0;0.0

>  <similarity-descriptor-smiles>
N1CCCCC1;O=C1NC=CC(N1)=O;Cc1ccccc1;C(=O)C1=CNN=N1;C1CCCNC1;C1CCC1;O=C1NC=CC(N1)=O;O=C1NC=CC(N1)=O;O=C1NC=CC(N1)=O;;;

>  <reaction-name>
m_274310

>  <reagent1-name>
14113020

>  <reagent1-smiles>
[R1*]N1CC(C2CN([R2*])CCC2)CCC1

>  <reagent2-name>
14121912

>  <reagent2-smiles>
[R1*]C(=O)C=1N=NN(C1)C2CCC2

>  <reagent3-name>
15870814

>  <reagent3-smiles>
[R2*]C=1NC(=O)N(C(=O)C1)Cc2ccccc2

$$$$
m_275030____14114032____14127054____14146862
          04022017303D 1   1.00000     0.00000     0
            
 71 75  0  0  0  0            999 V2000
    5.7871    2.7409    8.8500 O   0  0  0  0  0  0  0  0  0  0  0  0
    4.9728    1.8736    8.6930 C   0  0  0  0  0  0  0  0  0  0  0  0
    4.0067    1.9918    7.6791 N   0  0  0  0  0  0  0  0  0  0  0  0
    3.9582    3.1601    6.7898 C   0  0  0  0  0  0  0  0  0  0  0  0
    2.5030    3.3548    6.3926 C   0  0  0  0  0  0  0  0  0  0  0  0
    2.0092    2.2158    5.5121 C   0  0  0  0  0  0  0  0  0  0  0  0
    2.3431    2.4537    4.0480 C   0  0  3  0  0  0  0  0  0  0  0  0
    1.8976    1.2796    3.2015 C   0  0  0  0  0  0  0  0  0  0  0  0
    1.8489    1.8489    1.8489 N   0  3  3  0  0  0  0  0  0  0  0  0
    1.0000    1.0000    1.0000 C   0  0  0  0  0  0  0  0  0  0  0  0
    1.0912    1.4729   -0.4417 C   0  0  0  0  0  0  0  0  0  0  0  0
    2.0982    1.9888   -0.8413 O   0  0  0  0  0  0  0  0  0  0  0  0
    0.0237    1.3102   -1.2848 N   0  0  0  0  0  0  0  0  0  0  0  0
    0.1119    1.7675   -2.6791 C   0  0  0  0  0  0  0  0  0  0  0  0
   -1.1967    1.4711   -3.3932 C   0  0  0  0  0  0  0  0  0  0  0  0
   -2.0958    0.9395   -2.8023 O   0  0  0  0  0  0  0  0  0  0  0  0
   -1.3535    1.8191   -4.7434 N   0  0  0  0  0  0  0  0  0  0  0  0
   -2.5560    1.5926   -5.5506 C   0  0  0  0  0  0  0  0  0  0  0  0
   -2.5522    2.7112   -6.5740 C   0  0  0  0  0  0  0  0  0  0  0  0
   -1.1262    3.2297   -6.6412 C   0  0  0  0  0  0  0  0  0  0  0  0
   -0.3444    2.4641   -5.5908 C   0  0  0  0  0  0  0  0  0  0  0  0
    1.1962    3.1485    2.0474 C   0  0  0  0  0  0  0  0  0  0  0  0
    1.4909    3.5704    3.4706 C   0  0  0  0  0  0  0  0  0  0  0  0
    2.7149    0.9430    5.9550 C   0  0  0  0  0  0  0  0  0  0  0  0
    2.9956    0.9535    7.4517 C   0  0  0  0  0  0  0  0  0  0  0  0
    4.9856    0.7033    9.5496 C   0  0  0  0  0  0  0  0  0  0  0  0
    4.0233    0.2928   10.3368 N   0  0  0  0  0  0  0  0  0  0  0  0
    4.3707   -0.7666   10.9502 O   0  0  0  0  0  0  0  0  0  0  0  0
    5.5814   -1.1263   10.6039 C   0  0  0  0  0  0  0  0  0  0  0  0
    6.3025   -2.2850   11.0960 C   0  0  0  0  0  0  0  0  0  0  0  0
    7.5889   -2.5437   10.6368 C   0  0  0  0  0  0  0  0  0  0  0  0
    8.2572   -3.6610   11.1257 C   0  0  0  0  0  0  0  0  0  0  0  0
    7.6737   -4.4715   12.0215 N   0  0  0  0  0  0  0  0  0  0  0  0
    6.4336   -4.2375   12.4757 C   0  0  0  0  0  0  0  0  0  0  0  0
    5.7135   -3.1360   12.0244 C   0  0  0  0  0  0  0  0  0  0  0  0
    6.0408   -0.2197    9.6997 C   0  0  0  0  0  0  0  0  0  0  0  0
    2.7652    1.9542    1.4624 H   0  0  0  0  0  0  0  0  0  0  0  0
    4.5174    2.9966    5.9770 H   0  0  0  0  0  0  0  0  0  0  0  0
    4.2952    3.9707    7.2686 H   0  0  0  0  0  0  0  0  0  0  0  0
    1.9424    3.3928    7.2198 H   0  0  0  0  0  0  0  0  0  0  0  0
    2.4153    4.2153    5.8907 H   0  0  0  0  0  0  0  0  0  0  0  0
    1.0208    2.1093    5.6203 H   0  0  0  0  0  0  0  0  0  0  0  0
    3.3176    2.6405    3.9243 H   0  0  0  0  0  0  0  0  0  0  0  0
    2.5565    0.5291    3.2523 H   0  0  0  0  0  0  0  0  0  0  0  0
    0.9967    0.9521    3.4865 H   0  0  0  0  0  0  0  0  0  0  0  0
    0.0515    1.0600    1.3111 H   0  0  0  0  0  0  0  0  0  0  0  0
    1.3111    0.0515    1.0600 H   0  0  0  0  0  0  0  0  0  0  0  0
   -0.8155    0.8802   -0.9518 H   0  0  0  0  0  0  0  0  0  0  0  0
    0.8591    1.2890   -3.1402 H   0  0  0  0  0  0  0  0  0  0  0  0
    0.2856    2.7522   -2.6965 H   0  0  0  0  0  0  0  0  0  0  0  0
   -3.3765    1.6391   -4.9810 H   0  0  0  0  0  0  0  0  0  0  0  0
   -2.5140    0.7015   -6.0027 H   0  0  0  0  0  0  0  0  0  0  0  0
   -3.1724    3.4421   -6.2890 H   0  0  0  0  0  0  0  0  0  0  0  0
   -2.8356    2.3630   -7.4675 H   0  0  0  0  0  0  0  0  0  0  0  0
   -0.7402    3.0644   -7.5488 H   0  0  0  0  0  0  0  0  0  0  0  0
   -1.1044    4.2096   -6.4431 H   0  0  0  0  0  0  0  0  0  0  0  0
    0.2405    1.7772   -6.0221 H   0  0  0  0  0  0  0  0  0  0  0  0
    0.2185    3.0890   -5.0498 H   0  0  0  0  0  0  0  0  0  0  0  0
    0.2093    3.0630    1.9106 H   0  0  0  0  0  0  0  0  0  0  0  0
    1.5646    3.8209    1.4054 H   0  0  0  0  0  0  0  0  0  0  0  0
    1.9915    4.4360    3.4834 H   0  0  0  0  0  0  0  0  0  0  0  0
    0.6422    3.6684    3.9903 H   0  0  0  0  0  0  0  0  0  0  0  0
    3.5814    0.8635    5.4623 H   0  0  0  0  0  0  0  0  0  0  0  0
    2.1350    0.1576    5.7385 H   0  0  0  0  0  0  0  0  0  0  0  0
    2.1604    1.1678    7.9583 H   0  0  0  0  0  0  0  0  0  0  0  0
    3.3435    0.0627    7.7441 H   0  0  0  0  0  0  0  0  0  0  0  0
    8.0242   -1.9395    9.9694 H   0  0  0  0  0  0  0  0  0  0  0  0
    9.1831   -3.8625   10.8060 H   0  0  0  0  0  0  0  0  0  0  0  0
    6.0238   -4.8590   13.1434 H   0  0  0  0  0  0  0  0  0  0  0  0
    4.7888   -2.9596   12.3617 H   0  0  0  0  0  0  0  0  0  0  0  0
    6.9301   -0.2101    9.2425 H   0  0  0  0  0  0  0  0  0  0  0  0
  1  2  2  0  0  0  0
  2  3  1  0  0  0  0
  3  4  1  0  0  0  0
  4  5  1  0  0  0  0
  5  6  1  0  0  0  0
  6  7  1  0  0  0  0
  7  8  1  0  0  0  0
  8  9  1  0  0  0  0
  9 10  1  0  0  0  0
 10 11  1  0  0  0  0
 11 12  2  0  0  0  0
 11 13  1  0  0  0  0
 13 14  1  0  0  0  0
 14 15  1  0  0  0  0
 15 16  2  0  0  0  0
 15 17  1  0  0  0  0
 17 18  1  0  0  0  0
 18 19  1  0  0  0  0
 19 20  1  0  0  0  0
 20 21  1  0  0  0  0
 21 17  1  0  0  0  0
  9 22  1  0  0  0  0
 22 23  1  0  0  0  0
 23  7  1  0  0  0  0
  6 24  1  0  0  0  0
 24 25  1  0  0  0  0
 25  3  1  0  0  0  0
  2 26  1  0  0  0  0
 26 27  2  0  0  0  0
 27 28  1  0  0  0  0
 28 29  1  0  0  0  0
 29 30  1  0  0  0  0
 30 31  1  0  0  0  0
 31 32  2  0  0  0  0
 32 33  1  0  0  0  0
 33 34  2  0  0  0  0
 34 35  1  0  0  0  0
 35 30  2  0  0  0  0
 29 36  2  0  0  0  0
 36 26  1  0  0  0  0
  9 37  1  0  0  0  0
  4 38  1  0  0  0  0
  4 39  1  0  0  0  0
  5 40  1  0  0  0  0
  5 41  1  0  0  0  0
  6 42  1  0  0  0  0
  7 43  1  0  0  0  0
  8 44  1  0  0  0  0
  8 45  1  0  0  0  0
 10 46  1  0  0  0  0
 10 47  1  0  0  0  0
 13 48  1  0  0  0  0
 14 49  1  0  0  0  0
 14 50  1  0  0  0  0
 18 51  1  0  0  0  0
 18 52  1  0  0  0  0
 19 53  1  0  0  0  0
 19 54  1  0  0  0  0
 20 55  1  0  0  0  0
 20 56  1  0  0  0  0
 21 57  1  0  0  0  0
 21 58  1  0  0  0  0
 22 59  1  0  0  0  0
 22 60  1  0  0  0  0
 23 61  1  0  0  0  0
 23 62  1  0  0  0  0
 24 63  1  0  0  0  0
 24 64  1  0  0  0  0
 25 65  1  0  0  0  0
 25 66  1  0  0  0  0
 31 67  1  0  0  0  0
 32 68  1  0  0  0  0
 34 69  1  0  0  0  0
 35 70  1  0  0  0  0
 36 71  1  0  0  0  0
M  CHG  1   9   1
M  END
>  <result-rank>
48

>  <similarity>
0.894

>  <query-name>


>  <query-smiles>
S1c2c(cccc2)C(C(=O)N3CCC([N@H+]4CC5(C(=O)N6N(C5=O)CCCC6)CCC4)CC3)=C1NC(=O)NC

>  <source>
REALspace_2019-12

>  <similarity-descriptor>
0.999;0.785;0.874;0.792;0.936;0.999;1.000;0.785;0.785;0.0;0.0;0.0

>  <similarity-descriptor-smiles>
N1CCCCC1;C=1C=CON1;c1ccncc1;C(=O)NCC=O;C1CC[NH+](C1)C;N1CCCC1;O=C;C=1C=CON1;C=1C=CON1;;;

>  <reaction-name>
m_275030

>  <reagent1-name>
14114032

>  <reagent1-smiles>
[R2*]N1CC(C2CCN([R1*])CC2)CC1

>  <reagent2-name>
14127054

>  <reagent2-smiles>
[R1*]C(=O)C1=NOC(c2ccncc2)=C1

>  <reagent3-name>
14146862

>  <reagent3-smiles>
[R2*]CC(=O)NCC(=O)N1CCCC1

$$$$
m_275030____14114032____14122654____14148780
          04022017303D 1   1.00000     0.00000     0
            
 70 75  0  0  0  0            999 V2000
   -3.0138    4.9918   -0.6904 O   0  0  0  0  0  0  0  0  0  0  0  0
   -2.0017    5.5851   -0.4384 C   0  0  0  0  0  0  0  0  0  0  0  0
   -0.8781    4.8890    0.0152 N   0  0  0  0  0  0  0  0  0  0  0  0
   -0.9789    3.4285    0.1699 C   0  0  0  0  0  0  0  0  0  0  0  0
   -0.1140    2.9157    1.3131 C   0  0  0  0  0  0  0  0  0  0  0  0
    1.2837    3.5185    1.2940 C   0  0  0  0  0  0  0  0  0  0  0  0
    2.0264    3.0056    2.5174 C   0  0  3  0  0  0  0  0  0  0  0  0
    2.1200    1.4943    2.4902 C   0  0  0  0  0  0  0  0  0  0  0  0
    3.2207    1.2161    3.4213 N   0  3  3  0  0  0  0  0  0  0  0  0
    3.7451   -0.1319    3.1570 C   0  0  0  0  0  0  0  0  0  0  0  0
    2.6372   -1.1546    3.3544 C   0  0  0  0  0  0  0  0  0  0  0  0
    1.8092   -1.5734    2.4294 O   0  0  0  0  0  0  0  0  0  0  0  0
    1.0100   -2.4208    2.9227 N   0  0  0  0  0  0  0  0  0  0  0  0
    1.3048   -2.5754    4.1890 C   0  0  0  0  0  0  0  0  0  0  0  0
    2.3552   -1.7601    4.4814 N   0  0  0  0  0  0  0  0  0  0  0  0
    0.5927   -3.5015    5.1619 C   0  0  0  0  0  0  0  0  0  0  0  0
    1.2633   -4.8661    5.1459 C   0  0  0  0  0  0  0  0  0  0  0  0
    2.7052   -4.7611    5.5489 C   0  0  0  0  0  0  0  0  0  0  0  0
    2.3420   -4.9629    4.1057 C   0  0  0  0  0  0  0  0  0  0  0  0
    4.2351    2.2138    3.0607 C   0  0  0  0  0  0  0  0  0  0  0  0
    3.4945    3.3904    2.4629 C   0  0  0  0  0  0  0  0  0  0  0  0
    1.1428    5.0259    1.4514 C   0  0  0  0  0  0  0  0  0  0  0  0
    0.3433    5.6533    0.3178 C   0  0  0  0  0  0  0  0  0  0  0  0
   -1.9417    7.0939   -0.6126 C   0  0  0  0  0  0  0  0  0  0  0  0
   -2.2233    7.4481   -2.0637 C   0  0  0  0  0  0  0  0  0  0  0  0
   -2.1653    8.9067   -2.2321 N   0  0  0  0  0  0  0  0  0  0  0  0
   -1.0530    9.6287   -2.5500 C   0  0  0  0  0  0  0  0  0  0  0  0
   -1.3784   10.9618   -2.6250 C   0  0  0  0  0  0  0  0  0  0  0  0
   -0.3984   11.9117   -2.9294 C   0  0  0  0  0  0  0  0  0  0  0  0
    0.9131   11.5091   -3.1660 C   0  0  0  0  0  0  0  0  0  0  0  0
    1.2500   10.1626   -3.0949 C   0  0  0  0  0  0  0  0  0  0  0  0
    0.2595    9.2355   -2.7871 C   0  0  0  0  0  0  0  0  0  0  0  0
   -2.7601   10.9977   -2.3180 C   0  0  0  0  0  0  0  0  0  0  0  0
   -3.2313    9.7426   -2.0823 C   0  0  0  0  0  0  0  0  0  0  0  0
    2.9301    1.3163    4.3729 H   0  0  0  0  0  0  0  0  0  0  0  0
   -0.6827    2.9925   -0.6799 H   0  0  0  0  0  0  0  0  0  0  0  0
   -1.9321    3.1882    0.3533 H   0  0  0  0  0  0  0  0  0  0  0  0
   -0.5539    3.1506    2.1798 H   0  0  0  0  0  0  0  0  0  0  0  0
   -0.0367    1.9216    1.2371 H   0  0  0  0  0  0  0  0  0  0  0  0
    1.7682    3.2852    0.4509 H   0  0  0  0  0  0  0  0  0  0  0  0
    1.5987    3.3271    3.3622 H   0  0  0  0  0  0  0  0  0  0  0  0
    1.2682    1.0756    2.8049 H   0  0  0  0  0  0  0  0  0  0  0  0
    2.3342    1.1638    1.5710 H   0  0  0  0  0  0  0  0  0  0  0  0
    4.4955   -0.3274    3.7884 H   0  0  0  0  0  0  0  0  0  0  0  0
    4.0800   -0.1808    2.2160 H   0  0  0  0  0  0  0  0  0  0  0  0
   -0.3650   -3.5975    4.8904 H   0  0  0  0  0  0  0  0  0  0  0  0
    0.6409   -3.1172    6.0838 H   0  0  0  0  0  0  0  0  0  0  0  0
    0.7374   -5.6802    5.3923 H   0  0  0  0  0  0  0  0  0  0  0  0
    3.1354   -5.5021    6.0645 H   0  0  0  0  0  0  0  0  0  0  0  0
    3.0767   -3.8840    5.8531 H   0  0  0  0  0  0  0  0  0  0  0  0
    2.4715   -4.2200    3.4489 H   0  0  0  0  0  0  0  0  0  0  0  0
    2.5302   -5.8382    3.6603 H   0  0  0  0  0  0  0  0  0  0  0  0
    4.8720    1.8313    2.3914 H   0  0  0  0  0  0  0  0  0  0  0  0
    4.7399    2.5017    3.8745 H   0  0  0  0  0  0  0  0  0  0  0  0
    3.6603    4.2182    2.9989 H   0  0  0  0  0  0  0  0  0  0  0  0
    3.7824    3.5424    1.5173 H   0  0  0  0  0  0  0  0  0  0  0  0
    2.0555    5.4344    1.4656 H   0  0  0  0  0  0  0  0  0  0  0  0
    0.6787    5.2169    2.3163 H   0  0  0  0  0  0  0  0  0  0  0  0
    0.0855    6.5831    0.5807 H   0  0  0  0  0  0  0  0  0  0  0  0
    0.9155    5.6852   -0.5017 H   0  0  0  0  0  0  0  0  0  0  0  0
   -1.0318    7.4228   -0.3598 H   0  0  0  0  0  0  0  0  0  0  0  0
   -2.6269    7.5248   -0.0253 H   0  0  0  0  0  0  0  0  0  0  0  0
   -1.5381    7.0172   -2.6509 H   0  0  0  0  0  0  0  0  0  0  0  0
   -3.1332    7.1192   -2.3165 H   0  0  0  0  0  0  0  0  0  0  0  0
   -0.6399   12.8810   -2.9772 H   0  0  0  0  0  0  0  0  0  0  0  0
    1.6127   12.1887   -3.3870 H   0  0  0  0  0  0  0  0  0  0  0  0
    2.1898    9.8648   -3.2624 H   0  0  0  0  0  0  0  0  0  0  0  0
    0.4965    8.2654   -2.7352 H   0  0  0  0  0  0  0  0  0  0  0  0
   -3.3132   11.8299   -2.2797 H   0  0  0  0  0  0  0  0  0  0  0  0
   -4.1688    9.4861   -1.8471 H   0  0  0  0  0  0  0  0  0  0  0  0
  1  2  2  0  0  0  0
  2  3  1  0  0  0  0
  3  4  1  0  0  0  0
  4  5  1  0  0  0  0
  5  6  1  0  0  0  0
  6  7  1  0  0  0  0
  7  8  1  0  0  0  0
  8  9  1  0  0  0  0
  9 10  1  0  0  0  0
 10 11  1  0  0  0  0
 11 12  1  0  0  0  0
 12 13  1  0  0  0  0
 13 14  2  0  0  0  0
 14 15  1  0  0  0  0
 11 15  2  0  0  0  0
 14 16  1  0  0  0  0
 16 17  1  0  0  0  0
 17 18  1  0  0  0  0
 18 19  1  0  0  0  0
 19 17  1  0  0  0  0
  9 20  1  0  0  0  0
 20 21  1  0  0  0  0
 21  7  1  0  0  0  0
  6 22  1  0  0  0  0
 22 23  1  0  0  0  0
 23  3  1  0  0  0  0
  2 24  1  0  0  0  0
 24 25  1  0  0  0  0
 25 26  1  0  0  0  0
 26 27  1  0  0  0  0
 27 28  1  0  0  0  0
 28 29  2  0  0  0  0
 29 30  1  0  0  0  0
 30 31  2  0  0  0  0
 31 32  1  0  0  0  0
 32 27  2  0  0  0  0
 28 33  1  0  0  0  0
 33 34  2  0  0  0  0
 34 26  1  0  0  0  0
  9 35  1  0  0  0  0
  4 36  1  0  0  0  0
  4 37  1  0  0  0  0
  5 38  1  0  0  0  0
  5 39  1  0  0  0  0
  6 40  1  0  0  0  0
  7 41  1  0  0  0  0
  8 42  1  0  0  0  0
  8 43  1  0  0  0  0
 10 44  1  0  0  0  0
 10 45  1  0  0  0  0
 16 46  1  0  0  0  0
 16 47  1  0  0  0  0
 17 48  1  0  0  0  0
 18 49  1  0  0  0  0
 18 50  1  0  0  0  0
 19 51  1  0  0  0  0
 19 52  1  0  0  0  0
 20 53  1  0  0  0  0
 20 54  1  0  0  0  0
 21 55  1  0  0  0  0
 21 56  1  0  0  0  0
 22 57  1  0  0  0  0
 22 58  1  0  0  0  0
 23 59  1  0  0  0  0
 23 60  1  0  0  0  0
 24 61  1  0  0  0  0
 24 62  1  0  0  0  0
 25 63  1  0  0  0  0
 25 64  1  0  0  0  0
 29 65  1  0  0  0  0
 30 66  1  0  0  0  0
 31 67  1  0  0  0  0
 32 68  1  0  0  0  0
 33 69  1  0  0  0  0
 34 70  1  0  0  0  0
M  CHG  1   9   1
M  END
>  <result-rank>
49

>  <similarity>
0.893

>  <query-name>


>  <query-smiles>
S1c2c(cccc2)C(C(=O)N3CCC([N@H+]4CC5(C(=O)N6N(C5=O)CCCC6)CCC4)CC3)=C1NC(=O)NC

>  <source>
REALspace_2019-12

>  <similarity-descriptor>
0.999;0.853;0.999;0.780;0.936;0.973;0.774;0.0;0.0;0.0;0.0;0.0

>  <similarity-descriptor-smiles>
N1CCCCC1;N1C=Ccc1;c1ccccc1;C1=NC=NO1;C1CC[NH+](C1)C;CC1CC1;O=CCC;;;;;

>  <reaction-name>
m_275030

>  <reagent1-name>
14114032

>  <reagent1-smiles>
[R2*]N1CC(C2CCN([R1*])CC2)CC1

>  <reagent2-name>
14122654

>  <reagent2-smiles>
[R1*]C(=O)CCN1c2c(cccc2)C=C1

>  <reagent3-name>
14148780

>  <reagent3-smiles>
[R2*]CC=1ON=C(N1)CC2CC2

$$$$
m_275030____14114032____14126114____12659612
          04022017303D 1   1.00000     0.00000     0
            
 63 67  0  0  0  0            999 V2000
   -3.0138    4.9918   -0.6904 O   0  0  0  0  0  0  0  0  0  0  0  0
   -2.0017    5.5851   -0.4384 C   0  0  0  0  0  0  0  0  0  0  0  0
   -0.8781    4.8890    0.0152 N   0  0  0  0  0  0  0  0  0  0  0  0
   -0.9789    3.4285    0.1699 C   0  0  0  0  0  0  0  0  0  0  0  0
   -0.1140    2.9157    1.3131 C   0  0  0  0  0  0  0  0  0  0  0  0
    1.2837    3.5185    1.2940 C   0  0  0  0  0  0  0  0  0  0  0  0
    2.0264    3.0056    2.5174 C   0  0  3  0  0  0  0  0  0  0  0  0
    2.1200    1.4943    2.4902 C   0  0  0  0  0  0  0  0  0  0  0  0
    3.2207    1.2161    3.4213 N   0  3  3  0  0  0  0  0  0  0  0  0
    3.7451   -0.1319    3.1570 C   0  0  0  0  0  0  0  0  0  0  0  0
    4.8873   -0.4294    4.1181 C   0  0  0  0  0  0  0  0  0  0  0  0
    6.1697   -0.1406    3.8377 N   0  0  0  0  0  0  0  0  0  0  0  0
    7.1354   -0.3965    4.6604 N   0  0  0  0  0  0  0  0  0  0  0  0
    6.9309   -0.9708    5.8580 C   0  0  0  0  0  0  0  0  0  0  0  0
    7.9360   -1.2408    6.7228 O   0  0  0  0  0  0  0  0  0  0  0  0
    7.6518   -1.8490    7.9741 C   0  0  0  0  0  0  0  0  0  0  0  0
    5.6302   -1.3008    6.2231 C   0  0  0  0  0  0  0  0  0  0  0  0
    4.5922   -1.0258    5.3393 C   0  0  0  0  0  0  0  0  0  0  0  0
    4.2351    2.2138    3.0607 C   0  0  0  0  0  0  0  0  0  0  0  0
    3.4945    3.3904    2.4629 C   0  0  0  0  0  0  0  0  0  0  0  0
    1.1428    5.0259    1.4514 C   0  0  0  0  0  0  0  0  0  0  0  0
    0.3433    5.6533    0.3178 C   0  0  0  0  0  0  0  0  0  0  0  0
   -1.9445    7.0220   -0.6043 C   0  0  0  0  0  0  0  0  0  0  0  0
   -1.6684    7.8346    0.4648 N   0  0  0  0  0  0  0  0  0  0  0  0
   -1.6117    9.1971    0.3257 C   0  0  0  0  0  0  0  0  0  0  0  0
   -1.8355    9.7780   -0.9196 C   0  0  0  0  0  0  0  0  0  0  0  0
   -1.7725   11.1641   -1.0375 C   0  0  0  0  0  0  0  0  0  0  0  0
   -1.4916   11.9776    0.0543 C   0  0  0  0  0  0  0  0  0  0  0  0
   -1.2700   11.3786    1.2892 C   0  0  0  0  0  0  0  0  0  0  0  0
   -1.3283    9.9962    1.4289 C   0  0  0  0  0  0  0  0  0  0  0  0
   -2.1226    8.9386   -2.0325 C   0  0  0  0  0  0  0  0  0  0  0  0
   -2.3301    9.3817   -3.1523 O   0  0  0  0  0  0  0  0  0  0  0  0
   -2.1747    7.5307   -1.8553 C   0  0  0  0  0  0  0  0  0  0  0  0
    2.9301    1.3163    4.3729 H   0  0  0  0  0  0  0  0  0  0  0  0
   -0.6827    2.9925   -0.6799 H   0  0  0  0  0  0  0  0  0  0  0  0
   -1.9321    3.1882    0.3533 H   0  0  0  0  0  0  0  0  0  0  0  0
   -0.5539    3.1506    2.1798 H   0  0  0  0  0  0  0  0  0  0  0  0
   -0.0367    1.9216    1.2371 H   0  0  0  0  0  0  0  0  0  0  0  0
    1.7682    3.2852    0.4509 H   0  0  0  0  0  0  0  0  0  0  0  0
    1.5987    3.3271    3.3622 H   0  0  0  0  0  0  0  0  0  0  0  0
    1.2682    1.0756    2.8049 H   0  0  0  0  0  0  0  0  0  0  0  0
    2.3342    1.1638    1.5710 H   0  0  0  0  0  0  0  0  0  0  0  0
    4.0800   -0.1808    2.2160 H   0  0  0  0  0  0  0  0  0  0  0  0
    3.0165   -0.8044    3.2868 H   0  0  0  0  0  0  0  0  0  0  0  0
    8.5027   -1.9758    8.4839 H   0  0  0  0  0  0  0  0  0  0  0  0
    7.0340   -1.2621    8.4973 H   0  0  0  0  0  0  0  0  0  0  0  0
    7.2187   -2.7374    7.8221 H   0  0  0  0  0  0  0  0  0  0  0  0
    5.4442   -1.7291    7.1074 H   0  0  0  0  0  0  0  0  0  0  0  0
    3.6483   -1.2534    5.5783 H   0  0  0  0  0  0  0  0  0  0  0  0
    4.8720    1.8313    2.3914 H   0  0  0  0  0  0  0  0  0  0  0  0
    4.7399    2.5017    3.8745 H   0  0  0  0  0  0  0  0  0  0  0  0
    3.6603    4.2182    2.9989 H   0  0  0  0  0  0  0  0  0  0  0  0
    3.7824    3.5424    1.5173 H   0  0  0  0  0  0  0  0  0  0  0  0
    2.0555    5.4344    1.4656 H   0  0  0  0  0  0  0  0  0  0  0  0
    0.6787    5.2169    2.3163 H   0  0  0  0  0  0  0  0  0  0  0  0
    0.0855    6.5831    0.5807 H   0  0  0  0  0  0  0  0  0  0  0  0
    0.9155    5.6852   -0.5017 H   0  0  0  0  0  0  0  0  0  0  0  0
   -1.5054    7.4258    1.3628 H   0  0  0  0  0  0  0  0  0  0  0  0
   -1.9333   11.5851   -1.9302 H   0  0  0  0  0  0  0  0  0  0  0  0
   -1.4499   12.9717   -0.0464 H   0  0  0  0  0  0  0  0  0  0  0  0
   -1.0665   11.9480    2.0857 H   0  0  0  0  0  0  0  0  0  0  0  0
   -1.1666    9.5765    2.3220 H   0  0  0  0  0  0  0  0  0  0  0  0
   -2.3746    6.9249   -2.6254 H   0  0  0  0  0  0  0  0  0  0  0  0
  1  2  2  0  0  0  0
  2  3  1  0  0  0  0
  3  4  1  0  0  0  0
  4  5  1  0  0  0  0
  5  6  1  0  0  0  0
  6  7  1  0  0  0  0
  7  8  1  0  0  0  0
  8  9  1  0  0  0  0
  9 10  1  0  0  0  0
 10 11  1  0  0  0  0
 11 12  1  0  0  0  0
 12 13  2  0  0  0  0
 13 14  1  0  0  0  0
 14 15  1  0  0  0  0
 15 16  1  0  0  0  0
 14 17  2  0  0  0  0
 17 18  1  0  0  0  0
 18 11  2  0  0  0  0
  9 19  1  0  0  0  0
 19 20  1  0  0  0  0
 20  7  1  0  0  0  0
  6 21  1  0  0  0  0
 21 22  1  0  0  0  0
 22  3  1  0  0  0  0
  2 23  1  0  0  0  0
 23 24  1  0  0  0  0
 24 25  1  0  0  0  0
 25 26  1  0  0  0  0
 26 27  2  0  0  0  0
 27 28  1  0  0  0  0
 28 29  2  0  0  0  0
 29 30  1  0  0  0  0
 30 25  2  0  0  0  0
 26 31  1  0  0  0  0
 31 32  2  0  0  0  0
 31 33  1  0  0  0  0
 23 33  2  0  0  0  0
  9 34  1  0  0  0  0
  4 35  1  0  0  0  0
  4 36  1  0  0  0  0
  5 37  1  0  0  0  0
  5 38  1  0  0  0  0
  6 39  1  0  0  0  0
  7 40  1  0  0  0  0
  8 41  1  0  0  0  0
  8 42  1  0  0  0  0
 10 43  1  0  0  0  0
 10 44  1  0  0  0  0
 16 45  1  0  0  0  0
 16 46  1  0  0  0  0
 16 47  1  0  0  0  0
 17 48  1  0  0  0  0
 18 49  1  0  0  0  0
 19 50  1  0  0  0  0
 19 51  1  0  0  0  0
 20 52  1  0  0  0  0
 20 53  1  0  0  0  0
 21 54  1  0  0  0  0
 21 55  1  0  0  0  0
 22 56  1  0  0  0  0
 22 57  1  0  0  0  0
 24 58  1  0  0  0  0
 27 59  1  0  0  0  0
 28 60  1  0  0  0  0
 29 61  1  0  0  0  0
 30 62  1  0  0  0  0
 33 63  1  0  0  0  0
M  CHG  1   9   1
M  END
>  <result-rank>
50

>  <similarity>
0.892

>  <query-name>


>  <query-smiles>
S1c2c(cccc2)C(C(=O)N3CCC([N@H+]4CC5(C(=O)N6N(C5=O)CCCC6)CCC4)CC3)=C1NC(=O)NC

>  <source>
REALspace_2019-12

>  <similarity-descriptor>
0.999;0.935;0.999;0.754;0.936;0.0;1.000;0.935;0.935;0.0;0.0;0.111

>  <similarity-descriptor-smiles>
N1CCCCC1;C1=CC(ccN1)=O;c1ccccc1;c1ccc(nn1)O;C1CC[NH+](C1)C;;O=C;C1=CC(ccN1)=O;C1=CC(ccN1)=O;;;C

>  <reaction-name>
m_275030

>  <reagent1-name>
14114032

>  <reagent1-smiles>
[R2*]N1CC(C2CCN([R1*])CC2)CC1

>  <reagent2-name>
14126114

>  <reagent2-smiles>
[R1*]C(=O)C=1Nc2c(cccc2)C(=O)C1

>  <reagent3-name>
12659612

>  <reagent3-smiles>
[R2*]Cc1nnc(OC)cc1

$$$$
m_275592____15865406____14138128____14134194
          04022017303D 1   1.00000     0.00000     0
            
 70 74  0  0  0  0            999 V2000
    6.2739    2.7755    6.5169 O   0  0  0  0  0  0  0  0  0  0  0  0
    7.1815    2.0732    6.1664 C   0  0  0  0  0  0  0  0  0  0  0  0
    7.2420    1.6266    4.8726 N   0  0  0  0  0  0  0  0  0  0  0  0
    6.0301    1.6179    4.0407 C   0  0  0  0  0  0  0  0  0  0  0  0
    6.3684    1.0792    2.6563 C   0  0  3  0  0  0  0  0  0  0  0  0
    5.2111    1.0099    1.6797 C   0  0  0  0  0  0  0  0  0  0  0  0
    4.3308    2.2456    1.8605 C   0  0  0  0  0  0  0  0  0  0  0  0
    3.1009    2.2930    0.9598 C   0  0  0  0  0  0  0  0  0  0  0  0
    2.3983    1.0000    1.0000 N   0  0  0  0  0  0  0  0  0  0  0  0
    1.0000    1.0000    1.0000 C   0  0  0  0  0  0  0  0  0  0  0  0
    0.4000    2.0387    0.9677 O   0  0  0  0  0  0  0  0  0  0  0  0
    0.2400   -0.3157    1.0410 C   0  0  0  0  0  0  0  0  0  0  0  0
   -0.0600   -0.8674    0.0184 O   0  0  0  0  0  0  0  0  0  0  0  0
   -0.1107   -0.8851    2.2742 N   0  0  0  0  0  0  0  0  0  0  0  0
   -0.4597   -2.2923    2.5168 C   0  0  3  0  0  0  0  0  0  0  0  0
   -0.1998   -2.5361    3.9927 C   0  0  0  0  0  0  0  0  0  0  0  0
    0.3372   -1.2184    4.5180 C   0  0  0  0  0  0  0  0  0  0  0  0
   -0.1857   -0.1772    3.5504 C   0  0  0  0  0  0  0  0  0  0  0  0
    0.3693   -3.2272    1.6471 C   0  0  0  0  0  0  0  0  0  0  0  0
   -0.2587   -4.6114    1.6496 C   0  0  0  0  0  0  0  0  0  0  0  0
    3.0994   -0.2906    1.0589 C   0  0  0  0  0  0  0  0  0  0  0  0
    4.3182   -0.1912    1.9669 C   0  0  0  0  0  0  0  0  0  0  0  0
    5.9501    0.7703    0.3774 C   0  0  0  0  0  0  0  0  0  0  0  0
    7.3230    1.3886    0.5115 C   0  0  0  0  0  0  0  0  0  0  0  0
    7.3261    1.9775    1.9053 C   0  0  0  0  0  0  0  0  0  0  0  0
    8.2157    1.6965    7.1136 C   0  0  0  0  0  0  0  0  0  0  0  0
    7.9549    0.9869    8.2853 C   0  0  0  0  0  0  0  0  0  0  0  0
    9.0226    0.6776    9.1239 C   0  0  0  0  0  0  0  0  0  0  0  0
   10.2576    1.0693    8.7789 N   0  0  0  0  0  0  0  0  0  0  0  0
   10.4976    1.7264    7.6917 N   0  0  0  0  0  0  0  0  0  0  0  0
    9.5263    2.0637    6.8284 C   0  0  0  0  0  0  0  0  0  0  0  0
    8.7861   -0.0293   10.2985 C   0  0  0  0  0  0  0  0  0  0  0  0
    7.5017   -0.4332   10.6507 C   0  0  0  0  0  0  0  0  0  0  0  0
    6.4268   -0.1312    9.8223 C   0  0  0  0  0  0  0  0  0  0  0  0
    6.6741    0.5749    8.6502 C   0  0  0  0  0  0  0  0  0  0  0  0
    8.1106    1.3067    4.4942 H   0  0  0  0  0  0  0  0  0  0  0  0
    5.6755    2.5493    3.9585 H   0  0  0  0  0  0  0  0  0  0  0  0
    5.3383    1.0341    4.4656 H   0  0  0  0  0  0  0  0  0  0  0  0
    6.7750    0.1703    2.7483 H   0  0  0  0  0  0  0  0  0  0  0  0
    4.8872    3.0543    1.6699 H   0  0  0  0  0  0  0  0  0  0  0  0
    4.0212    2.2704    2.8110 H   0  0  0  0  0  0  0  0  0  0  0  0
    2.4855    3.0145    1.2771 H   0  0  0  0  0  0  0  0  0  0  0  0
    3.3852    2.4865    0.0207 H   0  0  0  0  0  0  0  0  0  0  0  0
   -1.4307   -2.4320    2.3229 H   0  0  0  0  0  0  0  0  0  0  0  0
    0.4742   -3.2646    4.1155 H   0  0  0  0  0  0  0  0  0  0  0  0
   -1.0471   -2.7831    4.4629 H   0  0  0  0  0  0  0  0  0  0  0  0
   -0.0019   -1.0427    5.4422 H   0  0  0  0  0  0  0  0  0  0  0  0
    1.3372   -1.2227    4.5250 H   0  0  0  0  0  0  0  0  0  0  0  0
   -1.1269    0.0811    3.7680 H   0  0  0  0  0  0  0  0  0  0  0  0
    0.3919    0.6391    3.5477 H   0  0  0  0  0  0  0  0  0  0  0  0
    1.2995   -3.2825    2.0097 H   0  0  0  0  0  0  0  0  0  0  0  0
    0.3966   -2.8752    0.7114 H   0  0  0  0  0  0  0  0  0  0  0  0
    0.2859   -5.2255    1.0782 H   0  0  0  0  0  0  0  0  0  0  0  0
   -0.2860   -4.9633    2.5852 H   0  0  0  0  0  0  0  0  0  0  0  0
   -1.1889   -4.5561    1.2869 H   0  0  0  0  0  0  0  0  0  0  0  0
    3.3942   -0.5479    0.1386 H   0  0  0  0  0  0  0  0  0  0  0  0
    2.4778   -0.9874    1.4168 H   0  0  0  0  0  0  0  0  0  0  0  0
    4.0008   -0.1275    2.9130 H   0  0  0  0  0  0  0  0  0  0  0  0
    4.8631   -1.0220    1.8534 H   0  0  0  0  0  0  0  0  0  0  0  0
    5.4556    1.1982   -0.3792 H   0  0  0  0  0  0  0  0  0  0  0  0
    6.0333   -0.2118    0.2081 H   0  0  0  0  0  0  0  0  0  0  0  0
    7.4600    2.1018   -0.1759 H   0  0  0  0  0  0  0  0  0  0  0  0
    8.0362    0.6939    0.4177 H   0  0  0  0  0  0  0  0  0  0  0  0
    8.2409    1.9439    2.3077 H   0  0  0  0  0  0  0  0  0  0  0  0
    7.0003    2.9229    1.8967 H   0  0  0  0  0  0  0  0  0  0  0  0
    9.7418    2.5707    5.9938 H   0  0  0  0  0  0  0  0  0  0  0  0
    9.5529   -0.2513   10.9007 H   0  0  0  0  0  0  0  0  0  0  0  0
    7.3521   -0.9405   11.4994 H   0  0  0  0  0  0  0  0  0  0  0  0
    5.4986   -0.4148   10.0634 H   0  0  0  0  0  0  0  0  0  0  0  0
    5.9066    0.7947    8.0480 H   0  0  0  0  0  0  0  0  0  0  0  0
  1  2  2  0  0  0  0
  2  3  1  0  0  0  0
  3  4  1  0  0  0  0
  4  5  1  0  0  0  0
  5  6  1  0  0  0  0
  6  7  1  0  0  0  0
  7  8  1  0  0  0  0
  8  9  1  0  0  0  0
  9 10  1  0  0  0  0
 10 11  2  0  0  0  0
 10 12  1  0  0  0  0
 12 13  2  0  0  0  0
 12 14  1  0  0  0  0
 14 15  1  0  0  0  0
 15 16  1  0  0  0  0
 16 17  1  0  0  0  0
 17 18  1  0  0  0  0
 18 14  1  0  0  0  0
 15 19  1  0  0  0  0
 19 20  1  0  0  0  0
  9 21  1  0  0  0  0
 21 22  1  0  0  0  0
 22  6  1  0  0  0  0
  6 23  1  0  0  0  0
 23 24  1  0  0  0  0
 24 25  1  0  0  0  0
 25  5  1  0  0  0  0
  2 26  1  0  0  0  0
 26 27  1  0  0  0  0
 27 28  2  0  0  0  0
 28 29  1  0  0  0  0
 29 30  2  0  0  0  0
 30 31  1  0  0  0  0
 31 26  2  0  0  0  0
 28 32  1  0  0  0  0
 32 33  2  0  0  0  0
 33 34  1  0  0  0  0
 34 35  2  0  0  0  0
 35 27  1  0  0  0  0
  3 36  1  0  0  0  0
  4 37  1  0  0  0  0
  4 38  1  0  0  0  0
  5 39  1  0  0  0  0
  7 40  1  0  0  0  0
  7 41  1  0  0  0  0
  8 42  1  0  0  0  0
  8 43  1  0  0  0  0
 15 44  1  0  0  0  0
 16 45  1  0  0  0  0
 16 46  1  0  0  0  0
 17 47  1  0  0  0  0
 17 48  1  0  0  0  0
 18 49  1  0  0  0  0
 18 50  1  0  0  0  0
 19 51  1  0  0  0  0
 19 52  1  0  0  0  0
 20 53  1  0  0  0  0
 20 54  1  0  0  0  0
 20 55  1  0  0  0  0
 21 56  1  0  0  0  0
 21 57  1  0  0  0  0
 22 58  1  0  0  0  0
 22 59  1  0  0  0  0
 23 60  1  0  0  0  0
 23 61  1  0  0  0  0
 24 62  1  0  0  0  0
 24 63  1  0  0  0  0
 25 64  1  0  0  0  0
 25 65  1  0  0  0  0
 31 66  1  0  0  0  0
 32 67  1  0  0  0  0
 33 68  1  0  0  0  0
 34 69  1  0  0  0  0
 35 70  1  0  0  0  0
M  END
>  <result-rank>
51

>  <similarity>
0.891

>  <query-name>


>  <query-smiles>
S1c2c(cccc2)C(C(=O)N3CCC([N@H+]4CC5(C(=O)N6N(C5=O)CCCC6)CCC4)CC3)=C1NC(=O)NC

>  <source>
REALspace_2019-12

>  <similarity-descriptor>
0.995;0.813;1.000;0.882;0.808;0.984;0.851;0.813;0.813;0.0;0.0;0.167

>  <similarity-descriptor-smiles>
CC1CCCC1;c1cnncc1;c1ccccc1;C(=O)C=O;C1CCNCC1;N1CCCC1;O=CN;c1cnncc1;c1cnncc1;;;C.C

>  <reaction-name>
m_275592

>  <reagent1-name>
15865406

>  <reagent1-smiles>
[R2*]N1CCC2(C(CN[R1*])CCC2)CC1

>  <reagent2-name>
14138128

>  <reagent2-smiles>
[R1*]C(=O)C(=O)N1C(CCC1)CC

>  <reagent3-name>
14134194

>  <reagent3-smiles>
[R2*]C(=O)c1c2c(nnc1)cccc2

$$$$
s_22____13778842____138813
          04022017303D 1   1.00000     0.00000     0
            
 66 69  0  0  0  0            999 V2000
    7.4336    6.6749    6.2262 S   0  0  0  0  0  0  0  0  0  0  0  0
    7.5888    7.6722    7.5942 C   0  0  0  0  0  0  0  0  0  0  0  0
    7.6875    6.8635    8.7055 C   0  0  0  0  0  0  0  0  0  0  0  0
    7.8203    7.5640    9.9052 C   0  0  0  0  0  0  0  0  0  0  0  0
    7.9265    6.9392   11.0746 F   0  0  0  0  0  0  0  0  0  0  0  0
    7.8468    8.9547    9.9345 C   0  0  0  0  0  0  0  0  0  0  0  0
    7.7421    9.6946    8.7613 C   0  0  0  0  0  0  0  0  0  0  0  0
    7.6079    9.0548    7.5405 C   0  0  0  0  0  0  0  0  0  0  0  0
    7.6313    5.4776    8.3772 C   0  0  0  0  0  0  0  0  0  0  0  0
    7.4908    5.1901    7.0498 C   0  0  0  0  0  0  0  0  0  0  0  0
    7.4014    3.8809    6.4318 C   0  0  0  0  0  0  0  0  0  0  0  0
    8.3037    3.0987    6.5500 O   0  0  0  0  0  0  0  0  0  0  0  0
    6.2643    3.5305    5.6987 N   0  0  0  0  0  0  0  0  0  0  0  0
    5.1765    4.5147    5.5743 C   0  0  0  0  0  0  0  0  0  0  0  0
    4.4461    4.3976    4.2437 C   0  0  0  0  0  0  0  0  0  0  0  0
    4.1283    2.9555    3.8725 C   0  0  0  0  0  0  0  0  0  0  0  0
    3.4952    2.9676    2.4900 C   0  0  0  0  0  0  0  0  0  0  0  0
    4.1161    3.9902    1.6347 N   0  0  0  0  0  0  0  0  0  0  0  0
    3.6838    4.1599    0.3458 C   0  0  0  0  0  0  0  0  0  0  0  0
    4.1905    4.9943   -0.3520 O   0  0  0  0  0  0  0  0  0  0  0  0
    2.7173    3.4112   -0.1248 O   0  0  0  0  0  0  0  0  0  0  0  0
    2.2693    3.5870   -1.4607 C   0  0  0  0  0  0  0  0  0  0  0  0
    3.4236    3.3416   -2.4187 C   0  0  0  0  0  0  0  0  0  0  0  0
    1.1496    2.6015   -1.7534 C   0  0  0  0  0  0  0  0  0  0  0  0
    1.7550    5.0060   -1.6400 C   0  0  0  0  0  0  0  0  0  0  0  0
    3.3396    1.6174    1.8130 C   0  0  0  0  0  0  0  0  0  0  0  0
    2.0047    1.4989    2.5066 C   0  0  0  0  0  0  0  0  0  0  0  0
    1.9863    3.0098    2.4641 C   0  0  0  0  0  0  0  0  0  0  0  0
    5.4430    2.1935    3.7736 C   0  0  0  0  0  0  0  0  0  0  0  0
    6.2159    2.1931    5.0845 C   0  0  0  0  0  0  0  0  0  0  0  0
    7.7158    4.3494    9.3937 C   0  0  0  0  0  0  0  0  0  0  0  0
    6.4103    4.0204    9.8452 O   0  0  0  0  0  0  0  0  0  0  0  0
    6.4893    2.9671   10.7943 C   0  0  0  0  0  0  0  0  0  0  0  0
    7.9424    9.4284   10.8101 H   0  0  0  0  0  0  0  0  0  0  0  0
    7.7637   10.6936    8.7996 H   0  0  0  0  0  0  0  0  0  0  0  0
    7.5302    9.5573    6.6794 H   0  0  0  0  0  0  0  0  0  0  0  0
    5.5633    5.4338    5.6497 H   0  0  0  0  0  0  0  0  0  0  0  0
    4.5217    4.3668    6.3154 H   0  0  0  0  0  0  0  0  0  0  0  0
    3.5887    4.9089    4.3032 H   0  0  0  0  0  0  0  0  0  0  0  0
    5.0209    4.7930    3.5273 H   0  0  0  0  0  0  0  0  0  0  0  0
    3.5182    2.5362    4.5448 H   0  0  0  0  0  0  0  0  0  0  0  0
    4.8539    4.5618    1.9940 H   0  0  0  0  0  0  0  0  0  0  0  0
    3.1080    3.4654   -3.3595 H   0  0  0  0  0  0  0  0  0  0  0  0
    4.1602    3.9899   -2.2261 H   0  0  0  0  0  0  0  0  0  0  0  0
    3.7619    2.4080   -2.3008 H   0  0  0  0  0  0  0  0  0  0  0  0
    0.8341    2.7253   -2.6942 H   0  0  0  0  0  0  0  0  0  0  0  0
    1.4880    1.6679   -1.6355 H   0  0  0  0  0  0  0  0  0  0  0  0
    0.3902    2.7630   -1.1232 H   0  0  0  0  0  0  0  0  0  0  0  0
    1.4394    5.1299   -2.5808 H   0  0  0  0  0  0  0  0  0  0  0  0
    0.9956    5.1675   -1.0097 H   0  0  0  0  0  0  0  0  0  0  0  0
    2.4916    5.6544   -1.4474 H   0  0  0  0  0  0  0  0  0  0  0  0
    4.0147    0.9327    2.0876 H   0  0  0  0  0  0  0  0  0  0  0  0
    3.2894    1.6543    0.8149 H   0  0  0  0  0  0  0  0  0  0  0  0
    2.0366    1.1004    3.4232 H   0  0  0  0  0  0  0  0  0  0  0  0
    1.2876    1.0506    1.9730 H   0  0  0  0  0  0  0  0  0  0  0  0
    1.5948    3.3982    1.6300 H   0  0  0  0  0  0  0  0  0  0  0  0
    1.5681    3.4438    3.2621 H   0  0  0  0  0  0  0  0  0  0  0  0
    6.0086    2.6201    3.0678 H   0  0  0  0  0  0  0  0  0  0  0  0
    5.2467    1.2472    3.5167 H   0  0  0  0  0  0  0  0  0  0  0  0
    5.7719    1.5619    5.7205 H   0  0  0  0  0  0  0  0  0  0  0  0
    7.1508    1.8854    4.9076 H   0  0  0  0  0  0  0  0  0  0  0  0
    8.1331    3.5470    8.9672 H   0  0  0  0  0  0  0  0  0  0  0  0
    8.2734    4.6419   10.1706 H   0  0  0  0  0  0  0  0  0  0  0  0
    5.5699    2.7353   11.1123 H   0  0  0  0  0  0  0  0  0  0  0  0
    6.9066    2.1646   10.3678 H   0  0  0  0  0  0  0  0  0  0  0  0
    7.0468    3.2595   11.5712 H   0  0  0  0  0  0  0  0  0  0  0  0
  1  2  1  0  0  0  0
  2  3  1  0  0  0  0
  3  4  2  0  0  0  0
  4  5  1  0  0  0  0
  4  6  1  0  0  0  0
  6  7  2  0  0  0  0
  7  8  1  0  0  0  0
  8  2  2  0  0  0  0
  3  9  1  0  0  0  0
  9 10  2  0  0  0  0
 10  1  1  0  0  0  0
 10 11  1  0  0  0  0
 11 12  2  0  0  0  0
 11 13  1  0  0  0  0
 13 14  1  0  0  0  0
 14 15  1  0  0  0  0
 15 16  1  0  0  0  0
 16 17  1  0  0  0  0
 17 18  1  0  0  0  0
 18 19  1  0  0  0  0
 19 20  2  0  0  0  0
 19 21  1  0  0  0  0
 21 22  1  0  0  0  0
 22 23  1  0  0  0  0
 22 24  1  0  0  0  0
 22 25  1  0  0  0  0
 17 26  1  0  0  0  0
 26 27  1  0  0  0  0
 27 28  1  0  0  0  0
 28 17  1  0  0  0  0
 16 29  1  0  0  0  0
 29 30  1  0  0  0  0
 30 13  1  0  0  0  0
  9 31  1  0  0  0  0
 31 32  1  0  0  0  0
 32 33  1  0  0  0  0
  6 34  1  0  0  0  0
  7 35  1  0  0  0  0
  8 36  1  0  0  0  0
 14 37  1  0  0  0  0
 14 38  1  0  0  0  0
 15 39  1  0  0  0  0
 15 40  1  0  0  0  0
 16 41  1  0  0  0  0
 18 42  1  0  0  0  0
 23 43  1  0  0  0  0
 23 44  1  0  0  0  0
 23 45  1  0  0  0  0
 24 46  1  0  0  0  0
 24 47  1  0  0  0  0
 24 48  1  0  0  0  0
 25 49  1  0  0  0  0
 25 50  1  0  0  0  0
 25 51  1  0  0  0  0
 26 52  1  0  0  0  0
 26 53  1  0  0  0  0
 27 54  1  0  0  0  0
 27 55  1  0  0  0  0
 28 56  1  0  0  0  0
 28 57  1  0  0  0  0
 29 58  1  0  0  0  0
 29 59  1  0  0  0  0
 30 60  1  0  0  0  0
 30 61  1  0  0  0  0
 31 62  1  0  0  0  0
 31 63  1  0  0  0  0
 33 64  1  0  0  0  0
 33 65  1  0  0  0  0
 33 66  1  0  0  0  0
M  END
>  <result-rank>
52

>  <similarity>
0.891

>  <query-name>


>  <query-smiles>
S1c2c(cccc2)C(C(=O)N3CCC([N@H+]4CC5(C(=O)N6N(C5=O)CCCC6)CCC4)CC3)=C1NC(=O)NC

>  <source>
REALspace_2019-12

>  <similarity-descriptor>
0.999;0.996;0.964;0.708;0.918;0.795;1.000;0.650;0.650;0.650;0.999;0.0

>  <similarity-descriptor-smiles>
N1CCCCC1;S1C=Ccc1;c1cccc(c1)F;C(=O)O;C1(CCC1)N;C(C)(C)C;C=O;CO;CO;CO;C;

>  <reaction-name>
s_22

>  <reagent1-name>
13778842

>  <reagent1-smiles>
[R1*]N1CCC(C2(NC(=O)OC(C)(C)C)CCC2)CC1

>  <reagent2-name>
138813

>  <reagent2-smiles>
[R1*]C(=O)C=1Sc2c(c(F)ccc2)C1COC

$$$$
m_275030____14113504____14122304____14148494
          04022017303D 1   1.00000     0.00000     0
            
 61 65  0  0  0  0            999 V2000
    5.8682   -2.1410   12.1801 F   0  0  0  0  0  0  0  0  0  0  0  0
    5.6443   -1.0406   11.4655 C   0  0  3  0  0  0  0  0  0  0  0  0
    4.8400   -0.1650   12.0737 F   0  0  0  0  0  0  0  0  0  0  0  0
    6.8992   -0.4515   10.8569 C   0  0  0  0  0  0  0  0  0  0  0  0
    6.0726   -0.1387    9.6328 C   0  0  0  0  0  0  0  0  0  0  0  0
    6.8528   -0.3778    8.3507 C   0  0  0  0  0  0  0  0  0  0  0  0
    6.0040   -0.0589    7.1940 N   0  3  3  0  0  0  0  0  0  0  0  0
    6.7866   -0.3003    5.9743 C   0  0  0  0  0  0  0  0  0  0  0  0
    6.0133    0.0930    4.7262 C   0  0  0  0  0  0  0  0  0  0  0  0
    6.3345   -0.3856    3.6483 O   0  0  0  0  0  0  0  0  0  0  0  0
    4.9494    0.9973    4.8335 N   0  0  0  0  0  0  0  0  0  0  0  0
    4.2023    1.4336    3.6447 C   0  0  3  0  0  0  0  0  0  0  0  0
    4.3365    2.9451    3.5259 C   0  0  0  0  0  0  0  0  0  0  0  0
    3.4202    3.5041    2.5182 N   0  0  0  0  0  0  0  0  0  0  0  0
    3.8228    4.6292    1.7906 C   0  0  0  0  0  0  0  0  0  0  0  0
    4.9387    5.0539    1.9111 O   0  0  0  0  0  0  0  0  0  0  0  0
    2.8914    5.2824    0.8903 C   0  0  0  0  0  0  0  0  0  0  0  0
    2.6302    4.6876   -0.2597 N   0  0  0  0  0  0  0  0  0  0  0  0
    1.7967    5.1992   -1.1488 N   0  0  0  0  0  0  0  0  0  0  0  0
    1.1490    6.3860   -0.9308 C   0  0  0  0  0  0  0  0  0  0  0  0
    0.3926    6.8026   -1.7940 O   0  0  0  0  0  0  0  0  0  0  0  0
    1.3865    7.0797    0.2875 C   0  0  0  0  0  0  0  0  0  0  0  0
    2.2673    6.5231    1.2085 C   0  0  0  0  0  0  0  0  0  0  0  0
    2.5019    7.2057    2.4017 C   0  0  0  0  0  0  0  0  0  0  0  0
    1.8852    8.4157    2.6996 C   0  0  0  0  0  0  0  0  0  0  0  0
    1.0053    8.9661    1.7744 C   0  0  0  0  0  0  0  0  0  0  0  0
    0.7678    8.2922    0.5810 C   0  0  0  0  0  0  0  0  0  0  0  0
    2.0949    2.9269    2.2399 C   0  0  0  0  0  0  0  0  0  0  0  0
    2.0806    1.4171    2.4308 C   0  0  0  0  0  0  0  0  0  0  0  0
    2.7479    0.9948    3.7319 C   0  0  0  0  0  0  0  0  0  0  0  0
    4.5478    1.5196    6.1537 C   0  0  0  0  0  0  0  0  0  0  0  0
    5.6397    1.3632    7.1970 C   0  0  0  0  0  0  0  0  0  0  0  0
    5.2831   -1.3567   10.0358 C   0  0  0  0  0  0  0  0  0  0  0  0
    5.1821   -0.6285    7.1982 H   0  0  0  0  0  0  0  0  0  0  0  0
    7.6381   -1.1082   10.7055 H   0  0  0  0  0  0  0  0  0  0  0  0
    7.2586    0.3502   11.3345 H   0  0  0  0  0  0  0  0  0  0  0  0
    5.5696    0.7248    9.6692 H   0  0  0  0  0  0  0  0  0  0  0  0
    7.6640    0.2069    8.3401 H   0  0  0  0  0  0  0  0  0  0  0  0
    7.1325   -1.3368    8.3046 H   0  0  0  0  0  0  0  0  0  0  0  0
    7.0144   -1.2726    5.9219 H   0  0  0  0  0  0  0  0  0  0  0  0
    7.6287    0.2375    6.0172 H   0  0  0  0  0  0  0  0  0  0  0  0
    4.6145    1.0124    2.8368 H   0  0  0  0  0  0  0  0  0  0  0  0
    4.1309    3.3579    4.4132 H   0  0  0  0  0  0  0  0  0  0  0  0
    5.2763    3.1660    3.2651 H   0  0  0  0  0  0  0  0  0  0  0  0
    1.6347    4.7063   -2.0037 H   0  0  0  0  0  0  0  0  0  0  0  0
    3.1361    6.8109    3.0666 H   0  0  0  0  0  0  0  0  0  0  0  0
    2.0714    8.8822    3.5644 H   0  0  0  0  0  0  0  0  0  0  0  0
    0.5489    9.8354    1.9646 H   0  0  0  0  0  0  0  0  0  0  0  0
    0.1355    8.6892   -0.0842 H   0  0  0  0  0  0  0  0  0  0  0  0
    1.8437    3.1354    1.2947 H   0  0  0  0  0  0  0  0  0  0  0  0
    1.4269    3.3373    2.8606 H   0  0  0  0  0  0  0  0  0  0  0  0
    2.5660    0.9915    1.6671 H   0  0  0  0  0  0  0  0  0  0  0  0
    1.1313    1.1027    2.4391 H   0  0  0  0  0  0  0  0  0  0  0  0
    2.3004    1.4392    4.5080 H   0  0  0  0  0  0  0  0  0  0  0  0
    2.6939    0.0021    3.8397 H   0  0  0  0  0  0  0  0  0  0  0  0
    3.7363    1.0230    6.4618 H   0  0  0  0  0  0  0  0  0  0  0  0
    4.3291    2.4910    6.0614 H   0  0  0  0  0  0  0  0  0  0  0  0
    6.4316    1.9249    6.9577 H   0  0  0  0  0  0  0  0  0  0  0  0
    5.3000    1.6326    8.0982 H   0  0  0  0  0  0  0  0  0  0  0  0
    4.3055   -1.3056    9.8320 H   0  0  0  0  0  0  0  0  0  0  0  0
    5.6499   -2.2224    9.6951 H   0  0  0  0  0  0  0  0  0  0  0  0
  1  2  1  0  0  0  0
  2  3  1  0  0  0  0
  2  4  1  0  0  0  0
  4  5  1  0  0  0  0
  5  6  1  0  0  0  0
  6  7  1  0  0  0  0
  7  8  1  0  0  0  0
  8  9  1  0  0  0  0
  9 10  2  0  0  0  0
  9 11  1  0  0  0  0
 11 12  1  0  0  0  0
 12 13  1  0  0  0  0
 13 14  1  0  0  0  0
 14 15  1  0  0  0  0
 15 16  2  0  0  0  0
 15 17  1  0  0  0  0
 17 18  2  0  0  0  0
 18 19  1  0  0  0  0
 19 20  1  0  0  0  0
 20 21  2  0  0  0  0
 20 22  1  0  0  0  0
 22 23  1  0  0  0  0
 23 17  1  0  0  0  0
 23 24  2  0  0  0  0
 24 25  1  0  0  0  0
 25 26  2  0  0  0  0
 26 27  1  0  0  0  0
 27 22  2  0  0  0  0
 14 28  1  0  0  0  0
 28 29  1  0  0  0  0
 29 30  1  0  0  0  0
 30 12  1  0  0  0  0
 11 31  1  0  0  0  0
 31 32  1  0  0  0  0
 32  7  1  0  0  0  0
  5 33  1  0  0  0  0
 33  2  1  0  0  0  0
  7 34  1  0  0  0  0
  4 35  1  0  0  0  0
  4 36  1  0  0  0  0
  5 37  1  0  0  0  0
  6 38  1  0  0  0  0
  6 39  1  0  0  0  0
  8 40  1  0  0  0  0
  8 41  1  0  0  0  0
 12 42  1  0  0  0  0
 13 43  1  0  0  0  0
 13 44  1  0  0  0  0
 19 45  1  0  0  0  0
 24 46  1  0  0  0  0
 25 47  1  0  0  0  0
 26 48  1  0  0  0  0
 27 49  1  0  0  0  0
 28 50  1  0  0  0  0
 28 51  1  0  0  0  0
 29 52  1  0  0  0  0
 29 53  1  0  0  0  0
 30 54  1  0  0  0  0
 30 55  1  0  0  0  0
 31 56  1  0  0  0  0
 31 57  1  0  0  0  0
 32 58  1  0  0  0  0
 32 59  1  0  0  0  0
 33 60  1  0  0  0  0
 33 61  1  0  0  0  0
M  CHG  1   7   1
M  END
>  <result-rank>
53

>  <similarity>
0.891

>  <query-name>


>  <query-smiles>
S1c2c(cccc2)C(C(=O)N3CCC([N@H+]4CC5(C(=O)N6N(C5=O)CCCC6)CCC4)CC3)=C1NC(=O)NC

>  <source>
REALspace_2019-12

>  <similarity-descriptor>
1.000;0.870;1.000;0.718;0.718;0.980;1.000;0.870;0.870;0.0;0.0;0.0

>  <similarity-descriptor-smiles>
C1CCCNC1;C=1ccC(NN1)=O;c1ccccc1;[NH+]1CCNC(C1)=O;[NH+]1CCNC(C1)=O;FC1(CC(C1)C)F;C=O;C=1ccC(NN1)=O;C=1ccC(NN1)=O;;;

>  <reaction-name>
m_275030

>  <reagent1-name>
14113504

>  <reagent1-smiles>
[R2*]N1CC(=O)N(C2CN([R1*])CCC2)CC1

>  <reagent2-name>
14122304

>  <reagent2-smiles>
[R1*]C(=O)C1=NNC(=O)c2c1cccc2

>  <reagent3-name>
14148494

>  <reagent3-smiles>
[R2*]CC1CC(F)(F)C1

$$$$
m_275030____14114236____14126114____14147072
          04022017303D 1   1.00000     0.00000     0
            
 64 68  0  0  0  0            999 V2000
    8.1324   -0.5243    5.3617 S   0  0  0  0  0  0  0  0  0  0  0  0
    6.8336   -1.5154    4.8824 C   0  0  0  0  0  0  0  0  0  0  0  0
    6.8836   -2.6140    5.5922 N   0  0  0  0  0  0  0  0  0  0  0  0
    7.9220   -2.6733    6.4875 C   0  0  0  0  0  0  0  0  0  0  0  0
    8.7556   -1.5943    6.5275 C   0  0  0  0  0  0  0  0  0  0  0  0
    5.9004   -1.1738    3.8911 N   0  0  0  0  0  0  0  0  0  0  0  0
    4.7557   -0.5019    4.2304 C   0  0  0  0  0  0  0  0  0  0  0  0
    4.5509   -0.2055    5.3751 O   0  0  0  0  0  0  0  0  0  0  0  0
    3.7451   -0.1319    3.1570 C   0  0  0  0  0  0  0  0  0  0  0  0
    3.2207    1.2161    3.4213 N   0  3  3  0  0  0  0  0  0  0  0  0
    2.1200    1.4943    2.4902 C   0  0  0  0  0  0  0  0  0  0  0  0
    2.0264    3.0056    2.5174 C   0  0  3  0  0  0  0  0  0  0  0  0
    1.2837    3.5185    1.2939 C   0  0  3  0  0  0  0  0  0  0  0  0
    2.2250    4.2622    0.3599 C   0  0  0  0  0  0  0  0  0  0  0  0
    1.4362    4.8577   -0.7277 N   0  0  0  0  0  0  0  0  0  0  0  0
    1.8529    6.0350   -1.3737 C   0  0  0  0  0  0  0  0  0  0  0  0
    2.8714    6.5744   -1.0397 O   0  0  0  0  0  0  0  0  0  0  0  0
    1.0531    6.5964   -2.4417 C   0  0  0  0  0  0  0  0  0  0  0  0
    0.7980    5.8687   -3.5752 N   0  0  0  0  0  0  0  0  0  0  0  0
    0.0437    6.3853   -4.5964 C   0  0  0  0  0  0  0  0  0  0  0  0
   -0.4794    7.6712   -4.4917 C   0  0  0  0  0  0  0  0  0  0  0  0
   -1.2431    8.1754   -5.5415 C   0  0  0  0  0  0  0  0  0  0  0  0
   -1.4948    7.4276   -6.6860 C   0  0  0  0  0  0  0  0  0  0  0  0
   -0.9645    6.1451   -6.7713 C   0  0  0  0  0  0  0  0  0  0  0  0
   -0.1992    5.6225   -5.7344 C   0  0  0  0  0  0  0  0  0  0  0  0
   -0.2173    8.4307   -3.3170 C   0  0  0  0  0  0  0  0  0  0  0  0
   -0.6443    9.5649   -3.1600 O   0  0  0  0  0  0  0  0  0  0  0  0
    0.5681    7.8671   -2.2769 C   0  0  0  0  0  0  0  0  0  0  0  0
    0.1987    4.1567   -1.0999 C   0  0  0  0  0  0  0  0  0  0  0  0
    0.3716    2.6597   -0.8950 C   0  0  0  0  0  0  0  0  0  0  0  0
    0.7322    2.3180    0.5431 C   0  0  0  0  0  0  0  0  0  0  0  0
    3.4945    3.3904    2.4629 C   0  0  0  0  0  0  0  0  0  0  0  0
    4.2351    2.2138    3.0607 C   0  0  0  0  0  0  0  0  0  0  0  0
    6.1513   -1.5369    2.4890 C   0  0  0  0  0  0  0  0  0  0  0  0
    2.9301    1.3163    4.3729 H   0  0  0  0  0  0  0  0  0  0  0  0
    8.0605   -3.4668    7.0801 H   0  0  0  0  0  0  0  0  0  0  0  0
    9.5557   -1.4618    7.1125 H   0  0  0  0  0  0  0  0  0  0  0  0
    4.1896   -0.1470    2.2613 H   0  0  0  0  0  0  0  0  0  0  0  0
    2.9925   -0.7902    3.1667 H   0  0  0  0  0  0  0  0  0  0  0  0
    1.2682    1.0756    2.8049 H   0  0  0  0  0  0  0  0  0  0  0  0
    2.3342    1.1638    1.5710 H   0  0  0  0  0  0  0  0  0  0  0  0
    1.5987    3.3271    3.3622 H   0  0  0  0  0  0  0  0  0  0  0  0
    0.5354    4.1194    1.5750 H   0  0  0  0  0  0  0  0  0  0  0  0
    2.7000    4.9829    0.8647 H   0  0  0  0  0  0  0  0  0  0  0  0
    2.8949    3.6246   -0.0204 H   0  0  0  0  0  0  0  0  0  0  0  0
    1.1690    4.9438   -3.6584 H   0  0  0  0  0  0  0  0  0  0  0  0
   -1.6200    9.0989   -5.4701 H   0  0  0  0  0  0  0  0  0  0  0  0
   -2.0451    7.8037   -7.4314 H   0  0  0  0  0  0  0  0  0  0  0  0
   -1.1354    5.5926   -7.5870 H   0  0  0  0  0  0  0  0  0  0  0  0
    0.1766    4.6987   -5.8068 H   0  0  0  0  0  0  0  0  0  0  0  0
    0.7627    8.3853   -1.4441 H   0  0  0  0  0  0  0  0  0  0  0  0
   -0.0091    4.3381   -2.0611 H   0  0  0  0  0  0  0  0  0  0  0  0
   -0.5533    4.4851   -0.5285 H   0  0  0  0  0  0  0  0  0  0  0  0
    1.1007    2.3338   -1.4966 H   0  0  0  0  0  0  0  0  0  0  0  0
   -0.4851    2.2008   -1.1305 H   0  0  0  0  0  0  0  0  0  0  0  0
   -0.0884    1.9928    1.0129 H   0  0  0  0  0  0  0  0  0  0  0  0
    1.4228    1.5948    0.5393 H   0  0  0  0  0  0  0  0  0  0  0  0
    3.6603    4.2182    2.9989 H   0  0  0  0  0  0  0  0  0  0  0  0
    3.7824    3.5424    1.5173 H   0  0  0  0  0  0  0  0  0  0  0  0
    4.8720    1.8313    2.3914 H   0  0  0  0  0  0  0  0  0  0  0  0
    4.7399    2.5017    3.8745 H   0  0  0  0  0  0  0  0  0  0  0  0
    5.3915   -1.2198    1.9214 H   0  0  0  0  0  0  0  0  0  0  0  0
    7.0000   -1.1074    2.1801 H   0  0  0  0  0  0  0  0  0  0  0  0
    6.2332   -2.5306    2.4115 H   0  0  0  0  0  0  0  0  0  0  0  0
  1  2  1  0  0  0  0
  2  3  2  0  0  0  0
  3  4  1  0  0  0  0
  4  5  2  0  0  0  0
  5  1  1  0  0  0  0
  2  6  1  0  0  0  0
  6  7  1  0  0  0  0
  7  8  2  0  0  0  0
  7  9  1  0  0  0  0
  9 10  1  0  0  0  0
 10 11  1  0  0  0  0
 11 12  1  0  0  0  0
 12 13  1  0  0  0  0
 13 14  1  0  0  0  0
 14 15  1  0  0  0  0
 15 16  1  0  0  0  0
 16 17  2  0  0  0  0
 16 18  1  0  0  0  0
 18 19  1  0  0  0  0
 19 20  1  0  0  0  0
 20 21  1  0  0  0  0
 21 22  2  0  0  0  0
 22 23  1  0  0  0  0
 23 24  2  0  0  0  0
 24 25  1  0  0  0  0
 25 20  2  0  0  0  0
 21 26  1  0  0  0  0
 26 27  2  0  0  0  0
 26 28  1  0  0  0  0
 18 28  2  0  0  0  0
 15 29  1  0  0  0  0
 29 30  1  0  0  0  0
 30 31  1  0  0  0  0
 31 13  1  0  0  0  0
 12 32  1  0  0  0  0
 32 33  1  0  0  0  0
 33 10  1  0  0  0  0
  6 34  1  0  0  0  0
 10 35  1  0  0  0  0
  4 36  1  0  0  0  0
  5 37  1  0  0  0  0
  9 38  1  0  0  0  0
  9 39  1  0  0  0  0
 11 40  1  0  0  0  0
 11 41  1  0  0  0  0
 12 42  1  0  0  0  0
 13 43  1  0  0  0  0
 14 44  1  0  0  0  0
 14 45  1  0  0  0  0
 19 46  1  0  0  0  0
 22 47  1  0  0  0  0
 23 48  1  0  0  0  0
 24 49  1  0  0  0  0
 25 50  1  0  0  0  0
 28 51  1  0  0  0  0
 29 52  1  0  0  0  0
 29 53  1  0  0  0  0
 30 54  1  0  0  0  0
 30 55  1  0  0  0  0
 31 56  1  0  0  0  0
 31 57  1  0  0  0  0
 32 58  1  0  0  0  0
 32 59  1  0  0  0  0
 33 60  1  0  0  0  0
 33 61  1  0  0  0  0
 34 62  1  0  0  0  0
 34 63  1  0  0  0  0
 34 64  1  0  0  0  0
M  CHG  1  10   1
M  END
>  <result-rank>
54

>  <similarity>
0.890

>  <query-name>


>  <query-smiles>
S1c2c(cccc2)C(C(=O)N3CCC([N@H+]4CC5(C(=O)N6N(C5=O)CCCC6)CCC4)CC3)=C1NC(=O)NC

>  <source>
REALspace_2019-12

>  <similarity-descriptor>
0.999;0.935;0.999;0.757;0.936;0.0;1.000;0.935;0.935;0.0;0.0;0.100

>  <similarity-descriptor-smiles>
C1CCCNC1;C1=CC(ccN1)=O;c1ccccc1;S1C=CN=C1NC=O;C[NH+]1CCCC1;;C=O;C1=CC(ccN1)=O;C1=CC(ccN1)=O;;;C

>  <reaction-name>
m_275030

>  <reagent1-name>
14114236

>  <reagent1-smiles>
[R2*]N1CC(C2CN([R1*])CCC2)CC1

>  <reagent2-name>
14126114

>  <reagent2-smiles>
[R1*]C(=O)C=1Nc2c(cccc2)C(=O)C1

>  <reagent3-name>
14147072

>  <reagent3-smiles>
[R2*]CC(=O)N(C=1SC=CN1)C

$$$$
m_275030____14114032____14126114____14146088
          04022017303D 1   1.00000     0.00000     0
            
 75 80  0  0  0  0            999 V2000
    5.0128   -1.6357   -1.6113 S   0  0  0  0  0  0  0  0  0  0  0  0
    3.4953   -0.9466   -1.9429 C   0  0  0  0  0  0  0  0  0  0  0  0
    3.7588    0.3603   -2.1947 C   0  0  0  0  0  0  0  0  0  0  0  0
    5.1250    0.7647   -2.1261 C   0  0  0  0  0  0  0  0  0  0  0  0
    5.9814   -0.2498   -1.8060 C   0  0  0  0  0  0  0  0  0  0  0  0
    2.4504    1.0701   -2.5086 C   0  0  3  0  0  0  0  0  0  0  0  0
    1.5592    0.6040   -1.4354 N   0  0  0  0  0  0  0  0  0  0  0  0
    1.0912    1.4729   -0.4417 C   0  0  0  0  0  0  0  0  0  0  0  0
    0.7622    2.5908   -0.7284 O   0  0  0  0  0  0  0  0  0  0  0  0
    1.0000    1.0000    1.0000 C   0  0  0  0  0  0  0  0  0  0  0  0
    1.8489    1.8489    1.8489 N   0  3  3  0  0  0  0  0  0  0  0  0
    1.3978    1.7887    3.2363 C   0  0  0  0  0  0  0  0  0  0  0  0
    2.5945    2.2886    4.0157 C   0  0  3  0  0  0  0  0  0  0  0  0
    2.5076    1.8388    5.4649 C   0  0  0  0  0  0  0  0  0  0  0  0
    1.1395    2.1338    6.0630 C   0  0  0  0  0  0  0  0  0  0  0  0
    1.0610    3.5556    6.5976 C   0  0  0  0  0  0  0  0  0  0  0  0
    1.9649    3.6290    7.7533 N   0  0  0  0  0  0  0  0  0  0  0  0
    1.7202    4.4992    8.8296 C   0  0  0  0  0  0  0  0  0  0  0  0
    0.7518    5.2078    8.8201 O   0  0  0  0  0  0  0  0  0  0  0  0
    2.6364    4.5406    9.9495 C   0  0  0  0  0  0  0  0  0  0  0  0
    2.8709    3.4159   10.6976 N   0  0  0  0  0  0  0  0  0  0  0  0
    3.7344    3.4378   11.7619 C   0  0  0  0  0  0  0  0  0  0  0  0
    4.3923    4.6177   12.0984 C   0  0  0  0  0  0  0  0  0  0  0  0
    5.2652    4.6165   13.1834 C   0  0  0  0  0  0  0  0  0  0  0  0
    5.4947    3.4694   13.9345 C   0  0  0  0  0  0  0  0  0  0  0  0
    4.8290    2.3007   13.5821 C   0  0  0  0  0  0  0  0  0  0  0  0
    3.9529    2.2802   12.5022 C   0  0  0  0  0  0  0  0  0  0  0  0
    4.1522    5.7880   11.3248 C   0  0  0  0  0  0  0  0  0  0  0  0
    4.6946    6.8562   11.5652 O   0  0  0  0  0  0  0  0  0  0  0  0
    3.2514    5.7326   10.2285 C   0  0  0  0  0  0  0  0  0  0  0  0
    3.1381    2.7487    7.7239 C   0  0  0  0  0  0  0  0  0  0  0  0
    3.5438    2.6167    6.2621 C   0  0  0  0  0  0  0  0  0  0  0  0
    3.7247    1.5702    3.2996 C   0  0  0  0  0  0  0  0  0  0  0  0
    3.1881    1.2484    1.9144 C   0  0  0  0  0  0  0  0  0  0  0  0
    1.1296   -0.8011   -1.3683 C   0  0  0  0  0  0  0  0  0  0  0  0
    2.2018   -1.7376   -1.9005 C   0  0  0  0  0  0  0  0  0  0  0  0
    2.5618    2.5809   -2.4012 C   0  0  0  0  0  0  0  0  0  0  0  0
    2.4215    3.1988   -3.7828 C   0  0  0  0  0  0  0  0  0  0  0  0
    1.8828    2.7901    1.5127 H   0  0  0  0  0  0  0  0  0  0  0  0
    5.4272    1.7026   -2.2963 H   0  0  0  0  0  0  0  0  0  0  0  0
    6.9747   -0.1905   -1.7064 H   0  0  0  0  0  0  0  0  0  0  0  0
    2.1024    0.7994   -3.4062 H   0  0  0  0  0  0  0  0  0  0  0  0
    0.0515    1.0600    1.3111 H   0  0  0  0  0  0  0  0  0  0  0  0
    1.3111    0.0515    1.0600 H   0  0  0  0  0  0  0  0  0  0  0  0
    1.1669    0.8514    3.4972 H   0  0  0  0  0  0  0  0  0  0  0  0
    0.6043    2.3800    3.3806 H   0  0  0  0  0  0  0  0  0  0  0  0
    2.6889    3.2817    3.9453 H   0  0  0  0  0  0  0  0  0  0  0  0
    2.6993    0.8593    5.5267 H   0  0  0  0  0  0  0  0  0  0  0  0
    0.9678    1.4946    6.8127 H   0  0  0  0  0  0  0  0  0  0  0  0
    0.4427    2.0133    5.3560 H   0  0  0  0  0  0  0  0  0  0  0  0
    1.3503    4.2039    5.8933 H   0  0  0  0  0  0  0  0  0  0  0  0
    0.1249    3.7655    6.8796 H   0  0  0  0  0  0  0  0  0  0  0  0
    2.4033    2.5638   10.4625 H   0  0  0  0  0  0  0  0  0  0  0  0
    5.7392    5.4622   13.4285 H   0  0  0  0  0  0  0  0  0  0  0  0
    6.1245    3.4845   14.7110 H   0  0  0  0  0  0  0  0  0  0  0  0
    4.9817    1.4658   14.1109 H   0  0  0  0  0  0  0  0  0  0  0  0
    3.4802    1.4336   12.2578 H   0  0  0  0  0  0  0  0  0  0  0  0
    3.0703    6.5443    9.6733 H   0  0  0  0  0  0  0  0  0  0  0  0
    2.9063    1.8517    8.1004 H   0  0  0  0  0  0  0  0  0  0  0  0
    3.8845    3.1501    8.2547 H   0  0  0  0  0  0  0  0  0  0  0  0
    3.6387    3.5305    5.8673 H   0  0  0  0  0  0  0  0  0  0  0  0
    4.4203    2.1383    6.2100 H   0  0  0  0  0  0  0  0  0  0  0  0
    3.9672    0.7298    3.7843 H   0  0  0  0  0  0  0  0  0  0  0  0
    4.5287    2.1612    3.2344 H   0  0  0  0  0  0  0  0  0  0  0  0
    3.7805    1.6431    1.2121 H   0  0  0  0  0  0  0  0  0  0  0  0
    3.1316    0.2585    1.7850 H   0  0  0  0  0  0  0  0  0  0  0  0
    0.2997   -0.9136   -1.9147 H   0  0  0  0  0  0  0  0  0  0  0  0
    0.9361   -1.0366   -0.4159 H   0  0  0  0  0  0  0  0  0  0  0  0
    2.3010   -2.5268   -1.2944 H   0  0  0  0  0  0  0  0  0  0  0  0
    1.9600   -2.0509   -2.8189 H   0  0  0  0  0  0  0  0  0  0  0  0
    3.4526    2.8229   -2.0166 H   0  0  0  0  0  0  0  0  0  0  0  0
    1.8366    2.9270   -1.8060 H   0  0  0  0  0  0  0  0  0  0  0  0
    2.4948    4.1936   -3.7121 H   0  0  0  0  0  0  0  0  0  0  0  0
    3.1467    2.8526   -4.3780 H   0  0  0  0  0  0  0  0  0  0  0  0
    1.5307    2.9567   -4.1674 H   0  0  0  0  0  0  0  0  0  0  0  0
  1  2  1  0  0  0  0
  2  3  2  0  0  0  0
  3  4  1  0  0  0  0
  4  5  2  0  0  0  0
  5  1  1  0  0  0  0
  3  6  1  0  0  0  0
  6  7  1  0  0  0  0
  7  8  1  0  0  0  0
  8  9  2  0  0  0  0
  8 10  1  0  0  0  0
 10 11  1  0  0  0  0
 11 12  1  0  0  0  0
 12 13  1  0  0  0  0
 13 14  1  0  0  0  0
 14 15  1  0  0  0  0
 15 16  1  0  0  0  0
 16 17  1  0  0  0  0
 17 18  1  0  0  0  0
 18 19  2  0  0  0  0
 18 20  1  0  0  0  0
 20 21  1  0  0  0  0
 21 22  1  0  0  0  0
 22 23  1  0  0  0  0
 23 24  2  0  0  0  0
 24 25  1  0  0  0  0
 25 26  2  0  0  0  0
 26 27  1  0  0  0  0
 27 22  2  0  0  0  0
 23 28  1  0  0  0  0
 28 29  2  0  0  0  0
 28 30  1  0  0  0  0
 20 30  2  0  0  0  0
 17 31  1  0  0  0  0
 31 32  1  0  0  0  0
 32 14  1  0  0  0  0
 13 33  1  0  0  0  0
 33 34  1  0  0  0  0
 34 11  1  0  0  0  0
  7 35  1  0  0  0  0
 35 36  1  0  0  0  0
 36  2  1  0  0  0  0
  6 37  1  0  0  0  0
 37 38  1  0  0  0  0
 11 39  1  0  0  0  0
  4 40  1  0  0  0  0
  5 41  1  0  0  0  0
  6 42  1  0  0  0  0
 10 43  1  0  0  0  0
 10 44  1  0  0  0  0
 12 45  1  0  0  0  0
 12 46  1  0  0  0  0
 13 47  1  0  0  0  0
 14 48  1  0  0  0  0
 15 49  1  0  0  0  0
 15 50  1  0  0  0  0
 16 51  1  0  0  0  0
 16 52  1  0  0  0  0
 21 53  1  0  0  0  0
 24 54  1  0  0  0  0
 25 55  1  0  0  0  0
 26 56  1  0  0  0  0
 27 57  1  0  0  0  0
 30 58  1  0  0  0  0
 31 59  1  0  0  0  0
 31 60  1  0  0  0  0
 32 61  1  0  0  0  0
 32 62  1  0  0  0  0
 33 63  1  0  0  0  0
 33 64  1  0  0  0  0
 34 65  1  0  0  0  0
 34 66  1  0  0  0  0
 35 67  1  0  0  0  0
 35 68  1  0  0  0  0
 36 69  1  0  0  0  0
 36 70  1  0  0  0  0
 37 71  1  0  0  0  0
 37 72  1  0  0  0  0
 38 73  1  0  0  0  0
 38 74  1  0  0  0  0
 38 75  1  0  0  0  0
M  CHG  1  11   1
M  END
>  <result-rank>
55

>  <similarity>
0.890

>  <query-name>


>  <query-smiles>
S1c2c(cccc2)C(C(=O)N3CCC([N@H+]4CC5(C(=O)N6N(C5=O)CCCC6)CCC4)CC3)=C1NC(=O)NC

>  <source>
REALspace_2019-12

>  <similarity-descriptor>
0.999;0.935;0.999;0.637;0.982;0.858;1.000;0.935;0.935;0.0;0.0;0.182

>  <similarity-descriptor-smiles>
C1CCNCC1;C1=CC(ccN1)=O;c1ccccc1;C(=O)C;[NH+]1CCCC1;C=1CCNC(C1)C;C=O;C1=CC(ccN1)=O;C1=CC(ccN1)=O;;;S1C=CC=C1.C

>  <reaction-name>
m_275030

>  <reagent1-name>
14114032

>  <reagent1-smiles>
[R2*]N1CC(C2CCN([R1*])CC2)CC1

>  <reagent2-name>
14126114

>  <reagent2-smiles>
[R1*]C(=O)C=1Nc2c(cccc2)C(=O)C1

>  <reagent3-name>
14146088

>  <reagent3-smiles>
[R2*]CC(=O)N1C(C2=C(SC=C2)CC1)CC

$$$$
m_275030____14114100____14126114____12659166
          04022017303D 1   1.00000     0.00000     0
            
 74 77  0  0  0  0            999 V2000
    1.5760    7.6396    5.9907 O   0  0  0  0  0  0  0  0  0  0  0  0
    2.6855    7.4276    6.3958 C   0  0  0  0  0  0  0  0  0  0  0  0
    3.3407    6.2305    6.0573 N   0  0  0  0  0  0  0  0  0  0  0  0
    2.6949    5.2187    5.2095 C   0  0  0  0  0  0  0  0  0  0  0  0
    3.7716    4.4597    4.4505 C   0  0  3  0  0  0  0  0  0  0  0  0
    3.1532    3.4984    3.4473 C   0  0  0  0  0  0  0  0  0  0  0  0
    2.0911    4.1873    2.6056 C   0  0  0  0  0  0  0  0  0  0  0  0
    1.5003    3.2491    1.5630 C   0  0  0  0  0  0  0  0  0  0  0  0
    1.8488    1.8488    1.8488 N   0  3  3  0  0  0  0  0  0  0  0  0
    1.0000    1.0000    1.0000 C   0  0  0  0  0  0  0  0  0  0  0  0
    1.8770    0.1547    0.0907 C   0  0  0  0  0  0  0  0  0  0  0  0
    2.6241    0.6848   -0.6844 O   0  0  0  0  0  0  0  0  0  0  0  0
    1.8144   -1.2123    0.1560 N   0  0  0  0  0  0  0  0  0  0  0  0
    2.9229   -2.0245   -0.3660 C   0  0  0  0  0  0  0  0  0  0  0  0
    4.1263   -1.8898    0.5527 C   0  0  0  0  0  0  0  0  0  0  0  0
    5.1986   -1.2852    0.1349 C   0  0  0  0  0  0  0  0  0  0  0  0
    4.0759   -2.4619    1.9600 C   0  0  0  0  0  0  0  0  0  0  0  0
    0.6389   -1.8668    0.7482 C   0  0  0  0  0  0  0  0  0  0  0  0
   -0.1744   -2.5356   -0.3480 C   0  0  0  0  0  0  0  0  0  0  0  0
    1.6102    1.5190    3.2634 C   0  0  0  0  0  0  0  0  0  0  0  0
    2.4627    2.3693    4.1947 C   0  0  0  0  0  0  0  0  0  0  0  0
    4.5640    3.6415    5.4563 C   0  0  0  0  0  0  0  0  0  0  0  0
    4.8449    4.4210    6.7324 C   0  0  0  0  0  0  0  0  0  0  0  0
    4.6983    5.9209    6.5291 C   0  0  0  0  0  0  0  0  0  0  0  0
    3.3492    8.4043    7.2330 C   0  0  0  0  0  0  0  0  0  0  0  0
    4.5322    8.9715    6.8351 N   0  0  0  0  0  0  0  0  0  0  0  0
    5.1745    9.8969    7.6161 C   0  0  0  0  0  0  0  0  0  0  0  0
    4.6246   10.2768    8.8374 C   0  0  0  0  0  0  0  0  0  0  0  0
    5.2944   11.2189    9.6140 C   0  0  0  0  0  0  0  0  0  0  0  0
    6.4936   11.7869    9.1996 C   0  0  0  0  0  0  0  0  0  0  0  0
    7.0263   11.3954    7.9764 C   0  0  0  0  0  0  0  0  0  0  0  0
    6.3736   10.4561    7.1854 C   0  0  0  0  0  0  0  0  0  0  0  0
    3.3966    9.6907    9.2548 C   0  0  0  0  0  0  0  0  0  0  0  0
    2.8595    9.9775   10.3143 O   0  0  0  0  0  0  0  0  0  0  0  0
    2.7562    8.7345    8.4231 C   0  0  0  0  0  0  0  0  0  0  0  0
    2.8106    1.6906    1.6255 H   0  0  0  0  0  0  0  0  0  0  0  0
    2.0785    5.6663    4.5616 H   0  0  0  0  0  0  0  0  0  0  0  0
    2.1746    4.5837    5.7805 H   0  0  0  0  0  0  0  0  0  0  0  0
    4.3764    5.1025    3.9803 H   0  0  0  0  0  0  0  0  0  0  0  0
    3.8657    3.1248    2.8533 H   0  0  0  0  0  0  0  0  0  0  0  0
    2.5043    4.9698    2.1398 H   0  0  0  0  0  0  0  0  0  0  0  0
    1.3581    4.5060    3.2066 H   0  0  0  0  0  0  0  0  0  0  0  0
    0.5049    3.3445    1.5652 H   0  0  0  0  0  0  0  0  0  0  0  0
    1.8570    3.4966    0.6622 H   0  0  0  0  0  0  0  0  0  0  0  0
    0.4018    1.5770    0.4439 H   0  0  0  0  0  0  0  0  0  0  0  0
    0.4439    0.4018    1.5770 H   0  0  0  0  0  0  0  0  0  0  0  0
    3.1660   -1.7070   -1.2825 H   0  0  0  0  0  0  0  0  0  0  0  0
    2.6420   -2.9833   -0.4090 H   0  0  0  0  0  0  0  0  0  0  0  0
    5.9903   -1.1965    0.7393 H   0  0  0  0  0  0  0  0  0  0  0  0
    5.2317   -0.9088   -0.7910 H   0  0  0  0  0  0  0  0  0  0  0  0
    3.1849   -2.8888    2.1146 H   0  0  0  0  0  0  0  0  0  0  0  0
    4.7967   -3.1467    2.0675 H   0  0  0  0  0  0  0  0  0  0  0  0
    4.2129   -1.7267    2.6239 H   0  0  0  0  0  0  0  0  0  0  0  0
    0.0750   -1.1833    1.2117 H   0  0  0  0  0  0  0  0  0  0  0  0
    0.9382   -2.5555    1.4086 H   0  0  0  0  0  0  0  0  0  0  0  0
   -0.9741   -2.9809    0.0549 H   0  0  0  0  0  0  0  0  0  0  0  0
   -0.4737   -1.8470   -1.0084 H   0  0  0  0  0  0  0  0  0  0  0  0
    0.3895   -3.2191   -0.8115 H   0  0  0  0  0  0  0  0  0  0  0  0
    1.8309    0.5551    3.4125 H   0  0  0  0  0  0  0  0  0  0  0  0
    0.6454    1.6765    3.4740 H   0  0  0  0  0  0  0  0  0  0  0  0
    1.8767    2.7606    4.9042 H   0  0  0  0  0  0  0  0  0  0  0  0
    3.1575    1.7886    4.6190 H   0  0  0  0  0  0  0  0  0  0  0  0
    5.4346    3.3762    5.0421 H   0  0  0  0  0  0  0  0  0  0  0  0
    4.0413    2.8210    5.6880 H   0  0  0  0  0  0  0  0  0  0  0  0
    4.2009    4.1267    7.4386 H   0  0  0  0  0  0  0  0  0  0  0  0
    5.7791    4.2256    7.0308 H   0  0  0  0  0  0  0  0  0  0  0  0
    4.8635    6.3910    7.3961 H   0  0  0  0  0  0  0  0  0  0  0  0
    5.3641    6.2303    5.8501 H   0  0  0  0  0  0  0  0  0  0  0  0
    4.9339    8.7052    5.9590 H   0  0  0  0  0  0  0  0  0  0  0  0
    4.9028   11.4937   10.4921 H   0  0  0  0  0  0  0  0  0  0  0  0
    6.9628   12.4622    9.7686 H   0  0  0  0  0  0  0  0  0  0  0  0
    7.8881   11.7935    7.6621 H   0  0  0  0  0  0  0  0  0  0  0  0
    6.7660   10.1826    6.3072 H   0  0  0  0  0  0  0  0  0  0  0  0
    1.8928    8.3123    8.6994 H   0  0  0  0  0  0  0  0  0  0  0  0
  1  2  2  0  0  0  0
  2  3  1  0  0  0  0
  3  4  1  0  0  0  0
  4  5  1  0  0  0  0
  5  6  1  0  0  0  0
  6  7  1  0  0  0  0
  7  8  1  0  0  0  0
  8  9  1  0  0  0  0
  9 10  1  0  0  0  0
 10 11  1  0  0  0  0
 11 12  2  0  0  0  0
 11 13  1  0  0  0  0
 13 14  1  0  0  0  0
 14 15  1  0  0  0  0
 15 16  2  0  0  0  0
 15 17  1  0  0  0  0
 13 18  1  0  0  0  0
 18 19  1  0  0  0  0
  9 20  1  0  0  0  0
 20 21  1  0  0  0  0
 21  6  1  0  0  0  0
  5 22  1  0  0  0  0
 22 23  1  0  0  0  0
 23 24  1  0  0  0  0
 24  3  1  0  0  0  0
  2 25  1  0  0  0  0
 25 26  1  0  0  0  0
 26 27  1  0  0  0  0
 27 28  1  0  0  0  0
 28 29  2  0  0  0  0
 29 30  1  0  0  0  0
 30 31  2  0  0  0  0
 31 32  1  0  0  0  0
 32 27  2  0  0  0  0
 28 33  1  0  0  0  0
 33 34  2  0  0  0  0
 33 35  1  0  0  0  0
 25 35  2  0  0  0  0
  9 36  1  0  0  0  0
  4 37  1  0  0  0  0
  4 38  1  0  0  0  0
  5 39  1  0  0  0  0
  6 40  1  0  0  0  0
  7 41  1  0  0  0  0
  7 42  1  0  0  0  0
  8 43  1  0  0  0  0
  8 44  1  0  0  0  0
 10 45  1  0  0  0  0
 10 46  1  0  0  0  0
 14 47  1  0  0  0  0
 14 48  1  0  0  0  0
 16 49  1  0  0  0  0
 16 50  1  0  0  0  0
 17 51  1  0  0  0  0
 17 52  1  0  0  0  0
 17 53  1  0  0  0  0
 18 54  1  0  0  0  0
 18 55  1  0  0  0  0
 19 56  1  0  0  0  0
 19 57  1  0  0  0  0
 19 58  1  0  0  0  0
 20 59  1  0  0  0  0
 20 60  1  0  0  0  0
 21 61  1  0  0  0  0
 21 62  1  0  0  0  0
 22 63  1  0  0  0  0
 22 64  1  0  0  0  0
 23 65  1  0  0  0  0
 23 66  1  0  0  0  0
 24 67  1  0  0  0  0
 24 68  1  0  0  0  0
 26 69  1  0  0  0  0
 29 70  1  0  0  0  0
 30 71  1  0  0  0  0
 31 72  1  0  0  0  0
 32 73  1  0  0  0  0
 35 74  1  0  0  0  0
M  CHG  1   9   1
M  END
>  <result-rank>
56

>  <similarity>
0.890

>  <query-name>


>  <query-smiles>
S1c2c(cccc2)C(C(=O)N3CCC([N@H+]4CC5(C(=O)N6N(C5=O)CCCC6)CCC4)CC3)=C1NC(=O)NC

>  <source>
REALspace_2019-12

>  <similarity-descriptor>
0.999;0.935;0.999;0.637;0.937;0.799;1.000;0.935;0.935;0.0;0.0;0.071

>  <similarity-descriptor-smiles>
N1CCCCC1;C1=CC(ccN1)=O;c1ccccc1;CC=O;C1CC[NH+]CC1;N(CCC)CC;O=C;C1=CC(ccN1)=O;C1=CC(ccN1)=O;;;C

>  <reaction-name>
m_275030

>  <reagent1-name>
14114100

>  <reagent1-smiles>
[R1*]N1CC(C2CCN([R2*])CC2)CCC1

>  <reagent2-name>
14126114

>  <reagent2-smiles>
[R1*]C(=O)C=1Nc2c(cccc2)C(=O)C1

>  <reagent3-name>
12659166

>  <reagent3-smiles>
[R2*]CC(=O)N(CC(=C)C)CC

$$$$
m_275030____14113648____14124968____14147854
          04022017303D 1   1.00000     0.00000     0
            
 66 71  0  0  0  0            999 V2000
   -5.1888    5.8387    3.0220 S   0  0  0  0  0  0  0  0  0  0  0  0
   -5.0081    7.5151    3.2391 C   0  0  0  0  0  0  0  0  0  0  0  0
   -3.7455    7.8213    2.7794 C   0  0  0  0  0  0  0  0  0  0  0  0
   -3.0368    6.7397    2.3084 N   0  0  0  0  0  0  0  0  0  0  0  0
   -3.6444    5.5806    2.3576 C   0  0  0  0  0  0  0  0  0  0  0  0
   -3.1358    4.3446    1.9401 N   0  0  0  0  0  0  0  0  0  0  0  0
   -2.1156    3.7530    2.6372 C   0  0  0  0  0  0  0  0  0  0  0  0
   -1.7785    4.1970    3.6999 O   0  0  0  0  0  0  0  0  0  0  0  0
   -1.4107    2.5341    2.0647 C   0  0  0  0  0  0  0  0  0  0  0  0
   -0.0150    2.5115    2.5291 N   0  3  3  0  0  0  0  0  0  0  0  0
    0.6558    1.2645    2.1490 C   0  0  0  0  0  0  0  0  0  0  0  0
    2.1148    1.5325    2.4634 C   0  0  3  0  0  0  0  0  0  0  0  0
    2.6594    1.2293    3.8474 C   0  0  3  0  0  0  0  0  0  0  0  0
    4.0507    1.6854    3.8773 N   0  0  0  0  0  0  0  0  0  0  0  0
    5.0671    0.9281    4.4751 C   0  0  0  0  0  0  0  0  0  0  0  0
    6.1962    1.3345    4.4766 O   0  0  0  0  0  0  0  0  0  0  0  0
    4.7394   -0.4080    5.1214 C   0  0  0  0  0  0  0  0  0  0  0  0
    4.4319   -1.3455    4.4385 O   0  0  0  0  0  0  0  0  0  0  0  0
    4.7965   -0.5449    6.5143 N   0  0  0  0  0  0  0  0  0  0  0  0
    4.5100   -1.7620    7.2795 C   0  0  0  0  0  0  0  0  0  0  0  0
    5.3934   -1.6835    8.5082 C   0  0  3  0  0  0  0  0  0  0  0  0
    5.7945   -0.2225    8.6407 C   0  0  0  0  0  0  0  0  0  0  0  0
    5.1498    0.5043    7.4752 C   0  0  0  0  0  0  0  0  0  0  0  0
    6.6032   -2.5991    8.4195 C   0  0  0  0  0  0  0  0  0  0  0  0
    4.2959    2.9858    3.2476 C   0  0  0  0  0  0  0  0  0  0  0  0
    2.9490    3.6821    3.2808 C   0  0  3  0  0  0  0  0  0  0  0  0
    2.2468    2.9982    2.1245 C   0  0  3  0  0  0  0  0  0  0  0  0
    0.8394    3.4774    1.8266 C   0  0  0  0  0  0  0  0  0  0  0  0
    2.2463    3.5256    4.6226 C   0  0  0  0  0  0  0  0  0  0  0  0
    2.0260    2.0578    4.9519 C   0  0  0  0  0  0  0  0  0  0  0  0
   -3.4479    9.1749    2.8929 C   0  0  0  0  0  0  0  0  0  0  0  0
   -4.3560   10.0889    3.4196 C   0  0  0  0  0  0  0  0  0  0  0  0
   -5.6153    9.6933    3.8637 C   0  0  0  0  0  0  0  0  0  0  0  0
   -5.9683    8.3562    3.7755 C   0  0  0  0  0  0  0  0  0  0  0  0
    0.0314    2.6514    3.5182 H   0  0  0  0  0  0  0  0  0  0  0  0
   -3.5172    3.8938    1.1331 H   0  0  0  0  0  0  0  0  0  0  0  0
   -1.8775    1.7045    2.3712 H   0  0  0  0  0  0  0  0  0  0  0  0
   -1.4289    2.5771    1.0658 H   0  0  0  0  0  0  0  0  0  0  0  0
    0.5298    1.0740    1.1754 H   0  0  0  0  0  0  0  0  0  0  0  0
    0.3105    0.4953    2.6866 H   0  0  0  0  0  0  0  0  0  0  0  0
    2.6645    1.0198    1.8040 H   0  0  0  0  0  0  0  0  0  0  0  0
    2.5975    0.2523    4.0513 H   0  0  0  0  0  0  0  0  0  0  0  0
    4.7322   -2.5744    6.7404 H   0  0  0  0  0  0  0  0  0  0  0  0
    3.5458   -1.7905    7.5432 H   0  0  0  0  0  0  0  0  0  0  0  0
    4.8531   -1.9420    9.3090 H   0  0  0  0  0  0  0  0  0  0  0  0
    6.7894   -0.1314    8.5978 H   0  0  0  0  0  0  0  0  0  0  0  0
    5.4627    0.1503    9.5073 H   0  0  0  0  0  0  0  0  0  0  0  0
    4.3313    0.9934    7.7766 H   0  0  0  0  0  0  0  0  0  0  0  0
    5.7933    1.1515    7.0665 H   0  0  0  0  0  0  0  0  0  0  0  0
    7.1506   -2.5097    9.2516 H   0  0  0  0  0  0  0  0  0  0  0  0
    6.2979   -3.5463    8.3216 H   0  0  0  0  0  0  0  0  0  0  0  0
    7.1571   -2.3438    7.6270 H   0  0  0  0  0  0  0  0  0  0  0  0
    4.6105    2.8690    2.3056 H   0  0  0  0  0  0  0  0  0  0  0  0
    4.9759    3.5063    3.7641 H   0  0  0  0  0  0  0  0  0  0  0  0
    3.0677    4.6534    3.0748 H   0  0  0  0  0  0  0  0  0  0  0  0
    2.8055    3.0937    1.3006 H   0  0  0  0  0  0  0  0  0  0  0  0
    0.6959    4.4022    2.1788 H   0  0  0  0  0  0  0  0  0  0  0  0
    0.6589    3.4634    0.8431 H   0  0  0  0  0  0  0  0  0  0  0  0
    1.3610    3.9891    4.5845 H   0  0  0  0  0  0  0  0  0  0  0  0
    2.8093    3.9406    5.3373 H   0  0  0  0  0  0  0  0  0  0  0  0
    2.4541    1.8387    5.8287 H   0  0  0  0  0  0  0  0  0  0  0  0
    1.0461    1.8645    5.0019 H   0  0  0  0  0  0  0  0  0  0  0  0
   -2.5539    9.5018    2.5866 H   0  0  0  0  0  0  0  0  0  0  0  0
   -4.0979   11.0531    3.4806 H   0  0  0  0  0  0  0  0  0  0  0  0
   -6.2547   10.3636    4.2404 H   0  0  0  0  0  0  0  0  0  0  0  0
   -6.8597    8.0203    4.0798 H   0  0  0  0  0  0  0  0  0  0  0  0
  1  2  1  0  0  0  0
  2  3  1  0  0  0  0
  3  4  1  0  0  0  0
  4  5  2  0  0  0  0
  5  1  1  0  0  0  0
  5  6  1  0  0  0  0
  6  7  1  0  0  0  0
  7  8  2  0  0  0  0
  7  9  1  0  0  0  0
  9 10  1  0  0  0  0
 10 11  1  0  0  0  0
 11 12  1  0  0  0  0
 12 13  1  0  0  0  0
 13 14  1  0  0  0  0
 14 15  1  0  0  0  0
 15 16  2  0  0  0  0
 15 17  1  0  0  0  0
 17 18  2  0  0  0  0
 17 19  1  0  0  0  0
 19 20  1  0  0  0  0
 20 21  1  0  0  0  0
 21 22  1  0  0  0  0
 22 23  1  0  0  0  0
 23 19  1  0  0  0  0
 21 24  1  0  0  0  0
 14 25  1  0  0  0  0
 25 26  1  0  0  0  0
 26 27  1  0  0  0  0
 27 12  1  0  0  0  0
 27 28  1  0  0  0  0
 28 10  1  0  0  0  0
 26 29  1  0  0  0  0
 29 30  1  0  0  0  0
 30 13  1  0  0  0  0
  3 31  2  0  0  0  0
 31 32  1  0  0  0  0
 32 33  2  0  0  0  0
 33 34  1  0  0  0  0
 34  2  2  0  0  0  0
 10 35  1  0  0  0  0
  6 36  1  0  0  0  0
  9 37  1  0  0  0  0
  9 38  1  0  0  0  0
 11 39  1  0  0  0  0
 11 40  1  0  0  0  0
 12 41  1  0  0  0  0
 13 42  1  0  0  0  0
 20 43  1  0  0  0  0
 20 44  1  0  0  0  0
 21 45  1  0  0  0  0
 22 46  1  0  0  0  0
 22 47  1  0  0  0  0
 23 48  1  0  0  0  0
 23 49  1  0  0  0  0
 24 50  1  0  0  0  0
 24 51  1  0  0  0  0
 24 52  1  0  0  0  0
 25 53  1  0  0  0  0
 25 54  1  0  0  0  0
 26 55  1  0  0  0  0
 27 56  1  0  0  0  0
 28 57  1  0  0  0  0
 28 58  1  0  0  0  0
 29 59  1  0  0  0  0
 29 60  1  0  0  0  0
 30 61  1  0  0  0  0
 30 62  1  0  0  0  0
 31 63  1  0  0  0  0
 32 64  1  0  0  0  0
 33 65  1  0  0  0  0
 34 66  1  0  0  0  0
M  CHG  1  10   1
M  END
>  <result-rank>
57

>  <similarity>
0.890

>  <query-name>


>  <query-smiles>
S1c2c(cccc2)C(C(=O)N3CCC([N@H+]4CC5(C(=O)N6N(C5=O)CCCC6)CCC4)CC3)=C1NC(=O)NC

>  <source>
REALspace_2019-12

>  <similarity-descriptor>
0.938;0.821;0.999;0.882;0.938;0.984;0.745;0.0;0.0;0.0;0.0;0.100

>  <similarity-descriptor-smiles>
[NH+]1CC2C3CNC(C2C1)CC3;S1C=Ncc1;c1ccccc1;C(=O)C=O;[NH+]1CC2C3CNC(C2C1)CC3;N1CCCC1;NC(=O)C;;;;;C

>  <reaction-name>
m_275030

>  <reagent1-name>
14113648

>  <reagent1-smiles>
[R2*]N1C2C3C(C(C1)CC2)CN([R1*])C3

>  <reagent2-name>
14124968

>  <reagent2-smiles>
[R1*]C(=O)C(=O)N1CC(CC1)C

>  <reagent3-name>
14147854

>  <reagent3-smiles>
[R2*]CC(=O)NC=1Sc2c(N1)cccc2

$$$$
m_275592____15865406____15846120____14134194
          04022017303D 1   1.00000     0.00000     0
            
 66 71  0  0  0  0            999 V2000
   -1.9451    0.6556    6.7032 O   0  0  0  0  0  0  0  0  0  0  0  0
   -1.6992    1.7207    6.2081 C   0  0  0  0  0  0  0  0  0  0  0  0
   -0.5470    1.8818    5.4325 N   0  0  0  0  0  0  0  0  0  0  0  0
    0.3413    0.7230    5.2448 C   0  0  0  0  0  0  0  0  0  0  0  0
    0.8751    0.7022    3.8162 C   0  0  0  0  0  0  0  0  0  0  0  0
    1.4191    2.0391    3.3150 C   0  0  0  0  0  0  0  0  0  0  0  0
    1.8796    1.8796    1.8796 C   0  0  3  0  0  0  0  0  0  0  0  0
    1.0000    1.0000    1.0000 C   0  0  0  0  0  0  0  0  0  0  0  0
    1.5673    0.9387   -0.3547 N   0  0  0  0  0  0  0  0  0  0  0  0
    0.9432    0.2011   -1.3260 C   0  0  0  0  0  0  0  0  0  0  0  0
   -0.0149   -0.4664   -1.0497 O   0  0  0  0  0  0  0  0  0  0  0  0
    1.4412    0.2271   -2.6898 C   0  0  0  0  0  0  0  0  0  0  0  0
    0.6750    0.6551   -3.7734 C   0  0  0  0  0  0  0  0  0  0  0  0
    1.2523    0.6389   -5.0404 C   0  0  0  0  0  0  0  0  0  0  0  0
    2.5173    0.2156   -5.1752 N   0  0  0  0  0  0  0  0  0  0  0  0
    3.2265   -0.1802   -4.1694 N   0  0  0  0  0  0  0  0  0  0  0  0
    2.7469   -0.1950   -2.9154 C   0  0  0  0  0  0  0  0  0  0  0  0
    0.5066    1.0611   -6.1363 C   0  0  0  0  0  0  0  0  0  0  0  0
   -0.8060    1.4997   -5.9894 C   0  0  0  0  0  0  0  0  0  0  0  0
   -1.3945    1.5212   -4.7300 C   0  0  0  0  0  0  0  0  0  0  0  0
   -0.6402    1.0981   -3.6411 C   0  0  0  0  0  0  0  0  0  0  0  0
    3.2602    1.2959    2.0829 C   0  0  0  0  0  0  0  0  0  0  0  0
    3.8522    2.1870    3.1530 C   0  0  0  0  0  0  0  0  0  0  0  0
    2.6528    2.6571    3.9439 C   0  0  0  0  0  0  0  0  0  0  0  0
    0.2659    3.0301    3.4174 C   0  0  0  0  0  0  0  0  0  0  0  0
   -0.2877    3.1957    4.8266 C   0  0  0  0  0  0  0  0  0  0  0  0
   -2.6007    2.8453    6.4151 C   0  0  0  0  0  0  0  0  0  0  0  0
   -2.2868    3.9881    6.9807 N   0  0  0  0  0  0  0  0  0  0  0  0
   -3.3487    4.7676    7.0080 N   0  0  0  0  0  0  0  0  0  0  0  0
   -4.3618    4.1552    6.4377 C   0  0  0  0  0  0  0  0  0  0  0  0
   -3.9290    2.9222    6.0656 N   0  0  0  0  0  0  0  0  0  0  0  0
   -4.8608    1.9728    5.4322 C   0  0  0  0  0  0  0  0  0  0  0  0
   -6.0874    2.6214    4.8067 C   0  0  0  0  0  0  0  0  0  0  0  0
   -6.7214    3.4674    5.8992 C   0  0  0  0  0  0  0  0  0  0  0  0
   -5.7810    4.6327    6.1680 C   0  0  0  0  0  0  0  0  0  0  0  0
   -0.1702   -0.1183    5.4196 H   0  0  0  0  0  0  0  0  0  0  0  0
    1.1078    0.7861    5.8839 H   0  0  0  0  0  0  0  0  0  0  0  0
    1.6133    0.0291    3.7698 H   0  0  0  0  0  0  0  0  0  0  0  0
    0.1305    0.4226    3.2100 H   0  0  0  0  0  0  0  0  0  0  0  0
    1.9640    2.7833    1.4598 H   0  0  0  0  0  0  0  0  0  0  0  0
    0.9583    0.0784    1.3859 H   0  0  0  0  0  0  0  0  0  0  0  0
    0.0784    1.3859    0.9583 H   0  0  0  0  0  0  0  0  0  0  0  0
    2.4088    1.4355   -0.5674 H   0  0  0  0  0  0  0  0  0  0  0  0
    3.3192   -0.5046   -2.1561 H   0  0  0  0  0  0  0  0  0  0  0  0
    0.9213    1.0493   -7.0462 H   0  0  0  0  0  0  0  0  0  0  0  0
   -1.3257    1.7992   -6.7895 H   0  0  0  0  0  0  0  0  0  0  0  0
   -2.3369    1.8333   -4.6101 H   0  0  0  0  0  0  0  0  0  0  0  0
   -1.0556    1.1120   -2.7316 H   0  0  0  0  0  0  0  0  0  0  0  0
    3.7970    1.3408    1.2403 H   0  0  0  0  0  0  0  0  0  0  0  0
    3.2070    0.3471    2.3941 H   0  0  0  0  0  0  0  0  0  0  0  0
    4.4822    1.6728    3.7350 H   0  0  0  0  0  0  0  0  0  0  0  0
    4.3338    2.9619    2.7436 H   0  0  0  0  0  0  0  0  0  0  0  0
    2.7348    2.3617    4.8958 H   0  0  0  0  0  0  0  0  0  0  0  0
    2.5906    3.6545    3.9086 H   0  0  0  0  0  0  0  0  0  0  0  0
   -0.4743    2.7131    2.8243 H   0  0  0  0  0  0  0  0  0  0  0  0
    0.5888    3.9217    3.0999 H   0  0  0  0  0  0  0  0  0  0  0  0
    0.3771    3.6911    5.3858 H   0  0  0  0  0  0  0  0  0  0  0  0
   -1.1418    3.7144    4.7864 H   0  0  0  0  0  0  0  0  0  0  0  0
   -5.1699    1.3254    6.1288 H   0  0  0  0  0  0  0  0  0  0  0  0
   -4.3670    1.4805    4.7153 H   0  0  0  0  0  0  0  0  0  0  0  0
   -6.7289    1.9209    4.4941 H   0  0  0  0  0  0  0  0  0  0  0  0
   -5.8195    3.1968    4.0339 H   0  0  0  0  0  0  0  0  0  0  0  0
   -7.6113    3.8081    5.5957 H   0  0  0  0  0  0  0  0  0  0  0  0
   -6.8385    2.9229    6.7297 H   0  0  0  0  0  0  0  0  0  0  0  0
   -5.7747    5.2356    5.3702 H   0  0  0  0  0  0  0  0  0  0  0  0
   -6.1105    5.1385    6.9653 H   0  0  0  0  0  0  0  0  0  0  0  0
  1  2  2  0  0  0  0
  2  3  1  0  0  0  0
  3  4  1  0  0  0  0
  4  5  1  0  0  0  0
  5  6  1  0  0  0  0
  6  7  1  0  0  0  0
  7  8  1  0  0  0  0
  8  9  1  0  0  0  0
  9 10  1  0  0  0  0
 10 11  2  0  0  0  0
 10 12  1  0  0  0  0
 12 13  1  0  0  0  0
 13 14  2  0  0  0  0
 14 15  1  0  0  0  0
 15 16  2  0  0  0  0
 16 17  1  0  0  0  0
 17 12  2  0  0  0  0
 14 18  1  0  0  0  0
 18 19  2  0  0  0  0
 19 20  1  0  0  0  0
 20 21  2  0  0  0  0
 21 13  1  0  0  0  0
  7 22  1  0  0  0  0
 22 23  1  0  0  0  0
 23 24  1  0  0  0  0
 24  6  1  0  0  0  0
  6 25  1  0  0  0  0
 25 26  1  0  0  0  0
 26  3  1  0  0  0  0
  2 27  1  0  0  0  0
 27 28  2  0  0  0  0
 28 29  1  0  0  0  0
 29 30  2  0  0  0  0
 30 31  1  0  0  0  0
 31 27  1  0  0  0  0
 31 32  1  0  0  0  0
 32 33  1  0  0  0  0
 33 34  1  0  0  0  0
 34 35  1  0  0  0  0
 35 30  1  0  0  0  0
  4 36  1  0  0  0  0
  4 37  1  0  0  0  0
  5 38  1  0  0  0  0
  5 39  1  0  0  0  0
  7 40  1  0  0  0  0
  8 41  1  0  0  0  0
  8 42  1  0  0  0  0
  9 43  1  0  0  0  0
 17 44  1  0  0  0  0
 18 45  1  0  0  0  0
 19 46  1  0  0  0  0
 20 47  1  0  0  0  0
 21 48  1  0  0  0  0
 22 49  1  0  0  0  0
 22 50  1  0  0  0  0
 23 51  1  0  0  0  0
 23 52  1  0  0  0  0
 24 53  1  0  0  0  0
 24 54  1  0  0  0  0
 25 55  1  0  0  0  0
 25 56  1  0  0  0  0
 26 57  1  0  0  0  0
 26 58  1  0  0  0  0
 32 59  1  0  0  0  0
 32 60  1  0  0  0  0
 33 61  1  0  0  0  0
 33 62  1  0  0  0  0
 34 63  1  0  0  0  0
 34 64  1  0  0  0  0
 35 65  1  0  0  0  0
 35 66  1  0  0  0  0
M  END
>  <result-rank>
58

>  <similarity>
0.890

>  <query-name>


>  <query-smiles>
S1c2c(cccc2)C(C(=O)N3CCC([N@H+]4CC5(C(=O)N6N(C5=O)CCCC6)CCC4)CC3)=C1NC(=O)NC

>  <source>
REALspace_2019-12

>  <similarity-descriptor>
0.995;0.813;1.000;0.886;0.808;0.920;0.851;0.813;0.813;0.0;0.0;0.0

>  <similarity-descriptor-smiles>
C1CCCC1C;c1cnncc1;c1ccccc1;O=CC=1NC=NN1;N1CCCCC1;C1CCCCN1;NC=O;c1cnncc1;c1cnncc1;;;

>  <reaction-name>
m_275592

>  <reagent1-name>
15865406

>  <reagent1-smiles>
[R2*]N1CCC2(C(CN[R1*])CCC2)CC1

>  <reagent2-name>
15846120

>  <reagent2-smiles>
[R1*]C(=O)C1=NN=C2N1CCCC2

>  <reagent3-name>
14134194

>  <reagent3-smiles>
[R2*]C(=O)c1c2c(nnc1)cccc2

$$$$
m_275030____14114236____14123420____14147198
          04022017303D 1   1.00000     0.00000     0
            
 74 78  0  0  0  0            999 V2000
   -3.1111   -6.0270    1.9775 O   0  0  0  0  0  0  0  0  0  0  0  0
   -3.2624   -5.1315    2.7618 C   0  0  0  0  0  0  0  0  0  0  0  0
   -2.5780   -3.9559    2.5996 N   0  0  0  0  0  0  0  0  0  0  0  0
   -1.8083   -3.8183    1.6501 N   0  3  0  0  0  0  0  0  0  0  0  0
   -1.1084   -2.6180    1.4836 C   0  0  0  0  0  0  0  0  0  0  0  0
   -0.7598   -2.1880    0.2074 C   0  0  0  0  0  0  0  0  0  0  0  0
   -0.0644   -0.9934    0.0514 C   0  0  0  0  0  0  0  0  0  0  0  0
    0.2750   -0.2438    1.1732 C   0  0  0  0  0  0  0  0  0  0  0  0
   -0.0731   -0.6733    2.4492 C   0  0  0  0  0  0  0  0  0  0  0  0
   -0.7687   -1.8677    2.6052 C   0  0  0  0  0  0  0  0  0  0  0  0
    1.0000    1.0000    1.0000 C   0  0  0  0  0  0  0  0  0  0  0  0
    0.4000    2.0293    0.8566 O   0  0  0  0  0  0  0  0  0  0  0  0
    2.3991    1.0000    1.0000 N   0  0  0  0  0  0  0  0  0  0  0  0
    3.1093    2.2893    0.9622 C   0  0  0  0  0  0  0  0  0  0  0  0
    4.4246    2.1983    0.2012 C   0  0  3  0  0  0  0  0  0  0  0  0
    5.2065    3.4779    0.4488 C   0  0  3  0  0  0  0  0  0  0  0  0
    5.4194    3.6945    1.9325 C   0  0  0  0  0  0  0  0  0  0  0  0
    6.5395    4.6432    1.9690 N   0  3  3  0  0  0  0  0  0  0  0  0
    7.1688    4.5935    3.2970 C   0  0  0  0  0  0  0  0  0  0  0  0
    8.3302    5.5729    3.3443 C   0  0  0  0  0  0  0  0  0  0  0  0
    8.9592    5.5232    4.6715 N   0  0  0  0  0  0  0  0  0  0  0  0
   10.0080    4.6736    5.0224 C   0  0  0  0  0  0  0  0  0  0  0  0
   10.5361    3.8634    4.2759 O   0  0  0  0  0  0  0  0  0  0  0  0
   10.3731    4.8873    6.3519 N   0  0  0  0  0  0  0  0  0  0  0  0
    9.4925    5.9301    6.8892 C   0  0  0  0  0  0  0  0  0  0  0  0
    8.5779    6.3224    5.7493 C   0  0  0  0  0  0  0  0  0  0  0  0
    7.6902    7.1674    5.7638 O   0  0  0  0  0  0  0  0  0  0  0  0
   10.1485    7.1454    7.5110 C   0  0  0  0  0  0  0  0  0  0  0  0
   10.6940    6.6415    8.8319 C   0  0  0  0  0  0  0  0  0  0  0  0
    9.6681    5.6153    9.2657 C   0  0  0  0  0  0  0  0  0  0  0  0
    8.6962    5.5196    8.1069 C   0  0  0  0  0  0  0  0  0  0  0  0
    7.4714    4.1119    0.9671 C   0  0  0  0  0  0  0  0  0  0  0  0
    6.6395    3.3417   -0.0354 C   0  0  0  0  0  0  0  0  0  0  0  0
    5.2440    0.9818    0.6085 C   0  0  0  0  0  0  0  0  0  0  0  0
    4.4162   -0.2518    0.2727 C   0  0  0  0  0  0  0  0  0  0  0  0
    3.0985   -0.2954    1.0344 C   0  0  0  0  0  0  0  0  0  0  0  0
   -4.1197   -5.2847    3.8194 N   0  0  0  0  0  0  0  0  0  0  0  0
   -1.6826   -4.5648    0.9966 H   0  0  0  0  0  0  0  0  0  0  0  0
    6.2427    5.5699    1.7385 H   0  0  0  0  0  0  0  0  0  0  0  0
   -1.0076   -2.7341   -0.5928 H   0  0  0  0  0  0  0  0  0  0  0  0
    0.1903   -0.6753   -0.8618 H   0  0  0  0  0  0  0  0  0  0  0  0
    0.1751   -0.1271    3.2493 H   0  0  0  0  0  0  0  0  0  0  0  0
   -1.0234   -2.1855    3.5186 H   0  0  0  0  0  0  0  0  0  0  0  0
    3.2991    2.5802    1.8999 H   0  0  0  0  0  0  0  0  0  0  0  0
    2.5245    2.9662    0.5151 H   0  0  0  0  0  0  0  0  0  0  0  0
    4.2228    2.1331   -0.7761 H   0  0  0  0  0  0  0  0  0  0  0  0
    4.7554    4.2653    0.0287 H   0  0  0  0  0  0  0  0  0  0  0  0
    4.6037    4.0845    2.3597 H   0  0  0  0  0  0  0  0  0  0  0  0
    5.6584    2.8381    2.3903 H   0  0  0  0  0  0  0  0  0  0  0  0
    7.5057    3.6683    3.4718 H   0  0  0  0  0  0  0  0  0  0  0  0
    6.4959    4.8405    3.9942 H   0  0  0  0  0  0  0  0  0  0  0  0
    9.0032    5.3259    2.6471 H   0  0  0  0  0  0  0  0  0  0  0  0
    7.9934    6.4981    3.1695 H   0  0  0  0  0  0  0  0  0  0  0  0
   11.1021    4.4155    6.8480 H   0  0  0  0  0  0  0  0  0  0  0  0
    9.4784    7.8729    7.6588 H   0  0  0  0  0  0  0  0  0  0  0  0
   10.8872    7.4858    6.9294 H   0  0  0  0  0  0  0  0  0  0  0  0
   10.7612    7.3842    9.4981 H   0  0  0  0  0  0  0  0  0  0  0  0
   11.5927    6.2201    8.7106 H   0  0  0  0  0  0  0  0  0  0  0  0
   10.1042    4.7311    9.4329 H   0  0  0  0  0  0  0  0  0  0  0  0
    9.1978    5.9171   10.0951 H   0  0  0  0  0  0  0  0  0  0  0  0
    8.3601    4.5831    8.0072 H   0  0  0  0  0  0  0  0  0  0  0  0
    7.9228    6.1383    8.2454 H   0  0  0  0  0  0  0  0  0  0  0  0
    8.1361    3.5047    1.4024 H   0  0  0  0  0  0  0  0  0  0  0  0
    7.9525    4.8614    0.5123 H   0  0  0  0  0  0  0  0  0  0  0  0
    6.7396    3.7342   -0.9496 H   0  0  0  0  0  0  0  0  0  0  0  0
    6.9136    2.3801   -0.0536 H   0  0  0  0  0  0  0  0  0  0  0  0
    5.4344    1.0099    1.5898 H   0  0  0  0  0  0  0  0  0  0  0  0
    6.1061    0.9641    0.1020 H   0  0  0  0  0  0  0  0  0  0  0  0
    4.2197   -0.2489   -0.7078 H   0  0  0  0  0  0  0  0  0  0  0  0
    4.9473   -1.0669    0.5038 H   0  0  0  0  0  0  0  0  0  0  0  0
    2.5101   -0.9912    0.6224 H   0  0  0  0  0  0  0  0  0  0  0  0
    3.2839   -0.5371    1.9869 H   0  0  0  0  0  0  0  0  0  0  0  0
   -4.2458   -4.5384    4.4730 H   0  0  0  0  0  0  0  0  0  0  0  0
   -4.6193   -6.1428    3.9378 H   0  0  0  0  0  0  0  0  0  0  0  0
  1  2  2  0  0  0  0
  2  3  1  0  0  0  0
  3  4  2  0  0  0  0
  4  5  1  0  0  0  0
  5  6  1  0  0  0  0
  6  7  2  0  0  0  0
  7  8  1  0  0  0  0
  8  9  2  0  0  0  0
  9 10  1  0  0  0  0
 10  5  2  0  0  0  0
  8 11  1  0  0  0  0
 11 12  2  0  0  0  0
 11 13  1  0  0  0  0
 13 14  1  0  0  0  0
 14 15  1  0  0  0  0
 15 16  1  0  0  0  0
 16 17  1  0  0  0  0
 17 18  1  0  0  0  0
 18 19  1  0  0  0  0
 19 20  1  0  0  0  0
 20 21  1  0  0  0  0
 21 22  1  0  0  0  0
 22 23  2  0  0  0  0
 22 24  1  0  0  0  0
 24 25  1  0  0  0  0
 25 26  1  0  0  0  0
 26 21  1  0  0  0  0
 26 27  2  0  0  0  0
 25 28  1  0  0  0  0
 28 29  1  0  0  0  0
 29 30  1  0  0  0  0
 30 31  1  0  0  0  0
 31 25  1  0  0  0  0
 18 32  1  0  0  0  0
 32 33  1  0  0  0  0
 33 16  1  0  0  0  0
 15 34  1  0  0  0  0
 34 35  1  0  0  0  0
 35 36  1  0  0  0  0
 36 13  1  0  0  0  0
  2 37  1  0  0  0  0
  4 38  1  0  0  0  0
 18 39  1  0  0  0  0
  6 40  1  0  0  0  0
  7 41  1  0  0  0  0
  9 42  1  0  0  0  0
 10 43  1  0  0  0  0
 14 44  1  0  0  0  0
 14 45  1  0  0  0  0
 15 46  1  0  0  0  0
 16 47  1  0  0  0  0
 17 48  1  0  0  0  0
 17 49  1  0  0  0  0
 19 50  1  0  0  0  0
 19 51  1  0  0  0  0
 20 52  1  0  0  0  0
 20 53  1  0  0  0  0
 24 54  1  0  0  0  0
 28 55  1  0  0  0  0
 28 56  1  0  0  0  0
 29 57  1  0  0  0  0
 29 58  1  0  0  0  0
 30 59  1  0  0  0  0
 30 60  1  0  0  0  0
 31 61  1  0  0  0  0
 31 62  1  0  0  0  0
 32 63  1  0  0  0  0
 32 64  1  0  0  0  0
 33 65  1  0  0  0  0
 33 66  1  0  0  0  0
 34 67  1  0  0  0  0
 34 68  1  0  0  0  0
 35 69  1  0  0  0  0
 35 70  1  0  0  0  0
 36 71  1  0  0  0  0
 36 72  1  0  0  0  0
 37 73  1  0  0  0  0
 37 74  1  0  0  0  0
M  CHG  2   4   1  18   1
M  END
>  <result-rank>
59

>  <similarity>
0.889

>  <query-name>


>  <query-smiles>
S1c2c(cccc2)C(C(=O)N3CCC([N@H+]4CC5(C(=O)N6N(C5=O)CCCC6)CCC4)CC3)=C1NC(=O)NC

>  <source>
REALspace_2019-12

>  <similarity-descriptor>
0.999;0.739;0.739;0.859;0.936;0.994;0.999;0.984;0.851;0.709;0.0;0.0

>  <similarity-descriptor-smiles>
N1CCCCC1;c1ccccc1;c1ccccc1;CN1C(CNC1=O)=O;C1CC[NH+](C1)C;C1CCCC1;C=O;[NH+];O=CN;N;;

>  <reaction-name>
m_275030

>  <reagent1-name>
14114236

>  <reagent1-smiles>
[R2*]N1CC(C2CN([R1*])CCC2)CC1

>  <reagent2-name>
14123420

>  <reagent2-smiles>
[R1*]C(=O)c1ccc(N=NC(=O)N)cc1

>  <reagent3-name>
14147198

>  <reagent3-smiles>
[R2*]CCN1C(=O)NC2(C1=O)CCCC2

$$$$
m_275592____15865406____15843342____14129774
          04022017303D 1   1.00000     0.00000     0
            
 68 72  0  0  0  0            999 V2000
    7.0417    2.9122    5.3426 O   0  0  0  0  0  0  0  0  0  0  0  0
    7.7463    1.9425    5.3988 C   0  0  0  0  0  0  0  0  0  0  0  0
    7.3466    0.7704    4.8128 N   0  0  0  0  0  0  0  0  0  0  0  0
    6.1080    0.7290    4.0222 C   0  0  0  0  0  0  0  0  0  0  0  0
    6.4226    1.0514    2.5704 C   0  0  3  0  0  0  0  0  0  0  0  0
    5.2105    1.0372    1.6574 C   0  0  0  0  0  0  0  0  0  0  0  0
    4.3411    2.2764    1.8289 C   0  0  0  0  0  0  0  0  0  0  0  0
    3.0885    2.3011    0.9595 C   0  0  0  0  0  0  0  0  0  0  0  0
    2.3982    1.0000    1.0000 N   0  0  0  0  0  0  0  0  0  0  0  0
    1.0000    1.0000    1.0000 C   0  0  0  0  0  0  0  0  0  0  0  0
    0.4000    2.0387    0.9677 O   0  0  0  0  0  0  0  0  0  0  0  0
    0.2400   -0.3157    1.0410 C   0  0  0  0  0  0  0  0  0  0  0  0
    0.0033   -0.6838    2.3919 O   0  0  0  0  0  0  0  0  0  0  0  0
   -0.7063   -1.9122    2.4301 C   0  0  0  0  0  0  0  0  0  0  0  0
   -0.0040   -3.0811    1.7836 C   0  0  0  0  0  0  0  0  0  0  0  0
    0.6472   -3.3370    3.1244 C   0  0  0  0  0  0  0  0  0  0  0  0
   -0.5903   -2.6992    3.7171 C   0  0  0  0  0  0  0  0  0  0  0  0
   -2.1504   -1.7996    1.9695 C   0  0  0  0  0  0  0  0  0  0  0  0
    3.0880   -0.2968    1.0514 C   0  0  0  0  0  0  0  0  0  0  0  0
    4.2895   -0.1390    1.9689 C   0  0  0  0  0  0  0  0  0  0  0  0
    5.9716    1.0582    0.3493 C   0  0  0  0  0  0  0  0  0  0  0  0
    7.0071   -0.0362    0.5128 C   0  0  0  0  0  0  0  0  0  0  0  0
    7.3334   -0.0149    1.9898 C   0  0  0  0  0  0  0  0  0  0  0  0
    9.0227    2.0114    6.0878 C   0  0  0  0  0  0  0  0  0  0  0  0
    9.1391    2.3316    7.4411 C   0  0  0  0  0  0  0  0  0  0  0  0
   10.3991    2.3762    8.0326 C   0  0  0  0  0  0  0  0  0  0  0  0
   11.5096    2.0964    7.2419 C   0  0  0  0  0  0  0  0  0  0  0  0
   11.3740    1.7918    5.9425 N   0  0  0  0  0  0  0  0  0  0  0  0
   10.1710    1.7430    5.3510 C   0  0  0  0  0  0  0  0  0  0  0  0
   10.5534    2.6901    9.3788 C   0  0  0  0  0  0  0  0  0  0  0  0
    9.4272    2.9639   10.1475 C   0  0  0  0  0  0  0  0  0  0  0  0
    8.1552    2.9275    9.5880 C   0  0  0  0  0  0  0  0  0  0  0  0
    8.0313    2.6114    8.2396 C   0  0  0  0  0  0  0  0  0  0  0  0
    7.8974   -0.0569    4.9229 H   0  0  0  0  0  0  0  0  0  0  0  0
    5.4612    1.4022    4.3805 H   0  0  0  0  0  0  0  0  0  0  0  0
    5.7054   -0.1844    4.0811 H   0  0  0  0  0  0  0  0  0  0  0  0
    6.8729    1.9426    2.5153 H   0  0  0  0  0  0  0  0  0  0  0  0
    4.8937    3.0784    1.6020 H   0  0  0  0  0  0  0  0  0  0  0  0
    4.0569    2.3275    2.7863 H   0  0  0  0  0  0  0  0  0  0  0  0
    2.4699    3.0112    1.2958 H   0  0  0  0  0  0  0  0  0  0  0  0
    3.3484    2.5052    0.0157 H   0  0  0  0  0  0  0  0  0  0  0  0
   -0.6338   -0.2109    0.5661 H   0  0  0  0  0  0  0  0  0  0  0  0
    0.7804   -1.0270    0.5915 H   0  0  0  0  0  0  0  0  0  0  0  0
    0.6304   -2.8344    1.0510 H   0  0  0  0  0  0  0  0  0  0  0  0
   -0.6108   -3.8105    1.4676 H   0  0  0  0  0  0  0  0  0  0  0  0
    1.4988   -2.8377    3.2838 H   0  0  0  0  0  0  0  0  0  0  0  0
    0.7782   -4.3014    3.3544 H   0  0  0  0  0  0  0  0  0  0  0  0
   -1.3452   -3.3318    3.8903 H   0  0  0  0  0  0  0  0  0  0  0  0
   -0.4257   -2.1452    4.5331 H   0  0  0  0  0  0  0  0  0  0  0  0
   -2.5880   -2.6972    2.0219 H   0  0  0  0  0  0  0  0  0  0  0  0
   -2.6388   -1.1557    2.5584 H   0  0  0  0  0  0  0  0  0  0  0  0
   -2.1744   -1.4717    1.0251 H   0  0  0  0  0  0  0  0  0  0  0  0
    3.3902   -0.5594    0.1350 H   0  0  0  0  0  0  0  0  0  0  0  0
    2.4722   -0.9970    1.4127 H   0  0  0  0  0  0  0  0  0  0  0  0
    3.9502   -0.0245    2.9025 H   0  0  0  0  0  0  0  0  0  0  0  0
    4.8318   -0.9772    1.9118 H   0  0  0  0  0  0  0  0  0  0  0  0
    6.4108    1.9453    0.2074 H   0  0  0  0  0  0  0  0  0  0  0  0
    5.3633    0.8605   -0.4194 H   0  0  0  0  0  0  0  0  0  0  0  0
    7.8211    0.1604   -0.0338 H   0  0  0  0  0  0  0  0  0  0  0  0
    6.6318   -0.9234    0.2445 H   0  0  0  0  0  0  0  0  0  0  0  0
    7.1445   -0.9046    2.4055 H   0  0  0  0  0  0  0  0  0  0  0  0
    8.2935    0.2239    2.1354 H   0  0  0  0  0  0  0  0  0  0  0  0
   12.4227    2.1227    7.6486 H   0  0  0  0  0  0  0  0  0  0  0  0
   10.1000    1.5136    4.3802 H   0  0  0  0  0  0  0  0  0  0  0  0
   11.4646    2.7186    9.7896 H   0  0  0  0  0  0  0  0  0  0  0  0
    9.5340    3.1900   11.1157 H   0  0  0  0  0  0  0  0  0  0  0  0
    7.3470    3.1243   10.1431 H   0  0  0  0  0  0  0  0  0  0  0  0
    7.1194    2.5839    7.8301 H   0  0  0  0  0  0  0  0  0  0  0  0
  1  2  2  0  0  0  0
  2  3  1  0  0  0  0
  3  4  1  0  0  0  0
  4  5  1  0  0  0  0
  5  6  1  0  0  0  0
  6  7  1  0  0  0  0
  7  8  1  0  0  0  0
  8  9  1  0  0  0  0
  9 10  1  0  0  0  0
 10 11  2  0  0  0  0
 10 12  1  0  0  0  0
 12 13  1  0  0  0  0
 13 14  1  0  0  0  0
 14 15  1  0  0  0  0
 15 16  1  0  0  0  0
 16 17  1  0  0  0  0
 17 14  1  0  0  0  0
 14 18  1  0  0  0  0
  9 19  1  0  0  0  0
 19 20  1  0  0  0  0
 20  6  1  0  0  0  0
  6 21  1  0  0  0  0
 21 22  1  0  0  0  0
 22 23  1  0  0  0  0
 23  5  1  0  0  0  0
  2 24  1  0  0  0  0
 24 25  1  0  0  0  0
 25 26  2  0  0  0  0
 26 27  1  0  0  0  0
 27 28  2  0  0  0  0
 28 29  1  0  0  0  0
 29 24  2  0  0  0  0
 26 30  1  0  0  0  0
 30 31  2  0  0  0  0
 31 32  1  0  0  0  0
 32 33  2  0  0  0  0
 33 25  1  0  0  0  0
  3 34  1  0  0  0  0
  4 35  1  0  0  0  0
  4 36  1  0  0  0  0
  5 37  1  0  0  0  0
  7 38  1  0  0  0  0
  7 39  1  0  0  0  0
  8 40  1  0  0  0  0
  8 41  1  0  0  0  0
 12 42  1  0  0  0  0
 12 43  1  0  0  0  0
 15 44  1  0  0  0  0
 15 45  1  0  0  0  0
 16 46  1  0  0  0  0
 16 47  1  0  0  0  0
 17 48  1  0  0  0  0
 17 49  1  0  0  0  0
 18 50  1  0  0  0  0
 18 51  1  0  0  0  0
 18 52  1  0  0  0  0
 19 53  1  0  0  0  0
 19 54  1  0  0  0  0
 20 55  1  0  0  0  0
 20 56  1  0  0  0  0
 21 57  1  0  0  0  0
 21 58  1  0  0  0  0
 22 59  1  0  0  0  0
 22 60  1  0  0  0  0
 23 61  1  0  0  0  0
 23 62  1  0  0  0  0
 27 63  1  0  0  0  0
 29 64  1  0  0  0  0
 30 65  1  0  0  0  0
 31 66  1  0  0  0  0
 32 67  1  0  0  0  0
 33 68  1  0  0  0  0
M  END
>  <result-rank>
60

>  <similarity>
0.889

>  <query-name>


>  <query-smiles>
S1c2c(cccc2)C(C(=O)N3CCC([N@H+]4CC5(C(=O)N6N(C5=O)CCCC6)CCC4)CC3)=C1NC(=O)NC

>  <source>
REALspace_2019-12

>  <similarity-descriptor>
0.995;0.805;0.999;0.814;0.808;0.987;0.851;0.805;0.805;0.0;0.0;0.0

>  <similarity-descriptor-smiles>
CC1CCCC1;c1cnccc1;c1ccccc1;C(=O)CO;C1CCNCC1;C1(CCC1)C;O=CN;c1cnccc1;c1cnccc1;;;

>  <reaction-name>
m_275592

>  <reagent1-name>
15865406

>  <reagent1-smiles>
[R2*]N1CCC2(C(CN[R1*])CCC2)CC1

>  <reagent2-name>
15843342

>  <reagent2-smiles>
[R1*]C(=O)COC1(CCC1)C

>  <reagent3-name>
14129774

>  <reagent3-smiles>
[R2*]C(=O)c1c2c(cnc1)cccc2

$$$$
m_274860b____17162908____17184506____15233636
          04022017303D 1   1.00000     0.00000     0
            
 60 65  0  0  0  0            999 V2000
    5.9772   -7.7950    3.8062 F   0  0  0  0  0  0  0  0  0  0  0  0
    5.3535   -6.7288    3.3139 C   0  0  0  0  0  0  0  0  0  0  0  0
    3.9645   -6.6666    3.3424 C   0  0  0  0  0  0  0  0  0  0  0  0
    3.3248   -5.5453    2.8239 C   0  0  0  0  0  0  0  0  0  0  0  0
    4.0736   -4.5047    2.2844 C   0  0  0  0  0  0  0  0  0  0  0  0
    5.4633   -4.5673    2.2565 C   0  0  0  0  0  0  0  0  0  0  0  0
    6.1022   -5.6884    2.7750 C   0  0  0  0  0  0  0  0  0  0  0  0
    3.3906   -3.3434    1.7480 C   0  0  0  0  0  0  0  0  0  0  0  0
    2.0431   -3.1535    1.7137 N   0  0  0  0  0  0  0  0  0  0  0  0
    1.8338   -2.0308    1.1745 N   0  0  0  0  0  0  0  0  0  0  0  0
    2.9557   -1.4438    0.8374 N   0  0  0  0  0  0  0  0  0  0  0  0
    3.9866   -2.2554    1.1876 C   0  0  0  0  0  0  0  0  0  0  0  0
    3.0759   -0.1308    0.1885 C   0  0  3  0  0  0  0  0  0  0  0  0
    2.4703    1.0000    1.0000 C   0  0  3  0  0  0  0  0  0  0  0  0
    1.0000    1.0000    1.0000 N   0  0  0  0  0  0  0  0  0  0  0  0
    0.3150    1.2196   -0.1660 C   0  0  0  0  0  0  0  0  0  0  0  0
    0.8607    1.0569   -1.2222 O   0  0  0  0  0  0  0  0  0  0  0  0
   -1.1369    1.6696   -0.1216 C   0  0  0  0  0  0  0  0  0  0  0  0
   -2.1646    0.7794    0.5572 C   0  0  0  0  0  0  0  0  0  0  0  0
   -2.7891    1.1915    1.4954 O   0  0  0  0  0  0  0  0  0  0  0  0
   -2.3822   -0.5172    0.0895 N   0  0  0  0  0  0  0  0  0  0  0  0
   -1.7093   -1.1732   -1.0385 C   0  0  0  0  0  0  0  0  0  0  0  0
   -1.8123   -2.6611   -0.7822 C   0  0  0  0  0  0  0  0  0  0  0  0
   -2.5572   -2.7783    0.5356 C   0  0  0  0  0  0  0  0  0  0  0  0
   -3.3262   -1.4809    0.6513 C   0  0  0  0  0  0  0  0  0  0  0  0
   -1.3622    3.1485    0.0166 C   0  0  0  0  0  0  0  0  0  0  0  0
   -1.6197    2.4695   -1.2980 C   0  0  0  0  0  0  0  0  0  0  0  0
    3.1051    2.2303    0.4138 C   0  0  0  0  0  0  0  0  0  0  0  0
    4.5148    1.7352    0.5987 C   0  0  3  0  0  0  0  0  0  0  0  0
    4.5035    0.3368   -0.0048 C   0  0  0  0  0  0  0  0  0  0  0  0
    4.5384    1.4746    2.0877 C   0  0  0  0  0  0  0  0  0  0  0  0
    3.0827    1.1457    2.3786 C   0  0  0  0  0  0  0  0  0  0  0  0
    3.4321   -7.4188    3.7308 H   0  0  0  0  0  0  0  0  0  0  0  0
    2.3266   -5.4874    2.8392 H   0  0  0  0  0  0  0  0  0  0  0  0
    5.9961   -3.8153    1.8684 H   0  0  0  0  0  0  0  0  0  0  0  0
    7.1004   -5.7463    2.7602 H   0  0  0  0  0  0  0  0  0  0  0  0
    4.9649   -2.0907    1.0619 H   0  0  0  0  0  0  0  0  0  0  0  0
    2.6239   -0.1676   -0.7028 H   0  0  0  0  0  0  0  0  0  0  0  0
    0.5000    0.8397    1.8511 H   0  0  0  0  0  0  0  0  0  0  0  0
   -0.7499   -0.8940   -1.0801 H   0  0  0  0  0  0  0  0  0  0  0  0
   -2.1627   -0.9370   -1.8979 H   0  0  0  0  0  0  0  0  0  0  0  0
   -0.9025   -3.0697   -0.7098 H   0  0  0  0  0  0  0  0  0  0  0  0
   -2.3221   -3.1103   -1.5159 H   0  0  0  0  0  0  0  0  0  0  0  0
   -3.1816   -3.5593    0.5207 H   0  0  0  0  0  0  0  0  0  0  0  0
   -1.9162   -2.8785    1.2966 H   0  0  0  0  0  0  0  0  0  0  0  0
   -4.1730   -1.5119    0.1203 H   0  0  0  0  0  0  0  0  0  0  0  0
   -3.5383   -1.2680    1.6050 H   0  0  0  0  0  0  0  0  0  0  0  0
   -0.5819    3.7660    0.1160 H   0  0  0  0  0  0  0  0  0  0  0  0
   -2.1282    3.4887    0.5620 H   0  0  0  0  0  0  0  0  0  0  0  0
   -2.5571    2.3577   -1.6278 H   0  0  0  0  0  0  0  0  0  0  0  0
   -1.0108    2.6349   -2.0739 H   0  0  0  0  0  0  0  0  0  0  0  0
    2.9092    3.0596    0.9371 H   0  0  0  0  0  0  0  0  0  0  0  0
    2.8637    2.3767   -0.5455 H   0  0  0  0  0  0  0  0  0  0  0  0
    5.2315    2.3438    0.2581 H   0  0  0  0  0  0  0  0  0  0  0  0
    4.7400    0.3662   -0.9759 H   0  0  0  0  0  0  0  0  0  0  0  0
    5.1427   -0.2635    0.4759 H   0  0  0  0  0  0  0  0  0  0  0  0
    4.8351    2.2849    2.5930 H   0  0  0  0  0  0  0  0  0  0  0  0
    5.1359    0.7047    2.3117 H   0  0  0  0  0  0  0  0  0  0  0  0
    3.0053    0.2934    2.8959 H   0  0  0  0  0  0  0  0  0  0  0  0
    2.6439    1.8859    2.8882 H   0  0  0  0  0  0  0  0  0  0  0  0
  1  2  1  0  0  0  0
  2  3  1  0  0  0  0
  3  4  2  0  0  0  0
  4  5  1  0  0  0  0
  5  6  2  0  0  0  0
  6  7  1  0  0  0  0
  7  2  2  0  0  0  0
  5  8  1  0  0  0  0
  8  9  1  0  0  0  0
  9 10  2  0  0  0  0
 10 11  1  0  0  0  0
 11 12  1  0  0  0  0
  8 12  2  0  0  0  0
 11 13  1  0  0  0  0
 13 14  1  0  0  0  0
 14 15  1  0  0  0  0
 15 16  1  0  0  0  0
 16 17  2  0  0  0  0
 16 18  1  0  0  0  0
 18 19  1  0  0  0  0
 19 20  2  0  0  0  0
 19 21  1  0  0  0  0
 21 22  1  0  0  0  0
 22 23  1  0  0  0  0
 23 24  1  0  0  0  0
 24 25  1  0  0  0  0
 25 21  1  0  0  0  0
 18 26  1  0  0  0  0
 26 27  1  0  0  0  0
 27 18  1  0  0  0  0
 14 28  1  0  0  0  0
 28 29  1  0  0  0  0
 29 30  1  0  0  0  0
 30 13  1  0  0  0  0
 29 31  1  0  0  0  0
 31 32  1  0  0  0  0
 32 14  1  0  0  0  0
  3 33  1  0  0  0  0
  4 34  1  0  0  0  0
  6 35  1  0  0  0  0
  7 36  1  0  0  0  0
 12 37  1  0  0  0  0
 13 38  1  0  0  0  0
 15 39  1  0  0  0  0
 22 40  1  0  0  0  0
 22 41  1  0  0  0  0
 23 42  1  0  0  0  0
 23 43  1  0  0  0  0
 24 44  1  0  0  0  0
 24 45  1  0  0  0  0
 25 46  1  0  0  0  0
 25 47  1  0  0  0  0
 26 48  1  0  0  0  0
 26 49  1  0  0  0  0
 27 50  1  0  0  0  0
 27 51  1  0  0  0  0
 28 52  1  0  0  0  0
 28 53  1  0  0  0  0
 29 54  1  0  0  0  0
 30 55  1  0  0  0  0
 30 56  1  0  0  0  0
 31 57  1  0  0  0  0
 31 58  1  0  0  0  0
 32 59  1  0  0  0  0
 32 60  1  0  0  0  0
M  END
>  <result-rank>
61

>  <similarity>
0.889

>  <query-name>


>  <query-smiles>
S1c2c(cccc2)C(C(=O)N3CCC([N@H+]4CC5(C(=O)N6N(C5=O)CCCC6)CCC4)CC3)=C1NC(=O)NC

>  <source>
REALspace_2019-12

>  <similarity-descriptor>
0.830;0.830;0.966;0.875;0.957;0.999;0.830;0.0;0.0;0.0;0.0;0.0

>  <similarity-descriptor-smiles>
C1CCCC1;C1=CNN=N1;Fc1ccccc1;C(=O)C1(CC1)C=O;C1(CCCC1)N;N1CCCC1;C1=CNN=N1;;;;;

>  <reaction-name>
m_274860b

>  <reagent1-name>
17162908

>  <reagent1-smiles>
[R1*]N=NN([R2*])C1C2(N[R3*])CC(C1)CC2

>  <reagent2-name>
17184506

>  <reagent2-smiles>
[R3*]C(=O)C1(C(=O)N2CCCC2)CC1

>  <reagent3-name>
15233636

>  <reagent3-smiles>
[R1*]C(c1ccc(F)cc1)=C[R2*]

$$$$
m_275030____14114032____14127080____14148758
          04022017303D 1   1.00000     0.00000     0
            
 65 70  0  0  0  0            999 V2000
   -3.0138    4.9918   -0.6904 O   0  0  0  0  0  0  0  0  0  0  0  0
   -2.0017    5.5851   -0.4384 C   0  0  0  0  0  0  0  0  0  0  0  0
   -0.8781    4.8890    0.0152 N   0  0  0  0  0  0  0  0  0  0  0  0
   -0.9789    3.4285    0.1699 C   0  0  0  0  0  0  0  0  0  0  0  0
   -0.1140    2.9157    1.3131 C   0  0  0  0  0  0  0  0  0  0  0  0
    1.2837    3.5185    1.2940 C   0  0  0  0  0  0  0  0  0  0  0  0
    2.0264    3.0056    2.5174 C   0  0  3  0  0  0  0  0  0  0  0  0
    2.1200    1.4943    2.4902 C   0  0  0  0  0  0  0  0  0  0  0  0
    3.2207    1.2161    3.4213 N   0  3  3  0  0  0  0  0  0  0  0  0
    3.7451   -0.1319    3.1570 C   0  0  0  0  0  0  0  0  0  0  0  0
    4.8860   -0.4291    4.1170 C   0  0  0  0  0  0  0  0  0  0  0  0
    4.7697   -0.9844    5.2970 N   0  0  0  0  0  0  0  0  0  0  0  0
    5.9231   -1.0752    5.8085 O   0  0  0  0  0  0  0  0  0  0  0  0
    6.8144   -0.5885    4.9807 C   0  0  0  0  0  0  0  0  0  0  0  0
    6.2046   -0.1696    3.8995 N   0  0  0  0  0  0  0  0  0  0  0  0
    8.3158   -0.5200    5.2300 C   0  0  0  0  0  0  0  0  0  0  0  0
    9.1036   -1.2949    4.1922 C   0  0  0  0  0  0  0  0  0  0  0  0
   10.0345   -1.6853    5.3192 C   0  0  0  0  0  0  0  0  0  0  0  0
    8.8356   -1.5241    6.2353 C   0  0  0  0  0  0  0  0  0  0  0  0
    4.2351    2.2138    3.0607 C   0  0  0  0  0  0  0  0  0  0  0  0
    3.4945    3.3904    2.4629 C   0  0  0  0  0  0  0  0  0  0  0  0
    1.1428    5.0259    1.4514 C   0  0  0  0  0  0  0  0  0  0  0  0
    0.3433    5.6533    0.3178 C   0  0  0  0  0  0  0  0  0  0  0  0
   -1.9444    7.0248   -0.6046 C   0  0  0  0  0  0  0  0  0  0  0  0
   -1.6933    7.9152    0.3217 N   0  0  0  0  0  0  0  0  0  0  0  0
   -1.7263    9.0893   -0.1680 O   0  0  0  0  0  0  0  0  0  0  0  0
   -1.9960    9.0492   -1.4489 C   0  0  0  0  0  0  0  0  0  0  0  0
   -2.1092   10.1921   -2.3344 C   0  0  0  0  0  0  0  0  0  0  0  0
   -1.9308   11.4908   -1.8684 C   0  0  0  0  0  0  0  0  0  0  0  0
   -2.0368   12.5410   -2.6958 N   0  0  0  0  0  0  0  0  0  0  0  0
   -2.3180   12.3758   -3.9968 C   0  0  0  0  0  0  0  0  0  0  0  0
   -2.5079   11.1029   -4.5243 C   0  0  0  0  0  0  0  0  0  0  0  0
   -2.4012   10.0021   -3.6808 C   0  0  0  0  0  0  0  0  0  0  0  0
   -2.1496    7.7439   -1.7998 C   0  0  0  0  0  0  0  0  0  0  0  0
    2.9301    1.3163    4.3729 H   0  0  0  0  0  0  0  0  0  0  0  0
   -0.6827    2.9925   -0.6799 H   0  0  0  0  0  0  0  0  0  0  0  0
   -1.9321    3.1882    0.3533 H   0  0  0  0  0  0  0  0  0  0  0  0
   -0.5539    3.1506    2.1798 H   0  0  0  0  0  0  0  0  0  0  0  0
   -0.0367    1.9216    1.2371 H   0  0  0  0  0  0  0  0  0  0  0  0
    1.7682    3.2852    0.4509 H   0  0  0  0  0  0  0  0  0  0  0  0
    1.5987    3.3271    3.3622 H   0  0  0  0  0  0  0  0  0  0  0  0
    1.2682    1.0756    2.8049 H   0  0  0  0  0  0  0  0  0  0  0  0
    2.3342    1.1638    1.5710 H   0  0  0  0  0  0  0  0  0  0  0  0
    4.0800   -0.1808    2.2160 H   0  0  0  0  0  0  0  0  0  0  0  0
    3.0165   -0.8044    3.2868 H   0  0  0  0  0  0  0  0  0  0  0  0
    8.6552    0.4088    5.3792 H   0  0  0  0  0  0  0  0  0  0  0  0
    9.5216   -0.7343    3.4774 H   0  0  0  0  0  0  0  0  0  0  0  0
    8.6098   -2.0565    3.7725 H   0  0  0  0  0  0  0  0  0  0  0  0
   10.7830   -1.0441    5.4883 H   0  0  0  0  0  0  0  0  0  0  0  0
   10.3985   -2.6149    5.2617 H   0  0  0  0  0  0  0  0  0  0  0  0
    8.2730   -2.3442    6.3394 H   0  0  0  0  0  0  0  0  0  0  0  0
    9.0439   -1.1461    7.1374 H   0  0  0  0  0  0  0  0  0  0  0  0
    4.8720    1.8313    2.3914 H   0  0  0  0  0  0  0  0  0  0  0  0
    4.7399    2.5017    3.8745 H   0  0  0  0  0  0  0  0  0  0  0  0
    3.6603    4.2182    2.9989 H   0  0  0  0  0  0  0  0  0  0  0  0
    3.7824    3.5424    1.5173 H   0  0  0  0  0  0  0  0  0  0  0  0
    2.0555    5.4344    1.4656 H   0  0  0  0  0  0  0  0  0  0  0  0
    0.6787    5.2169    2.3163 H   0  0  0  0  0  0  0  0  0  0  0  0
    0.0855    6.5831    0.5807 H   0  0  0  0  0  0  0  0  0  0  0  0
    0.9155    5.6852   -0.5017 H   0  0  0  0  0  0  0  0  0  0  0  0
   -1.7205   11.6435   -0.9028 H   0  0  0  0  0  0  0  0  0  0  0  0
   -2.3919   13.1752   -4.5930 H   0  0  0  0  0  0  0  0  0  0  0  0
   -2.7178   10.9811   -5.4944 H   0  0  0  0  0  0  0  0  0  0  0  0
   -2.5338    9.0786   -4.0407 H   0  0  0  0  0  0  0  0  0  0  0  0
   -2.3613    7.3759   -2.7052 H   0  0  0  0  0  0  0  0  0  0  0  0
  1  2  2  0  0  0  0
  2  3  1  0  0  0  0
  3  4  1  0  0  0  0
  4  5  1  0  0  0  0
  5  6  1  0  0  0  0
  6  7  1  0  0  0  0
  7  8  1  0  0  0  0
  8  9  1  0  0  0  0
  9 10  1  0  0  0  0
 10 11  1  0  0  0  0
 11 12  2  0  0  0  0
 12 13  1  0  0  0  0
 13 14  1  0  0  0  0
 14 15  2  0  0  0  0
 15 11  1  0  0  0  0
 14 16  1  0  0  0  0
 16 17  1  0  0  0  0
 17 18  1  0  0  0  0
 18 19  1  0  0  0  0
 19 16  1  0  0  0  0
  9 20  1  0  0  0  0
 20 21  1  0  0  0  0
 21  7  1  0  0  0  0
  6 22  1  0  0  0  0
 22 23  1  0  0  0  0
 23  3  1  0  0  0  0
  2 24  1  0  0  0  0
 24 25  2  0  0  0  0
 25 26  1  0  0  0  0
 26 27  1  0  0  0  0
 27 28  1  0  0  0  0
 28 29  1  0  0  0  0
 29 30  2  0  0  0  0
 30 31  1  0  0  0  0
 31 32  2  0  0  0  0
 32 33  1  0  0  0  0
 33 28  2  0  0  0  0
 27 34  2  0  0  0  0
 34 24  1  0  0  0  0
  9 35  1  0  0  0  0
  4 36  1  0  0  0  0
  4 37  1  0  0  0  0
  5 38  1  0  0  0  0
  5 39  1  0  0  0  0
  6 40  1  0  0  0  0
  7 41  1  0  0  0  0
  8 42  1  0  0  0  0
  8 43  1  0  0  0  0
 10 44  1  0  0  0  0
 10 45  1  0  0  0  0
 16 46  1  0  0  0  0
 17 47  1  0  0  0  0
 17 48  1  0  0  0  0
 18 49  1  0  0  0  0
 18 50  1  0  0  0  0
 19 51  1  0  0  0  0
 19 52  1  0  0  0  0
 20 53  1  0  0  0  0
 20 54  1  0  0  0  0
 21 55  1  0  0  0  0
 21 56  1  0  0  0  0
 22 57  1  0  0  0  0
 22 58  1  0  0  0  0
 23 59  1  0  0  0  0
 23 60  1  0  0  0  0
 29 61  1  0  0  0  0
 31 62  1  0  0  0  0
 32 63  1  0  0  0  0
 33 64  1  0  0  0  0
 34 65  1  0  0  0  0
M  CHG  1   9   1
M  END
>  <result-rank>
62

>  <similarity>
0.889

>  <query-name>


>  <query-smiles>
S1c2c(cccc2)C(C(=O)N3CCC([N@H+]4CC5(C(=O)N6N(C5=O)CCCC6)CCC4)CC3)=C1NC(=O)NC

>  <source>
REALspace_2019-12

>  <similarity-descriptor>
0.999;0.785;0.874;0.780;0.936;0.973;1.000;0.785;0.785;0.0;0.0;0.0

>  <similarity-descriptor-smiles>
N1CCCCC1;C=1C=CON1;c1cccnc1;C=1N=CON1;C1CC[NH+](C1)C;C1CCC1;O=C;C=1C=CON1;C=1C=CON1;;;

>  <reaction-name>
m_275030

>  <reagent1-name>
14114032

>  <reagent1-smiles>
[R2*]N1CC(C2CCN([R1*])CC2)CC1

>  <reagent2-name>
14127080

>  <reagent2-smiles>
[R1*]C(=O)C1=NOC(c2cnccc2)=C1

>  <reagent3-name>
14148758

>  <reagent3-smiles>
[R2*]CC1=NOC(=N1)C2CCC2

$$$$
s_22____13308402____8593110
          04022017303D 1   1.00000     0.00000     0
            
 72 74  0  0  0  0            999 V2000
    0.0805   -0.8064   -0.8064 O   0  0  0  0  0  0  0  0  0  0  0  0
    1.2755   -0.7286   -0.7286 C   0  0  0  0  0  0  0  0  0  0  0  0
    2.0318   -1.4849   -1.4849 O   0  0  0  0  0  0  0  0  0  0  0  0
    1.4376   -2.3969   -2.3969 C   0  0  0  0  0  0  0  0  0  0  0  0
    2.5272   -3.1463   -3.1463 C   0  0  0  0  0  0  0  0  0  0  0  0
    0.5748   -3.3878   -1.6327 C   0  0  0  0  0  0  0  0  0  0  0  0
    0.5748   -1.6327   -3.3878 C   0  0  0  0  0  0  0  0  0  0  0  0
    1.8487    0.1513    0.1513 N   0  0  0  0  0  0  0  0  0  0  0  0
    1.0000    1.0000    1.0000 C   0  0  0  0  0  0  0  0  0  0  0  0
    1.8776    1.8776    1.8776 C   0  0  0  0  0  0  0  0  0  0  0  0
    0.9996    2.7556    2.7556 C   0  0  0  0  0  0  0  0  0  0  0  0
    1.9206    3.6129    3.6129 C   0  0  0  0  0  0  0  0  0  0  0  0
    1.1605    4.4740    4.6121 C   0  0  0  0  0  0  0  0  0  0  0  0
    0.1035    3.7185    5.3046 N   0  0  0  0  0  0  0  0  0  0  0  0
   -0.2057    4.0592    6.6242 C   0  0  0  0  0  0  0  0  0  0  0  0
   -1.0627    3.4606    7.2134 O   0  0  0  0  0  0  0  0  0  0  0  0
    0.5093    5.1363    7.2816 C   0  0  0  0  0  0  0  0  0  0  0  0
    0.0546    6.4817    7.2244 C   0  0  0  0  0  0  0  0  0  0  0  0
   -0.9636    6.7561    6.6099 O   0  0  0  0  0  0  0  0  0  0  0  0
    0.7716    7.4592    7.8653 N   0  0  0  0  0  0  0  0  0  0  0  0
    1.9177    7.1693    8.5607 C   0  0  0  0  0  0  0  0  0  0  0  0
    2.3795    5.8795    8.6328 C   0  0  0  0  0  0  0  0  0  0  0  0
    3.5871    5.5371    9.3590 C   0  0  0  0  0  0  0  0  0  0  0  0
    4.5585    4.7642    8.7322 C   0  0  0  0  0  0  0  0  0  0  0  0
    5.7199    4.4294    9.4210 C   0  0  0  0  0  0  0  0  0  0  0  0
    5.8955    4.8726   10.7278 C   0  0  0  0  0  0  0  0  0  0  0  0
    7.0199    4.5542   11.4036 O   0  0  0  0  0  0  0  0  0  0  0  0
    4.9234    5.6456   11.3543 C   0  0  0  0  0  0  0  0  0  0  0  0
    3.7619    5.9801   10.6660 C   0  0  0  0  0  0  0  0  0  0  0  0
    1.6546    4.8491    7.9771 C   0  0  0  0  0  0  0  0  0  0  0  0
    2.6548    8.3101    9.2439 C   0  0  0  0  0  0  0  0  0  0  0  0
   -0.6436    2.6162    4.6761 C   0  0  0  0  0  0  0  0  0  0  0  0
    0.2090    1.8414    3.6818 C   0  0  0  0  0  0  0  0  0  0  0  0
    2.7551    1.0000    2.7551 C   0  0  0  0  0  0  0  0  0  0  0  0
    2.7551    2.7551    1.0000 C   0  0  0  0  0  0  0  0  0  0  0  0
    2.1088   -3.7885   -3.7885 H   0  0  0  0  0  0  0  0  0  0  0  0
    3.0948   -2.4943   -3.6490 H   0  0  0  0  0  0  0  0  0  0  0  0
    3.0948   -3.6490   -2.4943 H   0  0  0  0  0  0  0  0  0  0  0  0
    0.1564   -4.0300   -2.2749 H   0  0  0  0  0  0  0  0  0  0  0  0
    1.1424   -3.8906   -0.9807 H   0  0  0  0  0  0  0  0  0  0  0  0
   -0.1420   -2.8948   -1.1396 H   0  0  0  0  0  0  0  0  0  0  0  0
    0.1564   -2.2749   -4.0300 H   0  0  0  0  0  0  0  0  0  0  0  0
   -0.1420   -1.1396   -2.8948 H   0  0  0  0  0  0  0  0  0  0  0  0
    1.1424   -0.9807   -3.8906 H   0  0  0  0  0  0  0  0  0  0  0  0
    2.8445    0.2162    0.2162 H   0  0  0  0  0  0  0  0  0  0  0  0
    0.4226    0.4226    1.5774 H   0  0  0  0  0  0  0  0  0  0  0  0
    0.4226    1.5774    0.4226 H   0  0  0  0  0  0  0  0  0  0  0  0
    0.3898    3.3233    2.2026 H   0  0  0  0  0  0  0  0  0  0  0  0
    2.4507    4.2118    3.0126 H   0  0  0  0  0  0  0  0  0  0  0  0
    2.5411    3.0113    4.1159 H   0  0  0  0  0  0  0  0  0  0  0  0
    1.8050    4.8236    5.2921 H   0  0  0  0  0  0  0  0  0  0  0  0
    0.7422    5.2403    4.1245 H   0  0  0  0  0  0  0  0  0  0  0  0
    0.4513    8.4057    7.8248 H   0  0  0  0  0  0  0  0  0  0  0  0
    4.4230    4.4510    7.7923 H   0  0  0  0  0  0  0  0  0  0  0  0
    6.4242    3.8736    8.9794 H   0  0  0  0  0  0  0  0  0  0  0  0
    7.1458    4.8730   12.3431 H   0  0  0  0  0  0  0  0  0  0  0  0
    5.0588    5.9591   12.2942 H   0  0  0  0  0  0  0  0  0  0  0  0
    3.0572    6.5353   11.1078 H   0  0  0  0  0  0  0  0  0  0  0  0
    1.9829    3.9057    8.0233 H   0  0  0  0  0  0  0  0  0  0  0  0
    3.4651    7.9526    9.7084 H   0  0  0  0  0  0  0  0  0  0  0  0
    2.9331    8.9843    8.5598 H   0  0  0  0  0  0  0  0  0  0  0  0
    2.0512    8.7437    9.9129 H   0  0  0  0  0  0  0  0  0  0  0  0
   -1.4347    2.9953    4.1960 H   0  0  0  0  0  0  0  0  0  0  0  0
   -0.9558    1.9898    5.3903 H   0  0  0  0  0  0  0  0  0  0  0  0
    0.8506    1.2663    4.1892 H   0  0  0  0  0  0  0  0  0  0  0  0
   -0.3901    1.2636    3.1275 H   0  0  0  0  0  0  0  0  0  0  0  0
    3.3325    0.4226    2.1778 H   0  0  0  0  0  0  0  0  0  0  0  0
    3.3325    1.5774    3.3325 H   0  0  0  0  0  0  0  0  0  0  0  0
    2.1778    0.4226    3.3325 H   0  0  0  0  0  0  0  0  0  0  0  0
    3.3325    2.1778    0.4226 H   0  0  0  0  0  0  0  0  0  0  0  0
    2.1778    3.3325    0.4226 H   0  0  0  0  0  0  0  0  0  0  0  0
    3.3325    3.3325    1.5774 H   0  0  0  0  0  0  0  0  0  0  0  0
  1  2  2  0  0  0  0
  2  3  1  0  0  0  0
  3  4  1  0  0  0  0
  4  5  1  0  0  0  0
  4  6  1  0  0  0  0
  4  7  1  0  0  0  0
  2  8  1  0  0  0  0
  8  9  1  0  0  0  0
  9 10  1  0  0  0  0
 10 11  1  0  0  0  0
 11 12  1  0  0  0  0
 12 13  1  0  0  0  0
 13 14  1  0  0  0  0
 14 15  1  0  0  0  0
 15 16  2  0  0  0  0
 15 17  1  0  0  0  0
 17 18  1  0  0  0  0
 18 19  2  0  0  0  0
 18 20  1  0  0  0  0
 20 21  1  0  0  0  0
 21 22  2  0  0  0  0
 22 23  1  0  0  0  0
 23 24  1  0  0  0  0
 24 25  2  0  0  0  0
 25 26  1  0  0  0  0
 26 27  1  0  0  0  0
 26 28  2  0  0  0  0
 28 29  1  0  0  0  0
 29 23  2  0  0  0  0
 22 30  1  0  0  0  0
 17 30  2  0  0  0  0
 21 31  1  0  0  0  0
 14 32  1  0  0  0  0
 32 33  1  0  0  0  0
 33 11  1  0  0  0  0
 10 34  1  0  0  0  0
 10 35  1  0  0  0  0
  5 36  1  0  0  0  0
  5 37  1  0  0  0  0
  5 38  1  0  0  0  0
  6 39  1  0  0  0  0
  6 40  1  0  0  0  0
  6 41  1  0  0  0  0
  7 42  1  0  0  0  0
  7 43  1  0  0  0  0
  7 44  1  0  0  0  0
  8 45  1  0  0  0  0
  9 46  1  0  0  0  0
  9 47  1  0  0  0  0
 11 48  1  0  0  0  0
 12 49  1  0  0  0  0
 12 50  1  0  0  0  0
 13 51  1  0  0  0  0
 13 52  1  0  0  0  0
 20 53  1  0  0  0  0
 24 54  1  0  0  0  0
 25 55  1  0  0  0  0
 27 56  1  0  0  0  0
 28 57  1  0  0  0  0
 29 58  1  0  0  0  0
 30 59  1  0  0  0  0
 31 60  1  0  0  0  0
 31 61  1  0  0  0  0
 31 62  1  0  0  0  0
 32 63  1  0  0  0  0
 32 64  1  0  0  0  0
 33 65  1  0  0  0  0
 33 66  1  0  0  0  0
 34 67  1  0  0  0  0
 34 68  1  0  0  0  0
 34 69  1  0  0  0  0
 35 70  1  0  0  0  0
 35 71  1  0  0  0  0
 35 72  1  0  0  0  0
M  END
>  <result-rank>
63

>  <similarity>
0.888

>  <query-name>


>  <query-smiles>
S1c2c(cccc2)C(C(=O)N3CCC([N@H+]4CC5(C(=O)N6N(C5=O)CCCC6)CCC4)CC3)=C1NC(=O)NC

>  <source>
REALspace_2019-12

>  <similarity-descriptor>
0.999;0.893;0.982;0.708;0.845;0.795;1.000;0.893;0.893;0.893;0.995;0.059

>  <similarity-descriptor-smiles>
C1CCNCC1;C1=CC=CNC1=O;c1ccccc1;O=CO;NCC(C)C;C(C)(C)C;C=O;C1=CC=CNC1=O;C1=CC=CNC1=O;C1=CC=CNC1=O;C;O

>  <reaction-name>
s_22

>  <reagent1-name>
13308402

>  <reagent1-smiles>
[R1*]N1CCC(C(CNC(=O)OC(C)(C)C)(C)C)CC1

>  <reagent2-name>
8593110

>  <reagent2-smiles>
[R1*]C(=O)C=1C(=O)NC(=C(c2ccc(O)cc2)C1)C

$$$$
m_274310____14112962____14118380____15870612
          04022017303D 1   1.00000     0.00000     0
            
 72 77  0  0  0  0            999 V2000
    0.6204    6.5829   -2.1788 O   0  0  0  0  0  0  0  0  0  0  0  0
    1.3003    6.1934   -1.2406 C   0  0  0  0  0  0  0  0  0  0  0  0
    2.2316    5.2175   -1.4857 N   0  0  0  0  0  0  0  0  0  0  0  0
    3.0335    4.7260   -0.4885 C   0  0  0  0  0  0  0  0  0  0  0  0
    2.9299    5.1989    0.7938 C   0  0  0  0  0  0  0  0  0  0  0  0
    1.9740    6.2132    1.0860 C   0  0  0  0  0  0  0  0  0  0  0  0
    1.1558    6.7150    0.0763 C   0  0  0  0  0  0  0  0  0  0  0  0
    0.2252    7.7072    0.3780 C   0  0  0  0  0  0  0  0  0  0  0  0
    0.0879    8.2152    1.6656 C   0  0  0  0  0  0  0  0  0  0  0  0
    0.9034    7.7167    2.6766 C   0  0  0  0  0  0  0  0  0  0  0  0
    1.8313    6.7258    2.3735 C   0  0  0  0  0  0  0  0  0  0  0  0
    3.8110    4.6328    1.7976 C   0  0  0  0  0  0  0  0  0  0  0  0
    4.8848    5.1280    2.0014 O   0  0  0  0  0  0  0  0  0  0  0  0
    3.4087    3.5093    2.5281 N   0  0  0  0  0  0  0  0  0  0  0  0
    4.3233    2.9558    3.5406 C   0  0  0  0  0  0  0  0  0  0  0  0
    4.1958    1.4438    3.6644 C   0  0  3  0  0  0  0  0  0  0  0  0
    4.9584    1.0023    4.9033 C   0  0  0  0  0  0  0  0  0  0  0  0
    4.3364    1.7003    6.1046 C   0  0  0  0  0  0  0  0  0  0  0  0
    4.9732    1.2660    7.4175 C   0  0  0  0  0  0  0  0  0  0  0  0
    5.1316   -0.1954    7.4961 N   0  0  0  0  0  0  0  0  0  0  0  0
    5.0317   -0.8094    8.7587 C   0  0  0  0  0  0  0  0  0  0  0  0
    4.7981   -0.0989    9.8780 N   0  0  0  0  0  0  0  0  0  0  0  0
    4.6995   -0.6563   11.0984 C   0  0  0  0  0  0  0  0  0  0  0  0
    4.8451   -1.9925   11.1676 N   0  0  0  0  0  0  0  0  0  0  0  0
    5.0798   -2.7619   10.0889 C   0  0  0  0  0  0  0  0  0  0  0  0
    5.1668   -2.1402    8.8995 N   0  0  0  0  0  0  0  0  0  0  0  0
    5.2376   -4.2694   10.2100 C   0  0  0  0  0  0  0  0  0  0  0  0
    6.3923   -4.6513   11.1058 C   0  0  0  0  0  0  0  0  0  0  0  0
    6.6924   -6.0927   10.7372 C   0  0  0  0  0  0  0  0  0  0  0  0
    6.2295   -6.2367    9.2941 C   0  0  0  0  0  0  0  0  0  0  0  0
    5.6891   -4.8755    8.8979 C   0  0  0  0  0  0  0  0  0  0  0  0
    4.4525    0.1237   12.2453 N   0  0  0  0  0  0  0  0  0  0  0  0
    5.3845   -1.0472    6.3221 C   0  0  0  0  0  0  0  0  0  0  0  0
    4.7294   -0.4939    5.0640 C   0  0  0  0  0  0  0  0  0  0  0  0
    2.7443    0.9913    3.7385 C   0  0  0  0  0  0  0  0  0  0  0  0
    2.0724    1.4186    2.4401 C   0  0  0  0  0  0  0  0  0  0  0  0
    2.0852    2.9288    2.2459 C   0  0  0  0  0  0  0  0  0  0  0  0
    2.3280    4.8560   -2.4131 H   0  0  0  0  0  0  0  0  0  0  0  0
    3.7027    4.0134   -0.6993 H   0  0  0  0  0  0  0  0  0  0  0  0
   -0.3597    8.0635   -0.3507 H   0  0  0  0  0  0  0  0  0  0  0  0
   -0.5862    8.9274    1.8615 H   0  0  0  0  0  0  0  0  0  0  0  0
    0.8233    8.0665    3.6100 H   0  0  0  0  0  0  0  0  0  0  0  0
    2.4148    6.3699    3.1034 H   0  0  0  0  0  0  0  0  0  0  0  0
    4.1128    3.3705    4.4259 H   0  0  0  0  0  0  0  0  0  0  0  0
    5.2632    3.1798    3.2827 H   0  0  0  0  0  0  0  0  0  0  0  0
    4.6198    1.0223    2.8629 H   0  0  0  0  0  0  0  0  0  0  0  0
    5.9326    1.2141    4.8246 H   0  0  0  0  0  0  0  0  0  0  0  0
    3.3606    1.4834    6.1330 H   0  0  0  0  0  0  0  0  0  0  0  0
    4.4555    2.6877    6.0003 H   0  0  0  0  0  0  0  0  0  0  0  0
    5.8740    1.6932    7.4964 H   0  0  0  0  0  0  0  0  0  0  0  0
    4.3932    1.5691    8.1736 H   0  0  0  0  0  0  0  0  0  0  0  0
    4.3878   -4.6926   10.5242 H   0  0  0  0  0  0  0  0  0  0  0  0
    6.1326   -4.5786   12.0688 H   0  0  0  0  0  0  0  0  0  0  0  0
    7.1853   -4.0681   10.9295 H   0  0  0  0  0  0  0  0  0  0  0  0
    6.1887   -6.7195   11.3318 H   0  0  0  0  0  0  0  0  0  0  0  0
    7.6723   -6.2776   10.8119 H   0  0  0  0  0  0  0  0  0  0  0  0
    6.9968   -6.4919    8.7057 H   0  0  0  0  0  0  0  0  0  0  0  0
    5.5121   -6.9300    9.2256 H   0  0  0  0  0  0  0  0  0  0  0  0
    6.4036   -4.3179    8.4752 H   0  0  0  0  0  0  0  0  0  0  0  0
    4.9204   -4.9679    8.2650 H   0  0  0  0  0  0  0  0  0  0  0  0
    4.3834   -0.3136   13.1420 H   0  0  0  0  0  0  0  0  0  0  0  0
    4.3463    1.1146   12.1628 H   0  0  0  0  0  0  0  0  0  0  0  0
    5.0191   -1.9606    6.5013 H   0  0  0  0  0  0  0  0  0  0  0  0
    6.3715   -1.1063    6.1728 H   0  0  0  0  0  0  0  0  0  0  0  0
    5.1114   -0.9649    4.2689 H   0  0  0  0  0  0  0  0  0  0  0  0
    3.7454   -0.6653    5.1120 H   0  0  0  0  0  0  0  0  0  0  0  0
    2.2900    1.4234    4.5176 H   0  0  0  0  0  0  0  0  0  0  0  0
    2.6999   -0.0029    3.8361 H   0  0  0  0  0  0  0  0  0  0  0  0
    2.5545    0.9928    1.6745 H   0  0  0  0  0  0  0  0  0  0  0  0
    1.1230    1.1049    2.4521 H   0  0  0  0  0  0  0  0  0  0  0  0
    1.8372    3.1348    1.2993 H   0  0  0  0  0  0  0  0  0  0  0  0
    1.4141    3.3395    2.8632 H   0  0  0  0  0  0  0  0  0  0  0  0
  1  2  2  0  0  0  0
  2  3  1  0  0  0  0
  3  4  1  0  0  0  0
  4  5  2  0  0  0  0
  5  6  1  0  0  0  0
  6  7  1  0  0  0  0
  7  2  1  0  0  0  0
  7  8  2  0  0  0  0
  8  9  1  0  0  0  0
  9 10  2  0  0  0  0
 10 11  1  0  0  0  0
 11  6  2  0  0  0  0
  5 12  1  0  0  0  0
 12 13  2  0  0  0  0
 12 14  1  0  0  0  0
 14 15  1  0  0  0  0
 15 16  1  0  0  0  0
 16 17  1  0  0  0  0
 17 18  1  0  0  0  0
 18 19  1  0  0  0  0
 19 20  1  0  0  0  0
 20 21  1  0  0  0  0
 21 22  1  0  0  0  0
 22 23  2  0  0  0  0
 23 24  1  0  0  0  0
 24 25  2  0  0  0  0
 25 26  1  0  0  0  0
 26 21  2  0  0  0  0
 25 27  1  0  0  0  0
 27 28  1  0  0  0  0
 28 29  1  0  0  0  0
 29 30  1  0  0  0  0
 30 31  1  0  0  0  0
 31 27  1  0  0  0  0
 23 32  1  0  0  0  0
 20 33  1  0  0  0  0
 33 34  1  0  0  0  0
 34 17  1  0  0  0  0
 16 35  1  0  0  0  0
 35 36  1  0  0  0  0
 36 37  1  0  0  0  0
 37 14  1  0  0  0  0
  3 38  1  0  0  0  0
  4 39  1  0  0  0  0
  8 40  1  0  0  0  0
  9 41  1  0  0  0  0
 10 42  1  0  0  0  0
 11 43  1  0  0  0  0
 15 44  1  0  0  0  0
 15 45  1  0  0  0  0
 16 46  1  0  0  0  0
 17 47  1  0  0  0  0
 18 48  1  0  0  0  0
 18 49  1  0  0  0  0
 19 50  1  0  0  0  0
 19 51  1  0  0  0  0
 27 52  1  0  0  0  0
 28 53  1  0  0  0  0
 28 54  1  0  0  0  0
 29 55  1  0  0  0  0
 29 56  1  0  0  0  0
 30 57  1  0  0  0  0
 30 58  1  0  0  0  0
 31 59  1  0  0  0  0
 31 60  1  0  0  0  0
 32 61  1  0  0  0  0
 32 62  1  0  0  0  0
 33 63  1  0  0  0  0
 33 64  1  0  0  0  0
 34 65  1  0  0  0  0
 34 66  1  0  0  0  0
 35 67  1  0  0  0  0
 35 68  1  0  0  0  0
 36 69  1  0  0  0  0
 36 70  1  0  0  0  0
 37 71  1  0  0  0  0
 37 72  1  0  0  0  0
M  END
>  <result-rank>
64

>  <similarity>
0.888

>  <query-name>


>  <query-smiles>
S1c2c(cccc2)C(C(=O)N3CCC([N@H+]4CC5(C(=O)N6N(C5=O)CCCC6)CCC4)CC3)=C1NC(=O)NC

>  <source>
REALspace_2019-12

>  <similarity-descriptor>
0.999;0.940;1.000;0.762;0.751;0.912;1.000;0.940;0.940;0.0;0.0;0.125

>  <similarity-descriptor-smiles>
N1CCCCC1;O=C1ccC=CN1;c1ccccc1;c1ncncn1;C1CCNCC1;C1CCCC1;C=O;O=C1ccC=CN1;O=C1ccC=CN1;;;N

>  <reaction-name>
m_274310

>  <reagent1-name>
14112962

>  <reagent1-smiles>
[R1*]N1CC(C2CCN([R2*])CC2)CCC1

>  <reagent2-name>
14118380

>  <reagent2-smiles>
[R1*]C(=O)C=1c2c(cccc2)C(=O)NC1

>  <reagent3-name>
15870612

>  <reagent3-smiles>
[R2*]c1nc(nc(n1)C2CCCC2)N

$$$$
m_275030____14114032____14125180____14148322
          04022017303D 1   1.00000     0.00000     0
            
 71 76  0  0  0  0            999 V2000
   -1.8767   11.0313   -0.7833 O   0  0  0  0  0  0  0  0  0  0  0  0
   -1.8812    9.8089   -0.7778 C   0  0  0  0  0  0  0  0  0  0  0  0
   -2.2583    9.1747    0.3777 N   0  0  0  0  0  0  0  0  0  0  0  0
   -2.2899    7.8071    0.4666 C   0  0  0  0  0  0  0  0  0  0  0  0
   -1.9445    7.0252   -0.6047 C   0  0  0  0  0  0  0  0  0  0  0  0
   -1.5480    7.6488   -1.8220 C   0  0  0  0  0  0  0  0  0  0  0  0
   -1.5129    9.0383   -1.9170 C   0  0  0  0  0  0  0  0  0  0  0  0
   -1.1227    9.6336   -3.1147 C   0  0  0  0  0  0  0  0  0  0  0  0
   -0.7649    8.8773   -4.2259 C   0  0  0  0  0  0  0  0  0  0  0  0
   -0.7988    7.4894   -4.1350 C   0  0  0  0  0  0  0  0  0  0  0  0
   -1.1881    6.8970   -2.9383 C   0  0  0  0  0  0  0  0  0  0  0  0
   -2.0017    5.5852   -0.4385 C   0  0  0  0  0  0  0  0  0  0  0  0
   -3.0139    4.9919   -0.6905 O   0  0  0  0  0  0  0  0  0  0  0  0
   -0.8782    4.8890    0.0151 N   0  0  0  0  0  0  0  0  0  0  0  0
   -0.9790    3.4286    0.1699 C   0  0  0  0  0  0  0  0  0  0  0  0
   -0.1140    2.9157    1.3130 C   0  0  0  0  0  0  0  0  0  0  0  0
    1.2837    3.5185    1.2939 C   0  0  0  0  0  0  0  0  0  0  0  0
    2.0264    3.0056    2.5174 C   0  0  3  0  0  0  0  0  0  0  0  0
    2.1200    1.4943    2.4902 C   0  0  0  0  0  0  0  0  0  0  0  0
    3.2207    1.2161    3.4213 N   0  3  3  0  0  0  0  0  0  0  0  0
    3.7451   -0.1319    3.1570 C   0  0  0  0  0  0  0  0  0  0  0  0
    4.7559   -0.5020    4.2306 C   0  0  0  0  0  0  0  0  0  0  0  0
    4.3546   -0.5448    5.5622 C   0  0  0  0  0  0  0  0  0  0  0  0
    5.2746   -0.8840    6.5484 C   0  0  0  0  0  0  0  0  0  0  0  0
    6.5861   -1.1775    6.1892 C   0  0  0  0  0  0  0  0  0  0  0  0
    6.9885   -1.1340    4.8587 C   0  0  0  0  0  0  0  0  0  0  0  0
    6.0686   -0.7933    3.8725 C   0  0  0  0  0  0  0  0  0  0  0  0
    7.5959   -1.5499    7.2626 C   0  0  0  0  0  0  0  0  0  0  0  0
    8.6277   -2.5395    6.7583 C   0  0  0  0  0  0  0  0  0  0  0  0
    8.5666   -3.1686    8.1329 C   0  0  0  0  0  0  0  0  0  0  0  0
    7.1436   -2.6460    8.2022 C   0  0  0  0  0  0  0  0  0  0  0  0
    4.2351    2.2138    3.0607 C   0  0  0  0  0  0  0  0  0  0  0  0
    3.4945    3.3904    2.4629 C   0  0  0  0  0  0  0  0  0  0  0  0
    1.1428    5.0259    1.4513 C   0  0  0  0  0  0  0  0  0  0  0  0
    0.3433    5.6534    0.3178 C   0  0  0  0  0  0  0  0  0  0  0  0
    2.9301    1.3163    4.3729 H   0  0  0  0  0  0  0  0  0  0  0  0
   -2.5160    9.7222    1.1738 H   0  0  0  0  0  0  0  0  0  0  0  0
   -2.5686    7.3745    1.3241 H   0  0  0  0  0  0  0  0  0  0  0  0
   -1.0991   10.6314   -3.1772 H   0  0  0  0  0  0  0  0  0  0  0  0
   -0.4877    9.3240   -5.0766 H   0  0  0  0  0  0  0  0  0  0  0  0
   -0.5463    6.9245   -4.9206 H   0  0  0  0  0  0  0  0  0  0  0  0
   -1.2103    5.8991   -2.8772 H   0  0  0  0  0  0  0  0  0  0  0  0
   -0.6828    2.9926   -0.6799 H   0  0  0  0  0  0  0  0  0  0  0  0
   -1.9322    3.1883    0.3532 H   0  0  0  0  0  0  0  0  0  0  0  0
   -0.5539    3.1506    2.1798 H   0  0  0  0  0  0  0  0  0  0  0  0
   -0.0367    1.9216    1.2371 H   0  0  0  0  0  0  0  0  0  0  0  0
    1.7682    3.2852    0.4508 H   0  0  0  0  0  0  0  0  0  0  0  0
    1.5987    3.3271    3.3622 H   0  0  0  0  0  0  0  0  0  0  0  0
    1.2682    1.0756    2.8049 H   0  0  0  0  0  0  0  0  0  0  0  0
    2.3342    1.1638    1.5710 H   0  0  0  0  0  0  0  0  0  0  0  0
    4.1896   -0.1470    2.2613 H   0  0  0  0  0  0  0  0  0  0  0  0
    2.9925   -0.7902    3.1667 H   0  0  0  0  0  0  0  0  0  0  0  0
    3.4090   -0.3327    5.8089 H   0  0  0  0  0  0  0  0  0  0  0  0
    4.9956   -0.9167    7.5081 H   0  0  0  0  0  0  0  0  0  0  0  0
    7.9341   -1.3465    4.6123 H   0  0  0  0  0  0  0  0  0  0  0  0
    6.3486   -0.7580    2.9132 H   0  0  0  0  0  0  0  0  0  0  0  0
    7.9932   -0.7602    7.7301 H   0  0  0  0  0  0  0  0  0  0  0  0
    9.5120   -2.1388    6.5188 H   0  0  0  0  0  0  0  0  0  0  0  0
    8.3156   -3.1283    6.0127 H   0  0  0  0  0  0  0  0  0  0  0  0
    9.1932   -2.7740    8.8049 H   0  0  0  0  0  0  0  0  0  0  0  0
    8.6502   -4.1650    8.1440 H   0  0  0  0  0  0  0  0  0  0  0  0
    6.4510   -3.2620    7.8267 H   0  0  0  0  0  0  0  0  0  0  0  0
    6.8550   -2.3317    9.1066 H   0  0  0  0  0  0  0  0  0  0  0  0
    4.8720    1.8313    2.3914 H   0  0  0  0  0  0  0  0  0  0  0  0
    4.7399    2.5017    3.8745 H   0  0  0  0  0  0  0  0  0  0  0  0
    3.6603    4.2182    2.9989 H   0  0  0  0  0  0  0  0  0  0  0  0
    3.7824    3.5424    1.5173 H   0  0  0  0  0  0  0  0  0  0  0  0
    2.0555    5.4344    1.4655 H   0  0  0  0  0  0  0  0  0  0  0  0
    0.6787    5.2169    2.3162 H   0  0  0  0  0  0  0  0  0  0  0  0
    0.0854    6.5831    0.5807 H   0  0  0  0  0  0  0  0  0  0  0  0
    0.9155    5.6853   -0.5017 H   0  0  0  0  0  0  0  0  0  0  0  0
  1  2  2  0  0  0  0
  2  3  1  0  0  0  0
  3  4  1  0  0  0  0
  4  5  2  0  0  0  0
  5  6  1  0  0  0  0
  6  7  1  0  0  0  0
  7  2  1  0  0  0  0
  7  8  2  0  0  0  0
  8  9  1  0  0  0  0
  9 10  2  0  0  0  0
 10 11  1  0  0  0  0
 11  6  2  0  0  0  0
  5 12  1  0  0  0  0
 12 13  2  0  0  0  0
 12 14  1  0  0  0  0
 14 15  1  0  0  0  0
 15 16  1  0  0  0  0
 16 17  1  0  0  0  0
 17 18  1  0  0  0  0
 18 19  1  0  0  0  0
 19 20  1  0  0  0  0
 20 21  1  0  0  0  0
 21 22  1  0  0  0  0
 22 23  1  0  0  0  0
 23 24  2  0  0  0  0
 24 25  1  0  0  0  0
 25 26  2  0  0  0  0
 26 27  1  0  0  0  0
 27 22  2  0  0  0  0
 25 28  1  0  0  0  0
 28 29  1  0  0  0  0
 29 30  1  0  0  0  0
 30 31  1  0  0  0  0
 31 28  1  0  0  0  0
 20 32  1  0  0  0  0
 32 33  1  0  0  0  0
 33 18  1  0  0  0  0
 17 34  1  0  0  0  0
 34 35  1  0  0  0  0
 35 14  1  0  0  0  0
 20 36  1  0  0  0  0
  3 37  1  0  0  0  0
  4 38  1  0  0  0  0
  8 39  1  0  0  0  0
  9 40  1  0  0  0  0
 10 41  1  0  0  0  0
 11 42  1  0  0  0  0
 15 43  1  0  0  0  0
 15 44  1  0  0  0  0
 16 45  1  0  0  0  0
 16 46  1  0  0  0  0
 17 47  1  0  0  0  0
 18 48  1  0  0  0  0
 19 49  1  0  0  0  0
 19 50  1  0  0  0  0
 21 51  1  0  0  0  0
 21 52  1  0  0  0  0
 23 53  1  0  0  0  0
 24 54  1  0  0  0  0
 26 55  1  0  0  0  0
 27 56  1  0  0  0  0
 28 57  1  0  0  0  0
 29 58  1  0  0  0  0
 29 59  1  0  0  0  0
 30 60  1  0  0  0  0
 30 61  1  0  0  0  0
 31 62  1  0  0  0  0
 31 63  1  0  0  0  0
 32 64  1  0  0  0  0
 32 65  1  0  0  0  0
 33 66  1  0  0  0  0
 33 67  1  0  0  0  0
 34 68  1  0  0  0  0
 34 69  1  0  0  0  0
 35 70  1  0  0  0  0
 35 71  1  0  0  0  0
M  CHG  1  20   1
M  END
>  <result-rank>
65

>  <similarity>
0.887

>  <query-name>


>  <query-smiles>
S1c2c(cccc2)C(C(=O)N3CCC([N@H+]4CC5(C(=O)N6N(C5=O)CCCC6)CCC4)CC3)=C1NC(=O)NC

>  <source>
REALspace_2019-12

>  <similarity-descriptor>
0.999;0.940;1.000;0.505;0.936;0.973;1.000;0.940;0.940;0.0;0.0;0.0

>  <similarity-descriptor-smiles>
N1CCCCC1;O=C1ccC=CN1;c1ccccc1;c1ccccc1;C1CC[NH+](C1)C;C1CCC1;C=O;O=C1ccC=CN1;O=C1ccC=CN1;;;

>  <reaction-name>
m_275030

>  <reagent1-name>
14114032

>  <reagent1-smiles>
[R2*]N1CC(C2CCN([R1*])CC2)CC1

>  <reagent2-name>
14125180

>  <reagent2-smiles>
[R1*]C(=O)C=1c2c(cccc2)C(=O)NC1

>  <reagent3-name>
14148322

>  <reagent3-smiles>
[R2*]Cc1ccc(cc1)C2CCC2

$$$$
s_527a____14937640____6464806
          04022017303D 1   1.00000     0.00000     0
            
 69 72  0  0  0  0            999 V2000
    8.0925    6.3906    7.1136 Cl  0  0  0  0  0  0  0  0  0  0  0  0
    9.1846    6.8980    5.8031 C   0  0  0  0  0  0  0  0  0  0  0  0
    8.7068    7.6953    4.7682 C   0  0  0  0  0  0  0  0  0  0  0  0
    7.4119    8.0785    4.7655 O   0  0  0  0  0  0  0  0  0  0  0  0
    6.4825    7.3119    4.1571 C   0  0  0  0  0  0  0  0  0  0  0  0
    6.8118    6.1637    3.5460 N   0  0  0  0  0  0  0  0  0  0  0  0
    5.8900    5.4003    2.9411 C   0  0  0  0  0  0  0  0  0  0  0  0
    4.5492    5.7732    2.9248 C   0  0  0  0  0  0  0  0  0  0  0  0
    4.1896    6.9605    3.5530 C   0  0  0  0  0  0  0  0  0  0  0  0
    5.1587    7.7396    4.1766 C   0  0  0  0  0  0  0  0  0  0  0  0
    3.5346    4.9643    2.2758 C   0  0  0  0  0  0  0  0  0  0  0  0
    2.8858    5.4233    1.3767 O   0  0  0  0  0  0  0  0  0  0  0  0
    3.3116    3.6426    2.7002 N   0  0  0  0  0  0  0  0  0  0  0  0
    2.2940    2.7937    2.0677 C   0  0  0  0  0  0  0  0  0  0  0  0
    1.7783    1.8689    3.1590 C   0  0  0  0  0  0  0  0  0  0  0  0
    2.8353    0.8496    3.5636 C   0  0  0  0  0  0  0  0  0  0  0  0
    2.8615   -0.3062    2.6552 N   0  3  0  0  0  0  0  0  0  0  0  0
    3.9197   -1.2016    3.1620 C   0  0  0  0  0  0  0  0  0  0  0  0
    3.9651   -2.5645    2.4786 C   0  0  0  0  0  0  0  0  0  0  0  0
    2.7176   -2.9259    1.7804 N   0  0  0  0  0  0  0  0  0  0  0  0
    2.7523   -3.8719    0.7475 C   0  0  0  0  0  0  0  0  0  0  0  0
    1.7416   -4.1716    0.1742 O   0  0  0  0  0  0  0  0  0  0  0  0
    3.8880   -4.4292    0.4075 O   0  0  0  0  0  0  0  0  0  0  0  0
    3.9232   -5.3879   -0.6393 C   0  0  0  0  0  0  0  0  0  0  0  0
    3.4269   -4.7506   -1.9270 C   0  0  0  0  0  0  0  0  0  0  0  0
    5.3499   -5.8753   -0.8323 C   0  0  0  0  0  0  0  0  0  0  0  0
    3.0303   -6.5642   -0.2793 C   0  0  0  0  0  0  0  0  0  0  0  0
    1.4243   -2.3302    2.1674 C   0  0  0  0  0  0  0  0  0  0  0  0
    1.5267   -0.9297    2.7665 C   0  0  0  0  0  0  0  0  0  0  0  0
    4.1904    1.5420    3.4863 C   0  0  0  0  0  0  0  0  0  0  0  0
    4.0757    3.0274    3.7965 C   0  0  0  0  0  0  0  0  0  0  0  0
    9.5532    8.0973    3.7403 C   0  0  0  0  0  0  0  0  0  0  0  0
   10.8847    7.6948    3.7549 C   0  0  0  0  0  0  0  0  0  0  0  0
   11.3587    6.8974    4.7914 C   0  0  0  0  0  0  0  0  0  0  0  0
   10.5154    6.4939    5.8211 C   0  0  0  0  0  0  0  0  0  0  0  0
    3.0494   -0.0217    1.7151 H   0  0  0  0  0  0  0  0  0  0  0  0
    6.1702    4.5503    2.4950 H   0  0  0  0  0  0  0  0  0  0  0  0
    3.2338    7.2545    3.5565 H   0  0  0  0  0  0  0  0  0  0  0  0
    4.9078    8.5939    4.6319 H   0  0  0  0  0  0  0  0  0  0  0  0
    2.6992    2.2613    1.3245 H   0  0  0  0  0  0  0  0  0  0  0  0
    1.5487    3.3550    1.7078 H   0  0  0  0  0  0  0  0  0  0  0  0
    1.5294    2.4153    3.9586 H   0  0  0  0  0  0  0  0  0  0  0  0
    0.9710    1.3849    2.8215 H   0  0  0  0  0  0  0  0  0  0  0  0
    2.6664    0.5405    4.4995 H   0  0  0  0  0  0  0  0  0  0  0  0
    3.7670   -1.3458    4.1397 H   0  0  0  0  0  0  0  0  0  0  0  0
    4.8027   -0.7525    3.0253 H   0  0  0  0  0  0  0  0  0  0  0  0
    4.7089   -2.5567    1.8102 H   0  0  0  0  0  0  0  0  0  0  0  0
    4.1491   -3.2591    3.1740 H   0  0  0  0  0  0  0  0  0  0  0  0
    3.4517   -5.4258   -2.6642 H   0  0  0  0  0  0  0  0  0  0  0  0
    2.4883   -4.4299   -1.8000 H   0  0  0  0  0  0  0  0  0  0  0  0
    4.0144   -3.9768   -2.1638 H   0  0  0  0  0  0  0  0  0  0  0  0
    5.3746   -6.5505   -1.5696 H   0  0  0  0  0  0  0  0  0  0  0  0
    5.9373   -5.1015   -1.0692 H   0  0  0  0  0  0  0  0  0  0  0  0
    5.6764   -6.2947    0.0148 H   0  0  0  0  0  0  0  0  0  0  0  0
    3.0550   -7.2393   -1.0166 H   0  0  0  0  0  0  0  0  0  0  0  0
    3.3567   -6.9835    0.5678 H   0  0  0  0  0  0  0  0  0  0  0  0
    2.0916   -6.2435   -0.1524 H   0  0  0  0  0  0  0  0  0  0  0  0
    0.9947   -2.9286    2.8437 H   0  0  0  0  0  0  0  0  0  0  0  0
    0.8472   -2.2799    1.3523 H   0  0  0  0  0  0  0  0  0  0  0  0
    0.8681   -0.3414    2.2972 H   0  0  0  0  0  0  0  0  0  0  0  0
    1.2900   -0.9878    3.7363 H   0  0  0  0  0  0  0  0  0  0  0  0
    4.5603    1.4302    2.5640 H   0  0  0  0  0  0  0  0  0  0  0  0
    4.8098    1.1188    4.1475 H   0  0  0  0  0  0  0  0  0  0  0  0
    3.5971    3.1603    4.6644 H   0  0  0  0  0  0  0  0  0  0  0  0
    4.9861    3.4373    3.8517 H   0  0  0  0  0  0  0  0  0  0  0  0
    9.2076    8.6705    2.9973 H   0  0  0  0  0  0  0  0  0  0  0  0
   11.5011    7.9787    3.0204 H   0  0  0  0  0  0  0  0  0  0  0  0
   12.3168    6.6111    4.7962 H   0  0  0  0  0  0  0  0  0  0  0  0
   10.8612    5.9210    6.5643 H   0  0  0  0  0  0  0  0  0  0  0  0
  1  2  1  0  0  0  0
  2  3  1  0  0  0  0
  3  4  1  0  0  0  0
  4  5  1  0  0  0  0
  5  6  1  0  0  0  0
  6  7  2  0  0  0  0
  7  8  1  0  0  0  0
  8  9  2  0  0  0  0
  9 10  1  0  0  0  0
 10  5  2  0  0  0  0
  8 11  1  0  0  0  0
 11 12  2  0  0  0  0
 11 13  1  0  0  0  0
 13 14  1  0  0  0  0
 14 15  1  0  0  0  0
 15 16  1  0  0  0  0
 16 17  1  0  0  0  0
 17 18  1  0  0  0  0
 18 19  1  0  0  0  0
 19 20  1  0  0  0  0
 20 21  1  0  0  0  0
 21 22  2  0  0  0  0
 21 23  1  0  0  0  0
 23 24  1  0  0  0  0
 24 25  1  0  0  0  0
 24 26  1  0  0  0  0
 24 27  1  0  0  0  0
 20 28  1  0  0  0  0
 28 29  1  0  0  0  0
 29 17  1  0  0  0  0
 16 30  1  0  0  0  0
 30 31  1  0  0  0  0
 31 13  1  0  0  0  0
  3 32  2  0  0  0  0
 32 33  1  0  0  0  0
 33 34  2  0  0  0  0
 34 35  1  0  0  0  0
 35  2  2  0  0  0  0
 17 36  1  0  0  0  0
  7 37  1  0  0  0  0
  9 38  1  0  0  0  0
 10 39  1  0  0  0  0
 14 40  1  0  0  0  0
 14 41  1  0  0  0  0
 15 42  1  0  0  0  0
 15 43  1  0  0  0  0
 16 44  1  0  0  0  0
 18 45  1  0  0  0  0
 18 46  1  0  0  0  0
 19 47  1  0  0  0  0
 19 48  1  0  0  0  0
 25 49  1  0  0  0  0
 25 50  1  0  0  0  0
 25 51  1  0  0  0  0
 26 52  1  0  0  0  0
 26 53  1  0  0  0  0
 26 54  1  0  0  0  0
 27 55  1  0  0  0  0
 27 56  1  0  0  0  0
 27 57  1  0  0  0  0
 28 58  1  0  0  0  0
 28 59  1  0  0  0  0
 29 60  1  0  0  0  0
 29 61  1  0  0  0  0
 30 62  1  0  0  0  0
 30 63  1  0  0  0  0
 31 64  1  0  0  0  0
 31 65  1  0  0  0  0
 32 66  1  0  0  0  0
 33 67  1  0  0  0  0
 34 68  1  0  0  0  0
 35 69  1  0  0  0  0
M  CHG  1  17   1
M  END
>  <result-rank>
66

>  <similarity>
0.887

>  <query-name>


>  <query-smiles>
S1c2c(cccc2)C(C(=O)N3CCC([N@H+]4CC5(C(=O)N6N(C5=O)CCCC6)CCC4)CC3)=C1NC(=O)NC

>  <source>
REALspace_2019-12

>  <similarity-descriptor>
1.000;0.822;0.940;0.708;0.995;0.795;0.999;0.822;0.822;0.0;0.0;0.0

>  <similarity-descriptor-smiles>
N1CCCCC1;c1ccccn1;Clc1ccccc1O;C(=O)O;[NH+]1CCNCC1;C(C)(C)C;C=O;c1ccccn1;c1ccccn1;;;

>  <reaction-name>
s_527a

>  <reagent1-name>
14937640

>  <reagent1-smiles>
[R1*]N1CCC(N2CCN(C(=O)OC(C)(C)C)CC2)CC1

>  <reagent2-name>
6464806

>  <reagent2-smiles>
[R1*]C(=O)c1cnc(Oc2c(Cl)cccc2)cc1

$$$$
m_275030____14114236____14125676____14147828
          04022017303D 1   1.00000     0.00000     0
            
 68 73  0  0  0  0            999 V2000
    7.9813    7.2693    4.4419 S   0  0  0  0  0  0  0  0  0  0  0  0
    6.9058    6.5561    3.3373 C   0  0  0  0  0  0  0  0  0  0  0  0
    7.3486    6.7427    2.1066 N   0  0  0  0  0  0  0  0  0  0  0  0
    8.5228    7.4584    2.0422 C   0  0  0  0  0  0  0  0  0  0  0  0
    9.0268    7.8373    3.2254 C   0  0  0  0  0  0  0  0  0  0  0  0
   10.3042    8.6454    3.1623 C   0  0  0  0  0  0  0  0  0  0  0  0
   10.8136    8.1497    1.8267 C   0  0  0  0  0  0  0  0  0  0  0  0
    9.5163    8.0350    1.0553 C   0  0  0  0  0  0  0  0  0  0  0  0
    5.7478    5.8938    3.7694 N   0  0  0  0  0  0  0  0  0  0  0  0
    4.8999    5.3287    2.8537 C   0  0  0  0  0  0  0  0  0  0  0  0
    5.1481    5.4004    1.6818 O   0  0  0  0  0  0  0  0  0  0  0  0
    3.6447    4.6107    3.3220 C   0  0  0  0  0  0  0  0  0  0  0  0
    3.4428    3.3978    2.5136 N   0  3  3  0  0  0  0  0  0  0  0  0
    2.0245    3.0381    2.5894 C   0  0  0  0  0  0  0  0  0  0  0  0
    2.0335    1.5304    2.5408 C   0  0  3  0  0  0  0  0  0  0  0  0
    0.7409    0.9516    3.0884 C   0  0  3  0  0  0  0  0  0  0  0  0
    0.4828    1.4435    4.5036 C   0  0  0  0  0  0  0  0  0  0  0  0
   -0.6959    0.7465    5.0370 N   0  0  0  0  0  0  0  0  0  0  0  0
   -0.8437    0.5085    6.4149 C   0  0  0  0  0  0  0  0  0  0  0  0
    0.0026    0.8770    7.1816 O   0  0  0  0  0  0  0  0  0  0  0  0
   -2.0184   -0.1820    6.9091 C   0  0  0  0  0  0  0  0  0  0  0  0
   -2.2809   -1.4556    6.4756 N   0  0  0  0  0  0  0  0  0  0  0  0
   -3.3813   -2.1391    6.9218 C   0  0  0  0  0  0  0  0  0  0  0  0
   -3.5639   -3.2708    6.4999 O   0  0  0  0  0  0  0  0  0  0  0  0
   -4.2641   -1.5173    7.8496 C   0  0  0  0  0  0  0  0  0  0  0  0
   -3.9893   -0.2246    8.2830 C   0  0  0  0  0  0  0  0  0  0  0  0
   -4.8240    0.4231    9.1881 C   0  0  0  0  0  0  0  0  0  0  0  0
   -5.9510   -0.2374    9.6656 C   0  0  0  0  0  0  0  0  0  0  0  0
   -6.2519   -1.5305    9.2511 C   0  0  0  0  0  0  0  0  0  0  0  0
   -5.3999   -2.1525    8.3454 C   0  0  0  0  0  0  0  0  0  0  0  0
   -2.8398    0.4568    7.8010 C   0  0  0  0  0  0  0  0  0  0  0  0
   -1.7038    0.3182    4.0562 C   0  0  0  0  0  0  0  0  0  0  0  0
   -1.7492    1.3034    2.8986 C   0  0  0  0  0  0  0  0  0  0  0  0
   -0.3994    1.4375    2.2094 C   0  0  0  0  0  0  0  0  0  0  0  0
    3.1885    1.2612    3.4826 C   0  0  0  0  0  0  0  0  0  0  0  0
    4.2286    2.2670    3.0210 C   0  0  0  0  0  0  0  0  0  0  0  0
    3.6928    3.5817    1.5630 H   0  0  0  0  0  0  0  0  0  0  0  0
   10.9289    8.4225    3.9107 H   0  0  0  0  0  0  0  0  0  0  0  0
   10.1280    9.6297    3.1572 H   0  0  0  0  0  0  0  0  0  0  0  0
   11.2707    7.2645    1.9124 H   0  0  0  0  0  0  0  0  0  0  0  0
   11.4369    8.8071    1.4033 H   0  0  0  0  0  0  0  0  0  0  0  0
    9.2151    8.9343    0.7384 H   0  0  0  0  0  0  0  0  0  0  0  0
    9.6267    7.4248    0.2708 H   0  0  0  0  0  0  0  0  0  0  0  0
    5.5410    5.8340    4.7459 H   0  0  0  0  0  0  0  0  0  0  0  0
    3.7451    4.3572    4.2841 H   0  0  0  0  0  0  0  0  0  0  0  0
    2.8557    5.2162    3.2175 H   0  0  0  0  0  0  0  0  0  0  0  0
    1.5189    3.4166    1.8141 H   0  0  0  0  0  0  0  0  0  0  0  0
    1.6191    3.3647    3.4432 H   0  0  0  0  0  0  0  0  0  0  0  0
    2.2252    1.1938    1.6189 H   0  0  0  0  0  0  0  0  0  0  0  0
    0.7810   -0.0475    3.0755 H   0  0  0  0  0  0  0  0  0  0  0  0
    1.2777    1.2483    5.0780 H   0  0  0  0  0  0  0  0  0  0  0  0
    0.3141    2.4291    4.4918 H   0  0  0  0  0  0  0  0  0  0  0  0
   -1.6603   -1.8922    5.8243 H   0  0  0  0  0  0  0  0  0  0  0  0
   -4.6160    1.3528    9.4919 H   0  0  0  0  0  0  0  0  0  0  0  0
   -6.5538    0.2242   10.3164 H   0  0  0  0  0  0  0  0  0  0  0  0
   -7.0630   -2.0023    9.5968 H   0  0  0  0  0  0  0  0  0  0  0  0
   -5.6085   -3.0821    8.0416 H   0  0  0  0  0  0  0  0  0  0  0  0
   -2.6335    1.3862    8.1071 H   0  0  0  0  0  0  0  0  0  0  0  0
   -2.6009    0.2822    4.4965 H   0  0  0  0  0  0  0  0  0  0  0  0
   -1.4656   -0.5893    3.7103 H   0  0  0  0  0  0  0  0  0  0  0  0
   -2.0235    2.1993    3.2480 H   0  0  0  0  0  0  0  0  0  0  0  0
   -2.4223    0.9857    2.2307 H   0  0  0  0  0  0  0  0  0  0  0  0
   -0.4115    0.8967    1.3684 H   0  0  0  0  0  0  0  0  0  0  0  0
   -0.2461    2.3998    1.9847 H   0  0  0  0  0  0  0  0  0  0  0  0
    3.5235    0.3240    3.3852 H   0  0  0  0  0  0  0  0  0  0  0  0
    2.9252    1.4239    4.4335 H   0  0  0  0  0  0  0  0  0  0  0  0
    4.8078    2.5528    3.7845 H   0  0  0  0  0  0  0  0  0  0  0  0
    4.7990    1.8792    2.2969 H   0  0  0  0  0  0  0  0  0  0  0  0
  1  2  1  0  0  0  0
  2  3  2  0  0  0  0
  3  4  1  0  0  0  0
  4  5  2  0  0  0  0
  5  1  1  0  0  0  0
  5  6  1  0  0  0  0
  6  7  1  0  0  0  0
  7  8  1  0  0  0  0
  8  4  1  0  0  0  0
  2  9  1  0  0  0  0
  9 10  1  0  0  0  0
 10 11  2  0  0  0  0
 10 12  1  0  0  0  0
 12 13  1  0  0  0  0
 13 14  1  0  0  0  0
 14 15  1  0  0  0  0
 15 16  1  0  0  0  0
 16 17  1  0  0  0  0
 17 18  1  0  0  0  0
 18 19  1  0  0  0  0
 19 20  2  0  0  0  0
 19 21  1  0  0  0  0
 21 22  1  0  0  0  0
 22 23  1  0  0  0  0
 23 24  2  0  0  0  0
 23 25  1  0  0  0  0
 25 26  1  0  0  0  0
 26 27  2  0  0  0  0
 27 28  1  0  0  0  0
 28 29  2  0  0  0  0
 29 30  1  0  0  0  0
 30 25  2  0  0  0  0
 26 31  1  0  0  0  0
 21 31  2  0  0  0  0
 18 32  1  0  0  0  0
 32 33  1  0  0  0  0
 33 34  1  0  0  0  0
 34 16  1  0  0  0  0
 15 35  1  0  0  0  0
 35 36  1  0  0  0  0
 36 13  1  0  0  0  0
 13 37  1  0  0  0  0
  6 38  1  0  0  0  0
  6 39  1  0  0  0  0
  7 40  1  0  0  0  0
  7 41  1  0  0  0  0
  8 42  1  0  0  0  0
  8 43  1  0  0  0  0
  9 44  1  0  0  0  0
 12 45  1  0  0  0  0
 12 46  1  0  0  0  0
 14 47  1  0  0  0  0
 14 48  1  0  0  0  0
 15 49  1  0  0  0  0
 16 50  1  0  0  0  0
 17 51  1  0  0  0  0
 17 52  1  0  0  0  0
 22 53  1  0  0  0  0
 27 54  1  0  0  0  0
 28 55  1  0  0  0  0
 29 56  1  0  0  0  0
 30 57  1  0  0  0  0
 31 58  1  0  0  0  0
 32 59  1  0  0  0  0
 32 60  1  0  0  0  0
 33 61  1  0  0  0  0
 33 62  1  0  0  0  0
 34 63  1  0  0  0  0
 34 64  1  0  0  0  0
 35 65  1  0  0  0  0
 35 66  1  0  0  0  0
 36 67  1  0  0  0  0
 36 68  1  0  0  0  0
M  CHG  1  13   1
M  END
>  <result-rank>
67

>  <similarity>
0.887

>  <query-name>


>  <query-smiles>
S1c2c(cccc2)C(C(=O)N3CCC([N@H+]4CC5(C(=O)N6N(C5=O)CCCC6)CCC4)CC3)=C1NC(=O)NC

>  <source>
REALspace_2019-12

>  <similarity-descriptor>
0.999;0.940;1.000;0.706;0.936;0.731;1.000;0.940;0.940;0.0;0.0;0.0

>  <similarity-descriptor-smiles>
C1CCCNC1;C1=CccC(N1)=O;c1ccccc1;S1C=CN=C1NC=O;C[NH+]1CCCC1;C=1CCCC1;C=O;C1=CccC(N1)=O;C1=CccC(N1)=O;;;

>  <reaction-name>
m_275030

>  <reagent1-name>
14114236

>  <reagent1-smiles>
[R2*]N1CC(C2CN([R1*])CCC2)CC1

>  <reagent2-name>
14125676

>  <reagent2-smiles>
[R1*]C(=O)C=1NC(=O)c2c(cccc2)C1

>  <reagent3-name>
14147828

>  <reagent3-smiles>
[R2*]CC(=O)NC=1SC2=C(N1)CCC2

$$$$
m_275030____14114032____14126114____14146258
          04022017303D 1   1.00000     0.00000     0
            
 74 77  0  0  0  0            999 V2000
   10.6918   -3.9662    3.7065 O   0  0  0  0  0  0  0  0  0  0  0  0
   10.7327   -3.9157    2.5083 C   0  0  0  0  0  0  0  0  0  0  0  0
    9.6310   -3.4235    1.7876 N   0  0  0  0  0  0  0  0  0  0  0  0
    8.4104   -2.9609    2.4615 C   0  0  0  0  0  0  0  0  0  0  0  0
    7.2524   -3.2233    1.5109 C   0  0  0  0  0  0  0  0  0  0  0  0
    7.3349   -2.3380    0.2756 C   0  0  0  0  0  0  0  0  0  0  0  0
    6.7039   -0.9756    0.5188 C   0  0  3  0  0  0  0  0  0  0  0  0
    5.3744   -1.1106    1.2422 C   0  0  0  0  0  0  0  0  0  0  0  0
    4.5570   -0.0333    0.6680 N   0  3  3  0  0  0  0  0  0  0  0  0
    3.1300   -0.3113    0.8853 C   0  0  0  0  0  0  0  0  0  0  0  0
    2.3700    1.0000    1.0000 C   0  0  0  0  0  0  0  0  0  0  0  0
    2.9700    2.0353    1.0906 O   0  0  0  0  0  0  0  0  0  0  0  0
    1.0000    1.0000    1.0000 N   0  0  0  0  0  0  0  0  0  0  0  0
    0.2650    2.2731    1.0000 C   0  0  0  0  0  0  0  0  0  0  0  0
   -1.2294    1.9953    1.0000 C   0  0  0  0  0  0  0  0  0  0  0  0
   -1.9894    3.3117    1.0000 C   0  0  0  0  0  0  0  0  0  0  0  0
   -3.3855    3.0522    1.0000 O   0  0  0  0  0  0  0  0  0  0  0  0
   -4.0955    4.2819    1.0000 C   0  0  0  0  0  0  0  0  0  0  0  0
   -3.7283    5.0790   -0.2411 C   0  0  0  0  0  0  0  0  0  0  0  0
   -5.5899    4.0042    1.0000 C   0  0  0  0  0  0  0  0  0  0  0  0
    4.8824   -0.1440   -0.7534 C   0  0  0  0  0  0  0  0  0  0  0  0
    6.3953   -0.2404   -0.7717 C   0  0  0  0  0  0  0  0  0  0  0  0
    8.8057   -2.1244   -0.0488 C   0  0  0  0  0  0  0  0  0  0  0  0
    9.6410   -3.3422    0.3228 C   0  0  0  0  0  0  0  0  0  0  0  0
   11.9167   -4.3618    1.8051 C   0  0  0  0  0  0  0  0  0  0  0  0
   11.8417   -5.3878    0.8989 N   0  0  0  0  0  0  0  0  0  0  0  0
   12.9531   -5.8234    0.2252 C   0  0  0  0  0  0  0  0  0  0  0  0
   14.1862   -5.2198    0.4561 C   0  0  0  0  0  0  0  0  0  0  0  0
   15.3017   -5.6785   -0.2400 C   0  0  0  0  0  0  0  0  0  0  0  0
   15.2129   -6.7200   -1.1565 C   0  0  0  0  0  0  0  0  0  0  0  0
   13.9725   -7.3092   -1.3740 C   0  0  0  0  0  0  0  0  0  0  0  0
   12.8459   -6.8664   -0.6894 C   0  0  0  0  0  0  0  0  0  0  0  0
   14.2692   -4.1542    1.3960 C   0  0  0  0  0  0  0  0  0  0  0  0
   15.3189   -3.5813    1.6473 O   0  0  0  0  0  0  0  0  0  0  0  0
   13.0995   -3.7265    2.0779 C   0  0  0  0  0  0  0  0  0  0  0  0
    4.8168    0.8598    1.0353 H   0  0  0  0  0  0  0  0  0  0  0  0
    8.4772   -1.9830    2.6602 H   0  0  0  0  0  0  0  0  0  0  0  0
    8.2762   -3.4658    3.3142 H   0  0  0  0  0  0  0  0  0  0  0  0
    7.2762   -4.1816    1.2263 H   0  0  0  0  0  0  0  0  0  0  0  0
    6.3927   -3.0381    1.9868 H   0  0  0  0  0  0  0  0  0  0  0  0
    6.8812   -2.7881   -0.4935 H   0  0  0  0  0  0  0  0  0  0  0  0
    7.3244   -0.4205    1.0727 H   0  0  0  0  0  0  0  0  0  0  0  0
    4.9615   -2.0043    1.0664 H   0  0  0  0  0  0  0  0  0  0  0  0
    5.4897   -0.9847    2.2275 H   0  0  0  0  0  0  0  0  0  0  0  0
    3.0174   -0.8368    1.7286 H   0  0  0  0  0  0  0  0  0  0  0  0
    2.7718   -0.8378    0.1142 H   0  0  0  0  0  0  0  0  0  0  0  0
    0.5000    0.1340    1.0000 H   0  0  0  0  0  0  0  0  0  0  0  0
    0.5066    2.7974    0.1835 H   0  0  0  0  0  0  0  0  0  0  0  0
    0.5066    2.7974    1.8165 H   0  0  0  0  0  0  0  0  0  0  0  0
   -1.4710    1.4709    0.1835 H   0  0  0  0  0  0  0  0  0  0  0  0
   -1.4710    1.4709    1.8165 H   0  0  0  0  0  0  0  0  0  0  0  0
   -1.7478    3.8360    1.8165 H   0  0  0  0  0  0  0  0  0  0  0  0
   -1.7478    3.8360    0.1835 H   0  0  0  0  0  0  0  0  0  0  0  0
   -3.8539    4.8063    1.8165 H   0  0  0  0  0  0  0  0  0  0  0  0
   -4.2283    5.9450   -0.2411 H   0  0  0  0  0  0  0  0  0  0  0  0
   -2.7451    5.2617   -0.2411 H   0  0  0  0  0  0  0  0  0  0  0  0
   -3.9699    4.5546   -1.0576 H   0  0  0  0  0  0  0  0  0  0  0  0
   -6.0899    4.8702    1.0000 H   0  0  0  0  0  0  0  0  0  0  0  0
   -5.8315    3.4798    0.1835 H   0  0  0  0  0  0  0  0  0  0  0  0
   -5.8315    3.4798    1.8165 H   0  0  0  0  0  0  0  0  0  0  0  0
    4.5709    0.6636   -1.2542 H   0  0  0  0  0  0  0  0  0  0  0  0
    4.4685   -0.9629   -1.1509 H   0  0  0  0  0  0  0  0  0  0  0  0
    6.7132   -0.7585   -1.5658 H   0  0  0  0  0  0  0  0  0  0  0  0
    6.8136    0.6679   -0.7772 H   0  0  0  0  0  0  0  0  0  0  0  0
    9.1398   -1.3327    0.4627 H   0  0  0  0  0  0  0  0  0  0  0  0
    8.9007   -1.9520   -1.0293 H   0  0  0  0  0  0  0  0  0  0  0  0
    9.2405   -4.1692   -0.0718 H   0  0  0  0  0  0  0  0  0  0  0  0
   10.5775   -3.2336   -0.0107 H   0  0  0  0  0  0  0  0  0  0  0  0
   10.9598   -5.8265    0.7261 H   0  0  0  0  0  0  0  0  0  0  0  0
   16.1893   -5.2479   -0.0763 H   0  0  0  0  0  0  0  0  0  0  0  0
   16.0232   -7.0383   -1.6485 H   0  0  0  0  0  0  0  0  0  0  0  0
   13.8895   -8.0596   -2.0298 H   0  0  0  0  0  0  0  0  0  0  0  0
   11.9588   -7.2975   -0.8545 H   0  0  0  0  0  0  0  0  0  0  0  0
   13.1381   -2.9794    2.7415 H   0  0  0  0  0  0  0  0  0  0  0  0
  1  2  2  0  0  0  0
  2  3  1  0  0  0  0
  3  4  1  0  0  0  0
  4  5  1  0  0  0  0
  5  6  1  0  0  0  0
  6  7  1  0  0  0  0
  7  8  1  0  0  0  0
  8  9  1  0  0  0  0
  9 10  1  0  0  0  0
 10 11  1  0  0  0  0
 11 12  2  0  0  0  0
 11 13  1  0  0  0  0
 13 14  1  0  0  0  0
 14 15  1  0  0  0  0
 15 16  1  0  0  0  0
 16 17  1  0  0  0  0
 17 18  1  0  0  0  0
 18 19  1  0  0  0  0
 18 20  1  0  0  0  0
  9 21  1  0  0  0  0
 21 22  1  0  0  0  0
 22  7  1  0  0  0  0
  6 23  1  0  0  0  0
 23 24  1  0  0  0  0
 24  3  1  0  0  0  0
  2 25  1  0  0  0  0
 25 26  1  0  0  0  0
 26 27  1  0  0  0  0
 27 28  1  0  0  0  0
 28 29  2  0  0  0  0
 29 30  1  0  0  0  0
 30 31  2  0  0  0  0
 31 32  1  0  0  0  0
 32 27  2  0  0  0  0
 28 33  1  0  0  0  0
 33 34  2  0  0  0  0
 33 35  1  0  0  0  0
 25 35  2  0  0  0  0
  9 36  1  0  0  0  0
  4 37  1  0  0  0  0
  4 38  1  0  0  0  0
  5 39  1  0  0  0  0
  5 40  1  0  0  0  0
  6 41  1  0  0  0  0
  7 42  1  0  0  0  0
  8 43  1  0  0  0  0
  8 44  1  0  0  0  0
 10 45  1  0  0  0  0
 10 46  1  0  0  0  0
 13 47  1  0  0  0  0
 14 48  1  0  0  0  0
 14 49  1  0  0  0  0
 15 50  1  0  0  0  0
 15 51  1  0  0  0  0
 16 52  1  0  0  0  0
 16 53  1  0  0  0  0
 18 54  1  0  0  0  0
 19 55  1  0  0  0  0
 19 56  1  0  0  0  0
 19 57  1  0  0  0  0
 20 58  1  0  0  0  0
 20 59  1  0  0  0  0
 20 60  1  0  0  0  0
 21 61  1  0  0  0  0
 21 62  1  0  0  0  0
 22 63  1  0  0  0  0
 22 64  1  0  0  0  0
 23 65  1  0  0  0  0
 23 66  1  0  0  0  0
 24 67  1  0  0  0  0
 24 68  1  0  0  0  0
 26 69  1  0  0  0  0
 29 70  1  0  0  0  0
 30 71  1  0  0  0  0
 31 72  1  0  0  0  0
 32 73  1  0  0  0  0
 35 74  1  0  0  0  0
M  CHG  1   9   1
M  END
>  <result-rank>
68

>  <similarity>
0.887

>  <query-name>


>  <query-smiles>
S1c2c(cccc2)C(C(=O)N3CCC([N@H+]4CC5(C(=O)N6N(C5=O)CCCC6)CCC4)CC3)=C1NC(=O)NC

>  <source>
REALspace_2019-12

>  <similarity-descriptor>
0.999;0.935;0.999;0.668;0.936;0.778;1.000;0.935;0.935;0.0;0.0;0.0

>  <similarity-descriptor-smiles>
N1CCCCC1;C1=CC(ccN1)=O;c1ccccc1;C(=O)NCCCO;C1CC[NH+](C1)C;C(C)C;O=C;C1=CC(ccN1)=O;C1=CC(ccN1)=O;;;

>  <reaction-name>
m_275030

>  <reagent1-name>
14114032

>  <reagent1-smiles>
[R2*]N1CC(C2CCN([R1*])CC2)CC1

>  <reagent2-name>
14126114

>  <reagent2-smiles>
[R1*]C(=O)C=1Nc2c(cccc2)C(=O)C1

>  <reagent3-name>
14146258

>  <reagent3-smiles>
[R2*]CC(=O)NCCCOC(C)C

$$$$
m_274310____14113098____14116038____15869724
          04022017303D 1   1.00000     0.00000     0
            
 76 81  0  0  0  0            999 V2000
   -2.8380    3.5540    1.2222 O   0  0  0  0  0  0  0  0  0  0  0  0
   -2.2763    3.4934    0.1635 C   0  0  0  0  0  0  0  0  0  0  0  0
   -0.9050    3.2204    0.1136 N   0  0  0  0  0  0  0  0  0  0  0  0
   -0.1761    3.0117    1.3759 C   0  0  0  0  0  0  0  0  0  0  0  0
    1.2615    3.5063    1.2973 C   0  0  3  0  0  0  0  0  0  0  0  0
    2.0041    3.0054    2.5252 C   0  0  3  0  0  0  0  0  0  0  0  0
    2.0058    1.4971    2.5989 C   0  0  0  0  0  0  0  0  0  0  0  0
    3.2132    1.2251    3.3828 N   0  0  0  0  0  0  0  0  0  0  0  0
    3.3556    0.1807    4.3171 C   0  0  0  0  0  0  0  0  0  0  0  0
    2.3503   -0.6774    4.5663 N   0  0  0  0  0  0  0  0  0  0  0  0
    2.4471   -1.6867    5.4512 C   0  0  0  0  0  0  0  0  0  0  0  0
    1.4153   -2.5414    5.6830 O   0  0  0  0  0  0  0  0  0  0  0  0
    1.5623   -3.5927    6.6262 C   0  0  0  0  0  0  0  0  0  0  0  0
    3.6179   -1.8184    6.1009 N   0  0  0  0  0  0  0  0  0  0  0  0
    4.6632   -0.9957    5.8991 C   0  0  0  0  0  0  0  0  0  0  0  0
    4.4981   -0.0072    5.0013 N   0  0  0  0  0  0  0  0  0  0  0  0
    5.8680   -1.1581    6.5935 N   0  0  0  0  0  0  0  0  0  0  0  0
    6.9707   -0.2196    6.3217 C   0  0  0  0  0  0  0  0  0  0  0  0
    6.9694    0.9804    7.2622 C   0  0  0  0  0  0  0  0  0  0  0  0
    7.3794    0.6415    8.6928 C   0  0  0  0  0  0  0  0  0  0  0  0
    6.5774   -0.4813    9.3387 C   0  0  0  0  0  0  0  0  0  0  0  0
    6.8727   -1.8624    8.7600 C   0  0  0  0  0  0  0  0  0  0  0  0
    5.9961   -2.2484    7.5746 C   0  0  0  0  0  0  0  0  0  0  0  0
    4.2383    2.2188    3.0463 C   0  0  0  0  0  0  0  0  0  0  0  0
    3.4674    3.3882    2.4540 C   0  0  0  0  0  0  0  0  0  0  0  0
    1.9602    3.0494    0.0245 C   0  0  0  0  0  0  0  0  0  0  0  0
    1.1909    3.6415   -1.1490 C   0  0  0  0  0  0  0  0  0  0  0  0
   -0.2518    3.1578   -1.2046 C   0  0  0  0  0  0  0  0  0  0  0  0
   -3.0186    3.7030   -1.0636 C   0  0  0  0  0  0  0  0  0  0  0  0
   -2.6595    4.7288   -1.8990 N   0  0  0  0  0  0  0  0  0  0  0  0
   -3.3377    4.9565   -3.0675 C   0  0  0  0  0  0  0  0  0  0  0  0
   -2.9725    5.8858   -3.7712 O   0  0  0  0  0  0  0  0  0  0  0  0
   -4.4306    4.1147   -3.4190 C   0  0  0  0  0  0  0  0  0  0  0  0
   -4.7875    3.0768   -2.5646 C   0  0  0  0  0  0  0  0  0  0  0  0
   -5.8489    2.2296   -2.8665 C   0  0  0  0  0  0  0  0  0  0  0  0
   -6.5620    2.4271   -4.0441 C   0  0  0  0  0  0  0  0  0  0  0  0
   -6.2286    3.4559   -4.9186 C   0  0  0  0  0  0  0  0  0  0  0  0
   -5.1635    4.2872   -4.5905 C   0  0  0  0  0  0  0  0  0  0  0  0
   -4.0638    2.8676   -1.3602 C   0  0  0  0  0  0  0  0  0  0  0  0
   -0.1695    2.0341    1.5863 H   0  0  0  0  0  0  0  0  0  0  0  0
   -0.6477    3.5065    2.1058 H   0  0  0  0  0  0  0  0  0  0  0  0
    1.2553    4.5061    1.3153 H   0  0  0  0  0  0  0  0  0  0  0  0
    1.5917    3.3869    3.3525 H   0  0  0  0  0  0  0  0  0  0  0  0
    1.1881    1.1561    3.0629 H   0  0  0  0  0  0  0  0  0  0  0  0
    2.0661    1.0899    1.6876 H   0  0  0  0  0  0  0  0  0  0  0  0
    0.7144   -4.1209    6.6715 H   0  0  0  0  0  0  0  0  0  0  0  0
    2.3128   -4.1906    6.3446 H   0  0  0  0  0  0  0  0  0  0  0  0
    1.7634   -3.2069    7.5266 H   0  0  0  0  0  0  0  0  0  0  0  0
    6.8850    0.1108    5.3818 H   0  0  0  0  0  0  0  0  0  0  0  0
    7.8379   -0.7065    6.4261 H   0  0  0  0  0  0  0  0  0  0  0  0
    6.0465    1.3650    7.2813 H   0  0  0  0  0  0  0  0  0  0  0  0
    7.6073    1.6622    6.9044 H   0  0  0  0  0  0  0  0  0  0  0  0
    7.2688    1.4637    9.2511 H   0  0  0  0  0  0  0  0  0  0  0  0
    8.3421    0.3711    8.6847 H   0  0  0  0  0  0  0  0  0  0  0  0
    6.7885   -0.4975   10.3160 H   0  0  0  0  0  0  0  0  0  0  0  0
    5.6047   -0.2875    9.2110 H   0  0  0  0  0  0  0  0  0  0  0  0
    7.8271   -1.8791    8.4618 H   0  0  0  0  0  0  0  0  0  0  0  0
    6.7374   -2.5399    9.4828 H   0  0  0  0  0  0  0  0  0  0  0  0
    6.4005   -3.0426    7.1212 H   0  0  0  0  0  0  0  0  0  0  0  0
    5.0852   -2.4853    7.9123 H   0  0  0  0  0  0  0  0  0  0  0  0
    4.8829    1.8474    2.3780 H   0  0  0  0  0  0  0  0  0  0  0  0
    4.7351    2.5037    3.8660 H   0  0  0  0  0  0  0  0  0  0  0  0
    3.6350    4.2190    2.9848 H   0  0  0  0  0  0  0  0  0  0  0  0
    3.7409    3.5387    1.5040 H   0  0  0  0  0  0  0  0  0  0  0  0
    1.9537    2.0509   -0.0304 H   0  0  0  0  0  0  0  0  0  0  0  0
    2.9048    3.3775    0.0155 H   0  0  0  0  0  0  0  0  0  0  0  0
    1.1919    4.6378   -1.0631 H   0  0  0  0  0  0  0  0  0  0  0  0
    1.6497    3.3796   -1.9981 H   0  0  0  0  0  0  0  0  0  0  0  0
   -0.7609    3.7330   -1.8449 H   0  0  0  0  0  0  0  0  0  0  0  0
   -0.2629    2.2109   -1.5259 H   0  0  0  0  0  0  0  0  0  0  0  0
   -1.8914    5.3196   -1.6519 H   0  0  0  0  0  0  0  0  0  0  0  0
   -6.0962    1.4872   -2.2439 H   0  0  0  0  0  0  0  0  0  0  0  0
   -7.3257    1.8205   -4.2652 H   0  0  0  0  0  0  0  0  0  0  0  0
   -6.7435    3.5946   -5.7646 H   0  0  0  0  0  0  0  0  0  0  0  0
   -4.9168    5.0297   -5.2132 H   0  0  0  0  0  0  0  0  0  0  0  0
   -4.3126    2.1239   -0.7398 H   0  0  0  0  0  0  0  0  0  0  0  0
  1  2  2  0  0  0  0
  2  3  1  0  0  0  0
  3  4  1  0  0  0  0
  4  5  1  0  0  0  0
  5  6  1  0  0  0  0
  6  7  1  0  0  0  0
  7  8  1  0  0  0  0
  8  9  1  0  0  0  0
  9 10  1  0  0  0  0
 10 11  2  0  0  0  0
 11 12  1  0  0  0  0
 12 13  1  0  0  0  0
 11 14  1  0  0  0  0
 14 15  2  0  0  0  0
 15 16  1  0  0  0  0
 16  9  2  0  0  0  0
 15 17  1  0  0  0  0
 17 18  1  0  0  0  0
 18 19  1  0  0  0  0
 19 20  1  0  0  0  0
 20 21  1  0  0  0  0
 21 22  1  0  0  0  0
 22 23  1  0  0  0  0
 23 17  1  0  0  0  0
  8 24  1  0  0  0  0
 24 25  1  0  0  0  0
 25  6  1  0  0  0  0
  5 26  1  0  0  0  0
 26 27  1  0  0  0  0
 27 28  1  0  0  0  0
 28  3  1  0  0  0  0
  2 29  1  0  0  0  0
 29 30  1  0  0  0  0
 30 31  1  0  0  0  0
 31 32  2  0  0  0  0
 31 33  1  0  0  0  0
 33 34  1  0  0  0  0
 34 35  2  0  0  0  0
 35 36  1  0  0  0  0
 36 37  2  0  0  0  0
 37 38  1  0  0  0  0
 38 33  2  0  0  0  0
 34 39  1  0  0  0  0
 29 39  2  0  0  0  0
  4 40  1  0  0  0  0
  4 41  1  0  0  0  0
  5 42  1  0  0  0  0
  6 43  1  0  0  0  0
  7 44  1  0  0  0  0
  7 45  1  0  0  0  0
 13 46  1  0  0  0  0
 13 47  1  0  0  0  0
 13 48  1  0  0  0  0
 18 49  1  0  0  0  0
 18 50  1  0  0  0  0
 19 51  1  0  0  0  0
 19 52  1  0  0  0  0
 20 53  1  0  0  0  0
 20 54  1  0  0  0  0
 21 55  1  0  0  0  0
 21 56  1  0  0  0  0
 22 57  1  0  0  0  0
 22 58  1  0  0  0  0
 23 59  1  0  0  0  0
 23 60  1  0  0  0  0
 24 61  1  0  0  0  0
 24 62  1  0  0  0  0
 25 63  1  0  0  0  0
 25 64  1  0  0  0  0
 26 65  1  0  0  0  0
 26 66  1  0  0  0  0
 27 67  1  0  0  0  0
 27 68  1  0  0  0  0
 28 69  1  0  0  0  0
 28 70  1  0  0  0  0
 30 71  1  0  0  0  0
 35 72  1  0  0  0  0
 36 73  1  0  0  0  0
 37 74  1  0  0  0  0
 38 75  1  0  0  0  0
 39 76  1  0  0  0  0
M  END
>  <result-rank>
69

>  <similarity>
0.886

>  <query-name>


>  <query-smiles>
S1c2c(cccc2)C(C(=O)N3CCC([N@H+]4CC5(C(=O)N6N(C5=O)CCCC6)CCC4)CC3)=C1NC(=O)NC

>  <source>
REALspace_2019-12

>  <similarity-descriptor>
0.999;0.940;1.000;0.820;0.791;0.804;1.000;0.940;0.940;0.0;0.0;0.111

>  <similarity-descriptor-smiles>
N1CCCCC1;C1=CccC(N1)=O;c1ccccc1;c1ncnc(n1)O;C1CCNC1;N1CCCCCC1;O=C;C1=CccC(N1)=O;C1=CccC(N1)=O;;;C

>  <reaction-name>
m_274310

>  <reagent1-name>
14113098

>  <reagent1-smiles>
[R2*]N1CC(C2CN([R1*])CCC2)CC1

>  <reagent2-name>
14116038

>  <reagent2-smiles>
[R1*]C(=O)C=1NC(=O)c2c(cccc2)C1

>  <reagent3-name>
15869724

>  <reagent3-smiles>
[R2*]c1nc(OC)nc(n1)N2CCCCCC2

$$$$
s_27c____14937634____575184
          04022017303D 1   1.00000     0.00000     0
            
 66 69  0  0  0  0            999 V2000
    1.2913   -0.5676    4.2455 O   0  0  0  0  0  0  0  0  0  0  0  0
    2.3665   -0.0710    4.4388 C   0  0  0  0  0  0  0  0  0  0  0  0
    3.1762   -0.5880    5.3294 O   0  0  0  0  0  0  0  0  0  0  0  0
    2.7816   -1.7361    6.0660 C   0  0  0  0  0  0  0  0  0  0  0  0
    1.5202   -1.4234    6.8543 C   0  0  0  0  0  0  0  0  0  0  0  0
    2.5087   -2.8839    5.1076 C   0  0  0  0  0  0  0  0  0  0  0  0
    3.8935   -2.1299    7.0246 C   0  0  0  0  0  0  0  0  0  0  0  0
    2.7553    1.0603    3.7129 N   0  0  0  0  0  0  0  0  0  0  0  0
    4.0808    1.6419    3.9769 C   0  0  0  0  0  0  0  0  0  0  0  0
    4.0751    3.1516    3.7908 C   0  0  0  0  0  0  0  0  0  0  0  0
    3.3824    3.5502    2.5542 N   0  3  0  0  0  0  0  0  0  0  0  0
    3.3997    5.0199    2.5065 C   0  0  0  0  0  0  0  0  0  0  0  0
    4.8529    5.4726    2.4993 C   0  0  0  0  0  0  0  0  0  0  0  0
    4.9880    6.9823    2.3617 C   0  0  0  0  0  0  0  0  0  0  0  0
    4.1098    7.5226    1.3103 N   0  0  0  0  0  0  0  0  0  0  0  0
    4.5484    8.6364    0.5868 C   0  0  0  0  0  0  0  0  0  0  0  0
    3.7954    9.1761   -0.3838 N   0  0  0  0  0  0  0  0  0  0  0  0
    4.2071   10.2441   -1.0840 C   0  0  0  0  0  0  0  0  0  0  0  0
    5.4450   10.8212   -0.8107 C   0  0  0  0  0  0  0  0  0  0  0  0
    6.2394   10.2728    0.1954 C   0  0  0  0  0  0  0  0  0  0  0  0
    5.7928    9.1660    0.9079 C   0  0  0  0  0  0  0  0  0  0  0  0
    7.5412   10.8096    0.5476 C   0  0  0  0  0  0  0  0  0  0  0  0
    8.5194   10.1206    0.4550 O   0  0  0  0  0  0  0  0  0  0  0  0
    7.6532   12.1028    0.9856 N   0  0  0  0  0  0  0  0  0  0  0  0
    5.8453   11.9295   -1.5545 C   0  0  0  0  0  0  0  0  0  0  0  0
    5.0514   12.4753   -2.5568 C   0  0  0  0  0  0  0  0  0  0  0  0
    3.8184   11.8889   -2.8190 C   0  0  0  0  0  0  0  0  0  0  0  0
    3.4044   10.7822   -2.0850 C   0  0  0  0  0  0  0  0  0  0  0  0
    2.7965    6.9450    0.9777 C   0  0  0  0  0  0  0  0  0  0  0  0
    2.7619    5.4374    1.1882 C   0  0  0  0  0  0  0  0  0  0  0  0
    1.9698    3.1393    2.6183 C   0  0  0  0  0  0  0  0  0  0  0  0
    1.8216    1.6287    2.7272 C   0  0  0  0  0  0  0  0  0  0  0  0
    3.8323    3.1608    1.7506 H   0  0  0  0  0  0  0  0  0  0  0  0
    1.2423   -2.2319    7.3731 H   0  0  0  0  0  0  0  0  0  0  0  0
    1.6997   -0.6683    7.4848 H   0  0  0  0  0  0  0  0  0  0  0  0
    0.7886   -1.1644    6.2236 H   0  0  0  0  0  0  0  0  0  0  0  0
    2.2308   -3.6924    5.6264 H   0  0  0  0  0  0  0  0  0  0  0  0
    1.7772   -2.6248    4.4770 H   0  0  0  0  0  0  0  0  0  0  0  0
    3.3386   -3.0896    4.5890 H   0  0  0  0  0  0  0  0  0  0  0  0
    3.6157   -2.9384    7.5434 H   0  0  0  0  0  0  0  0  0  0  0  0
    4.7234   -2.3356    6.5060 H   0  0  0  0  0  0  0  0  0  0  0  0
    4.0731   -1.3748    7.6551 H   0  0  0  0  0  0  0  0  0  0  0  0
    4.7437    1.2393    3.3456 H   0  0  0  0  0  0  0  0  0  0  0  0
    4.3463    1.4315    4.9178 H   0  0  0  0  0  0  0  0  0  0  0  0
    3.6113    3.5717    4.5709 H   0  0  0  0  0  0  0  0  0  0  0  0
    5.0202    3.4760    3.7508 H   0  0  0  0  0  0  0  0  0  0  0  0
    2.9059    5.4102    3.2837 H   0  0  0  0  0  0  0  0  0  0  0  0
    5.3215    5.0367    1.7309 H   0  0  0  0  0  0  0  0  0  0  0  0
    5.2825    5.1882    3.3564 H   0  0  0  0  0  0  0  0  0  0  0  0
    4.7472    7.4085    3.2337 H   0  0  0  0  0  0  0  0  0  0  0  0
    5.9366    7.2020    2.1341 H   0  0  0  0  0  0  0  0  0  0  0  0
    6.3516    8.7617    1.6320 H   0  0  0  0  0  0  0  0  0  0  0  0
    6.8381   12.6770    1.0628 H   0  0  0  0  0  0  0  0  0  0  0  0
    8.5501   12.4727    1.2283 H   0  0  0  0  0  0  0  0  0  0  0  0
    6.7335   12.3462   -1.3609 H   0  0  0  0  0  0  0  0  0  0  0  0
    5.3601   13.2714   -3.0772 H   0  0  0  0  0  0  0  0  0  0  0  0
    3.2292   12.2628   -3.5352 H   0  0  0  0  0  0  0  0  0  0  0  0
    2.5159   10.3668   -2.2798 H   0  0  0  0  0  0  0  0  0  0  0  0
    2.5919    7.1412    0.0187 H   0  0  0  0  0  0  0  0  0  0  0  0
    2.1020    7.3675    1.5600 H   0  0  0  0  0  0  0  0  0  0  0  0
    1.8090    5.1342    1.1823 H   0  0  0  0  0  0  0  0  0  0  0  0
    3.2565    4.9972    0.4388 H   0  0  0  0  0  0  0  0  0  0  0  0
    1.5049    3.4506    1.7895 H   0  0  0  0  0  0  0  0  0  0  0  0
    1.5457    3.5641    3.4180 H   0  0  0  0  0  0  0  0  0  0  0  0
    0.8856    1.4141    3.0061 H   0  0  0  0  0  0  0  0  0  0  0  0
    2.0052    1.2197    1.8334 H   0  0  0  0  0  0  0  0  0  0  0  0
  1  2  2  0  0  0  0
  2  3  1  0  0  0  0
  3  4  1  0  0  0  0
  4  5  1  0  0  0  0
  4  6  1  0  0  0  0
  4  7  1  0  0  0  0
  2  8  1  0  0  0  0
  8  9  1  0  0  0  0
  9 10  1  0  0  0  0
 10 11  1  0  0  0  0
 11 12  1  0  0  0  0
 12 13  1  0  0  0  0
 13 14  1  0  0  0  0
 14 15  1  0  0  0  0
 15 16  1  0  0  0  0
 16 17  1  0  0  0  0
 17 18  2  0  0  0  0
 18 19  1  0  0  0  0
 19 20  2  0  0  0  0
 20 21  1  0  0  0  0
 21 16  2  0  0  0  0
 20 22  1  0  0  0  0
 22 23  2  0  0  0  0
 22 24  1  0  0  0  0
 19 25  1  0  0  0  0
 25 26  2  0  0  0  0
 26 27  1  0  0  0  0
 27 28  2  0  0  0  0
 28 18  1  0  0  0  0
 15 29  1  0  0  0  0
 29 30  1  0  0  0  0
 30 12  1  0  0  0  0
 11 31  1  0  0  0  0
 31 32  1  0  0  0  0
 32  8  1  0  0  0  0
 11 33  1  0  0  0  0
  5 34  1  0  0  0  0
  5 35  1  0  0  0  0
  5 36  1  0  0  0  0
  6 37  1  0  0  0  0
  6 38  1  0  0  0  0
  6 39  1  0  0  0  0
  7 40  1  0  0  0  0
  7 41  1  0  0  0  0
  7 42  1  0  0  0  0
  9 43  1  0  0  0  0
  9 44  1  0  0  0  0
 10 45  1  0  0  0  0
 10 46  1  0  0  0  0
 12 47  1  0  0  0  0
 13 48  1  0  0  0  0
 13 49  1  0  0  0  0
 14 50  1  0  0  0  0
 14 51  1  0  0  0  0
 21 52  1  0  0  0  0
 24 53  1  0  0  0  0
 24 54  1  0  0  0  0
 25 55  1  0  0  0  0
 26 56  1  0  0  0  0
 27 57  1  0  0  0  0
 28 58  1  0  0  0  0
 29 59  1  0  0  0  0
 29 60  1  0  0  0  0
 30 61  1  0  0  0  0
 30 62  1  0  0  0  0
 31 63  1  0  0  0  0
 31 64  1  0  0  0  0
 32 65  1  0  0  0  0
 32 66  1  0  0  0  0
M  CHG  1  11   1
M  END
>  <result-rank>
70

>  <similarity>
0.886

>  <query-name>


>  <query-smiles>
S1c2c(cccc2)C(C(=O)N3CCC([N@H+]4CC5(C(=O)N6N(C5=O)CCCC6)CCC4)CC3)=C1NC(=O)NC

>  <source>
REALspace_2019-12

>  <similarity-descriptor>
0.999;0.832;1.000;0.708;0.995;0.795;0.832;0.849;0.849;0.709;0.0;0.0

>  <similarity-descriptor-smiles>
C1CCNCC1;c1ccccn1;c1ccccc1;O=CO;N1CC[NH+]CC1;C(C)(C)C;c1ccccn1;C=O;C=O;N;;

>  <reaction-name>
s_27c

>  <reagent1-name>
14937634

>  <reagent1-smiles>
[R1*]N1CCC(N2CCN(C(=O)OC(C)(C)C)CC2)CC1

>  <reagent2-name>
575184

>  <reagent2-smiles>
[R1*]c1nc2c(c(c1)C(=O)N)cccc2

$$$$
s_22____13905642____8593110
          04022017303D 1   1.00000     0.00000     0
            
 73 76  0  0  0  0            999 V2000
    1.4063    0.1511   -2.4319 O   0  0  0  0  0  0  0  0  0  0  0  0
    0.9432    0.2011   -1.3260 C   0  0  0  0  0  0  0  0  0  0  0  0
   -0.1591   -0.4496   -1.0474 O   0  0  0  0  0  0  0  0  0  0  0  0
   -0.8059   -1.2141   -2.0541 C   0  0  0  0  0  0  0  0  0  0  0  0
   -2.0523   -1.8634   -1.4749 C   0  0  0  0  0  0  0  0  0  0  0  0
   -1.1977   -0.3050   -3.2075 C   0  0  0  0  0  0  0  0  0  0  0  0
    0.1397   -2.2924   -2.5576 C   0  0  0  0  0  0  0  0  0  0  0  0
    1.5673    0.9387   -0.3547 N   0  0  0  0  0  0  0  0  0  0  0  0
    1.0000    1.0000    1.0000 C   0  0  0  0  0  0  0  0  0  0  0  0
    1.8796    1.8796    1.8796 C   0  0  3  0  0  0  0  0  0  0  0  0
    1.4191    2.0391    3.3150 C   0  0  0  0  0  0  0  0  0  0  0  0
    0.8751    0.7022    3.8162 C   0  0  0  0  0  0  0  0  0  0  0  0
    0.3413    0.7230    5.2448 C   0  0  0  0  0  0  0  0  0  0  0  0
   -0.5470    1.8818    5.4325 N   0  0  0  0  0  0  0  0  0  0  0  0
   -1.6992    1.7207    6.2081 C   0  0  0  0  0  0  0  0  0  0  0  0
   -1.9451    0.6556    6.7032 O   0  0  0  0  0  0  0  0  0  0  0  0
   -2.5971    2.8409    6.4143 C   0  0  0  0  0  0  0  0  0  0  0  0
   -3.6812    3.1037    5.5336 C   0  0  0  0  0  0  0  0  0  0  0  0
   -3.8768    2.3771    4.5727 O   0  0  0  0  0  0  0  0  0  0  0  0
   -4.4980    4.1778    5.7781 N   0  0  0  0  0  0  0  0  0  0  0  0
   -4.2934    5.0047    6.8530 C   0  0  0  0  0  0  0  0  0  0  0  0
   -3.2550    4.7746    7.7195 C   0  0  0  0  0  0  0  0  0  0  0  0
   -3.0095    5.6281    8.8657 C   0  0  0  0  0  0  0  0  0  0  0  0
   -1.7282    6.1251    9.0783 C   0  0  0  0  0  0  0  0  0  0  0  0
   -1.4823    6.9439   10.1759 C   0  0  0  0  0  0  0  0  0  0  0  0
   -2.5213    7.2560   11.0465 C   0  0  0  0  0  0  0  0  0  0  0  0
   -2.2927    8.0509   12.1133 O   0  0  0  0  0  0  0  0  0  0  0  0
   -3.8028    6.7584   10.8335 C   0  0  0  0  0  0  0  0  0  0  0  0
   -4.0487    5.9394    9.7365 C   0  0  0  0  0  0  0  0  0  0  0  0
   -2.3949    3.6685    7.4876 C   0  0  0  0  0  0  0  0  0  0  0  0
   -5.2439    6.1742    7.0544 C   0  0  0  0  0  0  0  0  0  0  0  0
   -0.2877    3.1957    4.8266 C   0  0  0  0  0  0  0  0  0  0  0  0
    0.2659    3.0301    3.4174 C   0  0  0  0  0  0  0  0  0  0  0  0
    2.6528    2.6571    3.9439 C   0  0  0  0  0  0  0  0  0  0  0  0
    3.8522    2.1870    3.1530 C   0  0  0  0  0  0  0  0  0  0  0  0
    3.2602    1.2959    2.0829 C   0  0  0  0  0  0  0  0  0  0  0  0
   -2.5078   -2.4018   -2.1838 H   0  0  0  0  0  0  0  0  0  0  0  0
   -1.7945   -2.4616   -0.7161 H   0  0  0  0  0  0  0  0  0  0  0  0
   -2.6744   -1.1541   -1.1437 H   0  0  0  0  0  0  0  0  0  0  0  0
   -1.6533   -0.8434   -3.9165 H   0  0  0  0  0  0  0  0  0  0  0  0
   -1.8199    0.4044   -2.8763 H   0  0  0  0  0  0  0  0  0  0  0  0
   -0.3778    0.1222   -3.5886 H   0  0  0  0  0  0  0  0  0  0  0  0
   -0.3158   -2.8308   -3.2665 H   0  0  0  0  0  0  0  0  0  0  0  0
    0.9597   -1.8652   -2.9387 H   0  0  0  0  0  0  0  0  0  0  0  0
    0.3975   -2.8905   -1.7988 H   0  0  0  0  0  0  0  0  0  0  0  0
    2.4088    1.4355   -0.5674 H   0  0  0  0  0  0  0  0  0  0  0  0
    0.9583    0.0784    1.3859 H   0  0  0  0  0  0  0  0  0  0  0  0
    0.0784    1.3859    0.9583 H   0  0  0  0  0  0  0  0  0  0  0  0
    1.9640    2.7833    1.4598 H   0  0  0  0  0  0  0  0  0  0  0  0
    1.6133    0.0291    3.7698 H   0  0  0  0  0  0  0  0  0  0  0  0
    0.1305    0.4226    3.2100 H   0  0  0  0  0  0  0  0  0  0  0  0
   -0.1702   -0.1183    5.4196 H   0  0  0  0  0  0  0  0  0  0  0  0
    1.1078    0.7861    5.8839 H   0  0  0  0  0  0  0  0  0  0  0  0
   -5.2606    4.3624    5.1582 H   0  0  0  0  0  0  0  0  0  0  0  0
   -0.9882    5.8953    8.4462 H   0  0  0  0  0  0  0  0  0  0  0  0
   -0.5643    7.3058   10.3379 H   0  0  0  0  0  0  0  0  0  0  0  0
   -3.0399    8.2751   12.7391 H   0  0  0  0  0  0  0  0  0  0  0  0
   -4.5429    6.9883   11.4654 H   0  0  0  0  0  0  0  0  0  0  0  0
   -4.9665    5.5768    9.5748 H   0  0  0  0  0  0  0  0  0  0  0  0
   -1.6349    3.4920    8.1131 H   0  0  0  0  0  0  0  0  0  0  0  0
   -4.9750    6.6856    7.8706 H   0  0  0  0  0  0  0  0  0  0  0  0
   -5.2059    6.7758    6.2565 H   0  0  0  0  0  0  0  0  0  0  0  0
   -6.1760    5.8304    7.1685 H   0  0  0  0  0  0  0  0  0  0  0  0
    0.3771    3.6911    5.3858 H   0  0  0  0  0  0  0  0  0  0  0  0
   -1.1418    3.7144    4.7864 H   0  0  0  0  0  0  0  0  0  0  0  0
   -0.4743    2.7131    2.8243 H   0  0  0  0  0  0  0  0  0  0  0  0
    0.5888    3.9217    3.0999 H   0  0  0  0  0  0  0  0  0  0  0  0
    2.7348    2.3617    4.8958 H   0  0  0  0  0  0  0  0  0  0  0  0
    2.5906    3.6545    3.9086 H   0  0  0  0  0  0  0  0  0  0  0  0
    4.4822    1.6728    3.7350 H   0  0  0  0  0  0  0  0  0  0  0  0
    4.3338    2.9619    2.7436 H   0  0  0  0  0  0  0  0  0  0  0  0
    3.7970    1.3408    1.2403 H   0  0  0  0  0  0  0  0  0  0  0  0
    3.2070    0.3471    2.3941 H   0  0  0  0  0  0  0  0  0  0  0  0
  1  2  2  0  0  0  0
  2  3  1  0  0  0  0
  3  4  1  0  0  0  0
  4  5  1  0  0  0  0
  4  6  1  0  0  0  0
  4  7  1  0  0  0  0
  2  8  1  0  0  0  0
  8  9  1  0  0  0  0
  9 10  1  0  0  0  0
 10 11  1  0  0  0  0
 11 12  1  0  0  0  0
 12 13  1  0  0  0  0
 13 14  1  0  0  0  0
 14 15  1  0  0  0  0
 15 16  2  0  0  0  0
 15 17  1  0  0  0  0
 17 18  1  0  0  0  0
 18 19  2  0  0  0  0
 18 20  1  0  0  0  0
 20 21  1  0  0  0  0
 21 22  2  0  0  0  0
 22 23  1  0  0  0  0
 23 24  1  0  0  0  0
 24 25  2  0  0  0  0
 25 26  1  0  0  0  0
 26 27  1  0  0  0  0
 26 28  2  0  0  0  0
 28 29  1  0  0  0  0
 29 23  2  0  0  0  0
 22 30  1  0  0  0  0
 17 30  2  0  0  0  0
 21 31  1  0  0  0  0
 14 32  1  0  0  0  0
 32 33  1  0  0  0  0
 33 11  1  0  0  0  0
 11 34  1  0  0  0  0
 34 35  1  0  0  0  0
 35 36  1  0  0  0  0
 36 10  1  0  0  0  0
  5 37  1  0  0  0  0
  5 38  1  0  0  0  0
  5 39  1  0  0  0  0
  6 40  1  0  0  0  0
  6 41  1  0  0  0  0
  6 42  1  0  0  0  0
  7 43  1  0  0  0  0
  7 44  1  0  0  0  0
  7 45  1  0  0  0  0
  8 46  1  0  0  0  0
  9 47  1  0  0  0  0
  9 48  1  0  0  0  0
 10 49  1  0  0  0  0
 12 50  1  0  0  0  0
 12 51  1  0  0  0  0
 13 52  1  0  0  0  0
 13 53  1  0  0  0  0
 20 54  1  0  0  0  0
 24 55  1  0  0  0  0
 25 56  1  0  0  0  0
 27 57  1  0  0  0  0
 28 58  1  0  0  0  0
 29 59  1  0  0  0  0
 30 60  1  0  0  0  0
 31 61  1  0  0  0  0
 31 62  1  0  0  0  0
 31 63  1  0  0  0  0
 32 64  1  0  0  0  0
 32 65  1  0  0  0  0
 33 66  1  0  0  0  0
 33 67  1  0  0  0  0
 34 68  1  0  0  0  0
 34 69  1  0  0  0  0
 35 70  1  0  0  0  0
 35 71  1  0  0  0  0
 36 72  1  0  0  0  0
 36 73  1  0  0  0  0
M  END
>  <result-rank>
71

>  <similarity>
0.886

>  <query-name>


>  <query-smiles>
S1c2c(cccc2)C(C(=O)N3CCC([N@H+]4CC5(C(=O)N6N(C5=O)CCCC6)CCC4)CC3)=C1NC(=O)NC

>  <source>
REALspace_2019-12

>  <similarity-descriptor>
0.905;0.893;0.982;0.708;0.931;0.795;1.000;0.893;0.893;0.893;0.995;0.067

>  <similarity-descriptor-smiles>
C1CCNCC1;C1=CC=CNC1=O;c1ccccc1;O=CO;NCC1CCCC1;C(C)(C)C;C=O;C1=CC=CNC1=O;C1=CC=CNC1=O;C1=CC=CNC1=O;C;O

>  <reaction-name>
s_22

>  <reagent1-name>
13905642

>  <reagent1-smiles>
[R1*]N1CCC2(C(CNC(=O)OC(C)(C)C)CCC2)CC1

>  <reagent2-name>
8593110

>  <reagent2-smiles>
[R1*]C(=O)C=1C(=O)NC(=C(c2ccc(O)cc2)C1)C

$$$$
m_274310____14113098____14118380____15870656
          04022017303D 1   1.00000     0.00000     0
            
 67 73  0  0  0  0            999 V2000
   -2.8380    3.5540    1.2222 O   0  0  0  0  0  0  0  0  0  0  0  0
   -2.2763    3.4934    0.1635 C   0  0  0  0  0  0  0  0  0  0  0  0
   -0.9050    3.2204    0.1136 N   0  0  0  0  0  0  0  0  0  0  0  0
   -0.1761    3.0117    1.3759 C   0  0  0  0  0  0  0  0  0  0  0  0
    1.2615    3.5063    1.2973 C   0  0  3  0  0  0  0  0  0  0  0  0
    2.0041    3.0054    2.5252 C   0  0  3  0  0  0  0  0  0  0  0  0
    2.0058    1.4971    2.5989 C   0  0  0  0  0  0  0  0  0  0  0  0
    3.2132    1.2251    3.3828 N   0  0  0  0  0  0  0  0  0  0  0  0
    3.3549    0.1861    4.3122 C   0  0  0  0  0  0  0  0  0  0  0  0
    3.6310    0.4384    5.6001 N   0  0  0  0  0  0  0  0  0  0  0  0
    3.7699   -0.5567    6.4898 C   0  0  0  0  0  0  0  0  0  0  0  0
    3.6309   -1.8325    6.0948 N   0  0  0  0  0  0  0  0  0  0  0  0
    3.3564   -2.1657    4.8223 C   0  0  0  0  0  0  0  0  0  0  0  0
    3.1556   -3.3193    4.1161 N   0  0  0  0  0  0  0  0  0  0  0  0
    2.9123   -3.0243    2.8623 N   0  0  0  0  0  0  0  0  0  0  0  0
    2.9442   -1.7646    2.7351 N   0  0  0  0  0  0  0  0  0  0  0  0
    3.2136   -1.1415    3.9234 C   0  0  0  0  0  0  0  0  0  0  0  0
    3.2072   -4.6782    4.6719 C   0  0  0  0  0  0  0  0  0  0  0  0
    4.6273   -5.2129    4.5724 C   0  0  0  0  0  0  0  0  0  0  0  0
    5.5835   -4.3438    5.3359 C   0  0  0  0  0  0  0  0  0  0  0  0
    5.5422   -4.2771    3.8361 C   0  0  0  0  0  0  0  0  0  0  0  0
    4.2383    2.2188    3.0463 C   0  0  0  0  0  0  0  0  0  0  0  0
    3.4674    3.3882    2.4540 C   0  0  0  0  0  0  0  0  0  0  0  0
    1.9602    3.0494    0.0245 C   0  0  0  0  0  0  0  0  0  0  0  0
    1.1909    3.6415   -1.1490 C   0  0  0  0  0  0  0  0  0  0  0  0
   -0.2518    3.1578   -1.2046 C   0  0  0  0  0  0  0  0  0  0  0  0
   -3.0193    3.7032   -1.0647 C   0  0  0  0  0  0  0  0  0  0  0  0
   -3.1806    4.9857   -1.6624 C   0  0  0  0  0  0  0  0  0  0  0  0
   -3.9074    5.1206   -2.8433 C   0  0  0  0  0  0  0  0  0  0  0  0
   -4.0566    6.3820   -3.4158 C   0  0  0  0  0  0  0  0  0  0  0  0
   -3.4977    7.5182   -2.8401 C   0  0  0  0  0  0  0  0  0  0  0  0
   -2.7710    7.3876   -1.6609 C   0  0  0  0  0  0  0  0  0  0  0  0
   -2.6238    6.1275   -1.0906 C   0  0  0  0  0  0  0  0  0  0  0  0
   -4.4767    3.9550   -3.4302 C   0  0  0  0  0  0  0  0  0  0  0  0
   -5.1263    3.9920   -4.4650 O   0  0  0  0  0  0  0  0  0  0  0  0
   -4.3007    2.7363   -2.8274 N   0  0  0  0  0  0  0  0  0  0  0  0
   -3.5857    2.6089   -1.6648 C   0  0  0  0  0  0  0  0  0  0  0  0
   -0.1695    2.0341    1.5863 H   0  0  0  0  0  0  0  0  0  0  0  0
   -0.6477    3.5065    2.1058 H   0  0  0  0  0  0  0  0  0  0  0  0
    1.2553    4.5061    1.3153 H   0  0  0  0  0  0  0  0  0  0  0  0
    1.5917    3.3869    3.3525 H   0  0  0  0  0  0  0  0  0  0  0  0
    1.1881    1.1561    3.0629 H   0  0  0  0  0  0  0  0  0  0  0  0
    2.0661    1.0899    1.6876 H   0  0  0  0  0  0  0  0  0  0  0  0
    3.9765   -0.3482    7.4458 H   0  0  0  0  0  0  0  0  0  0  0  0
    2.5903   -5.2729    4.1564 H   0  0  0  0  0  0  0  0  0  0  0  0
    2.9255   -4.6569    5.6312 H   0  0  0  0  0  0  0  0  0  0  0  0
    4.7836   -6.1994    4.5246 H   0  0  0  0  0  0  0  0  0  0  0  0
    6.3714   -4.7521    5.7967 H   0  0  0  0  0  0  0  0  0  0  0  0
    5.2386   -3.5790    5.8800 H   0  0  0  0  0  0  0  0  0  0  0  0
    5.1696   -3.4681    3.3816 H   0  0  0  0  0  0  0  0  0  0  0  0
    6.3025   -4.6412    3.2982 H   0  0  0  0  0  0  0  0  0  0  0  0
    4.8829    1.8474    2.3780 H   0  0  0  0  0  0  0  0  0  0  0  0
    4.7351    2.5037    3.8660 H   0  0  0  0  0  0  0  0  0  0  0  0
    3.6350    4.2190    2.9848 H   0  0  0  0  0  0  0  0  0  0  0  0
    3.7409    3.5387    1.5040 H   0  0  0  0  0  0  0  0  0  0  0  0
    1.9537    2.0509   -0.0304 H   0  0  0  0  0  0  0  0  0  0  0  0
    2.9048    3.3775    0.0155 H   0  0  0  0  0  0  0  0  0  0  0  0
    1.1919    4.6378   -1.0631 H   0  0  0  0  0  0  0  0  0  0  0  0
    1.6497    3.3796   -1.9981 H   0  0  0  0  0  0  0  0  0  0  0  0
   -0.7609    3.7330   -1.8449 H   0  0  0  0  0  0  0  0  0  0  0  0
   -0.2629    2.2109   -1.5259 H   0  0  0  0  0  0  0  0  0  0  0  0
   -4.5795    6.4730   -4.2634 H   0  0  0  0  0  0  0  0  0  0  0  0
   -3.6163    8.4147   -3.2670 H   0  0  0  0  0  0  0  0  0  0  0  0
   -2.3596    8.1899   -1.2285 H   0  0  0  0  0  0  0  0  0  0  0  0
   -2.1013    6.0383   -0.2427 H   0  0  0  0  0  0  0  0  0  0  0  0
   -4.7030    1.9218   -3.2454 H   0  0  0  0  0  0  0  0  0  0  0  0
   -3.4760    1.7060   -1.2491 H   0  0  0  0  0  0  0  0  0  0  0  0
  1  2  2  0  0  0  0
  2  3  1  0  0  0  0
  3  4  1  0  0  0  0
  4  5  1  0  0  0  0
  5  6  1  0  0  0  0
  6  7  1  0  0  0  0
  7  8  1  0  0  0  0
  8  9  1  0  0  0  0
  9 10  1  0  0  0  0
 10 11  2  0  0  0  0
 11 12  1  0  0  0  0
 12 13  2  0  0  0  0
 13 14  1  0  0  0  0
 14 15  1  0  0  0  0
 15 16  2  0  0  0  0
 16 17  1  0  0  0  0
 17 13  1  0  0  0  0
 17  9  2  0  0  0  0
 14 18  1  0  0  0  0
 18 19  1  0  0  0  0
 19 20  1  0  0  0  0
 20 21  1  0  0  0  0
 21 19  1  0  0  0  0
  8 22  1  0  0  0  0
 22 23  1  0  0  0  0
 23  6  1  0  0  0  0
  5 24  1  0  0  0  0
 24 25  1  0  0  0  0
 25 26  1  0  0  0  0
 26  3  1  0  0  0  0
  2 27  1  0  0  0  0
 27 28  1  0  0  0  0
 28 29  1  0  0  0  0
 29 30  2  0  0  0  0
 30 31  1  0  0  0  0
 31 32  2  0  0  0  0
 32 33  1  0  0  0  0
 33 28  2  0  0  0  0
 29 34  1  0  0  0  0
 34 35  2  0  0  0  0
 34 36  1  0  0  0  0
 36 37  1  0  0  0  0
 27 37  2  0  0  0  0
  4 38  1  0  0  0  0
  4 39  1  0  0  0  0
  5 40  1  0  0  0  0
  6 41  1  0  0  0  0
  7 42  1  0  0  0  0
  7 43  1  0  0  0  0
 11 44  1  0  0  0  0
 18 45  1  0  0  0  0
 18 46  1  0  0  0  0
 19 47  1  0  0  0  0
 20 48  1  0  0  0  0
 20 49  1  0  0  0  0
 21 50  1  0  0  0  0
 21 51  1  0  0  0  0
 22 52  1  0  0  0  0
 22 53  1  0  0  0  0
 23 54  1  0  0  0  0
 23 55  1  0  0  0  0
 24 56  1  0  0  0  0
 24 57  1  0  0  0  0
 25 58  1  0  0  0  0
 25 59  1  0  0  0  0
 26 60  1  0  0  0  0
 26 61  1  0  0  0  0
 30 62  1  0  0  0  0
 31 63  1  0  0  0  0
 32 64  1  0  0  0  0
 33 65  1  0  0  0  0
 36 66  1  0  0  0  0
 37 67  1  0  0  0  0
M  END
>  <result-rank>
72

>  <similarity>
0.886

>  <query-name>


>  <query-smiles>
S1c2c(cccc2)C(C(=O)N3CCC([N@H+]4CC5(C(=O)N6N(C5=O)CCCC6)CCC4)CC3)=C1NC(=O)NC

>  <source>
REALspace_2019-12

>  <similarity-descriptor>
0.999;0.940;1.000;0.685;0.791;0.975;1.000;0.940;0.940;0.0;0.0;0.0

>  <similarity-descriptor-smiles>
N1CCCCC1;C1=CNC(cc1)=O;c1ccccc1;c1c2N=NNc2ncn1;C1CCNC1;CC1CC1;O=C;C1=CNC(cc1)=O;C1=CNC(cc1)=O;;;

>  <reaction-name>
m_274310

>  <reagent1-name>
14113098

>  <reagent1-smiles>
[R2*]N1CC(C2CN([R1*])CCC2)CC1

>  <reagent2-name>
14118380

>  <reagent2-smiles>
[R1*]C(=O)C=1c2c(cccc2)C(=O)NC1

>  <reagent3-name>
15870656

>  <reagent3-smiles>
[R2*]c1ncnc2N(N=Nc12)CC3CC3

$$$$
m_275030____14114100____14125180____14148012
          04022017303D 1   1.00000     0.00000     0
            
 67 72  0  0  0  0            999 V2000
    3.0718    0.9884    8.6244 O   0  0  0  0  0  0  0  0  0  0  0  0
    4.2707    1.0396    8.6192 C   0  0  0  0  0  0  0  0  0  0  0  0
    4.9544    1.3055    7.4278 N   0  0  0  0  0  0  0  0  0  0  0  0
    4.1772    1.5184    6.1954 C   0  0  0  0  0  0  0  0  0  0  0  0
    4.9111    1.0162    4.9597 C   0  0  3  0  0  0  0  0  0  0  0  0
    4.1731    1.5210    3.7307 C   0  0  3  0  0  0  0  0  0  0  0  0
    4.1387    3.0408    3.7241 C   0  0  0  0  0  0  0  0  0  0  0  0
    3.3819    3.5430    2.5050 C   0  0  0  0  0  0  0  0  0  0  0  0
    2.0132    3.0059    2.4862 N   0  3  3  0  0  0  0  0  0  0  0  0
    1.2711    3.5130    1.3202 C   0  0  0  0  0  0  0  0  0  0  0  0
   -0.1372    2.9414    1.3282 C   0  0  0  0  0  0  0  0  0  0  0  0
   -1.1768    3.4904    1.9086 N   0  0  0  0  0  0  0  0  0  0  0  0
   -2.2246    2.6527    1.6718 C   0  0  0  0  0  0  0  0  0  0  0  0
   -1.8032    1.6323    0.9634 N   0  0  0  0  0  0  0  0  0  0  0  0
   -0.5197    1.7781    0.7327 N   0  0  0  0  0  0  0  0  0  0  0  0
   -3.6521    2.8656    2.1508 C   0  0  0  0  0  0  0  0  0  0  0  0
   -3.7114    2.9357    3.6488 C   0  0  0  0  0  0  0  0  0  0  0  0
   -4.1737    1.6970    2.9364 C   0  0  0  0  0  0  0  0  0  0  0  0
    2.0008    1.5356    2.5062 C   0  0  0  0  0  0  0  0  0  0  0  0
    2.7405    1.0121    3.7271 C   0  0  0  0  0  0  0  0  0  0  0  0
    6.3664    1.4617    4.9321 C   0  0  0  0  0  0  0  0  0  0  0  0
    7.0432    0.8661    6.1596 C   0  0  0  0  0  0  0  0  0  0  0  0
    6.4257    1.3566    7.4621 C   0  0  0  0  0  0  0  0  0  0  0  0
    5.0112    0.8258    9.8482 C   0  0  0  0  0  0  0  0  0  0  0  0
    5.4554   -0.4596   10.2708 C   0  0  0  0  0  0  0  0  0  0  0  0
    6.1620   -0.5983   11.4634 C   0  0  0  0  0  0  0  0  0  0  0  0
    6.5897   -1.8625   11.8635 C   0  0  0  0  0  0  0  0  0  0  0  0
    6.3308   -2.9978   11.1027 C   0  0  0  0  0  0  0  0  0  0  0  0
    5.6255   -2.8634    9.9110 C   0  0  0  0  0  0  0  0  0  0  0  0
    5.1990   -1.6006    9.5137 C   0  0  0  0  0  0  0  0  0  0  0  0
    6.4262    0.5665   12.2386 C   0  0  0  0  0  0  0  0  0  0  0  0
    7.0401    0.5262   13.2948 O   0  0  0  0  0  0  0  0  0  0  0  0
    5.9838    1.7880   11.8006 N   0  0  0  0  0  0  0  0  0  0  0  0
    5.2878    1.9192   10.6270 C   0  0  0  0  0  0  0  0  0  0  0  0
    1.5464    3.3275    3.3100 H   0  0  0  0  0  0  0  0  0  0  0  0
    4.0017    2.4973    6.0902 H   0  0  0  0  0  0  0  0  0  0  0  0
    3.3079    1.0305    6.2743 H   0  0  0  0  0  0  0  0  0  0  0  0
    4.8845    0.0166    4.9584 H   0  0  0  0  0  0  0  0  0  0  0  0
    4.6409    1.1974    2.9082 H   0  0  0  0  0  0  0  0  0  0  0  0
    5.0746    3.3923    3.6999 H   0  0  0  0  0  0  0  0  0  0  0  0
    3.6823    3.3646    4.5528 H   0  0  0  0  0  0  0  0  0  0  0  0
    3.3424    4.5419    2.5316 H   0  0  0  0  0  0  0  0  0  0  0  0
    3.8609    3.2503    1.6775 H   0  0  0  0  0  0  0  0  0  0  0  0
    1.7388    3.2353    0.4810 H   0  0  0  0  0  0  0  0  0  0  0  0
    1.2260    4.5111    1.3620 H   0  0  0  0  0  0  0  0  0  0  0  0
    0.0666    1.1531    0.2172 H   0  0  0  0  0  0  0  0  0  0  0  0
   -4.2822    3.4161    1.6031 H   0  0  0  0  0  0  0  0  0  0  0  0
   -4.3771    3.5335    4.0954 H   0  0  0  0  0  0  0  0  0  0  0  0
   -2.8668    2.9188    4.1840 H   0  0  0  0  0  0  0  0  0  0  0  0
   -3.6369    0.8555    2.9969 H   0  0  0  0  0  0  0  0  0  0  0  0
   -5.1472    1.4701    2.9084 H   0  0  0  0  0  0  0  0  0  0  0  0
    2.4461    1.1917    1.6795 H   0  0  0  0  0  0  0  0  0  0  0  0
    1.0540    1.2150    2.5328 H   0  0  0  0  0  0  0  0  0  0  0  0
    2.2760    1.3267    4.5548 H   0  0  0  0  0  0  0  0  0  0  0  0
    2.7451    0.0123    3.7070 H   0  0  0  0  0  0  0  0  0  0  0  0
    6.4198    2.4598    4.9618 H   0  0  0  0  0  0  0  0  0  0  0  0
    6.8109    1.1288    4.1004 H   0  0  0  0  0  0  0  0  0  0  0  0
    6.9598   -0.1297    6.1203 H   0  0  0  0  0  0  0  0  0  0  0  0
    8.0103    1.1203    6.1476 H   0  0  0  0  0  0  0  0  0  0  0  0
    6.7515    0.7799    8.2113 H   0  0  0  0  0  0  0  0  0  0  0  0
    6.7124    2.3015    7.6198 H   0  0  0  0  0  0  0  0  0  0  0  0
    7.0963   -1.9561   12.7206 H   0  0  0  0  0  0  0  0  0  0  0  0
    6.6466   -3.8964   11.4075 H   0  0  0  0  0  0  0  0  0  0  0  0
    5.4277   -3.6651    9.3469 H   0  0  0  0  0  0  0  0  0  0  0  0
    4.6918   -1.5087    8.6568 H   0  0  0  0  0  0  0  0  0  0  0  0
    6.1733    2.6019   12.3499 H   0  0  0  0  0  0  0  0  0  0  0  0
    4.9778    2.8241   10.3353 H   0  0  0  0  0  0  0  0  0  0  0  0
  1  2  2  0  0  0  0
  2  3  1  0  0  0  0
  3  4  1  0  0  0  0
  4  5  1  0  0  0  0
  5  6  1  0  0  0  0
  6  7  1  0  0  0  0
  7  8  1  0  0  0  0
  8  9  1  0  0  0  0
  9 10  1  0  0  0  0
 10 11  1  0  0  0  0
 11 12  2  0  0  0  0
 12 13  1  0  0  0  0
 13 14  2  0  0  0  0
 14 15  1  0  0  0  0
 15 11  1  0  0  0  0
 13 16  1  0  0  0  0
 16 17  1  0  0  0  0
 17 18  1  0  0  0  0
 18 16  1  0  0  0  0
  9 19  1  0  0  0  0
 19 20  1  0  0  0  0
 20  6  1  0  0  0  0
  5 21  1  0  0  0  0
 21 22  1  0  0  0  0
 22 23  1  0  0  0  0
 23  3  1  0  0  0  0
  2 24  1  0  0  0  0
 24 25  1  0  0  0  0
 25 26  1  0  0  0  0
 26 27  2  0  0  0  0
 27 28  1  0  0  0  0
 28 29  2  0  0  0  0
 29 30  1  0  0  0  0
 30 25  2  0  0  0  0
 26 31  1  0  0  0  0
 31 32  2  0  0  0  0
 31 33  1  0  0  0  0
 33 34  1  0  0  0  0
 24 34  2  0  0  0  0
  9 35  1  0  0  0  0
  4 36  1  0  0  0  0
  4 37  1  0  0  0  0
  5 38  1  0  0  0  0
  6 39  1  0  0  0  0
  7 40  1  0  0  0  0
  7 41  1  0  0  0  0
  8 42  1  0  0  0  0
  8 43  1  0  0  0  0
 10 44  1  0  0  0  0
 10 45  1  0  0  0  0
 15 46  1  0  0  0  0
 16 47  1  0  0  0  0
 17 48  1  0  0  0  0
 17 49  1  0  0  0  0
 18 50  1  0  0  0  0
 18 51  1  0  0  0  0
 19 52  1  0  0  0  0
 19 53  1  0  0  0  0
 20 54  1  0  0  0  0
 20 55  1  0  0  0  0
 21 56  1  0  0  0  0
 21 57  1  0  0  0  0
 22 58  1  0  0  0  0
 22 59  1  0  0  0  0
 23 60  1  0  0  0  0
 23 61  1  0  0  0  0
 27 62  1  0  0  0  0
 28 63  1  0  0  0  0
 29 64  1  0  0  0  0
 30 65  1  0  0  0  0
 33 66  1  0  0  0  0
 34 67  1  0  0  0  0
M  CHG  1   9   1
M  END
>  <result-rank>
73

>  <similarity>
0.885

>  <query-name>


>  <query-smiles>
S1c2c(cccc2)C(C(=O)N3CCC([N@H+]4CC5(C(=O)N6N(C5=O)CCCC6)CCC4)CC3)=C1NC(=O)NC

>  <source>
REALspace_2019-12

>  <similarity-descriptor>
0.999;0.940;1.000;0.652;0.868;0.826;1.000;0.940;0.940;0.0;0.0;0.0

>  <similarity-descriptor-smiles>
N1CCCCC1;C1=CNC(cc1)=O;c1ccccc1;C=1NN=CN1;C1CC[NH+](CC1)C;C1CC1;O=C;C1=CNC(cc1)=O;C1=CNC(cc1)=O;;;

>  <reaction-name>
m_275030

>  <reagent1-name>
14114100

>  <reagent1-smiles>
[R1*]N1CC(C2CCN([R2*])CC2)CCC1

>  <reagent2-name>
14125180

>  <reagent2-smiles>
[R1*]C(=O)C=1c2c(cccc2)C(=O)NC1

>  <reagent3-name>
14148012

>  <reagent3-smiles>
[R2*]CC1=NC(=NN1)C2CC2

$$$$
s_22____13145964____14264422
          04022017303D 1   1.00000     0.00000     0
            
 73 77  0  0  0  0            999 V2000
    1.3118   -0.7220    4.0825 O   0  0  0  0  0  0  0  0  0  0  0  0
    2.3882   -0.2457    4.3157 C   0  0  0  0  0  0  0  0  0  0  0  0
    3.1734   -0.8045    5.2030 O   0  0  0  0  0  0  0  0  0  0  0  0
    2.7508   -1.9738    5.8889 C   0  0  0  0  0  0  0  0  0  0  0  0
    3.8381   -2.4156    6.8548 C   0  0  0  0  0  0  0  0  0  0  0  0
    1.4768   -1.6750    6.6623 C   0  0  0  0  0  0  0  0  0  0  0  0
    2.4850   -3.0826    4.8837 C   0  0  0  0  0  0  0  0  0  0  0  0
    2.8054    0.9086    3.6387 N   0  0  0  0  0  0  0  0  0  0  0  0
    4.1329    1.4696    3.9471 C   0  0  0  0  0  0  0  0  0  0  0  0
    4.0132    2.9877    3.9169 C   0  0  3  0  0  0  0  0  0  0  0  0
    3.4020    3.5306    2.6934 N   0  3  3  0  0  0  0  0  0  0  0  0
    2.0363    3.0205    2.8232 C   0  0  3  0  0  0  0  0  0  0  0  0
    1.8904    1.5153    2.6654 C   0  0  0  0  0  0  0  0  0  0  0  0
    1.6837    3.4264    4.2413 C   0  0  0  0  0  0  0  0  0  0  0  0
    3.0010    3.3469    4.9910 C   0  0  0  0  0  0  0  0  0  0  0  0
    3.4653    5.0010    2.6629 C   0  0  0  0  0  0  0  0  0  0  0  0
    2.8349    5.5726    1.3997 C   0  0  0  0  0  0  0  0  0  0  0  0
    3.8138    5.5500    0.2365 C   0  0  0  0  0  0  0  0  0  0  0  0
    4.8397    6.5535    0.5477 N   0  0  0  0  0  0  0  0  0  0  0  0
    5.4915    7.2781   -0.4656 C   0  0  0  0  0  0  0  0  0  0  0  0
    5.2136    7.0828   -1.6166 O   0  0  0  0  0  0  0  0  0  0  0  0
    6.4995    8.2612   -0.1200 C   0  0  0  0  0  0  0  0  0  0  0  0
    7.6215    7.8772    0.5668 C   0  0  0  0  0  0  0  0  0  0  0  0
    8.5874    8.8667    0.8892 C   0  0  0  0  0  0  0  0  0  0  0  0
    9.5861    8.5247    1.4990 O   0  0  0  0  0  0  0  0  0  0  0  0
    8.3851   10.1697    0.5146 N   0  0  0  0  0  0  0  0  0  0  0  0
    7.2581   10.5418   -0.1715 C   0  0  0  0  0  0  0  0  0  0  0  0
    7.0608   11.9256   -0.5583 C   0  0  0  0  0  0  0  0  0  0  0  0
    5.9127   12.2896   -1.2542 C   0  0  0  0  0  0  0  0  0  0  0  0
    5.7278   13.6179   -1.6240 C   0  0  0  0  0  0  0  0  0  0  0  0
    6.6865   14.5709   -1.2965 C   0  0  0  0  0  0  0  0  0  0  0  0
    7.8292   14.1959   -0.6006 C   0  0  0  0  0  0  0  0  0  0  0  0
    8.0260   12.8709   -0.2258 C   0  0  0  0  0  0  0  0  0  0  0  0
    6.3034    9.6153   -0.5017 C   0  0  0  0  0  0  0  0  0  0  0  0
    5.1388    6.7506    1.9745 C   0  0  0  0  0  0  0  0  0  0  0  0
    4.9328    5.4109    2.6663 C   0  0  0  0  0  0  0  0  0  0  0  0
    3.8428    3.1454    1.8826 H   0  0  0  0  0  0  0  0  0  0  0  0
    3.5405   -3.2390    7.3378 H   0  0  0  0  0  0  0  0  0  0  0  0
    4.6762   -2.6122    6.3460 H   0  0  0  0  0  0  0  0  0  0  0  0
    4.0130   -1.6861    7.5161 H   0  0  0  0  0  0  0  0  0  0  0  0
    1.1792   -2.4985    7.1453 H   0  0  0  0  0  0  0  0  0  0  0  0
    1.6517   -0.9455    7.3236 H   0  0  0  0  0  0  0  0  0  0  0  0
    0.7615   -1.3844    6.0268 H   0  0  0  0  0  0  0  0  0  0  0  0
    2.1873   -3.9061    5.3667 H   0  0  0  0  0  0  0  0  0  0  0  0
    1.7696   -2.7920    4.2482 H   0  0  0  0  0  0  0  0  0  0  0  0
    3.3231   -3.2792    4.3749 H   0  0  0  0  0  0  0  0  0  0  0  0
    4.7975    1.1668    3.2640 H   0  0  0  0  0  0  0  0  0  0  0  0
    4.4270    1.1693    4.8544 H   0  0  0  0  0  0  0  0  0  0  0  0
    4.8965    3.4201    4.0982 H   0  0  0  0  0  0  0  0  0  0  0  0
    1.4354    3.4897    2.1761 H   0  0  0  0  0  0  0  0  0  0  0  0
    0.9488    1.2369    2.8550 H   0  0  0  0  0  0  0  0  0  0  0  0
    2.1392    1.2388    1.7371 H   0  0  0  0  0  0  0  0  0  0  0  0
    1.0137    2.7965    4.6341 H   0  0  0  0  0  0  0  0  0  0  0  0
    1.3189    4.3573    4.2632 H   0  0  0  0  0  0  0  0  0  0  0  0
    3.2249    4.2266    5.4107 H   0  0  0  0  0  0  0  0  0  0  0  0
    2.9660    2.6399    5.6974 H   0  0  0  0  0  0  0  0  0  0  0  0
    3.0075    5.3761    3.4690 H   0  0  0  0  0  0  0  0  0  0  0  0
    2.5564    6.5173    1.5730 H   0  0  0  0  0  0  0  0  0  0  0  0
    2.0317    5.0269    1.1605 H   0  0  0  0  0  0  0  0  0  0  0  0
    4.2292    4.6444    0.1500 H   0  0  0  0  0  0  0  0  0  0  0  0
    3.3459    5.7848   -0.6155 H   0  0  0  0  0  0  0  0  0  0  0  0
    7.7567    6.9232    0.8344 H   0  0  0  0  0  0  0  0  0  0  0  0
    9.0707   10.8600    0.7456 H   0  0  0  0  0  0  0  0  0  0  0  0
    5.2254   11.6016   -1.4870 H   0  0  0  0  0  0  0  0  0  0  0  0
    4.9057   13.8875   -2.1253 H   0  0  0  0  0  0  0  0  0  0  0  0
    6.5534   15.5259   -1.5617 H   0  0  0  0  0  0  0  0  0  0  0  0
    8.5159   14.8844   -0.3673 H   0  0  0  0  0  0  0  0  0  0  0  0
    8.8487   12.6018    0.2750 H   0  0  0  0  0  0  0  0  0  0  0  0
    5.4824    9.8882   -1.0031 H   0  0  0  0  0  0  0  0  0  0  0  0
    4.5217    7.4352    2.3626 H   0  0  0  0  0  0  0  0  0  0  0  0
    6.0853    7.0528    2.0876 H   0  0  0  0  0  0  0  0  0  0  0  0
    5.4663    4.7129    2.1886 H   0  0  0  0  0  0  0  0  0  0  0  0
    5.2482    5.4818    3.6126 H   0  0  0  0  0  0  0  0  0  0  0  0
  1  2  2  0  0  0  0
  2  3  1  0  0  0  0
  3  4  1  0  0  0  0
  4  5  1  0  0  0  0
  4  6  1  0  0  0  0
  4  7  1  0  0  0  0
  2  8  1  0  0  0  0
  8  9  1  0  0  0  0
  9 10  1  0  0  0  0
 10 11  1  0  0  0  0
 11 12  1  0  0  0  0
 12 13  1  0  0  0  0
 13  8  1  0  0  0  0
 12 14  1  0  0  0  0
 14 15  1  0  0  0  0
 15 10  1  0  0  0  0
 11 16  1  0  0  0  0
 16 17  1  0  0  0  0
 17 18  1  0  0  0  0
 18 19  1  0  0  0  0
 19 20  1  0  0  0  0
 20 21  2  0  0  0  0
 20 22  1  0  0  0  0
 22 23  2  0  0  0  0
 23 24  1  0  0  0  0
 24 25  2  0  0  0  0
 24 26  1  0  0  0  0
 26 27  1  0  0  0  0
 27 28  1  0  0  0  0
 28 29  1  0  0  0  0
 29 30  2  0  0  0  0
 30 31  1  0  0  0  0
 31 32  2  0  0  0  0
 32 33  1  0  0  0  0
 33 28  2  0  0  0  0
 27 34  2  0  0  0  0
 34 22  1  0  0  0  0
 19 35  1  0  0  0  0
 35 36  1  0  0  0  0
 36 16  1  0  0  0  0
 11 37  1  0  0  0  0
  5 38  1  0  0  0  0
  5 39  1  0  0  0  0
  5 40  1  0  0  0  0
  6 41  1  0  0  0  0
  6 42  1  0  0  0  0
  6 43  1  0  0  0  0
  7 44  1  0  0  0  0
  7 45  1  0  0  0  0
  7 46  1  0  0  0  0
  9 47  1  0  0  0  0
  9 48  1  0  0  0  0
 10 49  1  0  0  0  0
 12 50  1  0  0  0  0
 13 51  1  0  0  0  0
 13 52  1  0  0  0  0
 14 53  1  0  0  0  0
 14 54  1  0  0  0  0
 15 55  1  0  0  0  0
 15 56  1  0  0  0  0
 16 57  1  0  0  0  0
 17 58  1  0  0  0  0
 17 59  1  0  0  0  0
 18 60  1  0  0  0  0
 18 61  1  0  0  0  0
 23 62  1  0  0  0  0
 26 63  1  0  0  0  0
 29 64  1  0  0  0  0
 30 65  1  0  0  0  0
 31 66  1  0  0  0  0
 32 67  1  0  0  0  0
 33 68  1  0  0  0  0
 34 69  1  0  0  0  0
 35 70  1  0  0  0  0
 35 71  1  0  0  0  0
 36 72  1  0  0  0  0
 36 73  1  0  0  0  0
M  CHG  1  11   1
M  END
>  <result-rank>
74

>  <similarity>
0.885

>  <query-name>


>  <query-smiles>
S1c2c(cccc2)C(C(=O)N3CCC([N@H+]4CC5(C(=O)N6N(C5=O)CCCC6)CCC4)CC3)=C1NC(=O)NC

>  <source>
REALspace_2019-12

>  <similarity-descriptor>
1.000;0.936;0.942;0.708;0.945;0.795;1.000;0.936;0.936;0.0;0.0;0.083

>  <similarity-descriptor-smiles>
C1CCNCC1;C=1C=CNC(C1)=O;c1ccccc1;O=CO;N1CC[NH+]CC1;C(C)(C)C;C=O;C=1C=CNC(C1)=O;C=1C=CNC(C1)=O;;;C1CCC[NH+]1

>  <reaction-name>
s_22

>  <reagent1-name>
13145964

>  <reagent1-smiles>
[R1*]N1CCC(N2C3CN(C(=O)OC(C)(C)C)CC2CC3)CC1

>  <reagent2-name>
14264422

>  <reagent2-smiles>
[R1*]C(=O)c1cc(O)nc(c2ccccc2)c1

$$$$
m_275030____14114032____14125812____14148770
          04022017303D 1   1.00000     0.00000     0
            
 66 71  0  0  0  0            999 V2000
   -2.9774    5.4868   -0.1938 O   0  0  0  0  0  0  0  0  0  0  0  0
   -1.8482    5.8127   -0.4361 C   0  0  0  0  0  0  0  0  0  0  0  0
   -0.7826    5.0301    0.0164 N   0  0  0  0  0  0  0  0  0  0  0  0
   -1.0268    3.6010    0.2713 C   0  0  0  0  0  0  0  0  0  0  0  0
   -0.1664    3.0702    1.4097 C   0  0  0  0  0  0  0  0  0  0  0  0
    1.2837    3.5185    1.2940 C   0  0  0  0  0  0  0  0  0  0  0  0
    2.0264    3.0056    2.5174 C   0  0  3  0  0  0  0  0  0  0  0  0
    2.1200    1.4943    2.4902 C   0  0  0  0  0  0  0  0  0  0  0  0
    3.2207    1.2161    3.4213 N   0  3  3  0  0  0  0  0  0  0  0  0
    3.7451   -0.1319    3.1570 C   0  0  0  0  0  0  0  0  0  0  0  0
    4.8862   -0.4292    4.1172 C   0  0  0  0  0  0  0  0  0  0  0  0
    6.1529   -0.1724    3.9026 O   0  0  0  0  0  0  0  0  0  0  0  0
    6.8395   -0.5451    4.8975 N   0  0  0  0  0  0  0  0  0  0  0  0
    6.0275   -1.0538    5.7898 C   0  0  0  0  0  0  0  0  0  0  0  0
    4.7605   -0.9863    5.2962 N   0  0  0  0  0  0  0  0  0  0  0  0
    6.4339   -1.6256    7.1422 C   0  0  0  0  0  0  0  0  0  0  0  0
    5.7806   -0.8881    8.2943 C   0  0  0  0  0  0  0  0  0  0  0  0
    7.0812   -1.0848    9.0417 C   0  0  0  0  0  0  0  0  0  0  0  0
    7.7487   -1.1040    7.6790 C   0  0  0  0  0  0  0  0  0  0  0  0
    4.2351    2.2138    3.0607 C   0  0  0  0  0  0  0  0  0  0  0  0
    3.4945    3.3904    2.4629 C   0  0  0  0  0  0  0  0  0  0  0  0
    1.3074    5.0391    1.3570 C   0  0  0  0  0  0  0  0  0  0  0  0
    0.5244    5.6773    0.2179 C   0  0  0  0  0  0  0  0  0  0  0  0
   -1.5894    7.0192   -1.1988 C   0  0  0  0  0  0  0  0  0  0  0  0
   -1.7363    8.2693   -0.6060 C   0  0  0  0  0  0  0  0  0  0  0  0
   -1.4810    9.4064   -1.3651 C   0  0  0  0  0  0  0  0  0  0  0  0
   -1.0989    9.2986   -2.6465 N   0  0  0  0  0  0  0  0  0  0  0  0
   -0.9526    8.1033   -3.2352 C   0  0  0  0  0  0  0  0  0  0  0  0
   -1.1934    6.9295   -2.5292 C   0  0  0  0  0  0  0  0  0  0  0  0
   -1.6389   10.7016   -0.7313 C   0  0  0  0  0  0  0  0  0  0  0  0
   -1.6226   10.9376    0.5642 O   0  0  0  0  0  0  0  0  0  0  0  0
   -1.8044   12.2160    0.8049 C   0  0  0  0  0  0  0  0  0  0  0  0
   -1.9490   12.8510   -0.3921 C   0  0  0  0  0  0  0  0  0  0  0  0
   -1.8427   11.8694   -1.4039 C   0  0  0  0  0  0  0  0  0  0  0  0
    2.9301    1.3163    4.3729 H   0  0  0  0  0  0  0  0  0  0  0  0
   -0.8180    3.0846   -0.5592 H   0  0  0  0  0  0  0  0  0  0  0  0
   -1.9900    3.4752    0.5087 H   0  0  0  0  0  0  0  0  0  0  0  0
   -0.5381    3.4034    2.2762 H   0  0  0  0  0  0  0  0  0  0  0  0
   -0.1963    2.0707    1.3965 H   0  0  0  0  0  0  0  0  0  0  0  0
    1.7009    3.1836    0.4491 H   0  0  0  0  0  0  0  0  0  0  0  0
    1.5987    3.3271    3.3622 H   0  0  0  0  0  0  0  0  0  0  0  0
    1.2682    1.0756    2.8049 H   0  0  0  0  0  0  0  0  0  0  0  0
    2.3342    1.1638    1.5710 H   0  0  0  0  0  0  0  0  0  0  0  0
    4.0800   -0.1808    2.2160 H   0  0  0  0  0  0  0  0  0  0  0  0
    3.0165   -0.8044    3.2868 H   0  0  0  0  0  0  0  0  0  0  0  0
    6.3436   -2.6198    7.2002 H   0  0  0  0  0  0  0  0  0  0  0  0
    4.9910   -1.3520    8.6962 H   0  0  0  0  0  0  0  0  0  0  0  0
    5.5457    0.0650    8.1037 H   0  0  0  0  0  0  0  0  0  0  0  0
    7.1468   -1.9406    9.5548 H   0  0  0  0  0  0  0  0  0  0  0  0
    7.3480   -0.3219    9.6306 H   0  0  0  0  0  0  0  0  0  0  0  0
    8.0183   -0.2063    7.3306 H   0  0  0  0  0  0  0  0  0  0  0  0
    8.5174   -1.7382    7.5966 H   0  0  0  0  0  0  0  0  0  0  0  0
    4.8720    1.8313    2.3914 H   0  0  0  0  0  0  0  0  0  0  0  0
    4.7399    2.5017    3.8745 H   0  0  0  0  0  0  0  0  0  0  0  0
    3.6603    4.2182    2.9989 H   0  0  0  0  0  0  0  0  0  0  0  0
    3.7824    3.5424    1.5173 H   0  0  0  0  0  0  0  0  0  0  0  0
    2.2571    5.3482    1.3070 H   0  0  0  0  0  0  0  0  0  0  0  0
    0.9071    5.3312    2.2256 H   0  0  0  0  0  0  0  0  0  0  0  0
    0.3770    6.6435    0.4291 H   0  0  0  0  0  0  0  0  0  0  0  0
    1.0573    5.5977   -0.6245 H   0  0  0  0  0  0  0  0  0  0  0  0
   -2.0205    8.3489    0.3494 H   0  0  0  0  0  0  0  0  0  0  0  0
   -0.6672    8.0551   -4.1924 H   0  0  0  0  0  0  0  0  0  0  0  0
   -1.0841    6.0383   -2.9696 H   0  0  0  0  0  0  0  0  0  0  0  0
   -1.8319   12.6470    1.7068 H   0  0  0  0  0  0  0  0  0  0  0  0
   -2.1019   13.8297   -0.5293 H   0  0  0  0  0  0  0  0  0  0  0  0
   -1.9036   12.0024   -2.3931 H   0  0  0  0  0  0  0  0  0  0  0  0
  1  2  2  0  0  0  0
  2  3  1  0  0  0  0
  3  4  1  0  0  0  0
  4  5  1  0  0  0  0
  5  6  1  0  0  0  0
  6  7  1  0  0  0  0
  7  8  1  0  0  0  0
  8  9  1  0  0  0  0
  9 10  1  0  0  0  0
 10 11  1  0  0  0  0
 11 12  1  0  0  0  0
 12 13  1  0  0  0  0
 13 14  2  0  0  0  0
 14 15  1  0  0  0  0
 11 15  2  0  0  0  0
 14 16  1  0  0  0  0
 16 17  1  0  0  0  0
 17 18  1  0  0  0  0
 18 19  1  0  0  0  0
 19 16  1  0  0  0  0
  9 20  1  0  0  0  0
 20 21  1  0  0  0  0
 21  7  1  0  0  0  0
  6 22  1  0  0  0  0
 22 23  1  0  0  0  0
 23  3  1  0  0  0  0
  2 24  1  0  0  0  0
 24 25  1  0  0  0  0
 25 26  2  0  0  0  0
 26 27  1  0  0  0  0
 27 28  2  0  0  0  0
 28 29  1  0  0  0  0
 29 24  2  0  0  0  0
 26 30  1  0  0  0  0
 30 31  1  0  0  0  0
 31 32  1  0  0  0  0
 32 33  2  0  0  0  0
 33 34  1  0  0  0  0
 30 34  2  0  0  0  0
  9 35  1  0  0  0  0
  4 36  1  0  0  0  0
  4 37  1  0  0  0  0
  5 38  1  0  0  0  0
  5 39  1  0  0  0  0
  6 40  1  0  0  0  0
  7 41  1  0  0  0  0
  8 42  1  0  0  0  0
  8 43  1  0  0  0  0
 10 44  1  0  0  0  0
 10 45  1  0  0  0  0
 16 46  1  0  0  0  0
 17 47  1  0  0  0  0
 17 48  1  0  0  0  0
 18 49  1  0  0  0  0
 18 50  1  0  0  0  0
 19 51  1  0  0  0  0
 19 52  1  0  0  0  0
 20 53  1  0  0  0  0
 20 54  1  0  0  0  0
 21 55  1  0  0  0  0
 21 56  1  0  0  0  0
 22 57  1  0  0  0  0
 22 58  1  0  0  0  0
 23 59  1  0  0  0  0
 23 60  1  0  0  0  0
 25 61  1  0  0  0  0
 28 62  1  0  0  0  0
 29 63  1  0  0  0  0
 32 64  1  0  0  0  0
 33 65  1  0  0  0  0
 34 66  1  0  0  0  0
M  CHG  1   9   1
M  END
>  <result-rank>
75

>  <similarity>
0.885

>  <query-name>


>  <query-smiles>
S1c2c(cccc2)C(C(=O)N3CCC([N@H+]4CC5(C(=O)N6N(C5=O)CCCC6)CCC4)CC3)=C1NC(=O)NC

>  <source>
REALspace_2019-12

>  <similarity-descriptor>
0.999;0.824;0.809;0.780;0.936;0.973;0.999;0.824;0.824;0.0;0.0;0.0

>  <similarity-descriptor-smiles>
N1CCCCC1;c1ccncc1;C1=CC=CO1;C1=NC=NO1;C1CC[NH+](C1)C;C1CCC1;O=C;c1ccncc1;c1ccncc1;;;

>  <reaction-name>
m_275030

>  <reagent1-name>
14114032

>  <reagent1-smiles>
[R2*]N1CC(C2CCN([R1*])CC2)CC1

>  <reagent2-name>
14125812

>  <reagent2-smiles>
[R1*]C(=O)c1cc(ncc1)C=2OC=CC2

>  <reagent3-name>
14148770

>  <reagent3-smiles>
[R2*]CC=1ON=C(N1)C2CCC2

$$$$
s_527a____4971024____157286
          04022017303D 1   1.00000     0.00000     0
            
 71 74  0  0  0  0            999 V2000
   -0.3369    6.4096    1.5180 S   0  0  0  0  0  0  0  0  0  0  0  0
    0.3239    7.1500    0.2497 C   0  0  0  0  0  0  0  0  0  0  0  0
    1.6843    7.2477    0.1001 N   0  0  0  0  0  0  0  0  0  0  0  0
    2.2328    7.8810   -0.9850 C   0  0  0  0  0  0  0  0  0  0  0  0
    3.4504    7.9437   -1.0748 O   0  0  0  0  0  0  0  0  0  0  0  0
    1.3701    8.4425   -1.9671 C   0  0  0  0  0  0  0  0  0  0  0  0
   -0.0064    8.3324   -1.7948 C   0  0  0  0  0  0  0  0  0  0  0  0
   -0.5096    7.6907   -0.6940 N   0  0  0  0  0  0  0  0  0  0  0  0
   -0.8731    8.8737   -2.7381 C   0  0  0  0  0  0  0  0  0  0  0  0
   -0.3647    9.5263   -3.8563 C   0  0  0  0  0  0  0  0  0  0  0  0
    1.0077    9.6454   -4.0461 C   0  0  0  0  0  0  0  0  0  0  0  0
    1.8603    9.0985   -3.0940 C   0  0  0  0  0  0  0  0  0  0  0  0
    2.5795    6.6679    1.1132 C   0  0  0  0  0  0  0  0  0  0  0  0
    2.8979    5.2283    0.7437 C   0  0  0  0  0  0  0  0  0  0  0  0
    3.8228    4.6292    1.7906 C   0  0  0  0  0  0  0  0  0  0  0  0
    4.8985    5.1212    1.9930 O   0  0  0  0  0  0  0  0  0  0  0  0
    3.4202    3.5041    2.5182 N   0  0  0  0  0  0  0  0  0  0  0  0
    4.3365    2.9451    3.5259 C   0  0  0  0  0  0  0  0  0  0  0  0
    4.2023    1.4336    3.6447 C   0  0  3  0  0  0  0  0  0  0  0  0
    4.9492    0.9974    4.8333 N   0  3  0  0  0  0  0  0  0  0  0  0
    4.3479    1.6808    5.9903 C   0  0  0  0  0  0  0  0  0  0  0  0
    5.0870    1.3809    7.2862 C   0  0  0  0  0  0  0  0  0  0  0  0
    6.5462    1.4555    7.1102 N   0  0  0  0  0  0  0  0  0  0  0  0
    7.3295    1.8902    8.1844 C   0  0  0  0  0  0  0  0  0  0  0  0
    6.8093    2.1930    9.2225 O   0  0  0  0  0  0  0  0  0  0  0  0
    8.6311    1.9668    8.0572 O   0  0  0  0  0  0  0  0  0  0  0  0
    9.4263    2.4081    9.1477 C   0  0  0  0  0  0  0  0  0  0  0  0
   10.8908    2.4052    8.7408 C   0  0  0  0  0  0  0  0  0  0  0  0
    9.0120    3.8172    9.5393 C   0  0  0  0  0  0  0  0  0  0  0  0
    9.2273    1.4744   10.3305 C   0  0  0  0  0  0  0  0  0  0  0  0
    7.2169    1.1068    5.8476 C   0  0  0  0  0  0  0  0  0  0  0  0
    6.3446    1.4279    4.6426 C   0  0  0  0  0  0  0  0  0  0  0  0
    2.7479    0.9948    3.7319 C   0  0  0  0  0  0  0  0  0  0  0  0
    2.0806    1.4171    2.4308 C   0  0  0  0  0  0  0  0  0  0  0  0
    2.0949    2.9269    2.2399 C   0  0  0  0  0  0  0  0  0  0  0  0
    4.8960    0.0046    4.9409 H   0  0  0  0  0  0  0  0  0  0  0  0
   -1.5000    7.6158   -0.5774 H   0  0  0  0  0  0  0  0  0  0  0  0
   -1.8619    8.7937   -2.6125 H   0  0  0  0  0  0  0  0  0  0  0  0
   -0.9928    9.9140   -4.5310 H   0  0  0  0  0  0  0  0  0  0  0  0
    1.3734   10.1144   -4.8500 H   0  0  0  0  0  0  0  0  0  0  0  0
    2.8490    9.1779   -3.2211 H   0  0  0  0  0  0  0  0  0  0  0  0
    2.1312    6.6913    2.0068 H   0  0  0  0  0  0  0  0  0  0  0  0
    3.4270    7.1974    1.1515 H   0  0  0  0  0  0  0  0  0  0  0  0
    2.0505    4.6988    0.7054 H   0  0  0  0  0  0  0  0  0  0  0  0
    3.3462    5.2049   -0.1498 H   0  0  0  0  0  0  0  0  0  0  0  0
    4.1309    3.3579    4.4132 H   0  0  0  0  0  0  0  0  0  0  0  0
    5.2763    3.1660    3.2651 H   0  0  0  0  0  0  0  0  0  0  0  0
    4.6145    1.0124    2.8368 H   0  0  0  0  0  0  0  0  0  0  0  0
    3.3990    1.3797    6.0841 H   0  0  0  0  0  0  0  0  0  0  0  0
    4.3702    2.6673    5.8283 H   0  0  0  0  0  0  0  0  0  0  0  0
    4.8096    2.0465    7.9790 H   0  0  0  0  0  0  0  0  0  0  0  0
    4.8441    0.4604    7.5923 H   0  0  0  0  0  0  0  0  0  0  0  0
   11.4508    2.7160    9.5087 H   0  0  0  0  0  0  0  0  0  0  0  0
   11.1633    1.4782    8.4831 H   0  0  0  0  0  0  0  0  0  0  0  0
   11.0217    3.0196    7.9626 H   0  0  0  0  0  0  0  0  0  0  0  0
    9.5720    4.1280   10.3073 H   0  0  0  0  0  0  0  0  0  0  0  0
    9.1430    4.4315    8.7612 H   0  0  0  0  0  0  0  0  0  0  0  0
    8.0486    3.8191    9.8071 H   0  0  0  0  0  0  0  0  0  0  0  0
    9.7873    1.7851   11.0985 H   0  0  0  0  0  0  0  0  0  0  0  0
    8.2638    1.4763   10.5982 H   0  0  0  0  0  0  0  0  0  0  0  0
    9.4998    0.5473   10.0728 H   0  0  0  0  0  0  0  0  0  0  0  0
    7.4215    0.1279    5.8484 H   0  0  0  0  0  0  0  0  0  0  0  0
    8.0691    1.6254    5.7788 H   0  0  0  0  0  0  0  0  0  0  0  0
    6.3584    2.4161    4.4896 H   0  0  0  0  0  0  0  0  0  0  0  0
    6.7186    0.9613    3.8411 H   0  0  0  0  0  0  0  0  0  0  0  0
    2.3004    1.4392    4.5080 H   0  0  0  0  0  0  0  0  0  0  0  0
    2.6939    0.0021    3.8397 H   0  0  0  0  0  0  0  0  0  0  0  0
    2.5660    0.9915    1.6671 H   0  0  0  0  0  0  0  0  0  0  0  0
    1.1313    1.1027    2.4391 H   0  0  0  0  0  0  0  0  0  0  0  0
    1.8437    3.1354    1.2947 H   0  0  0  0  0  0  0  0  0  0  0  0
    1.4269    3.3373    2.8606 H   0  0  0  0  0  0  0  0  0  0  0  0
  1  2  2  0  0  0  0
  2  3  1  0  0  0  0
  3  4  1  0  0  0  0
  4  5  2  0  0  0  0
  4  6  1  0  0  0  0
  6  7  1  0  0  0  0
  7  8  1  0  0  0  0
  8  2  1  0  0  0  0
  7  9  2  0  0  0  0
  9 10  1  0  0  0  0
 10 11  2  0  0  0  0
 11 12  1  0  0  0  0
 12  6  2  0  0  0  0
  3 13  1  0  0  0  0
 13 14  1  0  0  0  0
 14 15  1  0  0  0  0
 15 16  2  0  0  0  0
 15 17  1  0  0  0  0
 17 18  1  0  0  0  0
 18 19  1  0  0  0  0
 19 20  1  0  0  0  0
 20 21  1  0  0  0  0
 21 22  1  0  0  0  0
 22 23  1  0  0  0  0
 23 24  1  0  0  0  0
 24 25  2  0  0  0  0
 24 26  1  0  0  0  0
 26 27  1  0  0  0  0
 27 28  1  0  0  0  0
 27 29  1  0  0  0  0
 27 30  1  0  0  0  0
 23 31  1  0  0  0  0
 31 32  1  0  0  0  0
 32 20  1  0  0  0  0
 19 33  1  0  0  0  0
 33 34  1  0  0  0  0
 34 35  1  0  0  0  0
 35 17  1  0  0  0  0
 20 36  1  0  0  0  0
  8 37  1  0  0  0  0
  9 38  1  0  0  0  0
 10 39  1  0  0  0  0
 11 40  1  0  0  0  0
 12 41  1  0  0  0  0
 13 42  1  0  0  0  0
 13 43  1  0  0  0  0
 14 44  1  0  0  0  0
 14 45  1  0  0  0  0
 18 46  1  0  0  0  0
 18 47  1  0  0  0  0
 19 48  1  0  0  0  0
 21 49  1  0  0  0  0
 21 50  1  0  0  0  0
 22 51  1  0  0  0  0
 22 52  1  0  0  0  0
 28 53  1  0  0  0  0
 28 54  1  0  0  0  0
 28 55  1  0  0  0  0
 29 56  1  0  0  0  0
 29 57  1  0  0  0  0
 29 58  1  0  0  0  0
 30 59  1  0  0  0  0
 30 60  1  0  0  0  0
 30 61  1  0  0  0  0
 31 62  1  0  0  0  0
 31 63  1  0  0  0  0
 32 64  1  0  0  0  0
 32 65  1  0  0  0  0
 33 66  1  0  0  0  0
 33 67  1  0  0  0  0
 34 68  1  0  0  0  0
 34 69  1  0  0  0  0
 35 70  1  0  0  0  0
 35 71  1  0  0  0  0
M  CHG  1  20   1
M  END
>  <result-rank>
76

>  <similarity>
0.885

>  <query-name>


>  <query-smiles>
S1c2c(cccc2)C(C(=O)N3CCC([N@H+]4CC5(C(=O)N6N(C5=O)CCCC6)CCC4)CC3)=C1NC(=O)NC

>  <source>
REALspace_2019-12

>  <similarity-descriptor>
1.000;0.866;0.999;0.708;0.995;0.795;0.774;0.866;0.866;0.0;0.0;0.0

>  <similarity-descriptor-smiles>
N1CCCCC1;S=C1NccC(N1)=O;c1ccccc1;C(=O)O;[NH+]1CCNCC1;C(C)(C)C;CCC=O;S=C1NccC(N1)=O;S=C1NccC(N1)=O;;;

>  <reaction-name>
s_527a

>  <reagent1-name>
4971024

>  <reagent1-smiles>
[R1*]N1CC(N2CCN(C(=O)OC(C)(C)C)CC2)CCC1

>  <reagent2-name>
157286

>  <reagent2-smiles>
[R1*]C(=O)CCN1C(=S)Nc2c(cccc2)C1=O

$$$$
m_275592____15865406____15846026____14134194
          04022017303D 1   1.00000     0.00000     0
            
 71 76  0  0  0  0            999 V2000
   -0.1125   -0.3214   -1.0971 O   0  0  0  0  0  0  0  0  0  0  0  0
    0.9432    0.2011   -1.3260 C   0  0  0  0  0  0  0  0  0  0  0  0
    1.5673    0.9387   -0.3547 N   0  0  0  0  0  0  0  0  0  0  0  0
    1.0000    1.0000    1.0000 C   0  0  0  0  0  0  0  0  0  0  0  0
    1.8794    1.8794    1.8794 C   0  0  3  0  0  0  0  0  0  0  0  0
    1.4908    1.8717    3.3464 C   0  0  3  0  0  0  0  0  0  0  0  0
    1.9222    0.5931    4.0535 C   0  0  0  0  0  0  0  0  0  0  0  0
    1.5280    0.5146    5.5245 C   0  0  0  0  0  0  0  0  0  0  0  0
    0.1279    0.9331    5.7137 N   0  0  0  0  0  0  0  0  0  0  0  0
   -0.6379    0.2487    6.6625 C   0  0  0  0  0  0  0  0  0  0  0  0
   -0.1275   -0.5875    7.3555 O   0  0  0  0  0  0  0  0  0  0  0  0
   -2.1166    0.5640    6.8163 C   0  0  3  0  0  0  0  0  0  0  0  0
   -2.8343   -0.5894    7.2509 O   0  0  0  0  0  0  0  0  0  0  0  0
   -3.8899   -0.1892    8.1146 C   0  0  0  0  0  0  0  0  0  0  0  0
   -3.8031    1.3105    8.3211 C   0  0  0  0  0  0  0  0  0  0  0  0
   -2.3324    1.4909    8.0026 C   0  0  0  0  0  0  0  0  0  0  0  0
   -4.7958    2.1311    7.5194 C   0  0  0  0  0  0  0  0  0  0  0  0
   -4.7974    3.5033    8.1589 C   0  0  0  0  0  0  0  0  0  0  0  0
   -4.4328    3.2669    9.6118 C   0  0  0  0  0  0  0  0  0  0  0  0
   -4.1726    1.7714    9.7180 C   0  0  0  0  0  0  0  0  0  0  0  0
   -0.5164    2.0175    4.9594 C   0  0  0  0  0  0  0  0  0  0  0  0
   -0.0236    1.9310    3.5241 C   0  0  0  0  0  0  0  0  0  0  0  0
    2.3341    3.0582    3.7611 C   0  0  0  0  0  0  0  0  0  0  0  0
    2.0010    4.1194    2.7317 C   0  0  0  0  0  0  0  0  0  0  0  0
    1.7331    3.3329    1.4675 C   0  0  0  0  0  0  0  0  0  0  0  0
    1.5593    0.0516   -2.6324 C   0  0  0  0  0  0  0  0  0  0  0  0
    0.9526    0.4744   -3.8146 C   0  0  0  0  0  0  0  0  0  0  0  0
    1.6331    0.2819   -5.0140 C   0  0  0  0  0  0  0  0  0  0  0  0
    2.8412   -0.2993   -4.9923 N   0  0  0  0  0  0  0  0  0  0  0  0
    3.4025   -0.6900   -3.8953 N   0  0  0  0  0  0  0  0  0  0  0  0
    2.8157   -0.5410   -2.6969 C   0  0  0  0  0  0  0  0  0  0  0  0
    1.0470    0.6956   -6.2060 C   0  0  0  0  0  0  0  0  0  0  0  0
   -0.2071    1.2985   -6.2215 C   0  0  0  0  0  0  0  0  0  0  0  0
   -0.8973    1.4970   -5.0310 C   0  0  0  0  0  0  0  0  0  0  0  0
   -0.3023    1.0809   -3.8452 C   0  0  0  0  0  0  0  0  0  0  0  0
    2.4088    1.4355   -0.5674 H   0  0  0  0  0  0  0  0  0  0  0  0
    0.9583    0.0784    1.3859 H   0  0  0  0  0  0  0  0  0  0  0  0
    0.0784    1.3859    0.9583 H   0  0  0  0  0  0  0  0  0  0  0  0
    2.8346    1.5990    1.7846 H   0  0  0  0  0  0  0  0  0  0  0  0
    2.9181    0.5249    3.9939 H   0  0  0  0  0  0  0  0  0  0  0  0
    1.5060   -0.1817    3.5777 H   0  0  0  0  0  0  0  0  0  0  0  0
    1.6345   -0.4275    5.8427 H   0  0  0  0  0  0  0  0  0  0  0  0
    2.1246    1.1155    6.0564 H   0  0  0  0  0  0  0  0  0  0  0  0
   -2.5025    0.9441    5.9757 H   0  0  0  0  0  0  0  0  0  0  0  0
   -3.8008   -0.6562    8.9943 H   0  0  0  0  0  0  0  0  0  0  0  0
   -4.7702   -0.4221    7.7012 H   0  0  0  0  0  0  0  0  0  0  0  0
   -1.7618    1.2197    8.7778 H   0  0  0  0  0  0  0  0  0  0  0  0
   -2.1325    2.4395    7.7574 H   0  0  0  0  0  0  0  0  0  0  0  0
   -5.7070    1.7220    7.5679 H   0  0  0  0  0  0  0  0  0  0  0  0
   -4.5079    2.1914    6.5637 H   0  0  0  0  0  0  0  0  0  0  0  0
   -5.7029    3.9217    8.0885 H   0  0  0  0  0  0  0  0  0  0  0  0
   -4.1216    4.0954    7.7199 H   0  0  0  0  0  0  0  0  0  0  0  0
   -3.6126    3.7841    9.8563 H   0  0  0  0  0  0  0  0  0  0  0  0
   -5.1871    3.5353   10.2110 H   0  0  0  0  0  0  0  0  0  0  0  0
   -3.4205    1.5939   10.3527 H   0  0  0  0  0  0  0  0  0  0  0  0
   -4.9944    1.2975   10.0342 H   0  0  0  0  0  0  0  0  0  0  0  0
   -0.2672    2.9023    5.3532 H   0  0  0  0  0  0  0  0  0  0  0  0
   -1.5101    1.9087    4.9863 H   0  0  0  0  0  0  0  0  0  0  0  0
   -0.4134    1.1061    3.1147 H   0  0  0  0  0  0  0  0  0  0  0  0
   -0.3589    2.7362    3.0351 H   0  0  0  0  0  0  0  0  0  0  0  0
    3.3073    2.8297    3.7345 H   0  0  0  0  0  0  0  0  0  0  0  0
    2.0887    3.3650    4.6807 H   0  0  0  0  0  0  0  0  0  0  0  0
    2.7707    4.7450    2.6046 H   0  0  0  0  0  0  0  0  0  0  0  0
    1.1913    4.6383    3.0057 H   0  0  0  0  0  0  0  0  0  0  0  0
    0.8092    3.5125    1.1297 H   0  0  0  0  0  0  0  0  0  0  0  0
    2.3986    3.5673    0.7588 H   0  0  0  0  0  0  0  0  0  0  0  0
    3.2747   -0.8511   -1.8643 H   0  0  0  0  0  0  0  0  0  0  0  0
    1.5358    0.5571   -7.0673 H   0  0  0  0  0  0  0  0  0  0  0  0
   -0.6117    1.5889   -7.0886 H   0  0  0  0  0  0  0  0  0  0  0  0
   -1.7995    1.9285   -5.0277 H   0  0  0  0  0  0  0  0  0  0  0  0
   -0.7915    1.2215   -2.9844 H   0  0  0  0  0  0  0  0  0  0  0  0
  1  2  2  0  0  0  0
  2  3  1  0  0  0  0
  3  4  1  0  0  0  0
  4  5  1  0  0  0  0
  5  6  1  0  0  0  0
  6  7  1  0  0  0  0
  7  8  1  0  0  0  0
  8  9  1  0  0  0  0
  9 10  1  0  0  0  0
 10 11  2  0  0  0  0
 10 12  1  0  0  0  0
 12 13  1  0  0  0  0
 13 14  1  0  0  0  0
 14 15  1  0  0  0  0
 15 16  1  0  0  0  0
 16 12  1  0  0  0  0
 15 17  1  0  0  0  0
 17 18  1  0  0  0  0
 18 19  1  0  0  0  0
 19 20  1  0  0  0  0
 20 15  1  0  0  0  0
  9 21  1  0  0  0  0
 21 22  1  0  0  0  0
 22  6  1  0  0  0  0
  6 23  1  0  0  0  0
 23 24  1  0  0  0  0
 24 25  1  0  0  0  0
 25  5  1  0  0  0  0
  2 26  1  0  0  0  0
 26 27  1  0  0  0  0
 27 28  2  0  0  0  0
 28 29  1  0  0  0  0
 29 30  2  0  0  0  0
 30 31  1  0  0  0  0
 31 26  2  0  0  0  0
 28 32  1  0  0  0  0
 32 33  2  0  0  0  0
 33 34  1  0  0  0  0
 34 35  2  0  0  0  0
 35 27  1  0  0  0  0
  3 36  1  0  0  0  0
  4 37  1  0  0  0  0
  4 38  1  0  0  0  0
  5 39  1  0  0  0  0
  7 40  1  0  0  0  0
  7 41  1  0  0  0  0
  8 42  1  0  0  0  0
  8 43  1  0  0  0  0
 12 44  1  0  0  0  0
 14 45  1  0  0  0  0
 14 46  1  0  0  0  0
 16 47  1  0  0  0  0
 16 48  1  0  0  0  0
 17 49  1  0  0  0  0
 17 50  1  0  0  0  0
 18 51  1  0  0  0  0
 18 52  1  0  0  0  0
 19 53  1  0  0  0  0
 19 54  1  0  0  0  0
 20 55  1  0  0  0  0
 20 56  1  0  0  0  0
 21 57  1  0  0  0  0
 21 58  1  0  0  0  0
 22 59  1  0  0  0  0
 22 60  1  0  0  0  0
 23 61  1  0  0  0  0
 23 62  1  0  0  0  0
 24 63  1  0  0  0  0
 24 64  1  0  0  0  0
 25 65  1  0  0  0  0
 25 66  1  0  0  0  0
 31 67  1  0  0  0  0
 32 68  1  0  0  0  0
 33 69  1  0  0  0  0
 34 70  1  0  0  0  0
 35 71  1  0  0  0  0
M  END
>  <result-rank>
77

>  <similarity>
0.884

>  <query-name>


>  <query-smiles>
S1c2c(cccc2)C(C(=O)N3CCC([N@H+]4CC5(C(=O)N6N(C5=O)CCCC6)CCC4)CC3)=C1NC(=O)NC

>  <source>
REALspace_2019-12

>  <similarity-descriptor>
0.995;0.813;1.000;0.796;0.808;0.993;0.851;0.813;0.813;0.0;0.0;0.0

>  <similarity-descriptor-smiles>
CC1CCCC1;c1cnncc1;c1ccccc1;C(=O)C1CCCO1;C1CCNCC1;C1CCCC1;O=CN;c1cnncc1;c1cnncc1;;;

>  <reaction-name>
m_275592

>  <reagent1-name>
15865406

>  <reagent1-smiles>
[R2*]N1CCC2(C(CN[R1*])CCC2)CC1

>  <reagent2-name>
15846026

>  <reagent2-smiles>
[R1*]C(=O)C1OCC2(C1)CCCC2

>  <reagent3-name>
14134194

>  <reagent3-smiles>
[R2*]C(=O)c1c2c(nnc1)cccc2

$$$$
m_275030____14114236____14123822____14148758
          04022017303D 1   1.00000     0.00000     0
            
 66 71  0  0  0  0            999 V2000
    4.8848    5.1280    2.0014 O   0  0  0  0  0  0  0  0  0  0  0  0
    3.8110    4.6328    1.7976 C   0  0  0  0  0  0  0  0  0  0  0  0
    3.4087    3.5093    2.5281 N   0  0  0  0  0  0  0  0  0  0  0  0
    4.3233    2.9558    3.5406 C   0  0  0  0  0  0  0  0  0  0  0  0
    4.1958    1.4438    3.6644 C   0  0  3  0  0  0  0  0  0  0  0  0
    4.9585    1.0023    4.9033 C   0  0  3  0  0  0  0  0  0  0  0  0
    4.3905    1.6614    6.1428 C   0  0  0  0  0  0  0  0  0  0  0  0
    4.8851    0.8040    7.2273 N   0  3  3  0  0  0  0  0  0  0  0  0
    4.0576    1.0166    8.4240 C   0  0  0  0  0  0  0  0  0  0  0  0
    4.5626    0.1324    9.5530 C   0  0  0  0  0  0  0  0  0  0  0  0
    5.4710    0.4616   10.4366 N   0  0  0  0  0  0  0  0  0  0  0  0
    5.6364   -0.5178   11.2198 O   0  0  0  0  0  0  0  0  0  0  0  0
    4.8444   -1.5018   10.8722 C   0  0  0  0  0  0  0  0  0  0  0  0
    4.1476   -1.1354    9.8249 N   0  0  0  0  0  0  0  0  0  0  0  0
    4.7454   -2.8527   11.5695 C   0  0  0  0  0  0  0  0  0  0  0  0
    3.3511   -3.1213   12.1005 C   0  0  0  0  0  0  0  0  0  0  0  0
    4.0246   -3.7831   13.2826 C   0  0  0  0  0  0  0  0  0  0  0  0
    5.1922   -2.8515   13.0150 C   0  0  0  0  0  0  0  0  0  0  0  0
    4.6655   -0.5547    6.7173 C   0  0  0  0  0  0  0  0  0  0  0  0
    4.7002   -0.4632    5.2070 C   0  0  0  0  0  0  0  0  0  0  0  0
    2.7443    0.9913    3.7385 C   0  0  0  0  0  0  0  0  0  0  0  0
    2.0724    1.4186    2.4401 C   0  0  0  0  0  0  0  0  0  0  0  0
    2.0852    2.9288    2.2459 C   0  0  0  0  0  0  0  0  0  0  0  0
    2.9302    5.1986    0.7942 C   0  0  0  0  0  0  0  0  0  0  0  0
    3.0031    4.7389   -0.5482 C   0  0  0  0  0  0  0  0  0  0  0  0
    3.7990    3.8711   -0.8694 O   0  0  0  0  0  0  0  0  0  0  0  0
    2.1542    5.2988   -1.4668 N   0  0  0  0  0  0  0  0  0  0  0  0
    1.2639    6.2721   -1.0950 C   0  0  0  0  0  0  0  0  0  0  0  0
    1.1801    6.7209    0.1798 N   0  0  0  0  0  0  0  0  0  0  0  0
    0.2483    7.6488    0.2718 N   0  0  0  0  0  0  0  0  0  0  0  0
   -0.2910    7.8358   -0.9072 C   0  0  0  0  0  0  0  0  0  0  0  0
    0.3395    6.9616   -1.8186 C   0  0  0  0  0  0  0  0  0  0  0  0
   -1.4024    8.8201   -1.2348 C   0  0  0  0  0  0  0  0  0  0  0  0
    2.0208    6.1733    1.1134 C   0  0  0  0  0  0  0  0  0  0  0  0
    5.8525    0.9728    7.4159 H   0  0  0  0  0  0  0  0  0  0  0  0
    4.1128    3.3705    4.4259 H   0  0  0  0  0  0  0  0  0  0  0  0
    5.2632    3.1798    3.2827 H   0  0  0  0  0  0  0  0  0  0  0  0
    4.6198    1.0223    2.8629 H   0  0  0  0  0  0  0  0  0  0  0  0
    5.9371    1.1862    4.8112 H   0  0  0  0  0  0  0  0  0  0  0  0
    4.7303    2.5968    6.2405 H   0  0  0  0  0  0  0  0  0  0  0  0
    3.3908    1.6707    6.1192 H   0  0  0  0  0  0  0  0  0  0  0  0
    3.1072    0.7837    8.2178 H   0  0  0  0  0  0  0  0  0  0  0  0
    4.1131    1.9757    8.7015 H   0  0  0  0  0  0  0  0  0  0  0  0
    5.1227   -3.6085   11.0342 H   0  0  0  0  0  0  0  0  0  0  0  0
    2.7973   -3.7333   11.5359 H   0  0  0  0  0  0  0  0  0  0  0  0
    2.8216   -2.3027   12.3230 H   0  0  0  0  0  0  0  0  0  0  0  0
    4.2256   -4.7554   13.1627 H   0  0  0  0  0  0  0  0  0  0  0  0
    3.5669   -3.6432   14.1606 H   0  0  0  0  0  0  0  0  0  0  0  0
    5.1347   -1.9638   13.4718 H   0  0  0  0  0  0  0  0  0  0  0  0
    6.0944   -3.2515   13.1763 H   0  0  0  0  0  0  0  0  0  0  0  0
    3.7767   -0.8976    7.0215 H   0  0  0  0  0  0  0  0  0  0  0  0
    5.3874   -1.1657    7.0422 H   0  0  0  0  0  0  0  0  0  0  0  0
    5.4347   -1.0326    4.8379 H   0  0  0  0  0  0  0  0  0  0  0  0
    3.8259   -0.7532    4.8179 H   0  0  0  0  0  0  0  0  0  0  0  0
    2.2900    1.4234    4.5176 H   0  0  0  0  0  0  0  0  0  0  0  0
    2.6999   -0.0029    3.8361 H   0  0  0  0  0  0  0  0  0  0  0  0
    2.5545    0.9928    1.6745 H   0  0  0  0  0  0  0  0  0  0  0  0
    1.1230    1.1049    2.4521 H   0  0  0  0  0  0  0  0  0  0  0  0
    1.8372    3.1348    1.2993 H   0  0  0  0  0  0  0  0  0  0  0  0
    1.4141    3.3395    2.8632 H   0  0  0  0  0  0  0  0  0  0  0  0
    2.1847    4.9939   -2.4187 H   0  0  0  0  0  0  0  0  0  0  0  0
    0.1468    6.8680   -2.7954 H   0  0  0  0  0  0  0  0  0  0  0  0
   -1.6255    8.7592   -2.2077 H   0  0  0  0  0  0  0  0  0  0  0  0
   -2.2133    8.5999   -0.6926 H   0  0  0  0  0  0  0  0  0  0  0  0
   -1.0996    9.7485   -1.0198 H   0  0  0  0  0  0  0  0  0  0  0  0
    1.9691    6.4954    2.0587 H   0  0  0  0  0  0  0  0  0  0  0  0
  1  2  2  0  0  0  0
  2  3  1  0  0  0  0
  3  4  1  0  0  0  0
  4  5  1  0  0  0  0
  5  6  1  0  0  0  0
  6  7  1  0  0  0  0
  7  8  1  0  0  0  0
  8  9  1  0  0  0  0
  9 10  1  0  0  0  0
 10 11  2  0  0  0  0
 11 12  1  0  0  0  0
 12 13  1  0  0  0  0
 13 14  2  0  0  0  0
 14 10  1  0  0  0  0
 13 15  1  0  0  0  0
 15 16  1  0  0  0  0
 16 17  1  0  0  0  0
 17 18  1  0  0  0  0
 18 15  1  0  0  0  0
  8 19  1  0  0  0  0
 19 20  1  0  0  0  0
 20  6  1  0  0  0  0
  5 21  1  0  0  0  0
 21 22  1  0  0  0  0
 22 23  1  0  0  0  0
 23  3  1  0  0  0  0
  2 24  1  0  0  0  0
 24 25  1  0  0  0  0
 25 26  2  0  0  0  0
 25 27  1  0  0  0  0
 27 28  1  0  0  0  0
 28 29  1  0  0  0  0
 29 30  1  0  0  0  0
 30 31  2  0  0  0  0
 31 32  1  0  0  0  0
 28 32  2  0  0  0  0
 31 33  1  0  0  0  0
 29 34  1  0  0  0  0
 24 34  2  0  0  0  0
  8 35  1  0  0  0  0
  4 36  1  0  0  0  0
  4 37  1  0  0  0  0
  5 38  1  0  0  0  0
  6 39  1  0  0  0  0
  7 40  1  0  0  0  0
  7 41  1  0  0  0  0
  9 42  1  0  0  0  0
  9 43  1  0  0  0  0
 15 44  1  0  0  0  0
 16 45  1  0  0  0  0
 16 46  1  0  0  0  0
 17 47  1  0  0  0  0
 17 48  1  0  0  0  0
 18 49  1  0  0  0  0
 18 50  1  0  0  0  0
 19 51  1  0  0  0  0
 19 52  1  0  0  0  0
 20 53  1  0  0  0  0
 20 54  1  0  0  0  0
 21 55  1  0  0  0  0
 21 56  1  0  0  0  0
 22 57  1  0  0  0  0
 22 58  1  0  0  0  0
 23 59  1  0  0  0  0
 23 60  1  0  0  0  0
 27 61  1  0  0  0  0
 32 62  1  0  0  0  0
 33 63  1  0  0  0  0
 33 64  1  0  0  0  0
 33 65  1  0  0  0  0
 34 66  1  0  0  0  0
M  CHG  1   8   1
M  END
>  <result-rank>
78

>  <similarity>
0.884

>  <query-name>


>  <query-smiles>
S1c2c(cccc2)C(C(=O)N3CCC([N@H+]4CC5(C(=O)N6N(C5=O)CCCC6)CCC4)CC3)=C1NC(=O)NC

>  <source>
REALspace_2019-12

>  <similarity-descriptor>
0.999;0.918;0.680;0.780;0.936;0.973;1.000;0.918;0.918;0.0;0.0;0.0

>  <similarity-descriptor-smiles>
N1CCCCC1;C1=CNCNC1=O;C1=CC(=NN1)C;C=1N=CON1;C1CC[NH+](C1)C;C1CCC1;O=C;C1=CNCNC1=O;C1=CNCNC1=O;;;

>  <reaction-name>
m_275030

>  <reagent1-name>
14114236

>  <reagent1-smiles>
[R2*]N1CC(C2CN([R1*])CCC2)CC1

>  <reagent2-name>
14123822

>  <reagent2-smiles>
[R1*]C(=O)C=1C(=O)NC=2N(N=C(C2)C)C1

>  <reagent3-name>
14148758

>  <reagent3-smiles>
[R2*]CC1=NOC(=N1)C2CCC2

$$$$
m_275030____14114100____14126114____14145954
          04022017303D 1   1.00000     0.00000     0
            
 84 89  0  0  0  0            999 V2000
    2.1412    7.2784    6.9837 O   0  0  0  0  0  0  0  0  0  0  0  0
    3.2657    6.9274    7.2127 C   0  0  0  0  0  0  0  0  0  0  0  0
    3.6937    5.6444    6.8283 N   0  0  0  0  0  0  0  0  0  0  0  0
    2.7891    4.7094    6.1448 C   0  0  0  0  0  0  0  0  0  0  0  0
    3.6156    3.7927    5.2571 C   0  0  3  0  0  0  0  0  0  0  0  0
    2.7170    2.8991    4.4125 C   0  0  3  0  0  0  0  0  0  0  0  0
    3.5542    1.9056    3.6232 C   0  0  0  0  0  0  0  0  0  0  0  0
    2.6567    1.0287    2.7649 C   0  0  0  0  0  0  0  0  0  0  0  0
    1.8500    1.8500    1.8500 N   0  3  3  0  0  0  0  0  0  0  0  0
    1.0000    1.0000    1.0000 C   0  0  0  0  0  0  0  0  0  0  0  0
    1.8770    0.1547    0.0907 C   0  0  0  0  0  0  0  0  0  0  0  0
    2.8558    0.6328   -0.4126 O   0  0  0  0  0  0  0  0  0  0  0  0
    1.5434   -1.1790   -0.1592 N   0  0  0  0  0  0  0  0  0  0  0  0
    2.4772   -1.9938   -0.9535 C   0  0  0  0  0  0  0  0  0  0  0  0
    1.7522   -3.0413   -1.7872 C   0  0  0  0  0  0  0  0  0  0  0  0
    0.6906   -3.7820   -0.9863 C   0  0  3  0  0  0  0  0  0  0  0  0
   -0.0216   -4.7362   -1.9317 C   0  0  0  0  0  0  0  0  0  0  0  0
    0.7942   -6.0112   -2.0744 C   0  0  0  0  0  0  0  0  0  0  0  0
    1.2627   -6.3929   -3.3273 C   0  0  0  0  0  0  0  0  0  0  0  0
    2.0080   -7.5606   -3.4536 C   0  0  0  0  0  0  0  0  0  0  0  0
    2.2810   -8.3362   -2.3317 C   0  0  0  0  0  0  0  0  0  0  0  0
    1.8084   -7.9448   -1.0851 C   0  0  0  0  0  0  0  0  0  0  0  0
    1.0614   -6.7797   -0.9458 C   0  0  0  0  0  0  0  0  0  0  0  0
   -0.3367   -2.7608   -0.5186 C   0  0  0  0  0  0  0  0  0  0  0  0
    0.2751   -1.6959    0.3812 C   0  0  0  0  0  0  0  0  0  0  0  0
    1.0339    2.8362    2.5737 C   0  0  0  0  0  0  0  0  0  0  0  0
    1.9146    3.7343    3.4277 C   0  0  0  0  0  0  0  0  0  0  0  0
    4.4517    2.8990    6.1579 C   0  0  0  0  0  0  0  0  0  0  0  0
    5.0411    3.6640    7.3337 C   0  0  0  0  0  0  0  0  0  0  0  0
    5.0590    5.1645    7.0871 C   0  0  0  0  0  0  0  0  0  0  0  0
    4.1815    7.8248    7.8845 C   0  0  0  0  0  0  0  0  0  0  0  0
    5.3449    8.2159    7.2736 N   0  0  0  0  0  0  0  0  0  0  0  0
    6.2237    9.0641    7.8959 C   0  0  0  0  0  0  0  0  0  0  0  0
    5.9399    9.5449    9.1712 C   0  0  0  0  0  0  0  0  0  0  0  0
    6.8470   10.4058    9.7839 C   0  0  0  0  0  0  0  0  0  0  0  0
    8.0236   10.7951    9.1541 C   0  0  0  0  0  0  0  0  0  0  0  0
    8.2886   10.3050    7.8803 C   0  0  0  0  0  0  0  0  0  0  0  0
    7.3962    9.4442    7.2505 C   0  0  0  0  0  0  0  0  0  0  0  0
    4.7334    9.1418    9.8095 C   0  0  0  0  0  0  0  0  0  0  0  0
    4.4230    9.5247   10.9276 O   0  0  0  0  0  0  0  0  0  0  0  0
    3.8440    8.2616    9.1383 C   0  0  0  0  0  0  0  0  0  0  0  0
    2.4774    2.3502    1.2532 H   0  0  0  0  0  0  0  0  0  0  0  0
    2.1365    5.2207    5.5856 H   0  0  0  0  0  0  0  0  0  0  0  0
    2.2934    4.1653    6.8217 H   0  0  0  0  0  0  0  0  0  0  0  0
    4.2116    4.3356    4.6655 H   0  0  0  0  0  0  0  0  0  0  0  0
    2.0898    2.4007    5.0111 H   0  0  0  0  0  0  0  0  0  0  0  0
    4.0693    1.3297    4.2581 H   0  0  0  0  0  0  0  0  0  0  0  0
    4.1902    2.4040    3.0341 H   0  0  0  0  0  0  0  0  0  0  0  0
    3.2238    0.4022    2.2302 H   0  0  0  0  0  0  0  0  0  0  0  0
    2.0471    0.5027    3.3580 H   0  0  0  0  0  0  0  0  0  0  0  0
    0.4018    1.5770    0.4439 H   0  0  0  0  0  0  0  0  0  0  0  0
    0.4439    0.4018    1.5770 H   0  0  0  0  0  0  0  0  0  0  0  0
    3.1104   -2.4565   -0.3331 H   0  0  0  0  0  0  0  0  0  0  0  0
    2.9903   -1.3923   -1.5658 H   0  0  0  0  0  0  0  0  0  0  0  0
    1.3124   -2.5877   -2.5623 H   0  0  0  0  0  0  0  0  0  0  0  0
    2.4213   -3.7037   -2.1244 H   0  0  0  0  0  0  0  0  0  0  0  0
    1.0944   -4.2711   -0.2131 H   0  0  0  0  0  0  0  0  0  0  0  0
   -0.9247   -4.9578   -1.5639 H   0  0  0  0  0  0  0  0  0  0  0  0
   -0.1234   -4.3037   -2.8276 H   0  0  0  0  0  0  0  0  0  0  0  0
    1.0651   -5.8320   -4.1313 H   0  0  0  0  0  0  0  0  0  0  0  0
    2.3476   -7.8425   -4.3509 H   0  0  0  0  0  0  0  0  0  0  0  0
    2.8174   -9.1753   -2.4223 H   0  0  0  0  0  0  0  0  0  0  0  0
    2.0069   -8.5055   -0.2812 H   0  0  0  0  0  0  0  0  0  0  0  0
    0.7217   -6.4987   -0.0483 H   0  0  0  0  0  0  0  0  0  0  0  0
   -1.0550   -3.2366   -0.0110 H   0  0  0  0  0  0  0  0  0  0  0  0
   -0.7345   -2.3146   -1.3202 H   0  0  0  0  0  0  0  0  0  0  0  0
   -0.3710   -0.9377    0.4694 H   0  0  0  0  0  0  0  0  0  0  0  0
    0.4466   -2.0942    1.2823 H   0  0  0  0  0  0  0  0  0  0  0  0
    0.3840    2.3563    3.1631 H   0  0  0  0  0  0  0  0  0  0  0  0
    0.5340    3.3972    1.9138 H   0  0  0  0  0  0  0  0  0  0  0  0
    2.5419    4.2409    2.8362 H   0  0  0  0  0  0  0  0  0  0  0  0
    1.3392    4.3780    3.9323 H   0  0  0  0  0  0  0  0  0  0  0  0
    5.1987    2.5077    5.6206 H   0  0  0  0  0  0  0  0  0  0  0  0
    3.8729    2.1632    6.5094 H   0  0  0  0  0  0  0  0  0  0  0  0
    4.4916    3.4774    8.1481 H   0  0  0  0  0  0  0  0  0  0  0  0
    5.9786    3.3507    7.4851 H   0  0  0  0  0  0  0  0  0  0  0  0
    5.4267    5.6288    7.8930 H   0  0  0  0  0  0  0  0  0  0  0  0
    5.6364    5.3638    6.2953 H   0  0  0  0  0  0  0  0  0  0  0  0
    5.5563    7.8761    6.3572 H   0  0  0  0  0  0  0  0  0  0  0  0
    6.6470   10.7528   10.7002 H   0  0  0  0  0  0  0  0  0  0  0  0
    8.6652   11.4140    9.6073 H   0  0  0  0  0  0  0  0  0  0  0  0
    9.1301   10.5744    7.4119 H   0  0  0  0  0  0  0  0  0  0  0  0
    7.5972    9.0985    6.3339 H   0  0  0  0  0  0  0  0  0  0  0  0
    2.9915    7.9676    9.5706 H   0  0  0  0  0  0  0  0  0  0  0  0
  1  2  2  0  0  0  0
  2  3  1  0  0  0  0
  3  4  1  0  0  0  0
  4  5  1  0  0  0  0
  5  6  1  0  0  0  0
  6  7  1  0  0  0  0
  7  8  1  0  0  0  0
  8  9  1  0  0  0  0
  9 10  1  0  0  0  0
 10 11  1  0  0  0  0
 11 12  2  0  0  0  0
 11 13  1  0  0  0  0
 13 14  1  0  0  0  0
 14 15  1  0  0  0  0
 15 16  1  0  0  0  0
 16 17  1  0  0  0  0
 17 18  1  0  0  0  0
 18 19  1  0  0  0  0
 19 20  2  0  0  0  0
 20 21  1  0  0  0  0
 21 22  2  0  0  0  0
 22 23  1  0  0  0  0
 23 18  2  0  0  0  0
 16 24  1  0  0  0  0
 24 25  1  0  0  0  0
 25 13  1  0  0  0  0
  9 26  1  0  0  0  0
 26 27  1  0  0  0  0
 27  6  1  0  0  0  0
  5 28  1  0  0  0  0
 28 29  1  0  0  0  0
 29 30  1  0  0  0  0
 30  3  1  0  0  0  0
  2 31  1  0  0  0  0
 31 32  1  0  0  0  0
 32 33  1  0  0  0  0
 33 34  1  0  0  0  0
 34 35  2  0  0  0  0
 35 36  1  0  0  0  0
 36 37  2  0  0  0  0
 37 38  1  0  0  0  0
 38 33  2  0  0  0  0
 34 39  1  0  0  0  0
 39 40  2  0  0  0  0
 39 41  1  0  0  0  0
 31 41  2  0  0  0  0
  9 42  1  0  0  0  0
  4 43  1  0  0  0  0
  4 44  1  0  0  0  0
  5 45  1  0  0  0  0
  6 46  1  0  0  0  0
  7 47  1  0  0  0  0
  7 48  1  0  0  0  0
  8 49  1  0  0  0  0
  8 50  1  0  0  0  0
 10 51  1  0  0  0  0
 10 52  1  0  0  0  0
 14 53  1  0  0  0  0
 14 54  1  0  0  0  0
 15 55  1  0  0  0  0
 15 56  1  0  0  0  0
 16 57  1  0  0  0  0
 17 58  1  0  0  0  0
 17 59  1  0  0  0  0
 19 60  1  0  0  0  0
 20 61  1  0  0  0  0
 21 62  1  0  0  0  0
 22 63  1  0  0  0  0
 23 64  1  0  0  0  0
 24 65  1  0  0  0  0
 24 66  1  0  0  0  0
 25 67  1  0  0  0  0
 25 68  1  0  0  0  0
 26 69  1  0  0  0  0
 26 70  1  0  0  0  0
 27 71  1  0  0  0  0
 27 72  1  0  0  0  0
 28 73  1  0  0  0  0
 28 74  1  0  0  0  0
 29 75  1  0  0  0  0
 29 76  1  0  0  0  0
 30 77  1  0  0  0  0
 30 78  1  0  0  0  0
 32 79  1  0  0  0  0
 35 80  1  0  0  0  0
 36 81  1  0  0  0  0
 37 82  1  0  0  0  0
 38 83  1  0  0  0  0
 41 84  1  0  0  0  0
M  CHG  1   9   1
M  END
>  <result-rank>
79

>  <similarity>
0.884

>  <query-name>


>  <query-smiles>
S1c2c(cccc2)C(C(=O)N3CCC([N@H+]4CC5(C(=O)N6N(C5=O)CCCC6)CCC4)CC3)=C1NC(=O)NC

>  <source>
REALspace_2019-12

>  <similarity-descriptor>
0.999;0.935;0.999;0.637;0.937;0.904;1.000;0.935;0.935;0.0;0.0;0.200

>  <similarity-descriptor-smiles>
N1CCCCC1;C1=CC(ccN1)=O;c1ccccc1;CC=O;C1CC[NH+]CC1;N1CCCCC1;O=C;C1=CC(ccN1)=O;C1=CC(ccN1)=O;;;c1ccccc1.C

>  <reaction-name>
m_275030

>  <reagent1-name>
14114100

>  <reagent1-smiles>
[R1*]N1CC(C2CCN([R2*])CC2)CCC1

>  <reagent2-name>
14126114

>  <reagent2-smiles>
[R1*]C(=O)C=1Nc2c(cccc2)C(=O)C1

>  <reagent3-name>
14145954

>  <reagent3-smiles>
[R2*]CC(=O)N1CCC(Cc2ccccc2)CC1

$$$$
m_274860b____17162908____15229432____15233636
          04022017303D 1   1.00000     0.00000     0
            
 56 60  0  0  0  0            999 V2000
    6.2063   -6.9870    5.3367 F   0  0  0  0  0  0  0  0  0  0  0  0
    5.5533   -5.9072    4.9173 C   0  0  0  0  0  0  0  0  0  0  0  0
    6.2631   -4.7661    4.5599 C   0  0  0  0  0  0  0  0  0  0  0  0
    5.5675   -3.6434    4.1228 C   0  0  0  0  0  0  0  0  0  0  0  0
    4.1787   -3.6709    4.0488 C   0  0  0  0  0  0  0  0  0  0  0  0
    3.4691   -4.8131    4.4062 C   0  0  0  0  0  0  0  0  0  0  0  0
    4.1650   -5.9351    4.8430 C   0  0  0  0  0  0  0  0  0  0  0  0
    3.4694   -2.4917    3.5914 C   0  0  0  0  0  0  0  0  0  0  0  0
    2.1194   -2.3690    3.4669 N   0  0  0  0  0  0  0  0  0  0  0  0
    1.8842   -1.2032    3.0418 N   0  0  0  0  0  0  0  0  0  0  0  0
    2.9908   -0.5238    2.8671 N   0  0  0  0  0  0  0  0  0  0  0  0
    4.0393   -1.3165    3.2082 C   0  0  0  0  0  0  0  0  0  0  0  0
    3.0803    0.8614    2.3817 C   0  0  3  0  0  0  0  0  0  0  0  0
    2.4717    1.0000    1.0000 C   0  0  3  0  0  0  0  0  0  0  0  0
    1.0000    1.0000    1.0000 N   0  0  0  0  0  0  0  0  0  0  0  0
    0.3150    2.0199    1.6062 C   0  0  0  0  0  0  0  0  0  0  0  0
    0.8607    2.7047    2.4268 O   0  0  0  0  0  0  0  0  0  0  0  0
   -1.1362    2.2840    1.2395 C   0  0  0  0  0  0  0  0  0  0  0  0
   -1.4106    2.7309    0.1601 O   0  0  0  0  0  0  0  0  0  0  0  0
   -2.1543    2.0057    2.1623 N   0  0  0  0  0  0  0  0  0  0  0  0
   -3.5853    2.2158    1.9288 C   0  0  0  0  0  0  0  0  0  0  0  0
   -4.2049    1.0540    2.6683 C   0  0  3  0  0  0  0  0  0  0  0  0
   -3.3093    0.8422    3.8707 C   0  0  0  0  0  0  0  0  0  0  0  0
   -1.9635    1.4490    3.5059 C   0  0  0  0  0  0  0  0  0  0  0  0
   -5.6260    1.3638    3.1099 C   0  0  0  0  0  0  0  0  0  0  0  0
    3.1075    2.2789    0.5315 C   0  0  0  0  0  0  0  0  0  0  0  0
    4.5109    1.7679    0.7262 C   0  0  3  0  0  0  0  0  0  0  0  0
    4.5113    1.3039    2.1680 C   0  0  0  0  0  0  0  0  0  0  0  0
    4.5250    0.4799   -0.0730 C   0  0  0  0  0  0  0  0  0  0  0  0
    3.0828    0.0119    0.0205 C   0  0  0  0  0  0  0  0  0  0  0  0
    7.2614   -4.7526    4.6164 H   0  0  0  0  0  0  0  0  0  0  0  0
    6.0658   -2.8166    3.8618 H   0  0  0  0  0  0  0  0  0  0  0  0
    2.4708   -4.8271    4.3497 H   0  0  0  0  0  0  0  0  0  0  0  0
    3.6670   -6.7621    5.1037 H   0  0  0  0  0  0  0  0  0  0  0  0
    5.0125   -1.0879    3.1835 H   0  0  0  0  0  0  0  0  0  0  0  0
    2.6225    1.4789    3.0213 H   0  0  0  0  0  0  0  0  0  0  0  0
    0.5000    0.2556    0.5575 H   0  0  0  0  0  0  0  0  0  0  0  0
   -3.8021    2.1813    0.9532 H   0  0  0  0  0  0  0  0  0  0  0  0
   -3.8896    3.0899    2.3073 H   0  0  0  0  0  0  0  0  0  0  0  0
   -4.1976    0.2384    2.0897 H   0  0  0  0  0  0  0  0  0  0  0  0
   -3.2095   -0.1344    4.0614 H   0  0  0  0  0  0  0  0  0  0  0  0
   -3.6910    1.3012    4.6730 H   0  0  0  0  0  0  0  0  0  0  0  0
   -1.7149    2.1694    4.1535 H   0  0  0  0  0  0  0  0  0  0  0  0
   -1.2512    0.7472    3.4985 H   0  0  0  0  0  0  0  0  0  0  0  0
   -6.0039    0.5750    3.5947 H   0  0  0  0  0  0  0  0  0  0  0  0
   -5.6206    2.1576    3.7180 H   0  0  0  0  0  0  0  0  0  0  0  0
   -6.1886    1.5626    2.3073 H   0  0  0  0  0  0  0  0  0  0  0  0
    2.8892    3.0638    1.1113 H   0  0  0  0  0  0  0  0  0  0  0  0
    2.8962    2.4990   -0.4209 H   0  0  0  0  0  0  0  0  0  0  0  0
    5.2334    2.4183    0.4917 H   0  0  0  0  0  0  0  0  0  0  0  0
    5.1467    0.5432    2.3008 H   0  0  0  0  0  0  0  0  0  0  0  0
    4.7527    2.0517    2.7864 H   0  0  0  0  0  0  0  0  0  0  0  0
    5.1480   -0.1891    0.3324 H   0  0  0  0  0  0  0  0  0  0  0  0
    4.7886    0.6479   -1.0229 H   0  0  0  0  0  0  0  0  0  0  0  0
    2.6299    0.0603   -0.8698 H   0  0  0  0  0  0  0  0  0  0  0  0
    3.0294   -0.9230    0.3713 H   0  0  0  0  0  0  0  0  0  0  0  0
  1  2  1  0  0  0  0
  2  3  1  0  0  0  0
  3  4  2  0  0  0  0
  4  5  1  0  0  0  0
  5  6  2  0  0  0  0
  6  7  1  0  0  0  0
  7  2  2  0  0  0  0
  5  8  1  0  0  0  0
  8  9  1  0  0  0  0
  9 10  2  0  0  0  0
 10 11  1  0  0  0  0
 11 12  1  0  0  0  0
  8 12  2  0  0  0  0
 11 13  1  0  0  0  0
 13 14  1  0  0  0  0
 14 15  1  0  0  0  0
 15 16  1  0  0  0  0
 16 17  2  0  0  0  0
 16 18  1  0  0  0  0
 18 19  2  0  0  0  0
 18 20  1  0  0  0  0
 20 21  1  0  0  0  0
 21 22  1  0  0  0  0
 22 23  1  0  0  0  0
 23 24  1  0  0  0  0
 24 20  1  0  0  0  0
 22 25  1  0  0  0  0
 14 26  1  0  0  0  0
 26 27  1  0  0  0  0
 27 28  1  0  0  0  0
 28 13  1  0  0  0  0
 27 29  1  0  0  0  0
 29 30  1  0  0  0  0
 30 14  1  0  0  0  0
  3 31  1  0  0  0  0
  4 32  1  0  0  0  0
  6 33  1  0  0  0  0
  7 34  1  0  0  0  0
 12 35  1  0  0  0  0
 13 36  1  0  0  0  0
 15 37  1  0  0  0  0
 21 38  1  0  0  0  0
 21 39  1  0  0  0  0
 22 40  1  0  0  0  0
 23 41  1  0  0  0  0
 23 42  1  0  0  0  0
 24 43  1  0  0  0  0
 24 44  1  0  0  0  0
 25 45  1  0  0  0  0
 25 46  1  0  0  0  0
 25 47  1  0  0  0  0
 26 48  1  0  0  0  0
 26 49  1  0  0  0  0
 27 50  1  0  0  0  0
 28 51  1  0  0  0  0
 28 52  1  0  0  0  0
 29 53  1  0  0  0  0
 29 54  1  0  0  0  0
 30 55  1  0  0  0  0
 30 56  1  0  0  0  0
M  END
>  <result-rank>
80

>  <similarity>
0.884

>  <query-name>


>  <query-smiles>
S1c2c(cccc2)C(C(=O)N3CCC([N@H+]4CC5(C(=O)N6N(C5=O)CCCC6)CCC4)CC3)=C1NC(=O)NC

>  <source>
REALspace_2019-12

>  <similarity-descriptor>
0.830;0.830;0.966;0.882;0.957;0.984;0.830;0.0;0.0;0.0;0.0;0.111

>  <similarity-descriptor-smiles>
C1CCCC1;C1=CNN=N1;Fc1ccccc1;C(=O)C=O;C1(CCCC1)N;N1CCCC1;C1=CNN=N1;;;;;C

>  <reaction-name>
m_274860b

>  <reagent1-name>
17162908

>  <reagent1-smiles>
[R1*]N=NN([R2*])C1C2(N[R3*])CC(C1)CC2

>  <reagent2-name>
15229432

>  <reagent2-smiles>
[R3*]C(=O)C(=O)N1CC(CC1)C

>  <reagent3-name>
15233636

>  <reagent3-smiles>
[R1*]C(c1ccc(F)cc1)=C[R2*]

$$$$
m_275030____14114100____14126378____14146862
          04022017303D 1   1.00000     0.00000     0
            
 75 79  0  0  0  0            999 V2000
    7.8776   10.9732    5.9758 F   0  0  0  0  0  0  0  0  0  0  0  0
    7.1062   11.0410    7.0568 C   0  0  0  0  0  0  0  0  0  0  0  0
    5.8908   10.3628    7.0891 C   0  0  0  0  0  0  0  0  0  0  0  0
    5.2995    9.6017    6.1907 O   0  0  0  0  0  0  0  0  0  0  0  0
    4.1489    9.1766    6.6603 C   0  0  0  0  0  0  0  0  0  0  0  0
    3.2193    8.3189    5.9515 C   0  0  0  0  0  0  0  0  0  0  0  0
    2.1049    8.7011    5.7233 O   0  0  0  0  0  0  0  0  0  0  0  0
    3.6236    7.0393    5.5317 N   0  0  0  0  0  0  0  0  0  0  0  0
    2.7060    6.1457    4.8114 C   0  0  0  0  0  0  0  0  0  0  0  0
    3.5214    5.2389    3.9034 C   0  0  3  0  0  0  0  0  0  0  0  0
    2.6126    4.3915    3.0236 C   0  0  0  0  0  0  0  0  0  0  0  0
    3.4053    3.7584    1.8914 C   0  0  0  0  0  0  0  0  0  0  0  0
    2.4934    2.8935    1.0362 C   0  0  0  0  0  0  0  0  0  0  0  0
    1.8516    1.8516    1.8516 N   0  3  3  0  0  0  0  0  0  0  0  0
    1.0000    1.0000    1.0000 C   0  0  0  0  0  0  0  0  0  0  0  0
    1.8770    0.1547    0.0907 C   0  0  0  0  0  0  0  0  0  0  0  0
    2.8903   -0.3287    0.5144 O   0  0  0  0  0  0  0  0  0  0  0  0
    1.5106   -0.0552   -1.2126 N   0  0  0  0  0  0  0  0  0  0  0  0
    2.3587   -0.8727   -2.0920 C   0  0  0  0  0  0  0  0  0  0  0  0
    1.7311   -0.9479   -3.4743 C   0  0  0  0  0  0  0  0  0  0  0  0
    0.6956   -0.3829   -3.6947 O   0  0  0  0  0  0  0  0  0  0  0  0
    2.3624   -1.6781   -4.4926 N   0  0  0  0  0  0  0  0  0  0  0  0
    1.8700   -1.8333   -5.8645 C   0  0  0  0  0  0  0  0  0  0  0  0
    3.1187   -2.0025   -6.7076 C   0  0  0  0  0  0  0  0  0  0  0  0
    4.2242   -2.4340   -5.7596 C   0  0  0  0  0  0  0  0  0  0  0  0
    3.6212   -2.4212   -4.3679 C   0  0  0  0  0  0  0  0  0  0  0  0
    1.0795    2.4273    2.9628 C   0  0  0  0  0  0  0  0  0  0  0  0
    1.9737    3.2835    3.8453 C   0  0  0  0  0  0  0  0  0  0  0  0
    4.3293    4.3001    4.7838 C   0  0  0  0  0  0  0  0  0  0  0  0
    4.9233    5.0157    5.9880 C   0  0  0  0  0  0  0  0  0  0  0  0
    4.9757    6.5223    5.7881 C   0  0  0  0  0  0  0  0  0  0  0  0
    3.9683    9.6682    7.9173 C   0  0  0  0  0  0  0  0  0  0  0  0
    5.1069   10.4499    8.2167 C   0  0  0  0  0  0  0  0  0  0  0  0
    5.5314   11.2049    9.3088 C   0  0  0  0  0  0  0  0  0  0  0  0
    6.7459   11.8826    9.2799 C   0  0  0  0  0  0  0  0  0  0  0  0
    7.5394   11.7980    8.1404 C   0  0  0  0  0  0  0  0  0  0  0  0
    4.6826   11.3138   10.5653 C   0  0  0  0  0  0  0  0  0  0  0  0
    2.5715    1.2770    2.2409 H   0  0  0  0  0  0  0  0  0  0  0  0
    2.0700    6.6879    4.2622 H   0  0  0  0  0  0  0  0  0  0  0  0
    2.1921    5.5918    5.4665 H   0  0  0  0  0  0  0  0  0  0  0  0
    4.1347    5.7866    3.3343 H   0  0  0  0  0  0  0  0  0  0  0  0
    1.8945    4.9710    2.6382 H   0  0  0  0  0  0  0  0  0  0  0  0
    4.1347    3.1918    2.2747 H   0  0  0  0  0  0  0  0  0  0  0  0
    3.8055    4.4785    1.3246 H   0  0  0  0  0  0  0  0  0  0  0  0
    1.7873    3.4690    0.6235 H   0  0  0  0  0  0  0  0  0  0  0  0
    3.0336    2.4599    0.3150 H   0  0  0  0  0  0  0  0  0  0  0  0
    0.4018    1.5770    0.4439 H   0  0  0  0  0  0  0  0  0  0  0  0
    0.4439    0.4018    1.5770 H   0  0  0  0  0  0  0  0  0  0  0  0
    0.6661    0.3476   -1.5657 H   0  0  0  0  0  0  0  0  0  0  0  0
    2.4413   -1.7943   -1.7128 H   0  0  0  0  0  0  0  0  0  0  0  0
    3.2660   -0.4576   -2.1600 H   0  0  0  0  0  0  0  0  0  0  0  0
    1.3599   -1.0219   -6.1496 H   0  0  0  0  0  0  0  0  0  0  0  0
    1.2829   -2.6394   -5.9390 H   0  0  0  0  0  0  0  0  0  0  0  0
    3.3588   -1.1369   -7.1469 H   0  0  0  0  0  0  0  0  0  0  0  0
    2.9711   -2.7017   -7.4071 H   0  0  0  0  0  0  0  0  0  0  0  0
    4.5397   -3.3541   -5.9917 H   0  0  0  0  0  0  0  0  0  0  0  0
    4.9922   -1.7956   -5.8101 H   0  0  0  0  0  0  0  0  0  0  0  0
    3.4465   -3.3545   -4.0542 H   0  0  0  0  0  0  0  0  0  0  0  0
    4.2353   -1.9629   -3.7253 H   0  0  0  0  0  0  0  0  0  0  0  0
    0.6885    1.6873    3.5100 H   0  0  0  0  0  0  0  0  0  0  0  0
    0.3429    2.9935    2.5930 H   0  0  0  0  0  0  0  0  0  0  0  0
    1.4257    3.6885    4.5773 H   0  0  0  0  0  0  0  0  0  0  0  0
    2.6909    2.7114    4.2434 H   0  0  0  0  0  0  0  0  0  0  0  0
    5.0731    3.9094    4.2415 H   0  0  0  0  0  0  0  0  0  0  0  0
    3.7314    3.5666    5.1071 H   0  0  0  0  0  0  0  0  0  0  0  0
    4.3619    4.8161    6.7912 H   0  0  0  0  0  0  0  0  0  0  0  0
    5.8523    4.6776    6.1383 H   0  0  0  0  0  0  0  0  0  0  0  0
    5.3452    6.9535    6.6113 H   0  0  0  0  0  0  0  0  0  0  0  0
    5.5650    6.7332    5.0082 H   0  0  0  0  0  0  0  0  0  0  0  0
    3.1818    9.5072    8.5134 H   0  0  0  0  0  0  0  0  0  0  0  0
    7.0443   12.4226   10.0668 H   0  0  0  0  0  0  0  0  0  0  0  0
    8.4155   12.2784    8.1005 H   0  0  0  0  0  0  0  0  0  0  0  0
    5.1492   11.8933   11.2335 H   0  0  0  0  0  0  0  0  0  0  0  0
    3.7968   11.7170   10.3353 H   0  0  0  0  0  0  0  0  0  0  0  0
    4.5434   10.4029   10.9536 H   0  0  0  0  0  0  0  0  0  0  0  0
  1  2  1  0  0  0  0
  2  3  1  0  0  0  0
  3  4  1  0  0  0  0
  4  5  1  0  0  0  0
  5  6  1  0  0  0  0
  6  7  2  0  0  0  0
  6  8  1  0  0  0  0
  8  9  1  0  0  0  0
  9 10  1  0  0  0  0
 10 11  1  0  0  0  0
 11 12  1  0  0  0  0
 12 13  1  0  0  0  0
 13 14  1  0  0  0  0
 14 15  1  0  0  0  0
 15 16  1  0  0  0  0
 16 17  2  0  0  0  0
 16 18  1  0  0  0  0
 18 19  1  0  0  0  0
 19 20  1  0  0  0  0
 20 21  2  0  0  0  0
 20 22  1  0  0  0  0
 22 23  1  0  0  0  0
 23 24  1  0  0  0  0
 24 25  1  0  0  0  0
 25 26  1  0  0  0  0
 26 22  1  0  0  0  0
 14 27  1  0  0  0  0
 27 28  1  0  0  0  0
 28 11  1  0  0  0  0
 10 29  1  0  0  0  0
 29 30  1  0  0  0  0
 30 31  1  0  0  0  0
 31  8  1  0  0  0  0
  5 32  2  0  0  0  0
 32 33  1  0  0  0  0
 33  3  2  0  0  0  0
 33 34  1  0  0  0  0
 34 35  2  0  0  0  0
 35 36  1  0  0  0  0
 36  2  2  0  0  0  0
 34 37  1  0  0  0  0
 14 38  1  0  0  0  0
  9 39  1  0  0  0  0
  9 40  1  0  0  0  0
 10 41  1  0  0  0  0
 11 42  1  0  0  0  0
 12 43  1  0  0  0  0
 12 44  1  0  0  0  0
 13 45  1  0  0  0  0
 13 46  1  0  0  0  0
 15 47  1  0  0  0  0
 15 48  1  0  0  0  0
 18 49  1  0  0  0  0
 19 50  1  0  0  0  0
 19 51  1  0  0  0  0
 23 52  1  0  0  0  0
 23 53  1  0  0  0  0
 24 54  1  0  0  0  0
 24 55  1  0  0  0  0
 25 56  1  0  0  0  0
 25 57  1  0  0  0  0
 26 58  1  0  0  0  0
 26 59  1  0  0  0  0
 27 60  1  0  0  0  0
 27 61  1  0  0  0  0
 28 62  1  0  0  0  0
 28 63  1  0  0  0  0
 29 64  1  0  0  0  0
 29 65  1  0  0  0  0
 30 66  1  0  0  0  0
 30 67  1  0  0  0  0
 31 68  1  0  0  0  0
 31 69  1  0  0  0  0
 32 70  1  0  0  0  0
 35 71  1  0  0  0  0
 36 72  1  0  0  0  0
 37 73  1  0  0  0  0
 37 74  1  0  0  0  0
 37 75  1  0  0  0  0
M  CHG  1  14   1
M  END
>  <result-rank>
81

>  <similarity>
0.884

>  <query-name>


>  <query-smiles>
S1c2c(cccc2)C(C(=O)N3CCC([N@H+]4CC5(C(=O)N6N(C5=O)CCCC6)CCC4)CC3)=C1NC(=O)NC

>  <source>
REALspace_2019-12

>  <similarity-descriptor>
0.999;0.782;0.926;0.751;0.937;0.999;1.000;0.0;0.0;0.0;0.0;0.083

>  <similarity-descriptor-smiles>
N1CCCCC1;c1cC=CO1;Fc1ccccc1;CC(=O)NCC=O;C1CC[NH+]CC1;N1CCCC1;C=O;;;;;C

>  <reaction-name>
m_275030

>  <reagent1-name>
14114100

>  <reagent1-smiles>
[R1*]N1CC(C2CCN([R2*])CC2)CCC1

>  <reagent2-name>
14126378

>  <reagent2-smiles>
[R1*]C(=O)C=1Oc2c(F)ccc(c2C1)C

>  <reagent3-name>
14146862

>  <reagent3-smiles>
[R2*]CC(=O)NCC(=O)N1CCCC1

$$$$
s_22____13214462____12307604
          04022017303D 1   1.00000     0.00000     0
            
 71 73  0  0  0  0            999 V2000
    7.1811   -5.6968   -8.1684 Cl  0  0  0  0  0  0  0  0  0  0  0  0
    6.6961   -6.3229   -6.5743 C   0  0  0  0  0  0  0  0  0  0  0  0
    5.8929   -5.5465   -5.7458 C   0  0  0  0  0  0  0  0  0  0  0  0
    5.5219   -6.0483   -4.5025 C   0  0  0  0  0  0  0  0  0  0  0  0
    5.9437   -7.3066   -4.0853 C   0  0  0  0  0  0  0  0  0  0  0  0
    6.7463   -8.0673   -4.9292 C   0  0  0  0  0  0  0  0  0  0  0  0
    7.1281   -7.5841   -6.1764 C   0  0  0  0  0  0  0  0  0  0  0  0
    4.6844   -5.2414   -3.6363 C   0  0  0  0  0  0  0  0  0  0  0  0
    4.3027   -5.7094   -2.4054 N   0  0  0  0  0  0  0  0  0  0  0  0
    3.5116   -4.9619   -1.5716 C   0  0  0  0  0  0  0  0  0  0  0  0
    3.1822   -5.3788   -0.4956 O   0  0  0  0  0  0  0  0  0  0  0  0
    3.0815   -3.6756   -1.9977 C   0  0  0  0  0  0  0  0  0  0  0  0
    2.2442   -2.8383   -1.1604 C   0  0  0  0  0  0  0  0  0  0  0  0
    1.8978   -3.2267   -0.0791 O   0  0  0  0  0  0  0  0  0  0  0  0
    1.8487   -1.6038   -1.6038 N   0  0  0  0  0  0  0  0  0  0  0  0
    1.0000   -0.7551   -0.7551 C   0  0  0  0  0  0  0  0  0  0  0  0
    1.8776    0.1224    0.1224 C   0  0  0  0  0  0  0  0  0  0  0  0
    1.0000    1.0000    1.0000 C   0  0  0  0  0  0  0  0  0  0  0  0
    1.8776    1.8776    1.8776 C   0  0  0  0  0  0  0  0  0  0  0  0
    1.0000    2.7551    2.7551 C   0  0  0  0  0  0  0  0  0  0  0  0
    1.8487    3.6038    3.6038 N   0  3  0  0  0  0  0  0  0  0  0  0
    2.6720    4.4271    2.7026 C   0  0  0  0  0  0  0  0  0  0  0  0
    3.5663    5.3886    3.4706 C   0  0  0  0  0  0  0  0  0  0  0  0
    2.8280    6.0720    4.5442 N   0  0  0  0  0  0  0  0  0  0  0  0
    3.1859    7.3538    4.8696 C   0  0  0  0  0  0  0  0  0  0  0  0
    4.0831    7.8934    4.2833 O   0  0  0  0  0  0  0  0  0  0  0  0
    2.5486    7.9903    5.8208 O   0  0  0  0  0  0  0  0  0  0  0  0
    2.9194    9.3188    6.1581 C   0  0  0  0  0  0  0  0  0  0  0  0
    2.1186   10.2979    5.3153 C   0  0  0  0  0  0  0  0  0  0  0  0
    2.6341    9.5663    7.6304 C   0  0  0  0  0  0  0  0  0  0  0  0
    4.4027    9.5144    5.8897 C   0  0  0  0  0  0  0  0  0  0  0  0
    1.7159    5.4378    5.2703 C   0  0  0  0  0  0  0  0  0  0  0  0
    0.9475    4.4672    4.3854 C   0  0  0  0  0  0  0  0  0  0  0  0
    3.4620   -3.2064   -3.2286 C   0  0  0  0  0  0  0  0  0  0  0  0
    4.2827   -4.0045   -4.0707 C   0  0  0  0  0  0  0  0  0  0  0  0
    2.4227    3.0482    4.2053 H   0  0  0  0  0  0  0  0  0  0  0  0
    5.5867   -4.6409   -6.0394 H   0  0  0  0  0  0  0  0  0  0  0  0
    5.6733   -7.6598   -3.1897 H   0  0  0  0  0  0  0  0  0  0  0  0
    7.0526   -8.9728   -4.6355 H   0  0  0  0  0  0  0  0  0  0  0  0
    7.7052   -8.1357   -6.7788 H   0  0  0  0  0  0  0  0  0  0  0  0
    4.6076   -6.6147   -2.1097 H   0  0  0  0  0  0  0  0  0  0  0  0
    2.1374   -1.2802   -2.5049 H   0  0  0  0  0  0  0  0  0  0  0  0
    0.4226   -1.3325   -0.1778 H   0  0  0  0  0  0  0  0  0  0  0  0
    0.4226   -0.1778   -1.3325 H   0  0  0  0  0  0  0  0  0  0  0  0
    2.4549    0.6998   -0.4549 H   0  0  0  0  0  0  0  0  0  0  0  0
    2.4549   -0.4549    0.6998 H   0  0  0  0  0  0  0  0  0  0  0  0
    0.4226    1.5774    0.4226 H   0  0  0  0  0  0  0  0  0  0  0  0
    0.4226    0.4226    1.5774 H   0  0  0  0  0  0  0  0  0  0  0  0
    2.4549    1.3002    2.4549 H   0  0  0  0  0  0  0  0  0  0  0  0
    2.4549    2.4549    1.3002 H   0  0  0  0  0  0  0  0  0  0  0  0
    0.4226    3.3325    2.1778 H   0  0  0  0  0  0  0  0  0  0  0  0
    0.4226    2.1778    3.3325 H   0  0  0  0  0  0  0  0  0  0  0  0
    2.0682    4.9547    2.1050 H   0  0  0  0  0  0  0  0  0  0  0  0
    3.2461    3.8244    2.1484 H   0  0  0  0  0  0  0  0  0  0  0  0
    4.3245    4.8757    3.8732 H   0  0  0  0  0  0  0  0  0  0  0  0
    3.9265    6.0735    2.8371 H   0  0  0  0  0  0  0  0  0  0  0  0
    2.3798   11.2335    5.5528 H   0  0  0  0  0  0  0  0  0  0  0  0
    2.3063   10.1351    4.3466 H   0  0  0  0  0  0  0  0  0  0  0  0
    1.1427   10.1692    5.4919 H   0  0  0  0  0  0  0  0  0  0  0  0
    2.8952   10.5019    7.8680 H   0  0  0  0  0  0  0  0  0  0  0  0
    1.6582    9.4376    7.8070 H   0  0  0  0  0  0  0  0  0  0  0  0
    3.1609    8.9221    8.1849 H   0  0  0  0  0  0  0  0  0  0  0  0
    4.6639   10.4500    6.1272 H   0  0  0  0  0  0  0  0  0  0  0  0
    4.9296    8.8703    6.4442 H   0  0  0  0  0  0  0  0  0  0  0  0
    4.5905    9.3517    4.9210 H   0  0  0  0  0  0  0  0  0  0  0  0
    1.0903    6.1492    5.5906 H   0  0  0  0  0  0  0  0  0  0  0  0
    2.0836    4.9392    6.0552 H   0  0  0  0  0  0  0  0  0  0  0  0
    0.3692    3.8914    4.9634 H   0  0  0  0  0  0  0  0  0  0  0  0
    0.3735    4.9898    3.7550 H   0  0  0  0  0  0  0  0  0  0  0  0
    3.1620   -2.3025   -3.5337 H   0  0  0  0  0  0  0  0  0  0  0  0
    4.5639   -3.6679   -4.9694 H   0  0  0  0  0  0  0  0  0  0  0  0
  1  2  1  0  0  0  0
  2  3  1  0  0  0  0
  3  4  2  0  0  0  0
  4  5  1  0  0  0  0
  5  6  2  0  0  0  0
  6  7  1  0  0  0  0
  7  2  2  0  0  0  0
  4  8  1  0  0  0  0
  8  9  1  0  0  0  0
  9 10  1  0  0  0  0
 10 11  2  0  0  0  0
 10 12  1  0  0  0  0
 12 13  1  0  0  0  0
 13 14  2  0  0  0  0
 13 15  1  0  0  0  0
 15 16  1  0  0  0  0
 16 17  1  0  0  0  0
 17 18  1  0  0  0  0
 18 19  1  0  0  0  0
 19 20  1  0  0  0  0
 20 21  1  0  0  0  0
 21 22  1  0  0  0  0
 22 23  1  0  0  0  0
 23 24  1  0  0  0  0
 24 25  1  0  0  0  0
 25 26  2  0  0  0  0
 25 27  1  0  0  0  0
 27 28  1  0  0  0  0
 28 29  1  0  0  0  0
 28 30  1  0  0  0  0
 28 31  1  0  0  0  0
 24 32  1  0  0  0  0
 32 33  1  0  0  0  0
 33 21  1  0  0  0  0
 12 34  2  0  0  0  0
 34 35  1  0  0  0  0
  8 35  2  0  0  0  0
 21 36  1  0  0  0  0
  3 37  1  0  0  0  0
  5 38  1  0  0  0  0
  6 39  1  0  0  0  0
  7 40  1  0  0  0  0
  9 41  1  0  0  0  0
 15 42  1  0  0  0  0
 16 43  1  0  0  0  0
 16 44  1  0  0  0  0
 17 45  1  0  0  0  0
 17 46  1  0  0  0  0
 18 47  1  0  0  0  0
 18 48  1  0  0  0  0
 19 49  1  0  0  0  0
 19 50  1  0  0  0  0
 20 51  1  0  0  0  0
 20 52  1  0  0  0  0
 22 53  1  0  0  0  0
 22 54  1  0  0  0  0
 23 55  1  0  0  0  0
 23 56  1  0  0  0  0
 29 57  1  0  0  0  0
 29 58  1  0  0  0  0
 29 59  1  0  0  0  0
 30 60  1  0  0  0  0
 30 61  1  0  0  0  0
 30 62  1  0  0  0  0
 31 63  1  0  0  0  0
 31 64  1  0  0  0  0
 31 65  1  0  0  0  0
 32 66  1  0  0  0  0
 32 67  1  0  0  0  0
 33 68  1  0  0  0  0
 33 69  1  0  0  0  0
 34 70  1  0  0  0  0
 35 71  1  0  0  0  0
M  CHG  1  21   1
M  END
>  <result-rank>
82

>  <similarity>
0.884

>  <query-name>


>  <query-smiles>
S1c2c(cccc2)C(C(=O)N3CCC([N@H+]4CC5(C(=O)N6N(C5=O)CCCC6)CCC4)CC3)=C1NC(=O)NC

>  <source>
REALspace_2019-12

>  <similarity-descriptor>
0.897;0.936;0.951;0.708;0.995;0.795;0.852;0.936;0.936;0.0;0.0;0.0

>  <similarity-descriptor-smiles>
CCCCC;C1=CC=CC(N1)=O;Clc1ccccc1;C(=O)O;[NH+]1CCNCC1;C(C)(C)C;C(=O)N;C1=CC=CC(N1)=O;C1=CC=CC(N1)=O;;;

>  <reaction-name>
s_22

>  <reagent1-name>
13214462

>  <reagent1-smiles>
[R1*]NCCCCCN1CCN(C(=O)OC(C)(C)C)CC1

>  <reagent2-name>
12307604

>  <reagent2-smiles>
[R1*]C(=O)C=1C(=O)NC(c2cc(Cl)ccc2)=CC1

$$$$
m_274310____15937416____14120794____15870848
          04022017303D 1   1.00000     0.00000     0
            
 67 71  0  0  0  0            999 V2000
    0.2958   -8.2204    0.9642 F   0  0  0  0  0  0  0  0  0  0  0  0
   -0.1384   -7.3902    0.0200 C   0  0  0  0  0  0  0  0  0  0  0  0
   -0.3506   -6.0473    0.3175 C   0  0  0  0  0  0  0  0  0  0  0  0
   -0.0990   -5.5529    1.6575 C   0  0  0  0  0  0  0  0  0  0  0  0
    0.7968   -4.5845    1.9150 N   0  0  0  0  0  0  0  0  0  0  0  0
    1.0308   -4.1266    3.1563 C   0  0  0  0  0  0  0  0  0  0  0  0
    0.3488   -4.6502    4.1865 N   0  0  0  0  0  0  0  0  0  0  0  0
   -0.5604   -5.6191    4.0040 C   0  0  0  0  0  0  0  0  0  0  0  0
   -0.8086   -6.0985    2.7224 C   0  0  0  0  0  0  0  0  0  0  0  0
    1.9678   -3.1162    3.4127 N   0  0  0  0  0  0  0  0  0  0  0  0
    2.1490   -2.6856    4.8092 C   0  0  0  0  0  0  0  0  0  0  0  0
    2.1902   -1.1643    4.8173 C   0  0  0  0  0  0  0  0  0  0  0  0
    1.7093   -0.5714    5.7697 O   0  0  0  0  0  0  0  0  0  0  0  0
    2.7621   -0.4826    3.7334 N   0  0  0  0  0  0  0  0  0  0  0  0
    2.7621    0.9896    3.7067 C   0  0  0  0  0  0  0  0  0  0  0  0
    4.2092    1.4582    3.6499 C   0  0  0  0  0  0  0  0  0  0  0  0
    4.3231    2.9711    3.5294 C   0  0  0  0  0  0  0  0  0  0  0  0
    3.3992    3.5167    2.5208 N   0  0  0  0  0  0  0  0  0  0  0  0
    3.7976    4.6449    1.7976 C   0  0  0  0  0  0  0  0  0  0  0  0
    4.8689    5.1437    2.0062 O   0  0  0  0  0  0  0  0  0  0  0  0
    2.8739    5.2396    0.7473 C   0  0  0  0  0  0  0  0  0  0  0  0
    2.6681    4.6469   -0.2757 O   0  0  0  0  0  0  0  0  0  0  0  0
    2.2622    6.4806    0.9735 N   0  0  0  0  0  0  0  0  0  0  0  0
    1.3552    7.1565    0.0424 C   0  0  0  0  0  0  0  0  0  0  0  0
    0.3723    7.8205    0.9771 C   0  0  3  0  0  0  0  0  0  0  0  0
    1.1961    8.2131    2.1853 C   0  0  0  0  0  0  0  0  0  0  0  0
    2.4150    7.3038    2.1780 C   0  0  0  0  0  0  0  0  0  0  0  0
   -0.2634    9.0473    0.3435 C   0  0  0  0  0  0  0  0  0  0  0  0
    2.0802    2.9295    2.2307 C   0  0  0  0  0  0  0  0  0  0  0  0
    2.0695    1.4188    2.4202 C   0  0  0  0  0  0  0  0  0  0  0  0
    3.3735   -1.1941    2.5946 C   0  0  0  0  0  0  0  0  0  0  0  0
    2.7268   -2.5409    2.2869 C   0  0  0  0  0  0  0  0  0  0  0  0
   -0.8046   -5.1797   -0.6696 C   0  0  0  0  0  0  0  0  0  0  0  0
   -1.0452   -5.6535   -1.9550 C   0  0  0  0  0  0  0  0  0  0  0  0
   -0.8330   -6.9960   -2.2526 C   0  0  0  0  0  0  0  0  0  0  0  0
   -0.3792   -7.8638   -1.2653 C   0  0  0  0  0  0  0  0  0  0  0  0
   -1.0576   -5.9951    4.7859 H   0  0  0  0  0  0  0  0  0  0  0  0
   -1.4833   -6.8205    2.5694 H   0  0  0  0  0  0  0  0  0  0  0  0
    3.0060   -3.0523    5.1711 H   0  0  0  0  0  0  0  0  0  0  0  0
    1.3855   -3.0094    5.3680 H   0  0  0  0  0  0  0  0  0  0  0  0
    2.2949    1.3633    4.5079 H   0  0  0  0  0  0  0  0  0  0  0  0
    4.6522    1.0385    2.8577 H   0  0  0  0  0  0  0  0  0  0  0  0
    4.6746    1.1664    4.4855 H   0  0  0  0  0  0  0  0  0  0  0  0
    4.1119    3.3822    4.4163 H   0  0  0  0  0  0  0  0  0  0  0  0
    5.2599    3.2044    3.2686 H   0  0  0  0  0  0  0  0  0  0  0  0
    0.8978    6.5007   -0.5582 H   0  0  0  0  0  0  0  0  0  0  0  0
    1.8419    7.8323   -0.5112 H   0  0  0  0  0  0  0  0  0  0  0  0
   -0.3371    7.1687    1.2451 H   0  0  0  0  0  0  0  0  0  0  0  0
    0.6680    8.0789    3.0239 H   0  0  0  0  0  0  0  0  0  0  0  0
    1.4768    9.1705    2.1178 H   0  0  0  0  0  0  0  0  0  0  0  0
    3.2561    7.8428    2.1318 H   0  0  0  0  0  0  0  0  0  0  0  0
    2.4313    6.7301    2.9969 H   0  0  0  0  0  0  0  0  0  0  0  0
   -0.9065    9.4601    0.9885 H   0  0  0  0  0  0  0  0  0  0  0  0
    0.4489    9.7101    0.1126 H   0  0  0  0  0  0  0  0  0  0  0  0
   -0.7507    8.7787   -0.4873 H   0  0  0  0  0  0  0  0  0  0  0  0
    1.8364    3.1371    1.2834 H   0  0  0  0  0  0  0  0  0  0  0  0
    1.4043    3.3361    2.8455 H   0  0  0  0  0  0  0  0  0  0  0  0
    1.1203    1.1052    2.4467 H   0  0  0  0  0  0  0  0  0  0  0  0
    2.5391    0.9947    1.6458 H   0  0  0  0  0  0  0  0  0  0  0  0
    4.3394   -1.3489    2.8023 H   0  0  0  0  0  0  0  0  0  0  0  0
    3.2957   -0.6149    1.7832 H   0  0  0  0  0  0  0  0  0  0  0  0
    2.1015   -2.4200    1.5159 H   0  0  0  0  0  0  0  0  0  0  0  0
    3.4484   -3.1850    2.0330 H   0  0  0  0  0  0  0  0  0  0  0  0
   -0.9582   -4.2150   -0.4554 H   0  0  0  0  0  0  0  0  0  0  0  0
   -1.3708   -5.0293   -2.6652 H   0  0  0  0  0  0  0  0  0  0  0  0
   -1.0068   -7.3368   -3.1766 H   0  0  0  0  0  0  0  0  0  0  0  0
   -0.2260   -8.8285   -1.4795 H   0  0  0  0  0  0  0  0  0  0  0  0
  1  2  1  0  0  0  0
  2  3  1  0  0  0  0
  3  4  1  0  0  0  0
  4  5  1  0  0  0  0
  5  6  2  0  0  0  0
  6  7  1  0  0  0  0
  7  8  2  0  0  0  0
  8  9  1  0  0  0  0
  9  4  2  0  0  0  0
  6 10  1  0  0  0  0
 10 11  1  0  0  0  0
 11 12  1  0  0  0  0
 12 13  2  0  0  0  0
 12 14  1  0  0  0  0
 14 15  1  0  0  0  0
 15 16  1  0  0  0  0
 16 17  1  0  0  0  0
 17 18  1  0  0  0  0
 18 19  1  0  0  0  0
 19 20  2  0  0  0  0
 19 21  1  0  0  0  0
 21 22  2  0  0  0  0
 21 23  1  0  0  0  0
 23 24  1  0  0  0  0
 24 25  1  0  0  0  0
 25 26  1  0  0  0  0
 26 27  1  0  0  0  0
 27 23  1  0  0  0  0
 25 28  1  0  0  0  0
 18 29  1  0  0  0  0
 29 30  1  0  0  0  0
 30 15  1  0  0  0  0
 14 31  1  0  0  0  0
 31 32  1  0  0  0  0
 32 10  1  0  0  0  0
  3 33  2  0  0  0  0
 33 34  1  0  0  0  0
 34 35  2  0  0  0  0
 35 36  1  0  0  0  0
 36  2  2  0  0  0  0
  8 37  1  0  0  0  0
  9 38  1  0  0  0  0
 11 39  1  0  0  0  0
 11 40  1  0  0  0  0
 15 41  1  0  0  0  0
 16 42  1  0  0  0  0
 16 43  1  0  0  0  0
 17 44  1  0  0  0  0
 17 45  1  0  0  0  0
 24 46  1  0  0  0  0
 24 47  1  0  0  0  0
 25 48  1  0  0  0  0
 26 49  1  0  0  0  0
 26 50  1  0  0  0  0
 27 51  1  0  0  0  0
 27 52  1  0  0  0  0
 28 53  1  0  0  0  0
 28 54  1  0  0  0  0
 28 55  1  0  0  0  0
 29 56  1  0  0  0  0
 29 57  1  0  0  0  0
 30 58  1  0  0  0  0
 30 59  1  0  0  0  0
 31 60  1  0  0  0  0
 31 61  1  0  0  0  0
 32 62  1  0  0  0  0
 32 63  1  0  0  0  0
 33 64  1  0  0  0  0
 34 65  1  0  0  0  0
 35 66  1  0  0  0  0
 36 67  1  0  0  0  0
M  END
>  <result-rank>
83

>  <similarity>
0.883

>  <query-name>


>  <query-smiles>
S1c2c(cccc2)C(C(=O)N3CCC([N@H+]4CC5(C(=O)N6N(C5=O)CCCC6)CCC4)CC3)=C1NC(=O)NC

>  <source>
REALspace_2019-12

>  <similarity-descriptor>
0.906;0.884;0.966;0.882;0.750;0.984;0.906;0.884;0.884;0.0;0.0;0.125

>  <similarity-descriptor-smiles>
N1CCNC(C1)=O;c1ccncn1;Fc1ccccc1;C(=O)C=O;C1CCNCC1;N1CCCC1;N1CCNC(C1)=O;c1ccncn1;c1ccncn1;;;C

>  <reaction-name>
m_274310

>  <reagent1-name>
15937416

>  <reagent1-smiles>
[R2*]N1CC(=O)N(C2CCN([R1*])CC2)CC1

>  <reagent2-name>
14120794

>  <reagent2-smiles>
[R1*]C(=O)C(=O)N1CC(CC1)C

>  <reagent3-name>
15870848

>  <reagent3-smiles>
[R2*]c1nc(c2c(F)cccc2)ccn1

$$$$
m_276010b____17281604____17252650____13624802
          04022017303D 1   1.00000     0.00000     0
            
 69 74  0  0  0  0            999 V2000
   -1.4206   -1.9144    1.7994 S   0  0  0  0  0  0  0  0  0  0  0  0
   -0.9550   -0.2773    1.7844 C   0  0  0  0  0  0  0  0  0  0  0  0
   -1.6880    0.8071    2.2795 N   0  0  0  0  0  0  0  0  0  0  0  0
   -3.0439    0.8608    2.0907 C   0  0  0  0  0  0  0  0  0  0  0  0
   -3.5555    0.2060    1.2250 O   0  0  0  0  0  0  0  0  0  0  0  0
   -3.9001    1.7499    2.9778 C   0  0  0  0  0  0  0  0  0  0  0  0
    0.2749   -0.2410    1.1935 C   0  0  0  0  0  0  0  0  0  0  0  0
    1.0000    1.0000    1.0000 C   0  0  0  0  0  0  0  0  0  0  0  0
    0.4000    2.0268    0.8399 O   0  0  0  0  0  0  0  0  0  0  0  0
    2.4014    1.0000    1.0000 N   0  0  0  0  0  0  0  0  0  0  0  0
    3.2024    2.1920    0.6781 C   0  0  3  0  0  0  0  0  0  0  0  0
    4.3726    2.3009    1.6443 C   0  0  0  0  0  0  0  0  0  0  0  0
    4.0577    1.5293    2.9061 C   0  0  3  0  0  0  0  0  0  0  0  0
    5.1938    1.6622    3.8253 N   0  0  0  0  0  0  0  0  0  0  0  0
    5.3007    2.5481    4.7848 N   0  0  0  0  0  0  0  0  0  0  0  0
    6.3914    2.4137    5.4079 N   0  0  0  0  0  0  0  0  0  0  0  0
    7.0667    1.3754    4.8401 C   0  0  0  0  0  0  0  0  0  0  0  0
    6.3089    0.8854    3.8237 C   0  0  0  0  0  0  0  0  0  0  0  0
    8.4278    0.8534    5.2693 C   0  0  0  0  0  0  0  0  0  0  0  0
    8.3502   -0.6028    5.6911 C   0  0  0  0  0  0  0  0  0  0  0  0
    9.5973   -0.8351    6.5213 C   0  0  0  0  0  0  0  0  0  0  0  0
    9.9457    0.5238    7.1019 C   0  0  0  0  0  0  0  0  0  0  0  0
    8.8639    1.4536    6.5930 C   0  0  0  0  0  0  0  0  0  0  0  0
    9.4116    1.0844    4.1322 C   0  0  0  0  0  0  0  0  0  0  0  0
    3.8306    0.0428    2.6794 C   0  0  0  0  0  0  0  0  0  0  0  0
    3.2056   -0.1832    1.3125 C   0  0  3  0  0  0  0  0  0  0  0  0
    4.3781   -0.2837    0.3480 C   0  0  0  0  0  0  0  0  0  0  0  0
    4.0242    0.4582   -0.9374 C   0  0  0  0  0  0  0  0  0  0  0  0
    3.7572    1.9428   -0.7146 C   0  0  0  0  0  0  0  0  0  0  0  0
    0.7611   -1.5134    0.7969 C   0  0  0  0  0  0  0  0  0  0  0  0
    2.0415   -1.7369    0.1488 C   0  0  0  0  0  0  0  0  0  0  0  0
    3.0967   -3.0349    0.4726 S   0  0  0  0  0  0  0  0  0  0  0  0
    4.3251   -2.6205   -0.6344 C   0  0  0  0  0  0  0  0  0  0  0  0
    3.8910   -1.4765   -1.2407 C   0  0  0  0  0  0  0  0  0  0  0  0
    2.6271   -0.9742   -0.8152 C   0  0  0  0  0  0  0  0  0  0  0  0
   -0.0402   -2.5839    1.0545 C   0  0  0  0  0  0  0  0  0  0  0  0
   -1.2221    1.5428    2.7712 H   0  0  0  0  0  0  0  0  0  0  0  0
   -3.3171    2.2205    3.6400 H   0  0  0  0  0  0  0  0  0  0  0  0
   -4.3757    2.4247    2.4135 H   0  0  0  0  0  0  0  0  0  0  0  0
   -4.5708    1.1892    3.4634 H   0  0  0  0  0  0  0  0  0  0  0  0
    2.6407    3.0191    0.6988 H   0  0  0  0  0  0  0  0  0  0  0  0
    5.1937    1.9215    1.2177 H   0  0  0  0  0  0  0  0  0  0  0  0
    4.5289    3.2621    1.8716 H   0  0  0  0  0  0  0  0  0  0  0  0
    3.2439    1.9222    3.3343 H   0  0  0  0  0  0  0  0  0  0  0  0
    6.5237    0.1240    3.2120 H   0  0  0  0  0  0  0  0  0  0  0  0
    8.3442   -1.2014    4.8900 H   0  0  0  0  0  0  0  0  0  0  0  0
    7.5285   -0.7679    6.2366 H   0  0  0  0  0  0  0  0  0  0  0  0
   10.3431   -1.1731    5.9472 H   0  0  0  0  0  0  0  0  0  0  0  0
    9.4150   -1.4927    7.2522 H   0  0  0  0  0  0  0  0  0  0  0  0
    9.9402    0.4913    8.1013 H   0  0  0  0  0  0  0  0  0  0  0  0
   10.8451    0.8226    6.7830 H   0  0  0  0  0  0  0  0  0  0  0  0
    8.0974    1.4865    7.2343 H   0  0  0  0  0  0  0  0  0  0  0  0
    9.2264    2.3759    6.4592 H   0  0  0  0  0  0  0  0  0  0  0  0
   10.3142    0.7461    4.3984 H   0  0  0  0  0  0  0  0  0  0  0  0
    9.0996    0.5962    3.3172 H   0  0  0  0  0  0  0  0  0  0  0  0
    9.4677    2.0629    3.9335 H   0  0  0  0  0  0  0  0  0  0  0  0
    3.2180   -0.3105    3.3864 H   0  0  0  0  0  0  0  0  0  0  0  0
    4.7065   -0.4373    2.7268 H   0  0  0  0  0  0  0  0  0  0  0  0
    2.6505   -1.0149    1.2988 H   0  0  0  0  0  0  0  0  0  0  0  0
    4.5616   -1.2447    0.1414 H   0  0  0  0  0  0  0  0  0  0  0  0
    5.1895    0.1293    0.7616 H   0  0  0  0  0  0  0  0  0  0  0  0
    4.7852    0.3642   -1.5793 H   0  0  0  0  0  0  0  0  0  0  0  0
    3.2038    0.0424   -1.3298 H   0  0  0  0  0  0  0  0  0  0  0  0
    4.6131    2.4489   -0.8212 H   0  0  0  0  0  0  0  0  0  0  0  0
    3.0949    2.2616   -1.3925 H   0  0  0  0  0  0  0  0  0  0  0  0
    5.1805   -3.1102   -0.8035 H   0  0  0  0  0  0  0  0  0  0  0  0
    4.4309   -1.0160   -1.9453 H   0  0  0  0  0  0  0  0  0  0  0  0
    2.2117   -0.1443   -1.1874 H   0  0  0  0  0  0  0  0  0  0  0  0
    0.1402   -3.5465    0.8523 H   0  0  0  0  0  0  0  0  0  0  0  0
  1  2  1  0  0  0  0
  2  3  1  0  0  0  0
  3  4  1  0  0  0  0
  4  5  2  0  0  0  0
  4  6  1  0  0  0  0
  2  7  2  0  0  0  0
  7  8  1  0  0  0  0
  8  9  2  0  0  0  0
  8 10  1  0  0  0  0
 10 11  1  0  0  0  0
 11 12  1  0  0  0  0
 12 13  1  0  0  0  0
 13 14  1  0  0  0  0
 14 15  1  0  0  0  0
 15 16  2  0  0  0  0
 16 17  1  0  0  0  0
 17 18  2  0  0  0  0
 18 14  1  0  0  0  0
 17 19  1  0  0  0  0
 19 20  1  0  0  0  0
 20 21  1  0  0  0  0
 21 22  1  0  0  0  0
 22 23  1  0  0  0  0
 23 19  1  0  0  0  0
 19 24  1  0  0  0  0
 13 25  1  0  0  0  0
 25 26  1  0  0  0  0
 26 10  1  0  0  0  0
 26 27  1  0  0  0  0
 27 28  1  0  0  0  0
 28 29  1  0  0  0  0
 29 11  1  0  0  0  0
  7 30  1  0  0  0  0
 30 31  1  0  0  0  0
 31 32  1  0  0  0  0
 32 33  1  0  0  0  0
 33 34  2  0  0  0  0
 34 35  1  0  0  0  0
 31 35  2  0  0  0  0
 30 36  2  0  0  0  0
 36  1  1  0  0  0  0
  3 37  1  0  0  0  0
  6 38  1  0  0  0  0
  6 39  1  0  0  0  0
  6 40  1  0  0  0  0
 11 41  1  0  0  0  0
 12 42  1  0  0  0  0
 12 43  1  0  0  0  0
 13 44  1  0  0  0  0
 18 45  1  0  0  0  0
 20 46  1  0  0  0  0
 20 47  1  0  0  0  0
 21 48  1  0  0  0  0
 21 49  1  0  0  0  0
 22 50  1  0  0  0  0
 22 51  1  0  0  0  0
 23 52  1  0  0  0  0
 23 53  1  0  0  0  0
 24 54  1  0  0  0  0
 24 55  1  0  0  0  0
 24 56  1  0  0  0  0
 25 57  1  0  0  0  0
 25 58  1  0  0  0  0
 26 59  1  0  0  0  0
 27 60  1  0  0  0  0
 27 61  1  0  0  0  0
 28 62  1  0  0  0  0
 28 63  1  0  0  0  0
 29 64  1  0  0  0  0
 29 65  1  0  0  0  0
 33 66  1  0  0  0  0
 34 67  1  0  0  0  0
 35 68  1  0  0  0  0
 36 69  1  0  0  0  0
M  END
>  <result-rank>
84

>  <similarity>
0.883

>  <query-name>


>  <query-smiles>
S1c2c(cccc2)C(C(=O)N3CCC([N@H+]4CC5(C(=O)N6N(C5=O)CCCC6)CCC4)CC3)=C1NC(=O)NC

>  <source>
REALspace_2019-12

>  <similarity-descriptor>
0.959;0.908;0.931;0.732;0.728;0.998;1.000;1.000;0.848;0.848;0.995;0.091

>  <similarity-descriptor-smiles>
N1CCCCC1;S1C=CC=C1;C1=CC=CS1;N1C=CN=N1;N1CCCCC1;C1CCCC1;C=O;N;C=O;C=O;C;C

>  <reaction-name>
m_276010b

>  <reagent1-name>
17281604

>  <reagent1-smiles>
[R1*]N=NN([R2*])C1CC2N([R3*])C(C1)CCC2

>  <reagent2-name>
17252650

>  <reagent2-smiles>
[R3*]C(=O)C1=C(SC=C1C=2SC=CC2)NC(=O)C

>  <reagent3-name>
13624802

>  <reagent3-smiles>
[R1*]C(=C[R2*])C1(CCCC1)C

$$$$
m_275592____15865406____15845922____14133620
          04022017303D 1   1.00000     0.00000     0
            
 69 73  0  0  0  0            999 V2000
    0.4000    2.0387    0.9677 O   0  0  0  0  0  0  0  0  0  0  0  0
    1.0000    1.0000    1.0000 C   0  0  0  0  0  0  0  0  0  0  0  0
    2.3982    1.0000    1.0000 N   0  0  0  0  0  0  0  0  0  0  0  0
    3.0885    2.3011    0.9595 C   0  0  0  0  0  0  0  0  0  0  0  0
    4.3411    2.2764    1.8289 C   0  0  0  0  0  0  0  0  0  0  0  0
    5.2105    1.0372    1.6574 C   0  0  0  0  0  0  0  0  0  0  0  0
    6.4226    1.0514    2.5704 C   0  0  3  0  0  0  0  0  0  0  0  0
    6.1074    0.7283    4.0252 C   0  0  0  0  0  0  0  0  0  0  0  0
    7.3460    0.7698    4.8159 N   0  0  0  0  0  0  0  0  0  0  0  0
    7.8550    1.9727    5.2290 C   0  0  0  0  0  0  0  0  0  0  0  0
    7.2898    2.9926    4.9455 O   0  0  0  0  0  0  0  0  0  0  0  0
    9.0779    2.0136    6.0097 C   0  0  0  0  0  0  0  0  0  0  0  0
    9.0800    1.3724    7.1879 N   0  0  0  0  0  0  0  0  0  0  0  0
   10.1622    1.3526    7.9805 C   0  0  0  0  0  0  0  0  0  0  0  0
   11.3309    2.0051    7.6009 C   0  0  0  0  0  0  0  0  0  0  0  0
   11.3572    2.6786    6.3835 C   0  0  0  0  0  0  0  0  0  0  0  0
   10.2228    2.6857    5.5782 C   0  0  0  0  0  0  0  0  0  0  0  0
   10.2857    3.3697    4.3664 C   0  0  0  0  0  0  0  0  0  0  0  0
   11.4366    4.0316    3.9517 C   0  0  0  0  0  0  0  0  0  0  0  0
   12.5589    4.0112    4.7733 C   0  0  0  0  0  0  0  0  0  0  0  0
   12.5191    3.3350    5.9886 C   0  0  0  0  0  0  0  0  0  0  0  0
    7.3334   -0.0149    1.9898 C   0  0  0  0  0  0  0  0  0  0  0  0
    7.0071   -0.0362    0.5128 C   0  0  0  0  0  0  0  0  0  0  0  0
    5.9716    1.0582    0.3493 C   0  0  0  0  0  0  0  0  0  0  0  0
    4.2895   -0.1390    1.9689 C   0  0  0  0  0  0  0  0  0  0  0  0
    3.0880   -0.2968    1.0514 C   0  0  0  0  0  0  0  0  0  0  0  0
    0.2752   -0.2548    1.0391 C   0  0  0  0  0  0  0  0  0  0  0  0
    0.3526   -1.2518    0.1155 N   0  0  0  0  0  0  0  0  0  0  0  0
   -0.4210   -2.1763    0.4924 N   0  0  0  0  0  0  0  0  0  0  0  0
   -1.0225   -1.8705    1.6156 N   0  0  0  0  0  0  0  0  0  0  0  0
   -0.6042   -0.6385    2.0046 C   0  0  0  0  0  0  0  0  0  0  0  0
   -1.9877   -2.7177    2.3306 C   0  0  0  0  0  0  0  0  0  0  0  0
   -1.2478   -3.6091    3.3147 C   0  0  0  0  0  0  0  0  0  0  0  0
   -2.2459   -4.4852    4.0541 C   0  0  0  0  0  0  0  0  0  0  0  0
   -1.5061   -5.3766    5.0382 C   0  0  0  0  0  0  0  0  0  0  0  0
    2.4699    3.0112    1.2958 H   0  0  0  0  0  0  0  0  0  0  0  0
    3.3484    2.5052    0.0157 H   0  0  0  0  0  0  0  0  0  0  0  0
    4.8937    3.0784    1.6020 H   0  0  0  0  0  0  0  0  0  0  0  0
    4.0569    2.3275    2.7863 H   0  0  0  0  0  0  0  0  0  0  0  0
    6.8729    1.9426    2.5153 H   0  0  0  0  0  0  0  0  0  0  0  0
    5.4605    1.4015    4.3835 H   0  0  0  0  0  0  0  0  0  0  0  0
    5.7047   -0.1851    4.0841 H   0  0  0  0  0  0  0  0  0  0  0  0
    7.8170   -0.0801    5.0521 H   0  0  0  0  0  0  0  0  0  0  0  0
   10.1285    0.8643    8.8525 H   0  0  0  0  0  0  0  0  0  0  0  0
   12.1373    1.9903    8.1922 H   0  0  0  0  0  0  0  0  0  0  0  0
    9.4785    3.3854    3.7763 H   0  0  0  0  0  0  0  0  0  0  0  0
   11.4568    4.5148    3.0764 H   0  0  0  0  0  0  0  0  0  0  0  0
   13.3943    4.4824    4.4904 H   0  0  0  0  0  0  0  0  0  0  0  0
   13.3261    3.3207    6.5789 H   0  0  0  0  0  0  0  0  0  0  0  0
    7.1445   -0.9046    2.4055 H   0  0  0  0  0  0  0  0  0  0  0  0
    8.2935    0.2239    2.1354 H   0  0  0  0  0  0  0  0  0  0  0  0
    7.8211    0.1604   -0.0338 H   0  0  0  0  0  0  0  0  0  0  0  0
    6.6318   -0.9234    0.2445 H   0  0  0  0  0  0  0  0  0  0  0  0
    6.4108    1.9453    0.2074 H   0  0  0  0  0  0  0  0  0  0  0  0
    5.3633    0.8605   -0.4194 H   0  0  0  0  0  0  0  0  0  0  0  0
    3.9502   -0.0245    2.9025 H   0  0  0  0  0  0  0  0  0  0  0  0
    4.8318   -0.9772    1.9118 H   0  0  0  0  0  0  0  0  0  0  0  0
    3.3902   -0.5594    0.1350 H   0  0  0  0  0  0  0  0  0  0  0  0
    2.4722   -0.9970    1.4127 H   0  0  0  0  0  0  0  0  0  0  0  0
   -0.8805   -0.1273    2.8185 H   0  0  0  0  0  0  0  0  0  0  0  0
   -2.4833   -3.2858    1.6737 H   0  0  0  0  0  0  0  0  0  0  0  0
   -2.6355   -2.1394    2.8266 H   0  0  0  0  0  0  0  0  0  0  0  0
   -0.7522   -3.0409    3.9716 H   0  0  0  0  0  0  0  0  0  0  0  0
   -0.6001   -4.1874    2.8187 H   0  0  0  0  0  0  0  0  0  0  0  0
   -2.7415   -5.0533    3.3971 H   0  0  0  0  0  0  0  0  0  0  0  0
   -2.8937   -3.9069    4.5501 H   0  0  0  0  0  0  0  0  0  0  0  0
   -2.1627   -5.9529    5.5246 H   0  0  0  0  0  0  0  0  0  0  0  0
   -0.8583   -5.9549    4.5422 H   0  0  0  0  0  0  0  0  0  0  0  0
   -1.0105   -4.8084    5.6951 H   0  0  0  0  0  0  0  0  0  0  0  0
  1  2  2  0  0  0  0
  2  3  1  0  0  0  0
  3  4  1  0  0  0  0
  4  5  1  0  0  0  0
  5  6  1  0  0  0  0
  6  7  1  0  0  0  0
  7  8  1  0  0  0  0
  8  9  1  0  0  0  0
  9 10  1  0  0  0  0
 10 11  2  0  0  0  0
 10 12  1  0  0  0  0
 12 13  1  0  0  0  0
 13 14  2  0  0  0  0
 14 15  1  0  0  0  0
 15 16  2  0  0  0  0
 16 17  1  0  0  0  0
 17 12  2  0  0  0  0
 17 18  1  0  0  0  0
 18 19  2  0  0  0  0
 19 20  1  0  0  0  0
 20 21  2  0  0  0  0
 21 16  1  0  0  0  0
  7 22  1  0  0  0  0
 22 23  1  0  0  0  0
 23 24  1  0  0  0  0
 24  6  1  0  0  0  0
  6 25  1  0  0  0  0
 25 26  1  0  0  0  0
 26  3  1  0  0  0  0
  2 27  1  0  0  0  0
 27 28  1  0  0  0  0
 28 29  2  0  0  0  0
 29 30  1  0  0  0  0
 30 31  1  0  0  0  0
 27 31  2  0  0  0  0
 30 32  1  0  0  0  0
 32 33  1  0  0  0  0
 33 34  1  0  0  0  0
 34 35  1  0  0  0  0
  4 36  1  0  0  0  0
  4 37  1  0  0  0  0
  5 38  1  0  0  0  0
  5 39  1  0  0  0  0
  7 40  1  0  0  0  0
  8 41  1  0  0  0  0
  8 42  1  0  0  0  0
  9 43  1  0  0  0  0
 14 44  1  0  0  0  0
 15 45  1  0  0  0  0
 18 46  1  0  0  0  0
 19 47  1  0  0  0  0
 20 48  1  0  0  0  0
 21 49  1  0  0  0  0
 22 50  1  0  0  0  0
 22 51  1  0  0  0  0
 23 52  1  0  0  0  0
 23 53  1  0  0  0  0
 24 54  1  0  0  0  0
 24 55  1  0  0  0  0
 25 56  1  0  0  0  0
 25 57  1  0  0  0  0
 26 58  1  0  0  0  0
 26 59  1  0  0  0  0
 31 60  1  0  0  0  0
 32 61  1  0  0  0  0
 32 62  1  0  0  0  0
 33 63  1  0  0  0  0
 33 64  1  0  0  0  0
 34 65  1  0  0  0  0
 34 66  1  0  0  0  0
 35 67  1  0  0  0  0
 35 68  1  0  0  0  0
 35 69  1  0  0  0  0
M  END
>  <result-rank>
85

>  <similarity>
0.883

>  <query-name>


>  <query-smiles>
S1c2c(cccc2)C(C(=O)N3CCC([N@H+]4CC5(C(=O)N6N(C5=O)CCCC6)CCC4)CC3)=C1NC(=O)NC

>  <source>
REALspace_2019-12

>  <similarity-descriptor>
0.995;0.805;0.999;0.873;0.808;0.897;0.851;0.805;0.805;0.0;0.0;0.0

>  <similarity-descriptor-smiles>
C1CCCC1C;c1ccccn1;c1ccccc1;O=CC1=CNN=N1;N1CCCCC1;CCCC;NC=O;c1ccccn1;c1ccccn1;;;

>  <reaction-name>
m_275592

>  <reagent1-name>
15865406

>  <reagent1-smiles>
[R2*]N1CCC2(C(CN[R1*])CCC2)CC1

>  <reagent2-name>
15845922

>  <reagent2-smiles>
[R1*]C(=O)C=1N=NN(C1)CCCC

>  <reagent3-name>
14133620

>  <reagent3-smiles>
[R2*]C(=O)c1nccc2c1cccc2

$$$$
m_274310____15937416____14121912____15870848
          04022017303D 1   1.00000     0.00000     0
            
 66 71  0  0  0  0            999 V2000
    0.2958   -8.2204    0.9642 F   0  0  0  0  0  0  0  0  0  0  0  0
   -0.1384   -7.3902    0.0200 C   0  0  0  0  0  0  0  0  0  0  0  0
   -0.3506   -6.0473    0.3175 C   0  0  0  0  0  0  0  0  0  0  0  0
   -0.0990   -5.5529    1.6575 C   0  0  0  0  0  0  0  0  0  0  0  0
    0.7968   -4.5845    1.9150 N   0  0  0  0  0  0  0  0  0  0  0  0
    1.0308   -4.1266    3.1563 C   0  0  0  0  0  0  0  0  0  0  0  0
    0.3488   -4.6502    4.1865 N   0  0  0  0  0  0  0  0  0  0  0  0
   -0.5604   -5.6191    4.0040 C   0  0  0  0  0  0  0  0  0  0  0  0
   -0.8086   -6.0985    2.7224 C   0  0  0  0  0  0  0  0  0  0  0  0
    1.9678   -3.1162    3.4127 N   0  0  0  0  0  0  0  0  0  0  0  0
    2.1490   -2.6856    4.8092 C   0  0  0  0  0  0  0  0  0  0  0  0
    2.1902   -1.1643    4.8173 C   0  0  0  0  0  0  0  0  0  0  0  0
    1.7093   -0.5714    5.7697 O   0  0  0  0  0  0  0  0  0  0  0  0
    2.7621   -0.4826    3.7334 N   0  0  0  0  0  0  0  0  0  0  0  0
    2.7621    0.9896    3.7067 C   0  0  0  0  0  0  0  0  0  0  0  0
    4.2092    1.4582    3.6499 C   0  0  0  0  0  0  0  0  0  0  0  0
    4.3231    2.9711    3.5294 C   0  0  0  0  0  0  0  0  0  0  0  0
    3.3992    3.5167    2.5208 N   0  0  0  0  0  0  0  0  0  0  0  0
    3.7976    4.6449    1.7976 C   0  0  0  0  0  0  0  0  0  0  0  0
    4.8689    5.1437    2.0062 O   0  0  0  0  0  0  0  0  0  0  0  0
    2.9166    5.2121    0.7959 C   0  0  0  0  0  0  0  0  0  0  0  0
    2.4476    4.5727   -0.3105 N   0  0  0  0  0  0  0  0  0  0  0  0
    1.7146    5.3892   -0.9359 N   0  0  0  0  0  0  0  0  0  0  0  0
    1.6561    6.5468   -0.3250 N   0  0  0  0  0  0  0  0  0  0  0  0
    2.4180    6.4787    0.7970 C   0  0  0  0  0  0  0  0  0  0  0  0
    0.8941    7.7227   -0.7809 C   0  0  0  0  0  0  0  0  0  0  0  0
   -0.1454    8.1572    0.2335 C   0  0  0  0  0  0  0  0  0  0  0  0
   -1.0328    8.4838   -0.9476 C   0  0  0  0  0  0  0  0  0  0  0  0
   -0.2691    7.4065   -1.6952 C   0  0  0  0  0  0  0  0  0  0  0  0
    2.0802    2.9295    2.2307 C   0  0  0  0  0  0  0  0  0  0  0  0
    2.0695    1.4188    2.4202 C   0  0  0  0  0  0  0  0  0  0  0  0
    3.3735   -1.1941    2.5946 C   0  0  0  0  0  0  0  0  0  0  0  0
    2.7268   -2.5409    2.2869 C   0  0  0  0  0  0  0  0  0  0  0  0
   -0.8046   -5.1797   -0.6696 C   0  0  0  0  0  0  0  0  0  0  0  0
   -1.0452   -5.6535   -1.9550 C   0  0  0  0  0  0  0  0  0  0  0  0
   -0.8330   -6.9960   -2.2526 C   0  0  0  0  0  0  0  0  0  0  0  0
   -0.3792   -7.8638   -1.2653 C   0  0  0  0  0  0  0  0  0  0  0  0
   -1.0576   -5.9951    4.7859 H   0  0  0  0  0  0  0  0  0  0  0  0
   -1.4833   -6.8205    2.5694 H   0  0  0  0  0  0  0  0  0  0  0  0
    3.0060   -3.0523    5.1711 H   0  0  0  0  0  0  0  0  0  0  0  0
    1.3855   -3.0094    5.3680 H   0  0  0  0  0  0  0  0  0  0  0  0
    2.2949    1.3633    4.5079 H   0  0  0  0  0  0  0  0  0  0  0  0
    4.6522    1.0385    2.8577 H   0  0  0  0  0  0  0  0  0  0  0  0
    4.6746    1.1664    4.4855 H   0  0  0  0  0  0  0  0  0  0  0  0
    4.1119    3.3822    4.4163 H   0  0  0  0  0  0  0  0  0  0  0  0
    5.2599    3.2044    3.2686 H   0  0  0  0  0  0  0  0  0  0  0  0
    2.5772    7.1982    1.4731 H   0  0  0  0  0  0  0  0  0  0  0  0
    1.4704    8.4709   -1.1097 H   0  0  0  0  0  0  0  0  0  0  0  0
    0.1164    8.9441    0.7923 H   0  0  0  0  0  0  0  0  0  0  0  0
   -0.4858    7.4266    0.8252 H   0  0  0  0  0  0  0  0  0  0  0  0
   -0.9237    9.4081   -1.3134 H   0  0  0  0  0  0  0  0  0  0  0  0
   -2.0045    8.2924   -0.8097 H   0  0  0  0  0  0  0  0  0  0  0  0
   -0.6411    6.4834   -1.5978 H   0  0  0  0  0  0  0  0  0  0  0  0
   -0.1078    7.6005   -2.6628 H   0  0  0  0  0  0  0  0  0  0  0  0
    1.8364    3.1371    1.2834 H   0  0  0  0  0  0  0  0  0  0  0  0
    1.4043    3.3361    2.8455 H   0  0  0  0  0  0  0  0  0  0  0  0
    1.1203    1.1052    2.4467 H   0  0  0  0  0  0  0  0  0  0  0  0
    2.5391    0.9947    1.6458 H   0  0  0  0  0  0  0  0  0  0  0  0
    4.3394   -1.3489    2.8023 H   0  0  0  0  0  0  0  0  0  0  0  0
    3.2957   -0.6149    1.7832 H   0  0  0  0  0  0  0  0  0  0  0  0
    2.1015   -2.4200    1.5159 H   0  0  0  0  0  0  0  0  0  0  0  0
    3.4484   -3.1850    2.0330 H   0  0  0  0  0  0  0  0  0  0  0  0
   -0.9582   -4.2150   -0.4554 H   0  0  0  0  0  0  0  0  0  0  0  0
   -1.3708   -5.0293   -2.6652 H   0  0  0  0  0  0  0  0  0  0  0  0
   -1.0068   -7.3368   -3.1766 H   0  0  0  0  0  0  0  0  0  0  0  0
   -0.2260   -8.8285   -1.4795 H   0  0  0  0  0  0  0  0  0  0  0  0
  1  2  1  0  0  0  0
  2  3  1  0  0  0  0
  3  4  1  0  0  0  0
  4  5  1  0  0  0  0
  5  6  2  0  0  0  0
  6  7  1  0  0  0  0
  7  8  2  0  0  0  0
  8  9  1  0  0  0  0
  9  4  2  0  0  0  0
  6 10  1  0  0  0  0
 10 11  1  0  0  0  0
 11 12  1  0  0  0  0
 12 13  2  0  0  0  0
 12 14  1  0  0  0  0
 14 15  1  0  0  0  0
 15 16  1  0  0  0  0
 16 17  1  0  0  0  0
 17 18  1  0  0  0  0
 18 19  1  0  0  0  0
 19 20  2  0  0  0  0
 19 21  1  0  0  0  0
 21 22  1  0  0  0  0
 22 23  2  0  0  0  0
 23 24  1  0  0  0  0
 24 25  1  0  0  0  0
 21 25  2  0  0  0  0
 24 26  1  0  0  0  0
 26 27  1  0  0  0  0
 27 28  1  0  0  0  0
 28 29  1  0  0  0  0
 29 26  1  0  0  0  0
 18 30  1  0  0  0  0
 30 31  1  0  0  0  0
 31 15  1  0  0  0  0
 14 32  1  0  0  0  0
 32 33  1  0  0  0  0
 33 10  1  0  0  0  0
  3 34  2  0  0  0  0
 34 35  1  0  0  0  0
 35 36  2  0  0  0  0
 36 37  1  0  0  0  0
 37  2  2  0  0  0  0
  8 38  1  0  0  0  0
  9 39  1  0  0  0  0
 11 40  1  0  0  0  0
 11 41  1  0  0  0  0
 15 42  1  0  0  0  0
 16 43  1  0  0  0  0
 16 44  1  0  0  0  0
 17 45  1  0  0  0  0
 17 46  1  0  0  0  0
 25 47  1  0  0  0  0
 26 48  1  0  0  0  0
 27 49  1  0  0  0  0
 27 50  1  0  0  0  0
 28 51  1  0  0  0  0
 28 52  1  0  0  0  0
 29 53  1  0  0  0  0
 29 54  1  0  0  0  0
 30 55  1  0  0  0  0
 30 56  1  0  0  0  0
 31 57  1  0  0  0  0
 31 58  1  0  0  0  0
 32 59  1  0  0  0  0
 32 60  1  0  0  0  0
 33 61  1  0  0  0  0
 33 62  1  0  0  0  0
 34 63  1  0  0  0  0
 35 64  1  0  0  0  0
 36 65  1  0  0  0  0
 37 66  1  0  0  0  0
M  END
>  <result-rank>
86

>  <similarity>
0.883

>  <query-name>


>  <query-smiles>
S1c2c(cccc2)C(C(=O)N3CCC([N@H+]4CC5(C(=O)N6N(C5=O)CCCC6)CCC4)CC3)=C1NC(=O)NC

>  <source>
REALspace_2019-12

>  <similarity-descriptor>
0.906;0.884;0.966;0.873;0.750;0.975;0.906;0.884;0.884;0.0;0.0;0.0

>  <similarity-descriptor-smiles>
N1CCNC(C1)=O;c1ccncn1;Fc1ccccc1;C(=O)C1=CNN=N1;C1CCNCC1;C1CCC1;N1CCNC(C1)=O;c1ccncn1;c1ccncn1;;;

>  <reaction-name>
m_274310

>  <reagent1-name>
15937416

>  <reagent1-smiles>
[R2*]N1CC(=O)N(C2CCN([R1*])CC2)CC1

>  <reagent2-name>
14121912

>  <reagent2-smiles>
[R1*]C(=O)C=1N=NN(C1)C2CCC2

>  <reagent3-name>
15870848

>  <reagent3-smiles>
[R2*]c1nc(c2c(F)cccc2)ccn1

$$$$
m_276010b____17281604____17280324____17281010
          04022017303D 1   1.00000     0.00000     0
            
 65 70  0  0  0  0            999 V2000
    2.4081    4.4146   -0.4460 S   0  0  0  0  0  0  0  0  0  0  0  0
    1.5402    5.6936   -1.1531 C   0  0  0  0  0  0  0  0  0  0  0  0
    1.6818    6.7879   -0.3289 C   0  0  0  0  0  0  0  0  0  0  0  0
    1.0145    7.9212   -0.7843 C   0  0  0  0  0  0  0  0  0  0  0  0
    0.2839    7.9150   -1.9682 C   0  0  0  0  0  0  0  0  0  0  0  0
    0.1923    6.7649   -2.7464 C   0  0  0  0  0  0  0  0  0  0  0  0
    0.8347    5.6063   -2.3409 C   0  0  0  0  0  0  0  0  0  0  0  0
    2.4796    6.5353    0.8228 C   0  0  0  0  0  0  0  0  0  0  0  0
    2.7901    7.5072    1.8528 C   0  0  0  0  0  0  0  0  0  0  0  0
    3.7682    8.1952    1.7532 O   0  0  0  0  0  0  0  0  0  0  0  0
    2.0029    7.6343    2.8921 O   0  0  0  0  0  0  0  0  0  0  0  0
    2.3071    8.5862    3.9010 C   0  0  0  0  0  0  0  0  0  0  0  0
    2.9663    5.2676    0.9156 C   0  0  0  0  0  0  0  0  0  0  0  0
    3.8003    4.7257    1.9698 C   0  0  0  0  0  0  0  0  0  0  0  0
    4.8766    5.2079    2.1911 O   0  0  0  0  0  0  0  0  0  0  0  0
    3.3486    3.6362    2.7326 N   0  0  0  0  0  0  0  0  0  0  0  0
    4.1226    3.0289    3.8117 C   0  0  3  0  0  0  0  0  0  0  0  0
    4.1839    1.5130    3.7238 C   0  0  0  0  0  0  0  0  0  0  0  0
    2.7581    0.9880    3.7080 C   0  0  3  0  0  0  0  0  0  0  0  0
    2.7621   -0.4819    3.7334 N   0  0  0  0  0  0  0  0  0  0  0  0
    3.2803   -1.2284    4.6774 N   0  0  0  0  0  0  0  0  0  0  0  0
    3.1279   -2.4559    4.4211 N   0  0  0  0  0  0  0  0  0  0  0  0
    2.4668   -2.5515    3.2335 C   0  0  0  0  0  0  0  0  0  0  0  0
    2.2269   -1.2920    2.7824 C   0  0  0  0  0  0  0  0  0  0  0  0
    2.0647   -3.8402    2.5359 C   0  0  0  0  0  0  0  0  0  0  0  0
    2.6049   -4.1252    1.1432 C   0  0  0  0  0  0  0  0  0  0  0  0
    4.1233   -4.1751    1.1891 C   0  0  0  0  0  0  0  0  0  0  0  0
    4.6277   -4.4412   -0.1114 O   0  0  0  0  0  0  0  0  0  0  0  0
    0.6684   -4.3220    2.8100 C   0  0  0  0  0  0  0  0  0  0  0  0
    1.8417   -5.0354    3.4182 C   0  0  0  0  0  0  0  0  0  0  0  0
    2.0195    1.5190    2.4901 C   0  0  0  0  0  0  0  0  0  0  0  0
    2.0168    3.0385    2.5548 C   0  0  3  0  0  0  0  0  0  0  0  0
    1.2399    3.5973    3.7370 C   0  0  0  0  0  0  0  0  0  0  0  0
    2.1232    4.2799    4.7837 C   0  0  0  0  0  0  0  0  0  0  0  0
    3.4413    3.5647    5.0676 C   0  0  0  0  0  0  0  0  0  0  0  0
    1.0614    8.7626   -0.2460 H   0  0  0  0  0  0  0  0  0  0  0  0
   -0.1820    8.7488   -2.2643 H   0  0  0  0  0  0  0  0  0  0  0  0
   -0.3356    6.7747   -3.5956 H   0  0  0  0  0  0  0  0  0  0  0  0
    0.7915    4.7605   -2.8727 H   0  0  0  0  0  0  0  0  0  0  0  0
    1.6077    8.5504    4.6148 H   0  0  0  0  0  0  0  0  0  0  0  0
    3.2003    8.3766    4.2986 H   0  0  0  0  0  0  0  0  0  0  0  0
    2.3274    9.5021    3.4999 H   0  0  0  0  0  0  0  0  0  0  0  0
    5.0551    3.3883    3.7767 H   0  0  0  0  0  0  0  0  0  0  0  0
    4.6557    1.2401    2.8854 H   0  0  0  0  0  0  0  0  0  0  0  0
    4.6723    1.1462    4.5156 H   0  0  0  0  0  0  0  0  0  0  0  0
    2.2912    1.3169    4.5289 H   0  0  0  0  0  0  0  0  0  0  0  0
    1.7610   -1.0219    1.9398 H   0  0  0  0  0  0  0  0  0  0  0  0
    2.3139   -3.4008    0.5181 H   0  0  0  0  0  0  0  0  0  0  0  0
    2.2520   -5.0041    0.8222 H   0  0  0  0  0  0  0  0  0  0  0  0
    4.4762   -3.2962    1.5101 H   0  0  0  0  0  0  0  0  0  0  0  0
    4.4143   -4.8995    1.8141 H   0  0  0  0  0  0  0  0  0  0  0  0
    5.6267   -4.4740   -0.0812 H   0  0  0  0  0  0  0  0  0  0  0  0
    0.1389   -4.7598    2.0834 H   0  0  0  0  0  0  0  0  0  0  0  0
    0.0574   -3.7813    3.3883 H   0  0  0  0  0  0  0  0  0  0  0  0
    2.0119   -4.9698    4.4014 H   0  0  0  0  0  0  0  0  0  0  0  0
    2.0933   -5.9482    3.0966 H   0  0  0  0  0  0  0  0  0  0  0  0
    1.0789    1.1793    2.4909 H   0  0  0  0  0  0  0  0  0  0  0  0
    2.4821    1.2173    1.6565 H   0  0  0  0  0  0  0  0  0  0  0  0
    1.6159    3.3945    1.7107 H   0  0  0  0  0  0  0  0  0  0  0  0
    0.7511    2.8447    4.1782 H   0  0  0  0  0  0  0  0  0  0  0  0
    0.5811    4.2670    3.3941 H   0  0  0  0  0  0  0  0  0  0  0  0
    2.3325    5.2030    4.4610 H   0  0  0  0  0  0  0  0  0  0  0  0
    1.6077    4.3347    5.6389 H   0  0  0  0  0  0  0  0  0  0  0  0
    4.0619    4.2091    5.5145 H   0  0  0  0  0  0  0  0  0  0  0  0
    3.2594    2.7967    5.6817 H   0  0  0  0  0  0  0  0  0  0  0  0
  1  2  1  0  0  0  0
  2  3  1  0  0  0  0
  3  4  2  0  0  0  0
  4  5  1  0  0  0  0
  5  6  2  0  0  0  0
  6  7  1  0  0  0  0
  7  2  2  0  0  0  0
  3  8  1  0  0  0  0
  8  9  1  0  0  0  0
  9 10  2  0  0  0  0
  9 11  1  0  0  0  0
 11 12  1  0  0  0  0
  8 13  2  0  0  0  0
 13  1  1  0  0  0  0
 13 14  1  0  0  0  0
 14 15  2  0  0  0  0
 14 16  1  0  0  0  0
 16 17  1  0  0  0  0
 17 18  1  0  0  0  0
 18 19  1  0  0  0  0
 19 20  1  0  0  0  0
 20 21  1  0  0  0  0
 21 22  2  0  0  0  0
 22 23  1  0  0  0  0
 23 24  2  0  0  0  0
 24 20  1  0  0  0  0
 23 25  1  0  0  0  0
 25 26  1  0  0  0  0
 26 27  1  0  0  0  0
 27 28  1  0  0  0  0
 25 29  1  0  0  0  0
 29 30  1  0  0  0  0
 30 25  1  0  0  0  0
 19 31  1  0  0  0  0
 31 32  1  0  0  0  0
 32 16  1  0  0  0  0
 32 33  1  0  0  0  0
 33 34  1  0  0  0  0
 34 35  1  0  0  0  0
 35 17  1  0  0  0  0
  4 36  1  0  0  0  0
  5 37  1  0  0  0  0
  6 38  1  0  0  0  0
  7 39  1  0  0  0  0
 12 40  1  0  0  0  0
 12 41  1  0  0  0  0
 12 42  1  0  0  0  0
 17 43  1  0  0  0  0
 18 44  1  0  0  0  0
 18 45  1  0  0  0  0
 19 46  1  0  0  0  0
 24 47  1  0  0  0  0
 26 48  1  0  0  0  0
 26 49  1  0  0  0  0
 27 50  1  0  0  0  0
 27 51  1  0  0  0  0
 28 52  1  0  0  0  0
 29 53  1  0  0  0  0
 29 54  1  0  0  0  0
 30 55  1  0  0  0  0
 30 56  1  0  0  0  0
 31 57  1  0  0  0  0
 31 58  1  0  0  0  0
 32 59  1  0  0  0  0
 33 60  1  0  0  0  0
 33 61  1  0  0  0  0
 34 62  1  0  0  0  0
 34 63  1  0  0  0  0
 35 64  1  0  0  0  0
 35 65  1  0  0  0  0
M  END
>  <result-rank>
87

>  <similarity>
0.883

>  <query-name>


>  <query-smiles>
S1c2c(cccc2)C(C(=O)N3CCC([N@H+]4CC5(C(=O)N6N(C5=O)CCCC6)CCC4)CC3)=C1NC(=O)NC

>  <source>
REALspace_2019-12

>  <similarity-descriptor>
0.959;0.996;1.000;0.732;0.728;0.999;1.000;0.849;0.849;0.283;0.999;0.077

>  <similarity-descriptor-smiles>
N1CCCCC1;S1C=Ccc1;c1ccccc1;N1C=CN=N1;N1CCCCC1;C1(CC1)CC;C=O;C=O;C=O;O;C;O

>  <reaction-name>
m_276010b

>  <reagent1-name>
17281604

>  <reagent1-smiles>
[R1*]N=NN([R2*])C1CC2N([R3*])C(C1)CCC2

>  <reagent2-name>
17280324

>  <reagent2-smiles>
[R3*]C(=O)C=1Sc2c(cccc2)C1C(=O)OC

>  <reagent3-name>
17281010

>  <reagent3-smiles>
[R1*]C(=C[R2*])C1(CCO)CC1

$$$$
s_269862____8990226____10746022
          04022017303D 1   1.00000     0.00000     0
            
 65 68  0  0  0  0            999 V2000
    2.0699    7.1275    3.9134 O   0  0  0  0  0  0  0  0  0  0  0  0
    2.3072    6.5702    4.9493 C   0  0  0  0  0  0  0  0  0  0  0  0
    1.8484    5.3010    5.3010 N   0  0  0  0  0  0  0  0  0  0  0  0
    2.3040    4.9353    6.5677 C   0  0  0  0  0  0  0  0  0  0  0  0
    2.0818    3.9080    7.1467 O   0  0  0  0  0  0  0  0  0  0  0  0
    3.1291    6.1061    7.0560 C   0  0  0  0  0  0  0  0  0  0  0  0
    3.0795    7.1034    5.9816 N   0  0  0  0  0  0  0  0  0  0  0  0
    2.6940    6.5468    8.4382 C   0  0  0  0  0  0  0  0  0  0  0  0
    3.8286    7.4250    8.9254 C   0  0  0  0  0  0  0  0  0  0  0  0
    5.0576    6.7738    8.3259 C   0  0  0  0  0  0  0  0  0  0  0  0
    4.5216    5.6638    7.4444 C   0  0  0  0  0  0  0  0  0  0  0  0
    1.0000    4.4526    4.4526 C   0  0  0  0  0  0  0  0  0  0  0  0
    1.8776    3.5750    3.5750 C   0  0  0  0  0  0  0  0  0  0  0  0
    1.0289    2.7263    2.7263 N   0  3  0  0  0  0  0  0  0  0  0  0
    1.8776    1.8776    1.8776 C   0  0  3  0  0  0  0  0  0  0  0  0
    1.0000    1.0000    1.0000 C   0  0  0  0  0  0  0  0  0  0  0  0
    1.8776    0.1224    0.1224 C   0  0  0  0  0  0  0  0  0  0  0  0
    1.0000   -0.7551   -0.7551 C   0  0  0  0  0  0  0  0  0  0  0  0
    1.8776   -1.6327   -1.6327 C   0  0  0  0  0  0  0  0  0  0  0  0
    1.0000   -2.5103   -2.5103 C   0  0  0  0  0  0  0  0  0  0  0  0
    1.8492   -3.3595   -3.3595 N   0  0  0  0  0  0  0  0  0  0  0  0
    2.3143   -4.6290   -3.0201 C   0  0  0  0  0  0  0  0  0  0  0  0
    2.0836   -5.2081   -1.9947 O   0  0  0  0  0  0  0  0  0  0  0  0
    3.1076   -5.1137   -4.1243 C   0  0  0  0  0  0  0  0  0  0  0  0
    3.1075   -4.1365   -5.0850 C   0  0  0  0  0  0  0  0  0  0  0  0
    3.8207   -4.4096   -6.2493 C   0  0  0  0  0  0  0  0  0  0  0  0
    4.4961   -5.6139   -6.4176 C   0  0  0  0  0  0  0  0  0  0  0  0
    4.4755   -6.5831   -5.4196 C   0  0  0  0  0  0  0  0  0  0  0  0
    3.7668   -6.3316   -4.2500 C   0  0  0  0  0  0  0  0  0  0  0  0
    2.3137   -3.0185   -4.6272 C   0  0  0  0  0  0  0  0  0  0  0  0
    2.0889   -2.0001   -5.2208 O   0  0  0  0  0  0  0  0  0  0  0  0
    2.7551    1.0000    2.7551 C   0  0  0  0  0  0  0  0  0  0  0  0
    0.4515    2.1489    3.3036 H   0  0  0  0  0  0  0  0  0  0  0  0
    0.4515    3.3036    2.1489 H   0  0  0  0  0  0  0  0  0  0  0  0
    3.5190    8.0016    5.9879 H   0  0  0  0  0  0  0  0  0  0  0  0
    2.5733    5.7574    9.0401 H   0  0  0  0  0  0  0  0  0  0  0  0
    1.8397    7.0647    8.3923 H   0  0  0  0  0  0  0  0  0  0  0  0
    3.8760    7.4273    9.9243 H   0  0  0  0  0  0  0  0  0  0  0  0
    3.7230    8.3628    8.5945 H   0  0  0  0  0  0  0  0  0  0  0  0
    5.5762    7.4345    7.7832 H   0  0  0  0  0  0  0  0  0  0  0  0
    5.6435    6.3999    9.0449 H   0  0  0  0  0  0  0  0  0  0  0  0
    5.0941    5.5533    6.6320 H   0  0  0  0  0  0  0  0  0  0  0  0
    4.4879    4.8007    7.9483 H   0  0  0  0  0  0  0  0  0  0  0  0
    0.4226    5.0299    3.8752 H   0  0  0  0  0  0  0  0  0  0  0  0
    0.4226    3.8752    5.0299 H   0  0  0  0  0  0  0  0  0  0  0  0
    2.4549    4.1523    2.9976 H   0  0  0  0  0  0  0  0  0  0  0  0
    2.4549    2.9976    4.1523 H   0  0  0  0  0  0  0  0  0  0  0  0
    2.4549    2.4549    1.3002 H   0  0  0  0  0  0  0  0  0  0  0  0
    0.4226    1.5774    0.4226 H   0  0  0  0  0  0  0  0  0  0  0  0
    0.4226    0.4226    1.5774 H   0  0  0  0  0  0  0  0  0  0  0  0
    2.4549   -0.4549    0.6998 H   0  0  0  0  0  0  0  0  0  0  0  0
    2.4549    0.6998   -0.4549 H   0  0  0  0  0  0  0  0  0  0  0  0
    0.4226   -1.3325   -0.1778 H   0  0  0  0  0  0  0  0  0  0  0  0
    0.4226   -0.1778   -1.3325 H   0  0  0  0  0  0  0  0  0  0  0  0
    2.4549   -1.0554   -2.2101 H   0  0  0  0  0  0  0  0  0  0  0  0
    2.4549   -2.2101   -1.0554 H   0  0  0  0  0  0  0  0  0  0  0  0
    0.4226   -3.0876   -1.9329 H   0  0  0  0  0  0  0  0  0  0  0  0
    0.4226   -1.9329   -3.0876 H   0  0  0  0  0  0  0  0  0  0  0  0
    3.8478   -3.7264   -6.9790 H   0  0  0  0  0  0  0  0  0  0  0  0
    5.0011   -5.7847   -7.2636 H   0  0  0  0  0  0  0  0  0  0  0  0
    4.9631   -7.4476   -5.5416 H   0  0  0  0  0  0  0  0  0  0  0  0
    3.7319   -7.0105   -3.5166 H   0  0  0  0  0  0  0  0  0  0  0  0
    3.3325    0.4226    2.1778 H   0  0  0  0  0  0  0  0  0  0  0  0
    3.3325    1.5774    3.3325 H   0  0  0  0  0  0  0  0  0  0  0  0
    2.1778    0.4226    3.3325 H   0  0  0  0  0  0  0  0  0  0  0  0
  1  2  2  0  0  0  0
  2  3  1  0  0  0  0
  3  4  1  0  0  0  0
  4  5  2  0  0  0  0
  4  6  1  0  0  0  0
  6  7  1  0  0  0  0
  7  2  1  0  0  0  0
  6  8  1  0  0  0  0
  8  9  1  0  0  0  0
  9 10  1  0  0  0  0
 10 11  1  0  0  0  0
 11  6  1  0  0  0  0
  3 12  1  0  0  0  0
 12 13  1  0  0  0  0
 13 14  1  0  0  0  0
 14 15  1  0  0  0  0
 15 16  1  0  0  0  0
 16 17  1  0  0  0  0
 17 18  1  0  0  0  0
 18 19  1  0  0  0  0
 19 20  1  0  0  0  0
 20 21  1  0  0  0  0
 21 22  1  0  0  0  0
 22 23  2  0  0  0  0
 22 24  1  0  0  0  0
 24 25  1  0  0  0  0
 25 26  2  0  0  0  0
 26 27  1  0  0  0  0
 27 28  2  0  0  0  0
 28 29  1  0  0  0  0
 29 24  2  0  0  0  0
 25 30  1  0  0  0  0
 30 21  1  0  0  0  0
 30 31  2  0  0  0  0
 15 32  1  0  0  0  0
 14 33  1  0  0  0  0
 14 34  1  0  0  0  0
  7 35  1  0  0  0  0
  8 36  1  0  0  0  0
  8 37  1  0  0  0  0
  9 38  1  0  0  0  0
  9 39  1  0  0  0  0
 10 40  1  0  0  0  0
 10 41  1  0  0  0  0
 11 42  1  0  0  0  0
 11 43  1  0  0  0  0
 12 44  1  0  0  0  0
 12 45  1  0  0  0  0
 13 46  1  0  0  0  0
 13 47  1  0  0  0  0
 15 48  1  0  0  0  0
 16 49  1  0  0  0  0
 16 50  1  0  0  0  0
 17 51  1  0  0  0  0
 17 52  1  0  0  0  0
 18 53  1  0  0  0  0
 18 54  1  0  0  0  0
 19 55  1  0  0  0  0
 19 56  1  0  0  0  0
 20 57  1  0  0  0  0
 20 58  1  0  0  0  0
 26 59  1  0  0  0  0
 27 60  1  0  0  0  0
 28 61  1  0  0  0  0
 29 62  1  0  0  0  0
 32 63  1  0  0  0  0
 32 64  1  0  0  0  0
 32 65  1  0  0  0  0
M  CHG  1  14   1
M  END
>  <result-rank>
88

>  <similarity>
0.882

>  <query-name>


>  <query-smiles>
S1c2c(cccc2)C(C(=O)N3CCC([N@H+]4CC5(C(=O)N6N(C5=O)CCCC6)CCC4)CC3)=C1NC(=O)NC

>  <source>
REALspace_2019-12

>  <similarity-descriptor>
0.898;0.799;1.000;0.924;0.774;0.994;0.799;0.799;0.799;0.0;0.0;0.0

>  <similarity-descriptor-smiles>
CCCCC;N1C(ccC1=O)=O;c1ccccc1;O=C1NCC(N1)=O;CC[NH2+]CC;C1CCCC1;N1C(ccC1=O)=O;N1C(ccC1=O)=O;N1C(ccC1=O)=O;;;

>  <reaction-name>
s_269862

>  <reagent1-name>
8990226

>  <reagent1-smiles>
[R1*]NCCN1C(=O)NC2(C1=O)CCCC2

>  <reagent2-name>
10746022

>  <reagent2-smiles>
[R1*]C(CCCCCN1C(=O)c2c(cccc2)C1=O)C

$$$$
s_22____15090470____12345924
          04022017303D 1   1.00000     0.00000     0
            
 64 67  0  0  0  0            999 V2000
   -0.8850   -0.1277    0.6312 O   0  0  0  0  0  0  0  0  0  0  0  0
    0.3150   -0.1277    0.6312 C   0  0  0  0  0  0  0  0  0  0  0  0
    0.9700   -1.2060    0.2785 O   0  0  0  0  0  0  0  0  0  0  0  0
    0.2600   -2.3748   -0.1038 C   0  0  0  0  0  0  0  0  0  0  0  0
   -0.6139   -2.0655   -1.3084 C   0  0  0  0  0  0  0  0  0  0  0  0
    1.2477   -3.4729   -0.4630 C   0  0  0  0  0  0  0  0  0  0  0  0
   -0.6139   -2.8371    1.0507 C   0  0  0  0  0  0  0  0  0  0  0  0
    1.0000    1.0000    1.0000 N   0  0  0  0  0  0  0  0  0  0  0  0
    2.4699    1.0000    1.0000 C   0  0  3  0  0  0  0  0  0  0  0  0
    3.0734    2.0370    0.0699 C   0  0  0  0  0  0  0  0  0  0  0  0
    2.2747    3.3392    0.1408 C   0  0  0  0  0  0  0  0  0  0  0  0
    2.7450    4.4311   -0.8107 C   0  0  0  0  0  0  0  0  0  0  0  0
    2.9882    3.8662   -2.1494 N   0  0  0  0  0  0  0  0  0  0  0  0
    2.6150    4.6462   -3.2522 C   0  0  0  0  0  0  0  0  0  0  0  0
    2.1198    5.7261   -3.0833 O   0  0  0  0  0  0  0  0  0  0  0  0
    2.8378    4.1238   -4.6636 C   0  0  3  0  0  0  0  0  0  0  0  0
    1.7643    3.1366   -5.1073 C   0  0  0  0  0  0  0  0  0  0  0  0
    1.4603    3.0004   -6.4589 C   0  0  0  0  0  0  0  0  0  0  0  0
    0.4607    2.1120   -6.8485 C   0  0  0  0  0  0  0  0  0  0  0  0
   -0.2481    1.3389   -5.9336 C   0  0  0  0  0  0  0  0  0  0  0  0
    0.0679    1.4559   -4.5852 C   0  0  0  0  0  0  0  0  0  0  0  0
    1.0595    2.3510   -4.1954 C   0  0  0  0  0  0  0  0  0  0  0  0
    2.2073    3.7992   -7.4149 C   0  0  0  0  0  0  0  0  0  0  0  0
    2.2887    3.4878   -8.5928 O   0  0  0  0  0  0  0  0  0  0  0  0
    2.8827    4.9492   -6.9904 N   0  0  0  0  0  0  0  0  0  0  0  0
    2.8902    5.3417   -5.5725 C   0  0  0  0  0  0  0  0  0  0  0  0
    3.5966    2.5467   -2.3819 C   0  0  0  0  0  0  0  0  0  0  0  0
    3.0303    1.5517   -1.3746 C   0  0  0  0  0  0  0  0  0  0  0  0
    4.5199    2.0032    0.5299 C   0  0  0  0  0  0  0  0  0  0  0  0
    4.5127    1.6530    2.0015 C   0  0  0  0  0  0  0  0  0  0  0  0
    3.0471    1.4467    2.3293 C   0  0  0  0  0  0  0  0  0  0  0  0
   -1.1139   -2.8886   -1.5776 H   0  0  0  0  0  0  0  0  0  0  0  0
   -1.2637   -1.3431   -1.0721 H   0  0  0  0  0  0  0  0  0  0  0  0
   -0.0390   -1.7613   -2.0680 H   0  0  0  0  0  0  0  0  0  0  0  0
    0.7477   -4.2960   -0.7322 H   0  0  0  0  0  0  0  0  0  0  0  0
    1.8227   -3.1687   -1.2225 H   0  0  0  0  0  0  0  0  0  0  0  0
    1.8227   -3.6763    0.3296 H   0  0  0  0  0  0  0  0  0  0  0  0
   -1.1139   -3.6602    0.7815 H   0  0  0  0  0  0  0  0  0  0  0  0
   -0.0390   -3.0406    1.8433 H   0  0  0  0  0  0  0  0  0  0  0  0
   -1.2637   -2.1147    1.2870 H   0  0  0  0  0  0  0  0  0  0  0  0
    0.5000    1.8231    1.2692 H   0  0  0  0  0  0  0  0  0  0  0  0
    2.8124    0.0900    0.7665 H   0  0  0  0  0  0  0  0  0  0  0  0
    2.3378    3.6921    1.0744 H   0  0  0  0  0  0  0  0  0  0  0  0
    1.3204    3.1305   -0.0728 H   0  0  0  0  0  0  0  0  0  0  0  0
    2.0425    5.1400   -0.8736 H   0  0  0  0  0  0  0  0  0  0  0  0
    3.5923    4.8314   -0.4618 H   0  0  0  0  0  0  0  0  0  0  0  0
    3.7253    3.6643   -4.6962 H   0  0  0  0  0  0  0  0  0  0  0  0
    0.2444    2.0265   -7.8211 H   0  0  0  0  0  0  0  0  0  0  0  0
   -0.9671    0.7146   -6.2389 H   0  0  0  0  0  0  0  0  0  0  0  0
   -0.4116    0.9034   -3.9034 H   0  0  0  0  0  0  0  0  0  0  0  0
    1.2754    2.4343   -3.2225 H   0  0  0  0  0  0  0  0  0  0  0  0
    3.3669    5.5120   -7.6603 H   0  0  0  0  0  0  0  0  0  0  0  0
    2.0946    5.9193   -5.3899 H   0  0  0  0  0  0  0  0  0  0  0  0
    3.7263    5.8557   -5.3810 H   0  0  0  0  0  0  0  0  0  0  0  0
    4.5881    2.6104   -2.2685 H   0  0  0  0  0  0  0  0  0  0  0  0
    3.3863    2.2399   -3.3101 H   0  0  0  0  0  0  0  0  0  0  0  0
    2.0775    1.3680   -1.6161 H   0  0  0  0  0  0  0  0  0  0  0  0
    3.5593    0.7053   -1.4376 H   0  0  0  0  0  0  0  0  0  0  0  0
    4.9442    2.8983    0.3927 H   0  0  0  0  0  0  0  0  0  0  0  0
    5.0271    1.3117    0.0155 H   0  0  0  0  0  0  0  0  0  0  0  0
    4.8958    2.3996    2.5453 H   0  0  0  0  0  0  0  0  0  0  0  0
    5.0345    0.8166    2.1693 H   0  0  0  0  0  0  0  0  0  0  0  0
    2.9294    0.7419    3.0289 H   0  0  0  0  0  0  0  0  0  0  0  0
    2.6232    2.2978    2.6390 H   0  0  0  0  0  0  0  0  0  0  0  0
  1  2  2  0  0  0  0
  2  3  1  0  0  0  0
  3  4  1  0  0  0  0
  4  5  1  0  0  0  0
  4  6  1  0  0  0  0
  4  7  1  0  0  0  0
  2  8  1  0  0  0  0
  8  9  1  0  0  0  0
  9 10  1  0  0  0  0
 10 11  1  0  0  0  0
 11 12  1  0  0  0  0
 12 13  1  0  0  0  0
 13 14  1  0  0  0  0
 14 15  2  0  0  0  0
 14 16  1  0  0  0  0
 16 17  1  0  0  0  0
 17 18  1  0  0  0  0
 18 19  2  0  0  0  0
 19 20  1  0  0  0  0
 20 21  2  0  0  0  0
 21 22  1  0  0  0  0
 22 17  2  0  0  0  0
 18 23  1  0  0  0  0
 23 24  2  0  0  0  0
 23 25  1  0  0  0  0
 25 26  1  0  0  0  0
 26 16  1  0  0  0  0
 13 27  1  0  0  0  0
 27 28  1  0  0  0  0
 28 10  1  0  0  0  0
 10 29  1  0  0  0  0
 29 30  1  0  0  0  0
 30 31  1  0  0  0  0
 31  9  1  0  0  0  0
  5 32  1  0  0  0  0
  5 33  1  0  0  0  0
  5 34  1  0  0  0  0
  6 35  1  0  0  0  0
  6 36  1  0  0  0  0
  6 37  1  0  0  0  0
  7 38  1  0  0  0  0
  7 39  1  0  0  0  0
  7 40  1  0  0  0  0
  8 41  1  0  0  0  0
  9 42  1  0  0  0  0
 11 43  1  0  0  0  0
 11 44  1  0  0  0  0
 12 45  1  0  0  0  0
 12 46  1  0  0  0  0
 16 47  1  0  0  0  0
 19 48  1  0  0  0  0
 20 49  1  0  0  0  0
 21 50  1  0  0  0  0
 22 51  1  0  0  0  0
 25 52  1  0  0  0  0
 26 53  1  0  0  0  0
 26 54  1  0  0  0  0
 27 55  1  0  0  0  0
 27 56  1  0  0  0  0
 28 57  1  0  0  0  0
 28 58  1  0  0  0  0
 29 59  1  0  0  0  0
 29 60  1  0  0  0  0
 30 61  1  0  0  0  0
 30 62  1  0  0  0  0
 31 63  1  0  0  0  0
 31 64  1  0  0  0  0
M  END
>  <result-rank>
89

>  <similarity>
0.882

>  <query-name>


>  <query-smiles>
S1c2c(cccc2)C(C(=O)N3CCC([N@H+]4CC5(C(=O)N6N(C5=O)CCCC6)CCC4)CC3)=C1NC(=O)NC

>  <source>
REALspace_2019-12

>  <similarity-descriptor>
0.905;0.857;1.000;0.708;0.990;0.795;0.999;0.857;0.857;0.0;0.0;0.0

>  <similarity-descriptor-smiles>
C1CCNCC1;C1CNC(cc1)=O;c1ccccc1;O=CO;NC1CCCC1;C(C)(C)C;C=O;C1CNC(cc1)=O;C1CNC(cc1)=O;;;

>  <reaction-name>
s_22

>  <reagent1-name>
15090470

>  <reagent1-smiles>
[R1*]N1CCC2(C(NC(=O)OC(C)(C)C)CCC2)CC1

>  <reagent2-name>
12345924

>  <reagent2-smiles>
[R1*]C(=O)C1c2c(cccc2)C(=O)NC1

$$$$
s_22____4971012____13310054
          04022017303D 1   1.00000     0.00000     0
            
 68 70  0  0  0  0            999 V2000
   -0.9112   -3.0882    0.3487 O   0  0  0  0  0  0  0  0  0  0  0  0
   -1.1054   -2.6321    1.4415 C   0  0  0  0  0  0  0  0  0  0  0  0
   -1.7477   -3.3360    2.3404 O   0  0  0  0  0  0  0  0  0  0  0  0
   -2.2142   -4.6388    2.0216 C   0  0  0  0  0  0  0  0  0  0  0  0
   -3.1858   -4.5578    0.8555 C   0  0  0  0  0  0  0  0  0  0  0  0
   -1.0358   -5.5193    1.6389 C   0  0  0  0  0  0  0  0  0  0  0  0
   -2.9202   -5.2337    3.2291 C   0  0  0  0  0  0  0  0  0  0  0  0
   -0.6459   -1.3488    1.7555 N   0  0  0  0  0  0  0  0  0  0  0  0
   -0.9006   -0.8191    3.1048 C   0  0  0  0  0  0  0  0  0  0  0  0
    0.2193    0.1007    3.5687 C   0  0  0  0  0  0  0  0  0  0  0  0
    0.6432    1.0393    2.5168 N   0  3  0  0  0  0  0  0  0  0  0  0
    1.7753    1.8044    3.0588 C   0  0  3  0  0  0  0  0  0  0  0  0
    2.2902    2.8091    2.0414 C   0  0  0  0  0  0  0  0  0  0  0  0
    3.3172    3.6413    2.6849 N   0  0  0  0  0  0  0  0  0  0  0  0
    3.5467    4.9648    2.2737 C   0  0  0  0  0  0  0  0  0  0  0  0
    2.8985    5.4368    1.3809 O   0  0  0  0  0  0  0  0  0  0  0  0
    4.5671    5.7607    2.9281 C   0  0  0  0  0  0  0  0  0  0  0  0
    4.4653    6.0046    4.2940 C   0  0  0  0  0  0  0  0  0  0  0  0
    5.4391    6.7670    4.9307 C   0  0  0  0  0  0  0  0  0  0  0  0
    6.5028    7.2769    4.1933 C   0  0  0  0  0  0  0  0  0  0  0  0
    7.4870    8.0451    4.8254 N   0  0  0  0  0  0  0  0  0  0  0  0
    7.4028    8.2946    6.1699 C   0  0  0  0  0  0  0  0  0  0  0  0
    6.4850    7.8545    6.8054 O   0  0  0  0  0  0  0  0  0  0  0  0
    8.3663    9.0467    6.7887 N   0  0  0  0  0  0  0  0  0  0  0  0
    8.2759    9.3144    8.2313 C   0  0  0  0  0  0  0  0  0  0  0  0
    6.6040    7.0326    2.8271 C   0  0  0  0  0  0  0  0  0  0  0  0
    5.6303    6.2701    2.1905 C   0  0  0  0  0  0  0  0  0  0  0  0
    4.0897    3.0235    3.7739 C   0  0  0  0  0  0  0  0  0  0  0  0
    4.2426    1.5326    3.5049 C   0  0  0  0  0  0  0  0  0  0  0  0
    2.8946    0.8307    3.3985 C   0  0  0  0  0  0  0  0  0  0  0  0
    1.1452    0.3095    1.3402 C   0  0  0  0  0  0  0  0  0  0  0  0
    0.0848   -0.5928    0.7259 C   0  0  0  0  0  0  0  0  0  0  0  0
   -0.1074    1.6490    2.2622 H   0  0  0  0  0  0  0  0  0  0  0  0
   -3.5143   -5.4752    0.6310 H   0  0  0  0  0  0  0  0  0  0  0  0
   -3.9611   -3.9785    1.1073 H   0  0  0  0  0  0  0  0  0  0  0  0
   -2.7213   -4.1664    0.0611 H   0  0  0  0  0  0  0  0  0  0  0  0
   -1.3643   -6.4368    1.4144 H   0  0  0  0  0  0  0  0  0  0  0  0
   -0.5713   -5.1279    0.8446 H   0  0  0  0  0  0  0  0  0  0  0  0
   -0.3965   -5.5726    2.4061 H   0  0  0  0  0  0  0  0  0  0  0  0
   -3.2487   -6.1512    3.0046 H   0  0  0  0  0  0  0  0  0  0  0  0
   -2.2809   -5.2870    3.9962 H   0  0  0  0  0  0  0  0  0  0  0  0
   -3.6954   -4.6544    3.4808 H   0  0  0  0  0  0  0  0  0  0  0  0
   -0.9775   -1.5842    3.7441 H   0  0  0  0  0  0  0  0  0  0  0  0
   -1.7586   -0.3056    3.0947 H   0  0  0  0  0  0  0  0  0  0  0  0
   -0.1012    0.6251    4.3575 H   0  0  0  0  0  0  0  0  0  0  0  0
    1.0042   -0.4581    3.8365 H   0  0  0  0  0  0  0  0  0  0  0  0
    1.4878    2.2852    3.8872 H   0  0  0  0  0  0  0  0  0  0  0  0
    2.6878    2.3257    1.2615 H   0  0  0  0  0  0  0  0  0  0  0  0
    1.5368    3.3866    1.7267 H   0  0  0  0  0  0  0  0  0  0  0  0
    3.6964    5.6341    4.8150 H   0  0  0  0  0  0  0  0  0  0  0  0
    5.3750    6.9472    5.9122 H   0  0  0  0  0  0  0  0  0  0  0  0
    8.2519    8.4119    4.2958 H   0  0  0  0  0  0  0  0  0  0  0  0
    9.1311    9.4135    6.2590 H   0  0  0  0  0  0  0  0  0  0  0  0
    9.0546    9.8736    8.5160 H   0  0  0  0  0  0  0  0  0  0  0  0
    7.4255    9.8028    8.4270 H   0  0  0  0  0  0  0  0  0  0  0  0
    8.2862    8.4490    8.7322 H   0  0  0  0  0  0  0  0  0  0  0  0
    7.3727    7.4032    2.3058 H   0  0  0  0  0  0  0  0  0  0  0  0
    5.6943    6.0894    1.2091 H   0  0  0  0  0  0  0  0  0  0  0  0
    3.6102    3.1584    4.6410 H   0  0  0  0  0  0  0  0  0  0  0  0
    4.9939    3.4478    3.8235 H   0  0  0  0  0  0  0  0  0  0  0  0
    4.7626    1.1211    4.2534 H   0  0  0  0  0  0  0  0  0  0  0  0
    4.7397    1.4088    2.6461 H   0  0  0  0  0  0  0  0  0  0  0  0
    2.9474    0.1355    2.6816 H   0  0  0  0  0  0  0  0  0  0  0  0
    2.6879    0.3924    4.2732 H   0  0  0  0  0  0  0  0  0  0  0  0
    1.9241   -0.2525    1.6184 H   0  0  0  0  0  0  0  0  0  0  0  0
    1.4412    0.9725    0.6526 H   0  0  0  0  0  0  0  0  0  0  0  0
   -0.5645   -0.0293    0.2151 H   0  0  0  0  0  0  0  0  0  0  0  0
    0.5284   -1.2376    0.1034 H   0  0  0  0  0  0  0  0  0  0  0  0
  1  2  2  0  0  0  0
  2  3  1  0  0  0  0
  3  4  1  0  0  0  0
  4  5  1  0  0  0  0
  4  6  1  0  0  0  0
  4  7  1  0  0  0  0
  2  8  1  0  0  0  0
  8  9  1  0  0  0  0
  9 10  1  0  0  0  0
 10 11  1  0  0  0  0
 11 12  1  0  0  0  0
 12 13  1  0  0  0  0
 13 14  1  0  0  0  0
 14 15  1  0  0  0  0
 15 16  2  0  0  0  0
 15 17  1  0  0  0  0
 17 18  1  0  0  0  0
 18 19  2  0  0  0  0
 19 20  1  0  0  0  0
 20 21  1  0  0  0  0
 21 22  1  0  0  0  0
 22 23  2  0  0  0  0
 22 24  1  0  0  0  0
 24 25  1  0  0  0  0
 20 26  2  0  0  0  0
 26 27  1  0  0  0  0
 27 17  2  0  0  0  0
 14 28  1  0  0  0  0
 28 29  1  0  0  0  0
 29 30  1  0  0  0  0
 30 12  1  0  0  0  0
 11 31  1  0  0  0  0
 31 32  1  0  0  0  0
 32  8  1  0  0  0  0
 11 33  1  0  0  0  0
  5 34  1  0  0  0  0
  5 35  1  0  0  0  0
  5 36  1  0  0  0  0
  6 37  1  0  0  0  0
  6 38  1  0  0  0  0
  6 39  1  0  0  0  0
  7 40  1  0  0  0  0
  7 41  1  0  0  0  0
  7 42  1  0  0  0  0
  9 43  1  0  0  0  0
  9 44  1  0  0  0  0
 10 45  1  0  0  0  0
 10 46  1  0  0  0  0
 12 47  1  0  0  0  0
 13 48  1  0  0  0  0
 13 49  1  0  0  0  0
 18 50  1  0  0  0  0
 19 51  1  0  0  0  0
 21 52  1  0  0  0  0
 24 53  1  0  0  0  0
 25 54  1  0  0  0  0
 25 55  1  0  0  0  0
 25 56  1  0  0  0  0
 26 57  1  0  0  0  0
 27 58  1  0  0  0  0
 28 59  1  0  0  0  0
 28 60  1  0  0  0  0
 29 61  1  0  0  0  0
 29 62  1  0  0  0  0
 30 63  1  0  0  0  0
 30 64  1  0  0  0  0
 31 65  1  0  0  0  0
 31 66  1  0  0  0  0
 32 67  1  0  0  0  0
 32 68  1  0  0  0  0
M  CHG  1  11   1
M  END
>  <result-rank>
90

>  <similarity>
0.881

>  <query-name>


>  <query-smiles>
S1c2c(cccc2)C(C(=O)N3CCC([N@H+]4CC5(C(=O)N6N(C5=O)CCCC6)CCC4)CC3)=C1NC(=O)NC

>  <source>
REALspace_2019-12

>  <similarity-descriptor>
1.000;0.739;0.739;0.708;0.995;0.795;0.999;1.000;1.000;1.000;1.000;0.0

>  <similarity-descriptor-smiles>
C1CCCNC1;c1ccccc1;c1ccccc1;O=CO;N1CC[NH+]CC1;C(C)(C)C;C=O;N;C=O;N;C;

>  <reaction-name>
s_22

>  <reagent1-name>
4971012

>  <reagent1-smiles>
[R1*]N1CC(N2CCN(C(=O)OC(C)(C)C)CC2)CCC1

>  <reagent2-name>
13310054

>  <reagent2-smiles>
[R1*]C(=O)c1ccc(NC(=O)NC)cc1

$$$$
m_274310____14112962____14116038____15870382
          04022017303D 1   1.00000     0.00000     0
            
 71 76  0  0  0  0            999 V2000
    7.4132    6.5104    2.3558 O   0  0  0  0  0  0  0  0  0  0  0  0
    6.6686    6.9707    1.5350 C   0  0  0  0  0  0  0  0  0  0  0  0
    7.0205    8.0330    0.8539 O   0  0  0  0  0  0  0  0  0  0  0  0
    8.2830    8.6397    1.0869 C   0  0  0  0  0  0  0  0  0  0  0  0
    5.3752    6.3491    1.2964 C   0  0  0  0  0  0  0  0  0  0  0  0
    4.9903    5.2576    1.9825 N   0  0  0  0  0  0  0  0  0  0  0  0
    3.8039    4.6517    1.7938 C   0  0  0  0  0  0  0  0  0  0  0  0
    3.4072    3.5117    2.5135 N   0  0  0  0  0  0  0  0  0  0  0  0
    4.3351    2.9624    3.5155 C   0  0  0  0  0  0  0  0  0  0  0  0
    4.2152    1.4493    3.6340 C   0  0  0  0  0  0  0  0  0  0  0  0
    2.7657    0.9893    3.7020 C   0  0  0  0  0  0  0  0  0  0  0  0
    2.7627   -0.5303    3.7331 C   0  0  3  0  0  0  0  0  0  0  0  0
    3.5349   -0.9827    4.9647 C   0  0  0  0  0  0  0  0  0  0  0  0
    3.8127   -2.4286    4.9459 N   0  0  0  0  0  0  0  0  0  0  0  0
    3.8533   -3.1237    6.1595 C   0  0  0  0  0  0  0  0  0  0  0  0
    3.6635   -2.5412    7.1913 O   0  0  0  0  0  0  0  0  0  0  0  0
    4.1246   -4.5474    6.1704 C   0  0  0  0  0  0  0  0  0  0  0  0
    3.2813   -5.3971    5.5026 N   0  0  0  0  0  0  0  0  0  0  0  0
    3.5067   -6.7484    5.4904 C   0  0  0  0  0  0  0  0  0  0  0  0
    2.7208   -7.4559    4.8791 O   0  0  0  0  0  0  0  0  0  0  0  0
    4.6338   -7.2772    6.1811 C   0  0  0  0  0  0  0  0  0  0  0  0
    5.4832   -6.4070    6.8560 C   0  0  0  0  0  0  0  0  0  0  0  0
    6.5960   -6.8785    7.5451 C   0  0  0  0  0  0  0  0  0  0  0  0
    6.8601   -8.2439    7.5561 C   0  0  0  0  0  0  0  0  0  0  0  0
    6.0294   -9.1388    6.8900 C   0  0  0  0  0  0  0  0  0  0  0  0
    4.9243   -8.6388    6.2103 C   0  0  0  0  0  0  0  0  0  0  0  0
    5.2213   -5.0108    6.8492 C   0  0  0  0  0  0  0  0  0  0  0  0
    4.0473   -3.1799    3.7014 C   0  0  0  0  0  0  0  0  0  0  0  0
    3.2514   -2.6116    2.5343 C   0  0  0  0  0  0  0  0  0  0  0  0
    3.3477   -1.0942    2.4459 C   0  0  0  0  0  0  0  0  0  0  0  0
    2.0810    1.4150    2.4110 C   0  0  0  0  0  0  0  0  0  0  0  0
    2.0878    2.9259    2.2239 C   0  0  0  0  0  0  0  0  0  0  0  0
    2.9425    5.1867    0.8405 C   0  0  0  0  0  0  0  0  0  0  0  0
    3.3240    6.3165    0.1229 C   0  0  0  0  0  0  0  0  0  0  0  0
    4.5298    6.8539    0.3801 N   0  0  0  0  0  0  0  0  0  0  0  0
    2.3680    6.8869   -0.9130 C   0  0  0  0  0  0  0  0  0  0  0  0
    2.0645    5.8751   -1.9790 C   0  0  0  0  0  0  0  0  0  0  0  0
    3.0004    7.0133   -2.2691 C   0  0  0  0  0  0  0  0  0  0  0  0
    8.3878    9.4324    0.4863 H   0  0  0  0  0  0  0  0  0  0  0  0
    8.3402    8.9345    2.0408 H   0  0  0  0  0  0  0  0  0  0  0  0
    9.0100    7.9797    0.8977 H   0  0  0  0  0  0  0  0  0  0  0  0
    4.1310    3.3731    4.4041 H   0  0  0  0  0  0  0  0  0  0  0  0
    5.2712    3.1923    3.2491 H   0  0  0  0  0  0  0  0  0  0  0  0
    4.6491    1.0287    2.8372 H   0  0  0  0  0  0  0  0  0  0  0  0
    4.6860    1.1533    4.4651 H   0  0  0  0  0  0  0  0  0  0  0  0
    2.3012    1.3697    4.5018 H   0  0  0  0  0  0  0  0  0  0  0  0
    1.8172   -0.8448    3.8173 H   0  0  0  0  0  0  0  0  0  0  0  0
    4.4034   -0.4882    5.0001 H   0  0  0  0  0  0  0  0  0  0  0  0
    2.9960   -0.7687    5.7794 H   0  0  0  0  0  0  0  0  0  0  0  0
    2.4900   -5.0251    5.0172 H   0  0  0  0  0  0  0  0  0  0  0  0
    7.1991   -6.2429    8.0271 H   0  0  0  0  0  0  0  0  0  0  0  0
    7.6589   -8.5873    8.0500 H   0  0  0  0  0  0  0  0  0  0  0  0
    6.2226  -10.1199    6.8999 H   0  0  0  0  0  0  0  0  0  0  0  0
    4.3213   -9.2749    5.7288 H   0  0  0  0  0  0  0  0  0  0  0  0
    5.8265   -4.3772    7.3312 H   0  0  0  0  0  0  0  0  0  0  0  0
    3.7773   -4.1322    3.8432 H   0  0  0  0  0  0  0  0  0  0  0  0
    5.0213   -3.1392    3.4783 H   0  0  0  0  0  0  0  0  0  0  0  0
    2.2909   -2.8659    2.6473 H   0  0  0  0  0  0  0  0  0  0  0  0
    3.6027   -3.0052    1.6848 H   0  0  0  0  0  0  0  0  0  0  0  0
    4.3038   -0.8164    2.3535 H   0  0  0  0  0  0  0  0  0  0  0  0
    2.8268   -0.7631    1.6591 H   0  0  0  0  0  0  0  0  0  0  0  0
    1.1329    1.0976    2.4301 H   0  0  0  0  0  0  0  0  0  0  0  0
    2.5581    0.9934    1.6398 H   0  0  0  0  0  0  0  0  0  0  0  0
    1.8424    3.1351    1.2773 H   0  0  0  0  0  0  0  0  0  0  0  0
    1.4125    3.3306    2.8405 H   0  0  0  0  0  0  0  0  0  0  0  0
    2.0534    4.7612    0.6720 H   0  0  0  0  0  0  0  0  0  0  0  0
    1.6629    7.5380   -0.6319 H   0  0  0  0  0  0  0  0  0  0  0  0
    1.1592    5.8518   -2.4031 H   0  0  0  0  0  0  0  0  0  0  0  0
    2.4196    4.9436   -1.8999 H   0  0  0  0  0  0  0  0  0  0  0  0
    3.9787    6.8398   -2.3828 H   0  0  0  0  0  0  0  0  0  0  0  0
    2.7183    7.7480   -2.8860 H   0  0  0  0  0  0  0  0  0  0  0  0
  1  2  2  0  0  0  0
  2  3  1  0  0  0  0
  3  4  1  0  0  0  0
  2  5  1  0  0  0  0
  5  6  1  0  0  0  0
  6  7  2  0  0  0  0
  7  8  1  0  0  0  0
  8  9  1  0  0  0  0
  9 10  1  0  0  0  0
 10 11  1  0  0  0  0
 11 12  1  0  0  0  0
 12 13  1  0  0  0  0
 13 14  1  0  0  0  0
 14 15  1  0  0  0  0
 15 16  2  0  0  0  0
 15 17  1  0  0  0  0
 17 18  1  0  0  0  0
 18 19  1  0  0  0  0
 19 20  2  0  0  0  0
 19 21  1  0  0  0  0
 21 22  1  0  0  0  0
 22 23  2  0  0  0  0
 23 24  1  0  0  0  0
 24 25  2  0  0  0  0
 25 26  1  0  0  0  0
 26 21  2  0  0  0  0
 22 27  1  0  0  0  0
 17 27  2  0  0  0  0
 14 28  1  0  0  0  0
 28 29  1  0  0  0  0
 29 30  1  0  0  0  0
 30 12  1  0  0  0  0
 11 31  1  0  0  0  0
 31 32  1  0  0  0  0
 32  8  1  0  0  0  0
  7 33  1  0  0  0  0
 33 34  2  0  0  0  0
 34 35  1  0  0  0  0
 35  5  2  0  0  0  0
 34 36  1  0  0  0  0
 36 37  1  0  0  0  0
 37 38  1  0  0  0  0
 38 36  1  0  0  0  0
  4 39  1  0  0  0  0
  4 40  1  0  0  0  0
  4 41  1  0  0  0  0
  9 42  1  0  0  0  0
  9 43  1  0  0  0  0
 10 44  1  0  0  0  0
 10 45  1  0  0  0  0
 11 46  1  0  0  0  0
 12 47  1  0  0  0  0
 13 48  1  0  0  0  0
 13 49  1  0  0  0  0
 18 50  1  0  0  0  0
 23 51  1  0  0  0  0
 24 52  1  0  0  0  0
 25 53  1  0  0  0  0
 26 54  1  0  0  0  0
 27 55  1  0  0  0  0
 28 56  1  0  0  0  0
 28 57  1  0  0  0  0
 29 58  1  0  0  0  0
 29 59  1  0  0  0  0
 30 60  1  0  0  0  0
 30 61  1  0  0  0  0
 31 62  1  0  0  0  0
 31 63  1  0  0  0  0
 32 64  1  0  0  0  0
 32 65  1  0  0  0  0
 33 66  1  0  0  0  0
 36 67  1  0  0  0  0
 37 68  1  0  0  0  0
 37 69  1  0  0  0  0
 38 70  1  0  0  0  0
 38 71  1  0  0  0  0
M  END
>  <result-rank>
91

>  <similarity>
0.881

>  <query-name>


>  <query-smiles>
S1c2c(cccc2)C(C(=O)N3CCC([N@H+]4CC5(C(=O)N6N(C5=O)CCCC6)CCC4)CC3)=C1NC(=O)NC

>  <source>
REALspace_2019-12

>  <similarity-descriptor>
0.999;0.940;1.000;0.819;0.751;0.826;1.000;0.940;0.940;0.0;0.0;0.200

>  <similarity-descriptor-smiles>
C1CCCNC1;C1=CccC(N1)=O;c1ccccc1;O=Cc1ncccn1;N1CCCCC1;C1CC1;C=O;C1=CccC(N1)=O;C1=CccC(N1)=O;;;O.C

>  <reaction-name>
m_274310

>  <reagent1-name>
14112962

>  <reagent1-smiles>
[R1*]N1CC(C2CCN([R2*])CC2)CCC1

>  <reagent2-name>
14116038

>  <reagent2-smiles>
[R1*]C(=O)C=1NC(=O)c2c(cccc2)C1

>  <reagent3-name>
15870382

>  <reagent3-smiles>
[R2*]c1nc(nc(c1)C2CC2)C(=O)OC

$$$$
m_274310____14113098____14116038____15870222
          04022017303D 1   1.00000     0.00000     0
            
 71 75  0  0  0  0            999 V2000
    5.9071    3.8218    2.4783 Cl  0  0  0  0  0  0  0  0  0  0  0  0
    4.3746    2.9172    2.4878 C   0  0  0  0  0  0  0  0  0  0  0  0
    3.1509    3.5779    2.5012 C   0  0  0  0  0  0  0  0  0  0  0  0
    2.0080    2.8748    2.5082 N   0  0  0  0  0  0  0  0  0  0  0  0
    2.0084    1.5332    2.5024 C   0  0  0  0  0  0  0  0  0  0  0  0
    3.2034    0.8215    2.4893 C   0  0  0  0  0  0  0  0  0  0  0  0
    4.4021    1.5269    2.4817 C   0  0  0  0  0  0  0  0  0  0  0  0
    3.2280   -0.6288    2.4827 C   0  0  0  0  0  0  0  0  0  0  0  0
    4.2773   -1.2109    2.4713 O   0  0  0  0  0  0  0  0  0  0  0  0
    2.1049   -1.3030    2.4893 O   0  0  0  0  0  0  0  0  0  0  0  0
    2.1291   -2.7228    2.4829 C   0  0  0  0  0  0  0  0  0  0  0  0
    2.8646   -3.2226    3.7157 C   0  0  0  0  0  0  0  0  0  0  0  0
    0.7049   -3.2538    2.4926 C   0  0  0  0  0  0  0  0  0  0  0  0
    2.8436   -3.2118    1.2336 C   0  0  0  0  0  0  0  0  0  0  0  0
    3.1484    4.9786    2.5069 N   0  0  0  0  0  0  0  0  0  0  0  0
    3.7285    5.8520    1.4825 C   0  0  0  0  0  0  0  0  0  0  0  0
    2.8698    7.1006    1.4833 C   0  0  3  0  0  0  0  0  0  0  0  0
    1.9126    7.1543    0.3039 C   0  0  3  0  0  0  0  0  0  0  0  0
    1.0724    8.4208    0.3441 C   0  0  0  0  0  0  0  0  0  0  0  0
    0.0707    8.3558   -0.7291 N   0  0  0  0  0  0  0  0  0  0  0  0
   -1.1705    9.0061   -0.6117 C   0  0  0  0  0  0  0  0  0  0  0  0
   -1.4294    9.6302    0.3800 O   0  0  0  0  0  0  0  0  0  0  0  0
   -2.1370    8.9226   -1.6885 C   0  0  0  0  0  0  0  0  0  0  0  0
   -2.6109    7.6949   -2.0721 N   0  0  0  0  0  0  0  0  0  0  0  0
   -3.5257    7.5777   -3.0853 C   0  0  0  0  0  0  0  0  0  0  0  0
   -3.9111    6.4576   -3.3837 O   0  0  0  0  0  0  0  0  0  0  0  0
   -3.9910    8.7483   -3.7486 C   0  0  0  0  0  0  0  0  0  0  0  0
   -3.5038    9.9893   -3.3523 C   0  0  0  0  0  0  0  0  0  0  0  0
   -3.9291   11.1600   -3.9720 C   0  0  0  0  0  0  0  0  0  0  0  0
   -4.8578   11.0835   -5.0044 C   0  0  0  0  0  0  0  0  0  0  0  0
   -5.3636    9.8571   -5.4225 C   0  0  0  0  0  0  0  0  0  0  0  0
   -4.9199    8.7039   -4.7851 C   0  0  0  0  0  0  0  0  0  0  0  0
   -2.5556   10.0766   -2.2980 C   0  0  0  0  0  0  0  0  0  0  0  0
    0.4384    7.5808   -1.9231 C   0  0  0  0  0  0  0  0  0  0  0  0
    1.9368    7.6809   -2.1624 C   0  0  0  0  0  0  0  0  0  0  0  0
    2.7402    7.1828   -0.9703 C   0  0  0  0  0  0  0  0  0  0  0  0
    2.1331    7.0991    2.8138 C   0  0  0  0  0  0  0  0  0  0  0  0
    2.5685    5.8406    3.5411 C   0  0  0  0  0  0  0  0  0  0  0  0
    1.1391    1.0389    2.5077 H   0  0  0  0  0  0  0  0  0  0  0  0
    5.2751    1.0391    2.4720 H   0  0  0  0  0  0  0  0  0  0  0  0
    2.8816   -4.2224    3.7112 H   0  0  0  0  0  0  0  0  0  0  0  0
    3.8015   -2.8732    3.7093 H   0  0  0  0  0  0  0  0  0  0  0  0
    2.3945   -2.9009    4.5376 H   0  0  0  0  0  0  0  0  0  0  0  0
    0.7219   -4.2537    2.4881 H   0  0  0  0  0  0  0  0  0  0  0  0
    0.2348   -2.9321    3.3145 H   0  0  0  0  0  0  0  0  0  0  0  0
    0.2210   -2.9250    1.6816 H   0  0  0  0  0  0  0  0  0  0  0  0
    2.8606   -4.2116    1.2291 H   0  0  0  0  0  0  0  0  0  0  0  0
    2.3597   -2.8830    0.4226 H   0  0  0  0  0  0  0  0  0  0  0  0
    3.7806   -2.8624    1.2272 H   0  0  0  0  0  0  0  0  0  0  0  0
    3.6991    5.4080    0.5869 H   0  0  0  0  0  0  0  0  0  0  0  0
    4.6752    6.0786    1.7113 H   0  0  0  0  0  0  0  0  0  0  0  0
    3.4677    7.9014    1.4483 H   0  0  0  0  0  0  0  0  0  0  0  0
    1.3190    6.3496    0.3082 H   0  0  0  0  0  0  0  0  0  0  0  0
    0.6129    8.4917    1.2295 H   0  0  0  0  0  0  0  0  0  0  0  0
    1.6597    9.2187    0.2085 H   0  0  0  0  0  0  0  0  0  0  0  0
   -2.2842    6.8729   -1.6056 H   0  0  0  0  0  0  0  0  0  0  0  0
   -3.5711   12.0464   -3.6785 H   0  0  0  0  0  0  0  0  0  0  0  0
   -5.1664   11.9224   -5.4527 H   0  0  0  0  0  0  0  0  0  0  0  0
   -6.0315    9.8060   -6.1650 H   0  0  0  0  0  0  0  0  0  0  0  0
   -5.2778    7.8177   -5.0793 H   0  0  0  0  0  0  0  0  0  0  0  0
   -2.1999   10.9643   -2.0058 H   0  0  0  0  0  0  0  0  0  0  0  0
   -0.0494    7.9434   -2.7172 H   0  0  0  0  0  0  0  0  0  0  0  0
    0.1875    6.6225   -1.7868 H   0  0  0  0  0  0  0  0  0  0  0  0
    2.1730    8.6374   -2.3337 H   0  0  0  0  0  0  0  0  0  0  0  0
    2.1731    7.1306   -2.9633 H   0  0  0  0  0  0  0  0  0  0  0  0
    3.0655    6.2573   -1.1644 H   0  0  0  0  0  0  0  0  0  0  0  0
    3.5233    7.7894   -0.8328 H   0  0  0  0  0  0  0  0  0  0  0  0
    1.1447    7.0869    2.6622 H   0  0  0  0  0  0  0  0  0  0  0  0
    2.3786    7.9092    3.3463 H   0  0  0  0  0  0  0  0  0  0  0  0
    3.2505    6.0576    4.2395 H   0  0  0  0  0  0  0  0  0  0  0  0
    1.7830    5.3940    3.9697 H   0  0  0  0  0  0  0  0  0  0  0  0
  1  2  1  0  0  0  0
  2  3  1  0  0  0  0
  3  4  2  0  0  0  0
  4  5  1  0  0  0  0
  5  6  2  0  0  0  0
  6  7  1  0  0  0  0
  7  2  2  0  0  0  0
  6  8  1  0  0  0  0
  8  9  2  0  0  0  0
  8 10  1  0  0  0  0
 10 11  1  0  0  0  0
 11 12  1  0  0  0  0
 11 13  1  0  0  0  0
 11 14  1  0  0  0  0
  3 15  1  0  0  0  0
 15 16  1  0  0  0  0
 16 17  1  0  0  0  0
 17 18  1  0  0  0  0
 18 19  1  0  0  0  0
 19 20  1  0  0  0  0
 20 21  1  0  0  0  0
 21 22  2  0  0  0  0
 21 23  1  0  0  0  0
 23 24  1  0  0  0  0
 24 25  1  0  0  0  0
 25 26  2  0  0  0  0
 25 27  1  0  0  0  0
 27 28  1  0  0  0  0
 28 29  2  0  0  0  0
 29 30  1  0  0  0  0
 30 31  2  0  0  0  0
 31 32  1  0  0  0  0
 32 27  2  0  0  0  0
 28 33  1  0  0  0  0
 23 33  2  0  0  0  0
 20 34  1  0  0  0  0
 34 35  1  0  0  0  0
 35 36  1  0  0  0  0
 36 18  1  0  0  0  0
 17 37  1  0  0  0  0
 37 38  1  0  0  0  0
 38 15  1  0  0  0  0
  5 39  1  0  0  0  0
  7 40  1  0  0  0  0
 12 41  1  0  0  0  0
 12 42  1  0  0  0  0
 12 43  1  0  0  0  0
 13 44  1  0  0  0  0
 13 45  1  0  0  0  0
 13 46  1  0  0  0  0
 14 47  1  0  0  0  0
 14 48  1  0  0  0  0
 14 49  1  0  0  0  0
 16 50  1  0  0  0  0
 16 51  1  0  0  0  0
 17 52  1  0  0  0  0
 18 53  1  0  0  0  0
 19 54  1  0  0  0  0
 19 55  1  0  0  0  0
 24 56  1  0  0  0  0
 29 57  1  0  0  0  0
 30 58  1  0  0  0  0
 31 59  1  0  0  0  0
 32 60  1  0  0  0  0
 33 61  1  0  0  0  0
 34 62  1  0  0  0  0
 34 63  1  0  0  0  0
 35 64  1  0  0  0  0
 35 65  1  0  0  0  0
 36 66  1  0  0  0  0
 36 67  1  0  0  0  0
 37 68  1  0  0  0  0
 37 69  1  0  0  0  0
 38 70  1  0  0  0  0
 38 71  1  0  0  0  0
M  END
>  <result-rank>
92

>  <similarity>
0.881

>  <query-name>


>  <query-smiles>
S1c2c(cccc2)C(C(=O)N3CCC([N@H+]4CC5(C(=O)N6N(C5=O)CCCC6)CCC4)CC3)=C1NC(=O)NC

>  <source>
REALspace_2019-12

>  <similarity-descriptor>
0.999;0.940;1.000;0.778;0.791;0.795;1.000;0.940;0.940;0.0;0.0;0.0

>  <similarity-descriptor-smiles>
C1CCCNC1;C1=CccC(N1)=O;c1ccccc1;Clc1cc(cnc1)C(=O)O;N1CCCC1;C(C)(C)C;C=O;C1=CccC(N1)=O;C1=CccC(N1)=O;;;

>  <reaction-name>
m_274310

>  <reagent1-name>
14113098

>  <reagent1-smiles>
[R2*]N1CC(C2CN([R1*])CCC2)CC1

>  <reagent2-name>
14116038

>  <reagent2-smiles>
[R1*]C(=O)C=1NC(=O)c2c(cccc2)C1

>  <reagent3-name>
15870222

>  <reagent3-smiles>
[R2*]c1ncc(cc1Cl)C(=O)OC(C)(C)C

$$$$
m_275592____15865406____14136522____15860532
          04022017303D 1   1.00000     0.00000     0
            
 74 79  0  0  0  0            999 V2000
    0.9150    1.0000    3.2257 O   0  0  0  0  0  0  0  0  0  0  0  0
    0.3150    1.0000    2.1865 C   0  0  0  0  0  0  0  0  0  0  0  0
    1.0000    1.0000    1.0000 N   0  0  0  0  0  0  0  0  0  0  0  0
    2.4700    1.0000    1.0000 C   0  0  0  0  0  0  0  0  0  0  0  0
    2.9777    1.0000   -0.4361 C   0  0  3  0  0  0  0  0  0  0  0  0
    4.4793    0.8191   -0.5608 C   0  0  3  0  0  0  0  0  0  0  0  0
    4.9112   -0.6223   -0.3224 C   0  0  0  0  0  0  0  0  0  0  0  0
    6.4158   -0.8579   -0.4017 C   0  0  0  0  0  0  0  0  0  0  0  0
    7.1478    0.1820    0.3424 N   0  0  0  0  0  0  0  0  0  0  0  0
    8.2893   -0.2017    1.0529 C   0  0  0  0  0  0  0  0  0  0  0  0
    8.6961   -1.3278    0.9719 O   0  0  0  0  0  0  0  0  0  0  0  0
    9.0148    0.8072    1.9277 C   0  0  3  0  0  0  0  0  0  0  0  0
    9.6442    0.1566    3.0300 O   0  0  0  0  0  0  0  0  0  0  0  0
   10.8643    0.8197    3.3337 C   0  0  0  0  0  0  0  0  0  0  0  0
   11.0836    1.9196    2.3133 C   0  0  0  0  0  0  0  0  0  0  0  0
   10.2301    1.3550    1.1954 C   0  0  0  0  0  0  0  0  0  0  0  0
   10.7621    3.3215    2.7959 C   0  0  0  0  0  0  0  0  0  0  0  0
   11.4093    4.2536    1.7938 C   0  0  0  0  0  0  0  0  0  0  0  0
   12.5976    3.4875    1.2457 C   0  0  0  0  0  0  0  0  0  0  0  0
   12.5328    2.1220    1.9142 C   0  0  0  0  0  0  0  0  0  0  0  0
    6.7465    1.5951    0.3929 C   0  0  0  0  0  0  0  0  0  0  0  0
    5.2300    1.6360    0.4869 C   0  0  0  0  0  0  0  0  0  0  0  0
    4.5855    1.2061   -2.0202 C   0  0  0  0  0  0  0  0  0  0  0  0
    3.8097    2.5048   -2.1101 C   0  0  0  0  0  0  0  0  0  0  0  0
    2.7151    2.3505   -1.0772 C   0  0  0  0  0  0  0  0  0  0  0  0
   -1.1350    1.0000    2.1865 C   0  0  0  0  0  0  0  0  0  0  0  0
   -1.9494    1.0000    3.3428 C   0  0  0  0  0  0  0  0  0  0  0  0
   -3.2346    0.9988    2.8577 C   0  0  0  0  0  0  0  0  0  0  0  0
   -3.2030    0.9961    1.4913 N   0  0  0  0  0  0  0  0  0  0  0  0
   -1.9087    0.9962    1.0660 C   0  0  0  0  0  0  0  0  0  0  0  0
   -4.3054    1.0010    3.7472 C   0  0  0  0  0  0  0  0  0  0  0  0
   -4.0975    0.9971    5.1236 C   0  0  0  0  0  0  0  0  0  0  0  0
   -2.8038    0.9901    5.6318 C   0  0  0  0  0  0  0  0  0  0  0  0
   -1.7468    0.9919    4.7237 C   0  0  0  0  0  0  0  0  0  0  0  0
   -2.5915    0.9797    7.1405 C   0  0  0  0  0  0  0  0  0  0  0  0
    0.5000    1.0000    0.1340 H   0  0  0  0  0  0  0  0  0  0  0  0
    2.8033    0.1835    1.4714 H   0  0  0  0  0  0  0  0  0  0  0  0
    2.8033    1.8165    1.4714 H   0  0  0  0  0  0  0  0  0  0  0  0
    2.5100    0.2856   -0.9566 H   0  0  0  0  0  0  0  0  0  0  0  0
    4.4691   -1.1979   -1.0103 H   0  0  0  0  0  0  0  0  0  0  0  0
    4.6010   -0.8938    0.5887 H   0  0  0  0  0  0  0  0  0  0  0  0
    6.6286   -1.7529   -0.0097 H   0  0  0  0  0  0  0  0  0  0  0  0
    6.7008   -0.8375   -1.3600 H   0  0  0  0  0  0  0  0  0  0  0  0
    8.4049    1.5396    2.2304 H   0  0  0  0  0  0  0  0  0  0  0  0
   11.6212    0.1674    3.2941 H   0  0  0  0  0  0  0  0  0  0  0  0
   10.8133    1.2158    4.2505 H   0  0  0  0  0  0  0  0  0  0  0  0
   10.7130    0.6275    0.7081 H   0  0  0  0  0  0  0  0  0  0  0  0
    9.9664    2.0711    0.5490 H   0  0  0  0  0  0  0  0  0  0  0  0
   11.1414    3.4722    3.7088 H   0  0  0  0  0  0  0  0  0  0  0  0
    9.7727    3.4649    2.8181 H   0  0  0  0  0  0  0  0  0  0  0  0
   11.7112    5.0950    2.2420 H   0  0  0  0  0  0  0  0  0  0  0  0
   10.7685    4.4785    1.0597 H   0  0  0  0  0  0  0  0  0  0  0  0
   12.5280    3.3955    0.2524 H   0  0  0  0  0  0  0  0  0  0  0  0
   13.4521    3.9519    1.4784 H   0  0  0  0  0  0  0  0  0  0  0  0
   12.8200    1.4084    1.2752 H   0  0  0  0  0  0  0  0  0  0  0  0
   13.1216    2.1026    2.7223 H   0  0  0  0  0  0  0  0  0  0  0  0
    7.0502    2.0661   -0.4353 H   0  0  0  0  0  0  0  0  0  0  0  0
    7.1503    2.0363    1.1943 H   0  0  0  0  0  0  0  0  0  0  0  0
    4.9687    1.2928    1.3890 H   0  0  0  0  0  0  0  0  0  0  0  0
    4.9423    2.5895    0.3968 H   0  0  0  0  0  0  0  0  0  0  0  0
    4.1759    0.5057   -2.6047 H   0  0  0  0  0  0  0  0  0  0  0  0
    5.5405    1.3432   -2.2833 H   0  0  0  0  0  0  0  0  0  0  0  0
    3.4215    2.6243   -3.0239 H   0  0  0  0  0  0  0  0  0  0  0  0
    4.3962    3.2849   -1.8924 H   0  0  0  0  0  0  0  0  0  0  0  0
    2.7679    3.0805   -0.3958 H   0  0  0  0  0  0  0  0  0  0  0  0
    1.8149    2.3652   -1.5124 H   0  0  0  0  0  0  0  0  0  0  0  0
   -4.0061    0.9944    0.8955 H   0  0  0  0  0  0  0  0  0  0  0  0
   -1.5898    0.9940    0.1182 H   0  0  0  0  0  0  0  0  0  0  0  0
   -5.2399    1.0053    3.3913 H   0  0  0  0  0  0  0  0  0  0  0  0
   -4.8793    0.9993    5.7470 H   0  0  0  0  0  0  0  0  0  0  0  0
   -0.8101    0.9873    5.0738 H   0  0  0  0  0  0  0  0  0  0  0  0
   -3.4787    0.9801    7.6020 H   0  0  0  0  0  0  0  0  0  0  0  0
   -2.0813    0.1597    7.3998 H   0  0  0  0  0  0  0  0  0  0  0  0
   -2.0753    1.7926    7.4101 H   0  0  0  0  0  0  0  0  0  0  0  0
  1  2  2  0  0  0  0
  2  3  1  0  0  0  0
  3  4  1  0  0  0  0
  4  5  1  0  0  0  0
  5  6  1  0  0  0  0
  6  7  1  0  0  0  0
  7  8  1  0  0  0  0
  8  9  1  0  0  0  0
  9 10  1  0  0  0  0
 10 11  2  0  0  0  0
 10 12  1  0  0  0  0
 12 13  1  0  0  0  0
 13 14  1  0  0  0  0
 14 15  1  0  0  0  0
 15 16  1  0  0  0  0
 16 12  1  0  0  0  0
 15 17  1  0  0  0  0
 17 18  1  0  0  0  0
 18 19  1  0  0  0  0
 19 20  1  0  0  0  0
 20 15  1  0  0  0  0
  9 21  1  0  0  0  0
 21 22  1  0  0  0  0
 22  6  1  0  0  0  0
  6 23  1  0  0  0  0
 23 24  1  0  0  0  0
 24 25  1  0  0  0  0
 25  5  1  0  0  0  0
  2 26  1  0  0  0  0
 26 27  1  0  0  0  0
 27 28  1  0  0  0  0
 28 29  1  0  0  0  0
 29 30  1  0  0  0  0
 26 30  2  0  0  0  0
 28 31  2  0  0  0  0
 31 32  1  0  0  0  0
 32 33  2  0  0  0  0
 33 34  1  0  0  0  0
 34 27  2  0  0  0  0
 33 35  1  0  0  0  0
  3 36  1  0  0  0  0
  4 37  1  0  0  0  0
  4 38  1  0  0  0  0
  5 39  1  0  0  0  0
  7 40  1  0  0  0  0
  7 41  1  0  0  0  0
  8 42  1  0  0  0  0
  8 43  1  0  0  0  0
 12 44  1  0  0  0  0
 14 45  1  0  0  0  0
 14 46  1  0  0  0  0
 16 47  1  0  0  0  0
 16 48  1  0  0  0  0
 17 49  1  0  0  0  0
 17 50  1  0  0  0  0
 18 51  1  0  0  0  0
 18 52  1  0  0  0  0
 19 53  1  0  0  0  0
 19 54  1  0  0  0  0
 20 55  1  0  0  0  0
 20 56  1  0  0  0  0
 21 57  1  0  0  0  0
 21 58  1  0  0  0  0
 22 59  1  0  0  0  0
 22 60  1  0  0  0  0
 23 61  1  0  0  0  0
 23 62  1  0  0  0  0
 24 63  1  0  0  0  0
 24 64  1  0  0  0  0
 25 65  1  0  0  0  0
 25 66  1  0  0  0  0
 29 67  1  0  0  0  0
 30 68  1  0  0  0  0
 31 69  1  0  0  0  0
 32 70  1  0  0  0  0
 34 71  1  0  0  0  0
 35 72  1  0  0  0  0
 35 73  1  0  0  0  0
 35 74  1  0  0  0  0
M  END
>  <result-rank>
93

>  <similarity>
0.881

>  <query-name>


>  <query-smiles>
S1c2c(cccc2)C(C(=O)N3CCC([N@H+]4CC5(C(=O)N6N(C5=O)CCCC6)CCC4)CC3)=C1NC(=O)NC

>  <source>
REALspace_2019-12

>  <similarity-descriptor>
0.995;0.899;0.953;0.796;0.808;0.993;0.852;0.899;0.0;0.0;0.0;0.091

>  <similarity-descriptor-smiles>
CC1CCCC1;C1=CNcc1;c1ccccc1;C(=O)C1CCCO1;C1CCNCC1;C1CCCC1;O=CN;C1=CNcc1;;;;C

>  <reaction-name>
m_275592

>  <reagent1-name>
15865406

>  <reagent1-smiles>
[R2*]N1CCC2(C(CN[R1*])CCC2)CC1

>  <reagent2-name>
14136522

>  <reagent2-smiles>
[R1*]C(=O)C=1c2c(NC1)ccc(c2)C

>  <reagent3-name>
15860532

>  <reagent3-smiles>
[R2*]C(=O)C1OCC2(C1)CCCC2

$$$$
m_274860b____17162908____17184506____17179596
          04022017303D 1   1.00000     0.00000     0
            
 62 66  0  0  0  0            999 V2000
    2.0412   -1.5328    3.8883 O   0  0  0  0  0  0  0  0  0  0  0  0
    3.0853   -1.3538    4.4521 C   0  0  0  0  0  0  0  0  0  0  0  0
    4.1033   -0.6942    3.8153 N   0  0  0  0  0  0  0  0  0  0  0  0
    3.9166   -0.2057    2.4415 C   0  0  0  0  0  0  0  0  0  0  0  0
    3.3635    1.2089    2.4777 C   0  0  0  0  0  0  0  0  0  0  0  0
    4.0983    2.3562    2.5000 N   0  0  0  0  0  0  0  0  0  0  0  0
    3.2914    3.3277    2.5307 N   0  0  0  0  0  0  0  0  0  0  0  0
    2.0497    2.9093    2.5300 N   0  0  0  0  0  0  0  0  0  0  0  0
    2.0481    1.5507    2.4963 C   0  0  0  0  0  0  0  0  0  0  0  0
    0.8566    3.7666    2.5625 C   0  0  3  0  0  0  0  0  0  0  0  0
    0.8534    4.8357    1.4850 C   0  0  3  0  0  0  0  0  0  0  0  0
    1.7971    5.9329    1.7445 N   0  0  0  0  0  0  0  0  0  0  0  0
    1.6109    6.7557    2.8240 C   0  0  0  0  0  0  0  0  0  0  0  0
    0.9268    6.3957    3.7418 O   0  0  0  0  0  0  0  0  0  0  0  0
    2.2711    8.1251    2.8591 C   0  0  0  0  0  0  0  0  0  0  0  0
    3.7864    8.2155    2.7896 C   0  0  0  0  0  0  0  0  0  0  0  0
    4.3113    8.8133    1.8912 O   0  0  0  0  0  0  0  0  0  0  0  0
    4.5676    7.6031    3.7704 N   0  0  0  0  0  0  0  0  0  0  0  0
    4.0901    6.8381    4.9289 C   0  0  0  0  0  0  0  0  0  0  0  0
    5.2219    5.9112    5.3164 C   0  0  0  0  0  0  0  0  0  0  0  0
    6.3229    6.2001    4.3117 C   0  0  0  0  0  0  0  0  0  0  0  0
    6.0281    7.6001    3.8208 C   0  0  0  0  0  0  0  0  0  0  0  0
    1.5197    9.2341    2.1789 C   0  0  0  0  0  0  0  0  0  0  0  0
    1.5766    9.1755    3.6785 C   0  0  0  0  0  0  0  0  0  0  0  0
   -0.5906    5.2462    1.4036 C   0  0  0  0  0  0  0  0  0  0  0  0
   -1.0994    3.8458    1.1883 C   0  0  3  0  0  0  0  0  0  0  0  0
   -0.4413    3.0330    2.2957 C   0  0  0  0  0  0  0  0  0  0  0  0
   -0.3281    3.4431   -0.0481 C   0  0  0  0  0  0  0  0  0  0  0  0
    0.9391    4.2737    0.0801 C   0  0  0  0  0  0  0  0  0  0  0  0
    3.2592   -1.8090    5.7325 N   0  0  0  0  0  0  0  0  0  0  0  0
    2.1669   -2.5168    6.4157 C   0  0  0  0  0  0  0  0  0  0  0  0
    4.9734   -0.5450    4.2851 H   0  0  0  0  0  0  0  0  0  0  0  0
    3.2747   -0.8024    1.9599 H   0  0  0  0  0  0  0  0  0  0  0  0
    4.7956   -0.2078    1.9646 H   0  0  0  0  0  0  0  0  0  0  0  0
    1.2566    0.9395    2.4873 H   0  0  0  0  0  0  0  0  0  0  0  0
    0.8002    4.2091    3.4575 H   0  0  0  0  0  0  0  0  0  0  0  0
    2.5748    6.0787    1.1330 H   0  0  0  0  0  0  0  0  0  0  0  0
    3.2771    6.3096    4.6845 H   0  0  0  0  0  0  0  0  0  0  0  0
    3.8720    7.4544    5.6856 H   0  0  0  0  0  0  0  0  0  0  0  0
    4.9314    4.9562    5.2555 H   0  0  0  0  0  0  0  0  0  0  0  0
    5.5338    6.1060    6.2463 H   0  0  0  0  0  0  0  0  0  0  0  0
    7.2208    6.1608    4.7499 H   0  0  0  0  0  0  0  0  0  0  0  0
    6.2921    5.5464    3.5555 H   0  0  0  0  0  0  0  0  0  0  0  0
    6.3710    8.2889    4.4596 H   0  0  0  0  0  0  0  0  0  0  0  0
    6.4232    7.7586    2.9159 H   0  0  0  0  0  0  0  0  0  0  0  0
    0.6622    9.0385    1.7030 H   0  0  0  0  0  0  0  0  0  0  0  0
    2.0185    9.9477    1.6871 H   0  0  0  0  0  0  0  0  0  0  0  0
    2.1133    9.8502    4.1852 H   0  0  0  0  0  0  0  0  0  0  0  0
    0.7570    8.9409    4.2011 H   0  0  0  0  0  0  0  0  0  0  0  0
   -0.7821    5.8554    0.6341 H   0  0  0  0  0  0  0  0  0  0  0  0
   -0.9285    5.6603    2.2488 H   0  0  0  0  0  0  0  0  0  0  0  0
   -2.0932    3.7556    1.1224 H   0  0  0  0  0  0  0  0  0  0  0  0
   -1.0155    3.0163    3.1142 H   0  0  0  0  0  0  0  0  0  0  0  0
   -0.2650    2.0964    1.9930 H   0  0  0  0  0  0  0  0  0  0  0  0
   -0.8310    3.6749   -0.8808 H   0  0  0  0  0  0  0  0  0  0  0  0
   -0.1223    2.4646   -0.0445 H   0  0  0  0  0  0  0  0  0  0  0  0
    1.7530    3.7028   -0.0274 H   0  0  0  0  0  0  0  0  0  0  0  0
    0.9552    5.0082   -0.5983 H   0  0  0  0  0  0  0  0  0  0  0  0
    4.1293   -1.6598    6.2023 H   0  0  0  0  0  0  0  0  0  0  0  0
    2.4619   -2.7770    7.3351 H   0  0  0  0  0  0  0  0  0  0  0  0
    1.3692   -1.9170    6.4788 H   0  0  0  0  0  0  0  0  0  0  0  0
    1.9265   -3.3379    5.8979 H   0  0  0  0  0  0  0  0  0  0  0  0
  1  2  2  0  0  0  0
  2  3  1  0  0  0  0
  3  4  1  0  0  0  0
  4  5  1  0  0  0  0
  5  6  1  0  0  0  0
  6  7  2  0  0  0  0
  7  8  1  0  0  0  0
  8  9  1  0  0  0  0
  5  9  2  0  0  0  0
  8 10  1  0  0  0  0
 10 11  1  0  0  0  0
 11 12  1  0  0  0  0
 12 13  1  0  0  0  0
 13 14  2  0  0  0  0
 13 15  1  0  0  0  0
 15 16  1  0  0  0  0
 16 17  2  0  0  0  0
 16 18  1  0  0  0  0
 18 19  1  0  0  0  0
 19 20  1  0  0  0  0
 20 21  1  0  0  0  0
 21 22  1  0  0  0  0
 22 18  1  0  0  0  0
 15 23  1  0  0  0  0
 23 24  1  0  0  0  0
 24 15  1  0  0  0  0
 11 25  1  0  0  0  0
 25 26  1  0  0  0  0
 26 27  1  0  0  0  0
 27 10  1  0  0  0  0
 26 28  1  0  0  0  0
 28 29  1  0  0  0  0
 29 11  1  0  0  0  0
  2 30  1  0  0  0  0
 30 31  1  0  0  0  0
  3 32  1  0  0  0  0
  4 33  1  0  0  0  0
  4 34  1  0  0  0  0
  9 35  1  0  0  0  0
 10 36  1  0  0  0  0
 12 37  1  0  0  0  0
 19 38  1  0  0  0  0
 19 39  1  0  0  0  0
 20 40  1  0  0  0  0
 20 41  1  0  0  0  0
 21 42  1  0  0  0  0
 21 43  1  0  0  0  0
 22 44  1  0  0  0  0
 22 45  1  0  0  0  0
 23 46  1  0  0  0  0
 23 47  1  0  0  0  0
 24 48  1  0  0  0  0
 24 49  1  0  0  0  0
 25 50  1  0  0  0  0
 25 51  1  0  0  0  0
 26 52  1  0  0  0  0
 27 53  1  0  0  0  0
 27 54  1  0  0  0  0
 28 55  1  0  0  0  0
 28 56  1  0  0  0  0
 29 57  1  0  0  0  0
 29 58  1  0  0  0  0
 30 59  1  0  0  0  0
 31 60  1  0  0  0  0
 31 61  1  0  0  0  0
 31 62  1  0  0  0  0
M  END
>  <result-rank>
94

>  <similarity>
0.881

>  <query-name>


>  <query-smiles>
S1c2c(cccc2)C(C(=O)N3CCC([N@H+]4CC5(C(=O)N6N(C5=O)CCCC6)CCC4)CC3)=C1NC(=O)NC

>  <source>
REALspace_2019-12

>  <similarity-descriptor>
0.830;0.830;0.0;0.875;0.957;0.999;0.830;0.724;1.000;1.000;1.000;0.0

>  <similarity-descriptor-smiles>
C1CCCC1;C1=CNN=N1;;C(=O)C1(CC1)C=O;C1(CCCC1)N;N1CCCC1;C1=CNN=N1;NC;O=C;N;C;

>  <reaction-name>
m_274860b

>  <reagent1-name>
17162908

>  <reagent1-smiles>
[R1*]N=NN([R2*])C1C2(N[R3*])CC(C1)CC2

>  <reagent2-name>
17184506

>  <reagent2-smiles>
[R3*]C(=O)C1(C(=O)N2CCCC2)CC1

>  <reagent3-name>
17179596

>  <reagent3-smiles>
[R1*]C(=C[R2*])CNC(=O)NC

$$$$
m_274310____14113020____14118380____15870504
          04022017303D 1   1.00000     0.00000     0
            
 74 78  0  0  0  0            999 V2000
    8.4216   -4.0175   -0.6575 O   0  0  0  0  0  0  0  0  0  0  0  0
    7.6605   -4.7459   -0.0829 C   0  0  0  0  0  0  0  0  0  0  0  0
    6.9158   -4.2660    1.0000 N   0  0  0  0  0  0  0  0  0  0  0  0
    7.0861   -2.8630    1.4129 C   0  0  0  0  0  0  0  0  0  0  0  0
    6.9157   -2.6816    2.9148 C   0  0  3  0  0  0  0  0  0  0  0  0
    6.8315   -1.1925    3.2072 C   0  0  3  0  0  0  0  0  0  0  0  0
    5.6330   -0.6273    2.4576 C   0  0  0  0  0  0  0  0  0  0  0  0
    5.6179    0.8451    2.4642 N   0  0  0  0  0  0  0  0  0  0  0  0
    4.3798    1.5101    2.4789 C   0  0  0  0  0  0  0  0  0  0  0  0
    3.1977    0.8672    2.4874 N   0  0  0  0  0  0  0  0  0  0  0  0
    2.0093    1.4995    2.5018 C   0  0  0  0  0  0  0  0  0  0  0  0
    2.0174    2.8451    2.5080 N   0  0  0  0  0  0  0  0  0  0  0  0
    3.1473    3.5764    2.5006 C   0  0  0  0  0  0  0  0  0  0  0  0
    3.1515    4.9322    2.5081 O   0  0  0  0  0  0  0  0  0  0  0  0
    4.3834    5.6384    2.4995 C   0  0  3  0  0  0  0  0  0  0  0  0
    4.6850    6.1140    1.0877 C   0  0  0  0  0  0  0  0  0  0  0  0
    6.0037    6.8699    1.0786 C   0  0  0  0  0  0  0  0  0  0  0  0
    4.2864    6.8377    3.4283 C   0  0  0  0  0  0  0  0  0  0  0  0
    4.3641    2.9017    2.4855 C   0  0  0  0  0  0  0  0  0  0  0  0
    0.6973    0.7209    2.5106 C   0  0  0  0  0  0  0  0  0  0  0  0
    6.8472    1.6557    2.4595 C   0  0  0  0  0  0  0  0  0  0  0  0
    7.9840    0.9708    3.2059 C   0  0  0  0  0  0  0  0  0  0  0  0
    8.1308   -0.4968    2.8263 C   0  0  0  0  0  0  0  0  0  0  0  0
    5.6857   -3.4031    3.4473 C   0  0  0  0  0  0  0  0  0  0  0  0
    5.8785   -4.8880    3.1683 C   0  0  0  0  0  0  0  0  0  0  0  0
    5.9952   -5.1920    1.6809 C   0  0  0  0  0  0  0  0  0  0  0  0
    7.5124   -6.1241   -0.5111 C   0  0  0  0  0  0  0  0  0  0  0  0
    6.5584   -6.5337   -1.4858 C   0  0  0  0  0  0  0  0  0  0  0  0
    6.4654   -7.8742   -1.8534 C   0  0  0  0  0  0  0  0  0  0  0  0
    5.5268   -8.2595   -2.8083 C   0  0  0  0  0  0  0  0  0  0  0  0
    4.6742   -7.3396   -3.4097 C   0  0  0  0  0  0  0  0  0  0  0  0
    4.7640   -5.9999   -3.0453 C   0  0  0  0  0  0  0  0  0  0  0  0
    5.7014   -5.6175   -2.0915 C   0  0  0  0  0  0  0  0  0  0  0  0
    7.3409   -8.8125   -1.2364 C   0  0  0  0  0  0  0  0  0  0  0  0
    7.3206  -10.0045   -1.5065 O   0  0  0  0  0  0  0  0  0  0  0  0
    8.2476   -8.3824   -0.3024 N   0  0  0  0  0  0  0  0  0  0  0  0
    8.3343   -7.0623    0.0570 C   0  0  0  0  0  0  0  0  0  0  0  0
    6.4046   -2.3033    0.9414 H   0  0  0  0  0  0  0  0  0  0  0  0
    8.0032   -2.5599    1.1538 H   0  0  0  0  0  0  0  0  0  0  0  0
    7.7242   -3.0505    3.3734 H   0  0  0  0  0  0  0  0  0  0  0  0
    6.6804   -1.0690    4.1879 H   0  0  0  0  0  0  0  0  0  0  0  0
    5.6666   -0.9449    1.5100 H   0  0  0  0  0  0  0  0  0  0  0  0
    4.7957   -0.9601    2.8913 H   0  0  0  0  0  0  0  0  0  0  0  0
    5.1164    5.0338    2.8113 H   0  0  0  0  0  0  0  0  0  0  0  0
    3.9521    6.7186    0.7759 H   0  0  0  0  0  0  0  0  0  0  0  0
    4.7489    5.3250    0.4767 H   0  0  0  0  0  0  0  0  0  0  0  0
    6.2021    7.1828    0.1498 H   0  0  0  0  0  0  0  0  0  0  0  0
    5.9399    7.6589    1.6896 H   0  0  0  0  0  0  0  0  0  0  0  0
    6.7367    6.2653    1.3904 H   0  0  0  0  0  0  0  0  0  0  0  0
    5.1540    7.3350    3.4223 H   0  0  0  0  0  0  0  0  0  0  0  0
    3.5534    7.4423    3.1165 H   0  0  0  0  0  0  0  0  0  0  0  0
    4.0880    6.5248    4.3571 H   0  0  0  0  0  0  0  0  0  0  0  0
    5.2228    3.4141    2.4795 H   0  0  0  0  0  0  0  0  0  0  0  0
    0.8917   -0.2600    2.5042 H   0  0  0  0  0  0  0  0  0  0  0  0
    0.1778    0.9524    3.3331 H   0  0  0  0  0  0  0  0  0  0  0  0
    0.1624    0.9600    1.7002 H   0  0  0  0  0  0  0  0  0  0  0  0
    6.6564    2.5343    2.8974 H   0  0  0  0  0  0  0  0  0  0  0  0
    7.1291    1.8095    1.5125 H   0  0  0  0  0  0  0  0  0  0  0  0
    7.8053    1.0316    4.1879 H   0  0  0  0  0  0  0  0  0  0  0  0
    8.8386    1.4442    2.9927 H   0  0  0  0  0  0  0  0  0  0  0  0
    8.2895   -0.5821    1.8427 H   0  0  0  0  0  0  0  0  0  0  0  0
    8.8964   -0.9045    3.3240 H   0  0  0  0  0  0  0  0  0  0  0  0
    4.8653   -3.0708    2.9819 H   0  0  0  0  0  0  0  0  0  0  0  0
    5.5967   -3.2481    4.4312 H   0  0  0  0  0  0  0  0  0  0  0  0
    6.7140   -5.1941    3.6247 H   0  0  0  0  0  0  0  0  0  0  0  0
    5.0949   -5.3879    3.5372 H   0  0  0  0  0  0  0  0  0  0  0  0
    6.3343   -6.1259    1.5678 H   0  0  0  0  0  0  0  0  0  0  0  0
    5.0901   -5.1131    1.2631 H   0  0  0  0  0  0  0  0  0  0  0  0
    5.4643   -9.2231   -3.0681 H   0  0  0  0  0  0  0  0  0  0  0  0
    4.0073   -7.6365   -4.0931 H   0  0  0  0  0  0  0  0  0  0  0  0
    4.1620   -5.3201   -3.4642 H   0  0  0  0  0  0  0  0  0  0  0  0
    5.7620   -4.6536   -1.8321 H   0  0  0  0  0  0  0  0  0  0  0  0
    8.8596   -9.0467    0.1266 H   0  0  0  0  0  0  0  0  0  0  0  0
    9.0058   -6.7804    0.7423 H   0  0  0  0  0  0  0  0  0  0  0  0
  1  2  2  0  0  0  0
  2  3  1  0  0  0  0
  3  4  1  0  0  0  0
  4  5  1  0  0  0  0
  5  6  1  0  0  0  0
  6  7  1  0  0  0  0
  7  8  1  0  0  0  0
  8  9  1  0  0  0  0
  9 10  1  0  0  0  0
 10 11  2  0  0  0  0
 11 12  1  0  0  0  0
 12 13  2  0  0  0  0
 13 14  1  0  0  0  0
 14 15  1  0  0  0  0
 15 16  1  0  0  0  0
 16 17  1  0  0  0  0
 15 18  1  0  0  0  0
 13 19  1  0  0  0  0
 19  9  2  0  0  0  0
 11 20  1  0  0  0  0
  8 21  1  0  0  0  0
 21 22  1  0  0  0  0
 22 23  1  0  0  0  0
 23  6  1  0  0  0  0
  5 24  1  0  0  0  0
 24 25  1  0  0  0  0
 25 26  1  0  0  0  0
 26  3  1  0  0  0  0
  2 27  1  0  0  0  0
 27 28  1  0  0  0  0
 28 29  1  0  0  0  0
 29 30  2  0  0  0  0
 30 31  1  0  0  0  0
 31 32  2  0  0  0  0
 32 33  1  0  0  0  0
 33 28  2  0  0  0  0
 29 34  1  0  0  0  0
 34 35  2  0  0  0  0
 34 36  1  0  0  0  0
 36 37  1  0  0  0  0
 27 37  2  0  0  0  0
  4 38  1  0  0  0  0
  4 39  1  0  0  0  0
  5 40  1  0  0  0  0
  6 41  1  0  0  0  0
  7 42  1  0  0  0  0
  7 43  1  0  0  0  0
 15 44  1  0  0  0  0
 16 45  1  0  0  0  0
 16 46  1  0  0  0  0
 17 47  1  0  0  0  0
 17 48  1  0  0  0  0
 17 49  1  0  0  0  0
 18 50  1  0  0  0  0
 18 51  1  0  0  0  0
 18 52  1  0  0  0  0
 19 53  1  0  0  0  0
 20 54  1  0  0  0  0
 20 55  1  0  0  0  0
 20 56  1  0  0  0  0
 21 57  1  0  0  0  0
 21 58  1  0  0  0  0
 22 59  1  0  0  0  0
 22 60  1  0  0  0  0
 23 61  1  0  0  0  0
 23 62  1  0  0  0  0
 24 63  1  0  0  0  0
 24 64  1  0  0  0  0
 25 65  1  0  0  0  0
 25 66  1  0  0  0  0
 26 67  1  0  0  0  0
 26 68  1  0  0  0  0
 30 69  1  0  0  0  0
 31 70  1  0  0  0  0
 32 71  1  0  0  0  0
 33 72  1  0  0  0  0
 36 73  1  0  0  0  0
 37 74  1  0  0  0  0
M  END
>  <result-rank>
95

>  <similarity>
0.880

>  <query-name>


>  <query-smiles>
S1c2c(cccc2)C(C(=O)N3CCC([N@H+]4CC5(C(=O)N6N(C5=O)CCCC6)CCC4)CC3)=C1NC(=O)NC

>  <source>
REALspace_2019-12

>  <similarity-descriptor>
0.999;0.940;1.000;0.742;0.751;0.896;1.000;0.940;0.940;0.0;0.0;0.083

>  <similarity-descriptor-smiles>
N1CCCCC1;C1=CNC(cc1)=O;c1ccccc1;c1cc(ncn1)O;C1CCCNC1;C(CC)C;O=C;C1=CNC(cc1)=O;C1=CNC(cc1)=O;;;C

>  <reaction-name>
m_274310

>  <reagent1-name>
14113020

>  <reagent1-smiles>
[R1*]N1CC(C2CN([R2*])CCC2)CCC1

>  <reagent2-name>
14118380

>  <reagent2-smiles>
[R1*]C(=O)C=1c2c(cccc2)C(=O)NC1

>  <reagent3-name>
15870504

>  <reagent3-smiles>
[R2*]c1nc(nc(OC(CC)C)c1)C

$$$$
m_274310____15937848____14117074____15870612
          04022017303D 1   1.00000     0.00000     0
            
 70 75  0  0  0  0            999 V2000
    4.5147    2.3837    2.7864 Cl  0  0  0  0  0  0  0  0  0  0  0  0
    3.4743    3.5938    3.5756 C   0  0  0  0  0  0  0  0  0  0  0  0
    3.9130    4.5968    4.4698 C   0  0  0  0  0  0  0  0  0  0  0  0
    2.7881    5.3003    4.8274 C   0  0  0  0  0  0  0  0  0  0  0  0
    1.7153    4.7459    4.1859 N   0  0  0  0  0  0  0  0  0  0  0  0
    2.1276    3.7043    3.4130 C   0  0  0  0  0  0  0  0  0  0  0  0
    1.2902    2.8669    2.5755 C   0  0  0  0  0  0  0  0  0  0  0  0
    0.1081    3.0659    2.5193 O   0  0  0  0  0  0  0  0  0  0  0  0
    1.8487    1.8487    1.8487 N   0  0  0  0  0  0  0  0  0  0  0  0
    1.0000    1.0000    1.0000 C   0  0  0  0  0  0  0  0  0  0  0  0
    0.7069    1.7223   -0.3086 C   0  0  3  0  0  0  0  0  0  0  0  0
   -0.1665    0.9344   -1.2674 C   0  0  0  0  0  0  0  0  0  0  0  0
   -1.6310    0.9303   -0.8475 C   0  0  0  0  0  0  0  0  0  0  0  0
   -2.5523    0.1243   -1.7568 C   0  0  0  0  0  0  0  0  0  0  0  0
   -1.9548   -1.1833   -2.0799 N   0  0  0  0  0  0  0  0  0  0  0  0
   -2.8114   -2.2970   -2.1637 C   0  0  0  0  0  0  0  0  0  0  0  0
   -4.1376   -2.1907   -1.9584 N   0  0  0  0  0  0  0  0  0  0  0  0
   -4.9812   -3.2362   -2.0294 C   0  0  0  0  0  0  0  0  0  0  0  0
   -4.4396   -4.4326   -2.3238 N   0  0  0  0  0  0  0  0  0  0  0  0
   -3.1234   -4.6088   -2.5408 C   0  0  0  0  0  0  0  0  0  0  0  0
   -2.3366   -3.5216   -2.4542 N   0  0  0  0  0  0  0  0  0  0  0  0
   -2.5512   -5.9783   -2.8718 C   0  0  0  0  0  0  0  0  0  0  0  0
   -2.8101   -6.9842   -1.7751 C   0  0  0  0  0  0  0  0  0  0  0  0
   -1.8027   -8.0895   -2.0342 C   0  0  0  0  0  0  0  0  0  0  0  0
   -0.6459   -7.4098   -2.7538 C   0  0  0  0  0  0  0  0  0  0  0  0
   -1.0373   -5.9487   -2.8726 C   0  0  0  0  0  0  0  0  0  0  0  0
   -6.3640   -3.0816   -1.8088 N   0  0  0  0  0  0  0  0  0  0  0  0
   -0.5191   -1.3986   -2.3092 C   0  0  0  0  0  0  0  0  0  0  0  0
    0.2370   -0.5366   -1.3113 C   0  0  0  0  0  0  0  0  0  0  0  0
    0.0699    1.8057   -2.4821 C   0  0  0  0  0  0  0  0  0  0  0  0
    1.5768    1.9593   -2.5325 C   0  0  0  0  0  0  0  0  0  0  0  0
    1.9964    1.9396   -1.0792 C   0  0  0  0  0  0  0  0  0  0  0  0
    2.8858    6.3716    5.7104 C   0  0  0  0  0  0  0  0  0  0  0  0
    4.1115    6.7532    6.2477 C   0  0  0  0  0  0  0  0  0  0  0  0
    5.2548    6.0450    5.8911 C   0  0  0  0  0  0  0  0  0  0  0  0
    5.1399    4.9781    5.0065 C   0  0  0  0  0  0  0  0  0  0  0  0
    0.7695    5.0589    4.2717 H   0  0  0  0  0  0  0  0  0  0  0  0
    2.8337    1.6829    1.8955 H   0  0  0  0  0  0  0  0  0  0  0  0
    0.1409    0.8075    1.4742 H   0  0  0  0  0  0  0  0  0  0  0  0
    1.4742    0.1409    0.8075 H   0  0  0  0  0  0  0  0  0  0  0  0
    0.2795    2.6055   -0.1151 H   0  0  0  0  0  0  0  0  0  0  0  0
   -1.9544    1.8765   -0.8361 H   0  0  0  0  0  0  0  0  0  0  0  0
   -1.6897    0.5469    0.0742 H   0  0  0  0  0  0  0  0  0  0  0  0
   -3.4264   -0.0202   -1.2931 H   0  0  0  0  0  0  0  0  0  0  0  0
   -2.7045    0.6335   -2.6039 H   0  0  0  0  0  0  0  0  0  0  0  0
   -2.9016   -6.3086   -3.7482 H   0  0  0  0  0  0  0  0  0  0  0  0
   -3.7444   -7.3364   -1.8308 H   0  0  0  0  0  0  0  0  0  0  0  0
   -2.6618   -6.5735   -0.8755 H   0  0  0  0  0  0  0  0  0  0  0  0
   -2.2037   -8.8025   -2.6093 H   0  0  0  0  0  0  0  0  0  0  0  0
   -1.4928   -8.4913   -1.1725 H   0  0  0  0  0  0  0  0  0  0  0  0
    0.1971   -7.5029   -2.2240 H   0  0  0  0  0  0  0  0  0  0  0  0
   -0.5157   -7.8106   -3.6606 H   0  0  0  0  0  0  0  0  0  0  0  0
   -0.6909   -5.4229   -2.0957 H   0  0  0  0  0  0  0  0  0  0  0  0
   -0.6892   -5.5548   -3.7233 H   0  0  0  0  0  0  0  0  0  0  0  0
   -6.9713   -3.8740   -1.8671 H   0  0  0  0  0  0  0  0  0  0  0  0
   -6.7384   -2.1796   -1.5941 H   0  0  0  0  0  0  0  0  0  0  0  0
   -0.2785   -1.1314   -3.2423 H   0  0  0  0  0  0  0  0  0  0  0  0
   -0.2917   -2.3622   -2.1692 H   0  0  0  0  0  0  0  0  0  0  0  0
    0.0916   -0.9223   -0.4002 H   0  0  0  0  0  0  0  0  0  0  0  0
    1.2092   -0.5817   -1.5411 H   0  0  0  0  0  0  0  0  0  0  0  0
   -0.3749    2.6948   -2.3743 H   0  0  0  0  0  0  0  0  0  0  0  0
   -0.2703    1.3610   -3.3107 H   0  0  0  0  0  0  0  0  0  0  0  0
    1.8315    2.8246   -2.9642 H   0  0  0  0  0  0  0  0  0  0  0  0
    1.9946    1.2012   -3.0332 H   0  0  0  0  0  0  0  0  0  0  0  0
    2.6396    1.1933   -0.9079 H   0  0  0  0  0  0  0  0  0  0  0  0
    2.4185    2.8090   -0.8222 H   0  0  0  0  0  0  0  0  0  0  0  0
    2.0604    6.8764    5.9633 H   0  0  0  0  0  0  0  0  0  0  0  0
    4.1697    7.5250    6.8809 H   0  0  0  0  0  0  0  0  0  0  0  0
    6.1465    6.2996    6.2655 H   0  0  0  0  0  0  0  0  0  0  0  0
    5.9618    4.4703    4.7486 H   0  0  0  0  0  0  0  0  0  0  0  0
  1  2  1  0  0  0  0
  2  3  1  0  0  0  0
  3  4  1  0  0  0  0
  4  5  1  0  0  0  0
  5  6  1  0  0  0  0
  2  6  2  0  0  0  0
  6  7  1  0  0  0  0
  7  8  2  0  0  0  0
  7  9  1  0  0  0  0
  9 10  1  0  0  0  0
 10 11  1  0  0  0  0
 11 12  1  0  0  0  0
 12 13  1  0  0  0  0
 13 14  1  0  0  0  0
 14 15  1  0  0  0  0
 15 16  1  0  0  0  0
 16 17  1  0  0  0  0
 17 18  2  0  0  0  0
 18 19  1  0  0  0  0
 19 20  2  0  0  0  0
 20 21  1  0  0  0  0
 21 16  2  0  0  0  0
 20 22  1  0  0  0  0
 22 23  1  0  0  0  0
 23 24  1  0  0  0  0
 24 25  1  0  0  0  0
 25 26  1  0  0  0  0
 26 22  1  0  0  0  0
 18 27  1  0  0  0  0
 15 28  1  0  0  0  0
 28 29  1  0  0  0  0
 29 12  1  0  0  0  0
 12 30  1  0  0  0  0
 30 31  1  0  0  0  0
 31 32  1  0  0  0  0
 32 11  1  0  0  0  0
  4 33  2  0  0  0  0
 33 34  1  0  0  0  0
 34 35  2  0  0  0  0
 35 36  1  0  0  0  0
 36  3  2  0  0  0  0
  5 37  1  0  0  0  0
  9 38  1  0  0  0  0
 10 39  1  0  0  0  0
 10 40  1  0  0  0  0
 11 41  1  0  0  0  0
 13 42  1  0  0  0  0
 13 43  1  0  0  0  0
 14 44  1  0  0  0  0
 14 45  1  0  0  0  0
 22 46  1  0  0  0  0
 23 47  1  0  0  0  0
 23 48  1  0  0  0  0
 24 49  1  0  0  0  0
 24 50  1  0  0  0  0
 25 51  1  0  0  0  0
 25 52  1  0  0  0  0
 26 53  1  0  0  0  0
 26 54  1  0  0  0  0
 27 55  1  0  0  0  0
 27 56  1  0  0  0  0
 28 57  1  0  0  0  0
 28 58  1  0  0  0  0
 29 59  1  0  0  0  0
 29 60  1  0  0  0  0
 30 61  1  0  0  0  0
 30 62  1  0  0  0  0
 31 63  1  0  0  0  0
 31 64  1  0  0  0  0
 32 65  1  0  0  0  0
 32 66  1  0  0  0  0
 33 67  1  0  0  0  0
 34 68  1  0  0  0  0
 35 69  1  0  0  0  0
 36 70  1  0  0  0  0
M  END
>  <result-rank>
96

>  <similarity>
0.880

>  <query-name>


>  <query-smiles>
S1c2c(cccc2)C(C(=O)N3CCC([N@H+]4CC5(C(=O)N6N(C5=O)CCCC6)CCC4)CC3)=C1NC(=O)NC

>  <source>
REALspace_2019-12

>  <similarity-descriptor>
0.995;0.957;0.999;0.762;0.809;0.912;0.852;0.957;0.0;0.0;0.0;0.100

>  <similarity-descriptor-smiles>
CC1CCCC1;ClC1=CNcc1;c1ccccc1;c1ncncn1;C1CCNCC1;C1CCCC1;C(=O)N;ClC1=CNcc1;;;;N

>  <reaction-name>
m_274310

>  <reagent1-name>
15937848

>  <reagent1-smiles>
[R1*]N1CCC2(C(CN[R2*])CCC2)CC1

>  <reagent2-name>
14117074

>  <reagent2-smiles>
[R1*]C(=O)C=1Nc2c(cccc2)C1Cl

>  <reagent3-name>
15870612

>  <reagent3-smiles>
[R2*]c1nc(nc(n1)C2CCCC2)N

$$$$
m_275030____14114100____14125676____14147788
          04022017303D 1   1.00000     0.00000     0
            
 77 81  0  0  0  0            999 V2000
   -1.6430   -0.8202   -0.1165 F   0  0  0  0  0  0  0  0  0  0  0  0
   -1.0518   -1.4972   -1.0969 C   0  0  0  0  0  0  0  0  0  0  0  0
   -1.8839   -2.4266   -1.5583 F   0  0  0  0  0  0  0  0  0  0  0  0
    0.0497   -2.0798   -0.6319 F   0  0  0  0  0  0  0  0  0  0  0  0
   -0.6839   -0.5425   -2.2220 C   0  0  3  0  0  0  0  0  0  0  0  0
    0.2688    0.5372   -1.7318 C   0  0  3  0  0  0  0  0  0  0  0  0
    1.5106   -0.0552   -1.2126 N   0  0  0  0  0  0  0  0  0  0  0  0
    1.8770    0.1547    0.0907 C   0  0  0  0  0  0  0  0  0  0  0  0
    2.8903   -0.3287    0.5144 O   0  0  0  0  0  0  0  0  0  0  0  0
    1.0000    1.0000    1.0000 C   0  0  0  0  0  0  0  0  0  0  0  0
    1.8488    1.8488    1.8488 N   0  3  3  0  0  0  0  0  0  0  0  0
    2.2673    3.0045    1.0406 C   0  0  0  0  0  0  0  0  0  0  0  0
    2.8816    4.0914    1.9109 C   0  0  0  0  0  0  0  0  0  0  0  0
    3.2220    3.5766    3.3002 C   0  0  3  0  0  0  0  0  0  0  0  0
    3.8816    4.6572    4.1429 C   0  0  3  0  0  0  0  0  0  0  0  0
    4.8174    4.0459    5.1735 C   0  0  0  0  0  0  0  0  0  0  0  0
    5.3153    5.1149    6.0504 N   0  0  0  0  0  0  0  0  0  0  0  0
    5.6775    4.8575    7.3845 C   0  0  0  0  0  0  0  0  0  0  0  0
    5.5829    3.7466    7.8283 O   0  0  0  0  0  0  0  0  0  0  0  0
    6.1652    5.9340    8.2236 C   0  0  0  0  0  0  0  0  0  0  0  0
    5.3609    7.0186    8.4598 N   0  0  0  0  0  0  0  0  0  0  0  0
    5.7881    8.0544    9.2484 C   0  0  0  0  0  0  0  0  0  0  0  0
    5.0278    8.9945    9.4225 O   0  0  0  0  0  0  0  0  0  0  0  0
    7.0860    8.0026    9.8311 C   0  0  0  0  0  0  0  0  0  0  0  0
    7.8946    6.8980    9.5851 C   0  0  0  0  0  0  0  0  0  0  0  0
    9.1701    6.8045   10.1325 C   0  0  0  0  0  0  0  0  0  0  0  0
    9.6403    7.8350   10.9395 C   0  0  0  0  0  0  0  0  0  0  0  0
    8.8549    8.9519   11.2042 C   0  0  0  0  0  0  0  0  0  0  0  0
    7.5845    9.0183   10.6430 C   0  0  0  0  0  0  0  0  0  0  0  0
    7.4217    5.8406    8.7627 C   0  0  0  0  0  0  0  0  0  0  0  0
    5.4145    6.4565    5.4574 C   0  0  0  0  0  0  0  0  0  0  0  0
    5.7495    6.3438    3.9783 C   0  0  0  0  0  0  0  0  0  0  0  0
    4.7120    5.5312    3.2179 C   0  0  0  0  0  0  0  0  0  0  0  0
    1.9131    3.1617    3.9519 C   0  0  0  0  0  0  0  0  0  0  0  0
    1.0846    2.2756    3.0323 C   0  0  0  0  0  0  0  0  0  0  0  0
    0.6388    1.5222   -2.8307 C   0  0  0  0  0  0  0  0  0  0  0  0
   -0.1015    1.2412   -4.1307 C   0  0  0  0  0  0  0  0  0  0  0  0
   -1.5996    1.1129   -3.8956 C   0  0  0  0  0  0  0  0  0  0  0  0
   -1.9280    0.1389   -2.7729 C   0  0  0  0  0  0  0  0  0  0  0  0
    2.6550    1.3330    2.1386 H   0  0  0  0  0  0  0  0  0  0  0  0
   -0.2424   -1.0583   -2.9562 H   0  0  0  0  0  0  0  0  0  0  0  0
   -0.1764    1.0406   -0.9912 H   0  0  0  0  0  0  0  0  0  0  0  0
    2.0875   -0.6113   -1.8108 H   0  0  0  0  0  0  0  0  0  0  0  0
    0.4018    1.5770    0.4439 H   0  0  0  0  0  0  0  0  0  0  0  0
    0.4439    0.4018    1.5770 H   0  0  0  0  0  0  0  0  0  0  0  0
    1.4693    3.3778    0.5675 H   0  0  0  0  0  0  0  0  0  0  0  0
    2.9436    2.7043    0.3679 H   0  0  0  0  0  0  0  0  0  0  0  0
    3.7184    4.4216    1.4740 H   0  0  0  0  0  0  0  0  0  0  0  0
    2.2300    4.8452    1.9955 H   0  0  0  0  0  0  0  0  0  0  0  0
    3.8297    2.7857    3.2283 H   0  0  0  0  0  0  0  0  0  0  0  0
    3.1835    5.2088    4.5993 H   0  0  0  0  0  0  0  0  0  0  0  0
    4.3226    3.3679    5.7171 H   0  0  0  0  0  0  0  0  0  0  0  0
    5.5863    3.6051    4.7104 H   0  0  0  0  0  0  0  0  0  0  0  0
    4.4491    7.0544    8.0506 H   0  0  0  0  0  0  0  0  0  0  0  0
    9.7423    6.0054    9.9479 H   0  0  0  0  0  0  0  0  0  0  0  0
   10.5565    7.7720   11.3353 H   0  0  0  0  0  0  0  0  0  0  0  0
    9.1963    9.6908   11.7852 H   0  0  0  0  0  0  0  0  0  0  0  0
    7.0129    9.8177   10.8276 H   0  0  0  0  0  0  0  0  0  0  0  0
    7.9956    5.0422    8.5804 H   0  0  0  0  0  0  0  0  0  0  0  0
    6.1341    6.9723    5.9222 H   0  0  0  0  0  0  0  0  0  0  0  0
    4.5412    6.9319    5.5644 H   0  0  0  0  0  0  0  0  0  0  0  0
    6.6405    5.9001    3.8822 H   0  0  0  0  0  0  0  0  0  0  0  0
    5.7906    7.2626    3.5859 H   0  0  0  0  0  0  0  0  0  0  0  0
    4.1024    6.1588    2.7336 H   0  0  0  0  0  0  0  0  0  0  0  0
    5.1817    4.9461    2.5567 H   0  0  0  0  0  0  0  0  0  0  0  0
    1.3862    3.9824    4.1729 H   0  0  0  0  0  0  0  0  0  0  0  0
    2.1143    2.6585    4.7924 H   0  0  0  0  0  0  0  0  0  0  0  0
    0.7943    1.4644    3.5398 H   0  0  0  0  0  0  0  0  0  0  0  0
    0.2793    2.7860    2.7306 H   0  0  0  0  0  0  0  0  0  0  0  0
    1.6223    1.4601   -3.0007 H   0  0  0  0  0  0  0  0  0  0  0  0
    0.4113    2.4465   -2.5243 H   0  0  0  0  0  0  0  0  0  0  0  0
    0.2412    0.3875   -4.5229 H   0  0  0  0  0  0  0  0  0  0  0  0
    0.0651    1.9922   -4.7696 H   0  0  0  0  0  0  0  0  0  0  0  0
   -1.9659    2.0126   -3.6580 H   0  0  0  0  0  0  0  0  0  0  0  0
   -2.0306    0.7894   -4.7380 H   0  0  0  0  0  0  0  0  0  0  0  0
   -2.3755    0.6400   -2.0322 H   0  0  0  0  0  0  0  0  0  0  0  0
   -2.5495   -0.5610   -3.1249 H   0  0  0  0  0  0  0  0  0  0  0  0
  1  2  1  0  0  0  0
  2  3  1  0  0  0  0
  2  4  1  0  0  0  0
  2  5  1  0  0  0  0
  5  6  1  0  0  0  0
  6  7  1  0  0  0  0
  7  8  1  0  0  0  0
  8  9  2  0  0  0  0
  8 10  1  0  0  0  0
 10 11  1  0  0  0  0
 11 12  1  0  0  0  0
 12 13  1  0  0  0  0
 13 14  1  0  0  0  0
 14 15  1  0  0  0  0
 15 16  1  0  0  0  0
 16 17  1  0  0  0  0
 17 18  1  0  0  0  0
 18 19  2  0  0  0  0
 18 20  1  0  0  0  0
 20 21  1  0  0  0  0
 21 22  1  0  0  0  0
 22 23  2  0  0  0  0
 22 24  1  0  0  0  0
 24 25  1  0  0  0  0
 25 26  2  0  0  0  0
 26 27  1  0  0  0  0
 27 28  2  0  0  0  0
 28 29  1  0  0  0  0
 29 24  2  0  0  0  0
 25 30  1  0  0  0  0
 20 30  2  0  0  0  0
 17 31  1  0  0  0  0
 31 32  1  0  0  0  0
 32 33  1  0  0  0  0
 33 15  1  0  0  0  0
 14 34  1  0  0  0  0
 34 35  1  0  0  0  0
 35 11  1  0  0  0  0
  6 36  1  0  0  0  0
 36 37  1  0  0  0  0
 37 38  1  0  0  0  0
 38 39  1  0  0  0  0
 39  5  1  0  0  0  0
 11 40  1  0  0  0  0
  5 41  1  0  0  0  0
  6 42  1  0  0  0  0
  7 43  1  0  0  0  0
 10 44  1  0  0  0  0
 10 45  1  0  0  0  0
 12 46  1  0  0  0  0
 12 47  1  0  0  0  0
 13 48  1  0  0  0  0
 13 49  1  0  0  0  0
 14 50  1  0  0  0  0
 15 51  1  0  0  0  0
 16 52  1  0  0  0  0
 16 53  1  0  0  0  0
 21 54  1  0  0  0  0
 26 55  1  0  0  0  0
 27 56  1  0  0  0  0
 28 57  1  0  0  0  0
 29 58  1  0  0  0  0
 30 59  1  0  0  0  0
 31 60  1  0  0  0  0
 31 61  1  0  0  0  0
 32 62  1  0  0  0  0
 32 63  1  0  0  0  0
 33 64  1  0  0  0  0
 33 65  1  0  0  0  0
 34 66  1  0  0  0  0
 34 67  1  0  0  0  0
 35 68  1  0  0  0  0
 35 69  1  0  0  0  0
 36 70  1  0  0  0  0
 36 71  1  0  0  0  0
 37 72  1  0  0  0  0
 37 73  1  0  0  0  0
 38 74  1  0  0  0  0
 38 75  1  0  0  0  0
 39 76  1  0  0  0  0
 39 77  1  0  0  0  0
M  CHG  1  11   1
M  END
>  <result-rank>
97

>  <similarity>
0.880

>  <query-name>


>  <query-smiles>
S1c2c(cccc2)C(C(=O)N3CCC([N@H+]4CC5(C(=O)N6N(C5=O)CCCC6)CCC4)CC3)=C1NC(=O)NC

>  <source>
REALspace_2019-12

>  <similarity-descriptor>
0.999;0.940;1.000;0.602;0.937;0.788;1.000;0.940;0.940;0.0;0.0;0.0

>  <similarity-descriptor-smiles>
C1CCCNC1;C1=CccC(N1)=O;c1ccccc1;NC(=O)C;[NH+]1CCCCC1;FC(F)(F)C1CCCCC1;C=O;C1=CccC(N1)=O;C1=CccC(N1)=O;;;

>  <reaction-name>
m_275030

>  <reagent1-name>
14114100

>  <reagent1-smiles>
[R1*]N1CC(C2CCN([R2*])CC2)CCC1

>  <reagent2-name>
14125676

>  <reagent2-smiles>
[R1*]C(=O)C=1NC(=O)c2c(cccc2)C1

>  <reagent3-name>
14147788

>  <reagent3-smiles>
[R2*]CC(=O)NC1C(C(F)(F)F)CCCC1

$$$$
s_527a____12864476____782408
          04022017303D 1   1.00000     0.00000     0
            
 78 81  0  0  0  0            999 V2000
    0.9891   -1.7150    1.0109 O   0  0  0  0  0  0  0  0  0  0  0  0
    1.7598   -1.2129    0.2402 C   0  0  0  0  0  0  0  0  0  0  0  0
    2.5162   -1.9693   -0.5162 O   0  0  0  0  0  0  0  0  0  0  0  0
    2.4240   -3.3833   -0.4240 C   0  0  0  0  0  0  0  0  0  0  0  0
    2.7642   -3.8221    0.9910 C   0  0  0  0  0  0  0  0  0  0  0  0
    1.0090   -3.8221   -0.7642 C   0  0  0  0  0  0  0  0  0  0  0  0
    3.4002   -4.0193   -1.4002 C   0  0  0  0  0  0  0  0  0  0  0  0
    1.8487    0.1513    0.1513 N   0  0  0  0  0  0  0  0  0  0  0  0
    1.0000    1.0000    1.0000 C   0  0  3  0  0  0  0  0  0  0  0  0
    0.1221    1.8779    0.1221 C   0  0  0  0  0  0  0  0  0  0  0  0
    0.9352    2.7780   -0.7780 C   0  0  0  0  0  0  0  0  0  0  0  0
   -0.0359    3.8669   -1.1963 C   0  0  0  0  0  0  0  0  0  0  0  0
   -1.0519    3.9468   -0.0653 C   0  0  0  0  0  0  0  0  0  0  0  0
   -0.6188    2.9063    0.9506 C   0  0  0  0  0  0  0  0  0  0  0  0
    1.8776    1.8776    1.8776 C   0  0  0  0  0  0  0  0  0  0  0  0
    2.7551    1.0000    2.7551 C   0  0  3  0  0  0  0  0  0  0  0  0
    3.6482    1.8464    3.6482 C   0  0  0  0  0  0  0  0  0  0  0  0
    4.5723    0.9585    4.3674 N   0  0  0  0  0  0  0  0  0  0  0  0
    5.8446    1.3998    4.7722 C   0  0  0  0  0  0  0  0  0  0  0  0
    6.1950    2.5220    4.5316 O   0  0  0  0  0  0  0  0  0  0  0  0
    6.7332    0.4986    5.4804 C   0  0  0  0  0  0  0  0  0  0  0  0
    6.7253    0.4069    6.8991 C   0  0  0  0  0  0  0  0  0  0  0  0
    5.9580    1.0966    7.5508 O   0  0  0  0  0  0  0  0  0  0  0  0
    7.5882   -0.4626    7.5147 N   0  0  0  0  0  0  0  0  0  0  0  0
    8.4540   -1.2413    6.7909 C   0  0  0  0  0  0  0  0  0  0  0  0
    9.3587   -2.1542    7.4622 C   0  0  0  0  0  0  0  0  0  0  0  0
   10.2284   -2.9344    6.7077 C   0  0  0  0  0  0  0  0  0  0  0  0
   11.0911   -3.8064    7.3635 C   0  0  0  0  0  0  0  0  0  0  0  0
   11.0934   -3.9040    8.7511 C   0  0  0  0  0  0  0  0  0  0  0  0
   10.2149   -3.1133    9.4842 C   0  0  0  0  0  0  0  0  0  0  0  0
    9.3424   -2.2346    8.8507 C   0  0  0  0  0  0  0  0  0  0  0  0
   12.0451   -4.6634    6.5466 C   0  0  0  0  0  0  0  0  0  0  0  0
    8.4810   -1.1718    5.4218 C   0  0  0  0  0  0  0  0  0  0  0  0
    7.5981   -0.2798    4.7551 C   0  0  0  0  0  0  0  0  0  0  0  0
    4.0936   -0.4047    4.6392 C   0  0  0  0  0  0  0  0  0  0  0  0
    2.5880   -0.3904    4.8526 C   0  0  0  0  0  0  0  0  0  0  0  0
    1.8461    0.1748    3.6505 C   0  0  0  0  0  0  0  0  0  0  0  0
    2.6993   -4.8178    1.0558 H   0  0  0  0  0  0  0  0  0  0  0  0
    3.6951   -3.5334    1.2147 H   0  0  0  0  0  0  0  0  0  0  0  0
    2.1220   -3.4036    1.6332 H   0  0  0  0  0  0  0  0  0  0  0  0
    0.9442   -4.8178   -0.6993 H   0  0  0  0  0  0  0  0  0  0  0  0
    0.3668   -3.4036   -0.1220 H   0  0  0  0  0  0  0  0  0  0  0  0
    0.7853   -3.5334   -1.6951 H   0  0  0  0  0  0  0  0  0  0  0  0
    3.3353   -5.0151   -1.3353 H   0  0  0  0  0  0  0  0  0  0  0  0
    3.1764   -3.7306   -2.3311 H   0  0  0  0  0  0  0  0  0  0  0  0
    4.3311   -3.7306   -1.1764 H   0  0  0  0  0  0  0  0  0  0  0  0
    2.4909    0.5697   -0.4909 H   0  0  0  0  0  0  0  0  0  0  0  0
    0.4226    0.4226    1.5774 H   0  0  0  0  0  0  0  0  0  0  0  0
   -0.5163    1.3232   -0.4115 H   0  0  0  0  0  0  0  0  0  0  0  0
    1.2678    2.2745   -1.5755 H   0  0  0  0  0  0  0  0  0  0  0  0
    1.7115    3.1671   -0.2820 H   0  0  0  0  0  0  0  0  0  0  0  0
   -0.4857    3.6250   -2.0560 H   0  0  0  0  0  0  0  0  0  0  0  0
    0.4400    4.7399   -1.3032 H   0  0  0  0  0  0  0  0  0  0  0  0
   -1.0455    4.8586    0.3453 H   0  0  0  0  0  0  0  0  0  0  0  0
   -1.9693    3.7409   -0.4057 H   0  0  0  0  0  0  0  0  0  0  0  0
   -0.0164    3.3100    1.6391 H   0  0  0  0  0  0  0  0  0  0  0  0
   -1.4121    2.4964    1.4008 H   0  0  0  0  0  0  0  0  0  0  0  0
    1.3002    2.4549    2.4549 H   0  0  0  0  0  0  0  0  0  0  0  0
    2.4549    2.4549    1.3002 H   0  0  0  0  0  0  0  0  0  0  0  0
    3.3137    0.3969    2.1858 H   0  0  0  0  0  0  0  0  0  0  0  0
    4.1684    2.4920    3.0891 H   0  0  0  0  0  0  0  0  0  0  0  0
    3.0869    2.3507    4.3044 H   0  0  0  0  0  0  0  0  0  0  0  0
    7.5861   -0.5303    8.5124 H   0  0  0  0  0  0  0  0  0  0  0  0
   10.2333   -2.8696    5.7098 H   0  0  0  0  0  0  0  0  0  0  0  0
   11.7173   -4.5332    9.2146 H   0  0  0  0  0  0  0  0  0  0  0  0
   10.2105   -3.1775   10.4821 H   0  0  0  0  0  0  0  0  0  0  0  0
    8.7135   -1.6697    9.3850 H   0  0  0  0  0  0  0  0  0  0  0  0
   12.5930   -5.2308    7.1613 H   0  0  0  0  0  0  0  0  0  0  0  0
   11.5208   -5.2504    5.9297 H   0  0  0  0  0  0  0  0  0  0  0  0
   12.6490   -4.0726    6.0115 H   0  0  0  0  0  0  0  0  0  0  0  0
    9.1143   -1.7420    4.8986 H   0  0  0  0  0  0  0  0  0  0  0  0
    7.6077   -0.2198    3.7569 H   0  0  0  0  0  0  0  0  0  0  0  0
    4.5419   -0.7560    5.4611 H   0  0  0  0  0  0  0  0  0  0  0  0
    4.3130   -0.9945    3.8619 H   0  0  0  0  0  0  0  0  0  0  0  0
    2.3810    0.1720    5.6531 H   0  0  0  0  0  0  0  0  0  0  0  0
    2.2760   -1.3268    5.0132 H   0  0  0  0  0  0  0  0  0  0  0  0
    1.4703   -0.5834    3.1177 H   0  0  0  0  0  0  0  0  0  0  0  0
    1.0999    0.7557    3.9758 H   0  0  0  0  0  0  0  0  0  0  0  0
  1  2  2  0  0  0  0
  2  3  1  0  0  0  0
  3  4  1  0  0  0  0
  4  5  1  0  0  0  0
  4  6  1  0  0  0  0
  4  7  1  0  0  0  0
  2  8  1  0  0  0  0
  8  9  1  0  0  0  0
  9 10  1  0  0  0  0
 10 11  1  0  0  0  0
 11 12  1  0  0  0  0
 12 13  1  0  0  0  0
 13 14  1  0  0  0  0
 14 10  1  0  0  0  0
  9 15  1  0  0  0  0
 15 16  1  0  0  0  0
 16 17  1  0  0  0  0
 17 18  1  0  0  0  0
 18 19  1  0  0  0  0
 19 20  2  0  0  0  0
 19 21  1  0  0  0  0
 21 22  1  0  0  0  0
 22 23  2  0  0  0  0
 22 24  1  0  0  0  0
 24 25  1  0  0  0  0
 25 26  1  0  0  0  0
 26 27  1  0  0  0  0
 27 28  2  0  0  0  0
 28 29  1  0  0  0  0
 29 30  2  0  0  0  0
 30 31  1  0  0  0  0
 31 26  2  0  0  0  0
 28 32  1  0  0  0  0
 25 33  2  0  0  0  0
 33 34  1  0  0  0  0
 21 34  2  0  0  0  0
 18 35  1  0  0  0  0
 35 36  1  0  0  0  0
 36 37  1  0  0  0  0
 37 16  1  0  0  0  0
  5 38  1  0  0  0  0
  5 39  1  0  0  0  0
  5 40  1  0  0  0  0
  6 41  1  0  0  0  0
  6 42  1  0  0  0  0
  6 43  1  0  0  0  0
  7 44  1  0  0  0  0
  7 45  1  0  0  0  0
  7 46  1  0  0  0  0
  8 47  1  0  0  0  0
  9 48  1  0  0  0  0
 10 49  1  0  0  0  0
 11 50  1  0  0  0  0
 11 51  1  0  0  0  0
 12 52  1  0  0  0  0
 12 53  1  0  0  0  0
 13 54  1  0  0  0  0
 13 55  1  0  0  0  0
 14 56  1  0  0  0  0
 14 57  1  0  0  0  0
 15 58  1  0  0  0  0
 15 59  1  0  0  0  0
 16 60  1  0  0  0  0
 17 61  1  0  0  0  0
 17 62  1  0  0  0  0
 24 63  1  0  0  0  0
 27 64  1  0  0  0  0
 29 65  1  0  0  0  0
 30 66  1  0  0  0  0
 31 67  1  0  0  0  0
 32 68  1  0  0  0  0
 32 69  1  0  0  0  0
 32 70  1  0  0  0  0
 33 71  1  0  0  0  0
 34 72  1  0  0  0  0
 35 73  1  0  0  0  0
 35 74  1  0  0  0  0
 36 75  1  0  0  0  0
 36 76  1  0  0  0  0
 37 77  1  0  0  0  0
 37 78  1  0  0  0  0
M  END
>  <result-rank>
98

>  <similarity>
0.880

>  <query-name>


>  <query-smiles>
S1c2c(cccc2)C(C(=O)N3CCC([N@H+]4CC5(C(=O)N6N(C5=O)CCCC6)CCC4)CC3)=C1NC(=O)NC

>  <source>
REALspace_2019-12

>  <similarity-descriptor>
0.999;0.936;0.984;0.708;0.816;0.795;1.000;0.936;0.936;0.0;0.0;0.067

>  <similarity-descriptor-smiles>
C1CCCNC1;C1=CC=CNC1=O;c1ccccc1;O=CO;NC(C1CCCC1)C;C(C)(C)C;C=O;C1=CC=CNC1=O;C1=CC=CNC1=O;;;C

>  <reaction-name>
s_527a

>  <reagent1-name>
12864476

>  <reagent1-smiles>
[R1*]N1CC(CC(NC(=O)OC(C)(C)C)C2CCCC2)CCC1

>  <reagent2-name>
782408

>  <reagent2-smiles>
[R1*]C(=O)C=1C(=O)NC(c2cc(ccc2)C)=CC1

$$$$
s_22____15090470____12912720
          04022017303D 1   1.00000     0.00000     0
            
 59 62  0  0  0  0            999 V2000
    4.4456    6.2331   -5.2195 Cl  0  0  0  0  0  0  0  0  0  0  0  0
    3.5920    4.7117   -5.5735 C   0  0  0  0  0  0  0  0  0  0  0  0
    3.6291    4.0041   -6.8060 C   0  0  0  0  0  0  0  0  0  0  0  0
    2.8678    2.8587   -6.7858 C   0  0  0  0  0  0  0  0  0  0  0  0
    2.1555    2.7238   -5.2475 S   0  0  0  0  0  0  0  0  0  0  0  0
    2.8274    4.1482   -4.5978 C   0  0  0  0  0  0  0  0  0  0  0  0
    2.6150    4.6462   -3.2522 C   0  0  0  0  0  0  0  0  0  0  0  0
    2.1198    5.7261   -3.0833 O   0  0  0  0  0  0  0  0  0  0  0  0
    2.9882    3.8662   -2.1494 N   0  0  0  0  0  0  0  0  0  0  0  0
    2.7450    4.4311   -0.8107 C   0  0  0  0  0  0  0  0  0  0  0  0
    2.2747    3.3392    0.1408 C   0  0  0  0  0  0  0  0  0  0  0  0
    3.0734    2.0370    0.0699 C   0  0  0  0  0  0  0  0  0  0  0  0
    2.4699    1.0000    1.0000 C   0  0  3  0  0  0  0  0  0  0  0  0
    1.0000    1.0000    1.0000 N   0  0  0  0  0  0  0  0  0  0  0  0
    0.3150   -0.1277    0.6312 C   0  0  0  0  0  0  0  0  0  0  0  0
   -0.8850   -0.1277    0.6312 O   0  0  0  0  0  0  0  0  0  0  0  0
    0.9700   -1.2060    0.2785 O   0  0  0  0  0  0  0  0  0  0  0  0
    0.2600   -2.3748   -0.1038 C   0  0  0  0  0  0  0  0  0  0  0  0
   -0.6139   -2.0655   -1.3084 C   0  0  0  0  0  0  0  0  0  0  0  0
    1.2477   -3.4729   -0.4630 C   0  0  0  0  0  0  0  0  0  0  0  0
   -0.6139   -2.8371    1.0507 C   0  0  0  0  0  0  0  0  0  0  0  0
    3.0471    1.4467    2.3293 C   0  0  0  0  0  0  0  0  0  0  0  0
    4.5127    1.6530    2.0015 C   0  0  0  0  0  0  0  0  0  0  0  0
    4.5199    2.0032    0.5299 C   0  0  0  0  0  0  0  0  0  0  0  0
    3.0303    1.5517   -1.3746 C   0  0  0  0  0  0  0  0  0  0  0  0
    3.5966    2.5467   -2.3819 C   0  0  0  0  0  0  0  0  0  0  0  0
    2.6648    1.9320   -7.7924 C   0  0  0  0  0  0  0  0  0  0  0  0
    3.3240    2.2110   -8.9769 C   0  0  0  0  0  0  0  0  0  0  0  0
    4.1197    3.3463   -9.0938 C   0  0  0  0  0  0  0  0  0  0  0  0
    4.2676    4.2275   -8.0255 C   0  0  0  0  0  0  0  0  0  0  0  0
    5.0444    5.2898   -8.2223 F   0  0  0  0  0  0  0  0  0  0  0  0
    2.0425    5.1400   -0.8736 H   0  0  0  0  0  0  0  0  0  0  0  0
    3.5923    4.8314   -0.4618 H   0  0  0  0  0  0  0  0  0  0  0  0
    2.3378    3.6921    1.0744 H   0  0  0  0  0  0  0  0  0  0  0  0
    1.3204    3.1305   -0.0728 H   0  0  0  0  0  0  0  0  0  0  0  0
    2.8124    0.0900    0.7665 H   0  0  0  0  0  0  0  0  0  0  0  0
    0.5000    1.8231    1.2692 H   0  0  0  0  0  0  0  0  0  0  0  0
   -1.1139   -2.8886   -1.5776 H   0  0  0  0  0  0  0  0  0  0  0  0
   -1.2637   -1.3431   -1.0721 H   0  0  0  0  0  0  0  0  0  0  0  0
   -0.0390   -1.7613   -2.0680 H   0  0  0  0  0  0  0  0  0  0  0  0
    0.7477   -4.2960   -0.7322 H   0  0  0  0  0  0  0  0  0  0  0  0
    1.8227   -3.1687   -1.2225 H   0  0  0  0  0  0  0  0  0  0  0  0
    1.8227   -3.6763    0.3296 H   0  0  0  0  0  0  0  0  0  0  0  0
   -1.1139   -3.6602    0.7815 H   0  0  0  0  0  0  0  0  0  0  0  0
   -0.0390   -3.0406    1.8433 H   0  0  0  0  0  0  0  0  0  0  0  0
   -1.2637   -2.1147    1.2870 H   0  0  0  0  0  0  0  0  0  0  0  0
    2.9294    0.7419    3.0289 H   0  0  0  0  0  0  0  0  0  0  0  0
    2.6232    2.2978    2.6390 H   0  0  0  0  0  0  0  0  0  0  0  0
    4.8958    2.3996    2.5453 H   0  0  0  0  0  0  0  0  0  0  0  0
    5.0345    0.8166    2.1693 H   0  0  0  0  0  0  0  0  0  0  0  0
    4.9442    2.8983    0.3927 H   0  0  0  0  0  0  0  0  0  0  0  0
    5.0271    1.3117    0.0155 H   0  0  0  0  0  0  0  0  0  0  0  0
    2.0775    1.3680   -1.6161 H   0  0  0  0  0  0  0  0  0  0  0  0
    3.5593    0.7053   -1.4376 H   0  0  0  0  0  0  0  0  0  0  0  0
    4.5881    2.6104   -2.2685 H   0  0  0  0  0  0  0  0  0  0  0  0
    3.3863    2.2399   -3.3101 H   0  0  0  0  0  0  0  0  0  0  0  0
    2.0874    1.1242   -7.6737 H   0  0  0  0  0  0  0  0  0  0  0  0
    3.2276    1.5911   -9.7556 H   0  0  0  0  0  0  0  0  0  0  0  0
    4.5913    3.5319   -9.9558 H   0  0  0  0  0  0  0  0  0  0  0  0
  1  2  1  0  0  0  0
  2  3  1  0  0  0  0
  3  4  1  0  0  0  0
  4  5  1  0  0  0  0
  5  6  1  0  0  0  0
  2  6  2  0  0  0  0
  6  7  1  0  0  0  0
  7  8  2  0  0  0  0
  7  9  1  0  0  0  0
  9 10  1  0  0  0  0
 10 11  1  0  0  0  0
 11 12  1  0  0  0  0
 12 13  1  0  0  0  0
 13 14  1  0  0  0  0
 14 15  1  0  0  0  0
 15 16  2  0  0  0  0
 15 17  1  0  0  0  0
 17 18  1  0  0  0  0
 18 19  1  0  0  0  0
 18 20  1  0  0  0  0
 18 21  1  0  0  0  0
 13 22  1  0  0  0  0
 22 23  1  0  0  0  0
 23 24  1  0  0  0  0
 24 12  1  0  0  0  0
 12 25  1  0  0  0  0
 25 26  1  0  0  0  0
 26  9  1  0  0  0  0
  4 27  2  0  0  0  0
 27 28  1  0  0  0  0
 28 29  2  0  0  0  0
 29 30  1  0  0  0  0
 30  3  2  0  0  0  0
 30 31  1  0  0  0  0
 10 32  1  0  0  0  0
 10 33  1  0  0  0  0
 11 34  1  0  0  0  0
 11 35  1  0  0  0  0
 13 36  1  0  0  0  0
 14 37  1  0  0  0  0
 19 38  1  0  0  0  0
 19 39  1  0  0  0  0
 19 40  1  0  0  0  0
 20 41  1  0  0  0  0
 20 42  1  0  0  0  0
 20 43  1  0  0  0  0
 21 44  1  0  0  0  0
 21 45  1  0  0  0  0
 21 46  1  0  0  0  0
 22 47  1  0  0  0  0
 22 48  1  0  0  0  0
 23 49  1  0  0  0  0
 23 50  1  0  0  0  0
 24 51  1  0  0  0  0
 24 52  1  0  0  0  0
 25 53  1  0  0  0  0
 25 54  1  0  0  0  0
 26 55  1  0  0  0  0
 26 56  1  0  0  0  0
 27 57  1  0  0  0  0
 28 58  1  0  0  0  0
 29 59  1  0  0  0  0
M  END
>  <result-rank>
99

>  <similarity>
0.879

>  <query-name>


>  <query-smiles>
S1c2c(cccc2)C(C(=O)N3CCC([N@H+]4CC5(C(=O)N6N(C5=O)CCCC6)CCC4)CC3)=C1NC(=O)NC

>  <source>
REALspace_2019-12

>  <similarity-descriptor>
0.905;0.947;0.964;0.708;0.990;0.795;1.000;0.0;0.0;0.0;0.0;0.0

>  <similarity-descriptor-smiles>
N1CCCCC1;ClC1=CScc1;c1c(cccc1)F;C(=O)O;C1CCCC1N;C(C)(C)C;C=O;;;;;

>  <reaction-name>
s_22

>  <reagent1-name>
15090470

>  <reagent1-smiles>
[R1*]N1CCC2(C(NC(=O)OC(C)(C)C)CCC2)CC1

>  <reagent2-name>
12912720

>  <reagent2-smiles>
[R1*]C(=O)C=1Sc2c(c(F)ccc2)C1Cl

$$$$
m_275592____15865406____14137820____14128962
          04022017303D 1   1.00000     0.00000     0
            
 66 70  0  0  0  0            999 V2000
    7.2898    2.9926    4.9455 O   0  0  0  0  0  0  0  0  0  0  0  0
    7.8550    1.9727    5.2290 C   0  0  0  0  0  0  0  0  0  0  0  0
    7.3460    0.7698    4.8159 N   0  0  0  0  0  0  0  0  0  0  0  0
    6.1074    0.7283    4.0252 C   0  0  0  0  0  0  0  0  0  0  0  0
    6.4226    1.0514    2.5704 C   0  0  3  0  0  0  0  0  0  0  0  0
    5.2105    1.0372    1.6574 C   0  0  0  0  0  0  0  0  0  0  0  0
    4.3411    2.2764    1.8289 C   0  0  0  0  0  0  0  0  0  0  0  0
    3.0885    2.3011    0.9595 C   0  0  0  0  0  0  0  0  0  0  0  0
    2.3982    1.0000    1.0000 N   0  0  0  0  0  0  0  0  0  0  0  0
    1.0000    1.0000    1.0000 C   0  0  0  0  0  0  0  0  0  0  0  0
    0.4000    2.0387    0.9677 O   0  0  0  0  0  0  0  0  0  0  0  0
    0.2400   -0.3157    1.0410 C   0  0  0  0  0  0  0  0  0  0  0  0
    0.2478   -1.0431    0.0866 O   0  0  0  0  0  0  0  0  0  0  0  0
   -0.4539   -0.6712    2.1675 N   0  0  0  0  0  0  0  0  0  0  0  0
   -1.1889   -1.9436    2.2071 C   0  0  0  0  0  0  0  0  0  0  0  0
   -0.2196   -3.0802    2.4915 C   0  0  0  0  0  0  0  0  0  0  0  0
   -0.9360   -4.3982    2.5394 C   0  0  0  0  0  0  0  0  0  0  0  0
   -0.4844   -3.7426    3.8129 C   0  0  0  0  0  0  0  0  0  0  0  0
    3.0880   -0.2968    1.0514 C   0  0  0  0  0  0  0  0  0  0  0  0
    4.2895   -0.1390    1.9689 C   0  0  0  0  0  0  0  0  0  0  0  0
    5.9716    1.0582    0.3493 C   0  0  0  0  0  0  0  0  0  0  0  0
    7.0071   -0.0362    0.5128 C   0  0  0  0  0  0  0  0  0  0  0  0
    7.3334   -0.0149    1.9898 C   0  0  0  0  0  0  0  0  0  0  0  0
    9.0766    2.0136    6.0089 C   0  0  0  0  0  0  0  0  0  0  0  0
    9.8038    3.1975    6.0660 C   0  0  0  0  0  0  0  0  0  0  0  0
   10.9739    3.2319    6.8161 C   0  0  0  0  0  0  0  0  0  0  0  0
   11.4175    2.1040    7.5003 C   0  0  0  0  0  0  0  0  0  0  0  0
   10.6803    0.9256    7.4353 C   0  0  0  0  0  0  0  0  0  0  0  0
    9.5073    0.8789    6.6882 C   0  0  0  0  0  0  0  0  0  0  0  0
   12.5859    2.1484    8.2521 C   0  0  0  0  0  0  0  0  0  0  0  0
   13.3145    3.3321    8.3143 C   0  0  0  0  0  0  0  0  0  0  0  0
   12.8716    4.4578    7.6287 C   0  0  0  0  0  0  0  0  0  0  0  0
   11.7014    4.4162    6.8776 C   0  0  0  0  0  0  0  0  0  0  0  0
    7.8170   -0.0801    5.0521 H   0  0  0  0  0  0  0  0  0  0  0  0
    5.4605    1.4015    4.3835 H   0  0  0  0  0  0  0  0  0  0  0  0
    5.7047   -0.1851    4.0841 H   0  0  0  0  0  0  0  0  0  0  0  0
    6.8729    1.9426    2.5153 H   0  0  0  0  0  0  0  0  0  0  0  0
    4.8937    3.0784    1.6020 H   0  0  0  0  0  0  0  0  0  0  0  0
    4.0569    2.3275    2.7863 H   0  0  0  0  0  0  0  0  0  0  0  0
    2.4699    3.0112    1.2958 H   0  0  0  0  0  0  0  0  0  0  0  0
    3.3484    2.5052    0.0157 H   0  0  0  0  0  0  0  0  0  0  0  0
   -0.4604   -0.0650    2.9628 H   0  0  0  0  0  0  0  0  0  0  0  0
   -1.6349   -2.0986    1.3255 H   0  0  0  0  0  0  0  0  0  0  0  0
   -1.8804   -1.9068    2.9285 H   0  0  0  0  0  0  0  0  0  0  0  0
    0.7144   -3.0360    2.1372 H   0  0  0  0  0  0  0  0  0  0  0  0
   -0.4803   -5.2270    2.2149 H   0  0  0  0  0  0  0  0  0  0  0  0
   -1.9105   -4.4458    2.3199 H   0  0  0  0  0  0  0  0  0  0  0  0
   -1.1580   -3.3536    4.4413 H   0  0  0  0  0  0  0  0  0  0  0  0
    0.2722   -4.1348    4.3362 H   0  0  0  0  0  0  0  0  0  0  0  0
    3.3902   -0.5594    0.1350 H   0  0  0  0  0  0  0  0  0  0  0  0
    2.4722   -0.9970    1.4127 H   0  0  0  0  0  0  0  0  0  0  0  0
    3.9502   -0.0245    2.9025 H   0  0  0  0  0  0  0  0  0  0  0  0
    4.8318   -0.9772    1.9118 H   0  0  0  0  0  0  0  0  0  0  0  0
    6.4108    1.9453    0.2074 H   0  0  0  0  0  0  0  0  0  0  0  0
    5.3633    0.8605   -0.4194 H   0  0  0  0  0  0  0  0  0  0  0  0
    7.8211    0.1604   -0.0338 H   0  0  0  0  0  0  0  0  0  0  0  0
    6.6318   -0.9234    0.2445 H   0  0  0  0  0  0  0  0  0  0  0  0
    7.1445   -0.9046    2.4055 H   0  0  0  0  0  0  0  0  0  0  0  0
    8.2935    0.2239    2.1354 H   0  0  0  0  0  0  0  0  0  0  0  0
    9.4903    4.0107    5.5756 H   0  0  0  0  0  0  0  0  0  0  0  0
   10.9935    0.1123    7.9256 H   0  0  0  0  0  0  0  0  0  0  0  0
    8.9761    0.0330    6.6399 H   0  0  0  0  0  0  0  0  0  0  0  0
   12.9001    1.3365    8.7440 H   0  0  0  0  0  0  0  0  0  0  0  0
   14.1566    3.3732    8.8520 H   0  0  0  0  0  0  0  0  0  0  0  0
   13.3996    5.3057    7.6761 H   0  0  0  0  0  0  0  0  0  0  0  0
   11.3866    5.2288    6.3871 H   0  0  0  0  0  0  0  0  0  0  0  0
  1  2  2  0  0  0  0
  2  3  1  0  0  0  0
  3  4  1  0  0  0  0
  4  5  1  0  0  0  0
  5  6  1  0  0  0  0
  6  7  1  0  0  0  0
  7  8  1  0  0  0  0
  8  9  1  0  0  0  0
  9 10  1  0  0  0  0
 10 11  2  0  0  0  0
 10 12  1  0  0  0  0
 12 13  2  0  0  0  0
 12 14  1  0  0  0  0
 14 15  1  0  0  0  0
 15 16  1  0  0  0  0
 16 17  1  0  0  0  0
 17 18  1  0  0  0  0
 18 16  1  0  0  0  0
  9 19  1  0  0  0  0
 19 20  1  0  0  0  0
 20  6  1  0  0  0  0
  6 21  1  0  0  0  0
 21 22  1  0  0  0  0
 22 23  1  0  0  0  0
 23  5  1  0  0  0  0
  2 24  1  0  0  0  0
 24 25  1  0  0  0  0
 25 26  2  0  0  0  0
 26 27  1  0  0  0  0
 27 28  2  0  0  0  0
 28 29  1  0  0  0  0
 29 24  2  0  0  0  0
 27 30  1  0  0  0  0
 30 31  2  0  0  0  0
 31 32  1  0  0  0  0
 32 33  2  0  0  0  0
 33 26  1  0  0  0  0
  3 34  1  0  0  0  0
  4 35  1  0  0  0  0
  4 36  1  0  0  0  0
  5 37  1  0  0  0  0
  7 38  1  0  0  0  0
  7 39  1  0  0  0  0
  8 40  1  0  0  0  0
  8 41  1  0  0  0  0
 14 42  1  0  0  0  0
 15 43  1  0  0  0  0
 15 44  1  0  0  0  0
 16 45  1  0  0  0  0
 17 46  1  0  0  0  0
 17 47  1  0  0  0  0
 18 48  1  0  0  0  0
 18 49  1  0  0  0  0
 19 50  1  0  0  0  0
 19 51  1  0  0  0  0
 20 52  1  0  0  0  0
 20 53  1  0  0  0  0
 21 54  1  0  0  0  0
 21 55  1  0  0  0  0
 22 56  1  0  0  0  0
 22 57  1  0  0  0  0
 23 58  1  0  0  0  0
 23 59  1  0  0  0  0
 25 60  1  0  0  0  0
 28 61  1  0  0  0  0
 29 62  1  0  0  0  0
 30 63  1  0  0  0  0
 31 64  1  0  0  0  0
 32 65  1  0  0  0  0
 33 66  1  0  0  0  0
M  END
>  <result-rank>
100

>  <similarity>
0.879

>  <query-name>


>  <query-smiles>
S1c2c(cccc2)C(C(=O)N3CCC([N@H+]4CC5(C(=O)N6N(C5=O)CCCC6)CCC4)CC3)=C1NC(=O)NC

>  <source>
REALspace_2019-12

>  <similarity-descriptor>
0.995;0.746;0.999;0.846;0.808;0.975;0.851;0.746;0.746;0.0;0.0;0.0

>  <similarity-descriptor-smiles>
CC1CCCC1;c1ccccc1;c1ccccc1;C(=O)C(=O)N;C1CCNCC1;CC1CC1;O=CN;c1ccccc1;c1ccccc1;;;

>  <reaction-name>
m_275592

>  <reagent1-name>
15865406

>  <reagent1-smiles>
[R2*]N1CCC2(C(CN[R1*])CCC2)CC1

>  <reagent2-name>
14137820

>  <reagent2-smiles>
[R1*]C(=O)C(=O)NCC1CC1

>  <reagent3-name>
14128962

>  <reagent3-smiles>
[R2*]C(=O)c1cc2c(cc1)cccc2

$$$$
