s_22____8333288____17513450
          04022015103D 1   1.00000     0.00000     0
            
 56 57  0  0  0  0            999 V2000
    2.9700    2.0392    1.0000 O   0  0  0  0  0  0  0  0  0  0  0  0
    2.3700    1.0000    1.0000 C   0  0  0  0  0  0  0  0  0  0  0  0
    1.0000    1.0000    1.0000 N   0  0  0  0  0  0  0  0  0  0  0  0
    0.2628    2.2769    1.0000 C   0  0  3  0  0  0  0  0  0  0  0  0
   -0.6190    2.3785    2.2347 C   0  0  0  0  0  0  0  0  0  0  0  0
   -1.4001    3.6816    2.1739 C   0  0  3  0  0  0  0  0  0  0  0  0
   -2.1999    3.7517    0.9997 O   0  0  0  0  0  0  0  0  0  0  0  0
   -1.4235    3.6628   -0.1873 C   0  0  0  0  0  0  0  0  0  0  0  0
   -0.6296    2.3656   -0.2284 C   0  0  0  0  0  0  0  0  0  0  0  0
   -2.2437    3.7757    3.4352 C   0  0  0  0  0  0  0  0  0  0  0  0
   -1.3411    3.6958    4.6556 C   0  0  0  0  0  0  0  0  0  0  0  0
   -0.3453    4.8438    4.6253 C   0  0  0  0  0  0  0  0  0  0  0  0
   -2.1846    3.7899    5.9167 C   0  0  0  0  0  0  0  0  0  0  0  0
    3.1300   -0.3164    1.0000 C   0  0  3  0  0  0  0  0  0  0  0  0
    4.5752   -0.0477    1.0000 N   0  0  0  0  0  0  0  0  0  0  0  0
    5.3571   -0.5058    2.0275 C   0  0  0  0  0  0  0  0  0  0  0  0
    4.8622   -1.1263    2.9275 O   0  0  0  0  0  0  0  0  0  0  0  0
    6.8515   -0.2281    2.0275 C   0  0  0  0  0  0  0  0  0  0  0  0
    2.7628   -1.1134   -0.2411 C   0  0  0  0  0  0  0  0  0  0  0  0
    3.5228   -2.4298   -0.2411 C   0  0  0  0  0  0  0  0  0  0  0  0
    2.9568   -3.5469    0.3644 C   0  0  0  0  0  0  0  0  0  0  0  0
    3.6482   -4.7537    0.3662 C   0  0  0  0  0  0  0  0  0  0  0  0
    4.8987   -4.8280   -0.2391 C   0  0  0  0  0  0  0  0  0  0  0  0
    5.5734   -5.9972   -0.2393 O   0  0  0  0  0  0  0  0  0  0  0  0
    5.4695   -3.7138   -0.8457 C   0  0  0  0  0  0  0  0  0  0  0  0
    4.7735   -2.5097   -0.8449 C   0  0  0  0  0  0  0  0  0  0  0  0
    0.5000    0.1340    1.0000 H   0  0  0  0  0  0  0  0  0  0  0  0
    0.9136    3.0361    0.9933 H   0  0  0  0  0  0  0  0  0  0  0  0
   -1.2544    1.6067    2.2582 H   0  0  0  0  0  0  0  0  0  0  0  0
   -0.0492    2.3663    3.0564 H   0  0  0  0  0  0  0  0  0  0  0  0
   -0.7518    4.4430    2.1652 H   0  0  0  0  0  0  0  0  0  0  0  0
   -0.7889    4.4350   -0.2208 H   0  0  0  0  0  0  0  0  0  0  0  0
   -2.0330    3.6976   -0.9794 H   0  0  0  0  0  0  0  0  0  0  0  0
   -1.2600    1.5895   -0.2390 H   0  0  0  0  0  0  0  0  0  0  0  0
   -0.0642    2.3471   -1.0530 H   0  0  0  0  0  0  0  0  0  0  0  0
   -2.8989    3.0205    3.4552 H   0  0  0  0  0  0  0  0  0  0  0  0
   -2.7373    4.6454    3.4420 H   0  0  0  0  0  0  0  0  0  0  0  0
   -0.8476    2.8261    4.6488 H   0  0  0  0  0  0  0  0  0  0  0  0
    0.2485    4.7912    5.4282 H   0  0  0  0  0  0  0  0  0  0  0  0
    0.2096    4.7819    3.7957 H   0  0  0  0  0  0  0  0  0  0  0  0
   -0.8389    5.7134    4.6321 H   0  0  0  0  0  0  0  0  0  0  0  0
   -1.5908    3.7373    6.7195 H   0  0  0  0  0  0  0  0  0  0  0  0
   -2.6781    4.6596    5.9235 H   0  0  0  0  0  0  0  0  0  0  0  0
   -2.8397    3.0346    5.9366 H   0  0  0  0  0  0  0  0  0  0  0  0
    2.8884   -0.8407    1.8165 H   0  0  0  0  0  0  0  0  0  0  0  0
    4.9877    0.4693    0.2500 H   0  0  0  0  0  0  0  0  0  0  0  0
    7.0931    0.2963    1.2110 H   0  0  0  0  0  0  0  0  0  0  0  0
    7.0931    0.2963    2.8440 H   0  0  0  0  0  0  0  0  0  0  0  0
    7.3515   -1.0941    2.0275 H   0  0  0  0  0  0  0  0  0  0  0  0
    1.7796   -1.2961   -0.2411 H   0  0  0  0  0  0  0  0  0  0  0  0
    3.0044   -0.5890   -1.0576 H   0  0  0  0  0  0  0  0  0  0  0  0
    2.0571   -3.4826    0.7963 H   0  0  0  0  0  0  0  0  0  0  0  0
    3.2494   -5.5620    0.7993 H   0  0  0  0  0  0  0  0  0  0  0  0
    6.4725   -6.0555   -0.6731 H   0  0  0  0  0  0  0  0  0  0  0  0
    6.3694   -3.7778   -1.2771 H   0  0  0  0  0  0  0  0  0  0  0  0
    5.1720   -1.7014   -1.2783 H   0  0  0  0  0  0  0  0  0  0  0  0
  1  2  2  0  0  0  0
  2  3  1  0  0  0  0
  3  4  1  0  0  0  0
  4  5  1  0  0  0  0
  5  6  1  0  0  0  0
  6  7  1  0  0  0  0
  7  8  1  0  0  0  0
  8  9  1  0  0  0  0
  9  4  1  0  0  0  0
  6 10  1  0  0  0  0
 10 11  1  0  0  0  0
 11 12  1  0  0  0  0
 11 13  1  0  0  0  0
  2 14  1  0  0  0  0
 14 15  1  0  0  0  0
 15 16  1  0  0  0  0
 16 17  2  0  0  0  0
 16 18  1  0  0  0  0
 14 19  1  0  0  0  0
 19 20  1  0  0  0  0
 20 21  1  0  0  0  0
 21 22  2  0  0  0  0
 22 23  1  0  0  0  0
 23 24  1  0  0  0  0
 23 25  2  0  0  0  0
 25 26  1  0  0  0  0
 26 20  2  0  0  0  0
  3 27  1  0  0  0  0
  4 28  1  0  0  0  0
  5 29  1  0  0  0  0
  5 30  1  0  0  0  0
  6 31  1  0  0  0  0
  8 32  1  0  0  0  0
  8 33  1  0  0  0  0
  9 34  1  0  0  0  0
  9 35  1  0  0  0  0
 10 36  1  0  0  0  0
 10 37  1  0  0  0  0
 11 38  1  0  0  0  0
 12 39  1  0  0  0  0
 12 40  1  0  0  0  0
 12 41  1  0  0  0  0
 13 42  1  0  0  0  0
 13 43  1  0  0  0  0
 13 44  1  0  0  0  0
 14 45  1  0  0  0  0
 15 46  1  0  0  0  0
 18 47  1  0  0  0  0
 18 48  1  0  0  0  0
 18 49  1  0  0  0  0
 19 50  1  0  0  0  0
 19 51  1  0  0  0  0
 21 52  1  0  0  0  0
 22 53  1  0  0  0  0
 24 54  1  0  0  0  0
 25 55  1  0  0  0  0
 26 56  1  0  0  0  0
M  END
>  <result-rank>
1

>  <similarity>
0.993

>  <query-name>
LIG_A_1101_CC(C)CC[C@]1([R*])CCCOC1_2

>  <query-smiles>
O=C(N[C@@]1(COCCC1)CCC(C)C)[C@@H](NC(=O)C)Cc2ccc(O)cc2

>  <source>
REALspace_2019-12

>  <similarity-descriptor>
1.000;0.971;1.000;1.000;0.971;1.000;1.000;1.000;1.000;1.000;1.000;1.000;1.000;1.000;1.000;0.0

>  <similarity-descriptor-smiles>
c1ccccc1;C1CCOCC1;O=C;N;C1CCOCC1;C;C;C;C;C;N;C=O;C;C;O;

>  <reaction-name>
s_22

>  <reagent1-name>
8333288

>  <reagent1-smiles>
[R1*]NC1CC(OCC1)CC(C)C

>  <reagent2-name>
17513450

>  <reagent2-smiles>
[R1*]C(=O)C(NC(=O)C)Cc1ccc(O)cc1

$$$$
s_22____12102952____17513450
          04022015103D 1   1.00000     0.00000     0
            
 62 63  0  0  0  0            999 V2000
    0.0421   -0.0100    1.8104 Si  0  0  0  0  0  0  0  0  0  0  0  0
    0.8417    0.9705    3.0483 O   0  0  0  0  0  0  0  0  0  0  0  0
    2.0340    1.5237    2.5158 C   0  0  3  0  0  0  0  0  0  0  0  0
    3.2190    1.2313    3.4163 C   0  0  0  0  0  0  0  0  0  0  0  0
    4.1949    2.2543    3.0515 N   0  0  0  0  0  0  0  0  0  0  0  0
    5.5820    2.1603    3.2203 C   0  0  0  0  0  0  0  0  0  0  0  0
    6.0673    1.1495    3.6478 O   0  0  0  0  0  0  0  0  0  0  0  0
    6.4728    3.3387    2.8620 C   0  0  3  0  0  0  0  0  0  0  0  0
    7.8240    2.8533    2.5463 N   0  0  0  0  0  0  0  0  0  0  0  0
    8.3634    3.0852    1.3085 C   0  0  0  0  0  0  0  0  0  0  0  0
    7.7328    3.6845    0.4819 O   0  0  0  0  0  0  0  0  0  0  0  0
    9.7605    2.5833    0.9821 C   0  0  0  0  0  0  0  0  0  0  0  0
    6.5412    4.2983    4.0387 C   0  0  0  0  0  0  0  0  0  0  0  0
    7.1078    5.6301    3.5742 C   0  0  0  0  0  0  0  0  0  0  0  0
    6.2437    6.6181    3.1134 C   0  0  0  0  0  0  0  0  0  0  0  0
    6.7576    7.8385    2.6880 C   0  0  0  0  0  0  0  0  0  0  0  0
    8.1312    8.0558    2.7294 C   0  0  0  0  0  0  0  0  0  0  0  0
    8.6341    9.2386    2.3172 O   0  0  0  0  0  0  0  0  0  0  0  0
    8.9997    7.0710    3.1890 C   0  0  0  0  0  0  0  0  0  0  0  0
    8.4804    5.8526    3.6136 C   0  0  0  0  0  0  0  0  0  0  0  0
    3.4945    3.3995    2.4701 C   0  0  0  0  0  0  0  0  0  0  0  0
    2.0243    3.0400    2.5399 C   0  0  0  0  0  0  0  0  0  0  0  0
   -1.5301   -0.7394    2.5125 C   0  0  0  0  0  0  0  0  0  0  0  0
   -1.1929   -1.6122    3.7104 C   0  0  0  0  0  0  0  0  0  0  0  0
   -2.4586    0.3823    2.9482 C   0  0  0  0  0  0  0  0  0  0  0  0
   -2.2167   -1.5814    1.4495 C   0  0  0  0  0  0  0  0  0  0  0  0
   -0.3728    1.0637    0.3366 C   0  0  0  0  0  0  0  0  0  0  0  0
    1.1845   -1.3900    1.2744 C   0  0  0  0  0  0  0  0  0  0  0  0
    2.1998    1.1847    1.5898 H   0  0  0  0  0  0  0  0  0  0  0  0
    2.9626    1.3110    4.3796 H   0  0  0  0  0  0  0  0  0  0  0  0
    3.5810    0.3155    3.2424 H   0  0  0  0  0  0  0  0  0  0  0  0
    6.0947    3.8127    2.0668 H   0  0  0  0  0  0  0  0  0  0  0  0
    8.3495    2.3539    3.2351 H   0  0  0  0  0  0  0  0  0  0  0  0
   10.1386    2.1093    1.7773 H   0  0  0  0  0  0  0  0  0  0  0  0
    9.7155    1.9520    0.2080 H   0  0  0  0  0  0  0  0  0  0  0  0
   10.3465    3.3586    0.7464 H   0  0  0  0  0  0  0  0  0  0  0  0
    5.6228    4.4378    4.4090 H   0  0  0  0  0  0  0  0  0  0  0  0
    7.1319    3.9141    4.7483 H   0  0  0  0  0  0  0  0  0  0  0  0
    5.2580    6.4516    3.0881 H   0  0  0  0  0  0  0  0  0  0  0  0
    6.1442    8.5546    2.3548 H   0  0  0  0  0  0  0  0  0  0  0  0
    9.6207    9.3994    2.3451 H   0  0  0  0  0  0  0  0  0  0  0  0
    9.9855    7.2371    3.2139 H   0  0  0  0  0  0  0  0  0  0  0  0
    9.0936    5.1366    3.9472 H   0  0  0  0  0  0  0  0  0  0  0  0
    3.7771    3.5391    1.5211 H   0  0  0  0  0  0  0  0  0  0  0  0
    3.6785    4.2286    2.9981 H   0  0  0  0  0  0  0  0  0  0  0  0
    1.6116    3.3821    3.3841 H   0  0  0  0  0  0  0  0  0  0  0  0
    1.5280    3.4075    1.7535 H   0  0  0  0  0  0  0  0  0  0  0  0
   -2.0336   -2.0023    4.0859 H   0  0  0  0  0  0  0  0  0  0  0  0
   -0.5820   -2.3502    3.4238 H   0  0  0  0  0  0  0  0  0  0  0  0
   -0.7411   -1.0582    4.4098 H   0  0  0  0  0  0  0  0  0  0  0  0
   -3.2994   -0.0078    3.3236 H   0  0  0  0  0  0  0  0  0  0  0  0
   -2.0069    0.9363    3.6475 H   0  0  0  0  0  0  0  0  0  0  0  0
   -2.6805    0.9565    2.1601 H   0  0  0  0  0  0  0  0  0  0  0  0
   -3.0575   -1.9715    1.8249 H   0  0  0  0  0  0  0  0  0  0  0  0
   -2.4386   -1.0073    0.6614 H   0  0  0  0  0  0  0  0  0  0  0  0
   -1.6058   -2.3194    1.1628 H   0  0  0  0  0  0  0  0  0  0  0  0
   -0.8245    0.5098   -0.3627 H   0  0  0  0  0  0  0  0  0  0  0  0
   -0.9836    1.8017    0.6233 H   0  0  0  0  0  0  0  0  0  0  0  0
    0.4680    1.4538   -0.0388 H   0  0  0  0  0  0  0  0  0  0  0  0
    0.7327   -1.9440    0.5750 H   0  0  0  0  0  0  0  0  0  0  0  0
    2.0252   -0.9999    0.8989 H   0  0  0  0  0  0  0  0  0  0  0  0
    1.4063   -1.9642    2.0625 H   0  0  0  0  0  0  0  0  0  0  0  0
  1  2  1  0  0  0  0
  2  3  1  0  0  0  0
  3  4  1  0  0  0  0
  4  5  1  0  0  0  0
  5  6  1  0  0  0  0
  6  7  2  0  0  0  0
  6  8  1  0  0  0  0
  8  9  1  0  0  0  0
  9 10  1  0  0  0  0
 10 11  2  0  0  0  0
 10 12  1  0  0  0  0
  8 13  1  0  0  0  0
 13 14  1  0  0  0  0
 14 15  1  0  0  0  0
 15 16  2  0  0  0  0
 16 17  1  0  0  0  0
 17 18  1  0  0  0  0
 17 19  2  0  0  0  0
 19 20  1  0  0  0  0
 20 14  2  0  0  0  0
  5 21  1  0  0  0  0
 21 22  1  0  0  0  0
 22  3  1  0  0  0  0
  1 23  1  0  0  0  0
 23 24  1  0  0  0  0
 23 25  1  0  0  0  0
 23 26  1  0  0  0  0
  1 27  1  0  0  0  0
  1 28  1  0  0  0  0
  3 29  1  0  0  0  0
  4 30  1  0  0  0  0
  4 31  1  0  0  0  0
  8 32  1  0  0  0  0
  9 33  1  0  0  0  0
 12 34  1  0  0  0  0
 12 35  1  0  0  0  0
 12 36  1  0  0  0  0
 13 37  1  0  0  0  0
 13 38  1  0  0  0  0
 15 39  1  0  0  0  0
 16 40  1  0  0  0  0
 18 41  1  0  0  0  0
 19 42  1  0  0  0  0
 20 43  1  0  0  0  0
 21 44  1  0  0  0  0
 21 45  1  0  0  0  0
 22 46  1  0  0  0  0
 22 47  1  0  0  0  0
 24 48  1  0  0  0  0
 24 49  1  0  0  0  0
 24 50  1  0  0  0  0
 25 51  1  0  0  0  0
 25 52  1  0  0  0  0
 25 53  1  0  0  0  0
 26 54  1  0  0  0  0
 26 55  1  0  0  0  0
 26 56  1  0  0  0  0
 27 57  1  0  0  0  0
 27 58  1  0  0  0  0
 27 59  1  0  0  0  0
 28 60  1  0  0  0  0
 28 61  1  0  0  0  0
 28 62  1  0  0  0  0
M  END
>  <result-rank>
2

>  <similarity>
0.968

>  <query-name>
LIG_A_1101_CC(C)CC[C@]1([R*])CCCOC1_2

>  <query-smiles>
O=C(N[C@@]1(COCCC1)CCC(C)C)[C@@H](NC(=O)C)Cc2ccc(O)cc2

>  <source>
REALspace_2019-12

>  <similarity-descriptor>
1.000;0.981;0.852;0.852;0.904;0.904;0.943;0.943;1.000;1.000;1.000;1.000;1.000;1.000;1.000;0.0

>  <similarity-descriptor-smiles>
c1ccccc1;OC1CCNC1;C=O;C=O;[Si](C)C;[Si](C)C;C(C)C;C(C)C;C;C;N;C=O;C;C;O;

>  <reaction-name>
s_22

>  <reagent1-name>
12102952

>  <reagent1-smiles>
[R1*]N1CC(O[Si](C(C)(C)C)(C)C)CC1

>  <reagent2-name>
17513450

>  <reagent2-smiles>
[R1*]C(=O)C(NC(=O)C)Cc1ccc(O)cc1

$$$$
s_22____11765530____17513450
          04022015103D 1   1.00000     0.00000     0
            
 57 59  0  0  0  0            999 V2000
    0.4711    2.1500   -0.9930 O   0  0  0  0  0  0  0  0  0  0  0  0
    0.1224    1.8776    0.1224 C   0  0  0  0  0  0  0  0  0  0  0  0
   -1.0990    2.3706    0.6180 N   0  0  0  0  0  0  0  0  0  0  0  0
   -1.7902    1.7609    1.7639 C   0  0  0  0  0  0  0  0  0  0  0  0
   -3.2931    1.9171    1.5839 C   0  0  0  0  0  0  0  0  0  0  0  0
   -3.5855    3.3138    1.6720 O   0  0  0  0  0  0  0  0  0  0  0  0
   -2.6225    4.1880    1.0895 C   0  0  3  0  0  0  0  0  0  0  0  0
   -1.7691    3.5344    0.0165 C   0  0  0  0  0  0  0  0  0  0  0  0
   -3.2774    5.4614    0.5762 C   0  0  0  0  0  0  0  0  0  0  0  0
   -3.7094    1.2869    0.2582 C   0  0  0  0  0  0  0  0  0  0  0  0
   -3.2755   -0.1645    0.1207 C   0  0  0  0  0  0  0  0  0  0  0  0
   -3.9686   -0.9483    1.2225 C   0  0  0  0  0  0  0  0  0  0  0  0
   -3.6877   -0.3721    2.6014 C   0  0  0  0  0  0  0  0  0  0  0  0
   -4.0272    1.1126    2.6479 C   0  0  0  0  0  0  0  0  0  0  0  0
    1.0000    1.0000    1.0000 C   0  0  3  0  0  0  0  0  0  0  0  0
    1.8487    0.1513    0.1513 N   0  0  0  0  0  0  0  0  0  0  0  0
    1.7598   -1.2129    0.2402 C   0  0  0  0  0  0  0  0  0  0  0  0
    0.9891   -1.7150    1.0109 O   0  0  0  0  0  0  0  0  0  0  0  0
    2.6374   -2.0905   -0.6374 C   0  0  0  0  0  0  0  0  0  0  0  0
    1.8776    1.8776    1.8776 C   0  0  0  0  0  0  0  0  0  0  0  0
    2.8824    1.0100    2.6179 C   0  0  0  0  0  0  0  0  0  0  0  0
    2.5504    0.4903    3.8647 C   0  0  0  0  0  0  0  0  0  0  0  0
    3.4664   -0.3047    4.5455 C   0  0  0  0  0  0  0  0  0  0  0  0
    4.7046   -0.5705    3.9693 C   0  0  0  0  0  0  0  0  0  0  0  0
    5.5967   -1.3413    4.6266 O   0  0  0  0  0  0  0  0  0  0  0  0
    5.0418   -0.0530    2.7228 C   0  0  0  0  0  0  0  0  0  0  0  0
    4.1218    0.7410    2.0463 C   0  0  0  0  0  0  0  0  0  0  0  0
   -1.5054    2.2166    2.6072 H   0  0  0  0  0  0  0  0  0  0  0  0
   -1.5589    0.7894    1.8155 H   0  0  0  0  0  0  0  0  0  0  0  0
   -2.0011    4.4608    1.8239 H   0  0  0  0  0  0  0  0  0  0  0  0
   -2.3473    3.2381   -0.7437 H   0  0  0  0  0  0  0  0  0  0  0  0
   -1.0865    4.1844   -0.3174 H   0  0  0  0  0  0  0  0  0  0  0  0
   -2.5810    6.0554    0.1735 H   0  0  0  0  0  0  0  0  0  0  0  0
   -3.9592    5.2293   -0.1176 H   0  0  0  0  0  0  0  0  0  0  0  0
   -3.7226    5.9366    1.3351 H   0  0  0  0  0  0  0  0  0  0  0  0
   -3.2986    1.8130   -0.4865 H   0  0  0  0  0  0  0  0  0  0  0  0
   -4.7059    1.3287    0.1857 H   0  0  0  0  0  0  0  0  0  0  0  0
   -2.2832   -0.2363    0.2216 H   0  0  0  0  0  0  0  0  0  0  0  0
   -3.5461   -0.5195   -0.7742 H   0  0  0  0  0  0  0  0  0  0  0  0
   -3.6456   -1.8943    1.1969 H   0  0  0  0  0  0  0  0  0  0  0  0
   -4.9552   -0.9284    1.0601 H   0  0  0  0  0  0  0  0  0  0  0  0
   -4.2422   -0.8564    3.2781 H   0  0  0  0  0  0  0  0  0  0  0  0
   -2.7186   -0.4935    2.8160 H   0  0  0  0  0  0  0  0  0  0  0  0
   -5.0115    1.2202    2.5079 H   0  0  0  0  0  0  0  0  0  0  0  0
   -3.7775    1.4697    3.5480 H   0  0  0  0  0  0  0  0  0  0  0  0
    0.4226    0.4226    1.5774 H   0  0  0  0  0  0  0  0  0  0  0  0
    2.4909    0.5697   -0.4909 H   0  0  0  0  0  0  0  0  0  0  0  0
    3.2147   -1.5131   -1.2147 H   0  0  0  0  0  0  0  0  0  0  0  0
    3.2147   -2.6678   -0.0600 H   0  0  0  0  0  0  0  0  0  0  0  0
    2.0600   -2.6678   -1.2147 H   0  0  0  0  0  0  0  0  0  0  0  0
    2.3646    2.5386    1.3068 H   0  0  0  0  0  0  0  0  0  0  0  0
    1.3068    2.3646    2.5386 H   0  0  0  0  0  0  0  0  0  0  0  0
    1.6575    0.6873    4.2696 H   0  0  0  0  0  0  0  0  0  0  0  0
    3.2367   -0.6824    5.4424 H   0  0  0  0  0  0  0  0  0  0  0  0
    6.4879   -1.5352    4.2166 H   0  0  0  0  0  0  0  0  0  0  0  0
    5.9348   -0.2495    2.3180 H   0  0  0  0  0  0  0  0  0  0  0  0
    4.3513    1.1184    1.1492 H   0  0  0  0  0  0  0  0  0  0  0  0
  1  2  2  0  0  0  0
  2  3  1  0  0  0  0
  3  4  1  0  0  0  0
  4  5  1  0  0  0  0
  5  6  1  0  0  0  0
  6  7  1  0  0  0  0
  7  8  1  0  0  0  0
  8  3  1  0  0  0  0
  7  9  1  0  0  0  0
  5 10  1  0  0  0  0
 10 11  1  0  0  0  0
 11 12  1  0  0  0  0
 12 13  1  0  0  0  0
 13 14  1  0  0  0  0
 14  5  1  0  0  0  0
  2 15  1  0  0  0  0
 15 16  1  0  0  0  0
 16 17  1  0  0  0  0
 17 18  2  0  0  0  0
 17 19  1  0  0  0  0
 15 20  1  0  0  0  0
 20 21  1  0  0  0  0
 21 22  1  0  0  0  0
 22 23  2  0  0  0  0
 23 24  1  0  0  0  0
 24 25  1  0  0  0  0
 24 26  2  0  0  0  0
 26 27  1  0  0  0  0
 27 21  2  0  0  0  0
  4 28  1  0  0  0  0
  4 29  1  0  0  0  0
  7 30  1  0  0  0  0
  8 31  1  0  0  0  0
  8 32  1  0  0  0  0
  9 33  1  0  0  0  0
  9 34  1  0  0  0  0
  9 35  1  0  0  0  0
 10 36  1  0  0  0  0
 10 37  1  0  0  0  0
 11 38  1  0  0  0  0
 11 39  1  0  0  0  0
 12 40  1  0  0  0  0
 12 41  1  0  0  0  0
 13 42  1  0  0  0  0
 13 43  1  0  0  0  0
 14 44  1  0  0  0  0
 14 45  1  0  0  0  0
 15 46  1  0  0  0  0
 16 47  1  0  0  0  0
 19 48  1  0  0  0  0
 19 49  1  0  0  0  0
 19 50  1  0  0  0  0
 20 51  1  0  0  0  0
 20 52  1  0  0  0  0
 22 53  1  0  0  0  0
 23 54  1  0  0  0  0
 25 55  1  0  0  0  0
 26 56  1  0  0  0  0
 27 57  1  0  0  0  0
M  END
>  <result-rank>
3

>  <similarity>
0.965

>  <query-name>
LIG_A_1101_CC(C)CC[C@]1([R*])CCCOC1_2

>  <query-smiles>
O=C(N[C@@]1(COCCC1)CCC(C)C)[C@@H](NC(=O)C)Cc2ccc(O)cc2

>  <source>
REALspace_2019-12

>  <similarity-descriptor>
1.000;0.997;0.852;0.852;0.895;0.895;0.895;0.895;0.895;1.000;1.000;1.000;1.000;1.000;1.000;0.0

>  <similarity-descriptor-smiles>
c1ccccc1;N1CC(OCC1)C;O=C;O=C;C1CCCCC1;C1CCCCC1;C1CCCCC1;C1CCCCC1;C1CCCCC1;C;N;C=O;C;C;O;

>  <reaction-name>
s_22

>  <reagent1-name>
11765530

>  <reagent1-smiles>
[R1*]N1CC2(OC(C1)C)CCCCC2

>  <reagent2-name>
17513450

>  <reagent2-smiles>
[R1*]C(=O)C(NC(=O)C)Cc1ccc(O)cc1

$$$$
s_22____7634772____17513450
          04022015103D 1   1.00000     0.00000     0
            
 58 58  0  0  0  0            999 V2000
    0.1081    3.0659    2.5193 O   0  0  0  0  0  0  0  0  0  0  0  0
    1.2902    2.8669    2.5755 C   0  0  0  0  0  0  0  0  0  0  0  0
    1.8487    1.8487    1.8487 N   0  0  0  0  0  0  0  0  0  0  0  0
    1.0000    1.0000    1.0000 C   0  0  0  0  0  0  0  0  0  0  0  0
    0.7075    1.7208   -0.3059 C   0  0  0  0  0  0  0  0  0  0  0  0
   -0.1701    0.8432   -1.1834 C   0  0  3  0  0  0  0  0  0  0  0  0
   -0.4434    1.5166   -2.4034 O   0  0  0  0  0  0  0  0  0  0  0  0
    0.7766    1.7899   -3.0768 C   0  0  0  0  0  0  0  0  0  0  0  0
   -1.4760    0.5507   -0.4626 C   0  0  0  0  0  0  0  0  0  0  0  0
   -2.1968    1.8566   -0.1701 C   0  0  0  0  0  0  0  0  0  0  0  0
   -3.5026    1.5640    0.5507 C   0  0  0  0  0  0  0  0  0  0  0  0
   -2.3535   -0.3269   -1.3402 C   0  0  0  0  0  0  0  0  0  0  0  0
   -1.6327   -1.6327   -1.6327 C   0  0  0  0  0  0  0  0  0  0  0  0
    2.1677    3.7445    3.4531 C   0  0  3  0  0  0  0  0  0  0  0  0
    1.3362    4.7547    4.1230 N   0  0  0  0  0  0  0  0  0  0  0  0
    1.2850    4.8020    5.4912 C   0  0  0  0  0  0  0  0  0  0  0  0
    1.9189    4.0186    6.1428 O   0  0  0  0  0  0  0  0  0  0  0  0
    0.4252    5.8466    6.1840 C   0  0  0  0  0  0  0  0  0  0  0  0
    3.2124    4.4372    2.5933 C   0  0  0  0  0  0  0  0  0  0  0  0
    4.0900    5.3148    3.4709 C   0  0  0  0  0  0  0  0  0  0  0  0
    5.2426    4.7808    4.0377 C   0  0  0  0  0  0  0  0  0  0  0  0
    6.0490    5.5802    4.8408 C   0  0  0  0  0  0  0  0  0  0  0  0
    5.6921    6.9059    5.0666 C   0  0  0  0  0  0  0  0  0  0  0  0
    6.4717    7.6852    5.8457 O   0  0  0  0  0  0  0  0  0  0  0  0
    4.5403    7.4447    4.5024 C   0  0  0  0  0  0  0  0  0  0  0  0
    3.7378    6.6409    3.6999 C   0  0  0  0  0  0  0  0  0  0  0  0
    2.8337    1.6829    1.8955 H   0  0  0  0  0  0  0  0  0  0  0  0
    0.1409    0.8075    1.4742 H   0  0  0  0  0  0  0  0  0  0  0  0
    1.4742    0.1409    0.8075 H   0  0  0  0  0  0  0  0  0  0  0  0
    0.2333    2.5799   -0.1134 H   0  0  0  0  0  0  0  0  0  0  0  0
    1.5666    1.9133   -0.7801 H   0  0  0  0  0  0  0  0  0  0  0  0
    0.3041   -0.0159   -1.3759 H   0  0  0  0  0  0  0  0  0  0  0  0
    0.5841    2.2641   -3.9359 H   0  0  0  0  0  0  0  0  0  0  0  0
    1.3539    2.3673   -2.4994 H   0  0  0  0  0  0  0  0  0  0  0  0
    1.2508    0.9308   -3.2692 H   0  0  0  0  0  0  0  0  0  0  0  0
   -1.2835    0.0765    0.3965 H   0  0  0  0  0  0  0  0  0  0  0  0
   -2.3892    2.3308   -1.0292 H   0  0  0  0  0  0  0  0  0  0  0  0
   -1.6194    2.4339    0.4073 H   0  0  0  0  0  0  0  0  0  0  0  0
   -3.9768    2.4232    0.7432 H   0  0  0  0  0  0  0  0  0  0  0  0
   -4.0800    0.9867   -0.0266 H   0  0  0  0  0  0  0  0  0  0  0  0
   -3.3102    1.0898    1.4098 H   0  0  0  0  0  0  0  0  0  0  0  0
   -2.5460    0.1474   -2.1993 H   0  0  0  0  0  0  0  0  0  0  0  0
   -3.2126   -0.5193   -0.8660 H   0  0  0  0  0  0  0  0  0  0  0  0
   -2.2101   -2.2101   -2.2101 H   0  0  0  0  0  0  0  0  0  0  0  0
   -0.7736   -1.4403   -2.1069 H   0  0  0  0  0  0  0  0  0  0  0  0
   -1.4403   -2.1069   -0.7736 H   0  0  0  0  0  0  0  0  0  0  0  0
    2.6235    3.1788    4.1404 H   0  0  0  0  0  0  0  0  0  0  0  0
    0.8080    5.4075    3.5801 H   0  0  0  0  0  0  0  0  0  0  0  0
   -0.0305    6.4123    5.4967 H   0  0  0  0  0  0  0  0  0  0  0  0
   -0.2621    5.3909    6.7496 H   0  0  0  0  0  0  0  0  0  0  0  0
    1.0025    6.4240    6.7613 H   0  0  0  0  0  0  0  0  0  0  0  0
    3.7780    3.7499    2.1376 H   0  0  0  0  0  0  0  0  0  0  0  0
    2.7567    5.0028    1.9060 H   0  0  0  0  0  0  0  0  0  0  0  0
    5.4901    3.8267    3.8686 H   0  0  0  0  0  0  0  0  0  0  0  0
    6.8793    5.2050    5.2528 H   0  0  0  0  0  0  0  0  0  0  0  0
    6.2192    8.6386    6.0109 H   0  0  0  0  0  0  0  0  0  0  0  0
    4.2924    8.3986    4.6719 H   0  0  0  0  0  0  0  0  0  0  0  0
    2.9076    7.0162    3.2875 H   0  0  0  0  0  0  0  0  0  0  0  0
  1  2  2  0  0  0  0
  2  3  1  0  0  0  0
  3  4  1  0  0  0  0
  4  5  1  0  0  0  0
  5  6  1  0  0  0  0
  6  7  1  0  0  0  0
  7  8  1  0  0  0  0
  6  9  1  0  0  0  0
  9 10  1  0  0  0  0
 10 11  1  0  0  0  0
  9 12  1  0  0  0  0
 12 13  1  0  0  0  0
  2 14  1  0  0  0  0
 14 15  1  0  0  0  0
 15 16  1  0  0  0  0
 16 17  2  0  0  0  0
 16 18  1  0  0  0  0
 14 19  1  0  0  0  0
 19 20  1  0  0  0  0
 20 21  1  0  0  0  0
 21 22  2  0  0  0  0
 22 23  1  0  0  0  0
 23 24  1  0  0  0  0
 23 25  2  0  0  0  0
 25 26  1  0  0  0  0
 26 20  2  0  0  0  0
  3 27  1  0  0  0  0
  4 28  1  0  0  0  0
  4 29  1  0  0  0  0
  5 30  1  0  0  0  0
  5 31  1  0  0  0  0
  6 32  1  0  0  0  0
  8 33  1  0  0  0  0
  8 34  1  0  0  0  0
  8 35  1  0  0  0  0
  9 36  1  0  0  0  0
 10 37  1  0  0  0  0
 10 38  1  0  0  0  0
 11 39  1  0  0  0  0
 11 40  1  0  0  0  0
 11 41  1  0  0  0  0
 12 42  1  0  0  0  0
 12 43  1  0  0  0  0
 13 44  1  0  0  0  0
 13 45  1  0  0  0  0
 13 46  1  0  0  0  0
 14 47  1  0  0  0  0
 15 48  1  0  0  0  0
 18 49  1  0  0  0  0
 18 50  1  0  0  0  0
 18 51  1  0  0  0  0
 19 52  1  0  0  0  0
 19 53  1  0  0  0  0
 21 54  1  0  0  0  0
 22 55  1  0  0  0  0
 24 56  1  0  0  0  0
 25 57  1  0  0  0  0
 26 58  1  0  0  0  0
M  END
>  <result-rank>
4

>  <similarity>
0.962

>  <query-name>
LIG_A_1101_CC(C)CC[C@]1([R*])CCCOC1_2

>  <query-smiles>
O=C(N[C@@]1(COCCC1)CCC(C)C)[C@@H](NC(=O)C)Cc2ccc(O)cc2

>  <source>
REALspace_2019-12

>  <similarity-descriptor>
1.000;0.895;1.000;1.000;0.968;0.968;0.974;0.974;0.0;1.000;1.000;1.000;1.000;1.000;1.000;0.053

>  <similarity-descriptor-smiles>
c1ccccc1;CCCOC;O=C;N;CC;CC;CC;CC;;C;N;C=O;C;C;O;C

>  <reaction-name>
s_22

>  <reagent1-name>
7634772

>  <reagent1-smiles>
[R1*]NCCC(OC)C(CC)CC

>  <reagent2-name>
17513450

>  <reagent2-smiles>
[R1*]C(=O)C(NC(=O)C)Cc1ccc(O)cc1

$$$$
s_22____8846486____107332
          04022015103D 1   1.00000     0.00000     0
            
 55 56  0  0  0  0            999 V2000
    2.2958   -3.1092   -4.3208 Cl  0  0  0  0  0  0  0  0  0  0  0  0
    2.5117   -1.7775   -3.1598 C   0  0  0  0  0  0  0  0  0  0  0  0
    3.2657   -1.9786   -2.0090 C   0  0  0  0  0  0  0  0  0  0  0  0
    3.4364   -0.9406   -1.0986 C   0  0  0  0  0  0  0  0  0  0  0  0
    2.8459    0.2921   -1.3561 C   0  0  0  0  0  0  0  0  0  0  0  0
    2.0917    0.4935   -2.5066 C   0  0  0  0  0  0  0  0  0  0  0  0
    1.9209   -0.5447   -3.4172 C   0  0  0  0  0  0  0  0  0  0  0  0
    3.0267    1.4309   -0.3667 C   0  0  3  0  0  0  0  0  0  0  0  0
    4.4521    1.7778   -0.2739 N   0  0  0  0  0  0  0  0  0  0  0  0
    4.8720    3.0415   -0.5957 C   0  0  0  0  0  0  0  0  0  0  0  0
    4.0761    3.8653   -0.9534 O   0  0  0  0  0  0  0  0  0  0  0  0
    6.3460    3.4001   -0.4997 C   0  0  0  0  0  0  0  0  0  0  0  0
    2.5200    1.0000    1.0000 C   0  0  0  0  0  0  0  0  0  0  0  0
    1.0000    1.0000    1.0000 C   0  0  0  0  0  0  0  0  0  0  0  0
    0.4000    1.0000   -0.0392 O   0  0  0  0  0  0  0  0  0  0  0  0
    0.3150    1.0000    2.1865 N   0  0  0  0  0  0  0  0  0  0  0  0
   -1.1543    1.0000    2.1865 C   0  0  3  0  0  0  0  0  0  0  0  0
   -1.7379    2.2106    2.8854 C   0  0  0  0  0  0  0  0  0  0  0  0
   -2.7787    1.2438    3.4144 C   0  0  3  0  0  0  0  0  0  0  0  0
   -3.1443    1.5086    4.7607 O   0  0  0  0  0  0  0  0  0  0  0  0
   -4.1184    0.5647    5.1810 C   0  0  0  0  0  0  0  0  0  0  0  0
   -4.5098    0.8481    6.6221 C   0  0  0  0  0  0  0  0  0  0  0  0
   -5.3463    0.6736    4.2917 C   0  0  0  0  0  0  0  0  0  0  0  0
   -1.7280    0.1632    3.3052 C   0  0  0  0  0  0  0  0  0  0  0  0
   -2.3123    3.2416    1.9276 C   0  0  0  0  0  0  0  0  0  0  0  0
   -0.8346    2.8343    3.9389 C   0  0  0  0  0  0  0  0  0  0  0  0
    3.6854   -2.8696   -1.8357 H   0  0  0  0  0  0  0  0  0  0  0  0
    3.9772   -1.0791   -0.2689 H   0  0  0  0  0  0  0  0  0  0  0  0
    1.6719    1.3845   -2.6797 H   0  0  0  0  0  0  0  0  0  0  0  0
    1.3799   -0.4062   -4.2468 H   0  0  0  0  0  0  0  0  0  0  0  0
    2.5092    2.2281   -0.6779 H   0  0  0  0  0  0  0  0  0  0  0  0
    5.1154    1.0913    0.0242 H   0  0  0  0  0  0  0  0  0  0  0  0
    6.8634    2.6030   -0.1885 H   0  0  0  0  0  0  0  0  0  0  0  0
    6.6793    3.6836   -1.3989 H   0  0  0  0  0  0  0  0  0  0  0  0
    6.4649    4.1497    0.1514 H   0  0  0  0  0  0  0  0  0  0  0  0
    2.8533    0.0795    1.2041 H   0  0  0  0  0  0  0  0  0  0  0  0
    2.8533    1.6370    1.6951 H   0  0  0  0  0  0  0  0  0  0  0  0
    0.8150    1.0000    3.0525 H   0  0  0  0  0  0  0  0  0  0  0  0
   -1.5599    0.8136    1.2916 H   0  0  0  0  0  0  0  0  0  0  0  0
   -3.5582    1.1134    2.8017 H   0  0  0  0  0  0  0  0  0  0  0  0
   -3.7391   -0.3581    5.1140 H   0  0  0  0  0  0  0  0  0  0  0  0
   -5.1958    0.1834    6.9181 H   0  0  0  0  0  0  0  0  0  0  0  0
   -3.7020    0.7764    7.2072 H   0  0  0  0  0  0  0  0  0  0  0  0
   -4.8892    1.7709    6.6892 H   0  0  0  0  0  0  0  0  0  0  0  0
   -6.0323    0.0089    4.5877 H   0  0  0  0  0  0  0  0  0  0  0  0
   -5.7256    1.5964    4.3588 H   0  0  0  0  0  0  0  0  0  0  0  0
   -5.0888    0.4871    3.3436 H   0  0  0  0  0  0  0  0  0  0  0  0
   -2.0706   -0.7350    3.0300 H   0  0  0  0  0  0  0  0  0  0  0  0
   -1.1373    0.0637    4.1060 H   0  0  0  0  0  0  0  0  0  0  0  0
   -1.5819    3.8483    1.6137 H   0  0  0  0  0  0  0  0  0  0  0  0
   -2.7197    2.7762    1.1419 H   0  0  0  0  0  0  0  0  0  0  0  0
   -3.0131    3.7788    2.3970 H   0  0  0  0  0  0  0  0  0  0  0  0
   -0.1853    3.4534    3.4971 H   0  0  0  0  0  0  0  0  0  0  0  0
   -1.3904    3.3462    4.5939 H   0  0  0  0  0  0  0  0  0  0  0  0
   -0.3342    2.1132    4.4182 H   0  0  0  0  0  0  0  0  0  0  0  0
  1  2  1  0  0  0  0
  2  3  1  0  0  0  0
  3  4  2  0  0  0  0
  4  5  1  0  0  0  0
  5  6  2  0  0  0  0
  6  7  1  0  0  0  0
  7  2  2  0  0  0  0
  5  8  1  0  0  0  0
  8  9  1  0  0  0  0
  9 10  1  0  0  0  0
 10 11  2  0  0  0  0
 10 12  1  0  0  0  0
  8 13  1  0  0  0  0
 13 14  1  0  0  0  0
 14 15  2  0  0  0  0
 14 16  1  0  0  0  0
 16 17  1  0  0  0  0
 17 18  1  0  0  0  0
 18 19  1  0  0  0  0
 19 20  1  0  0  0  0
 20 21  1  0  0  0  0
 21 22  1  0  0  0  0
 21 23  1  0  0  0  0
 19 24  1  0  0  0  0
 24 17  1  0  0  0  0
 18 25  1  0  0  0  0
 18 26  1  0  0  0  0
  3 27  1  0  0  0  0
  4 28  1  0  0  0  0
  6 29  1  0  0  0  0
  7 30  1  0  0  0  0
  8 31  1  0  0  0  0
  9 32  1  0  0  0  0
 12 33  1  0  0  0  0
 12 34  1  0  0  0  0
 12 35  1  0  0  0  0
 13 36  1  0  0  0  0
 13 37  1  0  0  0  0
 16 38  1  0  0  0  0
 17 39  1  0  0  0  0
 19 40  1  0  0  0  0
 21 41  1  0  0  0  0
 22 42  1  0  0  0  0
 22 43  1  0  0  0  0
 22 44  1  0  0  0  0
 23 45  1  0  0  0  0
 23 46  1  0  0  0  0
 23 47  1  0  0  0  0
 24 48  1  0  0  0  0
 24 49  1  0  0  0  0
 25 50  1  0  0  0  0
 25 51  1  0  0  0  0
 25 52  1  0  0  0  0
 26 53  1  0  0  0  0
 26 54  1  0  0  0  0
 26 55  1  0  0  0  0
M  END
>  <result-rank>
5

>  <similarity>
0.960

>  <query-name>
LIG_A_1101_CC(C)CC[C@]1([R*])CCCOC1_2

>  <query-smiles>
O=C(N[C@@]1(COCCC1)CCC(C)C)[C@@H](NC(=O)C)Cc2ccc(O)cc2

>  <source>
REALspace_2019-12

>  <similarity-descriptor>
0.968;0.986;1.000;1.000;0.995;0.995;0.883;0.0;0.0;1.000;1.000;1.000;1.000;1.000;0.0;0.067

>  <similarity-descriptor-smiles>
Clc1ccccc1;C1CC(C1C)O;C=O;N;CC;CC;C;;;CC;N;C=O;C;CC;;C

>  <reaction-name>
s_22

>  <reagent1-name>
8846486

>  <reagent1-smiles>
[R1*]NC1C(C(OC(C)C)C1)(C)C

>  <reagent2-name>
107332

>  <reagent2-smiles>
[R1*]C(=O)CC(NC(=O)C)c1ccc(Cl)cc1

$$$$
s_22____13458814____17513450
          04022015103D 1   1.00000     0.00000     0
            
 60 62  0  0  0  0            999 V2000
    3.0596    1.6786    1.9338 O   0  0  0  0  0  0  0  0  0  0  0  0
    1.8776    1.8776    1.8776 C   0  0  0  0  0  0  0  0  0  0  0  0
    1.3190    2.8957    2.6044 N   0  0  0  0  0  0  0  0  0  0  0  0
    2.1677    3.7445    3.4531 C   0  0  0  0  0  0  0  0  0  0  0  0
    2.8597    4.7880    2.5942 C   0  0  3  0  0  0  0  0  0  0  0  0
    1.9424    5.6289    1.9157 O   0  0  0  0  0  0  0  0  0  0  0  0
    2.4132    6.9627    1.8222 C   0  0  0  0  0  0  0  0  0  0  0  0
    3.7987    6.9099    2.4312 C   0  0  0  0  0  0  0  0  0  0  0  0
    3.6638    5.7743    3.4162 C   0  0  0  0  0  0  0  0  0  0  0  0
    2.5400    7.4129    0.3744 C   0  0  0  0  0  0  0  0  0  0  0  0
    1.2046    7.4597   -0.3564 C   0  0  0  0  0  0  0  0  0  0  0  0
    0.3390    8.6620    0.0119 C   0  0  0  0  0  0  0  0  0  0  0  0
   -0.6038    8.4414    1.1904 C   0  0  0  0  0  0  0  0  0  0  0  0
   -0.0100    7.6138    2.3272 C   0  0  0  0  0  0  0  0  0  0  0  0
    1.4704    7.8554    2.6121 C   0  0  0  0  0  0  0  0  0  0  0  0
    1.0000    1.0000    1.0000 C   0  0  3  0  0  0  0  0  0  0  0  0
   -0.2629    0.7171    1.6971 N   0  0  0  0  0  0  0  0  0  0  0  0
   -0.6150   -0.5766    1.9787 C   0  0  0  0  0  0  0  0  0  0  0  0
    0.1075   -1.4788    1.6563 O   0  0  0  0  0  0  0  0  0  0  0  0
   -1.9209   -0.8691    2.6995 C   0  0  0  0  0  0  0  0  0  0  0  0
    0.7075    1.7208   -0.3059 C   0  0  0  0  0  0  0  0  0  0  0  0
   -0.1701    0.8432   -1.1835 C   0  0  0  0  0  0  0  0  0  0  0  0
   -1.5540    0.9425   -1.0842 C   0  0  0  0  0  0  0  0  0  0  0  0
   -2.3610    0.1420   -1.8857 C   0  0  0  0  0  0  0  0  0  0  0  0
   -1.7726   -0.7486   -2.7781 C   0  0  0  0  0  0  0  0  0  0  0  0
   -2.5520   -1.5276   -3.5577 O   0  0  0  0  0  0  0  0  0  0  0  0
   -0.3891   -0.8520   -2.8811 C   0  0  0  0  0  0  0  0  0  0  0  0
    0.4131   -0.0489   -2.0774 C   0  0  0  0  0  0  0  0  0  0  0  0
    0.3340    3.0616    2.5576 H   0  0  0  0  0  0  0  0  0  0  0  0
    2.8550    3.1788    3.9088 H   0  0  0  0  0  0  0  0  0  0  0  0
    1.6021    4.2002    4.1404 H   0  0  0  0  0  0  0  0  0  0  0  0
    3.4568    4.3365    1.9311 H   0  0  0  0  0  0  0  0  0  0  0  0
    4.0256    7.7672    2.8935 H   0  0  0  0  0  0  0  0  0  0  0  0
    4.4926    6.7105    1.7393 H   0  0  0  0  0  0  0  0  0  0  0  0
    4.5551    5.4006    3.6728 H   0  0  0  0  0  0  0  0  0  0  0  0
    3.1712    6.0566    4.2394 H   0  0  0  0  0  0  0  0  0  0  0  0
    3.1431    6.7757   -0.1053 H   0  0  0  0  0  0  0  0  0  0  0  0
    2.9429    8.3281    0.3600 H   0  0  0  0  0  0  0  0  0  0  0  0
    0.6964    6.6269   -0.1369 H   0  0  0  0  0  0  0  0  0  0  0  0
    1.3848    7.4909   -1.3395 H   0  0  0  0  0  0  0  0  0  0  0  0
   -0.2134    8.9026   -0.7863 H   0  0  0  0  0  0  0  0  0  0  0  0
    0.9462    9.4234    0.2388 H   0  0  0  0  0  0  0  0  0  0  0  0
   -0.8616    9.3356    1.5563 H   0  0  0  0  0  0  0  0  0  0  0  0
   -1.4198    7.9710    0.8543 H   0  0  0  0  0  0  0  0  0  0  0  0
   -0.5221    7.8224    3.1603 H   0  0  0  0  0  0  0  0  0  0  0  0
   -0.1259    6.6474    2.0978 H   0  0  0  0  0  0  0  0  0  0  0  0
    1.6808    8.8074    2.3898 H   0  0  0  0  0  0  0  0  0  0  0  0
    1.6318    7.6971    3.5862 H   0  0  0  0  0  0  0  0  0  0  0  0
    1.4742    0.1409    0.8075 H   0  0  0  0  0  0  0  0  0  0  0  0
   -0.8650    1.4689    1.9658 H   0  0  0  0  0  0  0  0  0  0  0  0
   -2.3951   -0.0100    2.8919 H   0  0  0  0  0  0  0  0  0  0  0  0
   -2.4982   -1.4465    2.1221 H   0  0  0  0  0  0  0  0  0  0  0  0
   -1.7284   -1.3433    3.5586 H   0  0  0  0  0  0  0  0  0  0  0  0
    0.2333    2.5799   -0.1134 H   0  0  0  0  0  0  0  0  0  0  0  0
    1.5666    1.9133   -0.7801 H   0  0  0  0  0  0  0  0  0  0  0  0
   -1.9667    1.5862   -0.4397 H   0  0  0  0  0  0  0  0  0  0  0  0
   -3.3569    0.2061   -1.8211 H   0  0  0  0  0  0  0  0  0  0  0  0
   -2.1337   -2.1692   -4.2005 H   0  0  0  0  0  0  0  0  0  0  0  0
    0.0237   -1.4961   -3.5251 H   0  0  0  0  0  0  0  0  0  0  0  0
    1.4089   -0.1127   -2.1423 H   0  0  0  0  0  0  0  0  0  0  0  0
  1  2  2  0  0  0  0
  2  3  1  0  0  0  0
  3  4  1  0  0  0  0
  4  5  1  0  0  0  0
  5  6  1  0  0  0  0
  6  7  1  0  0  0  0
  7  8  1  0  0  0  0
  8  9  1  0  0  0  0
  9  5  1  0  0  0  0
  7 10  1  0  0  0  0
 10 11  1  0  0  0  0
 11 12  1  0  0  0  0
 12 13  1  0  0  0  0
 13 14  1  0  0  0  0
 14 15  1  0  0  0  0
 15  7  1  0  0  0  0
  2 16  1  0  0  0  0
 16 17  1  0  0  0  0
 17 18  1  0  0  0  0
 18 19  2  0  0  0  0
 18 20  1  0  0  0  0
 16 21  1  0  0  0  0
 21 22  1  0  0  0  0
 22 23  1  0  0  0  0
 23 24  2  0  0  0  0
 24 25  1  0  0  0  0
 25 26  1  0  0  0  0
 25 27  2  0  0  0  0
 27 28  1  0  0  0  0
 28 22  2  0  0  0  0
  3 29  1  0  0  0  0
  4 30  1  0  0  0  0
  4 31  1  0  0  0  0
  5 32  1  0  0  0  0
  8 33  1  0  0  0  0
  8 34  1  0  0  0  0
  9 35  1  0  0  0  0
  9 36  1  0  0  0  0
 10 37  1  0  0  0  0
 10 38  1  0  0  0  0
 11 39  1  0  0  0  0
 11 40  1  0  0  0  0
 12 41  1  0  0  0  0
 12 42  1  0  0  0  0
 13 43  1  0  0  0  0
 13 44  1  0  0  0  0
 14 45  1  0  0  0  0
 14 46  1  0  0  0  0
 15 47  1  0  0  0  0
 15 48  1  0  0  0  0
 16 49  1  0  0  0  0
 17 50  1  0  0  0  0
 20 51  1  0  0  0  0
 20 52  1  0  0  0  0
 20 53  1  0  0  0  0
 21 54  1  0  0  0  0
 21 55  1  0  0  0  0
 23 56  1  0  0  0  0
 24 57  1  0  0  0  0
 26 58  1  0  0  0  0
 27 59  1  0  0  0  0
 28 60  1  0  0  0  0
M  END
>  <result-rank>
6

>  <similarity>
0.959

>  <query-name>
LIG_A_1101_CC(C)CC[C@]1([R*])CCCOC1_2

>  <query-smiles>
O=C(N[C@@]1(COCCC1)CCC(C)C)[C@@H](NC(=O)C)Cc2ccc(O)cc2

>  <source>
REALspace_2019-12

>  <similarity-descriptor>
1.000;0.982;1.000;1.000;0.824;0.824;0.824;0.824;0.824;1.000;1.000;1.000;1.000;1.000;1.000;0.0

>  <similarity-descriptor-smiles>
c1ccccc1;CC1CCCO1;O=C;N;C1CCCCCC1;C1CCCCCC1;C1CCCCCC1;C1CCCCCC1;C1CCCCCC1;C;N;C=O;C;C;O;

>  <reaction-name>
s_22

>  <reagent1-name>
13458814

>  <reagent1-smiles>
[R1*]NCC1OC2(CC1)CCCCCC2

>  <reagent2-name>
17513450

>  <reagent2-smiles>
[R1*]C(=O)C(NC(=O)C)Cc1ccc(O)cc1

$$$$
s_22____7117056____17513450
          04022015103D 1   1.00000     0.00000     0
            
 57 59  0  0  0  0            999 V2000
   -4.1237   -1.3962    3.7674 O   0  0  0  0  0  0  0  0  0  0  0  0
   -4.1847   -0.1995    3.7015 C   0  0  0  0  0  0  0  0  0  0  0  0
   -3.0226    0.5501    3.4670 N   0  0  0  0  0  0  0  0  0  0  0  0
   -1.6989    0.0029    3.1836 C   0  0  0  0  0  0  0  0  0  0  0  0
   -1.1538    1.0000    2.1865 C   0  0  3  0  0  0  0  0  0  0  0  0
    0.3150    1.0000    2.1865 N   0  0  0  0  0  0  0  0  0  0  0  0
    1.0000    1.0000    1.0000 C   0  0  0  0  0  0  0  0  0  0  0  0
    0.4000    1.0000   -0.0392 O   0  0  0  0  0  0  0  0  0  0  0  0
    2.5200    1.0000    1.0000 C   0  0  3  0  0  0  0  0  0  0  0  0
    3.0100    1.0000   -0.3859 N   0  0  0  0  0  0  0  0  0  0  0  0
    3.7976    2.0275   -0.8340 C   0  0  0  0  0  0  0  0  0  0  0  0
    4.0875    2.9275   -0.0951 O   0  0  0  0  0  0  0  0  0  0  0  0
    4.3043    2.0275   -2.2671 C   0  0  0  0  0  0  0  0  0  0  0  0
    3.0267   -0.2411    1.7165 C   0  0  0  0  0  0  0  0  0  0  0  0
    4.5467   -0.2411    1.7165 C   0  0  0  0  0  0  0  0  0  0  0  0
    5.2311    0.3644    2.7653 C   0  0  0  0  0  0  0  0  0  0  0  0
    6.6219    0.3662    2.7699 C   0  0  0  0  0  0  0  0  0  0  0  0
    7.3116   -0.2391    1.7241 C   0  0  0  0  0  0  0  0  0  0  0  0
    8.6614   -0.2393    1.7244 O   0  0  0  0  0  0  0  0  0  0  0  0
    6.6320   -0.8457    0.6727 C   0  0  0  0  0  0  0  0  0  0  0  0
    5.2412   -0.8449    0.6734 C   0  0  0  0  0  0  0  0  0  0  0  0
   -1.7077    2.3412    2.6262 C   0  0  0  0  0  0  0  0  0  0  0  0
   -2.9320    2.0142    3.4703 C   0  0  0  0  0  0  0  0  0  0  0  0
   -5.5219    0.5041    3.8723 C   0  0  0  0  0  0  0  0  0  0  0  0
   -6.4559   -0.2599    4.7808 C   0  0  0  0  0  0  0  0  0  0  0  0
   -7.8307    0.2975    4.4600 C   0  0  0  0  0  0  0  0  0  0  0  0
   -7.7332    0.7879    3.0221 C   0  0  0  0  0  0  0  0  0  0  0  0
   -6.3126    0.4885    2.5810 C   0  0  0  0  0  0  0  0  0  0  0  0
   -1.7616   -0.9122    2.7852 H   0  0  0  0  0  0  0  0  0  0  0  0
   -1.1353   -0.0308    4.0089 H   0  0  0  0  0  0  0  0  0  0  0  0
   -1.4909    0.7799    1.2711 H   0  0  0  0  0  0  0  0  0  0  0  0
    0.8150    1.0000    3.0525 H   0  0  0  0  0  0  0  0  0  0  0  0
    2.8533    1.8165    1.4714 H   0  0  0  0  0  0  0  0  0  0  0  0
    2.7684    0.2500   -1.0017 H   0  0  0  0  0  0  0  0  0  0  0  0
    3.9710    1.2110   -2.7385 H   0  0  0  0  0  0  0  0  0  0  0  0
    3.9710    2.8440   -2.7385 H   0  0  0  0  0  0  0  0  0  0  0  0
    5.3043    2.0275   -2.2671 H   0  0  0  0  0  0  0  0  0  0  0  0
    2.6933   -0.2411    2.6593 H   0  0  0  0  0  0  0  0  0  0  0  0
    2.6933   -1.0576    1.2451 H   0  0  0  0  0  0  0  0  0  0  0  0
    4.7256    0.7963    3.5122 H   0  0  0  0  0  0  0  0  0  0  0  0
    7.1226    0.7993    3.5194 H   0  0  0  0  0  0  0  0  0  0  0  0
    9.1615   -0.6731    0.9749 H   0  0  0  0  0  0  0  0  0  0  0  0
    7.1374   -1.2771   -0.0746 H   0  0  0  0  0  0  0  0  0  0  0  0
    4.7405   -1.2783   -0.0759 H   0  0  0  0  0  0  0  0  0  0  0  0
   -1.9667    2.8905    1.8317 H   0  0  0  0  0  0  0  0  0  0  0  0
   -1.0309    2.8385    3.1690 H   0  0  0  0  0  0  0  0  0  0  0  0
   -2.8163    2.3561    4.4029 H   0  0  0  0  0  0  0  0  0  0  0  0
   -3.7536    2.4171    3.0670 H   0  0  0  0  0  0  0  0  0  0  0  0
   -5.3927    1.4401    4.1997 H   0  0  0  0  0  0  0  0  0  0  0  0
   -6.2246   -0.1014    5.7407 H   0  0  0  0  0  0  0  0  0  0  0  0
   -6.4167   -1.2399    4.5859 H   0  0  0  0  0  0  0  0  0  0  0  0
   -8.0553    1.0537    5.0746 H   0  0  0  0  0  0  0  0  0  0  0  0
   -8.5267   -0.4160    4.5413 H   0  0  0  0  0  0  0  0  0  0  0  0
   -8.3877    0.3021    2.4429 H   0  0  0  0  0  0  0  0  0  0  0  0
   -7.9126    1.7706    2.9760 H   0  0  0  0  0  0  0  0  0  0  0  0
   -6.2579   -0.4077    2.1407 H   0  0  0  0  0  0  0  0  0  0  0  0
   -5.9799    1.1903    1.9511 H   0  0  0  0  0  0  0  0  0  0  0  0
  1  2  2  0  0  0  0
  2  3  1  0  0  0  0
  3  4  1  0  0  0  0
  4  5  1  0  0  0  0
  5  6  1  0  0  0  0
  6  7  1  0  0  0  0
  7  8  2  0  0  0  0
  7  9  1  0  0  0  0
  9 10  1  0  0  0  0
 10 11  1  0  0  0  0
 11 12  2  0  0  0  0
 11 13  1  0  0  0  0
  9 14  1  0  0  0  0
 14 15  1  0  0  0  0
 15 16  1  0  0  0  0
 16 17  2  0  0  0  0
 17 18  1  0  0  0  0
 18 19  1  0  0  0  0
 18 20  2  0  0  0  0
 20 21  1  0  0  0  0
 21 15  2  0  0  0  0
  5 22  1  0  0  0  0
 22 23  1  0  0  0  0
 23  3  1  0  0  0  0
  2 24  1  0  0  0  0
 24 25  1  0  0  0  0
 25 26  1  0  0  0  0
 26 27  1  0  0  0  0
 27 28  1  0  0  0  0
 28 24  1  0  0  0  0
  4 29  1  0  0  0  0
  4 30  1  0  0  0  0
  5 31  1  0  0  0  0
  6 32  1  0  0  0  0
  9 33  1  0  0  0  0
 10 34  1  0  0  0  0
 13 35  1  0  0  0  0
 13 36  1  0  0  0  0
 13 37  1  0  0  0  0
 14 38  1  0  0  0  0
 14 39  1  0  0  0  0
 16 40  1  0  0  0  0
 17 41  1  0  0  0  0
 19 42  1  0  0  0  0
 20 43  1  0  0  0  0
 21 44  1  0  0  0  0
 22 45  1  0  0  0  0
 22 46  1  0  0  0  0
 23 47  1  0  0  0  0
 23 48  1  0  0  0  0
 24 49  1  0  0  0  0
 25 50  1  0  0  0  0
 25 51  1  0  0  0  0
 26 52  1  0  0  0  0
 26 53  1  0  0  0  0
 27 54  1  0  0  0  0
 27 55  1  0  0  0  0
 28 56  1  0  0  0  0
 28 57  1  0  0  0  0
M  END
>  <result-rank>
7

>  <similarity>
0.956

>  <query-name>
LIG_A_1101_CC(C)CC[C@]1([R*])CCCOC1_2

>  <query-smiles>
O=C(N[C@@]1(COCCC1)CCC(C)C)[C@@H](NC(=O)C)Cc2ccc(O)cc2

>  <source>
REALspace_2019-12

>  <similarity-descriptor>
1.000;0.904;1.000;1.000;0.884;0.884;0.884;0.884;0.884;1.000;1.000;1.000;1.000;1.000;1.000;0.0

>  <similarity-descriptor-smiles>
c1ccccc1;O=CN1CCCC1;C=O;N;C1CCCC1;C1CCCC1;C1CCCC1;C1CCCC1;C1CCCC1;C;N;C=O;C;C;O;

>  <reaction-name>
s_22

>  <reagent1-name>
7117056

>  <reagent1-smiles>
[R1*]NC1CN(C(=O)C2CCCC2)CC1

>  <reagent2-name>
17513450

>  <reagent2-smiles>
[R1*]C(=O)C(NC(=O)C)Cc1ccc(O)cc1

$$$$
s_22____16976658____12624298
          04022015103D 1   1.00000     0.00000     0
            
 57 57  0  0  0  0            999 V2000
    1.6375   10.9968    3.5754 Br  0  0  0  0  0  0  0  0  0  0  0  0
    2.6558    9.3846    3.1229 C   0  0  0  0  0  0  0  0  0  0  0  0
    2.3855    8.1918    3.7846 C   0  0  0  0  0  0  0  0  0  0  0  0
    3.1176    7.0562    3.4525 C   0  0  0  0  0  0  0  0  0  0  0  0
    4.1065    7.1020    2.4756 C   0  0  0  0  0  0  0  0  0  0  0  0
    4.3611    8.3056    1.8264 C   0  0  0  0  0  0  0  0  0  0  0  0
    3.6407    9.4525    2.1432 C   0  0  0  0  0  0  0  0  0  0  0  0
    2.8251    5.7501    4.1734 C   0  0  3  0  0  0  0  0  0  0  0  0
    4.0880    5.0530    4.4563 N   0  0  0  0  0  0  0  0  0  0  0  0
    4.4401    4.7714    5.7500 C   0  0  0  0  0  0  0  0  0  0  0  0
    3.7176    5.0938    6.6522 O   0  0  0  0  0  0  0  0  0  0  0  0
    5.7459    4.0506    6.0425 C   0  0  0  0  0  0  0  0  0  0  0  0
    1.9475    4.8725    3.2958 C   0  0  0  0  0  0  0  0  0  0  0  0
    1.3109    5.3618    2.4040 O   0  0  0  0  0  0  0  0  0  0  0  0
    1.8833    3.5230    3.5230 N   0  0  0  0  0  0  0  0  0  0  0  0
    1.0577    2.6974    2.6974 O   0  0  0  0  0  0  0  0  0  0  0  0
    1.8776    1.8776    1.8776 C   0  0  0  0  0  0  0  0  0  0  0  0
    1.0000    1.0000    1.0000 C   0  0  0  0  0  0  0  0  0  0  0  0
    1.8776    0.1224    0.1224 C   0  0  0  0  0  0  0  0  0  0  0  0
    1.0000   -0.7551   -0.7551 C   0  0  0  0  0  0  0  0  0  0  0  0
    1.8776   -1.6327   -1.6327 C   0  0  0  0  0  0  0  0  0  0  0  0
    1.0000   -2.5103   -2.5103 C   0  0  0  0  0  0  0  0  0  0  0  0
    0.1224   -3.3879   -1.6327 C   0  0  0  0  0  0  0  0  0  0  0  0
   -0.7551   -4.2654   -2.5103 C   0  0  0  0  0  0  0  0  0  0  0  0
   -1.6327   -5.1430   -1.6327 C   0  0  0  0  0  0  0  0  0  0  0  0
   -2.5103   -6.0206   -2.5103 C   0  0  0  0  0  0  0  0  0  0  0  0
    1.6760    8.1509    4.4882 H   0  0  0  0  0  0  0  0  0  0  0  0
    4.6275    6.2807    2.2430 H   0  0  0  0  0  0  0  0  0  0  0  0
    5.0708    8.3468    1.1232 H   0  0  0  0  0  0  0  0  0  0  0  0
    3.8285   10.3147    1.6728 H   0  0  0  0  0  0  0  0  0  0  0  0
    2.3509    5.9425    5.0325 H   0  0  0  0  0  0  0  0  0  0  0  0
    4.6901    4.7843    3.7044 H   0  0  0  0  0  0  0  0  0  0  0  0
    6.2202    3.8582    5.1834 H   0  0  0  0  0  0  0  0  0  0  0  0
    6.3233    4.6280    6.6199 H   0  0  0  0  0  0  0  0  0  0  0  0
    5.5535    3.1915    6.5167 H   0  0  0  0  0  0  0  0  0  0  0  0
    2.4139    3.1153    4.2662 H   0  0  0  0  0  0  0  0  0  0  0  0
    2.4549    1.3002    2.4549 H   0  0  0  0  0  0  0  0  0  0  0  0
    2.4549    2.4549    1.3002 H   0  0  0  0  0  0  0  0  0  0  0  0
    0.4226    1.5774    0.4226 H   0  0  0  0  0  0  0  0  0  0  0  0
    0.4226    0.4226    1.5774 H   0  0  0  0  0  0  0  0  0  0  0  0
    2.4549   -0.4549    0.6998 H   0  0  0  0  0  0  0  0  0  0  0  0
    2.4549    0.6998   -0.4549 H   0  0  0  0  0  0  0  0  0  0  0  0
    0.4226   -0.1778   -1.3325 H   0  0  0  0  0  0  0  0  0  0  0  0
    0.4226   -1.3325   -0.1778 H   0  0  0  0  0  0  0  0  0  0  0  0
    2.4549   -2.2101   -1.0554 H   0  0  0  0  0  0  0  0  0  0  0  0
    2.4549   -1.0554   -2.2101 H   0  0  0  0  0  0  0  0  0  0  0  0
    1.5774   -3.0876   -3.0876 H   0  0  0  0  0  0  0  0  0  0  0  0
    0.4226   -1.9329   -3.0876 H   0  0  0  0  0  0  0  0  0  0  0  0
   -0.4549   -2.8105   -1.0554 H   0  0  0  0  0  0  0  0  0  0  0  0
    0.6998   -3.9652   -1.0554 H   0  0  0  0  0  0  0  0  0  0  0  0
   -0.1778   -4.8428   -3.0876 H   0  0  0  0  0  0  0  0  0  0  0  0
   -1.3325   -3.6881   -3.0876 H   0  0  0  0  0  0  0  0  0  0  0  0
   -2.2101   -4.5657   -1.0554 H   0  0  0  0  0  0  0  0  0  0  0  0
   -1.0554   -5.7204   -1.0554 H   0  0  0  0  0  0  0  0  0  0  0  0
   -3.0876   -6.5979   -1.9329 H   0  0  0  0  0  0  0  0  0  0  0  0
   -3.0876   -5.4432   -3.0876 H   0  0  0  0  0  0  0  0  0  0  0  0
   -1.9329   -6.5979   -3.0876 H   0  0  0  0  0  0  0  0  0  0  0  0
  1  2  1  0  0  0  0
  2  3  1  0  0  0  0
  3  4  2  0  0  0  0
  4  5  1  0  0  0  0
  5  6  2  0  0  0  0
  6  7  1  0  0  0  0
  7  2  2  0  0  0  0
  4  8  1  0  0  0  0
  8  9  1  0  0  0  0
  9 10  1  0  0  0  0
 10 11  2  0  0  0  0
 10 12  1  0  0  0  0
  8 13  1  0  0  0  0
 13 14  2  0  0  0  0
 13 15  1  0  0  0  0
 15 16  1  0  0  0  0
 16 17  1  0  0  0  0
 17 18  1  0  0  0  0
 18 19  1  0  0  0  0
 19 20  1  0  0  0  0
 20 21  1  0  0  0  0
 21 22  1  0  0  0  0
 22 23  1  0  0  0  0
 23 24  1  0  0  0  0
 24 25  1  0  0  0  0
 25 26  1  0  0  0  0
  3 27  1  0  0  0  0
  5 28  1  0  0  0  0
  6 29  1  0  0  0  0
  7 30  1  0  0  0  0
  8 31  1  0  0  0  0
  9 32  1  0  0  0  0
 12 33  1  0  0  0  0
 12 34  1  0  0  0  0
 12 35  1  0  0  0  0
 15 36  1  0  0  0  0
 17 37  1  0  0  0  0
 17 38  1  0  0  0  0
 18 39  1  0  0  0  0
 18 40  1  0  0  0  0
 19 41  1  0  0  0  0
 19 42  1  0  0  0  0
 20 43  1  0  0  0  0
 20 44  1  0  0  0  0
 21 45  1  0  0  0  0
 21 46  1  0  0  0  0
 22 47  1  0  0  0  0
 22 48  1  0  0  0  0
 23 49  1  0  0  0  0
 23 50  1  0  0  0  0
 24 51  1  0  0  0  0
 24 52  1  0  0  0  0
 25 53  1  0  0  0  0
 25 54  1  0  0  0  0
 26 55  1  0  0  0  0
 26 56  1  0  0  0  0
 26 57  1  0  0  0  0
M  END
>  <result-rank>
8

>  <similarity>
0.954

>  <query-name>
LIG_A_1101_CC(C)CC[C@]1([R*])CCCOC1_2

>  <query-smiles>
O=C(N[C@@]1(COCCC1)CCC(C)C)[C@@H](NC(=O)C)Cc2ccc(O)cc2

>  <source>
REALspace_2019-12

>  <similarity-descriptor>
0.969;0.893;1.000;0.983;1.000;1.000;0.998;0.998;0.949;1.000;1.000;1.000;1.000;0.969;0.0;0.056

>  <similarity-descriptor-smiles>
Brc1ccccc1;OCCCC;C=O;N;C;C;CC;CC;C;C;N;C=O;C;Brc1ccccc1;;C

>  <reaction-name>
s_22

>  <reagent1-name>
16976658

>  <reagent1-smiles>
[R1*]NOCCCCCCCCCC

>  <reagent2-name>
12624298

>  <reagent2-smiles>
[R1*]C(=O)C(NC(=O)C)c1cc(Br)ccc1

$$$$
s_22____14726554____12624298
          04022015103D 1   1.00000     0.00000     0
            
 52 53  0  0  0  0            999 V2000
    8.3418    0.3852    2.2810 Br  0  0  0  0  0  0  0  0  0  0  0  0
    6.8764    0.2368    0.9881 C   0  0  0  0  0  0  0  0  0  0  0  0
    5.5791    0.0220    1.4403 C   0  0  0  0  0  0  0  0  0  0  0  0
    4.5498   -0.0818    0.5098 C   0  0  0  0  0  0  0  0  0  0  0  0
    4.8033    0.0260   -0.8534 C   0  0  0  0  0  0  0  0  0  0  0  0
    6.1084    0.2402   -1.2841 C   0  0  0  0  0  0  0  0  0  0  0  0
    7.1519    0.3471   -0.3707 C   0  0  0  0  0  0  0  0  0  0  0  0
    3.1300   -0.3164    1.0000 C   0  0  3  0  0  0  0  0  0  0  0  0
    2.4556   -1.2716    0.1091 N   0  0  0  0  0  0  0  0  0  0  0  0
    1.9801   -2.4555    0.6082 C   0  0  0  0  0  0  0  0  0  0  0  0
    2.1143   -2.7128    1.7726 O   0  0  0  0  0  0  0  0  0  0  0  0
    1.2827   -3.4432   -0.3129 C   0  0  0  0  0  0  0  0  0  0  0  0
    2.3700    1.0000    1.0000 C   0  0  0  0  0  0  0  0  0  0  0  0
    2.9700    2.0392    1.0000 O   0  0  0  0  0  0  0  0  0  0  0  0
    1.0000    1.0000    1.0000 N   0  0  0  0  0  0  0  0  0  0  0  0
    0.2650    2.2731    1.0000 C   0  0  0  0  0  0  0  0  0  0  0  0
   -1.2363    1.9940    1.0000 C   0  0  3  0  0  0  0  0  0  0  0  0
   -1.7891    1.8913   -0.2986 O   0  0  0  0  0  0  0  0  0  0  0  0
   -1.3845    0.6305   -0.7999 C   0  0  0  0  0  0  0  0  0  0  0  0
   -1.4975   -0.3042    0.3833 C   0  0  0  0  0  0  0  0  0  0  0  0
   -1.5850    0.6320    1.5690 C   0  0  0  0  0  0  0  0  0  0  0  0
   -1.9027    3.1101    1.7888 C   0  0  0  0  0  0  0  0  0  0  0  0
   -1.9134    4.3821    0.9566 C   0  0  0  0  0  0  0  0  0  0  0  0
   -3.3308    2.7114    2.1232 C   0  0  0  0  0  0  0  0  0  0  0  0
   -1.1299    3.3528    3.0750 C   0  0  0  0  0  0  0  0  0  0  0  0
    5.3889   -0.0566    2.4189 H   0  0  0  0  0  0  0  0  0  0  0  0
    4.0572   -0.0495   -1.5151 H   0  0  0  0  0  0  0  0  0  0  0  0
    6.2989    0.3184   -2.2627 H   0  0  0  0  0  0  0  0  0  0  0  0
    8.0880    0.5012   -0.6868 H   0  0  0  0  0  0  0  0  0  0  0  0
    3.1549   -0.6869    1.9285 H   0  0  0  0  0  0  0  0  0  0  0  0
    2.3438   -1.0571   -0.8612 H   0  0  0  0  0  0  0  0  0  0  0  0
    1.2579   -3.0727   -1.2414 H   0  0  0  0  0  0  0  0  0  0  0  0
    1.7827   -4.3092   -0.3129 H   0  0  0  0  0  0  0  0  0  0  0  0
    0.3488   -3.5975    0.0095 H   0  0  0  0  0  0  0  0  0  0  0  0
    0.5000    0.1340    1.0000 H   0  0  0  0  0  0  0  0  0  0  0  0
    0.5066    2.7974    0.1835 H   0  0  0  0  0  0  0  0  0  0  0  0
    0.5066    2.7974    1.8165 H   0  0  0  0  0  0  0  0  0  0  0  0
   -0.4417    0.6683   -1.1312 H   0  0  0  0  0  0  0  0  0  0  0  0
   -1.9869    0.3356   -1.5416 H   0  0  0  0  0  0  0  0  0  0  0  0
   -0.6919   -0.8927    0.4517 H   0  0  0  0  0  0  0  0  0  0  0  0
   -2.3189   -0.8703    0.3139 H   0  0  0  0  0  0  0  0  0  0  0  0
   -2.5092    0.6340    1.9509 H   0  0  0  0  0  0  0  0  0  0  0  0
   -0.9318    0.3669    2.2783 H   0  0  0  0  0  0  0  0  0  0  0  0
   -2.3517    5.1161    1.4753 H   0  0  0  0  0  0  0  0  0  0  0  0
   -0.9739    4.6444    0.7365 H   0  0  0  0  0  0  0  0  0  0  0  0
   -2.4218    4.2224    0.1104 H   0  0  0  0  0  0  0  0  0  0  0  0
   -3.7690    3.4454    2.6420 H   0  0  0  0  0  0  0  0  0  0  0  0
   -3.8392    2.5518    1.2770 H   0  0  0  0  0  0  0  0  0  0  0  0
   -3.3237    1.8746    2.6707 H   0  0  0  0  0  0  0  0  0  0  0  0
   -1.5682    4.0868    3.5938 H   0  0  0  0  0  0  0  0  0  0  0  0
   -1.1228    2.5160    3.6225 H   0  0  0  0  0  0  0  0  0  0  0  0
   -0.1904    3.6151    2.8550 H   0  0  0  0  0  0  0  0  0  0  0  0
  1  2  1  0  0  0  0
  2  3  1  0  0  0  0
  3  4  2  0  0  0  0
  4  5  1  0  0  0  0
  5  6  2  0  0  0  0
  6  7  1  0  0  0  0
  7  2  2  0  0  0  0
  4  8  1  0  0  0  0
  8  9  1  0  0  0  0
  9 10  1  0  0  0  0
 10 11  2  0  0  0  0
 10 12  1  0  0  0  0
  8 13  1  0  0  0  0
 13 14  2  0  0  0  0
 13 15  1  0  0  0  0
 15 16  1  0  0  0  0
 16 17  1  0  0  0  0
 17 18  1  0  0  0  0
 18 19  1  0  0  0  0
 19 20  1  0  0  0  0
 20 21  1  0  0  0  0
 21 17  1  0  0  0  0
 17 22  1  0  0  0  0
 22 23  1  0  0  0  0
 22 24  1  0  0  0  0
 22 25  1  0  0  0  0
  3 26  1  0  0  0  0
  5 27  1  0  0  0  0
  6 28  1  0  0  0  0
  7 29  1  0  0  0  0
  8 30  1  0  0  0  0
  9 31  1  0  0  0  0
 12 32  1  0  0  0  0
 12 33  1  0  0  0  0
 12 34  1  0  0  0  0
 15 35  1  0  0  0  0
 16 36  1  0  0  0  0
 16 37  1  0  0  0  0
 19 38  1  0  0  0  0
 19 39  1  0  0  0  0
 20 40  1  0  0  0  0
 20 41  1  0  0  0  0
 21 42  1  0  0  0  0
 21 43  1  0  0  0  0
 23 44  1  0  0  0  0
 23 45  1  0  0  0  0
 23 46  1  0  0  0  0
 24 47  1  0  0  0  0
 24 48  1  0  0  0  0
 24 49  1  0  0  0  0
 25 50  1  0  0  0  0
 25 51  1  0  0  0  0
 25 52  1  0  0  0  0
M  END
>  <result-rank>
9

>  <similarity>
0.953

>  <query-name>
LIG_A_1101_CC(C)CC[C@]1([R*])CCCOC1_2

>  <query-smiles>
O=C(N[C@@]1(COCCC1)CCC(C)C)[C@@H](NC(=O)C)Cc2ccc(O)cc2

>  <source>
REALspace_2019-12

>  <similarity-descriptor>
0.969;1.000;1.000;1.000;0.926;0.949;0.0;0.0;0.0;1.000;1.000;1.000;1.000;0.969;0.0;0.077

>  <similarity-descriptor-smiles>
Brc1ccccc1;CC1CCCO1;C=O;N;CC;C;;;;C;N;C=O;C;Brc1ccccc1;;C

>  <reaction-name>
s_22

>  <reagent1-name>
14726554

>  <reagent1-smiles>
[R1*]NCC1(OCCC1)C(C)(C)C

>  <reagent2-name>
12624298

>  <reagent2-smiles>
[R1*]C(=O)C(NC(=O)C)c1cc(Br)ccc1

$$$$
s_22____14938888____3192126
          04022015103D 1   1.00000     0.00000     0
            
 57 59  0  0  0  0            999 V2000
    2.9191   -0.2979    0.5450 O   0  0  0  0  0  0  0  0  0  0  0  0
    1.8776    0.1224    0.1224 C   0  0  0  0  0  0  0  0  0  0  0  0
    1.4795   -0.1886   -1.1510 N   0  0  0  0  0  0  0  0  0  0  0  0
    2.3282   -1.0373   -1.9997 C   0  0  0  0  0  0  0  0  0  0  0  0
    1.6615   -1.2281   -3.3543 C   0  0  3  0  0  0  0  0  0  0  0  0
    1.4447   -0.0097   -4.0483 O   0  0  0  0  0  0  0  0  0  0  0  0
    2.6756    0.4288   -4.6053 C   0  0  0  0  0  0  0  0  0  0  0  0
    3.5079   -0.8263   -4.7864 C   0  0  0  0  0  0  0  0  0  0  0  0
    2.5452   -1.9185   -4.3740 C   0  0  0  0  0  0  0  0  0  0  0  0
    0.3592   -1.9880   -3.1573 C   0  0  0  0  0  0  0  0  0  0  0  0
   -0.2754   -2.3181   -4.4767 C   0  0  0  0  0  0  0  0  0  0  0  0
   -0.8355   -1.2111   -3.6305 C   0  0  0  0  0  0  0  0  0  0  0  0
    1.0000    1.0000    1.0000 C   0  0  0  0  0  0  0  0  0  0  0  0
    1.8776    1.8776    1.8776 C   0  0  3  0  0  0  0  0  0  0  0  0
    1.0385    2.5935    2.8494 N   0  0  0  0  0  0  0  0  0  0  0  0
    1.2401    2.4132    4.1924 C   0  0  0  0  0  0  0  0  0  0  0  0
    2.1015    1.6708    4.5755 O   0  0  0  0  0  0  0  0  0  0  0  0
    0.3725    3.1535    5.1972 C   0  0  0  0  0  0  0  0  0  0  0  0
    2.6181    2.8827    1.0098 C   0  0  0  0  0  0  0  0  0  0  0  0
    3.9722    2.7066    0.7427 C   0  0  0  0  0  0  0  0  0  0  0  0
    4.6440    1.6491    1.2466 O   0  0  0  0  0  0  0  0  0  0  0  0
    6.0504    1.5542    1.0751 C   0  0  0  0  0  0  0  0  0  0  0  0
    6.5559    0.2798    1.7314 C   0  0  0  0  0  0  0  0  0  0  0  0
    4.6500    3.6264   -0.0513 C   0  0  0  0  0  0  0  0  0  0  0  0
    3.9732    4.7221   -0.5785 C   0  0  0  0  0  0  0  0  0  0  0  0
    2.6190    4.8974   -0.3117 C   0  0  0  0  0  0  0  0  0  0  0  0
    1.9416    3.9774    0.4819 C   0  0  0  0  0  0  0  0  0  0  0  0
    0.6116    0.1617   -1.5032 H   0  0  0  0  0  0  0  0  0  0  0  0
    2.4536   -1.9275   -1.5616 H   0  0  0  0  0  0  0  0  0  0  0  0
    3.2183   -0.5992   -2.1251 H   0  0  0  0  0  0  0  0  0  0  0  0
    3.1333    1.0651   -3.9843 H   0  0  0  0  0  0  0  0  0  0  0  0
    2.5211    0.8759   -5.4863 H   0  0  0  0  0  0  0  0  0  0  0  0
    4.3148   -0.8135   -4.1958 H   0  0  0  0  0  0  0  0  0  0  0  0
    3.7934   -0.9365   -5.7385 H   0  0  0  0  0  0  0  0  0  0  0  0
    2.0095   -2.2391   -5.1552 H   0  0  0  0  0  0  0  0  0  0  0  0
    3.0315   -2.6901   -3.9641 H   0  0  0  0  0  0  0  0  0  0  0  0
    0.2662   -2.6222   -2.3897 H   0  0  0  0  0  0  0  0  0  0  0  0
   -0.7860   -3.1709   -4.5865 H   0  0  0  0  0  0  0  0  0  0  0  0
    0.2021   -2.1035   -5.3287 H   0  0  0  0  0  0  0  0  0  0  0  0
   -0.7309   -0.2593   -3.9189 H   0  0  0  0  0  0  0  0  0  0  0  0
   -1.7190   -1.3266   -3.1766 H   0  0  0  0  0  0  0  0  0  0  0  0
    0.4226    0.4226    1.5774 H   0  0  0  0  0  0  0  0  0  0  0  0
    0.4226    1.5774    0.4226 H   0  0  0  0  0  0  0  0  0  0  0  0
    2.5386    1.3068    2.3646 H   0  0  0  0  0  0  0  0  0  0  0  0
    0.3207    3.2122    2.5301 H   0  0  0  0  0  0  0  0  0  0  0  0
   -0.2886    3.7242    4.7102 H   0  0  0  0  0  0  0  0  0  0  0  0
   -0.1145    2.4924    5.7680 H   0  0  0  0  0  0  0  0  0  0  0  0
    0.9499    3.7308    5.7746 H   0  0  0  0  0  0  0  0  0  0  0  0
    6.4920    2.3451    1.4987 H   0  0  0  0  0  0  0  0  0  0  0  0
    6.2666    1.5348    0.0989 H   0  0  0  0  0  0  0  0  0  0  0  0
    7.5464    0.2129    1.6106 H   0  0  0  0  0  0  0  0  0  0  0  0
    6.3397    0.2991    2.7076 H   0  0  0  0  0  0  0  0  0  0  0  0
    6.1143   -0.5111    1.3078 H   0  0  0  0  0  0  0  0  0  0  0  0
    5.6233    3.5002   -0.2430 H   0  0  0  0  0  0  0  0  0  0  0  0
    4.4602    5.3833   -1.1491 H   0  0  0  0  0  0  0  0  0  0  0  0
    2.1327    5.6848   -0.6905 H   0  0  0  0  0  0  0  0  0  0  0  0
    0.9681    4.1031    0.6729 H   0  0  0  0  0  0  0  0  0  0  0  0
  1  2  2  0  0  0  0
  2  3  1  0  0  0  0
  3  4  1  0  0  0  0
  4  5  1  0  0  0  0
  5  6  1  0  0  0  0
  6  7  1  0  0  0  0
  7  8  1  0  0  0  0
  8  9  1  0  0  0  0
  9  5  1  0  0  0  0
  5 10  1  0  0  0  0
 10 11  1  0  0  0  0
 11 12  1  0  0  0  0
 12 10  1  0  0  0  0
  2 13  1  0  0  0  0
 13 14  1  0  0  0  0
 14 15  1  0  0  0  0
 15 16  1  0  0  0  0
 16 17  2  0  0  0  0
 16 18  1  0  0  0  0
 14 19  1  0  0  0  0
 19 20  1  0  0  0  0
 20 21  1  0  0  0  0
 21 22  1  0  0  0  0
 22 23  1  0  0  0  0
 20 24  2  0  0  0  0
 24 25  1  0  0  0  0
 25 26  2  0  0  0  0
 26 27  1  0  0  0  0
 27 19  2  0  0  0  0
  3 28  1  0  0  0  0
  4 29  1  0  0  0  0
  4 30  1  0  0  0  0
  7 31  1  0  0  0  0
  7 32  1  0  0  0  0
  8 33  1  0  0  0  0
  8 34  1  0  0  0  0
  9 35  1  0  0  0  0
  9 36  1  0  0  0  0
 10 37  1  0  0  0  0
 11 38  1  0  0  0  0
 11 39  1  0  0  0  0
 12 40  1  0  0  0  0
 12 41  1  0  0  0  0
 13 42  1  0  0  0  0
 13 43  1  0  0  0  0
 14 44  1  0  0  0  0
 15 45  1  0  0  0  0
 18 46  1  0  0  0  0
 18 47  1  0  0  0  0
 18 48  1  0  0  0  0
 22 49  1  0  0  0  0
 22 50  1  0  0  0  0
 23 51  1  0  0  0  0
 23 52  1  0  0  0  0
 23 53  1  0  0  0  0
 24 54  1  0  0  0  0
 25 55  1  0  0  0  0
 26 56  1  0  0  0  0
 27 57  1  0  0  0  0
M  END
>  <result-rank>
10

>  <similarity>
0.953

>  <query-name>
LIG_A_1101_CC(C)CC[C@]1([R*])CCCOC1_2

>  <query-smiles>
O=C(N[C@@]1(COCCC1)CCC(C)C)[C@@H](NC(=O)C)Cc2ccc(O)cc2

>  <source>
REALspace_2019-12

>  <similarity-descriptor>
1.000;1.000;1.000;1.000;0.900;0.900;0.900;0.0;0.0;1.000;1.000;1.000;1.000;1.000;0.704;0.143

>  <similarity-descriptor-smiles>
c1ccccc1;CC1CCCO1;O=C;N;C1CC1;C1CC1;C1CC1;;;CC;N;C=O;C;CC;O;C.C

>  <reaction-name>
s_22

>  <reagent1-name>
14938888

>  <reagent1-smiles>
[R1*]NCC1(OCCC1)C2CC2

>  <reagent2-name>
3192126

>  <reagent2-smiles>
[R1*]C(=O)CC(NC(=O)C)c1c(OCC)cccc1

$$$$
s_22____15265870____16887748
          04022015103D 1   1.00000     0.00000     0
            
 64 66  0  0  0  0            999 V2000
    3.9272   -0.8352    0.7118 O   0  0  0  0  0  0  0  0  0  0  0  0
    2.9767   -0.2411    0.2835 C   0  0  0  0  0  0  0  0  0  0  0  0
    2.3481   -0.6814   -0.8514 N   0  0  0  0  0  0  0  0  0  0  0  0
    2.8381   -1.8817   -1.5444 C   0  0  0  0  0  0  0  0  0  0  0  0
    2.3317   -3.1221   -0.8282 C   0  0  3  0  0  0  0  0  0  0  0  0
    2.7866   -3.1621    0.5277 O   0  0  0  0  0  0  0  0  0  0  0  0
    1.8041   -3.7587    1.3454 C   0  0  0  0  0  0  0  0  0  0  0  0
    0.7171   -4.2241    0.3879 C   0  0  3  0  0  0  0  0  0  0  0  0
    0.8428   -3.0645   -0.5681 C   0  0  0  0  0  0  0  0  0  0  0  0
    1.0279   -5.5868   -0.2175 C   0  0  0  0  0  0  0  0  0  0  0  0
    2.4420   -5.6600   -0.7763 C   0  0  0  0  0  0  0  0  0  0  0  0
    2.7903   -4.3897   -1.5381 C   0  0  0  0  0  0  0  0  0  0  0  0
   -0.6471   -4.2419    1.0621 C   0  0  0  0  0  0  0  0  0  0  0  0
    2.4700    1.0000    1.0000 C   0  0  3  0  0  0  0  0  0  0  0  0
    1.0000    1.0000    1.0000 N   0  0  0  0  0  0  0  0  0  0  0  0
    0.3150    1.0000    2.1865 C   0  0  0  0  0  0  0  0  0  0  0  0
    0.9150    1.0000    3.2257 O   0  0  0  0  0  0  0  0  0  0  0  0
   -1.2050    1.0000    2.1865 C   0  0  0  0  0  0  0  0  0  0  0  0
   -1.6783    1.0000    3.5252 O   0  0  0  0  0  0  0  0  0  0  0  0
   -3.0983    1.0000    3.5252 C   0  0  0  0  0  0  0  0  0  0  0  0
   -3.6050    1.0000    4.9583 C   0  0  0  0  0  0  0  0  0  0  0  0
   -3.6050    2.2411    2.8087 C   0  0  0  0  0  0  0  0  0  0  0  0
    2.9767    2.2411    0.2835 C   0  0  0  0  0  0  0  0  0  0  0  0
    2.4700    3.4822    1.0000 C   0  0  0  0  0  0  0  0  0  0  0  0
    3.2306    4.0410    2.0218 C   0  0  0  0  0  0  0  0  0  0  0  0
    2.7714    5.1770    2.6798 C   0  0  0  0  0  0  0  0  0  0  0  0
    1.5555    5.7409    2.3064 C   0  0  0  0  0  0  0  0  0  0  0  0
    1.1058    6.8432    2.9425 O   0  0  0  0  0  0  0  0  0  0  0  0
    0.7907    5.1858    1.2854 C   0  0  0  0  0  0  0  0  0  0  0  0
    1.2550    4.0500    0.6306 C   0  0  0  0  0  0  0  0  0  0  0  0
    1.5560   -0.1864   -1.2083 H   0  0  0  0  0  0  0  0  0  0  0  0
    3.8381   -1.8817   -1.5444 H   0  0  0  0  0  0  0  0  0  0  0  0
    2.5048   -1.8817   -2.4872 H   0  0  0  0  0  0  0  0  0  0  0  0
    1.4374   -3.0931    1.9954 H   0  0  0  0  0  0  0  0  0  0  0  0
    2.1878   -4.5356    1.8446 H   0  0  0  0  0  0  0  0  0  0  0  0
    0.3116   -3.2090   -1.4029 H   0  0  0  0  0  0  0  0  0  0  0  0
    0.5704   -2.2002   -0.1452 H   0  0  0  0  0  0  0  0  0  0  0  0
    0.3797   -5.7655   -0.9577 H   0  0  0  0  0  0  0  0  0  0  0  0
    0.9253   -6.2848    0.4912 H   0  0  0  0  0  0  0  0  0  0  0  0
    3.0871   -5.7762   -0.0210 H   0  0  0  0  0  0  0  0  0  0  0  0
    2.5095   -6.4422   -1.3956 H   0  0  0  0  0  0  0  0  0  0  0  0
    3.7829   -4.3491   -1.6522 H   0  0  0  0  0  0  0  0  0  0  0  0
    2.3527   -4.4274   -2.4364 H   0  0  0  0  0  0  0  0  0  0  0  0
   -1.3378   -4.5513    0.4085 H   0  0  0  0  0  0  0  0  0  0  0  0
   -0.6246   -4.8655    1.8435 H   0  0  0  0  0  0  0  0  0  0  0  0
   -0.8752   -3.3207    1.3772 H   0  0  0  0  0  0  0  0  0  0  0  0
    2.8033    1.0000    1.9428 H   0  0  0  0  0  0  0  0  0  0  0  0
    0.5000    1.0000    0.1340 H   0  0  0  0  0  0  0  0  0  0  0  0
   -1.5383    1.8165    1.7151 H   0  0  0  0  0  0  0  0  0  0  0  0
   -1.5383    0.1835    1.7151 H   0  0  0  0  0  0  0  0  0  0  0  0
   -3.4317    0.1835    3.0538 H   0  0  0  0  0  0  0  0  0  0  0  0
   -4.6050    1.0000    4.9583 H   0  0  0  0  0  0  0  0  0  0  0  0
   -3.2717    0.1835    5.4297 H   0  0  0  0  0  0  0  0  0  0  0  0
   -3.2717    1.8165    5.4297 H   0  0  0  0  0  0  0  0  0  0  0  0
   -4.6050    2.2411    2.8087 H   0  0  0  0  0  0  0  0  0  0  0  0
   -3.2717    3.0576    3.2801 H   0  0  0  0  0  0  0  0  0  0  0  0
   -3.2717    2.2411    1.8659 H   0  0  0  0  0  0  0  0  0  0  0  0
    3.9767    2.2411    0.2835 H   0  0  0  0  0  0  0  0  0  0  0  0
    2.6433    2.2411   -0.6593 H   0  0  0  0  0  0  0  0  0  0  0  0
    4.1034    3.6279    2.2820 H   0  0  0  0  0  0  0  0  0  0  0  0
    3.3111    5.5856    3.4158 H   0  0  0  0  0  0  0  0  0  0  0  0
    0.2325    7.2521    2.6777 H   0  0  0  0  0  0  0  0  0  0  0  0
   -0.0823    5.5984    1.0255 H   0  0  0  0  0  0  0  0  0  0  0  0
    0.7154    3.6416   -0.1057 H   0  0  0  0  0  0  0  0  0  0  0  0
  1  2  2  0  0  0  0
  2  3  1  0  0  0  0
  3  4  1  0  0  0  0
  4  5  1  0  0  0  0
  5  6  1  0  0  0  0
  6  7  1  0  0  0  0
  7  8  1  0  0  0  0
  8  9  1  0  0  0  0
  9  5  1  0  0  0  0
  8 10  1  0  0  0  0
 10 11  1  0  0  0  0
 11 12  1  0  0  0  0
 12  5  1  0  0  0  0
  8 13  1  0  0  0  0
  2 14  1  0  0  0  0
 14 15  1  0  0  0  0
 15 16  1  0  0  0  0
 16 17  2  0  0  0  0
 16 18  1  0  0  0  0
 18 19  1  0  0  0  0
 19 20  1  0  0  0  0
 20 21  1  0  0  0  0
 20 22  1  0  0  0  0
 14 23  1  0  0  0  0
 23 24  1  0  0  0  0
 24 25  1  0  0  0  0
 25 26  2  0  0  0  0
 26 27  1  0  0  0  0
 27 28  1  0  0  0  0
 27 29  2  0  0  0  0
 29 30  1  0  0  0  0
 30 24  2  0  0  0  0
  3 31  1  0  0  0  0
  4 32  1  0  0  0  0
  4 33  1  0  0  0  0
  7 34  1  0  0  0  0
  7 35  1  0  0  0  0
  9 36  1  0  0  0  0
  9 37  1  0  0  0  0
 10 38  1  0  0  0  0
 10 39  1  0  0  0  0
 11 40  1  0  0  0  0
 11 41  1  0  0  0  0
 12 42  1  0  0  0  0
 12 43  1  0  0  0  0
 13 44  1  0  0  0  0
 13 45  1  0  0  0  0
 13 46  1  0  0  0  0
 14 47  1  0  0  0  0
 15 48  1  0  0  0  0
 18 49  1  0  0  0  0
 18 50  1  0  0  0  0
 20 51  1  0  0  0  0
 21 52  1  0  0  0  0
 21 53  1  0  0  0  0
 21 54  1  0  0  0  0
 22 55  1  0  0  0  0
 22 56  1  0  0  0  0
 22 57  1  0  0  0  0
 23 58  1  0  0  0  0
 23 59  1  0  0  0  0
 25 60  1  0  0  0  0
 26 61  1  0  0  0  0
 28 62  1  0  0  0  0
 29 63  1  0  0  0  0
 30 64  1  0  0  0  0
M  END
>  <result-rank>
11

>  <similarity>
0.953

>  <query-name>
LIG_A_1101_CC(C)CC[C@]1([R*])CCCOC1_2

>  <query-smiles>
O=C(N[C@@]1(COCCC1)CCC(C)C)[C@@H](NC(=O)C)Cc2ccc(O)cc2

>  <source>
REALspace_2019-12

>  <similarity-descriptor>
1.000;0.996;1.000;1.000;0.894;0.894;0.894;0.894;0.0;1.000;1.000;1.000;0.956;1.000;1.000;0.235

>  <similarity-descriptor-smiles>
c1ccccc1;CC1CC(CO1)C;O=C;N;C1CCCCC1;C1CCCCC1;C1CCCCC1;C1CCCCC1;;C;N;C=O;C;C;O;O.C.C.C

>  <reaction-name>
s_22

>  <reagent1-name>
15265870

>  <reagent1-smiles>
[R1*]NCC12OCC(C1)(CCC2)C

>  <reagent2-name>
16887748

>  <reagent2-smiles>
[R1*]C(=O)C(NC(=O)COC(C)C)Cc1ccc(O)cc1

$$$$
s_2708____11569280____16638094
          04022015103D 1   1.00000     0.00000     0
            
 63 64  0  0  0  0            999 V2000
    2.8671   -5.1044    1.5068 F   0  0  0  0  0  0  0  0  0  0  0  0
    2.7102   -3.9439    0.8758 C   0  0  0  0  0  0  0  0  0  0  0  0
    3.8192   -3.2813    0.3599 C   0  0  0  0  0  0  0  0  0  0  0  0
    3.6474   -2.0676   -0.2979 C   0  0  0  0  0  0  0  0  0  0  0  0
    2.3710   -1.5318   -0.4321 C   0  0  0  0  0  0  0  0  0  0  0  0
    1.2657   -2.1989    0.0852 C   0  0  0  0  0  0  0  0  0  0  0  0
    1.4313   -3.4128    0.7436 C   0  0  0  0  0  0  0  0  0  0  0  0
    2.1902   -0.2055   -1.1517 C   0  0  0  0  0  0  0  0  0  0  0  0
    2.9767    0.8751   -0.4276 C   0  0  3  0  0  0  0  0  0  0  0  0
    2.7959    2.2017   -1.1473 C   0  0  0  0  0  0  0  0  0  0  0  0
    1.7039    2.5448   -1.5078 O   0  0  0  0  0  0  0  0  0  0  0  0
    3.8795    3.0056   -1.3844 N   0  0  0  0  0  0  0  0  0  0  0  0
    3.6865    4.4358   -1.6639 C   0  0  0  0  0  0  0  0  0  0  0  0
    5.2353    2.4380   -1.3593 C   0  0  0  0  0  0  0  0  0  0  0  0
    2.4700    1.0000    1.0000 C   0  0  0  0  0  0  0  0  0  0  0  0
    1.0000    1.0000    1.0000 N   0  0  0  0  0  0  0  0  0  0  0  0
    0.3150    1.0000    2.1865 C   0  0  0  0  0  0  0  0  0  0  0  0
    0.9150    1.0000    3.2257 O   0  0  0  0  0  0  0  0  0  0  0  0
   -1.0863    1.0000    2.1865 N   0  0  0  0  0  0  0  0  0  0  0  0
   -1.8490    1.0000    0.9296 C   0  0  3  0  0  0  0  0  0  0  0  0
   -2.2105   -0.4397    0.6002 C   0  0  0  0  0  0  0  0  0  0  0  0
   -3.0021   -0.4793   -0.6969 C   0  0  0  0  0  0  0  0  0  0  0  0
   -2.1610    0.1020   -1.8216 C   0  0  0  0  0  0  0  0  0  0  0  0
   -3.3634   -1.9185   -1.0262 C   0  0  0  0  0  0  0  0  0  0  0  0
   -3.1210    1.8167    1.1159 C   0  0  0  0  0  0  0  0  0  0  0  0
   -2.8986    3.1636    1.7910 C   0  0  0  0  0  0  0  0  0  0  0  0
   -3.1130    3.1241    3.1998 O   0  0  0  0  0  0  0  0  0  0  0  0
   -2.1331    2.4163    3.9557 C   0  0  0  0  0  0  0  0  0  0  0  0
   -1.8183    1.0085    3.4643 C   0  0  0  0  0  0  0  0  0  0  0  0
    4.7331   -3.6744    0.4611 H   0  0  0  0  0  0  0  0  0  0  0  0
    4.4378   -1.5828   -0.6725 H   0  0  0  0  0  0  0  0  0  0  0  0
    0.3519   -1.8057   -0.0162 H   0  0  0  0  0  0  0  0  0  0  0  0
    0.6407   -3.8979    1.1173 H   0  0  0  0  0  0  0  0  0  0  0  0
    1.2205    0.0386   -1.1623 H   0  0  0  0  0  0  0  0  0  0  0  0
    2.5235   -0.2876   -2.0909 H   0  0  0  0  0  0  0  0  0  0  0  0
    3.9464    0.6311   -0.4170 H   0  0  0  0  0  0  0  0  0  0  0  0
    4.5754    4.8694   -1.8122 H   0  0  0  0  0  0  0  0  0  0  0  0
    3.1229    4.5423   -2.4831 H   0  0  0  0  0  0  0  0  0  0  0  0
    3.2300    4.8687   -0.8866 H   0  0  0  0  0  0  0  0  0  0  0  0
    5.9018    3.1584   -1.5513 H   0  0  0  0  0  0  0  0  0  0  0  0
    5.4167    2.0481   -0.4565 H   0  0  0  0  0  0  0  0  0  0  0  0
    5.3096    1.7216   -2.0529 H   0  0  0  0  0  0  0  0  0  0  0  0
    2.8033    0.2277    1.5408 H   0  0  0  0  0  0  0  0  0  0  0  0
    2.8033    1.8545    1.3984 H   0  0  0  0  0  0  0  0  0  0  0  0
    0.5000    1.0000    0.1340 H   0  0  0  0  0  0  0  0  0  0  0  0
   -1.2961    1.3909    0.1938 H   0  0  0  0  0  0  0  0  0  0  0  0
   -2.7638   -0.8221    1.3401 H   0  0  0  0  0  0  0  0  0  0  0  0
   -1.3742   -0.9781    0.4968 H   0  0  0  0  0  0  0  0  0  0  0  0
   -3.8384    0.0591   -0.5935 H   0  0  0  0  0  0  0  0  0  0  0  0
   -2.6818    0.0760   -2.6750 H   0  0  0  0  0  0  0  0  0  0  0  0
   -1.9233    1.0489   -1.6050 H   0  0  0  0  0  0  0  0  0  0  0  0
   -1.3247   -0.4364   -1.9250 H   0  0  0  0  0  0  0  0  0  0  0  0
   -3.8842   -1.9445   -1.8795 H   0  0  0  0  0  0  0  0  0  0  0  0
   -2.5271   -2.4569   -1.1295 H   0  0  0  0  0  0  0  0  0  0  0  0
   -3.9168   -2.3009   -0.2862 H   0  0  0  0  0  0  0  0  0  0  0  0
   -3.7567    1.2854    1.6759 H   0  0  0  0  0  0  0  0  0  0  0  0
   -3.5252    1.9790    0.2158 H   0  0  0  0  0  0  0  0  0  0  0  0
   -1.9570    3.4538    1.6202 H   0  0  0  0  0  0  0  0  0  0  0  0
   -3.5299    3.8282    1.3913 H   0  0  0  0  0  0  0  0  0  0  0  0
   -2.4608    2.3479    4.8980 H   0  0  0  0  0  0  0  0  0  0  0  0
   -1.2856    2.9467    3.9352 H   0  0  0  0  0  0  0  0  0  0  0  0
   -1.2615    0.5463    4.1545 H   0  0  0  0  0  0  0  0  0  0  0  0
   -2.6783    0.5128    3.3431 H   0  0  0  0  0  0  0  0  0  0  0  0
  1  2  1  0  0  0  0
  2  3  1  0  0  0  0
  3  4  2  0  0  0  0
  4  5  1  0  0  0  0
  5  6  2  0  0  0  0
  6  7  1  0  0  0  0
  7  2  2  0  0  0  0
  5  8  1  0  0  0  0
  8  9  1  0  0  0  0
  9 10  1  0  0  0  0
 10 11  2  0  0  0  0
 10 12  1  0  0  0  0
 12 13  1  0  0  0  0
 12 14  1  0  0  0  0
  9 15  1  0  0  0  0
 15 16  1  0  0  0  0
 16 17  1  0  0  0  0
 17 18  2  0  0  0  0
 17 19  1  0  0  0  0
 19 20  1  0  0  0  0
 20 21  1  0  0  0  0
 21 22  1  0  0  0  0
 22 23  1  0  0  0  0
 22 24  1  0  0  0  0
 20 25  1  0  0  0  0
 25 26  1  0  0  0  0
 26 27  1  0  0  0  0
 27 28  1  0  0  0  0
 28 29  1  0  0  0  0
 29 19  1  0  0  0  0
  3 30  1  0  0  0  0
  4 31  1  0  0  0  0
  6 32  1  0  0  0  0
  7 33  1  0  0  0  0
  8 34  1  0  0  0  0
  8 35  1  0  0  0  0
  9 36  1  0  0  0  0
 13 37  1  0  0  0  0
 13 38  1  0  0  0  0
 13 39  1  0  0  0  0
 14 40  1  0  0  0  0
 14 41  1  0  0  0  0
 14 42  1  0  0  0  0
 15 43  1  0  0  0  0
 15 44  1  0  0  0  0
 16 45  1  0  0  0  0
 20 46  1  0  0  0  0
 21 47  1  0  0  0  0
 21 48  1  0  0  0  0
 22 49  1  0  0  0  0
 23 50  1  0  0  0  0
 23 51  1  0  0  0  0
 23 52  1  0  0  0  0
 24 53  1  0  0  0  0
 24 54  1  0  0  0  0
 24 55  1  0  0  0  0
 25 56  1  0  0  0  0
 25 57  1  0  0  0  0
 26 58  1  0  0  0  0
 26 59  1  0  0  0  0
 28 60  1  0  0  0  0
 28 61  1  0  0  0  0
 29 62  1  0  0  0  0
 29 63  1  0  0  0  0
M  END
>  <result-rank>
12

>  <similarity>
0.952

>  <query-name>
LIG_A_1101_CC(C)CC[C@]1([R*])CCCOC1_2

>  <query-smiles>
O=C(N[C@@]1(COCCC1)CCC(C)C)[C@@H](NC(=O)C)Cc2ccc(O)cc2

>  <source>
REALspace_2019-12

>  <similarity-descriptor>
0.983;0.989;0.857;0.857;0.989;1.000;1.000;1.000;1.000;0.824;0.824;1.000;0.977;1.000;0.0;0.067

>  <similarity-descriptor-smiles>
Fc1ccccc1;N1CCOCCC1;C=O;C=O;N1CCOCCC1;C;C;C;C;CCN;CCN;C=O;NC;C;;C

>  <reaction-name>
s_2708

>  <reagent1-name>
11569280

>  <reagent1-smiles>
[R1*]C(=O)NCC(C(=O)N(C)C)Cc1ccc(F)cc1

>  <reagent2-name>
16638094

>  <reagent2-smiles>
[R1*]N1C(CC(C)C)CCOCC1

$$$$
s_22____2081052____16717358
          04022015103D 1   1.00000     0.00000     0
            
 66 67  0  0  0  0            999 V2000
    0.4000    1.0000   -0.0392 O   0  0  0  0  0  0  0  0  0  0  0  0
    1.0000    1.0000    1.0000 C   0  0  0  0  0  0  0  0  0  0  0  0
    0.3015    1.0000    2.2099 N   0  0  0  0  0  0  0  0  0  0  0  0
    1.0758    1.0131    3.4619 C   0  0  0  0  0  0  0  0  0  0  0  0
    0.3669    0.2598    4.5787 C   0  0  0  0  0  0  0  0  0  0  0  0
   -1.1117    0.6106    4.6671 C   0  0  0  0  0  0  0  0  0  0  0  0
   -1.6925   -0.2023    5.6770 O   0  0  0  0  0  0  0  0  0  0  0  0
   -3.1077   -0.1164    5.5982 C   0  0  0  0  0  0  0  0  0  0  0  0
   -3.7291   -0.9863    6.6787 C   0  0  0  0  0  0  0  0  0  0  0  0
   -5.2439   -0.8943    6.5943 C   0  0  0  0  0  0  0  0  0  0  0  0
   -5.8653   -1.7642    7.6749 C   0  0  0  0  0  0  0  0  0  0  0  0
   -5.6758    0.5492    6.7953 C   0  0  0  0  0  0  0  0  0  0  0  0
   -1.7660    0.2275    3.3466 C   0  0  0  0  0  0  0  0  0  0  0  0
   -1.1698    0.9823    2.1667 C   0  0  0  0  0  0  0  0  0  0  0  0
    2.5200    1.0000    1.0000 C   0  0  3  0  0  0  0  0  0  0  0  0
    3.0100    0.4143   -0.2561 N   0  0  0  0  0  0  0  0  0  0  0  0
    3.7976   -0.7063   -0.2279 C   0  0  0  0  0  0  0  0  0  0  0  0
    4.0875   -1.2097    0.8221 O   0  0  0  0  0  0  0  0  0  0  0  0
    4.3043   -1.3120   -1.5267 C   0  0  0  0  0  0  0  0  0  0  0  0
    5.1210   -2.4974   -1.2288 N   0  0  0  0  0  0  0  0  0  0  0  0
    5.6880   -3.2129   -2.2503 C   0  0  0  0  0  0  0  0  0  0  0  0
    5.5179   -2.8720   -3.3882 O   0  0  0  0  0  0  0  0  0  0  0  0
    6.5324   -4.4386   -1.9423 C   0  0  0  0  0  0  0  0  0  0  0  0
    3.0267    2.4276    1.1249 C   0  0  0  0  0  0  0  0  0  0  0  0
    4.4439    2.4160    1.6744 C   0  0  0  0  0  0  0  0  0  0  0  0
    4.6450    2.4672    3.0498 C   0  0  0  0  0  0  0  0  0  0  0  0
    5.9400    2.4561    3.5572 C   0  0  0  0  0  0  0  0  0  0  0  0
    7.0189    2.3933    2.6810 C   0  0  0  0  0  0  0  0  0  0  0  0
    8.2773    2.3827    3.1692 O   0  0  0  0  0  0  0  0  0  0  0  0
    6.8233    2.3423    1.3046 C   0  0  0  0  0  0  0  0  0  0  0  0
    5.5262    2.3533    0.8028 C   0  0  0  0  0  0  0  0  0  0  0  0
    1.2114    1.9617    3.7478 H   0  0  0  0  0  0  0  0  0  0  0  0
    1.9641    0.5846    3.2966 H   0  0  0  0  0  0  0  0  0  0  0  0
    0.4546   -0.7220    4.4099 H   0  0  0  0  0  0  0  0  0  0  0  0
    0.8040    0.4888    5.4484 H   0  0  0  0  0  0  0  0  0  0  0  0
   -1.2414    1.5820    4.8663 H   0  0  0  0  0  0  0  0  0  0  0  0
   -3.4113   -0.4332    4.6996 H   0  0  0  0  0  0  0  0  0  0  0  0
   -3.3918    0.8333    5.7304 H   0  0  0  0  0  0  0  0  0  0  0  0
   -3.4449   -1.9359    6.5465 H   0  0  0  0  0  0  0  0  0  0  0  0
   -3.4254   -0.6695    7.5773 H   0  0  0  0  0  0  0  0  0  0  0  0
   -5.5476   -1.2110    5.6958 H   0  0  0  0  0  0  0  0  0  0  0  0
   -6.8619   -1.7036    7.6194 H   0  0  0  0  0  0  0  0  0  0  0  0
   -5.5812   -2.7138    7.5427 H   0  0  0  0  0  0  0  0  0  0  0  0
   -5.5617   -1.4474    8.5734 H   0  0  0  0  0  0  0  0  0  0  0  0
   -6.6725    0.6097    6.7398 H   0  0  0  0  0  0  0  0  0  0  0  0
   -5.3722    0.8660    7.6939 H   0  0  0  0  0  0  0  0  0  0  0  0
   -5.2670    1.1215    6.0844 H   0  0  0  0  0  0  0  0  0  0  0  0
   -2.7430    0.4338    3.3999 H   0  0  0  0  0  0  0  0  0  0  0  0
   -1.6400   -0.7533    3.1979 H   0  0  0  0  0  0  0  0  0  0  0  0
   -1.4626    0.5397    1.3191 H   0  0  0  0  0  0  0  0  0  0  0  0
   -1.5046    1.9244    2.1837 H   0  0  0  0  0  0  0  0  0  0  0  0
    2.8533    0.4592    1.7723 H   0  0  0  0  0  0  0  0  0  0  0  0
    2.7684    0.8338   -1.1311 H   0  0  0  0  0  0  0  0  0  0  0  0
    3.5265   -1.5776   -2.0964 H   0  0  0  0  0  0  0  0  0  0  0  0
    4.8599   -0.6384   -2.0142 H   0  0  0  0  0  0  0  0  0  0  0  0
    5.2627   -2.7815   -0.2806 H   0  0  0  0  0  0  0  0  0  0  0  0
    6.5694   -4.5778   -0.9527 H   0  0  0  0  0  0  0  0  0  0  0  0
    6.1250   -5.2419   -2.3768 H   0  0  0  0  0  0  0  0  0  0  0  0
    7.4583   -4.3027   -2.2947 H   0  0  0  0  0  0  0  0  0  0  0  0
    3.0218    2.8630    0.2247 H   0  0  0  0  0  0  0  0  0  0  0  0
    2.4326    2.9390    1.7458 H   0  0  0  0  0  0  0  0  0  0  0  0
    3.8624    2.5118    3.6708 H   0  0  0  0  0  0  0  0  0  0  0  0
    6.0944    2.4929    4.5445 H   0  0  0  0  0  0  0  0  0  0  0  0
    9.0560    2.3376    2.5433 H   0  0  0  0  0  0  0  0  0  0  0  0
    7.6058    2.2983    0.6836 H   0  0  0  0  0  0  0  0  0  0  0  0
    5.3717    2.3161   -0.1845 H   0  0  0  0  0  0  0  0  0  0  0  0
  1  2  2  0  0  0  0
  2  3  1  0  0  0  0
  3  4  1  0  0  0  0
  4  5  1  0  0  0  0
  5  6  1  0  0  0  0
  6  7  1  0  0  0  0
  7  8  1  0  0  0  0
  8  9  1  0  0  0  0
  9 10  1  0  0  0  0
 10 11  1  0  0  0  0
 10 12  1  0  0  0  0
  6 13  1  0  0  0  0
 13 14  1  0  0  0  0
 14  3  1  0  0  0  0
  2 15  1  0  0  0  0
 15 16  1  0  0  0  0
 16 17  1  0  0  0  0
 17 18  2  0  0  0  0
 17 19  1  0  0  0  0
 19 20  1  0  0  0  0
 20 21  1  0  0  0  0
 21 22  2  0  0  0  0
 21 23  1  0  0  0  0
 15 24  1  0  0  0  0
 24 25  1  0  0  0  0
 25 26  1  0  0  0  0
 26 27  2  0  0  0  0
 27 28  1  0  0  0  0
 28 29  1  0  0  0  0
 28 30  2  0  0  0  0
 30 31  1  0  0  0  0
 31 25  2  0  0  0  0
  4 32  1  0  0  0  0
  4 33  1  0  0  0  0
  5 34  1  0  0  0  0
  5 35  1  0  0  0  0
  6 36  1  0  0  0  0
  8 37  1  0  0  0  0
  8 38  1  0  0  0  0
  9 39  1  0  0  0  0
  9 40  1  0  0  0  0
 10 41  1  0  0  0  0
 11 42  1  0  0  0  0
 11 43  1  0  0  0  0
 11 44  1  0  0  0  0
 12 45  1  0  0  0  0
 12 46  1  0  0  0  0
 12 47  1  0  0  0  0
 13 48  1  0  0  0  0
 13 49  1  0  0  0  0
 14 50  1  0  0  0  0
 14 51  1  0  0  0  0
 15 52  1  0  0  0  0
 16 53  1  0  0  0  0
 19 54  1  0  0  0  0
 19 55  1  0  0  0  0
 20 56  1  0  0  0  0
 23 57  1  0  0  0  0
 23 58  1  0  0  0  0
 23 59  1  0  0  0  0
 24 60  1  0  0  0  0
 24 61  1  0  0  0  0
 26 62  1  0  0  0  0
 27 63  1  0  0  0  0
 29 64  1  0  0  0  0
 30 65  1  0  0  0  0
 31 66  1  0  0  0  0
M  END
>  <result-rank>
13

>  <similarity>
0.951

>  <query-name>
LIG_A_1101_CC(C)CC[C@]1([R*])CCCOC1_2

>  <query-smiles>
O=C(N[C@@]1(COCCC1)CCC(C)C)[C@@H](NC(=O)C)Cc2ccc(O)cc2

>  <source>
REALspace_2019-12

>  <similarity-descriptor>
1.000;0.950;0.852;0.852;0.993;1.000;1.000;1.000;1.000;1.000;1.000;1.000;0.955;1.000;1.000;0.167

>  <similarity-descriptor-smiles>
c1ccccc1;N1CCC(CC1)O;O=C;O=C;C;C;C;C;C;C;N;C=O;C;C;O;N.C=O.C

>  <reaction-name>
s_22

>  <reagent1-name>
2081052

>  <reagent1-smiles>
[R1*]N1CCC(OCCC(C)C)CC1

>  <reagent2-name>
16717358

>  <reagent2-smiles>
[R1*]C(=O)C(NC(=O)CNC(=O)C)Cc1ccc(O)cc1

$$$$
s_188690b____13773506____17513482
          04022015103D 1   1.00000     0.00000     0
            
 49 50  0  0  0  0            999 V2000
   -3.4050   -2.5574    3.2296 O   0  5  0  0  0  0  0  0  0  0  0  0
   -3.7024   -1.4554    3.6312 C   0  0  0  0  0  0  0  0  0  0  0  0
   -4.3989   -1.3328    4.6619 O   0  0  0  0  0  0  0  0  0  0  0  0
   -3.2295   -0.2213    2.8831 C   0  0  3  0  0  0  0  0  0  0  0  0
   -3.6918    0.9641    3.5268 O   0  0  0  0  0  0  0  0  0  0  0  0
   -3.2375    2.1833    2.9450 C   0  0  0  0  0  0  0  0  0  0  0  0
   -1.7171    2.2404    2.8645 C   0  0  0  0  0  0  0  0  0  0  0  0
   -1.1554    1.0000    2.1865 C   0  0  3  0  0  0  0  0  0  0  0  0
    0.3150    1.0000    2.1865 N   0  0  0  0  0  0  0  0  0  0  0  0
    1.0000    1.0000    1.0000 C   0  0  0  0  0  0  0  0  0  0  0  0
    0.4000    1.0000   -0.0392 O   0  0  0  0  0  0  0  0  0  0  0  0
    2.5200    1.0000    1.0000 C   0  0  3  0  0  0  0  0  0  0  0  0
    3.0100    1.0000   -0.3859 N   0  0  0  0  0  0  0  0  0  0  0  0
    3.7976    2.0275   -0.8340 C   0  0  0  0  0  0  0  0  0  0  0  0
    4.0875    2.9275   -0.0951 O   0  0  0  0  0  0  0  0  0  0  0  0
    4.3043    2.0275   -2.2671 C   0  0  0  0  0  0  0  0  0  0  0  0
    3.0267   -0.2411    1.7165 C   0  0  0  0  0  0  0  0  0  0  0  0
    4.5467   -0.2411    1.7165 C   0  0  0  0  0  0  0  0  0  0  0  0
    5.2311    0.3644    2.7653 C   0  0  0  0  0  0  0  0  0  0  0  0
    6.6219    0.3662    2.7699 C   0  0  0  0  0  0  0  0  0  0  0  0
    7.3116   -0.2391    1.7241 C   0  0  0  0  0  0  0  0  0  0  0  0
    8.6614   -0.2393    1.7244 O   0  0  0  0  0  0  0  0  0  0  0  0
    6.6320   -0.8457    0.6727 C   0  0  0  0  0  0  0  0  0  0  0  0
    5.2412   -0.8449    0.6734 C   0  0  0  0  0  0  0  0  0  0  0  0
   -1.7080   -0.2268    2.8947 C   0  0  0  0  0  0  0  0  0  0  0  0
   -3.7743   -0.3518    1.4665 C   0  0  0  0  0  0  0  0  0  0  0  0
   -3.5609    2.9481    3.5023 H   0  0  0  0  0  0  0  0  0  0  0  0
   -3.6136    2.2612    2.0217 H   0  0  0  0  0  0  0  0  0  0  0  0
   -1.4483    3.0486    2.3405 H   0  0  0  0  0  0  0  0  0  0  0  0
   -1.3436    2.3037    3.7899 H   0  0  0  0  0  0  0  0  0  0  0  0
   -1.4718    0.9871    1.2379 H   0  0  0  0  0  0  0  0  0  0  0  0
    0.8150    1.0000    3.0525 H   0  0  0  0  0  0  0  0  0  0  0  0
    2.8533    1.8165    1.4714 H   0  0  0  0  0  0  0  0  0  0  0  0
    2.7684    0.2500   -1.0017 H   0  0  0  0  0  0  0  0  0  0  0  0
    3.9710    1.2110   -2.7385 H   0  0  0  0  0  0  0  0  0  0  0  0
    3.9710    2.8440   -2.7385 H   0  0  0  0  0  0  0  0  0  0  0  0
    5.3043    2.0275   -2.2671 H   0  0  0  0  0  0  0  0  0  0  0  0
    2.6933   -0.2411    2.6593 H   0  0  0  0  0  0  0  0  0  0  0  0
    2.6933   -1.0576    1.2451 H   0  0  0  0  0  0  0  0  0  0  0  0
    4.7256    0.7963    3.5122 H   0  0  0  0  0  0  0  0  0  0  0  0
    7.1226    0.7993    3.5194 H   0  0  0  0  0  0  0  0  0  0  0  0
    9.1615   -0.6731    0.9749 H   0  0  0  0  0  0  0  0  0  0  0  0
    7.1374   -1.2771   -0.0746 H   0  0  0  0  0  0  0  0  0  0  0  0
    4.7405   -1.2783   -0.0759 H   0  0  0  0  0  0  0  0  0  0  0  0
   -1.3800   -1.0489    2.4294 H   0  0  0  0  0  0  0  0  0  0  0  0
   -1.3879   -0.2298    3.8421 H   0  0  0  0  0  0  0  0  0  0  0  0
   -3.4273   -1.1932    1.0521 H   0  0  0  0  0  0  0  0  0  0  0  0
   -4.7734   -0.3817    1.4950 H   0  0  0  0  0  0  0  0  0  0  0  0
   -3.4797    0.4338    0.9224 H   0  0  0  0  0  0  0  0  0  0  0  0
  1  2  1  0  0  0  0
  2  3  2  0  0  0  0
  2  4  1  0  0  0  0
  4  5  1  0  0  0  0
  5  6  1  0  0  0  0
  6  7  1  0  0  0  0
  7  8  1  0  0  0  0
  8  9  1  0  0  0  0
  9 10  1  0  0  0  0
 10 11  2  0  0  0  0
 10 12  1  0  0  0  0
 12 13  1  0  0  0  0
 13 14  1  0  0  0  0
 14 15  2  0  0  0  0
 14 16  1  0  0  0  0
 12 17  1  0  0  0  0
 17 18  1  0  0  0  0
 18 19  1  0  0  0  0
 19 20  2  0  0  0  0
 20 21  1  0  0  0  0
 21 22  1  0  0  0  0
 21 23  2  0  0  0  0
 23 24  1  0  0  0  0
 24 18  2  0  0  0  0
  8 25  1  0  0  0  0
 25  4  1  0  0  0  0
  4 26  1  0  0  0  0
  6 27  1  0  0  0  0
  6 28  1  0  0  0  0
  7 29  1  0  0  0  0
  7 30  1  0  0  0  0
  8 31  1  0  0  0  0
  9 32  1  0  0  0  0
 12 33  1  0  0  0  0
 13 34  1  0  0  0  0
 16 35  1  0  0  0  0
 16 36  1  0  0  0  0
 16 37  1  0  0  0  0
 17 38  1  0  0  0  0
 17 39  1  0  0  0  0
 19 40  1  0  0  0  0
 20 41  1  0  0  0  0
 22 42  1  0  0  0  0
 23 43  1  0  0  0  0
 24 44  1  0  0  0  0
 25 45  1  0  0  0  0
 25 46  1  0  0  0  0
 26 47  1  0  0  0  0
 26 48  1  0  0  0  0
 26 49  1  0  0  0  0
M  CHG  1   1  -1
M  END
>  <result-rank>
14

>  <similarity>
0.951

>  <query-name>
LIG_A_1101_CC(C)CC[C@]1([R*])CCCOC1_2

>  <query-smiles>
O=C(N[C@@]1(COCCC1)CCC(C)C)[C@@H](NC(=O)C)Cc2ccc(O)cc2

>  <source>
REALspace_2019-12

>  <similarity-descriptor>
1.000;0.987;1.000;1.000;0.949;0.0;0.0;0.0;0.0;1.000;1.000;1.000;1.000;1.000;1.000;0.083

>  <similarity-descriptor-smiles>
c1ccccc1;C1CCCCO1;C=O;N;C;;;;;C;N;C=O;C;C;O;[O-]C=O

>  <reaction-name>
s_188690b

>  <reagent1-name>
13773506

>  <reagent1-smiles>
[R1*]NC1CC(OCC1)(C(=O)O)C

>  <reagent2-name>
17513482

>  <reagent2-smiles>
[R1*]C(=O)C(NC(=O)C)Cc1ccc(O)cc1

$$$$
s_22____9399000____17057108
          04022015103D 1   1.00000     0.00000     0
            
 60 61  0  0  0  0            999 V2000
    0.4000    1.0000   -0.0392 O   0  0  0  0  0  0  0  0  0  0  0  0
    1.0000    1.0000    1.0000 C   0  0  0  0  0  0  0  0  0  0  0  0
    0.3150    1.0000    2.1865 N   0  0  0  0  0  0  0  0  0  0  0  0
   -1.1550    1.0000    2.1865 C   0  0  0  0  0  0  0  0  0  0  0  0
   -1.6632    1.0000    3.6238 C   0  0  0  0  0  0  0  0  0  0  0  0
   -1.2224   -0.1371    4.3466 O   0  0  0  0  0  0  0  0  0  0  0  0
   -1.4626    2.2916    4.3959 C   0  0  0  0  0  0  0  0  0  0  0  0
   -2.8003    2.7399    3.8387 C   0  0  3  0  0  0  0  0  0  0  0  0
   -3.5580    3.4577    4.8027 O   0  0  0  0  0  0  0  0  0  0  0  0
   -2.8352    4.6101    5.2103 C   0  0  0  0  0  0  0  0  0  0  0  0
   -3.6457    5.3780    6.2417 C   0  0  0  0  0  0  0  0  0  0  0  0
   -3.1444    1.2651    3.7893 C   0  0  0  0  0  0  0  0  0  0  0  0
    2.5200    1.0000    1.0000 C   0  0  3  0  0  0  0  0  0  0  0  0
    3.0100    1.0000   -0.3859 N   0  0  0  0  0  0  0  0  0  0  0  0
    3.7976   -0.0275   -0.8340 C   0  0  0  0  0  0  0  0  0  0  0  0
    4.0138   -0.9711   -0.1248 O   0  0  0  0  0  0  0  0  0  0  0  0
    4.3977    0.0277   -2.2295 C   0  0  0  0  0  0  0  0  0  0  0  0
    4.8450   -1.3646   -2.6441 C   0  0  0  0  0  0  0  0  0  0  0  0
    3.6531   -2.1413   -3.1792 C   0  0  0  0  0  0  0  0  0  0  0  0
    5.9057   -1.2544   -3.7273 C   0  0  0  0  0  0  0  0  0  0  0  0
    3.0267    2.2411    1.7165 C   0  0  0  0  0  0  0  0  0  0  0  0
    4.5467    2.2411    1.7165 C   0  0  0  0  0  0  0  0  0  0  0  0
    5.2311    1.6356    2.7653 C   0  0  0  0  0  0  0  0  0  0  0  0
    6.6219    1.6325    2.7691 C   0  0  0  0  0  0  0  0  0  0  0  0
    7.3116    2.2356    1.7220 C   0  0  0  0  0  0  0  0  0  0  0  0
    8.6614    2.2352    1.7220 O   0  0  0  0  0  0  0  0  0  0  0  0
    6.6320    2.8428    0.6710 C   0  0  0  0  0  0  0  0  0  0  0  0
    5.2412    2.8426    0.6720 C   0  0  0  0  0  0  0  0  0  0  0  0
    0.8150    1.0000    3.0525 H   0  0  0  0  0  0  0  0  0  0  0  0
   -1.4883    0.1835    1.7151 H   0  0  0  0  0  0  0  0  0  0  0  0
   -1.4883    1.8165    1.7151 H   0  0  0  0  0  0  0  0  0  0  0  0
   -1.5774   -0.0966    5.2806 H   0  0  0  0  0  0  0  0  0  0  0  0
   -0.6806    2.8396    4.0992 H   0  0  0  0  0  0  0  0  0  0  0  0
   -1.4374    2.1856    5.3899 H   0  0  0  0  0  0  0  0  0  0  0  0
   -2.7473    3.1817    2.9431 H   0  0  0  0  0  0  0  0  0  0  0  0
   -2.6654    5.1949    4.4171 H   0  0  0  0  0  0  0  0  0  0  0  0
   -1.9628    4.3316    5.6120 H   0  0  0  0  0  0  0  0  0  0  0  0
   -3.1368    6.1895    6.5287 H   0  0  0  0  0  0  0  0  0  0  0  0
   -4.5181    5.6565    5.8400 H   0  0  0  0  0  0  0  0  0  0  0  0
   -3.8156    4.7932    7.0349 H   0  0  0  0  0  0  0  0  0  0  0  0
   -3.5429    0.9004    4.6309 H   0  0  0  0  0  0  0  0  0  0  0  0
   -3.7074    0.9932    3.0088 H   0  0  0  0  0  0  0  0  0  0  0  0
    2.8533    0.1835    1.4714 H   0  0  0  0  0  0  0  0  0  0  0  0
    2.7684    1.7500   -1.0017 H   0  0  0  0  0  0  0  0  0  0  0  0
    5.1848    0.6445   -2.2297 H   0  0  0  0  0  0  0  0  0  0  0  0
    3.7111    0.3631   -2.8745 H   0  0  0  0  0  0  0  0  0  0  0  0
    5.2257   -1.8420   -1.8521 H   0  0  0  0  0  0  0  0  0  0  0  0
    3.9473   -3.0573   -3.4520 H   0  0  0  0  0  0  0  0  0  0  0  0
    2.9553   -2.2138   -2.4666 H   0  0  0  0  0  0  0  0  0  0  0  0
    3.2724   -1.6638   -3.9711 H   0  0  0  0  0  0  0  0  0  0  0  0
    6.1999   -2.1704   -4.0000 H   0  0  0  0  0  0  0  0  0  0  0  0
    5.5250   -0.7770   -4.5192 H   0  0  0  0  0  0  0  0  0  0  0  0
    6.6898   -0.7434   -3.3752 H   0  0  0  0  0  0  0  0  0  0  0  0
    2.6933    3.0576    1.2451 H   0  0  0  0  0  0  0  0  0  0  0  0
    2.6933    2.2411    2.6593 H   0  0  0  0  0  0  0  0  0  0  0  0
    4.7256    1.2046    3.5128 H   0  0  0  0  0  0  0  0  0  0  0  0
    7.1226    1.1999    3.5190 H   0  0  0  0  0  0  0  0  0  0  0  0
    9.1615    2.6674    0.9716 H   0  0  0  0  0  0  0  0  0  0  0  0
    7.1374    3.2742   -0.0763 H   0  0  0  0  0  0  0  0  0  0  0  0
    4.7405    3.2748   -0.0780 H   0  0  0  0  0  0  0  0  0  0  0  0
  1  2  2  0  0  0  0
  2  3  1  0  0  0  0
  3  4  1  0  0  0  0
  4  5  1  0  0  0  0
  5  6  1  0  0  0  0
  5  7  1  0  0  0  0
  7  8  1  0  0  0  0
  8  9  1  0  0  0  0
  9 10  1  0  0  0  0
 10 11  1  0  0  0  0
  8 12  1  0  0  0  0
 12  5  1  0  0  0  0
  2 13  1  0  0  0  0
 13 14  1  0  0  0  0
 14 15  1  0  0  0  0
 15 16  2  0  0  0  0
 15 17  1  0  0  0  0
 17 18  1  0  0  0  0
 18 19  1  0  0  0  0
 18 20  1  0  0  0  0
 13 21  1  0  0  0  0
 21 22  1  0  0  0  0
 22 23  1  0  0  0  0
 23 24  2  0  0  0  0
 24 25  1  0  0  0  0
 25 26  1  0  0  0  0
 25 27  2  0  0  0  0
 27 28  1  0  0  0  0
 28 22  2  0  0  0  0
  3 29  1  0  0  0  0
  4 30  1  0  0  0  0
  4 31  1  0  0  0  0
  6 32  1  0  0  0  0
  7 33  1  0  0  0  0
  7 34  1  0  0  0  0
  8 35  1  0  0  0  0
 10 36  1  0  0  0  0
 10 37  1  0  0  0  0
 11 38  1  0  0  0  0
 11 39  1  0  0  0  0
 11 40  1  0  0  0  0
 12 41  1  0  0  0  0
 12 42  1  0  0  0  0
 13 43  1  0  0  0  0
 14 44  1  0  0  0  0
 17 45  1  0  0  0  0
 17 46  1  0  0  0  0
 18 47  1  0  0  0  0
 19 48  1  0  0  0  0
 19 49  1  0  0  0  0
 19 50  1  0  0  0  0
 20 51  1  0  0  0  0
 20 52  1  0  0  0  0
 20 53  1  0  0  0  0
 21 54  1  0  0  0  0
 21 55  1  0  0  0  0
 23 56  1  0  0  0  0
 24 57  1  0  0  0  0
 26 58  1  0  0  0  0
 27 59  1  0  0  0  0
 28 60  1  0  0  0  0
M  END
>  <result-rank>
15

>  <similarity>
0.951

>  <query-name>
LIG_A_1101_CC(C)CC[C@]1([R*])CCCOC1_2

>  <query-smiles>
O=C(N[C@@]1(COCCC1)CCC(C)C)[C@@H](NC(=O)C)Cc2ccc(O)cc2

>  <source>
REALspace_2019-12

>  <similarity-descriptor>
1.000;0.987;1.000;1.000;0.993;0.949;0.0;0.0;0.0;1.000;1.000;1.000;0.949;1.000;1.000;0.222

>  <similarity-descriptor-smiles>
c1ccccc1;CC1CC(C1)O;O=C;N;C;C;;;;C;N;C=O;C;C;O;O.C.C.C

>  <reaction-name>
s_22

>  <reagent1-name>
9399000

>  <reagent1-smiles>
[R1*]NCC1(O)CC(OCC)C1

>  <reagent2-name>
17057108

>  <reagent2-smiles>
[R1*]C(=O)C(NC(=O)CC(C)C)Cc1ccc(O)cc1

$$$$
s_2708____13426432____16638094
          04022015103D 1   1.00000     0.00000     0
            
 51 52  0  0  0  0            999 V2000
    3.2674   -5.6809   -0.0041 F   0  0  0  0  0  0  0  0  0  0  0  0
    3.9167   -4.5375   -0.2035 C   0  0  0  0  0  0  0  0  0  0  0  0
    5.2919   -4.5590   -0.4121 C   0  0  0  0  0  0  0  0  0  0  0  0
    5.9601   -3.3568   -0.6197 C   0  0  0  0  0  0  0  0  0  0  0  0
    7.2945   -3.3689   -0.8231 O   0  0  0  0  0  0  0  0  0  0  0  0
    5.2770   -2.1453   -0.6219 C   0  0  0  0  0  0  0  0  0  0  0  0
    3.9026   -2.1523   -0.4113 C   0  0  0  0  0  0  0  0  0  0  0  0
    3.2101   -3.3397   -0.2009 C   0  0  0  0  0  0  0  0  0  0  0  0
    3.1428   -0.8363   -0.4113 C   0  0  0  0  0  0  0  0  0  0  0  0
    3.1050   -0.2731    1.0000 C   0  0  0  0  0  0  0  0  0  0  0  0
    2.3700    1.0000    1.0000 N   0  0  0  0  0  0  0  0  0  0  0  0
    1.0000    1.0000    1.0000 C   0  0  0  0  0  0  0  0  0  0  0  0
    0.4000   -0.0392    1.0000 O   0  0  0  0  0  0  0  0  0  0  0  0
    0.2994    2.2136    1.0000 N   0  0  0  0  0  0  0  0  0  0  0  0
   -1.1705    2.2457    1.0000 C   0  0  3  0  0  0  0  0  0  0  0  0
   -1.6365    2.3940    2.4397 C   0  0  0  0  0  0  0  0  0  0  0  0
   -3.1556    2.4310    2.4793 C   0  0  0  0  0  0  0  0  0  0  0  0
   -3.7091    1.1402    1.8980 C   0  0  0  0  0  0  0  0  0  0  0  0
   -3.6215    2.5793    3.9185 C   0  0  0  0  0  0  0  0  0  0  0  0
   -1.6451    3.4404    0.1833 C   0  0  0  0  0  0  0  0  0  0  0  0
   -0.9493    3.5853   -1.1636 C   0  0  0  0  0  0  0  0  0  0  0  0
    0.1636    4.4754   -1.1241 O   0  0  0  0  0  0  0  0  0  0  0  0
    1.3082    4.0047   -0.4163 C   0  0  0  0  0  0  0  0  0  0  0  0
    1.0400    3.4865    0.9915 C   0  0  0  0  0  0  0  0  0  0  0  0
    5.7921   -5.4249   -0.4128 H   0  0  0  0  0  0  0  0  0  0  0  0
    7.7851   -2.5106   -0.9734 H   0  0  0  0  0  0  0  0  0  0  0  0
    5.7651   -1.2856   -0.7722 H   0  0  0  0  0  0  0  0  0  0  0  0
    2.2215   -3.3324   -0.0503 H   0  0  0  0  0  0  0  0  0  0  0  0
    2.2089   -0.9906   -0.7338 H   0  0  0  0  0  0  0  0  0  0  0  0
    3.6016   -0.1865   -1.0173 H   0  0  0  0  0  0  0  0  0  0  0  0
    2.6462   -0.9228    1.6060 H   0  0  0  0  0  0  0  0  0  0  0  0
    4.0389   -0.1188    1.3225 H   0  0  0  0  0  0  0  0  0  0  0  0
    2.8700    1.8660    1.0000 H   0  0  0  0  0  0  0  0  0  0  0  0
   -1.5312    1.3989    0.6091 H   0  0  0  0  0  0  0  0  0  0  0  0
   -1.2723    3.2432    2.8221 H   0  0  0  0  0  0  0  0  0  0  0  0
   -1.3079    1.6181    2.9781 H   0  0  0  0  0  0  0  0  0  0  0  0
   -3.4842    3.2069    1.9409 H   0  0  0  0  0  0  0  0  0  0  0  0
   -4.7085    1.1646    1.9240 H   0  0  0  0  0  0  0  0  0  0  0  0
   -3.4026    1.0427    0.9511 H   0  0  0  0  0  0  0  0  0  0  0  0
   -3.3804    0.3643    2.4364 H   0  0  0  0  0  0  0  0  0  0  0  0
   -4.6208    2.6036    3.9445 H   0  0  0  0  0  0  0  0  0  0  0  0
   -3.2928    1.8033    4.4569 H   0  0  0  0  0  0  0  0  0  0  0  0
   -3.2573    3.4285    4.3009 H   0  0  0  0  0  0  0  0  0  0  0  0
   -1.4780    4.2709    0.7146 H   0  0  0  0  0  0  0  0  0  0  0  0
   -2.6268    3.3404    0.0210 H   0  0  0  0  0  0  0  0  0  0  0  0
   -0.6264    2.6845   -1.4538 H   0  0  0  0  0  0  0  0  0  0  0  0
   -1.6111    3.9322   -1.8282 H   0  0  0  0  0  0  0  0  0  0  0  0
    1.9604    4.7596   -0.3479 H   0  0  0  0  0  0  0  0  0  0  0  0
    1.7142    3.2605   -0.9467 H   0  0  0  0  0  0  0  0  0  0  0  0
    1.9161    3.3494    1.4537 H   0  0  0  0  0  0  0  0  0  0  0  0
    0.5051    4.1706    1.4872 H   0  0  0  0  0  0  0  0  0  0  0  0
  1  2  1  0  0  0  0
  2  3  1  0  0  0  0
  3  4  2  0  0  0  0
  4  5  1  0  0  0  0
  4  6  1  0  0  0  0
  6  7  2  0  0  0  0
  7  8  1  0  0  0  0
  8  2  2  0  0  0  0
  7  9  1  0  0  0  0
  9 10  1  0  0  0  0
 10 11  1  0  0  0  0
 11 12  1  0  0  0  0
 12 13  2  0  0  0  0
 12 14  1  0  0  0  0
 14 15  1  0  0  0  0
 15 16  1  0  0  0  0
 16 17  1  0  0  0  0
 17 18  1  0  0  0  0
 17 19  1  0  0  0  0
 15 20  1  0  0  0  0
 20 21  1  0  0  0  0
 21 22  1  0  0  0  0
 22 23  1  0  0  0  0
 23 24  1  0  0  0  0
 24 14  1  0  0  0  0
  3 25  1  0  0  0  0
  5 26  1  0  0  0  0
  6 27  1  0  0  0  0
  8 28  1  0  0  0  0
  9 29  1  0  0  0  0
  9 30  1  0  0  0  0
 10 31  1  0  0  0  0
 10 32  1  0  0  0  0
 11 33  1  0  0  0  0
 15 34  1  0  0  0  0
 16 35  1  0  0  0  0
 16 36  1  0  0  0  0
 17 37  1  0  0  0  0
 18 38  1  0  0  0  0
 18 39  1  0  0  0  0
 18 40  1  0  0  0  0
 19 41  1  0  0  0  0
 19 42  1  0  0  0  0
 19 43  1  0  0  0  0
 20 44  1  0  0  0  0
 20 45  1  0  0  0  0
 21 46  1  0  0  0  0
 21 47  1  0  0  0  0
 23 48  1  0  0  0  0
 23 49  1  0  0  0  0
 24 50  1  0  0  0  0
 24 51  1  0  0  0  0
M  END
>  <result-rank>
16

>  <similarity>
0.950

>  <query-name>
LIG_A_1101_CC(C)CC[C@]1([R*])CCCOC1_2

>  <query-smiles>
O=C(N[C@@]1(COCCC1)CCC(C)C)[C@@H](NC(=O)C)Cc2ccc(O)cc2

>  <source>
REALspace_2019-12

>  <similarity-descriptor>
0.965;0.989;0.857;0.857;0.989;1.000;1.000;1.000;1.000;0.952;0.952;0.0;0.0;1.000;1.000;0.0

>  <similarity-descriptor-smiles>
Fc1ccccc1;N1CCOCCC1;C=O;C=O;N1CCOCCC1;C;C;C;C;CN;CN;;;C;O;

>  <reaction-name>
s_2708

>  <reagent1-name>
13426432

>  <reagent1-smiles>
[R1*]C(=O)NCCc1cc(F)cc(O)c1

>  <reagent2-name>
16638094

>  <reagent2-smiles>
[R1*]N1C(CC(C)C)CCOCC1

$$$$
s_22____1180386____17513450
          04022015103D 1   1.00000     0.00000     0
            
 59 60  0  0  0  0            999 V2000
    1.8484    3.5735    1.9572 S   0  0  0  0  0  0  0  0  0  0  0  0
    3.0879    3.6708    3.1175 C   0  0  0  0  0  0  0  0  0  0  0  0
    3.4435    2.4341    3.3800 N   0  0  0  0  0  0  0  0  0  0  0  0
    2.8017    1.4803    2.7237 N   0  0  0  0  0  0  0  0  0  0  0  0
    1.8780    1.8780    1.8780 C   0  0  0  0  0  0  0  0  0  0  0  0
    1.0000    1.0000    1.0000 C   0  0  0  0  0  0  0  0  0  0  0  0
    1.6863    0.7734   -0.3372 C   0  0  0  0  0  0  0  0  0  0  0  0
    0.8087   -0.1042   -1.2148 C   0  0  0  0  0  0  0  0  0  0  0  0
    1.4949   -0.3308   -2.5520 C   0  0  0  0  0  0  0  0  0  0  0  0
    0.6174   -1.2084   -3.4295 C   0  0  0  0  0  0  0  0  0  0  0  0
    1.3036   -1.4351   -4.7667 C   0  0  0  0  0  0  0  0  0  0  0  0
    0.4261   -2.3126   -5.6443 C   0  0  0  0  0  0  0  0  0  0  0  0
    1.1123   -2.5393   -6.9815 C   0  0  0  0  0  0  0  0  0  0  0  0
    3.6293    4.9060    3.7024 N   0  0  0  0  0  0  0  0  0  0  0  0
    4.6330    4.8408    4.6325 C   0  0  0  0  0  0  0  0  0  0  0  0
    5.0703    3.7754    4.9698 O   0  0  0  0  0  0  0  0  0  0  0  0
    5.1928    6.1180    5.2374 C   0  0  3  0  0  0  0  0  0  0  0  0
    6.6051    5.9148    5.5909 N   0  0  0  0  0  0  0  0  0  0  0  0
    7.5868    6.1897    4.6757 C   0  0  0  0  0  0  0  0  0  0  0  0
    7.2937    6.5964    3.5854 O   0  0  0  0  0  0  0  0  0  0  0  0
    9.0471    5.9795    5.0413 C   0  0  0  0  0  0  0  0  0  0  0  0
    4.4040    6.4751    6.4867 C   0  0  0  0  0  0  0  0  0  0  0  0
    4.9638    7.7523    7.0915 C   0  0  0  0  0  0  0  0  0  0  0  0
    4.4488    8.9814    6.6927 C   0  0  0  0  0  0  0  0  0  0  0  0
    4.9574   10.1526    7.2440 C   0  0  0  0  0  0  0  0  0  0  0  0
    5.9759   10.0795    8.1890 C   0  0  0  0  0  0  0  0  0  0  0  0
    6.4984   11.2728    8.7542 O   0  0  0  0  0  0  0  0  0  0  0  0
    6.4947    8.8529    8.5911 C   0  0  0  0  0  0  0  0  0  0  0  0
    5.9821    7.6849    8.0369 C   0  0  0  0  0  0  0  0  0  0  0  0
    0.1203    1.4515    0.8509 H   0  0  0  0  0  0  0  0  0  0  0  0
    0.8509    0.1203    1.4515 H   0  0  0  0  0  0  0  0  0  0  0  0
    2.5660    0.3219   -0.1881 H   0  0  0  0  0  0  0  0  0  0  0  0
    1.8354    1.6531   -0.7887 H   0  0  0  0  0  0  0  0  0  0  0  0
   -0.0710    0.3473   -1.3639 H   0  0  0  0  0  0  0  0  0  0  0  0
    0.6596   -0.9839   -0.7633 H   0  0  0  0  0  0  0  0  0  0  0  0
    2.3747   -0.7823   -2.4029 H   0  0  0  0  0  0  0  0  0  0  0  0
    1.6440    0.5489   -3.0034 H   0  0  0  0  0  0  0  0  0  0  0  0
   -0.2624   -0.7569   -3.5786 H   0  0  0  0  0  0  0  0  0  0  0  0
    0.4683   -2.0881   -2.9780 H   0  0  0  0  0  0  0  0  0  0  0  0
    2.1834   -1.8865   -4.6176 H   0  0  0  0  0  0  0  0  0  0  0  0
    1.4527   -0.5553   -5.2182 H   0  0  0  0  0  0  0  0  0  0  0  0
   -0.4537   -1.8611   -5.7934 H   0  0  0  0  0  0  0  0  0  0  0  0
    0.2770   -3.1924   -5.1928 H   0  0  0  0  0  0  0  0  0  0  0  0
    0.5350   -3.1166   -7.5588 H   0  0  0  0  0  0  0  0  0  0  0  0
    1.2614   -1.6595   -7.4330 H   0  0  0  0  0  0  0  0  0  0  0  0
    1.9920   -2.9907   -6.8324 H   0  0  0  0  0  0  0  0  0  0  0  0
    3.2649    5.7938    3.4214 H   0  0  0  0  0  0  0  0  0  0  0  0
    5.1192    6.8617    4.5728 H   0  0  0  0  0  0  0  0  0  0  0  0
    6.8493    5.5758    6.4995 H   0  0  0  0  0  0  0  0  0  0  0  0
    9.1102    5.6397    5.9797 H   0  0  0  0  0  0  0  0  0  0  0  0
    9.4543    5.3127    4.4172 H   0  0  0  0  0  0  0  0  0  0  0  0
    9.5375    6.8479    4.9675 H   0  0  0  0  0  0  0  0  0  0  0  0
    3.4433    6.6133    6.2462 H   0  0  0  0  0  0  0  0  0  0  0  0
    4.4776    5.7314    7.1512 H   0  0  0  0  0  0  0  0  0  0  0  0
    3.7165    9.0226    6.0129 H   0  0  0  0  0  0  0  0  0  0  0  0
    4.5937   11.0408    6.9631 H   0  0  0  0  0  0  0  0  0  0  0  0
    7.2305   11.2253    9.4338 H   0  0  0  0  0  0  0  0  0  0  0  0
    7.2274    8.8116    9.2704 H   0  0  0  0  0  0  0  0  0  0  0  0
    6.3455    6.7966    8.3179 H   0  0  0  0  0  0  0  0  0  0  0  0
  1  2  1  0  0  0  0
  2  3  2  0  0  0  0
  3  4  1  0  0  0  0
  4  5  2  0  0  0  0
  5  1  1  0  0  0  0
  5  6  1  0  0  0  0
  6  7  1  0  0  0  0
  7  8  1  0  0  0  0
  8  9  1  0  0  0  0
  9 10  1  0  0  0  0
 10 11  1  0  0  0  0
 11 12  1  0  0  0  0
 12 13  1  0  0  0  0
  2 14  1  0  0  0  0
 14 15  1  0  0  0  0
 15 16  2  0  0  0  0
 15 17  1  0  0  0  0
 17 18  1  0  0  0  0
 18 19  1  0  0  0  0
 19 20  2  0  0  0  0
 19 21  1  0  0  0  0
 17 22  1  0  0  0  0
 22 23  1  0  0  0  0
 23 24  1  0  0  0  0
 24 25  2  0  0  0  0
 25 26  1  0  0  0  0
 26 27  1  0  0  0  0
 26 28  2  0  0  0  0
 28 29  1  0  0  0  0
 29 23  2  0  0  0  0
  6 30  1  0  0  0  0
  6 31  1  0  0  0  0
  7 32  1  0  0  0  0
  7 33  1  0  0  0  0
  8 34  1  0  0  0  0
  8 35  1  0  0  0  0
  9 36  1  0  0  0  0
  9 37  1  0  0  0  0
 10 38  1  0  0  0  0
 10 39  1  0  0  0  0
 11 40  1  0  0  0  0
 11 41  1  0  0  0  0
 12 42  1  0  0  0  0
 12 43  1  0  0  0  0
 13 44  1  0  0  0  0
 13 45  1  0  0  0  0
 13 46  1  0  0  0  0
 14 47  1  0  0  0  0
 17 48  1  0  0  0  0
 18 49  1  0  0  0  0
 21 50  1  0  0  0  0
 21 51  1  0  0  0  0
 21 52  1  0  0  0  0
 22 53  1  0  0  0  0
 22 54  1  0  0  0  0
 24 55  1  0  0  0  0
 25 56  1  0  0  0  0
 27 57  1  0  0  0  0
 28 58  1  0  0  0  0
 29 59  1  0  0  0  0
M  END
>  <result-rank>
17

>  <similarity>
0.950

>  <query-name>
LIG_A_1101_CC(C)CC[C@]1([R*])CCCOC1_2

>  <query-smiles>
O=C(N[C@@]1(COCCC1)CCC(C)C)[C@@H](NC(=O)C)Cc2ccc(O)cc2

>  <source>
REALspace_2019-12

>  <similarity-descriptor>
1.000;0.800;1.000;1.000;1.000;1.000;0.998;0.998;1.000;1.000;1.000;1.000;1.000;1.000;1.000;0.0

>  <similarity-descriptor-smiles>
c1ccccc1;S1C(=NN=C1)CCC;C=O;N;C;C;CC;CC;C;C;N;C=O;C;C;O;

>  <reaction-name>
s_22

>  <reagent1-name>
1180386

>  <reagent1-smiles>
[R1*]NC=1SC(=NN1)CCCCCCCC

>  <reagent2-name>
17513450

>  <reagent2-smiles>
[R1*]C(=O)C(NC(=O)C)Cc1ccc(O)cc1

$$$$
s_22____12206138____5635622
          04022015103D 1   1.00000     0.00000     0
            
 57 57  0  0  0  0            999 V2000
    2.7591    4.9071    7.5024 O   0  0  0  0  0  0  0  0  0  0  0  0
    1.8605    4.9533    6.7084 C   0  0  0  0  0  0  0  0  0  0  0  0
    0.6275    4.7515    7.1022 O   0  0  0  0  0  0  0  0  0  0  0  0
    0.3542    4.4783    8.4686 C   0  0  0  0  0  0  0  0  0  0  0  0
    2.1530    5.2458    5.2458 C   0  0  3  0  0  0  0  0  0  0  0  0
    1.3043    4.3971    4.3971 N   0  0  0  0  0  0  0  0  0  0  0  0
    1.8776    3.5172    3.5172 C   0  0  0  0  0  0  0  0  0  0  0  0
    3.0725    3.4394    3.4394 O   0  0  0  0  0  0  0  0  0  0  0  0
    1.0000    2.6397    2.6397 C   0  0  0  0  0  0  0  0  0  0  0  0
    1.8198    1.8198    1.8198 O   0  0  0  0  0  0  0  0  0  0  0  0
    1.0000    1.0000    1.0000 C   0  0  0  0  0  0  0  0  0  0  0  0
    1.8776    0.1224    0.1224 C   0  0  0  0  0  0  0  0  0  0  0  0
    1.0000   -0.7551   -0.7551 C   0  0  0  0  0  0  0  0  0  0  0  0
    1.8776   -1.6327   -1.6327 C   0  0  0  0  0  0  0  0  0  0  0  0
    1.0000   -2.5103   -2.5103 C   0  0  0  0  0  0  0  0  0  0  0  0
    0.1224   -3.3879   -1.6327 C   0  0  0  0  0  0  0  0  0  0  0  0
   -0.7551   -4.2654   -2.5103 C   0  0  0  0  0  0  0  0  0  0  0  0
   -1.6327   -5.1430   -1.6327 C   0  0  0  0  0  0  0  0  0  0  0  0
    1.8605    6.7084    4.9533 C   0  0  0  0  0  0  0  0  0  0  0  0
    2.7383    7.5863    5.8311 C   0  0  0  0  0  0  0  0  0  0  0  0
    3.9920    7.9878    5.3805 C   0  0  0  0  0  0  0  0  0  0  0  0
    4.4447    7.6065    4.1668 O   0  0  0  0  0  0  0  0  0  0  0  0
    4.7955    8.7909    6.1839 C   0  0  0  0  0  0  0  0  0  0  0  0
    4.3447    9.1929    7.4375 C   0  0  0  0  0  0  0  0  0  0  0  0
    3.0908    8.7916    7.8874 C   0  0  0  0  0  0  0  0  0  0  0  0
    2.2876    7.9889    7.0838 C   0  0  0  0  0  0  0  0  0  0  0  0
   -0.6299    4.3512    8.5927 H   0  0  0  0  0  0  0  0  0  0  0  0
    0.8352    3.6462    8.7448 H   0  0  0  0  0  0  0  0  0  0  0  0
    0.6648    5.2449    9.0304 H   0  0  0  0  0  0  0  0  0  0  0  0
    3.1153    5.0534    5.0534 H   0  0  0  0  0  0  0  0  0  0  0  0
    0.3085    4.4620    4.4620 H   0  0  0  0  0  0  0  0  0  0  0  0
    0.4226    2.0623    3.2170 H   0  0  0  0  0  0  0  0  0  0  0  0
    0.4226    3.2170    2.0623 H   0  0  0  0  0  0  0  0  0  0  0  0
    0.4226    1.5774    0.4226 H   0  0  0  0  0  0  0  0  0  0  0  0
    0.4226    0.4226    1.5774 H   0  0  0  0  0  0  0  0  0  0  0  0
    2.4549   -0.4549    0.6998 H   0  0  0  0  0  0  0  0  0  0  0  0
    2.4549    0.6998   -0.4549 H   0  0  0  0  0  0  0  0  0  0  0  0
    0.4226   -0.1778   -1.3325 H   0  0  0  0  0  0  0  0  0  0  0  0
    0.4226   -1.3325   -0.1778 H   0  0  0  0  0  0  0  0  0  0  0  0
    2.4549   -2.2101   -1.0554 H   0  0  0  0  0  0  0  0  0  0  0  0
    2.4549   -1.0554   -2.2101 H   0  0  0  0  0  0  0  0  0  0  0  0
    1.5774   -3.0876   -3.0876 H   0  0  0  0  0  0  0  0  0  0  0  0
    0.4226   -1.9329   -3.0876 H   0  0  0  0  0  0  0  0  0  0  0  0
   -0.4549   -2.8105   -1.0554 H   0  0  0  0  0  0  0  0  0  0  0  0
    0.6998   -3.9652   -1.0554 H   0  0  0  0  0  0  0  0  0  0  0  0
   -0.1778   -4.8428   -3.0876 H   0  0  0  0  0  0  0  0  0  0  0  0
   -1.3325   -3.6881   -3.0876 H   0  0  0  0  0  0  0  0  0  0  0  0
   -2.2101   -5.7204   -2.2101 H   0  0  0  0  0  0  0  0  0  0  0  0
   -1.0554   -5.7204   -1.0554 H   0  0  0  0  0  0  0  0  0  0  0  0
   -2.2101   -4.5657   -1.0554 H   0  0  0  0  0  0  0  0  0  0  0  0
    2.0530    6.9009    3.9910 H   0  0  0  0  0  0  0  0  0  0  0  0
    0.8983    6.9009    5.1457 H   0  0  0  0  0  0  0  0  0  0  0  0
    5.3476    7.9018    3.8545 H   0  0  0  0  0  0  0  0  0  0  0  0
    5.6967    9.0793    5.8604 H   0  0  0  0  0  0  0  0  0  0  0  0
    4.9221    9.7700    8.0151 H   0  0  0  0  0  0  0  0  0  0  0  0
    2.7668    9.0803    8.7883 H   0  0  0  0  0  0  0  0  0  0  0  0
    1.3860    7.7012    7.4070 H   0  0  0  0  0  0  0  0  0  0  0  0
  1  2  2  0  0  0  0
  2  3  1  0  0  0  0
  3  4  1  0  0  0  0
  2  5  1  0  0  0  0
  5  6  1  0  0  0  0
  6  7  1  0  0  0  0
  7  8  2  0  0  0  0
  7  9  1  0  0  0  0
  9 10  1  0  0  0  0
 10 11  1  0  0  0  0
 11 12  1  0  0  0  0
 12 13  1  0  0  0  0
 13 14  1  0  0  0  0
 14 15  1  0  0  0  0
 15 16  1  0  0  0  0
 16 17  1  0  0  0  0
 17 18  1  0  0  0  0
  5 19  1  0  0  0  0
 19 20  1  0  0  0  0
 20 21  1  0  0  0  0
 21 22  1  0  0  0  0
 21 23  2  0  0  0  0
 23 24  1  0  0  0  0
 24 25  2  0  0  0  0
 25 26  1  0  0  0  0
 26 20  2  0  0  0  0
  4 27  1  0  0  0  0
  4 28  1  0  0  0  0
  4 29  1  0  0  0  0
  5 30  1  0  0  0  0
  6 31  1  0  0  0  0
  9 32  1  0  0  0  0
  9 33  1  0  0  0  0
 11 34  1  0  0  0  0
 11 35  1  0  0  0  0
 12 36  1  0  0  0  0
 12 37  1  0  0  0  0
 13 38  1  0  0  0  0
 13 39  1  0  0  0  0
 14 40  1  0  0  0  0
 14 41  1  0  0  0  0
 15 42  1  0  0  0  0
 15 43  1  0  0  0  0
 16 44  1  0  0  0  0
 16 45  1  0  0  0  0
 17 46  1  0  0  0  0
 17 47  1  0  0  0  0
 18 48  1  0  0  0  0
 18 49  1  0  0  0  0
 18 50  1  0  0  0  0
 19 51  1  0  0  0  0
 19 52  1  0  0  0  0
 22 53  1  0  0  0  0
 23 54  1  0  0  0  0
 24 55  1  0  0  0  0
 25 56  1  0  0  0  0
 26 57  1  0  0  0  0
M  END
>  <result-rank>
18

>  <similarity>
0.950

>  <query-name>
LIG_A_1101_CC(C)CC[C@]1([R*])CCCOC1_2

>  <query-smiles>
O=C(N[C@@]1(COCCC1)CCC(C)C)[C@@H](NC(=O)C)Cc2ccc(O)cc2

>  <source>
REALspace_2019-12

>  <similarity-descriptor>
1.000;0.893;0.852;0.852;1.000;1.000;0.998;0.998;1.000;1.000;1.000;0.855;0.994;1.000;1.000;0.0

>  <similarity-descriptor-smiles>
c1ccccc1;COCCC;C=O;C=O;C;C;CC;CC;C;CN;CN;O=CO;C;C;O;

>  <reaction-name>
s_22

>  <reagent1-name>
12206138

>  <reagent1-smiles>
[R1*]NC(C(=O)OC)Cc1c(O)cccc1

>  <reagent2-name>
5635622

>  <reagent2-smiles>
[R1*]C(=O)COCCCCCCCC

$$$$
s_527a____6463780____220034
          04022015103D 1   1.00000     0.00000     0
            
 49 50  0  0  0  0            999 V2000
    7.8788    4.4274    4.2871 S   0  0  0  0  0  0  0  0  0  0  0  0
    6.4144    5.1458    4.7701 C   0  0  0  0  0  0  0  0  0  0  0  0
    6.2898    4.9526    6.1106 C   0  0  0  0  0  0  0  0  0  0  0  0
    7.3756    4.2256    6.6726 C   0  0  0  0  0  0  0  0  0  0  0  0
    8.3603    3.8426    5.8120 C   0  0  0  0  0  0  0  0  0  0  0  0
    5.4412    5.8707    3.8516 C   0  0  3  0  0  0  0  0  0  0  0  0
    5.1006    7.1776    4.4319 N   0  0  0  0  0  0  0  0  0  0  0  0
    5.3778    8.3274    3.7405 C   0  0  0  0  0  0  0  0  0  0  0  0
    5.8987    8.2675    2.6610 O   0  0  0  0  0  0  0  0  0  0  0  0
    5.0257    9.6788    4.3406 C   0  0  0  0  0  0  0  0  0  0  0  0
    4.1774    5.0406    3.6960 C   0  0  0  0  0  0  0  0  0  0  0  0
    4.4982    3.7682    2.9288 C   0  0  0  0  0  0  0  0  0  0  0  0
    5.6401    3.4714    2.7098 O   0  0  0  0  0  0  0  0  0  0  0  0
    3.4600    2.9414    2.4772 N   0  0  0  0  0  0  0  0  0  0  0  0
    3.3636    1.6408    1.8121 C   0  0  0  0  0  0  0  0  0  0  0  0
    2.0351    1.5148    2.5277 C   0  0  0  0  0  0  0  0  0  0  0  0
    1.0451    0.9291    1.6923 O   0  0  0  0  0  0  0  0  0  0  0  0
   -0.1790    0.8323    2.4055 C   0  0  0  0  0  0  0  0  0  0  0  0
   -0.2404   -0.5038    3.1275 C   0  0  0  0  0  0  0  0  0  0  0  0
   -1.5507   -0.6075    3.8909 C   0  0  0  0  0  0  0  0  0  0  0  0
   -1.6121   -1.9436    4.6130 C   0  0  0  0  0  0  0  0  0  0  0  0
   -2.9224   -2.0473    5.3764 C   0  0  0  0  0  0  0  0  0  0  0  0
    2.0030    3.0231    2.4628 C   0  0  0  0  0  0  0  0  0  0  0  0
    5.5144    5.2872    6.6462 H   0  0  0  0  0  0  0  0  0  0  0  0
    7.4143    4.0072    7.6477 H   0  0  0  0  0  0  0  0  0  0  0  0
    9.1893    3.3275    6.0297 H   0  0  0  0  0  0  0  0  0  0  0  0
    5.8648    6.0040    2.9556 H   0  0  0  0  0  0  0  0  0  0  0  0
    4.6666    7.2275    5.3314 H   0  0  0  0  0  0  0  0  0  0  0  0
    4.6021    9.5454    5.2365 H   0  0  0  0  0  0  0  0  0  0  0  0
    5.8571   10.2249    4.4429 H   0  0  0  0  0  0  0  0  0  0  0  0
    4.3862   10.1551    3.7370 H   0  0  0  0  0  0  0  0  0  0  0  0
    3.8206    4.8039    4.5997 H   0  0  0  0  0  0  0  0  0  0  0  0
    3.4916    5.5682    3.1946 H   0  0  0  0  0  0  0  0  0  0  0  0
    4.0569    0.9729    2.0827 H   0  0  0  0  0  0  0  0  0  0  0  0
    3.3070    1.6770    0.8144 H   0  0  0  0  0  0  0  0  0  0  0  0
    2.0877    1.1333    3.4506 H   0  0  0  0  0  0  0  0  0  0  0  0
   -0.9441    0.9007    1.7653 H   0  0  0  0  0  0  0  0  0  0  0  0
   -0.2355    1.5748    3.0730 H   0  0  0  0  0  0  0  0  0  0  0  0
    0.5247   -0.5722    3.7678 H   0  0  0  0  0  0  0  0  0  0  0  0
   -0.1839   -1.2463    2.4601 H   0  0  0  0  0  0  0  0  0  0  0  0
   -2.3158   -0.5391    3.2507 H   0  0  0  0  0  0  0  0  0  0  0  0
   -1.6072    0.1350    4.5584 H   0  0  0  0  0  0  0  0  0  0  0  0
   -0.8470   -2.0120    5.2532 H   0  0  0  0  0  0  0  0  0  0  0  0
   -1.5555   -2.6861    3.9455 H   0  0  0  0  0  0  0  0  0  0  0  0
   -2.9628   -2.9263    5.8514 H   0  0  0  0  0  0  0  0  0  0  0  0
   -2.9789   -1.3048    6.0438 H   0  0  0  0  0  0  0  0  0  0  0  0
   -3.6875   -1.9789    4.7361 H   0  0  0  0  0  0  0  0  0  0  0  0
    1.6080    3.4030    1.6264 H   0  0  0  0  0  0  0  0  0  0  0  0
    1.5959    3.4729    3.2578 H   0  0  0  0  0  0  0  0  0  0  0  0
  1  2  1  0  0  0  0
  2  3  2  0  0  0  0
  3  4  1  0  0  0  0
  4  5  2  0  0  0  0
  5  1  1  0  0  0  0
  2  6  1  0  0  0  0
  6  7  1  0  0  0  0
  7  8  1  0  0  0  0
  8  9  2  0  0  0  0
  8 10  1  0  0  0  0
  6 11  1  0  0  0  0
 11 12  1  0  0  0  0
 12 13  2  0  0  0  0
 12 14  1  0  0  0  0
 14 15  1  0  0  0  0
 15 16  1  0  0  0  0
 16 17  1  0  0  0  0
 17 18  1  0  0  0  0
 18 19  1  0  0  0  0
 19 20  1  0  0  0  0
 20 21  1  0  0  0  0
 21 22  1  0  0  0  0
 16 23  1  0  0  0  0
 23 14  1  0  0  0  0
  3 24  1  0  0  0  0
  4 25  1  0  0  0  0
  5 26  1  0  0  0  0
  6 27  1  0  0  0  0
  7 28  1  0  0  0  0
 10 29  1  0  0  0  0
 10 30  1  0  0  0  0
 10 31  1  0  0  0  0
 11 32  1  0  0  0  0
 11 33  1  0  0  0  0
 15 34  1  0  0  0  0
 15 35  1  0  0  0  0
 16 36  1  0  0  0  0
 18 37  1  0  0  0  0
 18 38  1  0  0  0  0
 19 39  1  0  0  0  0
 19 40  1  0  0  0  0
 20 41  1  0  0  0  0
 20 42  1  0  0  0  0
 21 43  1  0  0  0  0
 21 44  1  0  0  0  0
 22 45  1  0  0  0  0
 22 46  1  0  0  0  0
 22 47  1  0  0  0  0
 23 48  1  0  0  0  0
 23 49  1  0  0  0  0
M  END
>  <result-rank>
19

>  <similarity>
0.950

>  <query-name>
LIG_A_1101_CC(C)CC[C@]1([R*])CCCOC1_2

>  <query-smiles>
O=C(N[C@@]1(COCCC1)CCC(C)C)[C@@H](NC(=O)C)Cc2ccc(O)cc2

>  <source>
REALspace_2019-12

>  <similarity-descriptor>
0.924;0.987;0.852;0.852;1.000;1.000;0.974;0.974;0.0;1.000;1.000;1.000;1.000;1.000;0.0;0.0

>  <similarity-descriptor-smiles>
S1C=CC=C1;N1CC(C1)OC;C=O;C=O;C;C;CC;CC;;CC;N;C=O;C;CC;;

>  <reaction-name>
s_527a

>  <reagent1-name>
6463780

>  <reagent1-smiles>
[R1*]N1CC(OCCCCC)C1

>  <reagent2-name>
220034

>  <reagent2-smiles>
[R1*]C(=O)CC(NC(=O)C)C=1SC=CC1

$$$$
s_22____10436222____12624298
          04022015103D 1   1.00000     0.00000     0
            
 50 52  0  0  0  0            999 V2000
   -3.5596    2.9626    3.1573 Br  0  0  0  0  0  0  0  0  0  0  0  0
   -2.3485    1.4914    2.6994 C   0  0  0  0  0  0  0  0  0  0  0  0
   -1.1548    1.7629    2.0397 C   0  0  0  0  0  0  0  0  0  0  0  0
   -0.3061    0.7074    1.7209 C   0  0  0  0  0  0  0  0  0  0  0  0
   -0.6365   -0.6023    2.0520 C   0  0  0  0  0  0  0  0  0  0  0  0
   -1.8357   -0.8516    2.7112 C   0  0  0  0  0  0  0  0  0  0  0  0
   -2.6984    0.1889    3.0392 C   0  0  0  0  0  0  0  0  0  0  0  0
    1.0000    1.0000    1.0000 C   0  0  3  0  0  0  0  0  0  0  0  0
    1.8487    1.8487    1.8487 N   0  0  0  0  0  0  0  0  0  0  0  0
    3.0831    1.4052    2.2442 C   0  0  0  0  0  0  0  0  0  0  0  0
    3.4716    0.3240    1.8978 O   0  0  0  0  0  0  0  0  0  0  0  0
    3.9607    2.2828    3.1218 C   0  0  0  0  0  0  0  0  0  0  0  0
    0.7075    1.7208   -0.3059 C   0  0  0  0  0  0  0  0  0  0  0  0
    0.9606    2.8886   -0.4164 O   0  0  0  0  0  0  0  0  0  0  0  0
    0.1416    1.0209   -1.3818 N   0  0  0  0  0  0  0  0  0  0  0  0
   -0.0219    1.7287   -2.6640 C   0  0  0  0  0  0  0  0  0  0  0  0
    1.1735    1.5408   -3.5891 C   0  0  3  0  0  0  0  0  0  0  0  0
    1.1131    2.5454   -4.7283 C   0  0  0  0  0  0  0  0  0  0  0  0
   -0.2088    2.4918   -5.4684 C   0  0  0  0  0  0  0  0  0  0  0  0
    0.5872    2.7512   -6.7285 C   0  0  0  0  0  0  0  0  0  0  0  0
    1.7460    2.0749   -6.0195 C   0  0  0  0  0  0  0  0  0  0  0  0
    1.2685    0.1099   -4.1151 C   0  0  0  0  0  0  0  0  0  0  0  0
    1.2671   -0.9127   -3.1182 O   0  0  0  0  0  0  0  0  0  0  0  0
   -0.0066   -1.1620   -2.5203 C   0  0  0  0  0  0  0  0  0  0  0  0
   -0.2787   -0.3838   -1.2380 C   0  0  0  0  0  0  0  0  0  0  0  0
   -0.9103    2.7020    1.7983 H   0  0  0  0  0  0  0  0  0  0  0  0
   -0.0202   -1.3547    1.8193 H   0  0  0  0  0  0  0  0  0  0  0  0
   -2.0807   -1.7907    2.9523 H   0  0  0  0  0  0  0  0  0  0  0  0
   -3.5591    0.0030    3.5133 H   0  0  0  0  0  0  0  0  0  0  0  0
    1.4742    0.1409    0.8075 H   0  0  0  0  0  0  0  0  0  0  0  0
    1.5250    2.7498    2.1374 H   0  0  0  0  0  0  0  0  0  0  0  0
    3.4865    3.1419    3.3142 H   0  0  0  0  0  0  0  0  0  0  0  0
    4.1532    1.8086    3.9809 H   0  0  0  0  0  0  0  0  0  0  0  0
    4.8198    2.4753    2.6475 H   0  0  0  0  0  0  0  0  0  0  0  0
   -0.1346    2.7051   -2.4795 H   0  0  0  0  0  0  0  0  0  0  0  0
   -0.8397    1.3793   -3.1214 H   0  0  0  0  0  0  0  0  0  0  0  0
    2.0015    1.7277   -3.0604 H   0  0  0  0  0  0  0  0  0  0  0  0
    1.3860    3.4699   -4.4621 H   0  0  0  0  0  0  0  0  0  0  0  0
   -0.8562    3.2138   -5.2245 H   0  0  0  0  0  0  0  0  0  0  0  0
   -0.6711    1.6056   -5.4386 H   0  0  0  0  0  0  0  0  0  0  0  0
    0.7314    3.7170   -6.9442 H   0  0  0  0  0  0  0  0  0  0  0  0
    0.2551    2.2740   -7.5421 H   0  0  0  0  0  0  0  0  0  0  0  0
    1.7848    1.0819   -6.1309 H   0  0  0  0  0  0  0  0  0  0  0  0
    2.6447    2.4676   -6.2145 H   0  0  0  0  0  0  0  0  0  0  0  0
    0.4882   -0.0484   -4.7200 H   0  0  0  0  0  0  0  0  0  0  0  0
    2.1173    0.0295   -4.6378 H   0  0  0  0  0  0  0  0  0  0  0  0
   -0.0648   -2.1378   -2.3094 H   0  0  0  0  0  0  0  0  0  0  0  0
   -0.7139   -0.9218   -3.1851 H   0  0  0  0  0  0  0  0  0  0  0  0
   -1.2578   -0.4145   -1.0370 H   0  0  0  0  0  0  0  0  0  0  0  0
    0.2293   -0.8030   -0.4856 H   0  0  0  0  0  0  0  0  0  0  0  0
  1  2  1  0  0  0  0
  2  3  1  0  0  0  0
  3  4  2  0  0  0  0
  4  5  1  0  0  0  0
  5  6  2  0  0  0  0
  6  7  1  0  0  0  0
  7  2  2  0  0  0  0
  4  8  1  0  0  0  0
  8  9  1  0  0  0  0
  9 10  1  0  0  0  0
 10 11  2  0  0  0  0
 10 12  1  0  0  0  0
  8 13  1  0  0  0  0
 13 14  2  0  0  0  0
 13 15  1  0  0  0  0
 15 16  1  0  0  0  0
 16 17  1  0  0  0  0
 17 18  1  0  0  0  0
 18 19  1  0  0  0  0
 19 20  1  0  0  0  0
 20 21  1  0  0  0  0
 21 18  1  0  0  0  0
 17 22  1  0  0  0  0
 22 23  1  0  0  0  0
 23 24  1  0  0  0  0
 24 25  1  0  0  0  0
 25 15  1  0  0  0  0
  3 26  1  0  0  0  0
  5 27  1  0  0  0  0
  6 28  1  0  0  0  0
  7 29  1  0  0  0  0
  8 30  1  0  0  0  0
  9 31  1  0  0  0  0
 12 32  1  0  0  0  0
 12 33  1  0  0  0  0
 12 34  1  0  0  0  0
 16 35  1  0  0  0  0
 16 36  1  0  0  0  0
 17 37  1  0  0  0  0
 18 38  1  0  0  0  0
 19 39  1  0  0  0  0
 19 40  1  0  0  0  0
 20 41  1  0  0  0  0
 20 42  1  0  0  0  0
 21 43  1  0  0  0  0
 21 44  1  0  0  0  0
 22 45  1  0  0  0  0
 22 46  1  0  0  0  0
 24 47  1  0  0  0  0
 24 48  1  0  0  0  0
 25 49  1  0  0  0  0
 25 50  1  0  0  0  0
M  END
>  <result-rank>
20

>  <similarity>
0.949

>  <query-name>
LIG_A_1101_CC(C)CC[C@]1([R*])CCCOC1_2

>  <query-smiles>
O=C(N[C@@]1(COCCC1)CCC(C)C)[C@@H](NC(=O)C)Cc2ccc(O)cc2

>  <source>
REALspace_2019-12

>  <similarity-descriptor>
0.969;0.989;0.852;0.852;0.989;0.880;0.880;0.880;0.880;1.000;1.000;1.000;1.000;0.969;0.0;0.0

>  <similarity-descriptor-smiles>
Brc1ccccc1;N1CCOCCC1;C=O;C=O;N1CCOCCC1;C1CCC1;C1CCC1;C1CCC1;C1CCC1;C;N;C=O;C;Brc1ccccc1;;

>  <reaction-name>
s_22

>  <reagent1-name>
10436222

>  <reagent1-smiles>
[R1*]N1CC(C2CCC2)COCC1

>  <reagent2-name>
12624298

>  <reagent2-smiles>
[R1*]C(=O)C(NC(=O)C)c1cc(Br)ccc1

$$$$
s_22____10909926____5637262
          04022015103D 1   1.00000     0.00000     0
            
 50 52  0  0  0  0            999 V2000
    0.9459    4.3258   -1.3457 F   0  0  0  0  0  0  0  0  0  0  0  0
   -0.1340    4.0813   -0.6089 C   0  0  0  0  0  0  0  0  0  0  0  0
   -0.3186    2.8158   -0.0615 C   0  0  0  0  0  0  0  0  0  0  0  0
   -1.4402    2.5375    0.7127 C   0  0  0  0  0  0  0  0  0  0  0  0
   -2.3783    3.5409    0.9350 C   0  0  0  0  0  0  0  0  0  0  0  0
   -2.1884    4.8042    0.3852 C   0  0  0  0  0  0  0  0  0  0  0  0
   -3.0856    5.7616    0.5985 F   0  0  0  0  0  0  0  0  0  0  0  0
   -1.0691    5.0872   -0.3898 C   0  0  0  0  0  0  0  0  0  0  0  0
    0.7075    1.7208   -0.3059 C   0  0  3  0  0  0  0  0  0  0  0  0
    0.1774    0.7625   -1.2864 N   0  0  0  0  0  0  0  0  0  0  0  0
    0.8400    0.5533   -2.4671 C   0  0  0  0  0  0  0  0  0  0  0  0
    1.8532    1.1524   -2.7009 O   0  0  0  0  0  0  0  0  0  0  0  0
    0.2918   -0.4376   -3.4811 C   0  0  0  0  0  0  0  0  0  0  0  0
    1.0000    1.0000    1.0000 C   0  0  0  0  0  0  0  0  0  0  0  0
    1.8776    1.8776    1.8776 C   0  0  0  0  0  0  0  0  0  0  0  0
    1.9688    3.0524    1.6507 O   0  0  0  0  0  0  0  0  0  0  0  0
    2.5644    1.3273    2.9275 N   0  0  0  0  0  0  0  0  0  0  0  0
    3.4134    2.1763    3.7765 C   0  0  3  0  0  0  0  0  0  0  0  0
    4.8768    1.7721    3.7962 C   0  0  0  0  0  0  0  0  0  0  0  0
    4.8222    2.0546    5.2970 C   0  0  3  0  0  0  0  0  0  0  0  0
    5.5757    1.1349    6.0740 O   0  0  0  0  0  0  0  0  0  0  0  0
    5.4659    1.4750    7.4483 C   0  0  0  0  0  0  0  0  0  0  0  0
    3.3452    1.7259    5.2256 C   0  0  0  0  0  0  0  0  0  0  0  0
    5.8760    2.3755    2.8345 C   0  0  0  0  0  0  0  0  0  0  0  0
    6.6686    1.0816    2.9343 C   0  0  0  0  0  0  0  0  0  0  0  0
    5.3198    0.4513    3.2096 C   0  0  0  0  0  0  0  0  0  0  0  0
   -1.5708    1.6269    1.1049 H   0  0  0  0  0  0  0  0  0  0  0  0
   -3.1888    3.3538    1.4900 H   0  0  0  0  0  0  0  0  0  0  0  0
   -0.9389    5.9976   -0.7826 H   0  0  0  0  0  0  0  0  0  0  0  0
    1.5505    2.1267   -0.6586 H   0  0  0  0  0  0  0  0  0  0  0  0
   -0.6669    0.2633   -1.0917 H   0  0  0  0  0  0  0  0  0  0  0  0
   -0.5512   -0.8435   -3.1283 H   0  0  0  0  0  0  0  0  0  0  0  0
    0.0994    0.0366   -4.3402 H   0  0  0  0  0  0  0  0  0  0  0  0
    0.9667   -1.1578   -3.6418 H   0  0  0  0  0  0  0  0  0  0  0  0
    0.1409    0.8075    1.4742 H   0  0  0  0  0  0  0  0  0  0  0  0
    1.4742    0.1409    0.8075 H   0  0  0  0  0  0  0  0  0  0  0  0
    2.4883    0.3483    3.1166 H   0  0  0  0  0  0  0  0  0  0  0  0
    3.2645    3.1568    3.6485 H   0  0  0  0  0  0  0  0  0  0  0  0
    5.0047    3.0105    5.5271 H   0  0  0  0  0  0  0  0  0  0  0  0
    5.9964    0.8274    7.9953 H   0  0  0  0  0  0  0  0  0  0  0  0
    5.8183    2.3997    7.5919 H   0  0  0  0  0  0  0  0  0  0  0  0
    4.5058    1.4373    7.7254 H   0  0  0  0  0  0  0  0  0  0  0  0
    2.7606    2.2852    5.8132 H   0  0  0  0  0  0  0  0  0  0  0  0
    3.1222    0.7598    5.3560 H   0  0  0  0  0  0  0  0  0  0  0  0
    6.3526    3.1828    3.1825 H   0  0  0  0  0  0  0  0  0  0  0  0
    5.5113    2.5704    1.9240 H   0  0  0  0  0  0  0  0  0  0  0  0
    7.3232    1.0380    3.6889 H   0  0  0  0  0  0  0  0  0  0  0  0
    7.1141    0.7866    2.0890 H   0  0  0  0  0  0  0  0  0  0  0  0
    4.8177    0.1718    2.3912 H   0  0  0  0  0  0  0  0  0  0  0  0
    5.3413   -0.3060    3.8623 H   0  0  0  0  0  0  0  0  0  0  0  0
  1  2  1  0  0  0  0
  2  3  1  0  0  0  0
  3  4  2  0  0  0  0
  4  5  1  0  0  0  0
  5  6  2  0  0  0  0
  6  7  1  0  0  0  0
  6  8  1  0  0  0  0
  8  2  2  0  0  0  0
  3  9  1  0  0  0  0
  9 10  1  0  0  0  0
 10 11  1  0  0  0  0
 11 12  2  0  0  0  0
 11 13  1  0  0  0  0
  9 14  1  0  0  0  0
 14 15  1  0  0  0  0
 15 16  2  0  0  0  0
 15 17  1  0  0  0  0
 17 18  1  0  0  0  0
 18 19  1  0  0  0  0
 19 20  1  0  0  0  0
 20 21  1  0  0  0  0
 21 22  1  0  0  0  0
 20 23  1  0  0  0  0
 23 18  1  0  0  0  0
 19 24  1  0  0  0  0
 24 25  1  0  0  0  0
 25 26  1  0  0  0  0
 26 19  1  0  0  0  0
  4 27  1  0  0  0  0
  5 28  1  0  0  0  0
  8 29  1  0  0  0  0
  9 30  1  0  0  0  0
 10 31  1  0  0  0  0
 13 32  1  0  0  0  0
 13 33  1  0  0  0  0
 13 34  1  0  0  0  0
 14 35  1  0  0  0  0
 14 36  1  0  0  0  0
 17 37  1  0  0  0  0
 18 38  1  0  0  0  0
 20 39  1  0  0  0  0
 22 40  1  0  0  0  0
 22 41  1  0  0  0  0
 22 42  1  0  0  0  0
 23 43  1  0  0  0  0
 23 44  1  0  0  0  0
 24 45  1  0  0  0  0
 24 46  1  0  0  0  0
 25 47  1  0  0  0  0
 25 48  1  0  0  0  0
 26 49  1  0  0  0  0
 26 50  1  0  0  0  0
M  END
>  <result-rank>
21

>  <similarity>
0.949

>  <query-name>
LIG_A_1101_CC(C)CC[C@]1([R*])CCCOC1_2

>  <query-smiles>
O=C(N[C@@]1(COCCC1)CCC(C)C)[C@@H](NC(=O)C)Cc2ccc(O)cc2

>  <source>
REALspace_2019-12

>  <similarity-descriptor>
0.948;0.984;1.000;1.000;0.882;0.882;0.882;0.0;0.0;1.000;1.000;1.000;1.000;1.000;0.0;0.0

>  <similarity-descriptor-smiles>
Fc1cc(ccc1)F;C1CC(C1)OC;C=O;N;C1CCC1;C1CCC1;C1CCC1;;;CC;N;C=O;C;CC;;

>  <reaction-name>
s_22

>  <reagent1-name>
10909926

>  <reagent1-smiles>
[R1*]NC1C2(C(OC)C1)CCC2

>  <reagent2-name>
5637262

>  <reagent2-smiles>
[R1*]C(=O)CC(NC(=O)C)c1c(F)cc(F)cc1

$$$$
s_22____11765390____220032
          04022015103D 1   1.00000     0.00000     0
            
 50 52  0  0  0  0            999 V2000
    4.5590    0.9700    2.3261 S   0  0  0  0  0  0  0  0  0  0  0  0
    2.8837    1.0089    2.6188 C   0  0  0  0  0  0  0  0  0  0  0  0
    2.6270    0.1328    3.6270 C   0  0  0  0  0  0  0  0  0  0  0  0
    3.7931   -0.5305    4.0999 C   0  0  0  0  0  0  0  0  0  0  0  0
    4.9683   -0.1980    3.4954 C   0  0  0  0  0  0  0  0  0  0  0  0
    1.8776    1.8776    1.8776 C   0  0  3  0  0  0  0  0  0  0  0  0
    1.0385    2.5935    2.8494 N   0  0  0  0  0  0  0  0  0  0  0  0
    1.0211    3.9634    2.8612 C   0  0  0  0  0  0  0  0  0  0  0  0
    1.6907    4.5788    2.0783 O   0  0  0  0  0  0  0  0  0  0  0  0
    0.1535    4.7037    3.8661 C   0  0  0  0  0  0  0  0  0  0  0  0
    1.0000    1.0000    1.0000 C   0  0  0  0  0  0  0  0  0  0  0  0
    1.8776    0.1224    0.1224 C   0  0  0  0  0  0  0  0  0  0  0  0
    2.9191    0.5450   -0.2979 O   0  0  0  0  0  0  0  0  0  0  0  0
    1.4795   -1.1510   -0.1886 N   0  0  0  0  0  0  0  0  0  0  0  0
    2.3282   -1.9997   -1.0373 C   0  0  0  0  0  0  0  0  0  0  0  0
    3.4496   -2.5959   -0.1986 C   0  0  3  0  0  0  0  0  0  0  0  0
    4.2614   -3.4088   -1.0146 O   0  0  0  0  0  0  0  0  0  0  0  0
    4.8226   -4.4699   -0.2306 C   0  0  0  0  0  0  0  0  0  0  0  0
    4.0983   -4.4224    1.0960 C   0  0  0  0  0  0  0  0  0  0  0  0
    2.8640   -3.6086    0.7593 C   0  0  0  0  0  0  0  0  0  0  0  0
    6.3100   -4.5920    0.0579 C   0  0  0  0  0  0  0  0  0  0  0  0
    6.9261   -5.1384   -1.2146 C   0  0  0  0  0  0  0  0  0  0  0  0
    5.8227   -5.9672   -1.8424 C   0  0  0  0  0  0  0  0  0  0  0  0
    4.6339   -5.8172   -0.9106 C   0  0  0  0  0  0  0  0  0  0  0  0
    1.7124   -0.0284    3.9978 H   0  0  0  0  0  0  0  0  0  0  0  0
    3.7527   -1.2051    4.8369 H   0  0  0  0  0  0  0  0  0  0  0  0
    5.8776   -0.5625    3.6959 H   0  0  0  0  0  0  0  0  0  0  0  0
    2.3646    2.5386    1.3068 H   0  0  0  0  0  0  0  0  0  0  0  0
    0.4806    2.0807    3.5018 H   0  0  0  0  0  0  0  0  0  0  0  0
   -0.3335    4.0426    4.4368 H   0  0  0  0  0  0  0  0  0  0  0  0
    0.7308    5.2810    4.4434 H   0  0  0  0  0  0  0  0  0  0  0  0
   -0.5076    5.2744    3.3790 H   0  0  0  0  0  0  0  0  0  0  0  0
    0.4226    0.4226    1.5774 H   0  0  0  0  0  0  0  0  0  0  0  0
    0.4226    1.5774    0.4226 H   0  0  0  0  0  0  0  0  0  0  0  0
    0.6116   -1.5032    0.1617 H   0  0  0  0  0  0  0  0  0  0  0  0
    2.7199   -1.4486   -1.7741 H   0  0  0  0  0  0  0  0  0  0  0  0
    1.7771   -2.7365   -1.4290 H   0  0  0  0  0  0  0  0  0  0  0  0
    3.9787   -1.8923    0.2758 H   0  0  0  0  0  0  0  0  0  0  0  0
    4.6516   -3.9693    1.7949 H   0  0  0  0  0  0  0  0  0  0  0  0
    3.8532   -5.3403    1.4082 H   0  0  0  0  0  0  0  0  0  0  0  0
    2.1618   -4.1687    0.3196 H   0  0  0  0  0  0  0  0  0  0  0  0
    2.4796   -3.1689    1.5710 H   0  0  0  0  0  0  0  0  0  0  0  0
    6.4677   -5.2199    0.8200 H   0  0  0  0  0  0  0  0  0  0  0  0
    6.6980   -3.6969    0.2776 H   0  0  0  0  0  0  0  0  0  0  0  0
    7.7214   -5.7077   -1.0065 H   0  0  0  0  0  0  0  0  0  0  0  0
    7.1993   -4.3937   -1.8235 H   0  0  0  0  0  0  0  0  0  0  0  0
    5.5997   -5.6215   -2.7539 H   0  0  0  0  0  0  0  0  0  0  0  0
    6.0983   -6.9262   -1.9078 H   0  0  0  0  0  0  0  0  0  0  0  0
    3.7789   -5.8310   -1.4290 H   0  0  0  0  0  0  0  0  0  0  0  0
    4.6250   -6.5530   -0.2334 H   0  0  0  0  0  0  0  0  0  0  0  0
  1  2  1  0  0  0  0
  2  3  2  0  0  0  0
  3  4  1  0  0  0  0
  4  5  2  0  0  0  0
  5  1  1  0  0  0  0
  2  6  1  0  0  0  0
  6  7  1  0  0  0  0
  7  8  1  0  0  0  0
  8  9  2  0  0  0  0
  8 10  1  0  0  0  0
  6 11  1  0  0  0  0
 11 12  1  0  0  0  0
 12 13  2  0  0  0  0
 12 14  1  0  0  0  0
 14 15  1  0  0  0  0
 15 16  1  0  0  0  0
 16 17  1  0  0  0  0
 17 18  1  0  0  0  0
 18 19  1  0  0  0  0
 19 20  1  0  0  0  0
 20 16  1  0  0  0  0
 18 21  1  0  0  0  0
 21 22  1  0  0  0  0
 22 23  1  0  0  0  0
 23 24  1  0  0  0  0
 24 18  1  0  0  0  0
  3 25  1  0  0  0  0
  4 26  1  0  0  0  0
  5 27  1  0  0  0  0
  6 28  1  0  0  0  0
  7 29  1  0  0  0  0
 10 30  1  0  0  0  0
 10 31  1  0  0  0  0
 10 32  1  0  0  0  0
 11 33  1  0  0  0  0
 11 34  1  0  0  0  0
 14 35  1  0  0  0  0
 15 36  1  0  0  0  0
 15 37  1  0  0  0  0
 16 38  1  0  0  0  0
 19 39  1  0  0  0  0
 19 40  1  0  0  0  0
 20 41  1  0  0  0  0
 20 42  1  0  0  0  0
 21 43  1  0  0  0  0
 21 44  1  0  0  0  0
 22 45  1  0  0  0  0
 22 46  1  0  0  0  0
 23 47  1  0  0  0  0
 23 48  1  0  0  0  0
 24 49  1  0  0  0  0
 24 50  1  0  0  0  0
M  END
>  <result-rank>
22

>  <similarity>
0.949

>  <query-name>
LIG_A_1101_CC(C)CC[C@]1([R*])CCCOC1_2

>  <query-smiles>
O=C(N[C@@]1(COCCC1)CCC(C)C)[C@@H](NC(=O)C)Cc2ccc(O)cc2

>  <source>
REALspace_2019-12

>  <similarity-descriptor>
0.924;0.982;1.000;1.000;0.897;0.897;0.897;0.897;0.0;1.000;1.000;1.000;1.000;1.000;0.0;0.0

>  <similarity-descriptor-smiles>
S1C=CC=C1;CC1CCCO1;C=O;N;C1CCCC1;C1CCCC1;C1CCCC1;C1CCCC1;;CC;N;C=O;C;CC;;

>  <reaction-name>
s_22

>  <reagent1-name>
11765390

>  <reagent1-smiles>
[R1*]NCC1OC2(CC1)CCCC2

>  <reagent2-name>
220032

>  <reagent2-smiles>
[R1*]C(=O)CC(NC(=O)C)C=1SC=CC1

$$$$
s_22____2068478____59693
          04022015103D 1   1.00000     0.00000     0
            
 63 63  0  0  0  0            999 V2000
    0.0841    4.4987    4.6268 O   0  0  0  0  0  0  0  0  0  0  0  0
    1.2755    4.4837    4.4837 C   0  0  0  0  0  0  0  0  0  0  0  0
    1.8487    3.6038    3.6038 N   0  0  0  0  0  0  0  0  0  0  0  0
    1.0000    2.7551    2.7551 C   0  0  0  0  0  0  0  0  0  0  0  0
    1.8776    1.8776    1.8776 C   0  0  0  0  0  0  0  0  0  0  0  0
    1.0000    1.0000    1.0000 C   0  0  0  0  0  0  0  0  0  0  0  0
    1.8198    0.1802    0.1802 O   0  0  0  0  0  0  0  0  0  0  0  0
    1.0000   -0.6397   -0.6397 C   0  0  0  0  0  0  0  0  0  0  0  0
    1.8776   -1.5172   -1.5172 C   0  0  0  0  0  0  0  0  0  0  0  0
    1.0000   -2.3948   -2.3948 C   0  0  0  0  0  0  0  0  0  0  0  0
    1.8776   -3.2724   -3.2724 C   0  0  0  0  0  0  0  0  0  0  0  0
    1.0000   -4.1500   -4.1500 C   0  0  0  0  0  0  0  0  0  0  0  0
    1.8776   -5.0275   -5.0275 C   0  0  0  0  0  0  0  0  0  0  0  0
    2.7551   -4.1500   -5.9051 C   0  0  0  0  0  0  0  0  0  0  0  0
    3.6327   -5.0275   -6.7827 C   0  0  0  0  0  0  0  0  0  0  0  0
    2.1485    5.4409    5.2787 C   0  0  0  0  0  0  0  0  0  0  0  0
    1.3600    5.9842    6.4592 C   0  0  3  0  0  0  0  0  0  0  0  0
    2.2529    6.7658    7.3267 N   0  0  0  0  0  0  0  0  0  0  0  0
    2.4354    6.3957    8.6331 C   0  0  0  0  0  0  0  0  0  0  0  0
    1.8663    5.4334    9.0691 O   0  0  0  0  0  0  0  0  0  0  0  0
    3.3586    7.2039    9.5302 C   0  0  0  0  0  0  0  0  0  0  0  0
    0.2380    6.8758    5.9519 C   0  0  0  0  0  0  0  0  0  0  0  0
    0.5385    7.9751    5.1544 C   0  0  0  0  0  0  0  0  0  0  0  0
   -0.4911    8.7889    4.6931 C   0  0  0  0  0  0  0  0  0  0  0  0
   -1.8096    8.4999    5.0288 C   0  0  0  0  0  0  0  0  0  0  0  0
   -2.0980    7.3989    5.8258 C   0  0  0  0  0  0  0  0  0  0  0  0
   -1.0773    6.5779    6.2939 C   0  0  0  0  0  0  0  0  0  0  0  0
    2.8445    3.5390    3.5390 H   0  0  0  0  0  0  0  0  0  0  0  0
    0.4226    3.3325    2.1778 H   0  0  0  0  0  0  0  0  0  0  0  0
    0.4226    2.1778    3.3325 H   0  0  0  0  0  0  0  0  0  0  0  0
    2.4549    2.4549    1.3002 H   0  0  0  0  0  0  0  0  0  0  0  0
    2.4549    1.3002    2.4549 H   0  0  0  0  0  0  0  0  0  0  0  0
    0.4226    0.4226    1.5774 H   0  0  0  0  0  0  0  0  0  0  0  0
    0.4226    1.5774    0.4226 H   0  0  0  0  0  0  0  0  0  0  0  0
    0.4226   -0.0623   -1.2170 H   0  0  0  0  0  0  0  0  0  0  0  0
    0.4226   -1.2170   -0.0623 H   0  0  0  0  0  0  0  0  0  0  0  0
    2.4549   -2.0946   -0.9399 H   0  0  0  0  0  0  0  0  0  0  0  0
    2.4549   -0.9399   -2.0946 H   0  0  0  0  0  0  0  0  0  0  0  0
    0.4226   -1.8175   -2.9722 H   0  0  0  0  0  0  0  0  0  0  0  0
    0.4226   -2.9722   -1.8175 H   0  0  0  0  0  0  0  0  0  0  0  0
    2.4549   -3.8497   -2.6950 H   0  0  0  0  0  0  0  0  0  0  0  0
    2.4549   -2.6950   -3.8497 H   0  0  0  0  0  0  0  0  0  0  0  0
    0.4226   -3.5726   -4.7273 H   0  0  0  0  0  0  0  0  0  0  0  0
    0.4226   -4.7273   -3.5726 H   0  0  0  0  0  0  0  0  0  0  0  0
    1.3002   -5.6049   -5.6049 H   0  0  0  0  0  0  0  0  0  0  0  0
    2.4549   -5.6049   -4.4502 H   0  0  0  0  0  0  0  0  0  0  0  0
    3.3325   -3.5726   -5.3278 H   0  0  0  0  0  0  0  0  0  0  0  0
    2.1778   -3.5726   -6.4825 H   0  0  0  0  0  0  0  0  0  0  0  0
    4.2101   -4.4502   -7.3600 H   0  0  0  0  0  0  0  0  0  0  0  0
    4.2101   -5.6049   -6.2053 H   0  0  0  0  0  0  0  0  0  0  0  0
    3.0554   -5.6049   -7.3600 H   0  0  0  0  0  0  0  0  0  0  0  0
    2.4333    6.1984    4.6912 H   0  0  0  0  0  0  0  0  0  0  0  0
    2.9567    4.9558    5.6125 H   0  0  0  0  0  0  0  0  0  0  0  0
    0.9719    5.2233    6.9793 H   0  0  0  0  0  0  0  0  0  0  0  0
    2.7271    7.5678    6.9634 H   0  0  0  0  0  0  0  0  0  0  0  0
    3.7467    7.9648    9.0101 H   0  0  0  0  0  0  0  0  0  0  0  0
    2.8399    7.5613   10.3068 H   0  0  0  0  0  0  0  0  0  0  0  0
    4.0967    6.6174    9.8638 H   0  0  0  0  0  0  0  0  0  0  0  0
    1.4876    8.1789    4.9144 H   0  0  0  0  0  0  0  0  0  0  0  0
   -0.2834    9.5816    4.1200 H   0  0  0  0  0  0  0  0  0  0  0  0
   -2.5499    9.0845    4.6967 H   0  0  0  0  0  0  0  0  0  0  0  0
   -3.0474    7.1950    6.0649 H   0  0  0  0  0  0  0  0  0  0  0  0
   -1.2858    5.7856    6.8674 H   0  0  0  0  0  0  0  0  0  0  0  0
  1  2  2  0  0  0  0
  2  3  1  0  0  0  0
  3  4  1  0  0  0  0
  4  5  1  0  0  0  0
  5  6  1  0  0  0  0
  6  7  1  0  0  0  0
  7  8  1  0  0  0  0
  8  9  1  0  0  0  0
  9 10  1  0  0  0  0
 10 11  1  0  0  0  0
 11 12  1  0  0  0  0
 12 13  1  0  0  0  0
 13 14  1  0  0  0  0
 14 15  1  0  0  0  0
  2 16  1  0  0  0  0
 16 17  1  0  0  0  0
 17 18  1  0  0  0  0
 18 19  1  0  0  0  0
 19 20  2  0  0  0  0
 19 21  1  0  0  0  0
 17 22  1  0  0  0  0
 22 23  1  0  0  0  0
 23 24  2  0  0  0  0
 24 25  1  0  0  0  0
 25 26  2  0  0  0  0
 26 27  1  0  0  0  0
 27 22  2  0  0  0  0
  3 28  1  0  0  0  0
  4 29  1  0  0  0  0
  4 30  1  0  0  0  0
  5 31  1  0  0  0  0
  5 32  1  0  0  0  0
  6 33  1  0  0  0  0
  6 34  1  0  0  0  0
  8 35  1  0  0  0  0
  8 36  1  0  0  0  0
  9 37  1  0  0  0  0
  9 38  1  0  0  0  0
 10 39  1  0  0  0  0
 10 40  1  0  0  0  0
 11 41  1  0  0  0  0
 11 42  1  0  0  0  0
 12 43  1  0  0  0  0
 12 44  1  0  0  0  0
 13 45  1  0  0  0  0
 13 46  1  0  0  0  0
 14 47  1  0  0  0  0
 14 48  1  0  0  0  0
 15 49  1  0  0  0  0
 15 50  1  0  0  0  0
 15 51  1  0  0  0  0
 16 52  1  0  0  0  0
 16 53  1  0  0  0  0
 17 54  1  0  0  0  0
 18 55  1  0  0  0  0
 21 56  1  0  0  0  0
 21 57  1  0  0  0  0
 21 58  1  0  0  0  0
 23 59  1  0  0  0  0
 24 60  1  0  0  0  0
 25 61  1  0  0  0  0
 26 62  1  0  0  0  0
 27 63  1  0  0  0  0
M  END
>  <result-rank>
23

>  <similarity>
0.949

>  <query-name>
LIG_A_1101_CC(C)CC[C@]1([R*])CCCOC1_2

>  <query-smiles>
O=C(N[C@@]1(COCCC1)CCC(C)C)[C@@H](NC(=O)C)Cc2ccc(O)cc2

>  <source>
REALspace_2019-12

>  <similarity-descriptor>
0.960;0.895;1.000;1.000;1.000;1.000;0.998;0.998;0.949;1.000;1.000;1.000;1.000;1.000;0.0;0.100

>  <similarity-descriptor-smiles>
c1ccccc1;CCCOC;O=C;N;C;C;CC;CC;C;CC;N;C=O;C;CC;;C.C

>  <reaction-name>
s_22

>  <reagent1-name>
2068478

>  <reagent1-smiles>
[R1*]NCCCOCCCCCCCC

>  <reagent2-name>
59693

>  <reagent2-smiles>
[R1*]C(=O)CC(NC(=O)C)c1ccccc1

$$$$
s_2708____6465958____6547338
          04022015103D 1   1.00000     0.00000     0
            
 60 61  0  0  0  0            999 V2000
    0.9150    0.7033   -1.2058 O   0  0  0  0  0  0  0  0  0  0  0  0
    0.3150    0.8418   -0.1759 C   0  0  0  0  0  0  0  0  0  0  0  0
    1.0000    1.0000    1.0000 N   0  0  0  0  0  0  0  0  0  0  0  0
    2.4693    1.0000    1.0000 C   0  0  3  0  0  0  0  0  0  0  0  0
    3.0529   -0.1066    1.8541 C   0  0  0  0  0  0  0  0  0  0  0  0
    4.0937    0.9221    2.2495 C   0  0  3  0  0  0  0  0  0  0  0  0
    4.4593    0.8391    3.6191 O   0  0  0  0  0  0  0  0  0  0  0  0
    5.4334    1.8306    3.9098 C   0  0  0  0  0  0  0  0  0  0  0  0
    5.8248    1.7418    5.3759 C   0  0  0  0  0  0  0  0  0  0  0  0
    6.8675    2.8032    5.6871 C   0  0  0  0  0  0  0  0  0  0  0  0
    7.2589    2.7144    7.1531 C   0  0  0  0  0  0  0  0  0  0  0  0
    3.0430    1.9784    1.9972 C   0  0  0  0  0  0  0  0  0  0  0  0
    3.6273   -1.2561    1.0423 C   0  0  0  0  0  0  0  0  0  0  0  0
    2.1496   -0.5843    2.9814 C   0  0  0  0  0  0  0  0  0  0  0  0
   -1.0550    0.8418   -0.1759 N   0  0  0  0  0  0  0  0  0  0  0  0
   -1.7900    0.6721   -1.4376 C   0  0  3  0  0  0  0  0  0  0  0  0
   -2.9209   -0.3231   -1.2352 C   0  0  0  0  0  0  0  0  0  0  0  0
   -3.5948   -0.5309   -2.4677 O   0  0  0  0  0  0  0  0  0  0  0  0
   -4.6513   -1.4606   -2.2787 C   0  0  0  0  0  0  0  0  0  0  0  0
   -2.3645    2.0102   -1.8732 C   0  0  0  0  0  0  0  0  0  0  0  0
   -2.6632    2.8570   -0.6463 C   0  0  0  0  0  0  0  0  0  0  0  0
   -1.8251    3.9186   -0.3212 C   0  0  0  0  0  0  0  0  0  0  0  0
   -2.1016    4.6903    0.8027 C   0  0  0  0  0  0  0  0  0  0  0  0
   -3.2099    4.3990    1.5911 C   0  0  0  0  0  0  0  0  0  0  0  0
   -4.0403    3.3365    1.2563 C   0  0  0  0  0  0  0  0  0  0  0  0
   -3.7743    2.5569    0.1354 C   0  0  0  0  0  0  0  0  0  0  0  0
    0.5000    1.1154    1.8583 H   0  0  0  0  0  0  0  0  0  0  0  0
    2.8749    1.0654    0.0883 H   0  0  0  0  0  0  0  0  0  0  0  0
    4.8732    0.9696    1.6249 H   0  0  0  0  0  0  0  0  0  0  0  0
    5.0541    2.7363    3.7203 H   0  0  0  0  0  0  0  0  0  0  0  0
    6.2412    1.6816    3.3395 H   0  0  0  0  0  0  0  0  0  0  0  0
    6.2042    0.8362    5.5653 H   0  0  0  0  0  0  0  0  0  0  0  0
    5.0170    1.8909    5.9462 H   0  0  0  0  0  0  0  0  0  0  0  0
    6.4882    3.7088    5.4976 H   0  0  0  0  0  0  0  0  0  0  0  0
    7.6753    2.6541    5.1168 H   0  0  0  0  0  0  0  0  0  0  0  0
    7.9449    3.4126    7.3578 H   0  0  0  0  0  0  0  0  0  0  0  0
    6.4511    2.8634    7.7234 H   0  0  0  0  0  0  0  0  0  0  0  0
    7.6383    1.8087    7.3426 H   0  0  0  0  0  0  0  0  0  0  0  0
    3.3856    2.8320    1.6047 H   0  0  0  0  0  0  0  0  0  0  0  0
    2.4523    2.1838    2.7776 H   0  0  0  0  0  0  0  0  0  0  0  0
    2.8969   -1.8992    0.8121 H   0  0  0  0  0  0  0  0  0  0  0  0
    4.0347   -0.8996    0.2015 H   0  0  0  0  0  0  0  0  0  0  0  0
    4.3281   -1.7259    1.5791 H   0  0  0  0  0  0  0  0  0  0  0  0
    1.5003   -1.2568    2.6260 H   0  0  0  0  0  0  0  0  0  0  0  0
    2.7054   -1.0044    3.6987 H   0  0  0  0  0  0  0  0  0  0  0  0
    1.6492    0.1942    3.3602 H   0  0  0  0  0  0  0  0  0  0  0  0
   -1.5550    0.9573    0.6824 H   0  0  0  0  0  0  0  0  0  0  0  0
   -1.1680    0.3311   -2.1424 H   0  0  0  0  0  0  0  0  0  0  0  0
   -2.5466   -1.1913   -0.9095 H   0  0  0  0  0  0  0  0  0  0  0  0
   -3.5647    0.0366   -0.5598 H   0  0  0  0  0  0  0  0  0  0  0  0
   -5.1259   -1.6069   -3.1466 H   0  0  0  0  0  0  0  0  0  0  0  0
   -4.2770   -2.3288   -1.9530 H   0  0  0  0  0  0  0  0  0  0  0  0
   -5.2951   -1.1009   -1.6033 H   0  0  0  0  0  0  0  0  0  0  0  0
   -1.7019    2.4848   -2.4525 H   0  0  0  0  0  0  0  0  0  0  0  0
   -3.2088    1.8590   -2.3874 H   0  0  0  0  0  0  0  0  0  0  0  0
   -1.0299    4.1254   -0.8911 H   0  0  0  0  0  0  0  0  0  0  0  0
   -1.5035    5.4546    1.0439 H   0  0  0  0  0  0  0  0  0  0  0  0
   -3.4089    4.9542    2.3987 H   0  0  0  0  0  0  0  0  0  0  0  0
   -4.8359    3.1305    1.8260 H   0  0  0  0  0  0  0  0  0  0  0  0
   -4.3725    1.7924   -0.1048 H   0  0  0  0  0  0  0  0  0  0  0  0
  1  2  2  0  0  0  0
  2  3  1  0  0  0  0
  3  4  1  0  0  0  0
  4  5  1  0  0  0  0
  5  6  1  0  0  0  0
  6  7  1  0  0  0  0
  7  8  1  0  0  0  0
  8  9  1  0  0  0  0
  9 10  1  0  0  0  0
 10 11  1  0  0  0  0
  6 12  1  0  0  0  0
 12  4  1  0  0  0  0
  5 13  1  0  0  0  0
  5 14  1  0  0  0  0
  2 15  1  0  0  0  0
 15 16  1  0  0  0  0
 16 17  1  0  0  0  0
 17 18  1  0  0  0  0
 18 19  1  0  0  0  0
 16 20  1  0  0  0  0
 20 21  1  0  0  0  0
 21 22  1  0  0  0  0
 22 23  2  0  0  0  0
 23 24  1  0  0  0  0
 24 25  2  0  0  0  0
 25 26  1  0  0  0  0
 26 21  2  0  0  0  0
  3 27  1  0  0  0  0
  4 28  1  0  0  0  0
  6 29  1  0  0  0  0
  8 30  1  0  0  0  0
  8 31  1  0  0  0  0
  9 32  1  0  0  0  0
  9 33  1  0  0  0  0
 10 34  1  0  0  0  0
 10 35  1  0  0  0  0
 11 36  1  0  0  0  0
 11 37  1  0  0  0  0
 11 38  1  0  0  0  0
 12 39  1  0  0  0  0
 12 40  1  0  0  0  0
 13 41  1  0  0  0  0
 13 42  1  0  0  0  0
 13 43  1  0  0  0  0
 14 44  1  0  0  0  0
 14 45  1  0  0  0  0
 14 46  1  0  0  0  0
 15 47  1  0  0  0  0
 16 48  1  0  0  0  0
 17 49  1  0  0  0  0
 17 50  1  0  0  0  0
 19 51  1  0  0  0  0
 19 52  1  0  0  0  0
 19 53  1  0  0  0  0
 20 54  1  0  0  0  0
 20 55  1  0  0  0  0
 22 56  1  0  0  0  0
 23 57  1  0  0  0  0
 24 58  1  0  0  0  0
 25 59  1  0  0  0  0
 26 60  1  0  0  0  0
M  END
>  <result-rank>
24

>  <similarity>
0.949

>  <query-name>
LIG_A_1101_CC(C)CC[C@]1([R*])CCCOC1_2

>  <query-smiles>
O=C(N[C@@]1(COCCC1)CCC(C)C)[C@@H](NC(=O)C)Cc2ccc(O)cc2

>  <source>
REALspace_2019-12

>  <similarity-descriptor>
0.960;0.986;0.995;1.000;0.993;1.000;0.974;0.974;0.0;0.999;0.999;0.770;0.994;1.000;0.0;0.059

>  <similarity-descriptor-smiles>
c1ccccc1;C1CC(C1C)O;O=C;N;C;C;CC;CC;;NC;NC;CO;C;C;;C

>  <reaction-name>
s_2708

>  <reagent1-name>
6465958

>  <reagent1-smiles>
[R1*]C(=O)NC(COC)Cc1ccccc1

>  <reagent2-name>
6547338

>  <reagent2-smiles>
[R1*]NC1C(C(OCCCC)C1)(C)C

$$$$
s_240690a____15728920____17513472
          04022015103D 1   1.00000     0.00000     0
            
 51 53  0  0  0  0            999 V2000
    0.4000    1.0000   -0.0392 O   0  0  0  0  0  0  0  0  0  0  0  0
    1.0000    1.0000    1.0000 C   0  0  0  0  0  0  0  0  0  0  0  0
    0.3150    1.0000    2.1865 N   0  0  0  0  0  0  0  0  0  0  0  0
   -1.1550    1.0000    2.1865 C   0  0  0  0  0  0  0  0  0  0  0  0
   -1.6608   -0.4088    1.9381 C   0  0  3  0  0  0  0  0  0  0  0  0
   -1.2306   -0.9393    0.6988 O   0  0  0  0  0  0  0  0  0  0  0  0
   -1.4192   -2.3379    0.8014 C   0  0  0  0  0  0  0  0  0  0  0  0
   -1.9133   -2.5292    2.2263 C   0  0  3  0  0  0  0  0  0  0  0  0
   -1.7112   -3.8774    2.7732 N   0  3  0  0  0  0  0  0  0  0  0  0
   -1.1944   -1.4210    2.9496 C   0  0  0  0  0  0  0  0  0  0  0  0
   -3.3360   -2.0213    2.3134 C   0  0  0  0  0  0  0  0  0  0  0  0
   -3.1686   -0.5361    2.0524 C   0  0  0  0  0  0  0  0  0  0  0  0
    2.5200    1.0000    1.0000 C   0  0  3  0  0  0  0  0  0  0  0  0
    3.0100    1.0000   -0.3859 N   0  0  0  0  0  0  0  0  0  0  0  0
    3.7976    2.0275   -0.8340 C   0  0  0  0  0  0  0  0  0  0  0  0
    4.0875    2.9275   -0.0951 O   0  0  0  0  0  0  0  0  0  0  0  0
    4.3043    2.0275   -2.2671 C   0  0  0  0  0  0  0  0  0  0  0  0
    3.0267   -0.2411    1.7165 C   0  0  0  0  0  0  0  0  0  0  0  0
    4.5467   -0.2411    1.7165 C   0  0  0  0  0  0  0  0  0  0  0  0
    5.2311    0.3644    2.7653 C   0  0  0  0  0  0  0  0  0  0  0  0
    6.6219    0.3662    2.7699 C   0  0  0  0  0  0  0  0  0  0  0  0
    7.3116   -0.2391    1.7241 C   0  0  0  0  0  0  0  0  0  0  0  0
    8.6614   -0.2393    1.7244 O   0  0  0  0  0  0  0  0  0  0  0  0
    6.6320   -0.8457    0.6727 C   0  0  0  0  0  0  0  0  0  0  0  0
    5.2412   -0.8449    0.6734 C   0  0  0  0  0  0  0  0  0  0  0  0
   -2.0629   -3.9138    3.7086 H   0  0  0  0  0  0  0  0  0  0  0  0
   -2.1982   -4.5430    2.2078 H   0  0  0  0  0  0  0  0  0  0  0  0
   -0.7347   -4.0931    2.7757 H   0  0  0  0  0  0  0  0  0  0  0  0
    0.8150    1.0000    3.0525 H   0  0  0  0  0  0  0  0  0  0  0  0
   -1.4883    1.6060    1.4642 H   0  0  0  0  0  0  0  0  0  0  0  0
   -1.4883    1.3225    3.0724 H   0  0  0  0  0  0  0  0  0  0  0  0
   -0.5590   -2.8258    0.6534 H   0  0  0  0  0  0  0  0  0  0  0  0
   -2.1004   -2.6555    0.1417 H   0  0  0  0  0  0  0  0  0  0  0  0
   -1.5368   -1.2543    3.8743 H   0  0  0  0  0  0  0  0  0  0  0  0
   -0.2014   -1.5353    2.9774 H   0  0  0  0  0  0  0  0  0  0  0  0
   -3.7247   -2.1877    3.2196 H   0  0  0  0  0  0  0  0  0  0  0  0
   -3.9154   -2.4475    1.6187 H   0  0  0  0  0  0  0  0  0  0  0  0
   -3.6224   -0.2620    1.2045 H   0  0  0  0  0  0  0  0  0  0  0  0
   -3.5234    0.0092    2.8118 H   0  0  0  0  0  0  0  0  0  0  0  0
    2.8533    1.8165    1.4714 H   0  0  0  0  0  0  0  0  0  0  0  0
    2.7684    0.2500   -1.0017 H   0  0  0  0  0  0  0  0  0  0  0  0
    3.9710    1.2110   -2.7385 H   0  0  0  0  0  0  0  0  0  0  0  0
    3.9710    2.8440   -2.7385 H   0  0  0  0  0  0  0  0  0  0  0  0
    5.3043    2.0275   -2.2671 H   0  0  0  0  0  0  0  0  0  0  0  0
    2.6933   -0.2411    2.6593 H   0  0  0  0  0  0  0  0  0  0  0  0
    2.6933   -1.0576    1.2451 H   0  0  0  0  0  0  0  0  0  0  0  0
    4.7256    0.7963    3.5122 H   0  0  0  0  0  0  0  0  0  0  0  0
    7.1226    0.7993    3.5194 H   0  0  0  0  0  0  0  0  0  0  0  0
    9.1615   -0.6731    0.9749 H   0  0  0  0  0  0  0  0  0  0  0  0
    7.1374   -1.2771   -0.0746 H   0  0  0  0  0  0  0  0  0  0  0  0
    4.7405   -1.2783   -0.0759 H   0  0  0  0  0  0  0  0  0  0  0  0
  1  2  2  0  0  0  0
  2  3  1  0  0  0  0
  3  4  1  0  0  0  0
  4  5  1  0  0  0  0
  5  6  1  0  0  0  0
  6  7  1  0  0  0  0
  7  8  1  0  0  0  0
  8  9  1  0  0  0  0
  8 10  1  0  0  0  0
 10  5  1  0  0  0  0
  8 11  1  0  0  0  0
 11 12  1  0  0  0  0
 12  5  1  0  0  0  0
  2 13  1  0  0  0  0
 13 14  1  0  0  0  0
 14 15  1  0  0  0  0
 15 16  2  0  0  0  0
 15 17  1  0  0  0  0
 13 18  1  0  0  0  0
 18 19  1  0  0  0  0
 19 20  1  0  0  0  0
 20 21  2  0  0  0  0
 21 22  1  0  0  0  0
 22 23  1  0  0  0  0
 22 24  2  0  0  0  0
 24 25  1  0  0  0  0
 25 19  2  0  0  0  0
  9 26  1  0  0  0  0
  9 27  1  0  0  0  0
  9 28  1  0  0  0  0
  3 29  1  0  0  0  0
  4 30  1  0  0  0  0
  4 31  1  0  0  0  0
  7 32  1  0  0  0  0
  7 33  1  0  0  0  0
 10 34  1  0  0  0  0
 10 35  1  0  0  0  0
 11 36  1  0  0  0  0
 11 37  1  0  0  0  0
 12 38  1  0  0  0  0
 12 39  1  0  0  0  0
 13 40  1  0  0  0  0
 14 41  1  0  0  0  0
 17 42  1  0  0  0  0
 17 43  1  0  0  0  0
 17 44  1  0  0  0  0
 18 45  1  0  0  0  0
 18 46  1  0  0  0  0
 20 47  1  0  0  0  0
 21 48  1  0  0  0  0
 23 49  1  0  0  0  0
 24 50  1  0  0  0  0
 25 51  1  0  0  0  0
M  CHG  1   9   1
M  END
>  <result-rank>
25

>  <similarity>
0.948

>  <query-name>
LIG_A_1101_CC(C)CC[C@]1([R*])CCCOC1_2

>  <query-smiles>
O=C(N[C@@]1(COCCC1)CCC(C)C)[C@@H](NC(=O)C)Cc2ccc(O)cc2

>  <source>
REALspace_2019-12

>  <similarity-descriptor>
1.000;0.907;1.000;1.000;0.893;0.893;0.893;0.0;0.0;1.000;1.000;1.000;1.000;1.000;1.000;0.077

>  <similarity-descriptor-smiles>
c1ccccc1;CC1CCCO1;O=C;N;C1CCCC1;C1CCCC1;C1CCCC1;;;C;N;C=O;C;C;O;[NH3+]

>  <reaction-name>
s_240690a

>  <reagent1-name>
15728920

>  <reagent1-smiles>
[R1*]NCC12OCC(N)(C1)CC2

>  <reagent2-name>
17513472

>  <reagent2-smiles>
[R1*]C(=O)C(NC(=O)C)Cc1ccc(O)cc1

$$$$
s_276436a____14760670____17513464
          04022015103D 1   1.00000     0.00000     0
            
 50 52  0  0  0  0            999 V2000
    0.4000    1.0000   -0.0392 O   0  0  0  0  0  0  0  0  0  0  0  0
    1.0000    1.0000    1.0000 C   0  0  0  0  0  0  0  0  0  0  0  0
    0.3450    1.0000    2.1345 O   0  0  0  0  0  0  0  0  0  0  0  0
   -1.0750    1.0000    2.1345 C   0  0  0  0  0  0  0  0  0  0  0  0
   -1.5817   -0.4333    2.1345 C   0  0  3  0  0  0  0  0  0  0  0  0
   -1.1514   -1.1760    1.0029 O   0  0  0  0  0  0  0  0  0  0  0  0
   -1.9512   -0.8254   -0.1107 C   0  0  0  0  0  0  0  0  0  0  0  0
   -3.2743   -0.3544    0.4571 C   0  0  0  0  0  0  0  0  0  0  0  0
   -3.0811   -0.5274    1.9499 C   0  0  0  0  0  0  0  0  0  0  0  0
   -1.1329   -1.0881    3.4315 C   0  0  0  0  0  0  0  0  0  0  0  0
   -1.6938   -2.4746    3.5556 C   0  0  0  0  0  0  0  0  0  0  0  0
   -2.2779   -1.3533    4.3662 C   0  0  0  0  0  0  0  0  0  0  0  0
    2.5200    1.0000    1.0000 C   0  0  3  0  0  0  0  0  0  0  0  0
    3.0100    1.0000   -0.3859 N   0  0  0  0  0  0  0  0  0  0  0  0
    3.7976    2.0275   -0.8340 C   0  0  0  0  0  0  0  0  0  0  0  0
    4.0875    2.9275   -0.0951 O   0  0  0  0  0  0  0  0  0  0  0  0
    4.3043    2.0275   -2.2671 C   0  0  0  0  0  0  0  0  0  0  0  0
    3.0267   -0.2411    1.7165 C   0  0  0  0  0  0  0  0  0  0  0  0
    4.5467   -0.2411    1.7165 C   0  0  0  0  0  0  0  0  0  0  0  0
    5.2311    0.3644    2.7653 C   0  0  0  0  0  0  0  0  0  0  0  0
    6.6219    0.3662    2.7699 C   0  0  0  0  0  0  0  0  0  0  0  0
    7.3116   -0.2391    1.7241 C   0  0  0  0  0  0  0  0  0  0  0  0
    8.6614   -0.2393    1.7244 O   0  0  0  0  0  0  0  0  0  0  0  0
    6.6320   -0.8457    0.6727 C   0  0  0  0  0  0  0  0  0  0  0  0
    5.2412   -0.8449    0.6734 C   0  0  0  0  0  0  0  0  0  0  0  0
   -1.4083    1.4714    1.3180 H   0  0  0  0  0  0  0  0  0  0  0  0
   -1.4083    1.4714    2.9510 H   0  0  0  0  0  0  0  0  0  0  0  0
   -2.0900   -1.6195   -0.7025 H   0  0  0  0  0  0  0  0  0  0  0  0
   -1.5166   -0.0920   -0.6334 H   0  0  0  0  0  0  0  0  0  0  0  0
   -4.0301   -0.9182    0.1242 H   0  0  0  0  0  0  0  0  0  0  0  0
   -3.4453    0.6031    0.2249 H   0  0  0  0  0  0  0  0  0  0  0  0
   -3.5483    0.1976    2.4559 H   0  0  0  0  0  0  0  0  0  0  0  0
   -3.4218   -1.4177    2.2522 H   0  0  0  0  0  0  0  0  0  0  0  0
   -0.2268   -0.8845    3.8023 H   0  0  0  0  0  0  0  0  0  0  0  0
   -1.1604   -3.1913    4.0050 H   0  0  0  0  0  0  0  0  0  0  0  0
   -2.2170   -2.8717    2.8015 H   0  0  0  0  0  0  0  0  0  0  0  0
   -3.1899   -1.0036    4.1517 H   0  0  0  0  0  0  0  0  0  0  0  0
   -2.1333   -1.3232    5.3552 H   0  0  0  0  0  0  0  0  0  0  0  0
    2.8533    1.8165    1.4714 H   0  0  0  0  0  0  0  0  0  0  0  0
    2.7684    0.2500   -1.0017 H   0  0  0  0  0  0  0  0  0  0  0  0
    3.9710    1.2110   -2.7385 H   0  0  0  0  0  0  0  0  0  0  0  0
    3.9710    2.8440   -2.7385 H   0  0  0  0  0  0  0  0  0  0  0  0
    5.3043    2.0275   -2.2671 H   0  0  0  0  0  0  0  0  0  0  0  0
    2.6933   -0.2411    2.6593 H   0  0  0  0  0  0  0  0  0  0  0  0
    2.6933   -1.0576    1.2451 H   0  0  0  0  0  0  0  0  0  0  0  0
    4.7256    0.7963    3.5122 H   0  0  0  0  0  0  0  0  0  0  0  0
    7.1226    0.7993    3.5194 H   0  0  0  0  0  0  0  0  0  0  0  0
    9.1615   -0.6731    0.9749 H   0  0  0  0  0  0  0  0  0  0  0  0
    7.1374   -1.2771   -0.0746 H   0  0  0  0  0  0  0  0  0  0  0  0
    4.7405   -1.2783   -0.0759 H   0  0  0  0  0  0  0  0  0  0  0  0
  1  2  2  0  0  0  0
  2  3  1  0  0  0  0
  3  4  1  0  0  0  0
  4  5  1  0  0  0  0
  5  6  1  0  0  0  0
  6  7  1  0  0  0  0
  7  8  1  0  0  0  0
  8  9  1  0  0  0  0
  9  5  1  0  0  0  0
  5 10  1  0  0  0  0
 10 11  1  0  0  0  0
 11 12  1  0  0  0  0
 12 10  1  0  0  0  0
  2 13  1  0  0  0  0
 13 14  1  0  0  0  0
 14 15  1  0  0  0  0
 15 16  2  0  0  0  0
 15 17  1  0  0  0  0
 13 18  1  0  0  0  0
 18 19  1  0  0  0  0
 19 20  1  0  0  0  0
 20 21  2  0  0  0  0
 21 22  1  0  0  0  0
 22 23  1  0  0  0  0
 22 24  2  0  0  0  0
 24 25  1  0  0  0  0
 25 19  2  0  0  0  0
  4 26  1  0  0  0  0
  4 27  1  0  0  0  0
  7 28  1  0  0  0  0
  7 29  1  0  0  0  0
  8 30  1  0  0  0  0
  8 31  1  0  0  0  0
  9 32  1  0  0  0  0
  9 33  1  0  0  0  0
 10 34  1  0  0  0  0
 11 35  1  0  0  0  0
 11 36  1  0  0  0  0
 12 37  1  0  0  0  0
 12 38  1  0  0  0  0
 13 39  1  0  0  0  0
 14 40  1  0  0  0  0
 17 41  1  0  0  0  0
 17 42  1  0  0  0  0
 17 43  1  0  0  0  0
 18 44  1  0  0  0  0
 18 45  1  0  0  0  0
 20 46  1  0  0  0  0
 21 47  1  0  0  0  0
 23 48  1  0  0  0  0
 24 49  1  0  0  0  0
 25 50  1  0  0  0  0
M  END
>  <result-rank>
26

>  <similarity>
0.948

>  <query-name>
LIG_A_1101_CC(C)CC[C@]1([R*])CCCOC1_2

>  <query-smiles>
O=C(N[C@@]1(COCCC1)CCC(C)C)[C@@H](NC(=O)C)Cc2ccc(O)cc2

>  <source>
REALspace_2019-12

>  <similarity-descriptor>
1.000;1.000;0.998;0.283;0.900;0.900;0.900;0.0;0.0;1.000;1.000;1.000;1.000;1.000;1.000;0.0

>  <similarity-descriptor-smiles>
c1ccccc1;CC1CCCO1;O=C;O;C1CC1;C1CC1;C1CC1;;;C;N;C=O;C;C;O;

>  <reaction-name>
s_276436a

>  <reagent1-name>
14760670

>  <reagent1-smiles>
[R1*]OCC1(OCCC1)C2CC2

>  <reagent2-name>
17513464

>  <reagent2-smiles>
[R1*]C(=O)C(NC(=O)C)Cc1ccc(O)cc1

$$$$
s_22____13654870____17057108
          04022015103D 1   1.00000     0.00000     0
            
 60 62  0  0  0  0            999 V2000
    3.1767   -1.1482    0.3215 O   0  0  0  0  0  0  0  0  0  0  0  0
    2.9767   -0.0133   -0.0133 C   0  0  0  0  0  0  0  0  0  0  0  0
    3.2050    0.3690   -1.3090 N   0  0  0  0  0  0  0  0  0  0  0  0
    3.2623   -0.6422   -2.3744 C   0  0  0  0  0  0  0  0  0  0  0  0
    1.9349   -0.6750   -3.1137 C   0  0  3  0  0  0  0  0  0  0  0  0
    1.4368    0.6411   -3.2910 O   0  0  0  0  0  0  0  0  0  0  0  0
    0.6066    0.6663   -4.4418 C   0  0  0  0  0  0  0  0  0  0  0  0
    0.7188   -0.7400   -5.0116 C   0  0  3  0  0  0  0  0  0  0  0  0
    2.1262   -1.0483   -4.5628 C   0  0  0  0  0  0  0  0  0  0  0  0
   -0.3614   -1.6716   -4.4820 C   0  0  0  0  0  0  0  0  0  0  0  0
   -0.4093   -1.6383   -2.9619 C   0  0  0  0  0  0  0  0  0  0  0  0
    0.9857   -1.5986   -2.3571 C   0  0  0  0  0  0  0  0  0  0  0  0
    2.4700    1.0000    1.0000 C   0  0  3  0  0  0  0  0  0  0  0  0
    1.0000    1.0000    1.0000 N   0  0  0  0  0  0  0  0  0  0  0  0
    0.3150    1.0000    2.1865 C   0  0  0  0  0  0  0  0  0  0  0  0
    0.9150    1.0000    3.2257 O   0  0  0  0  0  0  0  0  0  0  0  0
   -1.2050    1.0000    2.1865 C   0  0  0  0  0  0  0  0  0  0  0  0
   -1.7117   -0.4331    2.1865 C   0  0  0  0  0  0  0  0  0  0  0  0
   -3.2317   -0.4331    2.1865 C   0  0  0  0  0  0  0  0  0  0  0  0
   -1.2050   -1.1496    0.9454 C   0  0  0  0  0  0  0  0  0  0  0  0
    2.9767    2.3842    0.6291 C   0  0  0  0  0  0  0  0  0  0  0  0
    4.4967    2.3842    0.6291 C   0  0  0  0  0  0  0  0  0  0  0  0
    5.1811    2.6977   -0.5406 C   0  0  0  0  0  0  0  0  0  0  0  0
    6.5719    2.6997   -0.5452 C   0  0  0  0  0  0  0  0  0  0  0  0
    7.2616    2.3881    0.6223 C   0  0  0  0  0  0  0  0  0  0  0  0
    8.6114    2.3886    0.6223 O   0  0  0  0  0  0  0  0  0  0  0  0
    6.5820    2.0736    1.7948 C   0  0  0  0  0  0  0  0  0  0  0  0
    5.1912    2.0736    1.7937 C   0  0  0  0  0  0  0  0  0  0  0  0
    3.3327    1.3359   -1.5299 H   0  0  0  0  0  0  0  0  0  0  0  0
    3.4423   -1.5400   -1.9725 H   0  0  0  0  0  0  0  0  0  0  0  0
    3.9948   -0.4107   -3.0146 H   0  0  0  0  0  0  0  0  0  0  0  0
    0.9340    1.3434   -5.1009 H   0  0  0  0  0  0  0  0  0  0  0  0
   -0.3393    0.8738   -4.1926 H   0  0  0  0  0  0  0  0  0  0  0  0
    0.6797   -0.7067   -6.0103 H   0  0  0  0  0  0  0  0  0  0  0  0
    2.3646   -2.0121   -4.6824 H   0  0  0  0  0  0  0  0  0  0  0  0
    2.8083   -0.4771   -5.0193 H   0  0  0  0  0  0  0  0  0  0  0  0
   -0.1653   -2.6049   -4.7830 H   0  0  0  0  0  0  0  0  0  0  0  0
   -1.2481   -1.3840   -4.8439 H   0  0  0  0  0  0  0  0  0  0  0  0
   -0.9121   -0.8243   -2.6711 H   0  0  0  0  0  0  0  0  0  0  0  0
   -0.8816   -2.4566   -2.6343 H   0  0  0  0  0  0  0  0  0  0  0  0
    0.9148   -1.2787   -1.4123 H   0  0  0  0  0  0  0  0  0  0  0  0
    1.3646   -2.5240   -2.3681 H   0  0  0  0  0  0  0  0  0  0  0  0
    2.8033    0.7560    1.9107 H   0  0  0  0  0  0  0  0  0  0  0  0
    0.5000    1.0000    0.1340 H   0  0  0  0  0  0  0  0  0  0  0  0
   -1.5383    1.4714    1.3700 H   0  0  0  0  0  0  0  0  0  0  0  0
   -1.5383    1.4714    3.0030 H   0  0  0  0  0  0  0  0  0  0  0  0
   -1.3783   -0.9045    3.0030 H   0  0  0  0  0  0  0  0  0  0  0  0
   -3.5650   -1.3759    2.1865 H   0  0  0  0  0  0  0  0  0  0  0  0
   -3.5650    0.0383    3.0030 H   0  0  0  0  0  0  0  0  0  0  0  0
   -3.5650    0.0383    1.3700 H   0  0  0  0  0  0  0  0  0  0  0  0
   -1.5383   -2.0924    0.9454 H   0  0  0  0  0  0  0  0  0  0  0  0
   -1.5383   -0.6782    0.1289 H   0  0  0  0  0  0  0  0  0  0  0  0
   -0.2050   -1.1496    0.9454 H   0  0  0  0  0  0  0  0  0  0  0  0
    2.6433    2.6283   -0.2816 H   0  0  0  0  0  0  0  0  0  0  0  0
    2.6433    3.0509    1.2958 H   0  0  0  0  0  0  0  0  0  0  0  0
    4.6756    2.9205   -1.3742 H   0  0  0  0  0  0  0  0  0  0  0  0
    7.0726    2.9234   -1.3814 H   0  0  0  0  0  0  0  0  0  0  0  0
    9.1115    2.1653    1.4590 H   0  0  0  0  0  0  0  0  0  0  0  0
    7.0874    1.8503    2.6282 H   0  0  0  0  0  0  0  0  0  0  0  0
    4.6905    1.8502    2.6300 H   0  0  0  0  0  0  0  0  0  0  0  0
  1  2  2  0  0  0  0
  2  3  1  0  0  0  0
  3  4  1  0  0  0  0
  4  5  1  0  0  0  0
  5  6  1  0  0  0  0
  6  7  1  0  0  0  0
  7  8  1  0  0  0  0
  8  9  1  0  0  0  0
  9  5  1  0  0  0  0
  8 10  1  0  0  0  0
 10 11  1  0  0  0  0
 11 12  1  0  0  0  0
 12  5  1  0  0  0  0
  2 13  1  0  0  0  0
 13 14  1  0  0  0  0
 14 15  1  0  0  0  0
 15 16  2  0  0  0  0
 15 17  1  0  0  0  0
 17 18  1  0  0  0  0
 18 19  1  0  0  0  0
 18 20  1  0  0  0  0
 13 21  1  0  0  0  0
 21 22  1  0  0  0  0
 22 23  1  0  0  0  0
 23 24  2  0  0  0  0
 24 25  1  0  0  0  0
 25 26  1  0  0  0  0
 25 27  2  0  0  0  0
 27 28  1  0  0  0  0
 28 22  2  0  0  0  0
  3 29  1  0  0  0  0
  4 30  1  0  0  0  0
  4 31  1  0  0  0  0
  7 32  1  0  0  0  0
  7 33  1  0  0  0  0
  8 34  1  0  0  0  0
  9 35  1  0  0  0  0
  9 36  1  0  0  0  0
 10 37  1  0  0  0  0
 10 38  1  0  0  0  0
 11 39  1  0  0  0  0
 11 40  1  0  0  0  0
 12 41  1  0  0  0  0
 12 42  1  0  0  0  0
 13 43  1  0  0  0  0
 14 44  1  0  0  0  0
 17 45  1  0  0  0  0
 17 46  1  0  0  0  0
 18 47  1  0  0  0  0
 19 48  1  0  0  0  0
 19 49  1  0  0  0  0
 19 50  1  0  0  0  0
 20 51  1  0  0  0  0
 20 52  1  0  0  0  0
 20 53  1  0  0  0  0
 21 54  1  0  0  0  0
 21 55  1  0  0  0  0
 23 56  1  0  0  0  0
 24 57  1  0  0  0  0
 26 58  1  0  0  0  0
 27 59  1  0  0  0  0
 28 60  1  0  0  0  0
M  END
>  <result-rank>
27

>  <similarity>
0.948

>  <query-name>
LIG_A_1101_CC(C)CC[C@]1([R*])CCCOC1_2

>  <query-smiles>
O=C(N[C@@]1(COCCC1)CCC(C)C)[C@@H](NC(=O)C)Cc2ccc(O)cc2

>  <source>
REALspace_2019-12

>  <similarity-descriptor>
1.000;0.950;1.000;1.000;0.869;0.869;0.869;0.869;0.869;1.000;1.000;1.000;0.949;1.000;1.000;0.200

>  <similarity-descriptor-smiles>
c1ccccc1;CC1CCCO1;O=C;N;C1CCCCC1;C1CCCCC1;C1CCCCC1;C1CCCCC1;C1CCCCC1;C;N;C=O;C;C;O;C.C.C

>  <reaction-name>
s_22

>  <reagent1-name>
13654870

>  <reagent1-smiles>
[R1*]NCC12OCC(C1)CCC2

>  <reagent2-name>
17057108

>  <reagent2-smiles>
[R1*]C(=O)C(NC(=O)CC(C)C)Cc1ccc(O)cc1

$$$$
s_22____16503052____17513450
          04022015103D 1   1.00000     0.00000     0
            
 53 54  0  0  0  0            999 V2000
    2.7933   -1.0640    2.1558 F   0  0  0  0  0  0  0  0  0  0  0  0
    2.9763   -0.4320    1.0000 C   0  0  0  0  0  0  0  0  0  0  0  0
    2.5487   -1.2687   -0.1813 C   0  0  0  0  0  0  0  0  0  0  0  0
    3.7312   -0.7427   -0.8465 N   0  0  0  0  0  0  0  0  0  0  0  0
    4.0802   -0.4976   -2.1484 C   0  0  0  0  0  0  0  0  0  0  0  0
    3.3044   -0.7355   -3.0325 O   0  0  0  0  0  0  0  0  0  0  0  0
    5.4500    0.0755   -2.4731 C   0  0  0  0  0  0  0  0  0  0  0  0
    6.4364   -1.0606   -2.6891 C   0  0  0  0  0  0  0  0  0  0  0  0
    5.3610    0.9163   -3.7362 C   0  0  0  0  0  0  0  0  0  0  0  0
    4.3763   -0.6047    0.4586 C   0  0  0  0  0  0  0  0  0  0  0  0
    2.4700    1.0000    1.0000 C   0  0  0  0  0  0  0  0  0  0  0  0
    1.0000    1.0000    1.0000 N   0  0  0  0  0  0  0  0  0  0  0  0
    0.3150    1.0000    2.1865 C   0  0  0  0  0  0  0  0  0  0  0  0
    0.9150    1.0000    3.2257 O   0  0  0  0  0  0  0  0  0  0  0  0
   -1.2050    1.0000    2.1865 C   0  0  3  0  0  0  0  0  0  0  0  0
   -1.6950    1.6930    3.3867 N   0  0  0  0  0  0  0  0  0  0  0  0
   -1.9233    3.0434    3.3528 C   0  0  0  0  0  0  0  0  0  0  0  0
   -1.7233    3.6605    2.3433 O   0  0  0  0  0  0  0  0  0  0  0  0
   -2.4300    3.7599    4.5939 C   0  0  0  0  0  0  0  0  0  0  0  0
   -1.7117   -0.4331    2.1865 C   0  0  0  0  0  0  0  0  0  0  0  0
   -3.2317   -0.4331    2.1865 C   0  0  0  0  0  0  0  0  0  0  0  0
   -3.9161   -0.4331    0.9755 C   0  0  0  0  0  0  0  0  0  0  0  0
   -5.3069   -0.4338    0.9706 C   0  0  0  0  0  0  0  0  0  0  0  0
   -5.9966   -0.4351    2.1789 C   0  0  0  0  0  0  0  0  0  0  0  0
   -7.4166   -0.4355    2.1788 O   0  0  0  0  0  0  0  0  0  0  0  0
   -5.3170   -0.4347    3.3928 C   0  0  0  0  0  0  0  0  0  0  0  0
   -3.9262   -0.4344    3.3918 C   0  0  0  0  0  0  0  0  0  0  0  0
    2.5558   -2.2563   -0.0246 H   0  0  0  0  0  0  0  0  0  0  0  0
    1.6777   -1.0030   -0.5945 H   0  0  0  0  0  0  0  0  0  0  0  0
    5.7608    0.6469   -1.7135 H   0  0  0  0  0  0  0  0  0  0  0  0
    7.3376   -0.6835   -2.9027 H   0  0  0  0  0  0  0  0  0  0  0  0
    6.4949   -1.6137   -1.8581 H   0  0  0  0  0  0  0  0  0  0  0  0
    6.1256   -1.6320   -3.4486 H   0  0  0  0  0  0  0  0  0  0  0  0
    6.2622    1.2934   -3.9498 H   0  0  0  0  0  0  0  0  0  0  0  0
    5.0502    0.3449   -4.4958 H   0  0  0  0  0  0  0  0  0  0  0  0
    4.7121    1.6638   -3.5941 H   0  0  0  0  0  0  0  0  0  0  0  0
    4.9699    0.1942    0.5557 H   0  0  0  0  0  0  0  0  0  0  0  0
    4.8582   -1.4192    0.7815 H   0  0  0  0  0  0  0  0  0  0  0  0
    2.8033    1.4714    1.8165 H   0  0  0  0  0  0  0  0  0  0  0  0
    2.8033    1.4714    0.1835 H   0  0  0  0  0  0  0  0  0  0  0  0
    0.5000    1.0000    0.1340 H   0  0  0  0  0  0  0  0  0  0  0  0
   -1.5383    1.4714    1.3700 H   0  0  0  0  0  0  0  0  0  0  0  0
   -1.8617    1.1787    4.2280 H   0  0  0  0  0  0  0  0  0  0  0  0
   -2.5411    3.1005    5.3374 H   0  0  0  0  0  0  0  0  0  0  0  0
   -1.7713    4.4614    4.8660 H   0  0  0  0  0  0  0  0  0  0  0  0
   -3.3109    4.1892    4.3946 H   0  0  0  0  0  0  0  0  0  0  0  0
   -1.3783   -0.9045    1.3700 H   0  0  0  0  0  0  0  0  0  0  0  0
   -1.3783   -0.9045    3.0030 H   0  0  0  0  0  0  0  0  0  0  0  0
   -3.4106   -0.4325    0.1126 H   0  0  0  0  0  0  0  0  0  0  0  0
   -5.8076   -0.4335    0.1049 H   0  0  0  0  0  0  0  0  0  0  0  0
   -7.9167   -0.4364    3.0447 H   0  0  0  0  0  0  0  0  0  0  0  0
   -5.8224   -0.4347    4.2557 H   0  0  0  0  0  0  0  0  0  0  0  0
   -3.4255   -0.4351    4.2574 H   0  0  0  0  0  0  0  0  0  0  0  0
  1  2  1  0  0  0  0
  2  3  1  0  0  0  0
  3  4  1  0  0  0  0
  4  5  1  0  0  0  0
  5  6  2  0  0  0  0
  5  7  1  0  0  0  0
  7  8  1  0  0  0  0
  7  9  1  0  0  0  0
  4 10  1  0  0  0  0
 10  2  1  0  0  0  0
  2 11  1  0  0  0  0
 11 12  1  0  0  0  0
 12 13  1  0  0  0  0
 13 14  2  0  0  0  0
 13 15  1  0  0  0  0
 15 16  1  0  0  0  0
 16 17  1  0  0  0  0
 17 18  2  0  0  0  0
 17 19  1  0  0  0  0
 15 20  1  0  0  0  0
 20 21  1  0  0  0  0
 21 22  1  0  0  0  0
 22 23  2  0  0  0  0
 23 24  1  0  0  0  0
 24 25  1  0  0  0  0
 24 26  2  0  0  0  0
 26 27  1  0  0  0  0
 27 21  2  0  0  0  0
  3 28  1  0  0  0  0
  3 29  1  0  0  0  0
  7 30  1  0  0  0  0
  8 31  1  0  0  0  0
  8 32  1  0  0  0  0
  8 33  1  0  0  0  0
  9 34  1  0  0  0  0
  9 35  1  0  0  0  0
  9 36  1  0  0  0  0
 10 37  1  0  0  0  0
 10 38  1  0  0  0  0
 11 39  1  0  0  0  0
 11 40  1  0  0  0  0
 12 41  1  0  0  0  0
 15 42  1  0  0  0  0
 16 43  1  0  0  0  0
 19 44  1  0  0  0  0
 19 45  1  0  0  0  0
 19 46  1  0  0  0  0
 20 47  1  0  0  0  0
 20 48  1  0  0  0  0
 22 49  1  0  0  0  0
 23 50  1  0  0  0  0
 25 51  1  0  0  0  0
 26 52  1  0  0  0  0
 27 53  1  0  0  0  0
M  END
>  <result-rank>
28

>  <similarity>
0.948

>  <query-name>
LIG_A_1101_CC(C)CC[C@]1([R*])CCCOC1_2

>  <query-smiles>
O=C(N[C@@]1(COCCC1)CCC(C)C)[C@@H](NC(=O)C)Cc2ccc(O)cc2

>  <source>
REALspace_2019-12

>  <similarity-descriptor>
1.000;0.863;1.000;1.000;0.999;0.999;0.883;0.0;0.0;1.000;1.000;1.000;1.000;1.000;1.000;0.0

>  <similarity-descriptor-smiles>
c1ccccc1;FC1(CN(C1)C=O)C;C=O;N;CC;CC;C;;;C;N;C=O;C;C;O;

>  <reaction-name>
s_22

>  <reagent1-name>
16503052

>  <reagent1-smiles>
[R1*]NCC1(F)CN(C(=O)C(C)C)C1

>  <reagent2-name>
17513450

>  <reagent2-smiles>
[R1*]C(=O)C(NC(=O)C)Cc1ccc(O)cc1

$$$$
s_22____6465634____17513450
          04022015103D 1   1.00000     0.00000     0
            
 62 63  0  0  0  0            999 V2000
    4.2996    1.2619    5.0749 O   0  0  0  0  0  0  0  0  0  0  0  0
    4.5283    2.0203    4.1736 C   0  0  0  0  0  0  0  0  0  0  0  0
    3.8218    1.9089    2.9670 N   0  0  0  0  0  0  0  0  0  0  0  0
    2.7173    0.9895    2.7086 C   0  0  0  0  0  0  0  0  0  0  0  0
    1.8194    1.8194    1.8194 C   0  0  3  0  0  0  0  0  0  0  0  0
    1.0000    1.0000    1.0000 O   0  0  0  0  0  0  0  0  0  0  0  0
    0.1434    0.2177    1.8190 C   0  0  0  0  0  0  0  0  0  0  0  0
   -0.7341   -0.6598    0.9414 C   0  0  0  0  0  0  0  0  0  0  0  0
   -1.6208   -1.4697    1.7893 N   0  3  0  0  0  0  0  0  0  0  0  0
   -2.4687   -0.5829    2.5991 C   0  0  0  0  0  0  0  0  0  0  0  0
   -3.3856   -1.4203    3.4757 C   0  0  0  0  0  0  0  0  0  0  0  0
   -2.4696   -2.3184    0.9406 C   0  0  0  0  0  0  0  0  0  0  0  0
   -1.5929   -3.2353    0.1032 C   0  0  0  0  0  0  0  0  0  0  0  0
    2.7623    2.6550    0.9758 C   0  0  0  0  0  0  0  0  0  0  0  0
    4.0716    2.6922    1.7521 C   0  0  0  0  0  0  0  0  0  0  0  0
    5.5834    3.1018    4.3394 C   0  0  3  0  0  0  0  0  0  0  0  0
    6.3772    2.8309    5.5466 N   0  0  0  0  0  0  0  0  0  0  0  0
    7.7293    2.6338    5.4475 C   0  0  0  0  0  0  0  0  0  0  0  0
    8.2657    2.6824    4.3751 O   0  0  0  0  0  0  0  0  0  0  0  0
    8.5501    2.3537    6.6958 C   0  0  0  0  0  0  0  0  0  0  0  0
    4.9050    4.4555    4.4722 C   0  0  0  0  0  0  0  0  0  0  0  0
    5.8830    5.5526    4.0845 C   0  0  0  0  0  0  0  0  0  0  0  0
    5.9505    5.9725    2.7601 C   0  0  0  0  0  0  0  0  0  0  0  0
    6.8433    6.9766    2.4008 C   0  0  0  0  0  0  0  0  0  0  0  0
    7.6583    7.5491    3.3723 C   0  0  0  0  0  0  0  0  0  0  0  0
    8.5264    8.5236    3.0279 O   0  0  0  0  0  0  0  0  0  0  0  0
    7.5950    7.1326    4.6982 C   0  0  0  0  0  0  0  0  0  0  0  0
    6.7001    6.1284    5.0519 C   0  0  0  0  0  0  0  0  0  0  0  0
   -1.0700   -2.0464    2.3925 H   0  0  0  0  0  0  0  0  0  0  0  0
    2.2525    0.7325    3.5559 H   0  0  0  0  0  0  0  0  0  0  0  0
    3.0330    0.1653    2.2384 H   0  0  0  0  0  0  0  0  0  0  0  0
    1.2468    2.4174    2.3802 H   0  0  0  0  0  0  0  0  0  0  0  0
   -0.4333    0.8209    2.3699 H   0  0  0  0  0  0  0  0  0  0  0  0
    0.6943   -0.3590    2.4222 H   0  0  0  0  0  0  0  0  0  0  0  0
   -1.2850   -0.0831    0.3382 H   0  0  0  0  0  0  0  0  0  0  0  0
   -0.1574   -1.2631    0.3905 H   0  0  0  0  0  0  0  0  0  0  0  0
   -3.0196   -0.0062    1.9959 H   0  0  0  0  0  0  0  0  0  0  0  0
   -1.8913   -0.0056    3.1764 H   0  0  0  0  0  0  0  0  0  0  0  0
   -3.9623   -0.8171    4.0266 H   0  0  0  0  0  0  0  0  0  0  0  0
   -3.9629   -1.9977    2.8984 H   0  0  0  0  0  0  0  0  0  0  0  0
   -2.8347   -1.9971    4.0790 H   0  0  0  0  0  0  0  0  0  0  0  0
   -3.0205   -1.7416    0.3373 H   0  0  0  0  0  0  0  0  0  0  0  0
   -3.0728   -2.8693    1.5173 H   0  0  0  0  0  0  0  0  0  0  0  0
   -2.1702   -3.8126   -0.4742 H   0  0  0  0  0  0  0  0  0  0  0  0
   -0.9897   -2.6844   -0.4736 H   0  0  0  0  0  0  0  0  0  0  0  0
   -1.0420   -3.8120    0.7064 H   0  0  0  0  0  0  0  0  0  0  0  0
    2.3995    3.5792    0.8566 H   0  0  0  0  0  0  0  0  0  0  0  0
    2.8983    2.2322    0.0798 H   0  0  0  0  0  0  0  0  0  0  0  0
    4.8089    2.2816    1.2157 H   0  0  0  0  0  0  0  0  0  0  0  0
    4.3139    3.6338    1.9858 H   0  0  0  0  0  0  0  0  0  0  0  0
    6.1840    3.1069    3.5398 H   0  0  0  0  0  0  0  0  0  0  0  0
    5.9303    2.7904    6.4403 H   0  0  0  0  0  0  0  0  0  0  0  0
    7.9496    2.3486    7.4954 H   0  0  0  0  0  0  0  0  0  0  0  0
    8.9964    1.4631    6.6084 H   0  0  0  0  0  0  0  0  0  0  0  0
    9.2443    3.0652    6.8049 H   0  0  0  0  0  0  0  0  0  0  0  0
    4.1088    4.4900    3.8683 H   0  0  0  0  0  0  0  0  0  0  0  0
    4.6116    4.5898    5.4187 H   0  0  0  0  0  0  0  0  0  0  0  0
    5.3600    5.5546    2.0697 H   0  0  0  0  0  0  0  0  0  0  0  0
    6.8991    7.2848    1.4511 H   0  0  0  0  0  0  0  0  0  0  0  0
    9.1142    8.9381    3.7227 H   0  0  0  0  0  0  0  0  0  0  0  0
    8.1859    7.5501    5.3885 H   0  0  0  0  0  0  0  0  0  0  0  0
    6.6439    5.8204    6.0017 H   0  0  0  0  0  0  0  0  0  0  0  0
  1  2  2  0  0  0  0
  2  3  1  0  0  0  0
  3  4  1  0  0  0  0
  4  5  1  0  0  0  0
  5  6  1  0  0  0  0
  6  7  1  0  0  0  0
  7  8  1  0  0  0  0
  8  9  1  0  0  0  0
  9 10  1  0  0  0  0
 10 11  1  0  0  0  0
  9 12  1  0  0  0  0
 12 13  1  0  0  0  0
  5 14  1  0  0  0  0
 14 15  1  0  0  0  0
 15  3  1  0  0  0  0
  2 16  1  0  0  0  0
 16 17  1  0  0  0  0
 17 18  1  0  0  0  0
 18 19  2  0  0  0  0
 18 20  1  0  0  0  0
 16 21  1  0  0  0  0
 21 22  1  0  0  0  0
 22 23  1  0  0  0  0
 23 24  2  0  0  0  0
 24 25  1  0  0  0  0
 25 26  1  0  0  0  0
 25 27  2  0  0  0  0
 27 28  1  0  0  0  0
 28 22  2  0  0  0  0
  9 29  1  0  0  0  0
  4 30  1  0  0  0  0
  4 31  1  0  0  0  0
  5 32  1  0  0  0  0
  7 33  1  0  0  0  0
  7 34  1  0  0  0  0
  8 35  1  0  0  0  0
  8 36  1  0  0  0  0
 10 37  1  0  0  0  0
 10 38  1  0  0  0  0
 11 39  1  0  0  0  0
 11 40  1  0  0  0  0
 11 41  1  0  0  0  0
 12 42  1  0  0  0  0
 12 43  1  0  0  0  0
 13 44  1  0  0  0  0
 13 45  1  0  0  0  0
 13 46  1  0  0  0  0
 14 47  1  0  0  0  0
 14 48  1  0  0  0  0
 15 49  1  0  0  0  0
 15 50  1  0  0  0  0
 16 51  1  0  0  0  0
 17 52  1  0  0  0  0
 20 53  1  0  0  0  0
 20 54  1  0  0  0  0
 20 55  1  0  0  0  0
 21 56  1  0  0  0  0
 21 57  1  0  0  0  0
 23 58  1  0  0  0  0
 24 59  1  0  0  0  0
 26 60  1  0  0  0  0
 27 61  1  0  0  0  0
 28 62  1  0  0  0  0
M  CHG  1   9   1
M  END
>  <result-rank>
29

>  <similarity>
0.948

>  <query-name>
LIG_A_1101_CC(C)CC[C@]1([R*])CCCOC1_2

>  <query-smiles>
O=C(N[C@@]1(COCCC1)CCC(C)C)[C@@H](NC(=O)C)Cc2ccc(O)cc2

>  <source>
REALspace_2019-12

>  <similarity-descriptor>
1.000;0.985;0.852;0.852;0.993;0.993;0.681;0.681;1.000;1.000;1.000;1.000;1.000;1.000;1.000;0.059

>  <similarity-descriptor-smiles>
c1ccccc1;N1CCC(C1)O;O=C;O=C;C;C;[NH+](C)C;[NH+](C)C;C;C;N;C=O;C;C;O;C

>  <reaction-name>
s_22

>  <reagent1-name>
6465634

>  <reagent1-smiles>
[R1*]N1CC(OCCN(CC)CC)CC1

>  <reagent2-name>
17513450

>  <reagent2-smiles>
[R1*]C(=O)C(NC(=O)C)Cc1ccc(O)cc1

$$$$
s_22____12139182____14260948
          04022015103D 1   1.00000     0.00000     0
            
 65 66  0  0  0  0            999 V2000
    3.0443   -3.8146   -1.1201 F   0  0  0  0  0  0  0  0  0  0  0  0
    2.5671   -2.6173   -1.4467 C   0  0  0  0  0  0  0  0  0  0  0  0
    3.0325   -1.4831   -0.7907 C   0  0  0  0  0  0  0  0  0  0  0  0
    2.5202   -0.2406   -1.1493 C   0  0  0  0  0  0  0  0  0  0  0  0
    1.5579   -0.1205   -2.1469 C   0  0  0  0  0  0  0  0  0  0  0  0
    1.1011   -1.2625   -2.7967 C   0  0  0  0  0  0  0  0  0  0  0  0
    1.6051   -2.5112   -2.4460 C   0  0  0  0  0  0  0  0  0  0  0  0
    3.0267    1.0000   -0.4331 C   0  0  3  0  0  0  0  0  0  0  0  0
    4.4967    1.0000   -0.4331 N   0  0  0  0  0  0  0  0  0  0  0  0
    5.1817    2.0275   -1.0263 C   0  0  0  0  0  0  0  0  0  0  0  0
    4.5817    2.9275   -1.5459 O   0  0  0  0  0  0  0  0  0  0  0  0
    6.4917    2.0275   -1.0263 O   0  0  0  0  0  0  0  0  0  0  0  0
    7.2017    3.0925   -1.6412 C   0  0  0  0  0  0  0  0  0  0  0  0
    6.8345    4.4033   -0.9649 C   0  0  0  0  0  0  0  0  0  0  0  0
    8.6961    2.8520   -1.5023 C   0  0  0  0  0  0  0  0  0  0  0  0
    6.8345    3.1622   -3.1145 C   0  0  0  0  0  0  0  0  0  0  0  0
    2.5200    1.0000    1.0000 C   0  0  0  0  0  0  0  0  0  0  0  0
    1.0000    1.0000    1.0000 C   0  0  0  0  0  0  0  0  0  0  0  0
    0.4000    1.0000   -0.0392 O   0  0  0  0  0  0  0  0  0  0  0  0
    0.2987    1.0000    2.2147 N   0  0  0  0  0  0  0  0  0  0  0  0
   -1.1543    1.0000    2.3592 C   0  0  0  0  0  0  0  0  0  0  0  0
   -1.3488    0.1244    3.5762 C   0  0  3  0  0  0  0  0  0  0  0  0
   -2.5702    0.4180    4.2367 O   0  0  0  0  0  0  0  0  0  0  0  0
   -2.7102   -0.4259    5.3701 C   0  0  0  0  0  0  0  0  0  0  0  0
   -3.4314   -1.7015    4.9662 C   0  0  0  0  0  0  0  0  0  0  0  0
   -3.5812   -2.6047    6.1795 C   0  0  0  0  0  0  0  0  0  0  0  0
   -2.2058   -2.9516    6.7258 C   0  0  0  0  0  0  0  0  0  0  0  0
   -4.3851   -1.8855    7.2504 C   0  0  0  0  0  0  0  0  0  0  0  0
   -0.1642    0.4261    4.4732 C   0  0  0  0  0  0  0  0  0  0  0  0
    0.9012    1.0052    3.5522 C   0  0  0  0  0  0  0  0  0  0  0  0
    3.7244   -1.5594   -0.0726 H   0  0  0  0  0  0  0  0  0  0  0  0
    1.1978    0.7789   -2.3947 H   0  0  0  0  0  0  0  0  0  0  0  0
    0.4104   -1.1861   -3.5159 H   0  0  0  0  0  0  0  0  0  0  0  0
    1.2758   -3.3322   -2.9122 H   0  0  0  0  0  0  0  0  0  0  0  0
    2.6933    1.8165   -0.9045 H   0  0  0  0  0  0  0  0  0  0  0  0
    4.9967    0.2500   -0.0001 H   0  0  0  0  0  0  0  0  0  0  0  0
    7.3345    5.1533   -1.3979 H   0  0  0  0  0  0  0  0  0  0  0  0
    5.8513    4.5616   -1.0563 H   0  0  0  0  0  0  0  0  0  0  0  0
    7.0760    4.3574    0.0044 H   0  0  0  0  0  0  0  0  0  0  0  0
    9.1961    3.6020   -1.9353 H   0  0  0  0  0  0  0  0  0  0  0  0
    8.9377    2.8061   -0.5330 H   0  0  0  0  0  0  0  0  0  0  0  0
    8.9377    1.9896   -1.9472 H   0  0  0  0  0  0  0  0  0  0  0  0
    7.3345    3.9122   -3.5475 H   0  0  0  0  0  0  0  0  0  0  0  0
    7.0760    2.2999   -3.5594 H   0  0  0  0  0  0  0  0  0  0  0  0
    5.8513    3.3205   -3.2059 H   0  0  0  0  0  0  0  0  0  0  0  0
    2.8533    0.1835    1.4714 H   0  0  0  0  0  0  0  0  0  0  0  0
    2.8533    1.8165    1.4714 H   0  0  0  0  0  0  0  0  0  0  0  0
   -1.5996    0.6076    1.5543 H   0  0  0  0  0  0  0  0  0  0  0  0
   -1.5039    1.9236    2.5164 H   0  0  0  0  0  0  0  0  0  0  0  0
   -1.3327   -0.8384    3.3066 H   0  0  0  0  0  0  0  0  0  0  0  0
   -3.2391    0.0473    6.0747 H   0  0  0  0  0  0  0  0  0  0  0  0
   -1.8053   -0.6541    5.7295 H   0  0  0  0  0  0  0  0  0  0  0  0
   -4.3362   -1.4732    4.6068 H   0  0  0  0  0  0  0  0  0  0  0  0
   -2.9025   -2.1746    4.2616 H   0  0  0  0  0  0  0  0  0  0  0  0
   -4.0556   -3.4439    5.9137 H   0  0  0  0  0  0  0  0  0  0  0  0
   -2.3043   -3.5459    7.5240 H   0  0  0  0  0  0  0  0  0  0  0  0
   -1.6769   -3.4248    6.0212 H   0  0  0  0  0  0  0  0  0  0  0  0
   -1.7313   -2.1124    6.9915 H   0  0  0  0  0  0  0  0  0  0  0  0
   -4.4836   -2.4798    8.0486 H   0  0  0  0  0  0  0  0  0  0  0  0
   -3.9106   -1.0464    7.5162 H   0  0  0  0  0  0  0  0  0  0  0  0
   -5.2899   -1.6573    6.8910 H   0  0  0  0  0  0  0  0  0  0  0  0
    0.1671   -0.4107    4.9090 H   0  0  0  0  0  0  0  0  0  0  0  0
   -0.4177    1.0904    5.1764 H   0  0  0  0  0  0  0  0  0  0  0  0
    1.1339    1.9378    3.8282 H   0  0  0  0  0  0  0  0  0  0  0  0
    1.7243    0.4377    3.5680 H   0  0  0  0  0  0  0  0  0  0  0  0
  1  2  1  0  0  0  0
  2  3  1  0  0  0  0
  3  4  2  0  0  0  0
  4  5  1  0  0  0  0
  5  6  2  0  0  0  0
  6  7  1  0  0  0  0
  7  2  2  0  0  0  0
  4  8  1  0  0  0  0
  8  9  1  0  0  0  0
  9 10  1  0  0  0  0
 10 11  2  0  0  0  0
 10 12  1  0  0  0  0
 12 13  1  0  0  0  0
 13 14  1  0  0  0  0
 13 15  1  0  0  0  0
 13 16  1  0  0  0  0
  8 17  1  0  0  0  0
 17 18  1  0  0  0  0
 18 19  2  0  0  0  0
 18 20  1  0  0  0  0
 20 21  1  0  0  0  0
 21 22  1  0  0  0  0
 22 23  1  0  0  0  0
 23 24  1  0  0  0  0
 24 25  1  0  0  0  0
 25 26  1  0  0  0  0
 26 27  1  0  0  0  0
 26 28  1  0  0  0  0
 22 29  1  0  0  0  0
 29 30  1  0  0  0  0
 30 20  1  0  0  0  0
  3 31  1  0  0  0  0
  5 32  1  0  0  0  0
  6 33  1  0  0  0  0
  7 34  1  0  0  0  0
  8 35  1  0  0  0  0
  9 36  1  0  0  0  0
 14 37  1  0  0  0  0
 14 38  1  0  0  0  0
 14 39  1  0  0  0  0
 15 40  1  0  0  0  0
 15 41  1  0  0  0  0
 15 42  1  0  0  0  0
 16 43  1  0  0  0  0
 16 44  1  0  0  0  0
 16 45  1  0  0  0  0
 17 46  1  0  0  0  0
 17 47  1  0  0  0  0
 21 48  1  0  0  0  0
 21 49  1  0  0  0  0
 22 50  1  0  0  0  0
 24 51  1  0  0  0  0
 24 52  1  0  0  0  0
 25 53  1  0  0  0  0
 25 54  1  0  0  0  0
 26 55  1  0  0  0  0
 27 56  1  0  0  0  0
 27 57  1  0  0  0  0
 27 58  1  0  0  0  0
 28 59  1  0  0  0  0
 28 60  1  0  0  0  0
 28 61  1  0  0  0  0
 29 62  1  0  0  0  0
 29 63  1  0  0  0  0
 30 64  1  0  0  0  0
 30 65  1  0  0  0  0
M  END
>  <result-rank>
30

>  <similarity>
0.947

>  <query-name>
LIG_A_1101_CC(C)CC[C@]1([R*])CCCOC1_2

>  <query-smiles>
O=C(N[C@@]1(COCCC1)CCC(C)C)[C@@H](NC(=O)C)Cc2ccc(O)cc2

>  <source>
REALspace_2019-12

>  <similarity-descriptor>
0.983;0.985;0.852;0.852;0.993;1.000;1.000;1.000;1.000;1.000;1.000;0.851;0.971;1.000;0.0;0.111

>  <similarity-descriptor-smiles>
Fc1ccccc1;N1CCC(C1)O;C=O;C=O;C;C;C;C;C;CC;N;C(=O)O;CC;CC;;C.C

>  <reaction-name>
s_22

>  <reagent1-name>
12139182

>  <reagent1-smiles>
[R1*]N1CC(OCCC(C)C)CC1

>  <reagent2-name>
14260948

>  <reagent2-smiles>
[R1*]C(=O)CC(NC(=O)OC(C)(C)C)c1cc(F)ccc1

$$$$
s_22____15101746____107332
          04022015103D 1   1.00000     0.00000     0
            
 50 52  0  0  0  0            999 V2000
   -2.7942    6.5503    0.7877 Cl  0  0  0  0  0  0  0  0  0  0  0  0
   -1.7679    5.1320    0.4668 C   0  0  0  0  0  0  0  0  0  0  0  0
   -2.2011    3.8654    0.8430 C   0  0  0  0  0  0  0  0  0  0  0  0
   -1.4017    2.7542    0.5947 C   0  0  0  0  0  0  0  0  0  0  0  0
   -0.1722    2.9289   -0.0315 C   0  0  0  0  0  0  0  0  0  0  0  0
    0.2615    4.1952   -0.4077 C   0  0  0  0  0  0  0  0  0  0  0  0
   -0.5380    5.3067   -0.1593 C   0  0  0  0  0  0  0  0  0  0  0  0
    0.7075    1.7208   -0.3059 C   0  0  3  0  0  0  0  0  0  0  0  0
    0.0129    0.8075   -1.2248 N   0  0  0  0  0  0  0  0  0  0  0  0
    0.5721    0.4993   -2.4369 C   0  0  0  0  0  0  0  0  0  0  0  0
    1.6288    0.9750   -2.7485 O   0  0  0  0  0  0  0  0  0  0  0  0
   -0.1461   -0.4450   -3.3871 C   0  0  0  0  0  0  0  0  0  0  0  0
    1.0000    1.0000    1.0000 C   0  0  0  0  0  0  0  0  0  0  0  0
    1.8776    1.8776    1.8776 C   0  0  0  0  0  0  0  0  0  0  0  0
    1.9688    3.0524    1.6507 O   0  0  0  0  0  0  0  0  0  0  0  0
    2.5644    1.3273    2.9275 N   0  0  0  0  0  0  0  0  0  0  0  0
    3.4119    2.1748    3.7751 C   0  0  3  0  0  0  0  0  0  0  0  0
    2.9933    2.1804    5.2255 C   0  0  3  0  0  0  0  0  0  0  0  0
    2.3344    3.3871    5.5650 O   0  0  0  0  0  0  0  0  0  0  0  0
    1.0189    3.0977    6.0143 C   0  0  0  0  0  0  0  0  0  0  0  0
    4.4702    2.1780    5.5614 C   0  0  3  0  0  0  0  0  0  0  0  0
    4.6694    1.4730    4.2418 C   0  0  3  0  0  0  0  0  0  0  0  0
    6.1002    1.8416    3.8800 C   0  0  0  0  0  0  0  0  0  0  0  0
    6.4703    3.1075    4.6330 C   0  0  0  0  0  0  0  0  0  0  0  0
    5.2691    3.4634    5.4948 C   0  0  0  0  0  0  0  0  0  0  0  0
   -3.0875    3.7532    1.2922 H   0  0  0  0  0  0  0  0  0  0  0  0
   -1.7075    1.8408    0.8633 H   0  0  0  0  0  0  0  0  0  0  0  0
    1.1480    4.3073   -0.8567 H   0  0  0  0  0  0  0  0  0  0  0  0
   -0.2321    6.2202   -0.4276 H   0  0  0  0  0  0  0  0  0  0  0  0
    1.5665    2.0212   -0.7205 H   0  0  0  0  0  0  0  0  0  0  0  0
   -0.8677    0.4111   -0.9651 H   0  0  0  0  0  0  0  0  0  0  0  0
   -1.0051   -0.7454   -2.9725 H   0  0  0  0  0  0  0  0  0  0  0  0
   -0.3386    0.0292   -4.2462 H   0  0  0  0  0  0  0  0  0  0  0  0
    0.4329   -1.2401   -3.5676 H   0  0  0  0  0  0  0  0  0  0  0  0
    0.1409    0.8075    1.4742 H   0  0  0  0  0  0  0  0  0  0  0  0
    1.4742    0.1409    0.8075 H   0  0  0  0  0  0  0  0  0  0  0  0
    2.4883    0.3483    3.1166 H   0  0  0  0  0  0  0  0  0  0  0  0
    3.5749    3.0868    3.3987 H   0  0  0  0  0  0  0  0  0  0  0  0
    2.5077    1.3550    5.5135 H   0  0  0  0  0  0  0  0  0  0  0  0
    0.5536    3.9498    6.2541 H   0  0  0  0  0  0  0  0  0  0  0  0
    0.5124    2.6347    5.2869 H   0  0  0  0  0  0  0  0  0  0  0  0
    1.0641    2.5050    6.8184 H   0  0  0  0  0  0  0  0  0  0  0  0
    4.6964    1.6104    6.3530 H   0  0  0  0  0  0  0  0  0  0  0  0
    4.5428    0.4841    4.3196 H   0  0  0  0  0  0  0  0  0  0  0  0
    6.1697    2.0012    2.8952 H   0  0  0  0  0  0  0  0  0  0  0  0
    6.7172    1.0995    4.1418 H   0  0  0  0  0  0  0  0  0  0  0  0
    7.2723    2.9455    5.2080 H   0  0  0  0  0  0  0  0  0  0  0  0
    6.6655    3.8477    3.9896 H   0  0  0  0  0  0  0  0  0  0  0  0
    5.5592    3.7490    6.4081 H   0  0  0  0  0  0  0  0  0  0  0  0
    4.7324    4.1936    5.0720 H   0  0  0  0  0  0  0  0  0  0  0  0
  1  2  1  0  0  0  0
  2  3  1  0  0  0  0
  3  4  2  0  0  0  0
  4  5  1  0  0  0  0
  5  6  2  0  0  0  0
  6  7  1  0  0  0  0
  7  2  2  0  0  0  0
  5  8  1  0  0  0  0
  8  9  1  0  0  0  0
  9 10  1  0  0  0  0
 10 11  2  0  0  0  0
 10 12  1  0  0  0  0
  8 13  1  0  0  0  0
 13 14  1  0  0  0  0
 14 15  2  0  0  0  0
 14 16  1  0  0  0  0
 16 17  1  0  0  0  0
 17 18  1  0  0  0  0
 18 19  1  0  0  0  0
 19 20  1  0  0  0  0
 18 21  1  0  0  0  0
 21 22  1  0  0  0  0
 22 17  1  0  0  0  0
 22 23  1  0  0  0  0
 23 24  1  0  0  0  0
 24 25  1  0  0  0  0
 25 21  1  0  0  0  0
  3 26  1  0  0  0  0
  4 27  1  0  0  0  0
  6 28  1  0  0  0  0
  7 29  1  0  0  0  0
  8 30  1  0  0  0  0
  9 31  1  0  0  0  0
 12 32  1  0  0  0  0
 12 33  1  0  0  0  0
 12 34  1  0  0  0  0
 13 35  1  0  0  0  0
 13 36  1  0  0  0  0
 16 37  1  0  0  0  0
 17 38  1  0  0  0  0
 18 39  1  0  0  0  0
 20 40  1  0  0  0  0
 20 41  1  0  0  0  0
 20 42  1  0  0  0  0
 21 43  1  0  0  0  0
 22 44  1  0  0  0  0
 23 45  1  0  0  0  0
 23 46  1  0  0  0  0
 24 47  1  0  0  0  0
 24 48  1  0  0  0  0
 25 49  1  0  0  0  0
 25 50  1  0  0  0  0
M  END
>  <result-rank>
31

>  <similarity>
0.947

>  <query-name>
LIG_A_1101_CC(C)CC[C@]1([R*])CCCOC1_2

>  <query-smiles>
O=C(N[C@@]1(COCCC1)CCC(C)C)[C@@H](NC(=O)C)Cc2ccc(O)cc2

>  <source>
REALspace_2019-12

>  <similarity-descriptor>
0.968;0.931;1.000;1.000;0.860;0.860;0.860;0.860;0.860;1.000;1.000;1.000;1.000;1.000;0.0;0.0

>  <similarity-descriptor-smiles>
Clc1ccccc1;C1CCC1OC;C=O;N;C1CCCC1;C1CCCC1;C1CCCC1;C1CCCC1;C1CCCC1;CC;N;C=O;C;CC;;

>  <reaction-name>
s_22

>  <reagent1-name>
15101746

>  <reagent1-smiles>
[R1*]NC1C(OC)C2C1CCC2

>  <reagent2-name>
107332

>  <reagent2-smiles>
[R1*]C(=O)CC(NC(=O)C)c1ccc(Cl)cc1

$$$$
s_22____16501214____17513450
          04022015103D 1   1.00000     0.00000     0
            
 51 53  0  0  0  0            999 V2000
    0.4000    1.0000   -0.0392 O   0  0  0  0  0  0  0  0  0  0  0  0
    1.0000    1.0000    1.0000 C   0  0  0  0  0  0  0  0  0  0  0  0
    0.3150    1.0000    2.1865 N   0  0  0  0  0  0  0  0  0  0  0  0
   -1.1550    1.0000    2.1865 C   0  0  0  0  0  0  0  0  0  0  0  0
   -1.6610   -0.4094    1.9379 C   0  0  3  0  0  0  0  0  0  0  0  0
   -3.1701   -0.5740    1.9089 C   0  0  0  0  0  0  0  0  0  0  0  0
   -2.9334   -1.8777    2.6701 C   0  0  3  0  0  0  0  0  0  0  0  0
   -3.9115   -2.1368    3.6669 O   0  0  0  0  0  0  0  0  0  0  0  0
   -1.6680   -1.2424    3.2080 C   0  0  0  0  0  0  0  0  0  0  0  0
   -3.9490   -0.4253    0.6228 C   0  0  0  0  0  0  0  0  0  0  0  0
   -5.1305    0.0482    1.4376 C   0  0  0  0  0  0  0  0  0  0  0  0
   -4.0784    0.5282    2.4005 C   0  0  0  0  0  0  0  0  0  0  0  0
    2.5200    1.0000    1.0000 C   0  0  3  0  0  0  0  0  0  0  0  0
    3.0100    1.0000   -0.3859 N   0  0  0  0  0  0  0  0  0  0  0  0
    3.7976    2.0275   -0.8340 C   0  0  0  0  0  0  0  0  0  0  0  0
    4.0875    2.9275   -0.0951 O   0  0  0  0  0  0  0  0  0  0  0  0
    4.3043    2.0275   -2.2671 C   0  0  0  0  0  0  0  0  0  0  0  0
    3.0267   -0.2411    1.7165 C   0  0  0  0  0  0  0  0  0  0  0  0
    4.5467   -0.2411    1.7165 C   0  0  0  0  0  0  0  0  0  0  0  0
    5.2311    0.3644    2.7653 C   0  0  0  0  0  0  0  0  0  0  0  0
    6.6219    0.3662    2.7699 C   0  0  0  0  0  0  0  0  0  0  0  0
    7.3116   -0.2391    1.7241 C   0  0  0  0  0  0  0  0  0  0  0  0
    8.6614   -0.2393    1.7244 O   0  0  0  0  0  0  0  0  0  0  0  0
    6.6320   -0.8457    0.6727 C   0  0  0  0  0  0  0  0  0  0  0  0
    5.2412   -0.8449    0.6734 C   0  0  0  0  0  0  0  0  0  0  0  0
    0.8150    1.0000    3.0525 H   0  0  0  0  0  0  0  0  0  0  0  0
   -1.4883    1.6060    1.4642 H   0  0  0  0  0  0  0  0  0  0  0  0
   -1.4883    1.3225    3.0724 H   0  0  0  0  0  0  0  0  0  0  0  0
   -1.2018   -0.8624    1.1738 H   0  0  0  0  0  0  0  0  0  0  0  0
   -2.7605   -2.6601    2.0718 H   0  0  0  0  0  0  0  0  0  0  0  0
   -3.6997   -2.9999    4.1253 H   0  0  0  0  0  0  0  0  0  0  0  0
   -0.8927   -1.8663    3.3065 H   0  0  0  0  0  0  0  0  0  0  0  0
   -1.7853   -0.7206    4.0530 H   0  0  0  0  0  0  0  0  0  0  0  0
   -4.1028   -1.2825    0.1313 H   0  0  0  0  0  0  0  0  0  0  0  0
   -3.5804    0.2585   -0.0069 H   0  0  0  0  0  0  0  0  0  0  0  0
   -5.7300   -0.6739    1.7829 H   0  0  0  0  0  0  0  0  0  0  0  0
   -5.6831    0.7660    1.0139 H   0  0  0  0  0  0  0  0  0  0  0  0
   -3.7423    1.4521    2.2173 H   0  0  0  0  0  0  0  0  0  0  0  0
   -4.3354    0.4520    3.3639 H   0  0  0  0  0  0  0  0  0  0  0  0
    2.8533    1.8165    1.4714 H   0  0  0  0  0  0  0  0  0  0  0  0
    2.7684    0.2500   -1.0017 H   0  0  0  0  0  0  0  0  0  0  0  0
    3.9710    1.2110   -2.7385 H   0  0  0  0  0  0  0  0  0  0  0  0
    3.9710    2.8440   -2.7385 H   0  0  0  0  0  0  0  0  0  0  0  0
    5.3043    2.0275   -2.2671 H   0  0  0  0  0  0  0  0  0  0  0  0
    2.6933   -0.2411    2.6593 H   0  0  0  0  0  0  0  0  0  0  0  0
    2.6933   -1.0576    1.2451 H   0  0  0  0  0  0  0  0  0  0  0  0
    4.7256    0.7963    3.5122 H   0  0  0  0  0  0  0  0  0  0  0  0
    7.1226    0.7993    3.5194 H   0  0  0  0  0  0  0  0  0  0  0  0
    9.1615   -0.6731    0.9749 H   0  0  0  0  0  0  0  0  0  0  0  0
    7.1374   -1.2771   -0.0746 H   0  0  0  0  0  0  0  0  0  0  0  0
    4.7405   -1.2783   -0.0759 H   0  0  0  0  0  0  0  0  0  0  0  0
  1  2  2  0  0  0  0
  2  3  1  0  0  0  0
  3  4  1  0  0  0  0
  4  5  1  0  0  0  0
  5  6  1  0  0  0  0
  6  7  1  0  0  0  0
  7  8  1  0  0  0  0
  7  9  1  0  0  0  0
  9  5  1  0  0  0  0
  6 10  1  0  0  0  0
 10 11  1  0  0  0  0
 11 12  1  0  0  0  0
 12  6  1  0  0  0  0
  2 13  1  0  0  0  0
 13 14  1  0  0  0  0
 14 15  1  0  0  0  0
 15 16  2  0  0  0  0
 15 17  1  0  0  0  0
 13 18  1  0  0  0  0
 18 19  1  0  0  0  0
 19 20  1  0  0  0  0
 20 21  2  0  0  0  0
 21 22  1  0  0  0  0
 22 23  1  0  0  0  0
 22 24  2  0  0  0  0
 24 25  1  0  0  0  0
 25 19  2  0  0  0  0
  3 26  1  0  0  0  0
  4 27  1  0  0  0  0
  4 28  1  0  0  0  0
  5 29  1  0  0  0  0
  7 30  1  0  0  0  0
  8 31  1  0  0  0  0
  9 32  1  0  0  0  0
  9 33  1  0  0  0  0
 10 34  1  0  0  0  0
 10 35  1  0  0  0  0
 11 36  1  0  0  0  0
 11 37  1  0  0  0  0
 12 38  1  0  0  0  0
 12 39  1  0  0  0  0
 13 40  1  0  0  0  0
 14 41  1  0  0  0  0
 17 42  1  0  0  0  0
 17 43  1  0  0  0  0
 17 44  1  0  0  0  0
 18 45  1  0  0  0  0
 18 46  1  0  0  0  0
 20 47  1  0  0  0  0
 21 48  1  0  0  0  0
 23 49  1  0  0  0  0
 24 50  1  0  0  0  0
 25 51  1  0  0  0  0
M  END
>  <result-rank>
32

>  <similarity>
0.946

>  <query-name>
LIG_A_1101_CC(C)CC[C@]1([R*])CCCOC1_2

>  <query-smiles>
O=C(N[C@@]1(COCCC1)CCC(C)C)[C@@H](NC(=O)C)Cc2ccc(O)cc2

>  <source>
REALspace_2019-12

>  <similarity-descriptor>
1.000;0.882;1.000;1.000;0.882;0.882;0.882;0.0;0.0;1.000;1.000;1.000;1.000;1.000;1.000;0.0

>  <similarity-descriptor-smiles>
c1ccccc1;CC1CC(C1)O;O=C;N;C1CCC1;C1CCC1;C1CCC1;;;C;N;C=O;C;C;O;

>  <reaction-name>
s_22

>  <reagent1-name>
16501214

>  <reagent1-smiles>
[R1*]NCC1C2(C(O)C1)CCC2

>  <reagent2-name>
17513450

>  <reagent2-smiles>
[R1*]C(=O)C(NC(=O)C)Cc1ccc(O)cc1

$$$$
s_22____14786974____17513450
          04022015103D 1   1.00000     0.00000     0
            
 54 56  0  0  0  0            999 V2000
   -0.1329    2.5602    4.8475 O   0  0  0  0  0  0  0  0  0  0  0  0
   -1.2167    2.1933    4.4279 C   0  0  0  0  0  0  0  0  0  0  0  0
   -2.4967    2.7219    4.5191 N   0  0  0  0  0  0  0  0  0  0  0  0
   -3.0731    3.9259    5.1431 C   0  0  0  0  0  0  0  0  0  0  0  0
   -3.7507    4.8256    4.1284 C   0  0  0  0  0  0  0  0  0  0  0  0
   -3.2192    5.9889    4.9366 C   0  0  0  0  0  0  0  0  0  0  0  0
   -2.0936    5.0599    5.3522 C   0  0  0  0  0  0  0  0  0  0  0  0
   -3.0399    1.6026    3.7611 C   0  0  0  0  0  0  0  0  0  0  0  0
   -1.6620    1.0000    3.6203 C   0  0  3  0  0  0  0  0  0  0  0  0
   -1.1550    1.0000    2.1865 C   0  0  0  0  0  0  0  0  0  0  0  0
    0.3150    1.0000    2.1865 N   0  0  0  0  0  0  0  0  0  0  0  0
    1.0000    1.0000    1.0000 C   0  0  0  0  0  0  0  0  0  0  0  0
    0.4000    1.0000   -0.0392 O   0  0  0  0  0  0  0  0  0  0  0  0
    2.5200    1.0000    1.0000 C   0  0  3  0  0  0  0  0  0  0  0  0
    3.0100    1.0000   -0.3859 N   0  0  0  0  0  0  0  0  0  0  0  0
    3.7976    2.0275   -0.8340 C   0  0  0  0  0  0  0  0  0  0  0  0
    4.0875    2.9275   -0.0951 O   0  0  0  0  0  0  0  0  0  0  0  0
    4.3043    2.0275   -2.2671 C   0  0  0  0  0  0  0  0  0  0  0  0
    3.0267   -0.2411    1.7165 C   0  0  0  0  0  0  0  0  0  0  0  0
    4.5467   -0.2411    1.7165 C   0  0  0  0  0  0  0  0  0  0  0  0
    5.2311    0.3644    2.7653 C   0  0  0  0  0  0  0  0  0  0  0  0
    6.6219    0.3662    2.7699 C   0  0  0  0  0  0  0  0  0  0  0  0
    7.3116   -0.2391    1.7241 C   0  0  0  0  0  0  0  0  0  0  0  0
    8.6614   -0.2393    1.7244 O   0  0  0  0  0  0  0  0  0  0  0  0
    6.6320   -0.8457    0.6727 C   0  0  0  0  0  0  0  0  0  0  0  0
    5.2412   -0.8449    0.6734 C   0  0  0  0  0  0  0  0  0  0  0  0
   -1.5262   -0.3257    4.3507 C   0  0  0  0  0  0  0  0  0  0  0  0
   -3.6373    3.7306    5.9453 H   0  0  0  0  0  0  0  0  0  0  0  0
   -4.7477    4.7530    4.1024 H   0  0  0  0  0  0  0  0  0  0  0  0
   -3.3873    4.7590    3.1991 H   0  0  0  0  0  0  0  0  0  0  0  0
   -3.8137    6.2901    5.6822 H   0  0  0  0  0  0  0  0  0  0  0  0
   -2.9339    6.7810    4.3971 H   0  0  0  0  0  0  0  0  0  0  0  0
   -1.3055    5.0532    4.7368 H   0  0  0  0  0  0  0  0  0  0  0  0
   -1.7797    5.1755    6.2946 H   0  0  0  0  0  0  0  0  0  0  0  0
   -3.4575    1.8666    2.8917 H   0  0  0  0  0  0  0  0  0  0  0  0
   -3.6795    1.0347    4.2793 H   0  0  0  0  0  0  0  0  0  0  0  0
   -1.4883    0.1835    1.7151 H   0  0  0  0  0  0  0  0  0  0  0  0
   -1.4883    1.8165    1.7151 H   0  0  0  0  0  0  0  0  0  0  0  0
    0.8150    1.0000    3.0525 H   0  0  0  0  0  0  0  0  0  0  0  0
    2.8533    1.8165    1.4714 H   0  0  0  0  0  0  0  0  0  0  0  0
    2.7684    0.2500   -1.0017 H   0  0  0  0  0  0  0  0  0  0  0  0
    3.9710    1.2110   -2.7385 H   0  0  0  0  0  0  0  0  0  0  0  0
    3.9710    2.8440   -2.7385 H   0  0  0  0  0  0  0  0  0  0  0  0
    5.3043    2.0275   -2.2671 H   0  0  0  0  0  0  0  0  0  0  0  0
    2.6933   -0.2411    2.6593 H   0  0  0  0  0  0  0  0  0  0  0  0
    2.6933   -1.0576    1.2451 H   0  0  0  0  0  0  0  0  0  0  0  0
    4.7256    0.7963    3.5122 H   0  0  0  0  0  0  0  0  0  0  0  0
    7.1226    0.7993    3.5194 H   0  0  0  0  0  0  0  0  0  0  0  0
    9.1615   -0.6731    0.9749 H   0  0  0  0  0  0  0  0  0  0  0  0
    7.1374   -1.2771   -0.0746 H   0  0  0  0  0  0  0  0  0  0  0  0
    4.7405   -1.2783   -0.0759 H   0  0  0  0  0  0  0  0  0  0  0  0
   -1.8386   -1.0670    3.7566 H   0  0  0  0  0  0  0  0  0  0  0  0
   -0.5680   -0.4753    4.5946 H   0  0  0  0  0  0  0  0  0  0  0  0
   -2.0827   -0.3072    5.1813 H   0  0  0  0  0  0  0  0  0  0  0  0
  1  2  2  0  0  0  0
  2  3  1  0  0  0  0
  3  4  1  0  0  0  0
  4  5  1  0  0  0  0
  5  6  1  0  0  0  0
  6  7  1  0  0  0  0
  7  4  1  0  0  0  0
  3  8  1  0  0  0  0
  8  9  1  0  0  0  0
  9  2  1  0  0  0  0
  9 10  1  0  0  0  0
 10 11  1  0  0  0  0
 11 12  1  0  0  0  0
 12 13  2  0  0  0  0
 12 14  1  0  0  0  0
 14 15  1  0  0  0  0
 15 16  1  0  0  0  0
 16 17  2  0  0  0  0
 16 18  1  0  0  0  0
 14 19  1  0  0  0  0
 19 20  1  0  0  0  0
 20 21  1  0  0  0  0
 21 22  2  0  0  0  0
 22 23  1  0  0  0  0
 23 24  1  0  0  0  0
 23 25  2  0  0  0  0
 25 26  1  0  0  0  0
 26 20  2  0  0  0  0
  9 27  1  0  0  0  0
  4 28  1  0  0  0  0
  5 29  1  0  0  0  0
  5 30  1  0  0  0  0
  6 31  1  0  0  0  0
  6 32  1  0  0  0  0
  7 33  1  0  0  0  0
  7 34  1  0  0  0  0
  8 35  1  0  0  0  0
  8 36  1  0  0  0  0
 10 37  1  0  0  0  0
 10 38  1  0  0  0  0
 11 39  1  0  0  0  0
 14 40  1  0  0  0  0
 15 41  1  0  0  0  0
 18 42  1  0  0  0  0
 18 43  1  0  0  0  0
 18 44  1  0  0  0  0
 19 45  1  0  0  0  0
 19 46  1  0  0  0  0
 21 47  1  0  0  0  0
 22 48  1  0  0  0  0
 24 49  1  0  0  0  0
 25 50  1  0  0  0  0
 26 51  1  0  0  0  0
 27 52  1  0  0  0  0
 27 53  1  0  0  0  0
 27 54  1  0  0  0  0
M  END
>  <result-rank>
33

>  <similarity>
0.946

>  <query-name>
LIG_A_1101_CC(C)CC[C@]1([R*])CCCOC1_2

>  <query-smiles>
O=C(N[C@@]1(COCCC1)CCC(C)C)[C@@H](NC(=O)C)Cc2ccc(O)cc2

>  <source>
REALspace_2019-12

>  <similarity-descriptor>
1.000;0.868;1.000;1.000;0.891;0.891;0.891;0.891;0.0;1.000;1.000;1.000;1.000;1.000;1.000;0.0

>  <similarity-descriptor-smiles>
c1ccccc1;O=C1C(CN1)(C)C;C=O;N;C1CCC1;C1CCC1;C1CCC1;C1CCC1;;C;N;C=O;C;C;O;

>  <reaction-name>
s_22

>  <reagent1-name>
14786974

>  <reagent1-smiles>
[R1*]NCC1(C(=O)N(C2CCC2)C1)C

>  <reagent2-name>
17513450

>  <reagent2-smiles>
[R1*]C(=O)C(NC(=O)C)Cc1ccc(O)cc1

$$$$
s_22____17317796____59693
          04022015103D 1   1.00000     0.00000     0
            
 49 50  0  0  0  0            999 V2000
   -1.1370    1.6559    7.3803 F   0  0  0  0  0  0  0  0  0  0  0  0
   -1.7368    0.5867    6.8645 C   0  0  0  0  0  0  0  0  0  0  0  0
   -2.7017    0.9762    6.0362 F   0  0  0  0  0  0  0  0  0  0  0  0
   -2.2617   -0.1432    7.8446 F   0  0  0  0  0  0  0  0  0  0  0  0
   -0.7166   -0.2486    6.0992 C   0  0  3  0  0  0  0  0  0  0  0  0
   -0.6152   -1.5675    6.6091 O   0  0  0  0  0  0  0  0  0  0  0  0
    0.3470   -2.2927    5.8576 C   0  0  0  0  0  0  0  0  0  0  0  0
   -0.8398   -0.2195    4.5864 C   0  0  0  0  0  0  0  0  0  0  0  0
    0.0618    1.0000    4.6154 C   0  0  3  0  0  0  0  0  0  0  0  0
    1.0500    1.0000    3.4595 C   0  0  0  0  0  0  0  0  0  0  0  0
    0.3150    1.0000    2.1865 N   0  0  0  0  0  0  0  0  0  0  0  0
    1.0000    1.0000    1.0000 C   0  0  0  0  0  0  0  0  0  0  0  0
    0.4000    1.0000   -0.0392 O   0  0  0  0  0  0  0  0  0  0  0  0
    2.5200    1.0000    1.0000 C   0  0  0  0  0  0  0  0  0  0  0  0
    3.0267    0.5691   -0.3667 C   0  0  3  0  0  0  0  0  0  0  0  0
    4.3972    1.0643   -0.5598 N   0  0  0  0  0  0  0  0  0  0  0  0
    4.6793    1.9120   -1.5984 C   0  0  0  0  0  0  0  0  0  0  0  0
    3.8076    2.2502   -2.3506 O   0  0  0  0  0  0  0  0  0  0  0  0
    6.0965    2.4241   -1.7980 C   0  0  0  0  0  0  0  0  0  0  0  0
    3.0192   -0.9487   -0.4546 C   0  0  0  0  0  0  0  0  0  0  0  0
    3.7378   -1.6961    0.4728 C   0  0  0  0  0  0  0  0  0  0  0  0
    3.7289   -3.0846    0.3883 C   0  0  0  0  0  0  0  0  0  0  0  0
    3.0041   -3.7156   -0.6172 C   0  0  0  0  0  0  0  0  0  0  0  0
    2.2896   -2.9588   -1.5378 C   0  0  0  0  0  0  0  0  0  0  0  0
    2.2910   -1.5698   -1.4644 C   0  0  0  0  0  0  0  0  0  0  0  0
    0.6318    0.4062    5.8876 C   0  0  0  0  0  0  0  0  0  0  0  0
    0.4186   -3.2231    6.2173 H   0  0  0  0  0  0  0  0  0  0  0  0
    0.0645   -2.3268    4.8990 H   0  0  0  0  0  0  0  0  0  0  0  0
    1.2354   -1.8391    5.9275 H   0  0  0  0  0  0  0  0  0  0  0  0
   -1.7640   -0.0490    4.2448 H   0  0  0  0  0  0  0  0  0  0  0  0
   -0.4533   -1.0149    4.1195 H   0  0  0  0  0  0  0  0  0  0  0  0
   -0.4207    1.8662    4.7450 H   0  0  0  0  0  0  0  0  0  0  0  0
    1.6249    1.8165    3.5125 H   0  0  0  0  0  0  0  0  0  0  0  0
    1.6249    0.1835    3.5125 H   0  0  0  0  0  0  0  0  0  0  0  0
   -0.6850    1.0000    2.1865 H   0  0  0  0  0  0  0  0  0  0  0  0
    2.8533    0.3630    1.6951 H   0  0  0  0  0  0  0  0  0  0  0  0
    2.8533    1.9205    1.2041 H   0  0  0  0  0  0  0  0  0  0  0  0
    2.4326    0.9470   -1.0768 H   0  0  0  0  0  0  0  0  0  0  0  0
    5.1236    0.7825    0.0671 H   0  0  0  0  0  0  0  0  0  0  0  0
    6.6906    2.0462   -1.0879 H   0  0  0  0  0  0  0  0  0  0  0  0
    6.4298    2.1406   -2.6972 H   0  0  0  0  0  0  0  0  0  0  0  0
    6.1014    3.4224   -1.7402 H   0  0  0  0  0  0  0  0  0  0  0  0
    4.2568   -1.2387    1.1948 H   0  0  0  0  0  0  0  0  0  0  0  0
    4.2437   -3.6291    1.0506 H   0  0  0  0  0  0  0  0  0  0  0  0
    2.9972   -4.7138   -0.6776 H   0  0  0  0  0  0  0  0  0  0  0  0
    1.7700   -3.4167   -2.2591 H   0  0  0  0  0  0  0  0  0  0  0  0
    1.7765   -1.0259   -2.1273 H   0  0  0  0  0  0  0  0  0  0  0  0
    1.3890   -0.2318    5.7483 H   0  0  0  0  0  0  0  0  0  0  0  0
    0.8848    1.0768    6.5850 H   0  0  0  0  0  0  0  0  0  0  0  0
  1  2  1  0  0  0  0
  2  3  1  0  0  0  0
  2  4  1  0  0  0  0
  2  5  1  0  0  0  0
  5  6  1  0  0  0  0
  6  7  1  0  0  0  0
  5  8  1  0  0  0  0
  8  9  1  0  0  0  0
  9 10  1  0  0  0  0
 10 11  1  0  0  0  0
 11 12  1  0  0  0  0
 12 13  2  0  0  0  0
 12 14  1  0  0  0  0
 14 15  1  0  0  0  0
 15 16  1  0  0  0  0
 16 17  1  0  0  0  0
 17 18  2  0  0  0  0
 17 19  1  0  0  0  0
 15 20  1  0  0  0  0
 20 21  1  0  0  0  0
 21 22  2  0  0  0  0
 22 23  1  0  0  0  0
 23 24  2  0  0  0  0
 24 25  1  0  0  0  0
 25 20  2  0  0  0  0
  9 26  1  0  0  0  0
 26  5  1  0  0  0  0
  7 27  1  0  0  0  0
  7 28  1  0  0  0  0
  7 29  1  0  0  0  0
  8 30  1  0  0  0  0
  8 31  1  0  0  0  0
  9 32  1  0  0  0  0
 10 33  1  0  0  0  0
 10 34  1  0  0  0  0
 11 35  1  0  0  0  0
 14 36  1  0  0  0  0
 14 37  1  0  0  0  0
 15 38  1  0  0  0  0
 16 39  1  0  0  0  0
 19 40  1  0  0  0  0
 19 41  1  0  0  0  0
 19 42  1  0  0  0  0
 21 43  1  0  0  0  0
 22 44  1  0  0  0  0
 23 45  1  0  0  0  0
 24 46  1  0  0  0  0
 25 47  1  0  0  0  0
 26 48  1  0  0  0  0
 26 49  1  0  0  0  0
M  END
>  <result-rank>
34

>  <similarity>
0.946

>  <query-name>
LIG_A_1101_CC(C)CC[C@]1([R*])CCCOC1_2

>  <query-smiles>
O=C(N[C@@]1(COCCC1)CCC(C)C)[C@@H](NC(=O)C)Cc2ccc(O)cc2

>  <source>
REALspace_2019-12

>  <similarity-descriptor>
0.960;0.962;1.000;1.000;0.944;0.0;0.0;0.0;0.0;1.000;1.000;1.000;1.000;1.000;0.0;0.0

>  <similarity-descriptor-smiles>
c1ccccc1;FC(F)(F)C1(CC(C1)C)O;C=O;N;C;;;;;CC;N;C=O;C;CC;;

>  <reaction-name>
s_22

>  <reagent1-name>
17317796

>  <reagent1-smiles>
[R1*]NCC1CC(OC)(C(F)(F)F)C1

>  <reagent2-name>
59693

>  <reagent2-smiles>
[R1*]C(=O)CC(NC(=O)C)c1ccccc1

$$$$
s_22____15094274____107338
          04022015103D 1   1.00000     0.00000     0
            
 54 56  0  0  0  0            999 V2000
    3.0725    1.7997    1.7997 O   0  0  0  0  0  0  0  0  0  0  0  0
    1.8776    1.8776    1.8776 C   0  0  0  0  0  0  0  0  0  0  0  0
    1.2916    2.7770    2.7770 N   0  0  0  0  0  0  0  0  0  0  0  0
    1.9451    3.9412    3.3683 C   0  0  0  0  0  0  0  0  0  0  0  0
    1.1676    4.1818    4.6483 C   0  0  3  0  0  0  0  0  0  0  0  0
    1.3257    5.5180    5.0961 O   0  0  0  0  0  0  0  0  0  0  0  0
    0.4028    6.3570    4.4174 C   0  0  0  0  0  0  0  0  0  0  0  0
    0.5724    7.7898    4.8975 C   0  0  0  0  0  0  0  0  0  0  0  0
    1.9628    8.2861    4.6276 C   0  0  0  0  0  0  0  0  0  0  0  0
    1.5598    7.9045    6.0230 C   0  0  0  0  0  0  0  0  0  0  0  0
   -0.2466    3.8961    4.1813 C   0  0  0  0  0  0  0  0  0  0  0  0
   -0.0796    2.6901    3.2796 C   0  0  0  0  0  0  0  0  0  0  0  0
    1.0000    1.0000    1.0000 C   0  0  0  0  0  0  0  0  0  0  0  0
    0.7075    1.7208   -0.3059 C   0  0  3  0  0  0  0  0  0  0  0  0
   -0.5184    2.5190   -0.1610 N   0  0  0  0  0  0  0  0  0  0  0  0
   -0.4439    3.8164    0.2726 C   0  0  0  0  0  0  0  0  0  0  0  0
    0.6114    4.3877    0.2774 O   0  0  0  0  0  0  0  0  0  0  0  0
   -1.6978    4.5321    0.7478 C   0  0  0  0  0  0  0  0  0  0  0  0
    0.5195    0.7004   -1.4167 C   0  0  0  0  0  0  0  0  0  0  0  0
   -0.7511    0.1969   -1.6756 C   0  0  0  0  0  0  0  0  0  0  0  0
   -0.9280   -0.7364   -2.6916 C   0  0  0  0  0  0  0  0  0  0  0  0
    0.1698   -1.1543   -3.4372 C   0  0  0  0  0  0  0  0  0  0  0  0
   -0.0061   -2.1072   -4.4752 O   0  0  0  0  0  0  0  0  0  0  0  0
    1.1100   -2.5381   -5.2400 C   0  0  0  0  0  0  0  0  0  0  0  0
    1.4426   -0.6541   -3.1821 C   0  0  0  0  0  0  0  0  0  0  0  0
    1.6137    0.2792   -2.1653 C   0  0  0  0  0  0  0  0  0  0  0  0
    1.8827    4.7322    2.7596 H   0  0  0  0  0  0  0  0  0  0  0  0
    2.9061    3.7479    3.5663 H   0  0  0  0  0  0  0  0  0  0  0  0
    1.4443    3.5345    5.3585 H   0  0  0  0  0  0  0  0  0  0  0  0
   -0.5295    6.0497    4.6079 H   0  0  0  0  0  0  0  0  0  0  0  0
    0.5737    6.3129    3.4331 H   0  0  0  0  0  0  0  0  0  0  0  0
   -0.1991    8.4242    4.8479 H   0  0  0  0  0  0  0  0  0  0  0  0
    2.1145    9.2471    4.3961 H   0  0  0  0  0  0  0  0  0  0  0  0
    2.6077    7.7151    4.1195 H   0  0  0  0  0  0  0  0  0  0  0  0
    1.9361    7.0792    6.4442 H   0  0  0  0  0  0  0  0  0  0  0  0
    1.4430    8.6112    6.7208 H   0  0  0  0  0  0  0  0  0  0  0  0
   -0.6203    4.6731    3.6747 H   0  0  0  0  0  0  0  0  0  0  0  0
   -0.8435    3.6847    4.9553 H   0  0  0  0  0  0  0  0  0  0  0  0
   -0.2110    1.8443    3.7967 H   0  0  0  0  0  0  0  0  0  0  0  0
   -0.7334    2.7236    2.5237 H   0  0  0  0  0  0  0  0  0  0  0  0
    0.1409    0.8075    1.4742 H   0  0  0  0  0  0  0  0  0  0  0  0
    1.4742    0.1409    0.8075 H   0  0  0  0  0  0  0  0  0  0  0  0
    1.4727    2.3233   -0.5327 H   0  0  0  0  0  0  0  0  0  0  0  0
   -1.4068    2.1149   -0.3790 H   0  0  0  0  0  0  0  0  0  0  0  0
   -2.4811    3.9145    0.6776 H   0  0  0  0  0  0  0  0  0  0  0  0
   -1.5800    4.8142    1.7000 H   0  0  0  0  0  0  0  0  0  0  0  0
   -1.8572    5.3387    0.1785 H   0  0  0  0  0  0  0  0  0  0  0  0
   -1.5334    0.5044   -1.1339 H   0  0  0  0  0  0  0  0  0  0  0  0
   -1.8376   -1.1042   -2.8848 H   0  0  0  0  0  0  0  0  0  0  0  0
    0.8094   -3.2047   -5.9221 H   0  0  0  0  0  0  0  0  0  0  0  0
    1.5218   -1.7520   -5.7009 H   0  0  0  0  0  0  0  0  0  0  0  0
    1.7850   -2.9612   -4.6355 H   0  0  0  0  0  0  0  0  0  0  0  0
    2.2251   -0.9619   -3.7234 H   0  0  0  0  0  0  0  0  0  0  0  0
    2.5232    0.6474   -1.9723 H   0  0  0  0  0  0  0  0  0  0  0  0
  1  2  2  0  0  0  0
  2  3  1  0  0  0  0
  3  4  1  0  0  0  0
  4  5  1  0  0  0  0
  5  6  1  0  0  0  0
  6  7  1  0  0  0  0
  7  8  1  0  0  0  0
  8  9  1  0  0  0  0
  9 10  1  0  0  0  0
 10  8  1  0  0  0  0
  5 11  1  0  0  0  0
 11 12  1  0  0  0  0
 12  3  1  0  0  0  0
  2 13  1  0  0  0  0
 13 14  1  0  0  0  0
 14 15  1  0  0  0  0
 15 16  1  0  0  0  0
 16 17  2  0  0  0  0
 16 18  1  0  0  0  0
 14 19  1  0  0  0  0
 19 20  1  0  0  0  0
 20 21  2  0  0  0  0
 21 22  1  0  0  0  0
 22 23  1  0  0  0  0
 23 24  1  0  0  0  0
 22 25  2  0  0  0  0
 25 26  1  0  0  0  0
 26 19  2  0  0  0  0
  4 27  1  0  0  0  0
  4 28  1  0  0  0  0
  5 29  1  0  0  0  0
  7 30  1  0  0  0  0
  7 31  1  0  0  0  0
  8 32  1  0  0  0  0
  9 33  1  0  0  0  0
  9 34  1  0  0  0  0
 10 35  1  0  0  0  0
 10 36  1  0  0  0  0
 11 37  1  0  0  0  0
 11 38  1  0  0  0  0
 12 39  1  0  0  0  0
 12 40  1  0  0  0  0
 13 41  1  0  0  0  0
 13 42  1  0  0  0  0
 14 43  1  0  0  0  0
 15 44  1  0  0  0  0
 18 45  1  0  0  0  0
 18 46  1  0  0  0  0
 18 47  1  0  0  0  0
 20 48  1  0  0  0  0
 21 49  1  0  0  0  0
 24 50  1  0  0  0  0
 24 51  1  0  0  0  0
 24 52  1  0  0  0  0
 25 53  1  0  0  0  0
 26 54  1  0  0  0  0
M  END
>  <result-rank>
35

>  <similarity>
0.945

>  <query-name>
LIG_A_1101_CC(C)CC[C@]1([R*])CCCOC1_2

>  <query-smiles>
O=C(N[C@@]1(COCCC1)CCC(C)C)[C@@H](NC(=O)C)Cc2ccc(O)cc2

>  <source>
REALspace_2019-12

>  <similarity-descriptor>
1.000;0.985;0.852;0.852;0.993;0.886;0.886;0.886;0.0;1.000;1.000;1.000;1.000;1.000;0.704;0.077

>  <similarity-descriptor-smiles>
c1ccccc1;N1CCC(C1)O;O=C;O=C;C;C1CC1;C1CC1;C1CC1;;CC;N;C=O;C;CC;O;C

>  <reaction-name>
s_22

>  <reagent1-name>
15094274

>  <reagent1-smiles>
[R1*]N1CC(OCC2CC2)CC1

>  <reagent2-name>
107338

>  <reagent2-smiles>
[R1*]C(=O)CC(NC(=O)C)c1ccc(OC)cc1

$$$$
s_22____9399000____16717358
          04022015103D 1   1.00000     0.00000     0
            
 58 59  0  0  0  0            999 V2000
    0.4000    1.0000   -0.0392 O   0  0  0  0  0  0  0  0  0  0  0  0
    1.0000    1.0000    1.0000 C   0  0  0  0  0  0  0  0  0  0  0  0
    0.3150    1.0000    2.1865 N   0  0  0  0  0  0  0  0  0  0  0  0
   -1.1550    1.0000    2.1865 C   0  0  0  0  0  0  0  0  0  0  0  0
   -1.6632    1.0000    3.6238 C   0  0  0  0  0  0  0  0  0  0  0  0
   -1.2224   -0.1371    4.3466 O   0  0  0  0  0  0  0  0  0  0  0  0
   -1.4626    2.2916    4.3959 C   0  0  0  0  0  0  0  0  0  0  0  0
   -2.8003    2.7399    3.8387 C   0  0  3  0  0  0  0  0  0  0  0  0
   -3.5580    3.4577    4.8027 O   0  0  0  0  0  0  0  0  0  0  0  0
   -2.8352    4.6101    5.2103 C   0  0  0  0  0  0  0  0  0  0  0  0
   -3.6457    5.3780    6.2417 C   0  0  0  0  0  0  0  0  0  0  0  0
   -3.1444    1.2651    3.7893 C   0  0  0  0  0  0  0  0  0  0  0  0
    2.5200    1.0000    1.0000 C   0  0  3  0  0  0  0  0  0  0  0  0
    3.0100    0.1091    2.0617 N   0  0  0  0  0  0  0  0  0  0  0  0
    3.7976    0.6082    3.0654 C   0  0  0  0  0  0  0  0  0  0  0  0
    4.0875    1.7726    3.0779 O   0  0  0  0  0  0  0  0  0  0  0  0
    4.3043   -0.3129    4.1632 C   0  0  0  0  0  0  0  0  0  0  0  0
    5.1210    0.4580    5.1116 N   0  0  0  0  0  0  0  0  0  0  0  0
    4.5151    1.2187    6.0767 C   0  0  0  0  0  0  0  0  0  0  0  0
    3.3178    1.2555    6.1477 O   0  0  0  0  0  0  0  0  0  0  0  0
    5.3596    2.0159    7.0574 C   0  0  0  0  0  0  0  0  0  0  0  0
    3.0267    0.5099   -0.3466 C   0  0  0  0  0  0  0  0  0  0  0  0
    4.5467    0.5099   -0.3466 C   0  0  0  0  0  0  0  0  0  0  0  0
    5.2311   -0.6281    0.0675 C   0  0  0  0  0  0  0  0  0  0  0  0
    6.6219   -0.6330    0.0685 C   0  0  0  0  0  0  0  0  0  0  0  0
    7.3116    0.5021   -0.3460 C   0  0  0  0  0  0  0  0  0  0  0  0
    8.6614    0.5018   -0.3463 O   0  0  0  0  0  0  0  0  0  0  0  0
    6.6320    1.6429   -0.7608 C   0  0  0  0  0  0  0  0  0  0  0  0
    5.2412    1.6420   -0.7602 C   0  0  0  0  0  0  0  0  0  0  0  0
    0.8150    1.0000    3.0525 H   0  0  0  0  0  0  0  0  0  0  0  0
   -1.4883    0.1835    1.7151 H   0  0  0  0  0  0  0  0  0  0  0  0
   -1.4883    1.8165    1.7151 H   0  0  0  0  0  0  0  0  0  0  0  0
   -1.5774   -0.0966    5.2806 H   0  0  0  0  0  0  0  0  0  0  0  0
   -0.6806    2.8396    4.0992 H   0  0  0  0  0  0  0  0  0  0  0  0
   -1.4374    2.1856    5.3899 H   0  0  0  0  0  0  0  0  0  0  0  0
   -2.7473    3.1817    2.9431 H   0  0  0  0  0  0  0  0  0  0  0  0
   -2.6654    5.1949    4.4171 H   0  0  0  0  0  0  0  0  0  0  0  0
   -1.9628    4.3316    5.6120 H   0  0  0  0  0  0  0  0  0  0  0  0
   -3.1368    6.1895    6.5287 H   0  0  0  0  0  0  0  0  0  0  0  0
   -4.5181    5.6565    5.8400 H   0  0  0  0  0  0  0  0  0  0  0  0
   -3.8156    4.7932    7.0349 H   0  0  0  0  0  0  0  0  0  0  0  0
   -3.5429    0.9004    4.6309 H   0  0  0  0  0  0  0  0  0  0  0  0
   -3.7074    0.9932    3.0088 H   0  0  0  0  0  0  0  0  0  0  0  0
    2.8533    1.9285    1.1637 H   0  0  0  0  0  0  0  0  0  0  0  0
    2.7684   -0.8612    2.0513 H   0  0  0  0  0  0  0  0  0  0  0  0
    3.5265   -0.7169    4.6447 H   0  0  0  0  0  0  0  0  0  0  0  0
    4.8599   -1.0394    3.7587 H   0  0  0  0  0  0  0  0  0  0  0  0
    6.1187    0.4273    5.0524 H   0  0  0  0  0  0  0  0  0  0  0  0
    6.3286    1.8717    6.8568 H   0  0  0  0  0  0  0  0  0  0  0  0
    5.1423    2.9881    6.9708 H   0  0  0  0  0  0  0  0  0  0  0  0
    5.1634    1.7122    7.9898 H   0  0  0  0  0  0  0  0  0  0  0  0
    2.6933   -0.4186   -0.5104 H   0  0  0  0  0  0  0  0  0  0  0  0
    2.6933    1.1159   -1.0689 H   0  0  0  0  0  0  0  0  0  0  0  0
    4.7256   -1.4387    0.3632 H   0  0  0  0  0  0  0  0  0  0  0  0
    7.1226   -1.4463    0.3649 H   0  0  0  0  0  0  0  0  0  0  0  0
    9.1615    1.3153   -0.6433 H   0  0  0  0  0  0  0  0  0  0  0  0
    7.1374    2.4537   -1.0559 H   0  0  0  0  0  0  0  0  0  0  0  0
    4.7405    2.4552   -1.0569 H   0  0  0  0  0  0  0  0  0  0  0  0
  1  2  2  0  0  0  0
  2  3  1  0  0  0  0
  3  4  1  0  0  0  0
  4  5  1  0  0  0  0
  5  6  1  0  0  0  0
  5  7  1  0  0  0  0
  7  8  1  0  0  0  0
  8  9  1  0  0  0  0
  9 10  1  0  0  0  0
 10 11  1  0  0  0  0
  8 12  1  0  0  0  0
 12  5  1  0  0  0  0
  2 13  1  0  0  0  0
 13 14  1  0  0  0  0
 14 15  1  0  0  0  0
 15 16  2  0  0  0  0
 15 17  1  0  0  0  0
 17 18  1  0  0  0  0
 18 19  1  0  0  0  0
 19 20  2  0  0  0  0
 19 21  1  0  0  0  0
 13 22  1  0  0  0  0
 22 23  1  0  0  0  0
 23 24  1  0  0  0  0
 24 25  2  0  0  0  0
 25 26  1  0  0  0  0
 26 27  1  0  0  0  0
 26 28  2  0  0  0  0
 28 29  1  0  0  0  0
 29 23  2  0  0  0  0
  3 30  1  0  0  0  0
  4 31  1  0  0  0  0
  4 32  1  0  0  0  0
  6 33  1  0  0  0  0
  7 34  1  0  0  0  0
  7 35  1  0  0  0  0
  8 36  1  0  0  0  0
 10 37  1  0  0  0  0
 10 38  1  0  0  0  0
 11 39  1  0  0  0  0
 11 40  1  0  0  0  0
 11 41  1  0  0  0  0
 12 42  1  0  0  0  0
 12 43  1  0  0  0  0
 13 44  1  0  0  0  0
 14 45  1  0  0  0  0
 17 46  1  0  0  0  0
 17 47  1  0  0  0  0
 18 48  1  0  0  0  0
 21 49  1  0  0  0  0
 21 50  1  0  0  0  0
 21 51  1  0  0  0  0
 22 52  1  0  0  0  0
 22 53  1  0  0  0  0
 24 54  1  0  0  0  0
 25 55  1  0  0  0  0
 27 56  1  0  0  0  0
 28 57  1  0  0  0  0
 29 58  1  0  0  0  0
M  END
>  <result-rank>
36

>  <similarity>
0.945

>  <query-name>
LIG_A_1101_CC(C)CC[C@]1([R*])CCCOC1_2

>  <query-smiles>
O=C(N[C@@]1(COCCC1)CCC(C)C)[C@@H](NC(=O)C)Cc2ccc(O)cc2

>  <source>
REALspace_2019-12

>  <similarity-descriptor>
1.000;0.987;1.000;1.000;0.993;0.949;0.0;0.0;0.0;1.000;1.000;1.000;0.955;1.000;1.000;0.222

>  <similarity-descriptor-smiles>
c1ccccc1;CC1CC(C1)O;O=C;N;C;C;;;;C;N;C=O;C;C;O;O.N.C=O.C

>  <reaction-name>
s_22

>  <reagent1-name>
9399000

>  <reagent1-smiles>
[R1*]NCC1(O)CC(OCC)C1

>  <reagent2-name>
16717358

>  <reagent2-smiles>
[R1*]C(=O)C(NC(=O)CNC(=O)C)Cc1ccc(O)cc1

$$$$
s_22____12139182____518218
          04022015103D 1   1.00000     0.00000     0
            
 54 55  0  0  0  0            999 V2000
   -0.2680    1.7903    9.7275 Br  0  0  0  0  0  0  0  0  0  0  0  0
    1.1769    0.9875    8.6743 C   0  0  0  0  0  0  0  0  0  0  0  0
    2.3267    1.7239    8.4081 C   0  0  0  0  0  0  0  0  0  0  0  0
    3.3487    1.1488    7.6600 C   0  0  0  0  0  0  0  0  0  0  0  0
    3.2105   -0.1522    7.1876 C   0  0  0  0  0  0  0  0  0  0  0  0
    2.0578   -0.8831    7.4575 C   0  0  0  0  0  0  0  0  0  0  0  0
    1.0315   -0.3144    8.2048 C   0  0  0  0  0  0  0  0  0  0  0  0
    4.3313   -0.7747    6.3713 C   0  0  3  0  0  0  0  0  0  0  0  0
    5.5455   -0.8651    7.1950 N   0  0  0  0  0  0  0  0  0  0  0  0
    6.1160   -2.0858    7.4427 C   0  0  0  0  0  0  0  0  0  0  0  0
    5.6245   -3.0812    6.9871 O   0  0  0  0  0  0  0  0  0  0  0  0
    7.2475   -2.1700    8.2104 N   0  0  0  0  0  0  0  0  0  0  0  0
    4.6097    0.0887    5.1516 C   0  0  0  0  0  0  0  0  0  0  0  0
    3.3542    0.1822    4.2999 C   0  0  0  0  0  0  0  0  0  0  0  0
    2.4852   -0.6366    4.4202 O   0  0  0  0  0  0  0  0  0  0  0  0
    3.2114    1.2255    3.3733 N   0  0  0  0  0  0  0  0  0  0  0  0
    2.0224    1.4937    2.5693 C   0  0  0  0  0  0  0  0  0  0  0  0
    2.0036    3.0049    2.5311 C   0  0  3  0  0  0  0  0  0  0  0  0
    1.3112    3.4864    1.3896 O   0  0  0  0  0  0  0  0  0  0  0  0
    1.3189    4.9064    1.3954 C   0  0  0  0  0  0  0  0  0  0  0  0
    0.5773    5.4220    0.1729 C   0  0  0  0  0  0  0  0  0  0  0  0
    1.2628    4.9167   -1.0861 C   0  0  0  0  0  0  0  0  0  0  0  0
    0.5212    5.4324   -2.3086 C   0  0  0  0  0  0  0  0  0  0  0  0
    2.6983    5.4157   -1.1165 C   0  0  0  0  0  0  0  0  0  0  0  0
    3.4622    3.4171    2.4912 C   0  0  0  0  0  0  0  0  0  0  0  0
    4.2325    2.2263    3.0455 C   0  0  0  0  0  0  0  0  0  0  0  0
    2.4177    2.6586    8.7515 H   0  0  0  0  0  0  0  0  0  0  0  0
    4.1798    1.6687    7.4626 H   0  0  0  0  0  0  0  0  0  0  0  0
    1.9669   -1.8178    7.1141 H   0  0  0  0  0  0  0  0  0  0  0  0
    0.2003   -0.8342    8.4021 H   0  0  0  0  0  0  0  0  0  0  0  0
    4.0598   -1.6907    6.0762 H   0  0  0  0  0  0  0  0  0  0  0  0
    5.9551   -0.0355    7.5747 H   0  0  0  0  0  0  0  0  0  0  0  0
    7.6571   -1.3405    8.5900 H   0  0  0  0  0  0  0  0  0  0  0  0
    7.6639   -3.0610    8.3911 H   0  0  0  0  0  0  0  0  0  0  0  0
    4.8813    1.0048    5.4467 H   0  0  0  0  0  0  0  0  0  0  0  0
    5.3471   -0.3208    4.6146 H   0  0  0  0  0  0  0  0  0  0  0  0
    1.1991    1.1310    3.0060 H   0  0  0  0  0  0  0  0  0  0  0  0
    2.1101    1.1080    1.6509 H   0  0  0  0  0  0  0  0  0  0  0  0
    1.5744    3.3593    3.3618 H   0  0  0  0  0  0  0  0  0  0  0  0
    2.2633    5.2347    1.3754 H   0  0  0  0  0  0  0  0  0  0  0  0
    0.8679    5.2388    2.2237 H   0  0  0  0  0  0  0  0  0  0  0  0
   -0.3671    5.0938    0.1929 H   0  0  0  0  0  0  0  0  0  0  0  0
    0.5827    6.4220    0.1769 H   0  0  0  0  0  0  0  0  0  0  0  0
    1.2574    3.9168   -1.0902 H   0  0  0  0  0  0  0  0  0  0  0  0
    0.9722    5.1000   -3.1369 H   0  0  0  0  0  0  0  0  0  0  0  0
   -0.4231    5.1041   -2.2886 H   0  0  0  0  0  0  0  0  0  0  0  0
    0.5267    6.4324   -2.3046 H   0  0  0  0  0  0  0  0  0  0  0  0
    3.1493    5.0833   -1.9448 H   0  0  0  0  0  0  0  0  0  0  0  0
    2.7037    6.4157   -1.1124 H   0  0  0  0  0  0  0  0  0  0  0  0
    3.1862    5.0765   -0.3122 H   0  0  0  0  0  0  0  0  0  0  0  0
    3.6130    4.2265    3.0587 H   0  0  0  0  0  0  0  0  0  0  0  0
    3.7457    3.6109    1.5520 H   0  0  0  0  0  0  0  0  0  0  0  0
    4.8664    1.8689    2.3597 H   0  0  0  0  0  0  0  0  0  0  0  0
    4.7416    2.4891    3.8652 H   0  0  0  0  0  0  0  0  0  0  0  0
  1  2  1  0  0  0  0
  2  3  1  0  0  0  0
  3  4  2  0  0  0  0
  4  5  1  0  0  0  0
  5  6  2  0  0  0  0
  6  7  1  0  0  0  0
  7  2  2  0  0  0  0
  5  8  1  0  0  0  0
  8  9  1  0  0  0  0
  9 10  1  0  0  0  0
 10 11  2  0  0  0  0
 10 12  1  0  0  0  0
  8 13  1  0  0  0  0
 13 14  1  0  0  0  0
 14 15  2  0  0  0  0
 14 16  1  0  0  0  0
 16 17  1  0  0  0  0
 17 18  1  0  0  0  0
 18 19  1  0  0  0  0
 19 20  1  0  0  0  0
 20 21  1  0  0  0  0
 21 22  1  0  0  0  0
 22 23  1  0  0  0  0
 22 24  1  0  0  0  0
 18 25  1  0  0  0  0
 25 26  1  0  0  0  0
 26 16  1  0  0  0  0
  3 27  1  0  0  0  0
  4 28  1  0  0  0  0
  6 29  1  0  0  0  0
  7 30  1  0  0  0  0
  8 31  1  0  0  0  0
  9 32  1  0  0  0  0
 12 33  1  0  0  0  0
 12 34  1  0  0  0  0
 13 35  1  0  0  0  0
 13 36  1  0  0  0  0
 17 37  1  0  0  0  0
 17 38  1  0  0  0  0
 18 39  1  0  0  0  0
 20 40  1  0  0  0  0
 20 41  1  0  0  0  0
 21 42  1  0  0  0  0
 21 43  1  0  0  0  0
 22 44  1  0  0  0  0
 23 45  1  0  0  0  0
 23 46  1  0  0  0  0
 23 47  1  0  0  0  0
 24 48  1  0  0  0  0
 24 49  1  0  0  0  0
 24 50  1  0  0  0  0
 25 51  1  0  0  0  0
 25 52  1  0  0  0  0
 26 53  1  0  0  0  0
 26 54  1  0  0  0  0
M  END
>  <result-rank>
37

>  <similarity>
0.945

>  <query-name>
LIG_A_1101_CC(C)CC[C@]1([R*])CCCOC1_2

>  <query-smiles>
O=C(N[C@@]1(COCCC1)CCC(C)C)[C@@H](NC(=O)C)Cc2ccc(O)cc2

>  <source>
REALspace_2019-12

>  <similarity-descriptor>
0.962;0.985;0.852;0.852;0.993;1.000;1.000;1.000;1.000;1.000;1.000;0.840;0.840;1.000;0.0;0.071

>  <similarity-descriptor-smiles>
Brc1ccccc1;N1CCC(C1)O;C=O;C=O;C;C;C;C;C;CC;N;C=O;C=O;CC;;N

>  <reaction-name>
s_22

>  <reagent1-name>
12139182

>  <reagent1-smiles>
[R1*]N1CC(OCCC(C)C)CC1

>  <reagent2-name>
518218

>  <reagent2-smiles>
[R1*]C(=O)CC(NC(=O)N)c1ccc(Br)cc1

$$$$
s_22____14244378____16887748
          04022015103D 1   1.00000     0.00000     0
            
 65 65  0  0  0  0            999 V2000
    0.9150    1.0000    3.2257 O   0  0  0  0  0  0  0  0  0  0  0  0
    0.3150    1.0000    2.1865 C   0  0  0  0  0  0  0  0  0  0  0  0
    1.0000    1.0000    1.0000 N   0  0  0  0  0  0  0  0  0  0  0  0
    2.4700    1.0000    1.0000 C   0  0  0  0  0  0  0  0  0  0  0  0
    2.9767   -0.4113    1.2488 C   0  0  0  0  0  0  0  0  0  0  0  0
    4.4967   -0.4113    1.2488 C   0  0  0  0  0  0  0  0  0  0  0  0
    4.9700   -1.7297    1.4813 O   0  0  0  0  0  0  0  0  0  0  0  0
    6.3900   -1.7297    1.4813 C   0  0  0  0  0  0  0  0  0  0  0  0
    6.8967   -1.9786    0.0700 C   0  0  0  0  0  0  0  0  0  0  0  0
    6.3900   -3.3252   -0.4201 C   0  0  0  0  0  0  0  0  0  0  0  0
    6.8967   -3.5741   -1.8314 C   0  0  0  0  0  0  0  0  0  0  0  0
    6.8967   -4.4230    0.5011 C   0  0  0  0  0  0  0  0  0  0  0  0
   -1.2050    1.0000    2.1865 C   0  0  3  0  0  0  0  0  0  0  0  0
   -1.6950    0.1091    1.1248 N   0  0  0  0  0  0  0  0  0  0  0  0
   -2.4826    0.6082    0.1211 C   0  0  0  0  0  0  0  0  0  0  0  0
   -2.7725    1.7726    0.1086 O   0  0  0  0  0  0  0  0  0  0  0  0
   -2.9893   -0.3129   -0.9767 C   0  0  0  0  0  0  0  0  0  0  0  0
   -3.7782    0.4318   -1.8929 O   0  0  0  0  0  0  0  0  0  0  0  0
   -4.2515   -0.4287   -2.9185 C   0  0  0  0  0  0  0  0  0  0  0  0
   -5.0960    0.3685   -3.8992 C   0  0  0  0  0  0  0  0  0  0  0  0
   -3.0693   -1.0428   -3.6504 C   0  0  0  0  0  0  0  0  0  0  0  0
   -1.7117    0.5099    3.5331 C   0  0  0  0  0  0  0  0  0  0  0  0
   -3.2317    0.5099    3.5331 C   0  0  0  0  0  0  0  0  0  0  0  0
   -3.9161   -0.6281    3.1189 C   0  0  0  0  0  0  0  0  0  0  0  0
   -5.3069   -0.6330    3.1180 C   0  0  0  0  0  0  0  0  0  0  0  0
   -5.9966    0.5021    3.5324 C   0  0  0  0  0  0  0  0  0  0  0  0
   -7.3464    0.5018    3.5327 O   0  0  0  0  0  0  0  0  0  0  0  0
   -5.3170    1.6429    3.9473 C   0  0  0  0  0  0  0  0  0  0  0  0
   -3.9262    1.6420    3.9466 C   0  0  0  0  0  0  0  0  0  0  0  0
    0.5000    1.0000    0.1340 H   0  0  0  0  0  0  0  0  0  0  0  0
    2.8033    1.6060    1.7222 H   0  0  0  0  0  0  0  0  0  0  0  0
    2.8033    1.3225    0.1140 H   0  0  0  0  0  0  0  0  0  0  0  0
    2.6433   -0.7338    2.1348 H   0  0  0  0  0  0  0  0  0  0  0  0
    2.6433   -1.0173    0.5266 H   0  0  0  0  0  0  0  0  0  0  0  0
    4.8300   -0.0888    0.3629 H   0  0  0  0  0  0  0  0  0  0  0  0
    4.8300    0.1947    1.9711 H   0  0  0  0  0  0  0  0  0  0  0  0
    6.7233   -2.4520    2.0874 H   0  0  0  0  0  0  0  0  0  0  0  0
    6.7233   -0.8438    1.8038 H   0  0  0  0  0  0  0  0  0  0  0  0
    6.5633   -1.2564   -0.5360 H   0  0  0  0  0  0  0  0  0  0  0  0
    7.8967   -1.9786    0.0700 H   0  0  0  0  0  0  0  0  0  0  0  0
    5.3900   -3.3252   -0.4201 H   0  0  0  0  0  0  0  0  0  0  0  0
    6.5633   -4.4600   -2.1539 H   0  0  0  0  0  0  0  0  0  0  0  0
    6.5633   -2.8519   -2.4374 H   0  0  0  0  0  0  0  0  0  0  0  0
    7.8967   -3.5741   -1.8314 H   0  0  0  0  0  0  0  0  0  0  0  0
    6.5633   -5.3090    0.1786 H   0  0  0  0  0  0  0  0  0  0  0  0
    7.8967   -4.4230    0.5011 H   0  0  0  0  0  0  0  0  0  0  0  0
    6.5633   -4.2593    1.4295 H   0  0  0  0  0  0  0  0  0  0  0  0
   -1.5383    1.9285    2.0227 H   0  0  0  0  0  0  0  0  0  0  0  0
   -1.4534   -0.8612    1.1352 H   0  0  0  0  0  0  0  0  0  0  0  0
   -2.2115   -0.7169   -1.4582 H   0  0  0  0  0  0  0  0  0  0  0  0
   -3.5449   -1.0394   -0.5723 H   0  0  0  0  0  0  0  0  0  0  0  0
   -4.8071   -1.1552   -2.5140 H   0  0  0  0  0  0  0  0  0  0  0  0
   -5.4293   -0.2376   -4.6215 H   0  0  0  0  0  0  0  0  0  0  0  0
   -5.8737    0.7725   -3.4177 H   0  0  0  0  0  0  0  0  0  0  0  0
   -4.5404    1.0949   -4.3037 H   0  0  0  0  0  0  0  0  0  0  0  0
   -3.4026   -1.6489   -4.3726 H   0  0  0  0  0  0  0  0  0  0  0  0
   -2.5137   -0.3164   -4.0548 H   0  0  0  0  0  0  0  0  0  0  0  0
   -2.5137   -1.5673   -3.0052 H   0  0  0  0  0  0  0  0  0  0  0  0
   -1.3783   -0.4186    3.6968 H   0  0  0  0  0  0  0  0  0  0  0  0
   -1.3783    1.1159    4.2553 H   0  0  0  0  0  0  0  0  0  0  0  0
   -3.4106   -1.4387    2.8233 H   0  0  0  0  0  0  0  0  0  0  0  0
   -5.8076   -1.4463    2.8216 H   0  0  0  0  0  0  0  0  0  0  0  0
   -7.8465    1.3153    3.8298 H   0  0  0  0  0  0  0  0  0  0  0  0
   -5.8224    2.4537    4.2424 H   0  0  0  0  0  0  0  0  0  0  0  0
   -3.4255    2.4552    4.2434 H   0  0  0  0  0  0  0  0  0  0  0  0
  1  2  2  0  0  0  0
  2  3  1  0  0  0  0
  3  4  1  0  0  0  0
  4  5  1  0  0  0  0
  5  6  1  0  0  0  0
  6  7  1  0  0  0  0
  7  8  1  0  0  0  0
  8  9  1  0  0  0  0
  9 10  1  0  0  0  0
 10 11  1  0  0  0  0
 10 12  1  0  0  0  0
  2 13  1  0  0  0  0
 13 14  1  0  0  0  0
 14 15  1  0  0  0  0
 15 16  2  0  0  0  0
 15 17  1  0  0  0  0
 17 18  1  0  0  0  0
 18 19  1  0  0  0  0
 19 20  1  0  0  0  0
 19 21  1  0  0  0  0
 13 22  1  0  0  0  0
 22 23  1  0  0  0  0
 23 24  1  0  0  0  0
 24 25  2  0  0  0  0
 25 26  1  0  0  0  0
 26 27  1  0  0  0  0
 26 28  2  0  0  0  0
 28 29  1  0  0  0  0
 29 23  2  0  0  0  0
  3 30  1  0  0  0  0
  4 31  1  0  0  0  0
  4 32  1  0  0  0  0
  5 33  1  0  0  0  0
  5 34  1  0  0  0  0
  6 35  1  0  0  0  0
  6 36  1  0  0  0  0
  8 37  1  0  0  0  0
  8 38  1  0  0  0  0
  9 39  1  0  0  0  0
  9 40  1  0  0  0  0
 10 41  1  0  0  0  0
 11 42  1  0  0  0  0
 11 43  1  0  0  0  0
 11 44  1  0  0  0  0
 12 45  1  0  0  0  0
 12 46  1  0  0  0  0
 12 47  1  0  0  0  0
 13 48  1  0  0  0  0
 14 49  1  0  0  0  0
 17 50  1  0  0  0  0
 17 51  1  0  0  0  0
 19 52  1  0  0  0  0
 20 53  1  0  0  0  0
 20 54  1  0  0  0  0
 20 55  1  0  0  0  0
 21 56  1  0  0  0  0
 21 57  1  0  0  0  0
 21 58  1  0  0  0  0
 22 59  1  0  0  0  0
 22 60  1  0  0  0  0
 24 61  1  0  0  0  0
 25 62  1  0  0  0  0
 27 63  1  0  0  0  0
 28 64  1  0  0  0  0
 29 65  1  0  0  0  0
M  END
>  <result-rank>
38

>  <similarity>
0.945

>  <query-name>
LIG_A_1101_CC(C)CC[C@]1([R*])CCCOC1_2

>  <query-smiles>
O=C(N[C@@]1(COCCC1)CCC(C)C)[C@@H](NC(=O)C)Cc2ccc(O)cc2

>  <source>
REALspace_2019-12

>  <similarity-descriptor>
1.000;0.895;1.000;1.000;1.000;0.966;0.966;0.0;1.000;1.000;1.000;1.000;0.956;1.000;1.000;0.182

>  <similarity-descriptor-smiles>
c1ccccc1;CCCOC;O=C;N;C;CC;CC;;C;C;N;C=O;C;C;O;O.C.C.C

>  <reaction-name>
s_22

>  <reagent1-name>
14244378

>  <reagent1-smiles>
[R1*]NCCCOCCC(C)C

>  <reagent2-name>
16887748

>  <reagent2-smiles>
[R1*]C(=O)C(NC(=O)COC(C)C)Cc1ccc(O)cc1

$$$$
s_22____7114804____17513450
          04022015103D 1   1.00000     0.00000     0
            
 51 52  0  0  0  0            999 V2000
    0.9150    1.0000    3.2257 O   0  0  0  0  0  0  0  0  0  0  0  0
    0.3150    1.0000    2.1865 C   0  0  0  0  0  0  0  0  0  0  0  0
    1.0000    1.0000    1.0000 N   0  0  0  0  0  0  0  0  0  0  0  0
    2.4700    1.0000    1.0000 C   0  0  0  0  0  0  0  0  0  0  0  0
    2.9767   -0.4113    1.2488 C   0  0  3  0  0  0  0  0  0  0  0  0
    4.3967   -0.4113    1.2488 O   0  0  0  0  0  0  0  0  0  0  0  0
    2.4700   -1.3325    0.1511 C   0  0  0  0  0  0  0  0  0  0  0  0
    2.9433   -2.6509    0.3835 O   0  0  0  0  0  0  0  0  0  0  0  0
    2.4700   -3.5115   -0.6420 C   0  0  0  0  0  0  0  0  0  0  0  0
    2.9769   -4.9233   -0.3931 C   0  0  0  0  0  0  0  0  0  0  0  0
    2.4954   -5.4416    0.9306 C   0  0  0  0  0  0  0  0  0  0  0  0
    3.9211   -4.9966    0.7723 C   0  0  0  0  0  0  0  0  0  0  0  0
   -1.2050    1.0000    2.1865 C   0  0  3  0  0  0  0  0  0  0  0  0
   -1.6950    1.0000    3.5724 N   0  0  0  0  0  0  0  0  0  0  0  0
   -2.4826    2.0275    4.0205 C   0  0  0  0  0  0  0  0  0  0  0  0
   -2.7725    2.9275    3.2816 O   0  0  0  0  0  0  0  0  0  0  0  0
   -2.9893    2.0275    5.4535 C   0  0  0  0  0  0  0  0  0  0  0  0
   -1.7117   -0.2411    1.4699 C   0  0  0  0  0  0  0  0  0  0  0  0
   -3.2317   -0.2411    1.4699 C   0  0  0  0  0  0  0  0  0  0  0  0
   -3.9161    0.3644    0.4212 C   0  0  0  0  0  0  0  0  0  0  0  0
   -5.3069    0.3662    0.4166 C   0  0  0  0  0  0  0  0  0  0  0  0
   -5.9966   -0.2391    1.4624 C   0  0  0  0  0  0  0  0  0  0  0  0
   -7.3464   -0.2393    1.4621 O   0  0  0  0  0  0  0  0  0  0  0  0
   -5.3170   -0.8457    2.5138 C   0  0  0  0  0  0  0  0  0  0  0  0
   -3.9262   -0.8449    2.5131 C   0  0  0  0  0  0  0  0  0  0  0  0
    0.5000    1.0000    0.1340 H   0  0  0  0  0  0  0  0  0  0  0  0
    2.8033    1.6060    1.7222 H   0  0  0  0  0  0  0  0  0  0  0  0
    2.8033    1.3225    0.1140 H   0  0  0  0  0  0  0  0  0  0  0  0
    2.6433   -0.7338    2.1348 H   0  0  0  0  0  0  0  0  0  0  0  0
    4.7300    0.1947    1.9711 H   0  0  0  0  0  0  0  0  0  0  0  0
    1.4700   -1.3325    0.1511 H   0  0  0  0  0  0  0  0  0  0  0  0
    2.8033   -1.0100   -0.7349 H   0  0  0  0  0  0  0  0  0  0  0  0
    2.8033   -3.1890   -1.5280 H   0  0  0  0  0  0  0  0  0  0  0  0
    1.4700   -3.5115   -0.6420 H   0  0  0  0  0  0  0  0  0  0  0  0
    3.0879   -5.5533   -1.1618 H   0  0  0  0  0  0  0  0  0  0  0  0
    2.2841   -6.4128    1.0403 H   0  0  0  0  0  0  0  0  0  0  0  0
    1.8600   -4.8982    1.4791 H   0  0  0  0  0  0  0  0  0  0  0  0
    4.2349   -4.1568    1.2152 H   0  0  0  0  0  0  0  0  0  0  0  0
    4.6590   -5.6715    0.7764 H   0  0  0  0  0  0  0  0  0  0  0  0
   -1.5383    1.8165    1.7151 H   0  0  0  0  0  0  0  0  0  0  0  0
   -1.4534    0.2500    4.1881 H   0  0  0  0  0  0  0  0  0  0  0  0
   -2.6560    1.2110    5.9249 H   0  0  0  0  0  0  0  0  0  0  0  0
   -2.6560    2.8440    5.9249 H   0  0  0  0  0  0  0  0  0  0  0  0
   -3.9893    2.0275    5.4535 H   0  0  0  0  0  0  0  0  0  0  0  0
   -1.3783   -0.2411    0.5271 H   0  0  0  0  0  0  0  0  0  0  0  0
   -1.3783   -1.0576    1.9413 H   0  0  0  0  0  0  0  0  0  0  0  0
   -3.4106    0.7963   -0.3258 H   0  0  0  0  0  0  0  0  0  0  0  0
   -5.8076    0.7993   -0.3330 H   0  0  0  0  0  0  0  0  0  0  0  0
   -7.8465   -0.6731    2.2116 H   0  0  0  0  0  0  0  0  0  0  0  0
   -5.8224   -1.2771    3.2611 H   0  0  0  0  0  0  0  0  0  0  0  0
   -3.4255   -1.2783    3.2624 H   0  0  0  0  0  0  0  0  0  0  0  0
  1  2  2  0  0  0  0
  2  3  1  0  0  0  0
  3  4  1  0  0  0  0
  4  5  1  0  0  0  0
  5  6  1  0  0  0  0
  5  7  1  0  0  0  0
  7  8  1  0  0  0  0
  8  9  1  0  0  0  0
  9 10  1  0  0  0  0
 10 11  1  0  0  0  0
 11 12  1  0  0  0  0
 12 10  1  0  0  0  0
  2 13  1  0  0  0  0
 13 14  1  0  0  0  0
 14 15  1  0  0  0  0
 15 16  2  0  0  0  0
 15 17  1  0  0  0  0
 13 18  1  0  0  0  0
 18 19  1  0  0  0  0
 19 20  1  0  0  0  0
 20 21  2  0  0  0  0
 21 22  1  0  0  0  0
 22 23  1  0  0  0  0
 22 24  2  0  0  0  0
 24 25  1  0  0  0  0
 25 19  2  0  0  0  0
  3 26  1  0  0  0  0
  4 27  1  0  0  0  0
  4 28  1  0  0  0  0
  5 29  1  0  0  0  0
  6 30  1  0  0  0  0
  7 31  1  0  0  0  0
  7 32  1  0  0  0  0
  9 33  1  0  0  0  0
  9 34  1  0  0  0  0
 10 35  1  0  0  0  0
 11 36  1  0  0  0  0
 11 37  1  0  0  0  0
 12 38  1  0  0  0  0
 12 39  1  0  0  0  0
 13 40  1  0  0  0  0
 14 41  1  0  0  0  0
 17 42  1  0  0  0  0
 17 43  1  0  0  0  0
 17 44  1  0  0  0  0
 18 45  1  0  0  0  0
 18 46  1  0  0  0  0
 20 47  1  0  0  0  0
 21 48  1  0  0  0  0
 23 49  1  0  0  0  0
 24 50  1  0  0  0  0
 25 51  1  0  0  0  0
M  END
>  <result-rank>
39

>  <similarity>
0.945

>  <query-name>
LIG_A_1101_CC(C)CC[C@]1([R*])CCCOC1_2

>  <query-smiles>
O=C(N[C@@]1(COCCC1)CCC(C)C)[C@@H](NC(=O)C)Cc2ccc(O)cc2

>  <source>
REALspace_2019-12

>  <similarity-descriptor>
1.000;0.887;1.000;1.000;0.900;0.900;0.900;0.0;0.0;1.000;1.000;1.000;1.000;1.000;1.000;0.063

>  <similarity-descriptor-smiles>
c1ccccc1;CCCOC;O=C;N;C1CC1;C1CC1;C1CC1;;;C;N;C=O;C;C;O;O

>  <reaction-name>
s_22

>  <reagent1-name>
7114804

>  <reagent1-smiles>
[R1*]NCC(O)COCC1CC1

>  <reagent2-name>
17513450

>  <reagent2-smiles>
[R1*]C(=O)C(NC(=O)C)Cc1ccc(O)cc1

$$$$
s_22____15088960____17513450
          04022015103D 1   1.00000     0.00000     0
            
 57 58  0  0  0  0            999 V2000
    0.4000    2.0360    0.9181 O   0  0  0  0  0  0  0  0  0  0  0  0
    1.0000    1.0000    1.0000 C   0  0  0  0  0  0  0  0  0  0  0  0
    2.3975    1.0000    1.0000 N   0  0  0  0  0  0  0  0  0  0  0  0
    3.0944   -0.2227    1.4335 C   0  0  0  0  0  0  0  0  0  0  0  0
    4.4055    0.0895    2.1425 C   0  0  0  0  0  0  0  0  0  0  0  0
    5.2297    1.1536    1.4299 C   0  0  0  0  0  0  0  0  0  0  0  0
    6.3656    1.4328    2.2337 O   0  0  0  0  0  0  0  0  0  0  0  0
    6.7585    2.7842    2.0448 C   0  0  0  0  0  0  0  0  0  0  0  0
    7.9750    3.0832    2.9057 C   0  0  0  0  0  0  0  0  0  0  0  0
    5.6813    0.7089    0.1585 O   0  0  0  0  0  0  0  0  0  0  0  0
    6.3256   -0.5488    0.2984 C   0  0  0  0  0  0  0  0  0  0  0  0
    6.8087   -1.0247   -1.0620 C   0  0  0  0  0  0  0  0  0  0  0  0
    4.4032    2.4288    1.3239 C   0  0  0  0  0  0  0  0  0  0  0  0
    3.0906    2.2295    0.5757 C   0  0  0  0  0  0  0  0  0  0  0  0
    0.2400   -0.3123    1.1038 C   0  0  3  0  0  0  0  0  0  0  0  0
   -0.7765   -0.3750    0.0438 N   0  0  0  0  0  0  0  0  0  0  0  0
   -0.7381   -1.3829   -0.8834 C   0  0  0  0  0  0  0  0  0  0  0  0
    0.1253   -2.2145   -0.8301 O   0  0  0  0  0  0  0  0  0  0  0  0
   -1.7892   -1.4477   -1.9795 C   0  0  0  0  0  0  0  0  0  0  0  0
   -0.4378   -0.3992    2.4615 C   0  0  0  0  0  0  0  0  0  0  0  0
   -0.7109   -1.8559    2.7992 C   0  0  0  0  0  0  0  0  0  0  0  0
    0.2494   -2.5906    3.4869 C   0  0  0  0  0  0  0  0  0  0  0  0
    0.0036   -3.9236    3.7987 C   0  0  0  0  0  0  0  0  0  0  0  0
   -1.2016   -4.5055    3.4184 C   0  0  0  0  0  0  0  0  0  0  0  0
   -1.4441   -5.7990    3.7187 O   0  0  0  0  0  0  0  0  0  0  0  0
   -2.1652   -3.7752    2.7302 C   0  0  0  0  0  0  0  0  0  0  0  0
   -1.9143   -2.4426    2.4214 C   0  0  0  0  0  0  0  0  0  0  0  0
    3.2878   -0.7862    0.6303 H   0  0  0  0  0  0  0  0  0  0  0  0
    2.5008   -0.7278    2.0600 H   0  0  0  0  0  0  0  0  0  0  0  0
    4.1990    0.4121    3.0663 H   0  0  0  0  0  0  0  0  0  0  0  0
    4.9465   -0.7498    2.1957 H   0  0  0  0  0  0  0  0  0  0  0  0
    6.0072    3.3896    2.3077 H   0  0  0  0  0  0  0  0  0  0  0  0
    6.9860    2.9339    1.0827 H   0  0  0  0  0  0  0  0  0  0  0  0
    8.2517    4.0349    2.7727 H   0  0  0  0  0  0  0  0  0  0  0  0
    7.7474    2.9336    3.8679 H   0  0  0  0  0  0  0  0  0  0  0  0
    8.7263    2.4779    2.6428 H   0  0  0  0  0  0  0  0  0  0  0  0
    5.6803   -1.2139    0.6743 H   0  0  0  0  0  0  0  0  0  0  0  0
    7.1067   -0.4563    0.9159 H   0  0  0  0  0  0  0  0  0  0  0  0
    7.2624   -1.9104   -0.9635 H   0  0  0  0  0  0  0  0  0  0  0  0
    6.0276   -1.1172   -1.6795 H   0  0  0  0  0  0  0  0  0  0  0  0
    7.4539   -0.3596   -1.4379 H   0  0  0  0  0  0  0  0  0  0  0  0
    4.9429    3.1189    0.8417 H   0  0  0  0  0  0  0  0  0  0  0  0
    4.1971    2.7523    2.2475 H   0  0  0  0  0  0  0  0  0  0  0  0
    2.4955    3.0135    0.7523 H   0  0  0  0  0  0  0  0  0  0  0  0
    3.2826    2.1707   -0.4039 H   0  0  0  0  0  0  0  0  0  0  0  0
    0.8774   -1.0757    1.0000 H   0  0  0  0  0  0  0  0  0  0  0  0
   -1.4960    0.3181   -0.0006 H   0  0  0  0  0  0  0  0  0  0  0  0
   -2.4266   -0.6842   -1.8756 H   0  0  0  0  0  0  0  0  0  0  0  0
   -1.3433   -1.3905   -2.8727 H   0  0  0  0  0  0  0  0  0  0  0  0
   -2.2892   -2.3110   -1.9112 H   0  0  0  0  0  0  0  0  0  0  0  0
    0.1594   -0.0018    3.1583 H   0  0  0  0  0  0  0  0  0  0  0  0
   -1.3013    0.1046    2.4359 H   0  0  0  0  0  0  0  0  0  0  0  0
    1.1122   -2.1625    3.7558 H   0  0  0  0  0  0  0  0  0  0  0  0
    0.6881   -4.4598    4.2925 H   0  0  0  0  0  0  0  0  0  0  0  0
   -2.3089   -6.2216    3.4475 H   0  0  0  0  0  0  0  0  0  0  0  0
   -3.0278   -4.2034    2.4607 H   0  0  0  0  0  0  0  0  0  0  0  0
   -2.5989   -1.9062    1.9279 H   0  0  0  0  0  0  0  0  0  0  0  0
  1  2  2  0  0  0  0
  2  3  1  0  0  0  0
  3  4  1  0  0  0  0
  4  5  1  0  0  0  0
  5  6  1  0  0  0  0
  6  7  1  0  0  0  0
  7  8  1  0  0  0  0
  8  9  1  0  0  0  0
  6 10  1  0  0  0  0
 10 11  1  0  0  0  0
 11 12  1  0  0  0  0
  6 13  1  0  0  0  0
 13 14  1  0  0  0  0
 14  3  1  0  0  0  0
  2 15  1  0  0  0  0
 15 16  1  0  0  0  0
 16 17  1  0  0  0  0
 17 18  2  0  0  0  0
 17 19  1  0  0  0  0
 15 20  1  0  0  0  0
 20 21  1  0  0  0  0
 21 22  1  0  0  0  0
 22 23  2  0  0  0  0
 23 24  1  0  0  0  0
 24 25  1  0  0  0  0
 24 26  2  0  0  0  0
 26 27  1  0  0  0  0
 27 21  2  0  0  0  0
  4 28  1  0  0  0  0
  4 29  1  0  0  0  0
  5 30  1  0  0  0  0
  5 31  1  0  0  0  0
  8 32  1  0  0  0  0
  8 33  1  0  0  0  0
  9 34  1  0  0  0  0
  9 35  1  0  0  0  0
  9 36  1  0  0  0  0
 11 37  1  0  0  0  0
 11 38  1  0  0  0  0
 12 39  1  0  0  0  0
 12 40  1  0  0  0  0
 12 41  1  0  0  0  0
 13 42  1  0  0  0  0
 13 43  1  0  0  0  0
 14 44  1  0  0  0  0
 14 45  1  0  0  0  0
 15 46  1  0  0  0  0
 16 47  1  0  0  0  0
 19 48  1  0  0  0  0
 19 49  1  0  0  0  0
 19 50  1  0  0  0  0
 20 51  1  0  0  0  0
 20 52  1  0  0  0  0
 22 53  1  0  0  0  0
 23 54  1  0  0  0  0
 25 55  1  0  0  0  0
 26 56  1  0  0  0  0
 27 57  1  0  0  0  0
M  END
>  <result-rank>
40

>  <similarity>
0.945

>  <query-name>
LIG_A_1101_CC(C)CC[C@]1([R*])CCCOC1_2

>  <query-smiles>
O=C(N[C@@]1(COCCC1)CCC(C)C)[C@@H](NC(=O)C)Cc2ccc(O)cc2

>  <source>
REALspace_2019-12

>  <similarity-descriptor>
1.000;0.993;0.852;0.852;0.993;0.949;0.0;0.0;0.0;1.000;1.000;1.000;1.000;1.000;1.000;0.200

>  <similarity-descriptor-smiles>
c1ccccc1;N1CCC(CC1)O;O=C;O=C;C;C;;;;C;N;C=O;C;C;O;O.C.C

>  <reaction-name>
s_22

>  <reagent1-name>
15088960

>  <reagent1-smiles>
[R1*]N1CCC(OCC)(OCC)CC1

>  <reagent2-name>
17513450

>  <reagent2-smiles>
[R1*]C(=O)C(NC(=O)C)Cc1ccc(O)cc1

$$$$
s_2708____12222526____5535004
          04022015103D 1   1.00000     0.00000     0
            
 63 64  0  0  0  0            999 V2000
    6.3929   -0.0333    3.6713 O   0  0  0  0  0  0  0  0  0  0  0  0
    6.0035    0.2503    4.7704 C   0  0  0  0  0  0  0  0  0  0  0  0
    6.6740   -0.2075    5.8740 N   0  0  0  0  0  0  0  0  0  0  0  0
    6.1970    0.1399    7.2203 C   0  0  0  0  0  0  0  0  0  0  0  0
    5.4108   -1.0270    7.7961 C   0  0  0  0  0  0  0  0  0  0  0  0
    6.0701   -2.0054    8.5329 C   0  0  0  0  0  0  0  0  0  0  0  0
    5.3471   -3.0719    9.0573 C   0  0  0  0  0  0  0  0  0  0  0  0
    3.9750   -3.1535    8.8445 C   0  0  0  0  0  0  0  0  0  0  0  0
    3.3268   -2.1701    8.1073 C   0  0  0  0  0  0  0  0  0  0  0  0
    4.0387   -1.0991    7.5772 C   0  0  0  0  0  0  0  0  0  0  0  0
    7.8704   -1.0460    5.7117 C   0  0  0  0  0  0  0  0  0  0  0  0
    9.1041   -0.1607    5.6438 C   0  0  3  0  0  0  0  0  0  0  0  0
    8.9922    0.7233    4.5382 O   0  0  0  0  0  0  0  0  0  0  0  0
   10.3413   -1.0278    5.4760 C   0  0  0  0  0  0  0  0  0  0  0  0
    4.8884    1.0318    4.9217 N   0  0  0  0  0  0  0  0  0  0  0  0
    4.1692    1.5228    3.7379 C   0  0  3  0  0  0  0  0  0  0  0  0
    4.1551    3.0429    3.7333 C   0  0  0  0  0  0  0  0  0  0  0  0
    3.4088    3.5546    2.5118 C   0  0  0  0  0  0  0  0  0  0  0  0
    1.9831    3.0265    2.5092 C   0  0  3  0  0  0  0  0  0  0  0  0
    1.2946    3.4962    1.3600 O   0  0  0  0  0  0  0  0  0  0  0  0
   -0.0349    2.9973    1.3678 C   0  0  0  0  0  0  0  0  0  0  0  0
   -0.7721    3.5002    0.1373 C   0  0  0  0  0  0  0  0  0  0  0  0
   -0.8011    5.0198    0.1499 C   0  0  0  0  0  0  0  0  0  0  0  0
   -1.5383    5.5227   -1.0805 C   0  0  0  0  0  0  0  0  0  0  0  0
   -1.5160    5.5026    1.4014 C   0  0  0  0  0  0  0  0  0  0  0  0
    2.0046    1.5065    2.5106 C   0  0  0  0  0  0  0  0  0  0  0  0
    2.7461    0.9884    3.7324 C   0  0  0  0  0  0  0  0  0  0  0  0
    5.6070    0.9456    7.1674 H   0  0  0  0  0  0  0  0  0  0  0  0
    6.9796    0.3381    7.8104 H   0  0  0  0  0  0  0  0  0  0  0  0
    7.0566   -1.9426    8.6845 H   0  0  0  0  0  0  0  0  0  0  0  0
    5.8139   -3.7799    9.5873 H   0  0  0  0  0  0  0  0  0  0  0  0
    3.4551   -3.9198    9.2220 H   0  0  0  0  0  0  0  0  0  0  0  0
    2.3403   -2.2329    7.9567 H   0  0  0  0  0  0  0  0  0  0  0  0
    3.5714   -0.3917    7.0468 H   0  0  0  0  0  0  0  0  0  0  0  0
    7.7938   -1.5763    4.8673 H   0  0  0  0  0  0  0  0  0  0  0  0
    7.9493   -1.6685    6.4903 H   0  0  0  0  0  0  0  0  0  0  0  0
    9.1808    0.3696    6.4881 H   0  0  0  0  0  0  0  0  0  0  0  0
    9.8038    1.3057    4.4935 H   0  0  0  0  0  0  0  0  0  0  0  0
   10.4201   -1.6503    6.2546 H   0  0  0  0  0  0  0  0  0  0  0  0
   10.2646   -1.5580    4.6317 H   0  0  0  0  0  0  0  0  0  0  0  0
   11.1529   -0.4453    5.4313 H   0  0  0  0  0  0  0  0  0  0  0  0
    4.5639    1.2681    5.8376 H   0  0  0  0  0  0  0  0  0  0  0  0
    4.6394    1.2006    2.9162 H   0  0  0  0  0  0  0  0  0  0  0  0
    5.0955    3.3823    3.7125 H   0  0  0  0  0  0  0  0  0  0  0  0
    3.7002    3.3720    4.5608 H   0  0  0  0  0  0  0  0  0  0  0  0
    3.3909    4.5543    2.5303 H   0  0  0  0  0  0  0  0  0  0  0  0
    3.8774    3.2449    1.6845 H   0  0  0  0  0  0  0  0  0  0  0  0
    1.5115    3.3493    3.3298 H   0  0  0  0  0  0  0  0  0  0  0  0
   -0.5052    3.3149    2.1912 H   0  0  0  0  0  0  0  0  0  0  0  0
   -0.0158    1.9975    1.3595 H   0  0  0  0  0  0  0  0  0  0  0  0
   -0.3017    3.1826   -0.6860 H   0  0  0  0  0  0  0  0  0  0  0  0
   -1.7083    3.1488    0.1429 H   0  0  0  0  0  0  0  0  0  0  0  0
    0.1351    5.3712    0.1444 H   0  0  0  0  0  0  0  0  0  0  0  0
   -1.5574    6.5225   -1.0722 H   0  0  0  0  0  0  0  0  0  0  0  0
   -1.0679    5.2052   -1.9039 H   0  0  0  0  0  0  0  0  0  0  0  0
   -2.4745    5.1714   -1.0750 H   0  0  0  0  0  0  0  0  0  0  0  0
   -1.5352    6.5024    1.4097 H   0  0  0  0  0  0  0  0  0  0  0  0
   -2.4523    5.1512    1.4070 H   0  0  0  0  0  0  0  0  0  0  0  0
   -1.0311    5.1717    2.2110 H   0  0  0  0  0  0  0  0  0  0  0  0
    2.4648    1.1827    1.6840 H   0  0  0  0  0  0  0  0  0  0  0  0
    1.0653    1.1637    2.5252 H   0  0  0  0  0  0  0  0  0  0  0  0
    2.2744    1.2922    4.5603 H   0  0  0  0  0  0  0  0  0  0  0  0
    2.7671   -0.0111    3.7086 H   0  0  0  0  0  0  0  0  0  0  0  0
  1  2  2  0  0  0  0
  2  3  1  0  0  0  0
  3  4  1  0  0  0  0
  4  5  1  0  0  0  0
  5  6  1  0  0  0  0
  6  7  2  0  0  0  0
  7  8  1  0  0  0  0
  8  9  2  0  0  0  0
  9 10  1  0  0  0  0
 10  5  2  0  0  0  0
  3 11  1  0  0  0  0
 11 12  1  0  0  0  0
 12 13  1  0  0  0  0
 12 14  1  0  0  0  0
  2 15  1  0  0  0  0
 15 16  1  0  0  0  0
 16 17  1  0  0  0  0
 17 18  1  0  0  0  0
 18 19  1  0  0  0  0
 19 20  1  0  0  0  0
 20 21  1  0  0  0  0
 21 22  1  0  0  0  0
 22 23  1  0  0  0  0
 23 24  1  0  0  0  0
 23 25  1  0  0  0  0
 19 26  1  0  0  0  0
 26 27  1  0  0  0  0
 27 16  1  0  0  0  0
  4 28  1  0  0  0  0
  4 29  1  0  0  0  0
  6 30  1  0  0  0  0
  7 31  1  0  0  0  0
  8 32  1  0  0  0  0
  9 33  1  0  0  0  0
 10 34  1  0  0  0  0
 11 35  1  0  0  0  0
 11 36  1  0  0  0  0
 12 37  1  0  0  0  0
 13 38  1  0  0  0  0
 14 39  1  0  0  0  0
 14 40  1  0  0  0  0
 14 41  1  0  0  0  0
 15 42  1  0  0  0  0
 16 43  1  0  0  0  0
 17 44  1  0  0  0  0
 17 45  1  0  0  0  0
 18 46  1  0  0  0  0
 18 47  1  0  0  0  0
 19 48  1  0  0  0  0
 21 49  1  0  0  0  0
 21 50  1  0  0  0  0
 22 51  1  0  0  0  0
 22 52  1  0  0  0  0
 23 53  1  0  0  0  0
 24 54  1  0  0  0  0
 24 55  1  0  0  0  0
 24 56  1  0  0  0  0
 25 57  1  0  0  0  0
 25 58  1  0  0  0  0
 25 59  1  0  0  0  0
 26 60  1  0  0  0  0
 26 61  1  0  0  0  0
 27 62  1  0  0  0  0
 27 63  1  0  0  0  0
M  END
>  <result-rank>
41

>  <similarity>
0.945

>  <query-name>
LIG_A_1101_CC(C)CC[C@]1([R*])CCCOC1_2

>  <query-smiles>
O=C(N[C@@]1(COCCC1)CCC(C)C)[C@@H](NC(=O)C)Cc2ccc(O)cc2

>  <source>
REALspace_2019-12

>  <similarity-descriptor>
0.960;0.910;0.995;1.000;0.993;1.000;1.000;1.000;1.000;0.953;0.856;0.856;1.000;0.953;0.0;0.0

>  <similarity-descriptor-smiles>
c1ccccc1;C1CCC(CC1)O;O=C;N;C;C;C;C;C;N(C)C;CO;CO;C;N(C)C;;

>  <reaction-name>
s_2708

>  <reagent1-name>
12222526

>  <reagent1-smiles>
[R1*]C(=O)NC1CCC(OCCC(C)C)CC1

>  <reagent2-name>
5535004

>  <reagent2-smiles>
[R1*]N(Cc1ccccc1)CC(O)C

$$$$
s_2708____12222526____8696720
          04022015103D 1   1.00000     0.00000     0
            
 61 63  0  0  0  0            999 V2000
    9.2889   -1.1617    3.6528 F   0  0  0  0  0  0  0  0  0  0  0  0
    8.3022   -2.0418    3.5052 C   0  0  0  0  0  0  0  0  0  0  0  0
    7.3943   -2.2493    4.5389 C   0  0  0  0  0  0  0  0  0  0  0  0
    6.3596   -3.1678    4.3948 C   0  0  0  0  0  0  0  0  0  0  0  0
    6.2407   -3.8802    3.2060 C   0  0  0  0  0  0  0  0  0  0  0  0
    7.1508   -3.6698    2.1748 C   0  0  0  0  0  0  0  0  0  0  0  0
    8.1862   -2.7516    2.3153 C   0  0  0  0  0  0  0  0  0  0  0  0
    7.5357   -1.4643    5.8337 C   0  0  3  0  0  0  0  0  0  0  0  0
    6.6295   -0.3055    5.8978 N   0  0  0  0  0  0  0  0  0  0  0  0
    6.0035    0.2503    4.7704 C   0  0  0  0  0  0  0  0  0  0  0  0
    6.4452    0.0407    3.6745 O   0  0  0  0  0  0  0  0  0  0  0  0
    4.8884    1.0318    4.9217 N   0  0  0  0  0  0  0  0  0  0  0  0
    4.1692    1.5228    3.7379 C   0  0  3  0  0  0  0  0  0  0  0  0
    4.1551    3.0429    3.7333 C   0  0  0  0  0  0  0  0  0  0  0  0
    3.4088    3.5546    2.5118 C   0  0  0  0  0  0  0  0  0  0  0  0
    1.9831    3.0265    2.5092 C   0  0  3  0  0  0  0  0  0  0  0  0
    1.2946    3.4962    1.3600 O   0  0  0  0  0  0  0  0  0  0  0  0
   -0.0349    2.9973    1.3678 C   0  0  0  0  0  0  0  0  0  0  0  0
   -0.7721    3.5002    0.1373 C   0  0  0  0  0  0  0  0  0  0  0  0
   -2.1951    2.9661    0.1457 C   0  0  0  0  0  0  0  0  0  0  0  0
   -2.1661    1.4465    0.1331 C   0  0  0  0  0  0  0  0  0  0  0  0
   -2.9101    3.4488    1.3972 C   0  0  0  0  0  0  0  0  0  0  0  0
    2.0046    1.5065    2.5106 C   0  0  0  0  0  0  0  0  0  0  0  0
    2.7461    0.9884    3.7324 C   0  0  0  0  0  0  0  0  0  0  0  0
    6.4645    0.2373    7.2539 C   0  0  0  0  0  0  0  0  0  0  0  0
    5.7928   -0.7904    8.1507 C   0  0  0  0  0  0  0  0  0  0  0  0
    6.4773   -2.0895    8.0609 N   0  0  0  0  0  0  0  0  0  0  0  0
    7.2914   -2.4441    6.9775 C   0  0  0  0  0  0  0  0  0  0  0  0
    7.7771   -3.5644    6.9569 O   0  0  0  0  0  0  0  0  0  0  0  0
    5.7076   -3.3146    5.1387 H   0  0  0  0  0  0  0  0  0  0  0  0
    5.5010   -4.5436    3.0924 H   0  0  0  0  0  0  0  0  0  0  0  0
    7.0596   -4.1849    1.3225 H   0  0  0  0  0  0  0  0  0  0  0  0
    8.8378   -2.6041    1.5712 H   0  0  0  0  0  0  0  0  0  0  0  0
    8.4767   -1.1321    5.8992 H   0  0  0  0  0  0  0  0  0  0  0  0
    4.5639    1.2681    5.8376 H   0  0  0  0  0  0  0  0  0  0  0  0
    4.6394    1.2006    2.9162 H   0  0  0  0  0  0  0  0  0  0  0  0
    5.0955    3.3823    3.7125 H   0  0  0  0  0  0  0  0  0  0  0  0
    3.7002    3.3720    4.5608 H   0  0  0  0  0  0  0  0  0  0  0  0
    3.3909    4.5543    2.5303 H   0  0  0  0  0  0  0  0  0  0  0  0
    3.8774    3.2449    1.6845 H   0  0  0  0  0  0  0  0  0  0  0  0
    1.5115    3.3493    3.3298 H   0  0  0  0  0  0  0  0  0  0  0  0
   -0.5052    3.3149    2.1912 H   0  0  0  0  0  0  0  0  0  0  0  0
   -0.0158    1.9975    1.3595 H   0  0  0  0  0  0  0  0  0  0  0  0
   -0.7912    4.5000    0.1456 H   0  0  0  0  0  0  0  0  0  0  0  0
   -0.3017    3.1826   -0.6860 H   0  0  0  0  0  0  0  0  0  0  0  0
   -2.6801    3.2970   -0.6638 H   0  0  0  0  0  0  0  0  0  0  0  0
   -3.1023    1.0951    0.1387 H   0  0  0  0  0  0  0  0  0  0  0  0
   -1.6957    1.1289   -0.6902 H   0  0  0  0  0  0  0  0  0  0  0  0
   -1.6811    1.1156    0.9426 H   0  0  0  0  0  0  0  0  0  0  0  0
   -3.8463    3.0975    1.4028 H   0  0  0  0  0  0  0  0  0  0  0  0
   -2.4251    3.1180    2.2067 H   0  0  0  0  0  0  0  0  0  0  0  0
   -2.9292    4.4486    1.4055 H   0  0  0  0  0  0  0  0  0  0  0  0
    2.4648    1.1827    1.6840 H   0  0  0  0  0  0  0  0  0  0  0  0
    1.0653    1.1637    2.5252 H   0  0  0  0  0  0  0  0  0  0  0  0
    2.2744    1.2922    4.5603 H   0  0  0  0  0  0  0  0  0  0  0  0
    2.7671   -0.0111    3.7086 H   0  0  0  0  0  0  0  0  0  0  0  0
    5.8990    1.0611    7.2138 H   0  0  0  0  0  0  0  0  0  0  0  0
    7.3623    0.4674    7.6294 H   0  0  0  0  0  0  0  0  0  0  0  0
    5.8227   -0.4689    9.0972 H   0  0  0  0  0  0  0  0  0  0  0  0
    4.8406   -0.9012    7.8662 H   0  0  0  0  0  0  0  0  0  0  0  0
    6.3563   -2.7470    8.8045 H   0  0  0  0  0  0  0  0  0  0  0  0
  1  2  1  0  0  0  0
  2  3  1  0  0  0  0
  3  4  2  0  0  0  0
  4  5  1  0  0  0  0
  5  6  2  0  0  0  0
  6  7  1  0  0  0  0
  7  2  2  0  0  0  0
  3  8  1  0  0  0  0
  8  9  1  0  0  0  0
  9 10  1  0  0  0  0
 10 11  2  0  0  0  0
 10 12  1  0  0  0  0
 12 13  1  0  0  0  0
 13 14  1  0  0  0  0
 14 15  1  0  0  0  0
 15 16  1  0  0  0  0
 16 17  1  0  0  0  0
 17 18  1  0  0  0  0
 18 19  1  0  0  0  0
 19 20  1  0  0  0  0
 20 21  1  0  0  0  0
 20 22  1  0  0  0  0
 16 23  1  0  0  0  0
 23 24  1  0  0  0  0
 24 13  1  0  0  0  0
  9 25  1  0  0  0  0
 25 26  1  0  0  0  0
 26 27  1  0  0  0  0
 27 28  1  0  0  0  0
 28  8  1  0  0  0  0
 28 29  2  0  0  0  0
  4 30  1  0  0  0  0
  5 31  1  0  0  0  0
  6 32  1  0  0  0  0
  7 33  1  0  0  0  0
  8 34  1  0  0  0  0
 12 35  1  0  0  0  0
 13 36  1  0  0  0  0
 14 37  1  0  0  0  0
 14 38  1  0  0  0  0
 15 39  1  0  0  0  0
 15 40  1  0  0  0  0
 16 41  1  0  0  0  0
 18 42  1  0  0  0  0
 18 43  1  0  0  0  0
 19 44  1  0  0  0  0
 19 45  1  0  0  0  0
 20 46  1  0  0  0  0
 21 47  1  0  0  0  0
 21 48  1  0  0  0  0
 21 49  1  0  0  0  0
 22 50  1  0  0  0  0
 22 51  1  0  0  0  0
 22 52  1  0  0  0  0
 23 53  1  0  0  0  0
 23 54  1  0  0  0  0
 24 55  1  0  0  0  0
 24 56  1  0  0  0  0
 25 57  1  0  0  0  0
 25 58  1  0  0  0  0
 26 59  1  0  0  0  0
 26 60  1  0  0  0  0
 27 61  1  0  0  0  0
M  END
>  <result-rank>
42

>  <similarity>
0.945

>  <query-name>
LIG_A_1101_CC(C)CC[C@]1([R*])CCCOC1_2

>  <query-smiles>
O=C(N[C@@]1(COCCC1)CCC(C)C)[C@@H](NC(=O)C)Cc2ccc(O)cc2

>  <source>
REALspace_2019-12

>  <similarity-descriptor>
0.983;0.910;0.995;1.000;0.993;1.000;1.000;1.000;1.000;0.897;0.897;0.897;0.897;0.897;0.0;0.0

>  <similarity-descriptor-smiles>
Fc1ccccc1;C1CCC(CC1)O;C=O;N;C;C;C;C;C;C1C(NCCN1)=O;C1C(NCCN1)=O;C1C(NCCN1)=O;C1C(NCCN1)=O;C1C(NCCN1)=O;;

>  <reaction-name>
s_2708

>  <reagent1-name>
12222526

>  <reagent1-smiles>
[R1*]C(=O)NC1CCC(OCCC(C)C)CC1

>  <reagent2-name>
8696720

>  <reagent2-smiles>
[R1*]N1C(c2c(F)cccc2)C(=O)NCC1

$$$$
s_22____14518678____220032
          04022015103D 1   1.00000     0.00000     0
            
 49 50  0  0  0  0            999 V2000
    1.7301    0.2657   -2.6418 S   0  0  0  0  0  0  0  0  0  0  0  0
    2.8456    0.2901   -1.3578 C   0  0  0  0  0  0  0  0  0  0  0  0
    3.5319   -0.8836   -1.3934 C   0  0  0  0  0  0  0  0  0  0  0  0
    3.1125   -1.7431   -2.4464 C   0  0  0  0  0  0  0  0  0  0  0  0
    2.1148   -1.2777   -3.2494 C   0  0  0  0  0  0  0  0  0  0  0  0
    3.0267    1.4309   -0.3667 C   0  0  3  0  0  0  0  0  0  0  0  0
    4.4521    1.7778   -0.2739 N   0  0  0  0  0  0  0  0  0  0  0  0
    4.8720    3.0415   -0.5957 C   0  0  0  0  0  0  0  0  0  0  0  0
    4.0761    3.8653   -0.9534 O   0  0  0  0  0  0  0  0  0  0  0  0
    6.3460    3.4001   -0.4997 C   0  0  0  0  0  0  0  0  0  0  0  0
    2.5200    1.0000    1.0000 C   0  0  0  0  0  0  0  0  0  0  0  0
    1.0000    1.0000    1.0000 C   0  0  0  0  0  0  0  0  0  0  0  0
    0.4000    1.0000   -0.0392 O   0  0  0  0  0  0  0  0  0  0  0  0
    0.3150    1.0000    2.1865 N   0  0  0  0  0  0  0  0  0  0  0  0
   -1.1550    1.0000    2.1865 C   0  0  0  0  0  0  0  0  0  0  0  0
   -1.6617   -0.4113    1.9376 C   0  0  3  0  0  0  0  0  0  0  0  0
   -3.0757   -0.4636    1.9284 O   0  0  0  0  0  0  0  0  0  0  0  0
   -3.4319   -1.8263    2.0748 C   0  0  3  0  0  0  0  0  0  0  0  0
   -2.5458   -2.1988    3.2454 C   0  0  0  0  0  0  0  0  0  0  0  0
   -1.3235   -1.3124    3.1127 C   0  0  0  0  0  0  0  0  0  0  0  0
   -4.8897   -1.9646    2.4829 C   0  0  0  0  0  0  0  0  0  0  0  0
   -5.2370   -3.4370    2.6307 C   0  0  0  0  0  0  0  0  0  0  0  0
   -3.1721   -2.6684    0.8348 C   0  0  0  0  0  0  0  0  0  0  0  0
    4.2570   -1.1182   -0.7459 H   0  0  0  0  0  0  0  0  0  0  0  0
    3.5278   -2.6414   -2.5898 H   0  0  0  0  0  0  0  0  0  0  0  0
    1.6973   -1.7435   -4.0296 H   0  0  0  0  0  0  0  0  0  0  0  0
    2.5092    2.2281   -0.6779 H   0  0  0  0  0  0  0  0  0  0  0  0
    5.1154    1.0913    0.0242 H   0  0  0  0  0  0  0  0  0  0  0  0
    6.8634    2.6030   -0.1885 H   0  0  0  0  0  0  0  0  0  0  0  0
    6.6793    3.6836   -1.3989 H   0  0  0  0  0  0  0  0  0  0  0  0
    6.4649    4.1497    0.1514 H   0  0  0  0  0  0  0  0  0  0  0  0
    2.8533    0.0795    1.2041 H   0  0  0  0  0  0  0  0  0  0  0  0
    2.8533    1.6370    1.6951 H   0  0  0  0  0  0  0  0  0  0  0  0
    0.8150    1.0000    3.0525 H   0  0  0  0  0  0  0  0  0  0  0  0
   -1.4883    1.6060    1.4642 H   0  0  0  0  0  0  0  0  0  0  0  0
   -1.4883    1.3225    3.0724 H   0  0  0  0  0  0  0  0  0  0  0  0
   -1.2862   -0.7795    1.0870 H   0  0  0  0  0  0  0  0  0  0  0  0
   -2.2869   -3.1635    3.1968 H   0  0  0  0  0  0  0  0  0  0  0  0
   -3.0149   -2.0228    4.1108 H   0  0  0  0  0  0  0  0  0  0  0  0
   -1.1796   -0.7759    3.9443 H   0  0  0  0  0  0  0  0  0  0  0  0
   -0.5067   -1.8568    2.9218 H   0  0  0  0  0  0  0  0  0  0  0  0
   -5.4725   -1.5534    1.7821 H   0  0  0  0  0  0  0  0  0  0  0  0
   -5.0374   -1.4981    3.3551 H   0  0  0  0  0  0  0  0  0  0  0  0
   -6.1959   -3.5280    2.8992 H   0  0  0  0  0  0  0  0  0  0  0  0
   -5.0893   -3.9035    1.7586 H   0  0  0  0  0  0  0  0  0  0  0  0
   -4.6541   -3.8483    3.3316 H   0  0  0  0  0  0  0  0  0  0  0  0
   -3.4460   -3.6140    1.0106 H   0  0  0  0  0  0  0  0  0  0  0  0
   -3.7015   -2.3051    0.0682 H   0  0  0  0  0  0  0  0  0  0  0  0
   -2.1980   -2.6398    0.6105 H   0  0  0  0  0  0  0  0  0  0  0  0
  1  2  1  0  0  0  0
  2  3  2  0  0  0  0
  3  4  1  0  0  0  0
  4  5  2  0  0  0  0
  5  1  1  0  0  0  0
  2  6  1  0  0  0  0
  6  7  1  0  0  0  0
  7  8  1  0  0  0  0
  8  9  2  0  0  0  0
  8 10  1  0  0  0  0
  6 11  1  0  0  0  0
 11 12  1  0  0  0  0
 12 13  2  0  0  0  0
 12 14  1  0  0  0  0
 14 15  1  0  0  0  0
 15 16  1  0  0  0  0
 16 17  1  0  0  0  0
 17 18  1  0  0  0  0
 18 19  1  0  0  0  0
 19 20  1  0  0  0  0
 20 16  1  0  0  0  0
 18 21  1  0  0  0  0
 21 22  1  0  0  0  0
 18 23  1  0  0  0  0
  3 24  1  0  0  0  0
  4 25  1  0  0  0  0
  5 26  1  0  0  0  0
  6 27  1  0  0  0  0
  7 28  1  0  0  0  0
 10 29  1  0  0  0  0
 10 30  1  0  0  0  0
 10 31  1  0  0  0  0
 11 32  1  0  0  0  0
 11 33  1  0  0  0  0
 14 34  1  0  0  0  0
 15 35  1  0  0  0  0
 15 36  1  0  0  0  0
 16 37  1  0  0  0  0
 19 38  1  0  0  0  0
 19 39  1  0  0  0  0
 20 40  1  0  0  0  0
 20 41  1  0  0  0  0
 21 42  1  0  0  0  0
 21 43  1  0  0  0  0
 22 44  1  0  0  0  0
 22 45  1  0  0  0  0
 22 46  1  0  0  0  0
 23 47  1  0  0  0  0
 23 48  1  0  0  0  0
 23 49  1  0  0  0  0
M  END
>  <result-rank>
43

>  <similarity>
0.944

>  <query-name>
LIG_A_1101_CC(C)CC[C@]1([R*])CCCOC1_2

>  <query-smiles>
O=C(N[C@@]1(COCCC1)CCC(C)C)[C@@H](NC(=O)C)Cc2ccc(O)cc2

>  <source>
REALspace_2019-12

>  <similarity-descriptor>
0.924;0.987;1.000;1.000;1.000;0.949;0.0;0.0;0.0;1.000;1.000;1.000;1.000;1.000;0.0;0.077

>  <similarity-descriptor-smiles>
S1C=CC=C1;CC1CCCO1;C=O;N;C;C;;;;CC;N;C=O;C;CC;;C

>  <reaction-name>
s_22

>  <reagent1-name>
14518678

>  <reagent1-smiles>
[R1*]NCC1OC(CC1)(CC)C

>  <reagent2-name>
220032

>  <reagent2-smiles>
[R1*]C(=O)CC(NC(=O)C)C=1SC=CC1

$$$$
s_2708____11569280____7346370
          04022015103D 1   1.00000     0.00000     0
            
 64 66  0  0  0  0            999 V2000
    4.1399    6.3669    5.6527 F   0  0  0  0  0  0  0  0  0  0  0  0
    3.3989    5.4805    4.9932 C   0  0  0  0  0  0  0  0  0  0  0  0
    3.0177    5.7375    3.6803 C   0  0  0  0  0  0  0  0  0  0  0  0
    2.2420    4.8063    2.9973 C   0  0  0  0  0  0  0  0  0  0  0  0
    1.8576    3.6310    3.6341 C   0  0  0  0  0  0  0  0  0  0  0  0
    2.2420    3.3791    4.9466 C   0  0  0  0  0  0  0  0  0  0  0  0
    3.0178    4.3063    5.6343 C   0  0  0  0  0  0  0  0  0  0  0  0
    1.0100    2.6179    2.8824 C   0  0  0  0  0  0  0  0  0  0  0  0
    1.8776    1.8776    1.8776 C   0  0  3  0  0  0  0  0  0  0  0  0
    2.8824    1.0100    2.6179 C   0  0  0  0  0  0  0  0  0  0  0  0
    2.5270    0.3416    3.5489 O   0  0  0  0  0  0  0  0  0  0  0  0
    4.1939    0.9912    2.2222 N   0  0  0  0  0  0  0  0  0  0  0  0
    5.0913   -0.0696    2.7021 C   0  0  0  0  0  0  0  0  0  0  0  0
    4.7037    2.0318    1.3177 C   0  0  0  0  0  0  0  0  0  0  0  0
    1.0000    1.0000    1.0000 C   0  0  0  0  0  0  0  0  0  0  0  0
    1.8487    0.1513    0.1513 N   0  0  0  0  0  0  0  0  0  0  0  0
    2.0760   -1.1545    0.4979 C   0  0  0  0  0  0  0  0  0  0  0  0
    1.5116   -1.6312    1.4436 O   0  0  0  0  0  0  0  0  0  0  0  0
    2.9475   -1.9161   -0.2351 N   0  0  0  0  0  0  0  0  0  0  0  0
    3.1913   -3.3170    0.1367 C   0  0  3  0  0  0  0  0  0  0  0  0
    2.2144   -4.2458   -0.5689 C   0  0  0  0  0  0  0  0  0  0  0  0
    2.4800   -5.6942   -0.1882 C   0  0  0  0  0  0  0  0  0  0  0  0
    3.8317   -5.9860   -0.5379 O   0  0  0  0  0  0  0  0  0  0  0  0
    4.8110   -5.1947    0.1224 C   0  0  0  0  0  0  0  0  0  0  0  0
    4.6159   -3.7229   -0.2065 C   0  0  0  0  0  0  0  0  0  0  0  0
    2.1912   -5.8659    1.2948 C   0  0  0  0  0  0  0  0  0  0  0  0
    2.4568   -7.2953    1.7323 C   0  0  0  0  0  0  0  0  0  0  0  0
    1.5004   -8.1934    0.9665 C   0  0  0  0  0  0  0  0  0  0  0  0
    1.6920   -8.0338   -0.5332 C   0  0  0  0  0  0  0  0  0  0  0  0
    1.4830   -6.5785   -0.9209 C   0  0  0  0  0  0  0  0  0  0  0  0
    3.2991    6.5852    3.2307 H   0  0  0  0  0  0  0  0  0  0  0  0
    1.9623    4.9809    2.0533 H   0  0  0  0  0  0  0  0  0  0  0  0
    1.9606    2.5312    5.3960 H   0  0  0  0  0  0  0  0  0  0  0  0
    3.2981    4.1310    6.5781 H   0  0  0  0  0  0  0  0  0  0  0  0
    0.2728    3.0918    2.4009 H   0  0  0  0  0  0  0  0  0  0  0  0
    0.6188    1.9643    3.5304 H   0  0  0  0  0  0  0  0  0  0  0  0
    2.3646    2.5386    1.3068 H   0  0  0  0  0  0  0  0  0  0  0  0
    6.0046    0.0677    2.3187 H   0  0  0  0  0  0  0  0  0  0  0  0
    5.1406   -0.0382    3.7004 H   0  0  0  0  0  0  0  0  0  0  0  0
    4.7391   -0.9600    2.4136 H   0  0  0  0  0  0  0  0  0  0  0  0
    5.6727    1.8675    1.1331 H   0  0  0  0  0  0  0  0  0  0  0  0
    4.1919    2.0070    0.4589 H   0  0  0  0  0  0  0  0  0  0  0  0
    4.5934    2.9288    1.7457 H   0  0  0  0  0  0  0  0  0  0  0  0
    0.4226    0.4226    1.5774 H   0  0  0  0  0  0  0  0  0  0  0  0
    0.4226    1.5774    0.4226 H   0  0  0  0  0  0  0  0  0  0  0  0
    2.2602    0.5271   -0.6791 H   0  0  0  0  0  0  0  0  0  0  0  0
    3.4178   -1.5188   -1.0232 H   0  0  0  0  0  0  0  0  0  0  0  0
    3.0629   -3.4109    1.1240 H   0  0  0  0  0  0  0  0  0  0  0  0
    1.2811   -4.0027   -0.3046 H   0  0  0  0  0  0  0  0  0  0  0  0
    2.3186   -4.1419   -1.5580 H   0  0  0  0  0  0  0  0  0  0  0  0
    5.7215   -5.4809   -0.1763 H   0  0  0  0  0  0  0  0  0  0  0  0
    4.7281   -5.3251    1.1104 H   0  0  0  0  0  0  0  0  0  0  0  0
    5.2580   -3.1731    0.3278 H   0  0  0  0  0  0  0  0  0  0  0  0
    4.7802   -3.5737   -1.1815 H   0  0  0  0  0  0  0  0  0  0  0  0
    1.2326   -5.6418    1.4705 H   0  0  0  0  0  0  0  0  0  0  0  0
    2.7791   -5.2483    1.8172 H   0  0  0  0  0  0  0  0  0  0  0  0
    2.2974   -7.3865    2.7152 H   0  0  0  0  0  0  0  0  0  0  0  0
    3.4020   -7.5462    1.5231 H   0  0  0  0  0  0  0  0  0  0  0  0
    0.5603   -7.9494    1.2045 H   0  0  0  0  0  0  0  0  0  0  0  0
    1.6719   -9.1456    1.2192 H   0  0  0  0  0  0  0  0  0  0  0  0
    2.6187   -8.3150   -0.7823 H   0  0  0  0  0  0  0  0  0  0  0  0
    1.0289   -8.6056   -1.0163 H   0  0  0  0  0  0  0  0  0  0  0  0
    1.6133   -6.4770   -1.9072 H   0  0  0  0  0  0  0  0  0  0  0  0
    0.5536   -6.3015   -0.6772 H   0  0  0  0  0  0  0  0  0  0  0  0
  1  2  1  0  0  0  0
  2  3  1  0  0  0  0
  3  4  2  0  0  0  0
  4  5  1  0  0  0  0
  5  6  2  0  0  0  0
  6  7  1  0  0  0  0
  7  2  2  0  0  0  0
  5  8  1  0  0  0  0
  8  9  1  0  0  0  0
  9 10  1  0  0  0  0
 10 11  2  0  0  0  0
 10 12  1  0  0  0  0
 12 13  1  0  0  0  0
 12 14  1  0  0  0  0
  9 15  1  0  0  0  0
 15 16  1  0  0  0  0
 16 17  1  0  0  0  0
 17 18  2  0  0  0  0
 17 19  1  0  0  0  0
 19 20  1  0  0  0  0
 20 21  1  0  0  0  0
 21 22  1  0  0  0  0
 22 23  1  0  0  0  0
 23 24  1  0  0  0  0
 24 25  1  0  0  0  0
 25 20  1  0  0  0  0
 22 26  1  0  0  0  0
 26 27  1  0  0  0  0
 27 28  1  0  0  0  0
 28 29  1  0  0  0  0
 29 30  1  0  0  0  0
 30 22  1  0  0  0  0
  3 31  1  0  0  0  0
  4 32  1  0  0  0  0
  6 33  1  0  0  0  0
  7 34  1  0  0  0  0
  8 35  1  0  0  0  0
  8 36  1  0  0  0  0
  9 37  1  0  0  0  0
 13 38  1  0  0  0  0
 13 39  1  0  0  0  0
 13 40  1  0  0  0  0
 14 41  1  0  0  0  0
 14 42  1  0  0  0  0
 14 43  1  0  0  0  0
 15 44  1  0  0  0  0
 15 45  1  0  0  0  0
 16 46  1  0  0  0  0
 19 47  1  0  0  0  0
 20 48  1  0  0  0  0
 21 49  1  0  0  0  0
 21 50  1  0  0  0  0
 24 51  1  0  0  0  0
 24 52  1  0  0  0  0
 25 53  1  0  0  0  0
 25 54  1  0  0  0  0
 26 55  1  0  0  0  0
 26 56  1  0  0  0  0
 27 57  1  0  0  0  0
 27 58  1  0  0  0  0
 28 59  1  0  0  0  0
 28 60  1  0  0  0  0
 29 61  1  0  0  0  0
 29 62  1  0  0  0  0
 30 63  1  0  0  0  0
 30 64  1  0  0  0  0
M  END
>  <result-rank>
44

>  <similarity>
0.944

>  <query-name>
LIG_A_1101_CC(C)CC[C@]1([R*])CCCOC1_2

>  <query-smiles>
O=C(N[C@@]1(COCCC1)CCC(C)C)[C@@H](NC(=O)C)Cc2ccc(O)cc2

>  <source>
REALspace_2019-12

>  <similarity-descriptor>
0.983;0.982;0.995;1.000;0.895;0.895;0.895;0.895;0.895;0.824;0.824;1.000;0.977;1.000;0.0;0.077

>  <similarity-descriptor-smiles>
Fc1ccccc1;C1CCOCC1;C=O;N;C1CCCCC1;C1CCCCC1;C1CCCCC1;C1CCCCC1;C1CCCCC1;CCN;CCN;C=O;NC;C;;C

>  <reaction-name>
s_2708

>  <reagent1-name>
11569280

>  <reagent1-smiles>
[R1*]C(=O)NCC(C(=O)N(C)C)Cc1ccc(F)cc1

>  <reagent2-name>
7346370

>  <reagent2-smiles>
[R1*]NC1CC2(OCC1)CCCCC2

$$$$
s_2708____8992528____5904686
          04022015103D 1   1.00000     0.00000     0
            
 67 69  0  0  0  0            999 V2000
    0.4000   -0.0392    1.0000 O   0  0  0  0  0  0  0  0  0  0  0  0
    1.0000    1.0000    1.0000 C   0  0  0  0  0  0  0  0  0  0  0  0
    2.3700    1.0000    1.0000 N   0  0  0  0  0  0  0  0  0  0  0  0
    3.1050   -0.2731    1.0000 C   0  0  3  0  0  0  0  0  0  0  0  0
    4.2359   -0.2052   -0.0133 C   0  0  0  0  0  0  0  0  0  0  0  0
    4.6995    0.8569   -0.3248 O   0  0  0  0  0  0  0  0  0  0  0  0
    4.7259   -1.3566   -0.5711 N   0  0  0  0  0  0  0  0  0  0  0  0
    6.0174   -1.3781   -1.1116 C   0  0  0  0  0  0  0  0  0  0  0  0
    6.2085   -1.0573   -2.4518 C   0  0  0  0  0  0  0  0  0  0  0  0
    7.4930   -1.0796   -2.9851 C   0  0  0  0  0  0  0  0  0  0  0  0
    8.5743   -1.4210   -2.1799 C   0  0  0  0  0  0  0  0  0  0  0  0
    8.3715   -1.7395   -0.8412 C   0  0  0  0  0  0  0  0  0  0  0  0
    7.0916   -1.7206   -0.2970 C   0  0  0  0  0  0  0  0  0  0  0  0
    3.8958   -2.5694   -0.6022 C   0  0  0  0  0  0  0  0  0  0  0  0
    3.6795   -0.5264    2.3842 C   0  0  0  0  0  0  0  0  0  0  0  0
    2.6721   -1.3031    3.2167 C   0  0  0  0  0  0  0  0  0  0  0  0
    1.7361   -0.6164    3.9831 C   0  0  0  0  0  0  0  0  0  0  0  0
    0.8166   -1.3310    4.7440 C   0  0  0  0  0  0  0  0  0  0  0  0
    0.8367   -2.7217    4.7338 C   0  0  0  0  0  0  0  0  0  0  0  0
    1.7758   -3.3970    3.9641 C   0  0  0  0  0  0  0  0  0  0  0  0
    2.7010   -2.6940    3.1994 C   0  0  0  0  0  0  0  0  0  0  0  0
    0.3150    2.1865    1.0000 N   0  0  0  0  0  0  0  0  0  0  0  0
   -1.1551    2.1865    1.0000 C   0  0  3  0  0  0  0  0  0  0  0  0
   -1.7346    2.8909   -0.2202 C   0  0  3  0  0  0  0  0  0  0  0  0
   -3.1586    2.9825   -0.1892 O   0  0  0  0  0  0  0  0  0  0  0  0
   -3.7802    2.3631    0.9324 C   0  0  0  0  0  0  0  0  0  0  0  0
   -3.2147    2.9076    2.2310 C   0  0  0  0  0  0  0  0  0  0  0  0
   -1.6955    2.8731    2.2452 C   0  0  0  0  0  0  0  0  0  0  0  0
   -1.2948    2.1572   -1.4778 C   0  0  0  0  0  0  0  0  0  0  0  0
   -1.7774    2.9171   -2.7027 C   0  0  0  0  0  0  0  0  0  0  0  0
   -1.1826    4.3159   -2.6980 C   0  0  0  0  0  0  0  0  0  0  0  0
   -1.3379    2.1838   -3.9595 C   0  0  0  0  0  0  0  0  0  0  0  0
    2.8700    1.8660    1.0000 H   0  0  0  0  0  0  0  0  0  0  0  0
    2.4830   -1.0171    0.7560 H   0  0  0  0  0  0  0  0  0  0  0  0
    5.4283   -0.8124   -3.0273 H   0  0  0  0  0  0  0  0  0  0  0  0
    7.6389   -0.8501   -3.9474 H   0  0  0  0  0  0  0  0  0  0  0  0
    9.4977   -1.4376   -2.5634 H   0  0  0  0  0  0  0  0  0  0  0  0
    9.1519   -1.9838   -0.2656 H   0  0  0  0  0  0  0  0  0  0  0  0
    6.9459   -1.9499    0.6654 H   0  0  0  0  0  0  0  0  0  0  0  0
    3.0108   -2.3785   -0.1775 H   0  0  0  0  0  0  0  0  0  0  0  0
    3.7560   -2.8534   -1.5507 H   0  0  0  0  0  0  0  0  0  0  0  0
    4.3559   -3.3012   -0.0994 H   0  0  0  0  0  0  0  0  0  0  0  0
    4.5238   -1.0562    2.3029 H   0  0  0  0  0  0  0  0  0  0  0  0
    3.8760    0.3476    2.8287 H   0  0  0  0  0  0  0  0  0  0  0  0
    1.7243    0.3835    3.9870 H   0  0  0  0  0  0  0  0  0  0  0  0
    0.1411   -0.8448    5.2984 H   0  0  0  0  0  0  0  0  0  0  0  0
    0.1753   -3.2354    5.2803 H   0  0  0  0  0  0  0  0  0  0  0  0
    1.7868   -4.3970    3.9598 H   0  0  0  0  0  0  0  0  0  0  0  0
    3.3766   -3.1808    2.6457 H   0  0  0  0  0  0  0  0  0  0  0  0
    0.8150    3.0525    1.0000 H   0  0  0  0  0  0  0  0  0  0  0  0
   -1.4720    1.2380    0.9984 H   0  0  0  0  0  0  0  0  0  0  0  0
   -1.3620    3.8183   -0.2524 H   0  0  0  0  0  0  0  0  0  0  0  0
   -3.6197    1.3769    0.8930 H   0  0  0  0  0  0  0  0  0  0  0  0
   -4.7636    2.5422    0.9025 H   0  0  0  0  0  0  0  0  0  0  0  0
   -3.5579    2.3546    2.9903 H   0  0  0  0  0  0  0  0  0  0  0  0
   -3.5178    3.8539    2.3442 H   0  0  0  0  0  0  0  0  0  0  0  0
   -1.3473    3.8099    2.2795 H   0  0  0  0  0  0  0  0  0  0  0  0
   -1.3872    2.3730    3.0545 H   0  0  0  0  0  0  0  0  0  0  0  0
   -1.6861    1.2369   -1.4809 H   0  0  0  0  0  0  0  0  0  0  0  0
   -0.2969    2.0951   -1.4958 H   0  0  0  0  0  0  0  0  0  0  0  0
   -2.7753    2.9791   -2.6847 H   0  0  0  0  0  0  0  0  0  0  0  0
   -1.5000    4.8158   -3.5037 H   0  0  0  0  0  0  0  0  0  0  0  0
   -1.4717    4.7982   -1.8711 H   0  0  0  0  0  0  0  0  0  0  0  0
   -0.1847    4.2538   -2.7159 H   0  0  0  0  0  0  0  0  0  0  0  0
   -1.6553    2.6838   -4.7653 H   0  0  0  0  0  0  0  0  0  0  0  0
   -0.3400    2.1218   -3.9775 H   0  0  0  0  0  0  0  0  0  0  0  0
   -1.7292    1.2636   -3.9626 H   0  0  0  0  0  0  0  0  0  0  0  0
  1  2  2  0  0  0  0
  2  3  1  0  0  0  0
  3  4  1  0  0  0  0
  4  5  1  0  0  0  0
  5  6  2  0  0  0  0
  5  7  1  0  0  0  0
  7  8  1  0  0  0  0
  8  9  1  0  0  0  0
  9 10  2  0  0  0  0
 10 11  1  0  0  0  0
 11 12  2  0  0  0  0
 12 13  1  0  0  0  0
 13  8  2  0  0  0  0
  7 14  1  0  0  0  0
  4 15  1  0  0  0  0
 15 16  1  0  0  0  0
 16 17  1  0  0  0  0
 17 18  2  0  0  0  0
 18 19  1  0  0  0  0
 19 20  2  0  0  0  0
 20 21  1  0  0  0  0
 21 16  2  0  0  0  0
  2 22  1  0  0  0  0
 22 23  1  0  0  0  0
 23 24  1  0  0  0  0
 24 25  1  0  0  0  0
 25 26  1  0  0  0  0
 26 27  1  0  0  0  0
 27 28  1  0  0  0  0
 28 23  1  0  0  0  0
 24 29  1  0  0  0  0
 29 30  1  0  0  0  0
 30 31  1  0  0  0  0
 30 32  1  0  0  0  0
  3 33  1  0  0  0  0
  4 34  1  0  0  0  0
  9 35  1  0  0  0  0
 10 36  1  0  0  0  0
 11 37  1  0  0  0  0
 12 38  1  0  0  0  0
 13 39  1  0  0  0  0
 14 40  1  0  0  0  0
 14 41  1  0  0  0  0
 14 42  1  0  0  0  0
 15 43  1  0  0  0  0
 15 44  1  0  0  0  0
 17 45  1  0  0  0  0
 18 46  1  0  0  0  0
 19 47  1  0  0  0  0
 20 48  1  0  0  0  0
 21 49  1  0  0  0  0
 22 50  1  0  0  0  0
 23 51  1  0  0  0  0
 24 52  1  0  0  0  0
 26 53  1  0  0  0  0
 26 54  1  0  0  0  0
 27 55  1  0  0  0  0
 27 56  1  0  0  0  0
 28 57  1  0  0  0  0
 28 58  1  0  0  0  0
 29 59  1  0  0  0  0
 29 60  1  0  0  0  0
 30 61  1  0  0  0  0
 31 62  1  0  0  0  0
 31 63  1  0  0  0  0
 31 64  1  0  0  0  0
 32 65  1  0  0  0  0
 32 66  1  0  0  0  0
 32 67  1  0  0  0  0
M  END
>  <result-rank>
45

>  <similarity>
0.944

>  <query-name>
LIG_A_1101_CC(C)CC[C@]1([R*])CCCOC1_2

>  <query-smiles>
O=C(N[C@@]1(COCCC1)CCC(C)C)[C@@H](NC(=O)C)Cc2ccc(O)cc2

>  <source>
REALspace_2019-12

>  <similarity-descriptor>
0.960;0.971;0.995;1.000;0.971;1.000;1.000;1.000;1.000;1.000;1.000;1.000;0.977;1.000;0.0;0.067

>  <similarity-descriptor-smiles>
c1ccccc1;C1CCCOC1;O=C;N;C1CCCOC1;C;C;C;C;NC;NC;C=O;NC;C;;c1ccccc1

>  <reaction-name>
s_2708

>  <reagent1-name>
8992528

>  <reagent1-smiles>
[R1*]C(=O)NC1C(OCCC1)CC(C)C

>  <reagent2-name>
5904686

>  <reagent2-smiles>
[R1*]NC(C(=O)N(c1ccccc1)C)Cc2ccccc2

$$$$
s_2708____8366598____12913680
          04022015103D 1   1.00000     0.00000     0
            
 61 62  0  0  0  0            999 V2000
    0.4000   -0.0392    1.0000 O   0  0  0  0  0  0  0  0  0  0  0  0
    1.0000    1.0000    1.0000 C   0  0  0  0  0  0  0  0  0  0  0  0
    2.3700    1.0000    1.0000 N   0  0  0  0  0  0  0  0  0  0  0  0
    3.1050   -0.2731    1.0000 C   0  0  0  0  0  0  0  0  0  0  0  0
    3.5739   -0.5874   -0.4113 C   0  0  0  0  0  0  0  0  0  0  0  0
    4.8178   -0.1327   -0.8365 C   0  0  0  0  0  0  0  0  0  0  0  0
    5.2513   -0.4186   -2.1268 C   0  0  0  0  0  0  0  0  0  0  0  0
    4.4339   -1.1572   -2.9765 C   0  0  0  0  0  0  0  0  0  0  0  0
    4.8506   -1.4367   -4.2297 O   0  0  0  0  0  0  0  0  0  0  0  0
    6.1181   -0.9772   -4.6755 C   0  0  0  0  0  0  0  0  0  0  0  0
    3.1889   -1.6141   -2.5564 C   0  0  0  0  0  0  0  0  0  0  0  0
    2.7606   -1.3257   -1.2650 C   0  0  0  0  0  0  0  0  0  0  0  0
    3.1050    2.2731    1.0000 C   0  0  0  0  0  0  0  0  0  0  0  0
    3.3583    2.7118    2.4331 C   0  0  0  0  0  0  0  0  0  0  0  0
    2.1176    2.8816    3.1025 O   0  0  0  0  0  0  0  0  0  0  0  0
    0.3150    2.1865    1.0000 N   0  0  0  0  0  0  0  0  0  0  0  0
   -1.1594    2.1865    1.0000 C   0  0  3  0  0  0  0  0  0  0  0  0
   -1.6883    2.8993   -0.2347 C   0  0  0  0  0  0  0  0  0  0  0  0
   -3.2074    2.9242   -0.1739 C   0  0  3  0  0  0  0  0  0  0  0  0
   -3.6680    3.5818    1.0003 O   0  0  0  0  0  0  0  0  0  0  0  0
   -3.2028    2.9539    2.1873 C   0  0  0  0  0  0  0  0  0  0  0  0
   -1.6825    2.9149    2.2284 C   0  0  0  0  0  0  0  0  0  0  0  0
   -3.7107    3.6078   -1.4352 C   0  0  0  0  0  0  0  0  0  0  0  0
   -5.2306    3.5965   -1.4456 C   0  0  0  0  0  0  0  0  0  0  0  0
   -5.7269    2.1601   -1.4153 C   0  0  0  0  0  0  0  0  0  0  0  0
   -3.2144    5.0441   -1.4655 C   0  0  0  0  0  0  0  0  0  0  0  0
   -3.7176    5.7276   -2.7266 C   0  0  0  0  0  0  0  0  0  0  0  0
    2.5044   -1.0047    1.3225 H   0  0  0  0  0  0  0  0  0  0  0  0
    3.8971   -0.2006    1.6060 H   0  0  0  0  0  0  0  0  0  0  0  0
    5.3975    0.3972   -0.2175 H   0  0  0  0  0  0  0  0  0  0  0  0
    6.1438   -0.0956   -2.4414 H   0  0  0  0  0  0  0  0  0  0  0  0
    6.2658   -1.2708   -5.6199 H   0  0  0  0  0  0  0  0  0  0  0  0
    6.1460    0.0213   -4.6286 H   0  0  0  0  0  0  0  0  0  0  0  0
    6.8350   -1.3585   -4.0919 H   0  0  0  0  0  0  0  0  0  0  0  0
    2.6089   -2.1435   -3.1755 H   0  0  0  0  0  0  0  0  0  0  0  0
    1.8682   -1.6490   -0.9502 H   0  0  0  0  0  0  0  0  0  0  0  0
    2.5646    2.9700    0.5286 H   0  0  0  0  0  0  0  0  0  0  0  0
    3.9788    2.1535    0.5286 H   0  0  0  0  0  0  0  0  0  0  0  0
    3.8988    2.0149    2.9045 H   0  0  0  0  0  0  0  0  0  0  0  0
    3.8583    3.5779    2.4331 H   0  0  0  0  0  0  0  0  0  0  0  0
    2.2842    3.1703    4.0453 H   0  0  0  0  0  0  0  0  0  0  0  0
    0.8150    3.0525    1.0000 H   0  0  0  0  0  0  0  0  0  0  0  0
   -1.4915    1.2432    1.0067 H   0  0  0  0  0  0  0  0  0  0  0  0
   -1.3376    3.8355   -0.2582 H   0  0  0  0  0  0  0  0  0  0  0  0
   -1.3928    2.4120   -1.0564 H   0  0  0  0  0  0  0  0  0  0  0  0
   -3.5426    1.9821   -0.1652 H   0  0  0  0  0  0  0  0  0  0  0  0
   -3.5542    2.0182    2.2208 H   0  0  0  0  0  0  0  0  0  0  0  0
   -3.5377    3.4643    2.9794 H   0  0  0  0  0  0  0  0  0  0  0  0
   -1.3255    3.8490    2.2390 H   0  0  0  0  0  0  0  0  0  0  0  0
   -1.3837    2.4345    3.0530 H   0  0  0  0  0  0  0  0  0  0  0  0
   -3.3683    3.1198   -2.2381 H   0  0  0  0  0  0  0  0  0  0  0  0
   -5.5617    4.0461   -2.2752 H   0  0  0  0  0  0  0  0  0  0  0  0
   -5.5730    4.0845   -0.6427 H   0  0  0  0  0  0  0  0  0  0  0  0
   -6.7268    2.1527   -1.4221 H   0  0  0  0  0  0  0  0  0  0  0  0
   -5.3844    1.6721   -2.2182 H   0  0  0  0  0  0  0  0  0  0  0  0
   -5.3958    1.7105   -0.5857 H   0  0  0  0  0  0  0  0  0  0  0  0
   -2.2145    5.0516   -1.4587 H   0  0  0  0  0  0  0  0  0  0  0  0
   -3.5569    5.5321   -0.6627 H   0  0  0  0  0  0  0  0  0  0  0  0
   -3.3911    6.6725   -2.7465 H   0  0  0  0  0  0  0  0  0  0  0  0
   -3.3752    5.2396   -3.5294 H   0  0  0  0  0  0  0  0  0  0  0  0
   -4.7176    5.7201   -2.7334 H   0  0  0  0  0  0  0  0  0  0  0  0
  1  2  2  0  0  0  0
  2  3  1  0  0  0  0
  3  4  1  0  0  0  0
  4  5  1  0  0  0  0
  5  6  1  0  0  0  0
  6  7  2  0  0  0  0
  7  8  1  0  0  0  0
  8  9  1  0  0  0  0
  9 10  1  0  0  0  0
  8 11  2  0  0  0  0
 11 12  1  0  0  0  0
 12  5  2  0  0  0  0
  3 13  1  0  0  0  0
 13 14  1  0  0  0  0
 14 15  1  0  0  0  0
  2 16  1  0  0  0  0
 16 17  1  0  0  0  0
 17 18  1  0  0  0  0
 18 19  1  0  0  0  0
 19 20  1  0  0  0  0
 20 21  1  0  0  0  0
 21 22  1  0  0  0  0
 22 17  1  0  0  0  0
 19 23  1  0  0  0  0
 23 24  1  0  0  0  0
 24 25  1  0  0  0  0
 23 26  1  0  0  0  0
 26 27  1  0  0  0  0
  4 28  1  0  0  0  0
  4 29  1  0  0  0  0
  6 30  1  0  0  0  0
  7 31  1  0  0  0  0
 10 32  1  0  0  0  0
 10 33  1  0  0  0  0
 10 34  1  0  0  0  0
 11 35  1  0  0  0  0
 12 36  1  0  0  0  0
 13 37  1  0  0  0  0
 13 38  1  0  0  0  0
 14 39  1  0  0  0  0
 14 40  1  0  0  0  0
 15 41  1  0  0  0  0
 16 42  1  0  0  0  0
 17 43  1  0  0  0  0
 18 44  1  0  0  0  0
 18 45  1  0  0  0  0
 19 46  1  0  0  0  0
 21 47  1  0  0  0  0
 21 48  1  0  0  0  0
 22 49  1  0  0  0  0
 22 50  1  0  0  0  0
 23 51  1  0  0  0  0
 24 52  1  0  0  0  0
 24 53  1  0  0  0  0
 25 54  1  0  0  0  0
 25 55  1  0  0  0  0
 25 56  1  0  0  0  0
 26 57  1  0  0  0  0
 26 58  1  0  0  0  0
 27 59  1  0  0  0  0
 27 60  1  0  0  0  0
 27 61  1  0  0  0  0
M  END
>  <result-rank>
46

>  <similarity>
0.944

>  <query-name>
LIG_A_1101_CC(C)CC[C@]1([R*])CCCOC1_2

>  <query-smiles>
O=C(N[C@@]1(COCCC1)CCC(C)C)[C@@H](NC(=O)C)Cc2ccc(O)cc2

>  <source>
REALspace_2019-12

>  <similarity-descriptor>
1.000;0.971;0.995;1.000;0.971;1.000;1.000;1.000;0.949;0.953;0.828;0.828;0.828;0.953;0.704;0.125

>  <similarity-descriptor-smiles>
c1ccccc1;C1CCOCC1;O=C;N;C1CCOCC1;CC;CC;C;C;N(C)C;CO;CO;CO;N(C)C;O;C.C

>  <reaction-name>
s_2708

>  <reagent1-name>
8366598

>  <reagent1-smiles>
[R1*]C(=O)NC1CC(OCC1)C(CC)CC

>  <reagent2-name>
12913680

>  <reagent2-smiles>
[R1*]N(Cc1ccc(OC)cc1)CCO

$$$$
s_22____8366566____9736332
          04022015103D 1   1.00000     0.00000     0
            
 55 56  0  0  0  0            999 V2000
    2.9700    2.0392    1.0000 O   0  0  0  0  0  0  0  0  0  0  0  0
    2.3700    1.0000    1.0000 C   0  0  0  0  0  0  0  0  0  0  0  0
    1.0000    1.0000    1.0000 N   0  0  0  0  0  0  0  0  0  0  0  0
    0.2628    2.2769    1.0000 C   0  0  3  0  0  0  0  0  0  0  0  0
   -0.6190    2.3785    2.2347 C   0  0  0  0  0  0  0  0  0  0  0  0
   -1.4001    3.6816    2.1739 C   0  0  3  0  0  0  0  0  0  0  0  0
   -2.1999    3.7517    0.9997 O   0  0  0  0  0  0  0  0  0  0  0  0
   -1.4235    3.6628   -0.1873 C   0  0  0  0  0  0  0  0  0  0  0  0
   -0.6296    2.3656   -0.2284 C   0  0  0  0  0  0  0  0  0  0  0  0
   -2.2437    3.7757    3.4352 C   0  0  0  0  0  0  0  0  0  0  0  0
   -1.3411    3.6958    4.6556 C   0  0  0  0  0  0  0  0  0  0  0  0
   -2.1846    3.7899    5.9167 C   0  0  0  0  0  0  0  0  0  0  0  0
   -2.9939    5.0976    3.4456 C   0  0  0  0  0  0  0  0  0  0  0  0
   -1.9981    6.2456    3.4153 C   0  0  0  0  0  0  0  0  0  0  0  0
    3.1300   -0.3164    1.0000 C   0  0  3  0  0  0  0  0  0  0  0  0
    2.4556   -1.2716    0.1091 N   0  0  0  0  0  0  0  0  0  0  0  0
    1.9801   -2.4555    0.6082 C   0  0  0  0  0  0  0  0  0  0  0  0
    2.1143   -2.7128    1.7726 O   0  0  0  0  0  0  0  0  0  0  0  0
    1.2827   -3.4432   -0.3129 C   0  0  0  0  0  0  0  0  0  0  0  0
    4.5496   -0.0818    0.5099 C   0  0  0  0  0  0  0  0  0  0  0  0
    5.3103   -1.3995    0.5099 C   0  0  0  0  0  0  0  0  0  0  0  0
    5.3895   -2.2867   -0.5205 N   0  0  0  0  0  0  0  0  0  0  0  0
    6.1343   -3.3132   -0.1695 C   0  0  0  0  0  0  0  0  0  0  0  0
    6.5548   -3.0948    1.1139 N   0  0  0  0  0  0  0  0  0  0  0  0
    6.0401   -1.9055    1.5485 C   0  0  0  0  0  0  0  0  0  0  0  0
    0.5000    0.1340    1.0000 H   0  0  0  0  0  0  0  0  0  0  0  0
    0.9136    3.0361    0.9933 H   0  0  0  0  0  0  0  0  0  0  0  0
   -1.2544    1.6067    2.2582 H   0  0  0  0  0  0  0  0  0  0  0  0
   -0.0492    2.3663    3.0564 H   0  0  0  0  0  0  0  0  0  0  0  0
   -0.7518    4.4430    2.1652 H   0  0  0  0  0  0  0  0  0  0  0  0
   -0.7889    4.4350   -0.2208 H   0  0  0  0  0  0  0  0  0  0  0  0
   -2.0330    3.6976   -0.9794 H   0  0  0  0  0  0  0  0  0  0  0  0
   -1.2600    1.5895   -0.2390 H   0  0  0  0  0  0  0  0  0  0  0  0
   -0.0642    2.3471   -1.0530 H   0  0  0  0  0  0  0  0  0  0  0  0
   -2.8989    3.0205    3.4552 H   0  0  0  0  0  0  0  0  0  0  0  0
   -0.6860    4.4510    4.6357 H   0  0  0  0  0  0  0  0  0  0  0  0
   -0.8476    2.8261    4.6488 H   0  0  0  0  0  0  0  0  0  0  0  0
   -1.5908    3.7373    6.7195 H   0  0  0  0  0  0  0  0  0  0  0  0
   -2.6781    4.6596    5.9235 H   0  0  0  0  0  0  0  0  0  0  0  0
   -2.8397    3.0346    5.9366 H   0  0  0  0  0  0  0  0  0  0  0  0
   -3.5488    5.1595    4.2752 H   0  0  0  0  0  0  0  0  0  0  0  0
   -3.5877    5.1502    2.6427 H   0  0  0  0  0  0  0  0  0  0  0  0
   -2.4917    7.1153    3.4221 H   0  0  0  0  0  0  0  0  0  0  0  0
   -1.4043    6.1930    4.2182 H   0  0  0  0  0  0  0  0  0  0  0  0
   -1.4432    6.1837    2.5857 H   0  0  0  0  0  0  0  0  0  0  0  0
    3.1549   -0.6869    1.9285 H   0  0  0  0  0  0  0  0  0  0  0  0
    2.3438   -1.0571   -0.8612 H   0  0  0  0  0  0  0  0  0  0  0  0
    1.2579   -3.0727   -1.2414 H   0  0  0  0  0  0  0  0  0  0  0  0
    1.7827   -4.3092   -0.3129 H   0  0  0  0  0  0  0  0  0  0  0  0
    0.3488   -3.5975    0.0095 H   0  0  0  0  0  0  0  0  0  0  0  0
    4.5247    0.2887   -0.4186 H   0  0  0  0  0  0  0  0  0  0  0  0
    5.0084    0.5680    1.1159 H   0  0  0  0  0  0  0  0  0  0  0  0
    6.3528   -4.1072   -0.7368 H   0  0  0  0  0  0  0  0  0  0  0  0
    7.1420   -3.7046    1.6462 H   0  0  0  0  0  0  0  0  0  0  0  0
    6.1714   -1.4885    2.4479 H   0  0  0  0  0  0  0  0  0  0  0  0
  1  2  2  0  0  0  0
  2  3  1  0  0  0  0
  3  4  1  0  0  0  0
  4  5  1  0  0  0  0
  5  6  1  0  0  0  0
  6  7  1  0  0  0  0
  7  8  1  0  0  0  0
  8  9  1  0  0  0  0
  9  4  1  0  0  0  0
  6 10  1  0  0  0  0
 10 11  1  0  0  0  0
 11 12  1  0  0  0  0
 10 13  1  0  0  0  0
 13 14  1  0  0  0  0
  2 15  1  0  0  0  0
 15 16  1  0  0  0  0
 16 17  1  0  0  0  0
 17 18  2  0  0  0  0
 17 19  1  0  0  0  0
 15 20  1  0  0  0  0
 20 21  1  0  0  0  0
 21 22  1  0  0  0  0
 22 23  2  0  0  0  0
 23 24  1  0  0  0  0
 24 25  1  0  0  0  0
 21 25  2  0  0  0  0
  3 26  1  0  0  0  0
  4 27  1  0  0  0  0
  5 28  1  0  0  0  0
  5 29  1  0  0  0  0
  6 30  1  0  0  0  0
  8 31  1  0  0  0  0
  8 32  1  0  0  0  0
  9 33  1  0  0  0  0
  9 34  1  0  0  0  0
 10 35  1  0  0  0  0
 11 36  1  0  0  0  0
 11 37  1  0  0  0  0
 12 38  1  0  0  0  0
 12 39  1  0  0  0  0
 12 40  1  0  0  0  0
 13 41  1  0  0  0  0
 13 42  1  0  0  0  0
 14 43  1  0  0  0  0
 14 44  1  0  0  0  0
 14 45  1  0  0  0  0
 15 46  1  0  0  0  0
 16 47  1  0  0  0  0
 19 48  1  0  0  0  0
 19 49  1  0  0  0  0
 19 50  1  0  0  0  0
 20 51  1  0  0  0  0
 20 52  1  0  0  0  0
 23 53  1  0  0  0  0
 24 54  1  0  0  0  0
 25 55  1  0  0  0  0
M  END
>  <result-rank>
47

>  <similarity>
0.943

>  <query-name>
LIG_A_1101_CC(C)CC[C@]1([R*])CCCOC1_2

>  <query-smiles>
O=C(N[C@@]1(COCCC1)CCC(C)C)[C@@H](NC(=O)C)Cc2ccc(O)cc2

>  <source>
REALspace_2019-12

>  <similarity-descriptor>
0.823;0.971;1.000;1.000;0.971;1.000;1.000;1.000;0.949;1.000;1.000;1.000;1.000;1.000;0.823;0.071

>  <similarity-descriptor-smiles>
C1=CNC=N1;C1CCOCC1;O=C;N;C1CCOCC1;CC;CC;C;C;C;N;C=O;C;C;C1=CNC=N1;C

>  <reaction-name>
s_22

>  <reagent1-name>
8366566

>  <reagent1-smiles>
[R1*]NC1CC(OCC1)C(CC)CC

>  <reagent2-name>
9736332

>  <reagent2-smiles>
[R1*]C(=O)C(NC(=O)C)CC=1N=CNC1

$$$$
s_2708____6547336____4509338
          04022015103D 1   1.00000     0.00000     0
            
 57 58  0  0  0  0            999 V2000
    0.0784   -0.1678    3.3877 O   0  0  0  0  0  0  0  0  0  0  0  0
    0.0489    0.0782    2.2135 C   0  0  0  0  0  0  0  0  0  0  0  0
   -0.9222   -0.4759    1.4217 N   0  0  0  0  0  0  0  0  0  0  0  0
   -1.9280   -1.3718    2.0105 C   0  0  3  0  0  0  0  0  0  0  0  0
   -3.3144   -0.7898    1.7921 C   0  0  0  0  0  0  0  0  0  0  0  0
   -4.3603   -1.6446    1.4597 C   0  0  0  0  0  0  0  0  0  0  0  0
   -5.6285   -1.1101    1.2612 C   0  0  0  0  0  0  0  0  0  0  0  0
   -6.6572   -1.9214    0.9370 O   0  0  0  0  0  0  0  0  0  0  0  0
   -5.8477    0.2574    1.3922 C   0  0  0  0  0  0  0  0  0  0  0  0
   -4.7932    1.1024    1.7239 C   0  0  0  0  0  0  0  0  0  0  0  0
   -3.5201    0.5796    1.9262 C   0  0  0  0  0  0  0  0  0  0  0  0
   -1.8412   -2.7366    1.3470 C   0  0  0  0  0  0  0  0  0  0  0  0
   -0.9583   -0.1745   -0.0166 C   0  0  0  0  0  0  0  0  0  0  0  0
    0.9863    0.9131    1.6648 N   0  0  0  0  0  0  0  0  0  0  0  0
    2.0277    1.5074    2.5140 C   0  0  3  0  0  0  0  0  0  0  0  0
    1.9888    3.0217    2.5119 C   0  0  0  0  0  0  0  0  0  0  0  0
    3.5020    2.9330    2.5189 C   0  0  3  0  0  0  0  0  0  0  0  0
    4.1167    3.9216    1.7058 O   0  0  0  0  0  0  0  0  0  0  0  0
    5.5277    3.7728    1.7650 C   0  0  0  0  0  0  0  0  0  0  0  0
    6.1857    4.8311    0.8947 C   0  0  0  0  0  0  0  0  0  0  0  0
    7.6960    4.6719    0.9580 C   0  0  0  0  0  0  0  0  0  0  0  0
    8.3540    5.7301    0.0877 C   0  0  0  0  0  0  0  0  0  0  0  0
    3.3573    1.6091    1.8049 C   0  0  0  0  0  0  0  0  0  0  0  0
    1.4189    3.6124    3.7912 C   0  0  0  0  0  0  0  0  0  0  0  0
    1.3794    3.6410    1.2628 C   0  0  0  0  0  0  0  0  0  0  0  0
   -1.7569   -1.4664    2.9912 H   0  0  0  0  0  0  0  0  0  0  0  0
   -4.2027   -2.6275    1.3652 H   0  0  0  0  0  0  0  0  0  0  0  0
   -7.5699   -1.5386    0.7938 H   0  0  0  0  0  0  0  0  0  0  0  0
   -6.7632    0.6330    1.2480 H   0  0  0  0  0  0  0  0  0  0  0  0
   -4.9506    2.0856    1.8169 H   0  0  0  0  0  0  0  0  0  0  0  0
   -2.7594    1.1829    2.1658 H   0  0  0  0  0  0  0  0  0  0  0  0
   -2.5254   -3.3461    1.7475 H   0  0  0  0  0  0  0  0  0  0  0  0
   -2.0123   -2.6420    0.3663 H   0  0  0  0  0  0  0  0  0  0  0  0
   -0.9287   -3.1197    1.4908 H   0  0  0  0  0  0  0  0  0  0  0  0
   -1.7248   -0.6581   -0.4393 H   0  0  0  0  0  0  0  0  0  0  0  0
   -1.0722    0.8102   -0.1481 H   0  0  0  0  0  0  0  0  0  0  0  0
   -0.1026   -0.4707   -0.4408 H   0  0  0  0  0  0  0  0  0  0  0  0
    0.9617    1.1181    0.6864 H   0  0  0  0  0  0  0  0  0  0  0  0
    2.0850    1.1044    3.4274 H   0  0  0  0  0  0  0  0  0  0  0  0
    3.8985    2.8579    3.4338 H   0  0  0  0  0  0  0  0  0  0  0  0
    5.7812    2.8640    1.4337 H   0  0  0  0  0  0  0  0  0  0  0  0
    5.8349    3.8806    2.7105 H   0  0  0  0  0  0  0  0  0  0  0  0
    5.9321    5.7400    1.2260 H   0  0  0  0  0  0  0  0  0  0  0  0
    5.8785    4.7233   -0.0508 H   0  0  0  0  0  0  0  0  0  0  0  0
    7.9495    3.7630    0.6267 H   0  0  0  0  0  0  0  0  0  0  0  0
    8.0032    4.7797    1.9035 H   0  0  0  0  0  0  0  0  0  0  0  0
    9.3476    5.6254    0.1293 H   0  0  0  0  0  0  0  0  0  0  0  0
    8.0468    5.6223   -0.8578 H   0  0  0  0  0  0  0  0  0  0  0  0
    8.1005    6.6390    0.4190 H   0  0  0  0  0  0  0  0  0  0  0  0
    4.0286    0.9136    2.0610 H   0  0  0  0  0  0  0  0  0  0  0  0
    3.3027    1.6687    0.8082 H   0  0  0  0  0  0  0  0  0  0  0  0
    0.4215    3.6453    3.7277 H   0  0  0  0  0  0  0  0  0  0  0  0
    1.6848    3.0425    4.5688 H   0  0  0  0  0  0  0  0  0  0  0  0
    1.7755    4.5378    3.9188 H   0  0  0  0  0  0  0  0  0  0  0  0
    0.3833    3.6563    1.3503 H   0  0  0  0  0  0  0  0  0  0  0  0
    1.7188    4.5753    1.1544 H   0  0  0  0  0  0  0  0  0  0  0  0
    1.6354    3.0984    0.4628 H   0  0  0  0  0  0  0  0  0  0  0  0
  1  2  2  0  0  0  0
  2  3  1  0  0  0  0
  3  4  1  0  0  0  0
  4  5  1  0  0  0  0
  5  6  1  0  0  0  0
  6  7  2  0  0  0  0
  7  8  1  0  0  0  0
  7  9  1  0  0  0  0
  9 10  2  0  0  0  0
 10 11  1  0  0  0  0
 11  5  2  0  0  0  0
  4 12  1  0  0  0  0
  3 13  1  0  0  0  0
  2 14  1  0  0  0  0
 14 15  1  0  0  0  0
 15 16  1  0  0  0  0
 16 17  1  0  0  0  0
 17 18  1  0  0  0  0
 18 19  1  0  0  0  0
 19 20  1  0  0  0  0
 20 21  1  0  0  0  0
 21 22  1  0  0  0  0
 17 23  1  0  0  0  0
 23 15  1  0  0  0  0
 16 24  1  0  0  0  0
 16 25  1  0  0  0  0
  4 26  1  0  0  0  0
  6 27  1  0  0  0  0
  8 28  1  0  0  0  0
  9 29  1  0  0  0  0
 10 30  1  0  0  0  0
 11 31  1  0  0  0  0
 12 32  1  0  0  0  0
 12 33  1  0  0  0  0
 12 34  1  0  0  0  0
 13 35  1  0  0  0  0
 13 36  1  0  0  0  0
 13 37  1  0  0  0  0
 14 38  1  0  0  0  0
 15 39  1  0  0  0  0
 17 40  1  0  0  0  0
 19 41  1  0  0  0  0
 19 42  1  0  0  0  0
 20 43  1  0  0  0  0
 20 44  1  0  0  0  0
 21 45  1  0  0  0  0
 21 46  1  0  0  0  0
 22 47  1  0  0  0  0
 22 48  1  0  0  0  0
 22 49  1  0  0  0  0
 23 50  1  0  0  0  0
 23 51  1  0  0  0  0
 24 52  1  0  0  0  0
 24 53  1  0  0  0  0
 24 54  1  0  0  0  0
 25 55  1  0  0  0  0
 25 56  1  0  0  0  0
 25 57  1  0  0  0  0
M  END
>  <result-rank>
48

>  <similarity>
0.943

>  <query-name>
LIG_A_1101_CC(C)CC[C@]1([R*])CCCOC1_2

>  <query-smiles>
O=C(N[C@@]1(COCCC1)CCC(C)C)[C@@H](NC(=O)C)Cc2ccc(O)cc2

>  <source>
REALspace_2019-12

>  <similarity-descriptor>
1.000;0.986;0.969;1.000;0.993;1.000;0.974;0.974;0.0;0.967;0.0;0.0;0.0;0.967;1.000;0.125

>  <similarity-descriptor-smiles>
c1ccccc1;C1CC(C1C)O;O=CN;N;C;C;CC;CC;;CC;;;;CC;O;C.C

>  <reaction-name>
s_2708

>  <reagent1-name>
6547336

>  <reagent1-smiles>
[R1*]C(=O)NC1C(C(OCCCC)C1)(C)C

>  <reagent2-name>
4509338

>  <reagent2-smiles>
[R1*]N(C(c1cc(O)ccc1)C)C

$$$$
s_2708____8333320____12550288
          04022015103D 1   1.00000     0.00000     0
            
 57 58  0  0  0  0            999 V2000
    6.0661    3.1949    5.9450 Cl  0  0  0  0  0  0  0  0  0  0  0  0
    5.6353    2.2573    4.4947 C   0  0  0  0  0  0  0  0  0  0  0  0
    5.6590    0.8677    4.5372 C   0  0  0  0  0  0  0  0  0  0  0  0
    5.3237    0.1311    3.4057 C   0  0  0  0  0  0  0  0  0  0  0  0
    4.9665    0.8014    2.2406 C   0  0  0  0  0  0  0  0  0  0  0  0
    4.9428    2.1910    2.1976 C   0  0  0  0  0  0  0  0  0  0  0  0
    5.2783    2.9278    3.3293 C   0  0  0  0  0  0  0  0  0  0  0  0
    4.5994    0.0047    1.0000 C   0  0  0  0  0  0  0  0  0  0  0  0
    3.1050   -0.2731    1.0000 C   0  0  3  0  0  0  0  0  0  0  0  0
    2.3700    1.0000    1.0000 N   0  0  0  0  0  0  0  0  0  0  0  0
    1.0000    1.0000    1.0000 C   0  0  0  0  0  0  0  0  0  0  0  0
    0.4000   -0.0392    1.0000 O   0  0  0  0  0  0  0  0  0  0  0  0
    0.3150    2.1865    1.0000 N   0  0  0  0  0  0  0  0  0  0  0  0
   -1.1580    2.1865    1.0000 C   0  0  3  0  0  0  0  0  0  0  0  0
   -1.6824    2.9001    2.2360 C   0  0  0  0  0  0  0  0  0  0  0  0
   -3.2019    2.9253    2.1842 C   0  0  3  0  0  0  0  0  0  0  0  0
   -3.6687    3.5821    1.0118 O   0  0  0  0  0  0  0  0  0  0  0  0
   -3.2193    2.9479   -0.1772 C   0  0  0  0  0  0  0  0  0  0  0  0
   -1.6999    2.9124   -0.2211 C   0  0  0  0  0  0  0  0  0  0  0  0
   -3.6928    3.6125    3.4486 C   0  0  0  0  0  0  0  0  0  0  0  0
   -5.2126    3.6068    3.4709 C   0  0  0  0  0  0  0  0  0  0  0  0
   -5.7143    2.1722    3.4465 C   0  0  0  0  0  0  0  0  0  0  0  0
   -5.7034    4.2937    4.7349 C   0  0  0  0  0  0  0  0  0  0  0  0
    2.7378   -1.0701    2.2411 C   0  0  0  0  0  0  0  0  0  0  0  0
    3.4478   -2.2999    2.2411 O   0  0  0  0  0  0  0  0  0  0  0  0
    2.7378   -1.0701   -0.2411 C   0  0  0  0  0  0  0  0  0  0  0  0
    5.9172    0.3977    5.3812 H   0  0  0  0  0  0  0  0  0  0  0  0
    5.3392   -0.8685    3.4297 H   0  0  0  0  0  0  0  0  0  0  0  0
    4.6848    2.6608    1.3534 H   0  0  0  0  0  0  0  0  0  0  0  0
    5.2630    3.9274    3.3052 H   0  0  0  0  0  0  0  0  0  0  0  0
    5.0994   -0.8613    1.0000 H   0  0  0  0  0  0  0  0  0  0  0  0
    4.8410    0.5291    0.1835 H   0  0  0  0  0  0  0  0  0  0  0  0
    2.8700    1.8660    1.0000 H   0  0  0  0  0  0  0  0  0  0  0  0
    0.8150    3.0525    1.0000 H   0  0  0  0  0  0  0  0  0  0  0  0
   -1.4888    1.2427    0.9976 H   0  0  0  0  0  0  0  0  0  0  0  0
   -1.3828    2.4136    3.0567 H   0  0  0  0  0  0  0  0  0  0  0  0
   -1.3319    3.8364    2.2569 H   0  0  0  0  0  0  0  0  0  0  0  0
   -3.5384    1.9836    2.1798 H   0  0  0  0  0  0  0  0  0  0  0  0
   -3.5595    3.4548   -0.9692 H   0  0  0  0  0  0  0  0  0  0  0  0
   -3.5711    2.0122   -0.2041 H   0  0  0  0  0  0  0  0  0  0  0  0
   -1.4041    2.4345   -1.0482 H   0  0  0  0  0  0  0  0  0  0  0  0
   -1.3475    3.8482   -0.2329 H   0  0  0  0  0  0  0  0  0  0  0  0
   -3.3627    4.5563    3.4646 H   0  0  0  0  0  0  0  0  0  0  0  0
   -3.3458    3.1244    4.2494 H   0  0  0  0  0  0  0  0  0  0  0  0
   -5.5596    4.0949    2.6701 H   0  0  0  0  0  0  0  0  0  0  0  0
   -6.7142    2.1684    3.4612 H   0  0  0  0  0  0  0  0  0  0  0  0
   -5.3915    1.7202    2.6150 H   0  0  0  0  0  0  0  0  0  0  0  0
   -5.3674    1.6840    4.2474 H   0  0  0  0  0  0  0  0  0  0  0  0
   -6.7032    4.2900    4.7496 H   0  0  0  0  0  0  0  0  0  0  0  0
   -5.3564    3.8056    5.5357 H   0  0  0  0  0  0  0  0  0  0  0  0
   -5.3733    5.2376    4.7509 H   0  0  0  0  0  0  0  0  0  0  0  0
    2.9794   -0.5457    3.0576 H   0  0  0  0  0  0  0  0  0  0  0  0
    1.7546   -1.2528    2.2411 H   0  0  0  0  0  0  0  0  0  0  0  0
    3.2062   -2.8242    3.0576 H   0  0  0  0  0  0  0  0  0  0  0  0
    3.2378   -1.9361   -0.2411 H   0  0  0  0  0  0  0  0  0  0  0  0
    1.7546   -1.2528   -0.2411 H   0  0  0  0  0  0  0  0  0  0  0  0
    2.9794   -0.5457   -1.0576 H   0  0  0  0  0  0  0  0  0  0  0  0
  1  2  1  0  0  0  0
  2  3  1  0  0  0  0
  3  4  2  0  0  0  0
  4  5  1  0  0  0  0
  5  6  2  0  0  0  0
  6  7  1  0  0  0  0
  7  2  2  0  0  0  0
  5  8  1  0  0  0  0
  8  9  1  0  0  0  0
  9 10  1  0  0  0  0
 10 11  1  0  0  0  0
 11 12  2  0  0  0  0
 11 13  1  0  0  0  0
 13 14  1  0  0  0  0
 14 15  1  0  0  0  0
 15 16  1  0  0  0  0
 16 17  1  0  0  0  0
 17 18  1  0  0  0  0
 18 19  1  0  0  0  0
 19 14  1  0  0  0  0
 16 20  1  0  0  0  0
 20 21  1  0  0  0  0
 21 22  1  0  0  0  0
 21 23  1  0  0  0  0
  9 24  1  0  0  0  0
 24 25  1  0  0  0  0
  9 26  1  0  0  0  0
  3 27  1  0  0  0  0
  4 28  1  0  0  0  0
  6 29  1  0  0  0  0
  7 30  1  0  0  0  0
  8 31  1  0  0  0  0
  8 32  1  0  0  0  0
 10 33  1  0  0  0  0
 13 34  1  0  0  0  0
 14 35  1  0  0  0  0
 15 36  1  0  0  0  0
 15 37  1  0  0  0  0
 16 38  1  0  0  0  0
 18 39  1  0  0  0  0
 18 40  1  0  0  0  0
 19 41  1  0  0  0  0
 19 42  1  0  0  0  0
 20 43  1  0  0  0  0
 20 44  1  0  0  0  0
 21 45  1  0  0  0  0
 22 46  1  0  0  0  0
 22 47  1  0  0  0  0
 22 48  1  0  0  0  0
 23 49  1  0  0  0  0
 23 50  1  0  0  0  0
 23 51  1  0  0  0  0
 24 52  1  0  0  0  0
 24 53  1  0  0  0  0
 25 54  1  0  0  0  0
 26 55  1  0  0  0  0
 26 56  1  0  0  0  0
 26 57  1  0  0  0  0
M  END
>  <result-rank>
49

>  <similarity>
0.943

>  <query-name>
LIG_A_1101_CC(C)CC[C@]1([R*])CCCOC1_2

>  <query-smiles>
O=C(N[C@@]1(COCCC1)CCC(C)C)[C@@H](NC(=O)C)Cc2ccc(O)cc2

>  <source>
REALspace_2019-12

>  <similarity-descriptor>
0.968;0.971;0.995;1.000;0.971;1.000;1.000;1.000;1.000;0.898;0.898;0.730;0.730;1.000;0.0;0.0

>  <similarity-descriptor-smiles>
Clc1ccccc1;C1CCOCC1;C=O;N;C1CCOCC1;C;C;C;C;C(N)C;C(N)C;CO;CO;C;;

>  <reaction-name>
s_2708

>  <reagent1-name>
8333320

>  <reagent1-smiles>
[R1*]C(=O)NC1CC(OCC1)CC(C)C

>  <reagent2-name>
12550288

>  <reagent2-smiles>
[R1*]NC(CO)(Cc1ccc(Cl)cc1)C

$$$$
s_22____12106192____107332
          04022015103D 1   1.00000     0.00000     0
            
 55 57  0  0  0  0            999 V2000
    1.6287   -2.8076   -4.4731 Cl  0  0  0  0  0  0  0  0  0  0  0  0
    2.0403   -1.5646   -3.2675 C   0  0  0  0  0  0  0  0  0  0  0  0
    2.8044   -1.9046   -2.1567 C   0  0  0  0  0  0  0  0  0  0  0  0
    3.1278   -0.9363   -1.2116 C   0  0  0  0  0  0  0  0  0  0  0  0
    2.6787    0.3673   -1.3944 C   0  0  0  0  0  0  0  0  0  0  0  0
    1.9143    0.7077   -2.5049 C   0  0  0  0  0  0  0  0  0  0  0  0
    1.5908   -0.2609   -3.4501 C   0  0  0  0  0  0  0  0  0  0  0  0
    3.0267    1.4309   -0.3667 C   0  0  3  0  0  0  0  0  0  0  0  0
    4.4855    1.6046   -0.3161 N   0  0  0  0  0  0  0  0  0  0  0  0
    5.0404    2.8242   -0.6018 C   0  0  0  0  0  0  0  0  0  0  0  0
    4.3356    3.7506   -0.8934 O   0  0  0  0  0  0  0  0  0  0  0  0
    6.5489    3.0038   -0.5495 C   0  0  0  0  0  0  0  0  0  0  0  0
    2.5200    1.0000    1.0000 C   0  0  0  0  0  0  0  0  0  0  0  0
    1.0000    1.0000    1.0000 C   0  0  0  0  0  0  0  0  0  0  0  0
    0.4000    1.0000   -0.0392 O   0  0  0  0  0  0  0  0  0  0  0  0
    0.3150    1.0000    2.1865 N   0  0  0  0  0  0  0  0  0  0  0  0
   -1.1550    1.0000    2.1865 C   0  0  0  0  0  0  0  0  0  0  0  0
   -1.6617    1.0000    3.6195 C   0  0  0  0  0  0  0  0  0  0  0  0
   -3.1334    1.0000    3.6195 N   0  0  0  0  0  0  0  0  0  0  0  0
   -3.9368   -0.1442    3.6195 C   0  0  0  0  0  0  0  0  0  0  0  0
   -3.4931   -1.2772    3.5841 O   0  0  0  0  0  0  0  0  0  0  0  0
   -5.2917    0.1794    3.6358 N   0  0  0  0  0  0  0  0  0  0  0  0
   -5.4034    1.6370    3.7494 C   0  0  3  0  0  0  0  0  0  0  0  0
   -3.9988    2.1808    3.5909 C   0  0  0  0  0  0  0  0  0  0  0  0
   -6.2773    2.1482    2.6151 C   0  0  0  0  0  0  0  0  0  0  0  0
   -7.6368    1.4691    2.6476 C   0  0  0  0  0  0  0  0  0  0  0  0
   -7.4427   -0.0352    2.4926 C   0  0  0  0  0  0  0  0  0  0  0  0
   -6.4985   -0.6492    3.5206 C   0  0  0  0  0  0  0  0  0  0  0  0
    3.1216   -2.8454   -2.0371 H   0  0  0  0  0  0  0  0  0  0  0  0
    3.6767   -1.1747   -0.4104 H   0  0  0  0  0  0  0  0  0  0  0  0
    1.5971    1.6485   -2.6242 H   0  0  0  0  0  0  0  0  0  0  0  0
    1.0417   -0.0225   -4.2512 H   0  0  0  0  0  0  0  0  0  0  0  0
    2.5967    2.2963   -0.6240 H   0  0  0  0  0  0  0  0  0  0  0  0
    5.0728    0.8326   -0.0731 H   0  0  0  0  0  0  0  0  0  0  0  0
    6.9789    2.1384   -0.2922 H   0  0  0  0  0  0  0  0  0  0  0  0
    6.8822    3.2873   -1.4486 H   0  0  0  0  0  0  0  0  0  0  0  0
    6.7779    3.7039    0.1269 H   0  0  0  0  0  0  0  0  0  0  0  0
    2.8533    0.0795    1.2041 H   0  0  0  0  0  0  0  0  0  0  0  0
    2.8533    1.6370    1.6951 H   0  0  0  0  0  0  0  0  0  0  0  0
    0.8150    1.0000    3.0525 H   0  0  0  0  0  0  0  0  0  0  0  0
   -1.4883    0.1835    1.7151 H   0  0  0  0  0  0  0  0  0  0  0  0
   -1.4883    1.8165    1.7151 H   0  0  0  0  0  0  0  0  0  0  0  0
   -1.3283    0.1835    4.0909 H   0  0  0  0  0  0  0  0  0  0  0  0
   -1.3283    1.8165    4.0909 H   0  0  0  0  0  0  0  0  0  0  0  0
   -5.7861    1.8955    4.6363 H   0  0  0  0  0  0  0  0  0  0  0  0
   -3.9049    2.6650    2.7211 H   0  0  0  0  0  0  0  0  0  0  0  0
   -3.7742    2.8001    4.3432 H   0  0  0  0  0  0  0  0  0  0  0  0
   -5.8317    1.9523    1.7415 H   0  0  0  0  0  0  0  0  0  0  0  0
   -6.3998    3.1359    2.7126 H   0  0  0  0  0  0  0  0  0  0  0  0
   -8.2019    1.8135    1.8979 H   0  0  0  0  0  0  0  0  0  0  0  0
   -8.0870    1.6612    3.5197 H   0  0  0  0  0  0  0  0  0  0  0  0
   -8.3349   -0.4779    2.5815 H   0  0  0  0  0  0  0  0  0  0  0  0
   -7.0723   -0.2119    1.5807 H   0  0  0  0  0  0  0  0  0  0  0  0
   -6.9569   -0.6952    4.4082 H   0  0  0  0  0  0  0  0  0  0  0  0
   -6.2430   -1.5711    3.2293 H   0  0  0  0  0  0  0  0  0  0  0  0
  1  2  1  0  0  0  0
  2  3  1  0  0  0  0
  3  4  2  0  0  0  0
  4  5  1  0  0  0  0
  5  6  2  0  0  0  0
  6  7  1  0  0  0  0
  7  2  2  0  0  0  0
  5  8  1  0  0  0  0
  8  9  1  0  0  0  0
  9 10  1  0  0  0  0
 10 11  2  0  0  0  0
 10 12  1  0  0  0  0
  8 13  1  0  0  0  0
 13 14  1  0  0  0  0
 14 15  2  0  0  0  0
 14 16  1  0  0  0  0
 16 17  1  0  0  0  0
 17 18  1  0  0  0  0
 18 19  1  0  0  0  0
 19 20  1  0  0  0  0
 20 21  2  0  0  0  0
 20 22  1  0  0  0  0
 22 23  1  0  0  0  0
 23 24  1  0  0  0  0
 24 19  1  0  0  0  0
 23 25  1  0  0  0  0
 25 26  1  0  0  0  0
 26 27  1  0  0  0  0
 27 28  1  0  0  0  0
 28 22  1  0  0  0  0
  3 29  1  0  0  0  0
  4 30  1  0  0  0  0
  6 31  1  0  0  0  0
  7 32  1  0  0  0  0
  8 33  1  0  0  0  0
  9 34  1  0  0  0  0
 12 35  1  0  0  0  0
 12 36  1  0  0  0  0
 12 37  1  0  0  0  0
 13 38  1  0  0  0  0
 13 39  1  0  0  0  0
 16 40  1  0  0  0  0
 17 41  1  0  0  0  0
 17 42  1  0  0  0  0
 18 43  1  0  0  0  0
 18 44  1  0  0  0  0
 23 45  1  0  0  0  0
 24 46  1  0  0  0  0
 24 47  1  0  0  0  0
 25 48  1  0  0  0  0
 25 49  1  0  0  0  0
 26 50  1  0  0  0  0
 26 51  1  0  0  0  0
 27 52  1  0  0  0  0
 27 53  1  0  0  0  0
 28 54  1  0  0  0  0
 28 55  1  0  0  0  0
M  END
>  <result-rank>
50

>  <similarity>
0.943

>  <query-name>
LIG_A_1101_CC(C)CC[C@]1([R*])CCCOC1_2

>  <query-smiles>
O=C(N[C@@]1(COCCC1)CCC(C)C)[C@@H](NC(=O)C)Cc2ccc(O)cc2

>  <source>
REALspace_2019-12

>  <similarity-descriptor>
0.968;0.909;1.000;1.000;0.881;0.881;0.881;0.881;0.881;1.000;1.000;1.000;1.000;1.000;0.0;0.0

>  <similarity-descriptor-smiles>
Clc1ccccc1;CCN1CCNC1=O;C=O;N;N1CCCCC1;N1CCCCC1;N1CCCCC1;N1CCCCC1;N1CCCCC1;CC;N;C=O;C;CC;;

>  <reaction-name>
s_22

>  <reagent1-name>
12106192

>  <reagent1-smiles>
[R1*]NCCN1C(=O)N2C(C1)CCCC2

>  <reagent2-name>
107332

>  <reagent2-smiles>
[R1*]C(=O)CC(NC(=O)C)c1ccc(Cl)cc1

$$$$
s_272164____9389058____9382468
          04022015103D 1   1.00000     0.00000     0
            
 52 54  0  0  0  0            999 V2000
    2.1302   -0.5805    5.8669 O   0  0  0  0  0  0  0  0  0  0  0  0
    2.4800   -1.1711    4.8826 C   0  0  0  0  0  0  0  0  0  0  0  0
    2.6000   -2.5694    4.9087 N   0  0  0  0  0  0  0  0  0  0  0  0
    3.7221   -3.2140    5.4389 C   0  0  0  0  0  0  0  0  0  0  0  0
    3.6058   -4.4862    5.9942 C   0  0  0  0  0  0  0  0  0  0  0  0
    2.3468   -5.0958    6.0540 N   0  0  0  0  0  0  0  0  0  0  0  0
    1.2946   -4.6243    5.2574 C   0  0  0  0  0  0  0  0  0  0  0  0
    0.2153   -5.1892    5.2914 O   0  0  0  0  0  0  0  0  0  0  0  0
    1.5258   -3.4167    4.3607 C   0  0  3  0  0  0  0  0  0  0  0  0
    0.2032   -2.6809    4.2209 C   0  0  0  0  0  0  0  0  0  0  0  0
    4.7407   -5.1214    6.4866 C   0  0  0  0  0  0  0  0  0  0  0  0
    5.9876   -4.5029    6.4483 C   0  0  0  0  0  0  0  0  0  0  0  0
    6.1119   -3.2260    5.9103 C   0  0  0  0  0  0  0  0  0  0  0  0
    4.9763   -2.6056    5.4079 C   0  0  0  0  0  0  0  0  0  0  0  0
    2.7621   -0.4807    3.7334 N   0  0  0  0  0  0  0  0  0  0  0  0
    2.7432    0.9921    3.7356 C   0  0  3  0  0  0  0  0  0  0  0  0
    4.1635    1.5348    3.7163 C   0  0  0  0  0  0  0  0  0  0  0  0
    4.1111    3.0539    3.6713 C   0  0  3  0  0  0  0  0  0  0  0  0
    3.4020    3.5133    2.5268 O   0  0  0  0  0  0  0  0  0  0  0  0
    2.0605    3.0467    2.4998 C   0  0  0  0  0  0  0  0  0  0  0  0
    2.0244    1.5267    2.5070 C   0  0  0  0  0  0  0  0  0  0  0  0
    5.5436    3.5631    3.6889 C   0  0  0  0  0  0  0  0  0  0  0  0
    5.5408    5.0830    3.7070 C   0  0  0  0  0  0  0  0  0  0  0  0
    4.8134    5.5736    4.9483 C   0  0  0  0  0  0  0  0  0  0  0  0
    6.9729    5.5921    3.7246 C   0  0  0  0  0  0  0  0  0  0  0  0
    2.1977   -5.8710    6.6679 H   0  0  0  0  0  0  0  0  0  0  0  0
    1.8062   -3.7408    3.4572 H   0  0  0  0  0  0  0  0  0  0  0  0
   -0.4856   -3.3016    3.8463 H   0  0  0  0  0  0  0  0  0  0  0  0
   -0.0940   -2.3560    5.1188 H   0  0  0  0  0  0  0  0  0  0  0  0
    0.3190   -1.9011    3.6058 H   0  0  0  0  0  0  0  0  0  0  0  0
    4.6597   -6.0391    6.8754 H   0  0  0  0  0  0  0  0  0  0  0  0
    6.7925   -4.9758    6.8069 H   0  0  0  0  0  0  0  0  0  0  0  0
    6.9992   -2.7655    5.8860 H   0  0  0  0  0  0  0  0  0  0  0  0
    5.0606   -1.6919    5.0105 H   0  0  0  0  0  0  0  0  0  0  0  0
    2.9808   -0.9767    2.8931 H   0  0  0  0  0  0  0  0  0  0  0  0
    2.2766    1.3157    4.5588 H   0  0  0  0  0  0  0  0  0  0  0  0
    4.6465    1.2401    4.5409 H   0  0  0  0  0  0  0  0  0  0  0  0
    4.6428    1.1916    2.9086 H   0  0  0  0  0  0  0  0  0  0  0  0
    3.6436    3.3831    4.4917 H   0  0  0  0  0  0  0  0  0  0  0  0
    1.6120    3.3825    1.6715 H   0  0  0  0  0  0  0  0  0  0  0  0
    1.5762    3.3911    3.3041 H   0  0  0  0  0  0  0  0  0  0  0  0
    1.0731    1.2186    2.5204 H   0  0  0  0  0  0  0  0  0  0  0  0
    2.4750    1.1813    1.6839 H   0  0  0  0  0  0  0  0  0  0  0  0
    6.0221    3.2404    2.8723 H   0  0  0  0  0  0  0  0  0  0  0  0
    6.0090    3.2209    4.5051 H   0  0  0  0  0  0  0  0  0  0  0  0
    5.0754    5.4253    2.8908 H   0  0  0  0  0  0  0  0  0  0  0  0
    4.8116    6.5735    4.9602 H   0  0  0  0  0  0  0  0  0  0  0  0
    3.8713    5.2386    4.9367 H   0  0  0  0  0  0  0  0  0  0  0  0
    5.2789    5.2313    5.7645 H   0  0  0  0  0  0  0  0  0  0  0  0
    6.9711    6.5920    3.7365 H   0  0  0  0  0  0  0  0  0  0  0  0
    7.4384    5.2498    4.5408 H   0  0  0  0  0  0  0  0  0  0  0  0
    7.4515    5.2694    2.9080 H   0  0  0  0  0  0  0  0  0  0  0  0
  1  2  2  0  0  0  0
  2  3  1  0  0  0  0
  3  4  1  0  0  0  0
  4  5  1  0  0  0  0
  5  6  1  0  0  0  0
  6  7  1  0  0  0  0
  7  8  2  0  0  0  0
  7  9  1  0  0  0  0
  9  3  1  0  0  0  0
  9 10  1  0  0  0  0
  5 11  2  0  0  0  0
 11 12  1  0  0  0  0
 12 13  2  0  0  0  0
 13 14  1  0  0  0  0
 14  4  2  0  0  0  0
  2 15  1  0  0  0  0
 15 16  1  0  0  0  0
 16 17  1  0  0  0  0
 17 18  1  0  0  0  0
 18 19  1  0  0  0  0
 19 20  1  0  0  0  0
 20 21  1  0  0  0  0
 21 16  1  0  0  0  0
 18 22  1  0  0  0  0
 22 23  1  0  0  0  0
 23 24  1  0  0  0  0
 23 25  1  0  0  0  0
  6 26  1  0  0  0  0
  9 27  1  0  0  0  0
 10 28  1  0  0  0  0
 10 29  1  0  0  0  0
 10 30  1  0  0  0  0
 11 31  1  0  0  0  0
 12 32  1  0  0  0  0
 13 33  1  0  0  0  0
 14 34  1  0  0  0  0
 15 35  1  0  0  0  0
 16 36  1  0  0  0  0
 17 37  1  0  0  0  0
 17 38  1  0  0  0  0
 18 39  1  0  0  0  0
 20 40  1  0  0  0  0
 20 41  1  0  0  0  0
 21 42  1  0  0  0  0
 21 43  1  0  0  0  0
 22 44  1  0  0  0  0
 22 45  1  0  0  0  0
 23 46  1  0  0  0  0
 24 47  1  0  0  0  0
 24 48  1  0  0  0  0
 24 49  1  0  0  0  0
 25 50  1  0  0  0  0
 25 51  1  0  0  0  0
 25 52  1  0  0  0  0
M  END
>  <result-rank>
51

>  <similarity>
0.943

>  <query-name>
LIG_A_1101_CC(C)CC[C@]1([R*])CCCOC1_2

>  <query-smiles>
O=C(N[C@@]1(COCCC1)CCC(C)C)[C@@H](NC(=O)C)Cc2ccc(O)cc2

>  <source>
REALspace_2019-12

>  <similarity-descriptor>
0.984;0.971;0.995;1.000;0.971;1.000;1.000;1.000;1.000;0.814;0.814;0.814;1.000;0.814;0.0;0.0

>  <similarity-descriptor-smiles>
c1ccccc1;C1CCOCC1;O=C;N;C1CCOCC1;C;C;C;C;N1CC(Ncc1)=O;N1CC(Ncc1)=O;N1CC(Ncc1)=O;C;N1CC(Ncc1)=O;;

>  <reaction-name>
s_272164

>  <reagent1-name>
9389058

>  <reagent1-smiles>
[R1*]C(=O)N1c2c(NC(=O)C1C)cccc2

>  <reagent2-name>
9382468

>  <reagent2-smiles>
[R1*]NC1CC(OCC1)CC(C)C

$$$$
s_512____8366578____12639314
          04022015103D 1   1.00000     0.00000     0
            
 59 60  0  0  0  0            999 V2000
    7.2250    1.8140    3.8224 Br  0  0  0  0  0  0  0  0  0  0  0  0
    5.7910    0.5054    3.5537 C   0  0  0  0  0  0  0  0  0  0  0  0
    4.9934    0.5824    2.4172 C   0  0  0  0  0  0  0  0  0  0  0  0
    3.9790   -0.3536    2.2413 C   0  0  0  0  0  0  0  0  0  0  0  0
    3.7574   -1.3546    3.1810 C   0  0  0  0  0  0  0  0  0  0  0  0
    4.5665   -1.4130    4.3110 C   0  0  0  0  0  0  0  0  0  0  0  0
    5.5861   -0.4872    4.5061 C   0  0  0  0  0  0  0  0  0  0  0  0
    3.1050   -0.2731    1.0000 C   0  0  3  0  0  0  0  0  0  0  0  0
    2.3700    1.0000    1.0000 N   0  0  0  0  0  0  0  0  0  0  0  0
    1.0000    1.0000    1.0000 C   0  0  0  0  0  0  0  0  0  0  0  0
    0.4000   -0.0392    1.0000 O   0  0  0  0  0  0  0  0  0  0  0  0
    0.3150    2.1865    1.0000 N   0  0  0  0  0  0  0  0  0  0  0  0
   -1.1594    2.1865    1.0000 C   0  0  3  0  0  0  0  0  0  0  0  0
   -1.6883    2.8993   -0.2347 C   0  0  0  0  0  0  0  0  0  0  0  0
   -3.2074    2.9242   -0.1739 C   0  0  3  0  0  0  0  0  0  0  0  0
   -3.6680    3.5818    1.0003 O   0  0  0  0  0  0  0  0  0  0  0  0
   -3.2028    2.9539    2.1873 C   0  0  0  0  0  0  0  0  0  0  0  0
   -1.6825    2.9149    2.2284 C   0  0  0  0  0  0  0  0  0  0  0  0
   -3.7107    3.6078   -1.4352 C   0  0  0  0  0  0  0  0  0  0  0  0
   -5.2306    3.5965   -1.4456 C   0  0  0  0  0  0  0  0  0  0  0  0
   -5.7269    2.1601   -1.4153 C   0  0  0  0  0  0  0  0  0  0  0  0
   -3.2144    5.0441   -1.4655 C   0  0  0  0  0  0  0  0  0  0  0  0
   -3.7176    5.7276   -2.7266 C   0  0  0  0  0  0  0  0  0  0  0  0
    3.9789   -0.3536   -0.2411 C   0  0  0  0  0  0  0  0  0  0  0  0
    4.5946   -1.7399   -0.3381 C   0  0  0  0  0  0  0  0  0  0  0  0
    4.2182   -2.6159    0.3905 O   0  0  0  0  0  0  0  0  0  0  0  0
    5.5361   -1.9784   -1.2172 O   0  0  0  0  0  0  0  0  0  0  0  0
    6.1113   -3.2735   -1.3079 C   0  0  0  0  0  0  0  0  0  0  0  0
    5.1465    1.2993    1.7370 H   0  0  0  0  0  0  0  0  0  0  0  0
    3.0263   -2.0233    3.0462 H   0  0  0  0  0  0  0  0  0  0  0  0
    4.4132   -2.1294    4.9916 H   0  0  0  0  0  0  0  0  0  0  0  0
    6.1643   -0.5347    5.3206 H   0  0  0  0  0  0  0  0  0  0  0  0
    2.4552   -1.0331    1.0000 H   0  0  0  0  0  0  0  0  0  0  0  0
    2.8700    1.8660    1.0000 H   0  0  0  0  0  0  0  0  0  0  0  0
    0.8150    3.0525    1.0000 H   0  0  0  0  0  0  0  0  0  0  0  0
   -1.4915    1.2432    1.0067 H   0  0  0  0  0  0  0  0  0  0  0  0
   -1.3376    3.8355   -0.2582 H   0  0  0  0  0  0  0  0  0  0  0  0
   -1.3928    2.4120   -1.0564 H   0  0  0  0  0  0  0  0  0  0  0  0
   -3.5426    1.9821   -0.1652 H   0  0  0  0  0  0  0  0  0  0  0  0
   -3.5542    2.0182    2.2208 H   0  0  0  0  0  0  0  0  0  0  0  0
   -3.5377    3.4643    2.9794 H   0  0  0  0  0  0  0  0  0  0  0  0
   -1.3255    3.8490    2.2390 H   0  0  0  0  0  0  0  0  0  0  0  0
   -1.3837    2.4345    3.0530 H   0  0  0  0  0  0  0  0  0  0  0  0
   -3.3683    3.1198   -2.2381 H   0  0  0  0  0  0  0  0  0  0  0  0
   -5.5617    4.0461   -2.2752 H   0  0  0  0  0  0  0  0  0  0  0  0
   -5.5730    4.0845   -0.6427 H   0  0  0  0  0  0  0  0  0  0  0  0
   -6.7268    2.1527   -1.4221 H   0  0  0  0  0  0  0  0  0  0  0  0
   -5.3844    1.6721   -2.2182 H   0  0  0  0  0  0  0  0  0  0  0  0
   -5.3958    1.7105   -0.5857 H   0  0  0  0  0  0  0  0  0  0  0  0
   -2.2145    5.0516   -1.4587 H   0  0  0  0  0  0  0  0  0  0  0  0
   -3.5569    5.5321   -0.6627 H   0  0  0  0  0  0  0  0  0  0  0  0
   -3.3911    6.6725   -2.7465 H   0  0  0  0  0  0  0  0  0  0  0  0
   -3.3752    5.2396   -3.5294 H   0  0  0  0  0  0  0  0  0  0  0  0
   -4.7176    5.7201   -2.7334 H   0  0  0  0  0  0  0  0  0  0  0  0
    3.4218   -0.1787   -1.0529 H   0  0  0  0  0  0  0  0  0  0  0  0
    4.7058    0.3306   -0.1819 H   0  0  0  0  0  0  0  0  0  0  0  0
    6.8082   -3.2792   -2.0250 H   0  0  0  0  0  0  0  0  0  0  0  0
    6.5314   -3.5136   -0.4328 H   0  0  0  0  0  0  0  0  0  0  0  0
    5.3992   -3.9396   -1.5298 H   0  0  0  0  0  0  0  0  0  0  0  0
  1  2  1  0  0  0  0
  2  3  1  0  0  0  0
  3  4  2  0  0  0  0
  4  5  1  0  0  0  0
  5  6  2  0  0  0  0
  6  7  1  0  0  0  0
  7  2  2  0  0  0  0
  4  8  1  0  0  0  0
  8  9  1  0  0  0  0
  9 10  1  0  0  0  0
 10 11  2  0  0  0  0
 10 12  1  0  0  0  0
 12 13  1  0  0  0  0
 13 14  1  0  0  0  0
 14 15  1  0  0  0  0
 15 16  1  0  0  0  0
 16 17  1  0  0  0  0
 17 18  1  0  0  0  0
 18 13  1  0  0  0  0
 15 19  1  0  0  0  0
 19 20  1  0  0  0  0
 20 21  1  0  0  0  0
 19 22  1  0  0  0  0
 22 23  1  0  0  0  0
  8 24  1  0  0  0  0
 24 25  1  0  0  0  0
 25 26  2  0  0  0  0
 25 27  1  0  0  0  0
 27 28  1  0  0  0  0
  3 29  1  0  0  0  0
  5 30  1  0  0  0  0
  6 31  1  0  0  0  0
  7 32  1  0  0  0  0
  8 33  1  0  0  0  0
  9 34  1  0  0  0  0
 12 35  1  0  0  0  0
 13 36  1  0  0  0  0
 14 37  1  0  0  0  0
 14 38  1  0  0  0  0
 15 39  1  0  0  0  0
 17 40  1  0  0  0  0
 17 41  1  0  0  0  0
 18 42  1  0  0  0  0
 18 43  1  0  0  0  0
 19 44  1  0  0  0  0
 20 45  1  0  0  0  0
 20 46  1  0  0  0  0
 21 47  1  0  0  0  0
 21 48  1  0  0  0  0
 21 49  1  0  0  0  0
 22 50  1  0  0  0  0
 22 51  1  0  0  0  0
 23 52  1  0  0  0  0
 23 53  1  0  0  0  0
 23 54  1  0  0  0  0
 24 55  1  0  0  0  0
 24 56  1  0  0  0  0
 28 57  1  0  0  0  0
 28 58  1  0  0  0  0
 28 59  1  0  0  0  0
M  END
>  <result-rank>
52

>  <similarity>
0.943

>  <query-name>
LIG_A_1101_CC(C)CC[C@]1([R*])CCCOC1_2

>  <query-smiles>
O=C(N[C@@]1(COCCC1)CCC(C)C)[C@@H](NC(=O)C)Cc2ccc(O)cc2

>  <source>
REALspace_2019-12

>  <similarity-descriptor>
0.969;0.971;0.995;1.000;0.971;1.000;1.000;1.000;0.949;1.000;1.000;0.749;0.994;0.969;0.0;0.067

>  <similarity-descriptor-smiles>
Brc1ccccc1;C1CCOCC1;C=O;N;C1CCOCC1;CC;CC;C;C;CN;CN;CC(=O)O;C;Brc1ccccc1;;C

>  <reaction-name>
s_512

>  <reagent1-name>
8366578

>  <reagent1-smiles>
[R1*]C(=O)NC1CC(OCC1)C(CC)CC

>  <reagent2-name>
12639314

>  <reagent2-smiles>
[R1*]NC(c1cc(Br)ccc1)CC(=O)OC

$$$$
s_22____12856120____219891
          04022015103D 1   1.00000     0.00000     0
            
 51 52  0  0  0  0            999 V2000
    6.6755    0.1377    2.1795 O   0  0  0  0  0  0  0  0  0  0  0  0
    6.4599   -0.9595    1.7440 C   0  0  0  0  0  0  0  0  0  0  0  0
    5.4194   -1.1596    0.8756 N   0  0  0  0  0  0  0  0  0  0  0  0
    4.5670   -0.0301    0.4773 C   0  0  3  0  0  0  0  0  0  0  0  0
    4.6393    0.1523   -1.0303 C   0  0  0  0  0  0  0  0  0  0  0  0
    4.1955   -0.8644   -1.8695 C   0  0  0  0  0  0  0  0  0  0  0  0
    4.2642   -0.6936   -3.2484 C   0  0  0  0  0  0  0  0  0  0  0  0
    4.7726    0.4875   -3.7785 C   0  0  0  0  0  0  0  0  0  0  0  0
    5.2126    1.4965   -2.9305 C   0  0  0  0  0  0  0  0  0  0  0  0
    5.1497    1.3377   -1.5500 C   0  0  0  0  0  0  0  0  0  0  0  0
    3.1300   -0.3113    0.8853 C   0  0  0  0  0  0  0  0  0  0  0  0
    2.3700    1.0000    1.0000 C   0  0  0  0  0  0  0  0  0  0  0  0
    2.9700    2.0353    1.0906 O   0  0  0  0  0  0  0  0  0  0  0  0
    1.0000    1.0000    1.0000 N   0  0  0  0  0  0  0  0  0  0  0  0
    0.2650    2.2731    1.0000 C   0  0  0  0  0  0  0  0  0  0  0  0
   -1.2275    1.9957    1.0000 C   0  0  0  0  0  0  0  0  0  0  0  0
   -2.0268    3.1684    1.0000 O   0  0  0  0  0  0  0  0  0  0  0  0
   -1.7402    3.9365   -0.1594 C   0  0  0  0  0  0  0  0  0  0  0  0
   -3.0053    4.0962   -0.9868 C   0  0  0  0  0  0  0  0  0  0  0  0
   -1.2290    5.3068    0.2543 C   0  0  0  0  0  0  0  0  0  0  0  0
   -1.6027    0.9615    2.0329 C   0  0  0  0  0  0  0  0  0  0  0  0
   -2.5588    0.3921    1.0087 C   0  0  0  0  0  0  0  0  0  0  0  0
   -1.6003    0.9454   -0.0232 C   0  0  0  0  0  0  0  0  0  0  0  0
    7.2544   -2.0121    2.1153 N   0  0  0  0  0  0  0  0  0  0  0  0
    5.2398   -2.0739    0.5127 H   0  0  0  0  0  0  0  0  0  0  0  0
    4.8849    0.8032    0.9295 H   0  0  0  0  0  0  0  0  0  0  0  0
    3.8297   -1.7117   -1.4845 H   0  0  0  0  0  0  0  0  0  0  0  0
    3.9481   -1.4202   -3.8585 H   0  0  0  0  0  0  0  0  0  0  0  0
    4.8215    0.6106   -4.7697 H   0  0  0  0  0  0  0  0  0  0  0  0
    5.5775    2.3440   -3.3160 H   0  0  0  0  0  0  0  0  0  0  0  0
    5.4666    2.0644   -0.9405 H   0  0  0  0  0  0  0  0  0  0  0  0
    2.6947   -0.8896    0.1953 H   0  0  0  0  0  0  0  0  0  0  0  0
    3.1199   -0.7808    1.7682 H   0  0  0  0  0  0  0  0  0  0  0  0
    0.5000    0.1340    1.0000 H   0  0  0  0  0  0  0  0  0  0  0  0
    0.5066    2.7974    0.1835 H   0  0  0  0  0  0  0  0  0  0  0  0
    0.5066    2.7974    1.8165 H   0  0  0  0  0  0  0  0  0  0  0  0
   -1.0425    3.4708   -0.7038 H   0  0  0  0  0  0  0  0  0  0  0  0
   -2.8034    4.6371   -1.8033 H   0  0  0  0  0  0  0  0  0  0  0  0
   -3.3416    3.1946   -1.2590 H   0  0  0  0  0  0  0  0  0  0  0  0
   -3.7030    4.5619   -0.4425 H   0  0  0  0  0  0  0  0  0  0  0  0
   -1.0272    5.8478   -0.5622 H   0  0  0  0  0  0  0  0  0  0  0  0
   -1.9267    5.7725    0.7986 H   0  0  0  0  0  0  0  0  0  0  0  0
   -0.3967    5.2018    0.7986 H   0  0  0  0  0  0  0  0  0  0  0  0
   -2.0399    1.3297    2.8535 H   0  0  0  0  0  0  0  0  0  0  0  0
   -0.8598    0.3470    2.2983 H   0  0  0  0  0  0  0  0  0  0  0  0
   -3.4699    0.8043    1.0045 H   0  0  0  0  0  0  0  0  0  0  0  0
   -2.6438   -0.6043    1.0165 H   0  0  0  0  0  0  0  0  0  0  0  0
   -0.8570    0.3269   -0.2781 H   0  0  0  0  0  0  0  0  0  0  0  0
   -2.0355    1.3022   -0.8498 H   0  0  0  0  0  0  0  0  0  0  0  0
    7.0748   -2.9264    1.7524 H   0  0  0  0  0  0  0  0  0  0  0  0
    8.0139   -1.8660    2.7491 H   0  0  0  0  0  0  0  0  0  0  0  0
  1  2  2  0  0  0  0
  2  3  1  0  0  0  0
  3  4  1  0  0  0  0
  4  5  1  0  0  0  0
  5  6  1  0  0  0  0
  6  7  2  0  0  0  0
  7  8  1  0  0  0  0
  8  9  2  0  0  0  0
  9 10  1  0  0  0  0
 10  5  2  0  0  0  0
  4 11  1  0  0  0  0
 11 12  1  0  0  0  0
 12 13  2  0  0  0  0
 12 14  1  0  0  0  0
 14 15  1  0  0  0  0
 15 16  1  0  0  0  0
 16 17  1  0  0  0  0
 17 18  1  0  0  0  0
 18 19  1  0  0  0  0
 18 20  1  0  0  0  0
 16 21  1  0  0  0  0
 21 22  1  0  0  0  0
 22 23  1  0  0  0  0
 23 16  1  0  0  0  0
  2 24  1  0  0  0  0
  3 25  1  0  0  0  0
  4 26  1  0  0  0  0
  6 27  1  0  0  0  0
  7 28  1  0  0  0  0
  8 29  1  0  0  0  0
  9 30  1  0  0  0  0
 10 31  1  0  0  0  0
 11 32  1  0  0  0  0
 11 33  1  0  0  0  0
 14 34  1  0  0  0  0
 15 35  1  0  0  0  0
 15 36  1  0  0  0  0
 18 37  1  0  0  0  0
 19 38  1  0  0  0  0
 19 39  1  0  0  0  0
 19 40  1  0  0  0  0
 20 41  1  0  0  0  0
 20 42  1  0  0  0  0
 20 43  1  0  0  0  0
 21 44  1  0  0  0  0
 21 45  1  0  0  0  0
 22 46  1  0  0  0  0
 22 47  1  0  0  0  0
 23 48  1  0  0  0  0
 23 49  1  0  0  0  0
 24 50  1  0  0  0  0
 24 51  1  0  0  0  0
M  END
>  <result-rank>
53

>  <similarity>
0.943

>  <query-name>
LIG_A_1101_CC(C)CC[C@]1([R*])CCCOC1_2

>  <query-smiles>
O=C(N[C@@]1(COCCC1)CCC(C)C)[C@@H](NC(=O)C)Cc2ccc(O)cc2

>  <source>
REALspace_2019-12

>  <similarity-descriptor>
0.960;0.998;1.000;1.000;0.995;0.995;0.883;0.0;0.0;1.000;1.000;0.840;0.840;1.000;0.0;0.071

>  <similarity-descriptor-smiles>
c1ccccc1;CC1(CCC1)O;C=O;N;CC;CC;C;;;CC;N;O=C;O=C;CC;;N

>  <reaction-name>
s_22

>  <reagent1-name>
12856120

>  <reagent1-smiles>
[R1*]NCC1(OC(C)C)CCC1

>  <reagent2-name>
219891

>  <reagent2-smiles>
[R1*]C(=O)CC(NC(=O)N)c1ccccc1

$$$$
s_2708____8333320____13026520
          04022015103D 1   1.00000     0.00000     0
            
 57 58  0  0  0  0            999 V2000
    2.9700    2.0392    1.0000 O   0  0  0  0  0  0  0  0  0  0  0  0
    2.3700    1.0000    1.0000 C   0  0  0  0  0  0  0  0  0  0  0  0
    3.0550   -0.1865    1.0000 N   0  0  0  0  0  0  0  0  0  0  0  0
    4.4585   -0.2248    1.4354 C   0  0  3  0  0  0  0  0  0  0  0  0
    4.5420   -0.8402    2.8231 C   0  0  0  0  0  0  0  0  0  0  0  0
    4.7701   -0.0595    3.9523 C   0  0  0  0  0  0  0  0  0  0  0  0
    4.8408   -0.6556    5.2071 C   0  0  0  0  0  0  0  0  0  0  0  0
    4.6835   -2.0325    5.3332 C   0  0  0  0  0  0  0  0  0  0  0  0
    4.4545   -2.8127    4.2043 C   0  0  0  0  0  0  0  0  0  0  0  0
    4.3843   -2.2166    2.9494 C   0  0  0  0  0  0  0  0  0  0  0  0
    4.9420    1.4447    3.8145 C   0  0  0  0  0  0  0  0  0  0  0  0
    5.2689   -1.0628    0.4600 C   0  0  0  0  0  0  0  0  0  0  0  0
    6.6246   -1.0999    0.8806 O   0  0  0  0  0  0  0  0  0  0  0  0
    2.3865   -1.4211    0.5646 C   0  0  0  0  0  0  0  0  0  0  0  0
    1.0000    1.0000    1.0000 N   0  0  0  0  0  0  0  0  0  0  0  0
    0.2628    2.2769    1.0000 C   0  0  3  0  0  0  0  0  0  0  0  0
   -0.6190    2.3785    2.2347 C   0  0  0  0  0  0  0  0  0  0  0  0
   -1.4001    3.6816    2.1739 C   0  0  3  0  0  0  0  0  0  0  0  0
   -2.1999    3.7517    0.9997 O   0  0  0  0  0  0  0  0  0  0  0  0
   -1.4235    3.6628   -0.1873 C   0  0  0  0  0  0  0  0  0  0  0  0
   -0.6296    2.3656   -0.2284 C   0  0  0  0  0  0  0  0  0  0  0  0
   -2.2437    3.7757    3.4352 C   0  0  0  0  0  0  0  0  0  0  0  0
   -2.9939    5.0976    3.4456 C   0  0  0  0  0  0  0  0  0  0  0  0
   -3.8374    5.1917    4.7066 C   0  0  0  0  0  0  0  0  0  0  0  0
   -1.9981    6.2456    3.4153 C   0  0  0  0  0  0  0  0  0  0  0  0
    4.8253    0.7051    1.4606 H   0  0  0  0  0  0  0  0  0  0  0  0
    5.0048   -0.0947    6.0186 H   0  0  0  0  0  0  0  0  0  0  0  0
    4.7349   -2.4611    6.2352 H   0  0  0  0  0  0  0  0  0  0  0  0
    4.3405   -3.8021    4.2951 H   0  0  0  0  0  0  0  0  0  0  0  0
    4.2204   -2.7776    2.1379 H   0  0  0  0  0  0  0  0  0  0  0  0
    5.0966    1.8465    4.7171 H   0  0  0  0  0  0  0  0  0  0  0  0
    5.7261    1.6380    3.2248 H   0  0  0  0  0  0  0  0  0  0  0  0
    4.1163    1.8390    3.4111 H   0  0  0  0  0  0  0  0  0  0  0  0
    4.9021   -1.9928    0.4348 H   0  0  0  0  0  0  0  0  0  0  0  0
    5.2140   -0.6581   -0.4528 H   0  0  0  0  0  0  0  0  0  0  0  0
    7.1578   -1.6512    0.2388 H   0  0  0  0  0  0  0  0  0  0  0  0
    3.0268   -2.1867    0.6271 H   0  0  0  0  0  0  0  0  0  0  0  0
    1.5971   -1.5979    1.1525 H   0  0  0  0  0  0  0  0  0  0  0  0
    2.0808   -1.3187   -0.3820 H   0  0  0  0  0  0  0  0  0  0  0  0
    0.5000    0.1340    1.0000 H   0  0  0  0  0  0  0  0  0  0  0  0
    0.9136    3.0361    0.9933 H   0  0  0  0  0  0  0  0  0  0  0  0
   -1.2544    1.6067    2.2582 H   0  0  0  0  0  0  0  0  0  0  0  0
   -0.0492    2.3663    3.0564 H   0  0  0  0  0  0  0  0  0  0  0  0
   -0.7518    4.4430    2.1652 H   0  0  0  0  0  0  0  0  0  0  0  0
   -0.7889    4.4350   -0.2208 H   0  0  0  0  0  0  0  0  0  0  0  0
   -2.0330    3.6976   -0.9794 H   0  0  0  0  0  0  0  0  0  0  0  0
   -1.2600    1.5895   -0.2390 H   0  0  0  0  0  0  0  0  0  0  0  0
   -0.0642    2.3471   -1.0530 H   0  0  0  0  0  0  0  0  0  0  0  0
   -1.6499    3.7231    4.2381 H   0  0  0  0  0  0  0  0  0  0  0  0
   -2.8989    3.0205    3.4552 H   0  0  0  0  0  0  0  0  0  0  0  0
   -3.5877    5.1502    2.6427 H   0  0  0  0  0  0  0  0  0  0  0  0
   -4.3309    6.0614    4.7134 H   0  0  0  0  0  0  0  0  0  0  0  0
   -4.4925    4.4365    4.7265 H   0  0  0  0  0  0  0  0  0  0  0  0
   -3.2436    5.1391    5.5095 H   0  0  0  0  0  0  0  0  0  0  0  0
   -2.4917    7.1153    3.4221 H   0  0  0  0  0  0  0  0  0  0  0  0
   -1.4043    6.1930    4.2182 H   0  0  0  0  0  0  0  0  0  0  0  0
   -1.4432    6.1837    2.5857 H   0  0  0  0  0  0  0  0  0  0  0  0
  1  2  2  0  0  0  0
  2  3  1  0  0  0  0
  3  4  1  0  0  0  0
  4  5  1  0  0  0  0
  5  6  1  0  0  0  0
  6  7  2  0  0  0  0
  7  8  1  0  0  0  0
  8  9  2  0  0  0  0
  9 10  1  0  0  0  0
 10  5  2  0  0  0  0
  6 11  1  0  0  0  0
  4 12  1  0  0  0  0
 12 13  1  0  0  0  0
  3 14  1  0  0  0  0
  2 15  1  0  0  0  0
 15 16  1  0  0  0  0
 16 17  1  0  0  0  0
 17 18  1  0  0  0  0
 18 19  1  0  0  0  0
 19 20  1  0  0  0  0
 20 21  1  0  0  0  0
 21 16  1  0  0  0  0
 18 22  1  0  0  0  0
 22 23  1  0  0  0  0
 23 24  1  0  0  0  0
 23 25  1  0  0  0  0
  4 26  1  0  0  0  0
  7 27  1  0  0  0  0
  8 28  1  0  0  0  0
  9 29  1  0  0  0  0
 10 30  1  0  0  0  0
 11 31  1  0  0  0  0
 11 32  1  0  0  0  0
 11 33  1  0  0  0  0
 12 34  1  0  0  0  0
 12 35  1  0  0  0  0
 13 36  1  0  0  0  0
 14 37  1  0  0  0  0
 14 38  1  0  0  0  0
 14 39  1  0  0  0  0
 15 40  1  0  0  0  0
 16 41  1  0  0  0  0
 17 42  1  0  0  0  0
 17 43  1  0  0  0  0
 18 44  1  0  0  0  0
 20 45  1  0  0  0  0
 20 46  1  0  0  0  0
 21 47  1  0  0  0  0
 21 48  1  0  0  0  0
 22 49  1  0  0  0  0
 22 50  1  0  0  0  0
 23 51  1  0  0  0  0
 24 52  1  0  0  0  0
 24 53  1  0  0  0  0
 24 54  1  0  0  0  0
 25 55  1  0  0  0  0
 25 56  1  0  0  0  0
 25 57  1  0  0  0  0
M  END
>  <result-rank>
54

>  <similarity>
0.943

>  <query-name>
LIG_A_1101_CC(C)CC[C@]1([R*])CCCOC1_2

>  <query-smiles>
O=C(N[C@@]1(COCCC1)CCC(C)C)[C@@H](NC(=O)C)Cc2ccc(O)cc2

>  <source>
REALspace_2019-12

>  <similarity-descriptor>
0.927;0.971;0.995;1.000;0.971;1.000;1.000;1.000;1.000;0.951;0.828;0.828;0.828;0.951;0.0;0.0

>  <similarity-descriptor-smiles>
c1ccccc1C;C1CCOCC1;O=C;N;C1CCOCC1;C;C;C;C;N(C)C;CO;CO;CO;N(C)C;;

>  <reaction-name>
s_2708

>  <reagent1-name>
8333320

>  <reagent1-smiles>
[R1*]C(=O)NC1CC(OCC1)CC(C)C

>  <reagent2-name>
13026520

>  <reagent2-smiles>
[R1*]N(C(c1c(cccc1)C)CO)C

$$$$
s_22____13940462____107332
          04022015103D 1   1.00000     0.00000     0
            
 66 67  0  0  0  0            999 V2000
    2.9613    1.9114   -5.4612 Cl  0  0  0  0  0  0  0  0  0  0  0  0
    3.3832    1.3219   -3.8357 C   0  0  0  0  0  0  0  0  0  0  0  0
    2.8722    0.1096   -3.3854 C   0  0  0  0  0  0  0  0  0  0  0  0
    3.1989   -0.3545   -2.1153 C   0  0  0  0  0  0  0  0  0  0  0  0
    4.0386    0.4070   -1.3095 C   0  0  0  0  0  0  0  0  0  0  0  0
    4.5496    1.6194   -1.7592 C   0  0  0  0  0  0  0  0  0  0  0  0
    4.2228    2.0837   -3.0296 C   0  0  0  0  0  0  0  0  0  0  0  0
    4.4000   -0.0921    0.0793 C   0  0  3  0  0  0  0  0  0  0  0  0
    5.1350   -1.3603   -0.0316 N   0  0  0  0  0  0  0  0  0  0  0  0
    6.4087   -1.4594    0.4630 C   0  0  0  0  0  0  0  0  0  0  0  0
    6.9244   -0.5109    0.9869 O   0  0  0  0  0  0  0  0  0  0  0  0
    7.1687   -2.7707    0.3483 C   0  0  0  0  0  0  0  0  0  0  0  0
    3.1300   -0.3113    0.8853 C   0  0  0  0  0  0  0  0  0  0  0  0
    2.3700    1.0000    1.0000 C   0  0  0  0  0  0  0  0  0  0  0  0
    2.9700    2.0353    1.0906 O   0  0  0  0  0  0  0  0  0  0  0  0
    1.0000    1.0000    1.0000 N   0  0  0  0  0  0  0  0  0  0  0  0
    0.2900    2.2298    1.0000 N   0  0  0  0  0  0  0  0  0  0  0  0
    0.0233    2.6917    2.3720 C   0  0  0  0  0  0  0  0  0  0  0  0
   -0.6709    4.0435    2.3850 C   0  0  0  0  0  0  0  0  0  0  0  0
   -1.1575    4.4264    0.9950 C   0  0  0  0  0  0  0  0  0  0  0  0
   -2.0138    5.5538    1.1158 O   0  0  0  0  0  0  0  0  0  0  0  0
   -1.3477    6.9033    0.1841 Si  0  0  0  0  0  0  0  0  0  0  0  0
   -2.4746    8.3870    0.3431 C   0  0  0  0  0  0  0  0  0  0  0  0
   -1.9026    9.5459   -0.4570 C   0  0  0  0  0  0  0  0  0  0  0  0
   -3.8539    8.0352   -0.1901 C   0  0  0  0  0  0  0  0  0  0  0  0
   -2.5836    8.7861    1.8058 C   0  0  0  0  0  0  0  0  0  0  0  0
    0.3491    7.3362    0.8401 C   0  0  0  0  0  0  0  0  0  0  0  0
   -1.2136    6.4123   -1.6153 C   0  0  0  0  0  0  0  0  0  0  0  0
   -1.8986    3.2219    0.4361 C   0  0  0  0  0  0  0  0  0  0  0  0
   -0.9666    2.0325    0.2604 C   0  0  0  0  0  0  0  0  0  0  0  0
    2.2698   -0.4287   -3.9747 H   0  0  0  0  0  0  0  0  0  0  0  0
    2.8343   -1.2254   -1.7856 H   0  0  0  0  0  0  0  0  0  0  0  0
    5.1518    2.1577   -1.1697 H   0  0  0  0  0  0  0  0  0  0  0  0
    4.5872    2.9547   -3.3592 H   0  0  0  0  0  0  0  0  0  0  0  0
    4.9733    0.5864    0.5387 H   0  0  0  0  0  0  0  0  0  0  0  0
    4.7052   -2.1507   -0.4682 H   0  0  0  0  0  0  0  0  0  0  0  0
    6.5954   -3.4492   -0.1110 H   0  0  0  0  0  0  0  0  0  0  0  0
    8.0042   -2.6265   -0.1819 H   0  0  0  0  0  0  0  0  0  0  0  0
    7.4065   -3.0992    1.2624 H   0  0  0  0  0  0  0  0  0  0  0  0
    2.5567   -0.9898    0.4259 H   0  0  0  0  0  0  0  0  0  0  0  0
    3.3678   -0.6399    1.7993 H   0  0  0  0  0  0  0  0  0  0  0  0
    0.5000    0.1340    1.0000 H   0  0  0  0  0  0  0  0  0  0  0  0
    0.8913    2.7684    2.8626 H   0  0  0  0  0  0  0  0  0  0  0  0
   -0.5612    2.0228    2.8313 H   0  0  0  0  0  0  0  0  0  0  0  0
   -1.4546    4.0017    3.0047 H   0  0  0  0  0  0  0  0  0  0  0  0
   -0.0274    4.7375    2.7079 H   0  0  0  0  0  0  0  0  0  0  0  0
   -0.3782    4.6502    0.4096 H   0  0  0  0  0  0  0  0  0  0  0  0
   -2.5052   10.3393   -0.3719 H   0  0  0  0  0  0  0  0  0  0  0  0
   -0.9952    9.7774   -0.1062 H   0  0  0  0  0  0  0  0  0  0  0  0
   -1.8309    9.2834   -1.4192 H   0  0  0  0  0  0  0  0  0  0  0  0
   -4.4565    8.8286   -0.1051 H   0  0  0  0  0  0  0  0  0  0  0  0
   -3.7822    7.7726   -1.1524 H   0  0  0  0  0  0  0  0  0  0  0  0
   -4.2302    7.2728    0.3363 H   0  0  0  0  0  0  0  0  0  0  0  0
   -3.1862    9.5796    1.8908 H   0  0  0  0  0  0  0  0  0  0  0  0
   -2.9599    8.0237    2.3321 H   0  0  0  0  0  0  0  0  0  0  0  0
   -1.6762    9.0176    2.1566 H   0  0  0  0  0  0  0  0  0  0  0  0
    0.7255    8.0986    0.3137 H   0  0  0  0  0  0  0  0  0  0  0  0
    0.2775    7.5987    1.8024 H   0  0  0  0  0  0  0  0  0  0  0  0
    0.9518    6.5427    0.7551 H   0  0  0  0  0  0  0  0  0  0  0  0
   -0.8373    7.1747   -2.1417 H   0  0  0  0  0  0  0  0  0  0  0  0
   -0.6110    5.6189   -1.7004 H   0  0  0  0  0  0  0  0  0  0  0  0
   -2.1210    6.1808   -1.9661 H   0  0  0  0  0  0  0  0  0  0  0  0
   -2.2897    3.4633   -0.4520 H   0  0  0  0  0  0  0  0  0  0  0  0
   -2.6329    2.9700    1.0664 H   0  0  0  0  0  0  0  0  0  0  0  0
   -1.4203    1.2090    0.6012 H   0  0  0  0  0  0  0  0  0  0  0  0
   -0.7594    1.9208   -0.7115 H   0  0  0  0  0  0  0  0  0  0  0  0
  1  2  1  0  0  0  0
  2  3  1  0  0  0  0
  3  4  2  0  0  0  0
  4  5  1  0  0  0  0
  5  6  2  0  0  0  0
  6  7  1  0  0  0  0
  7  2  2  0  0  0  0
  5  8  1  0  0  0  0
  8  9  1  0  0  0  0
  9 10  1  0  0  0  0
 10 11  2  0  0  0  0
 10 12  1  0  0  0  0
  8 13  1  0  0  0  0
 13 14  1  0  0  0  0
 14 15  2  0  0  0  0
 14 16  1  0  0  0  0
 16 17  1  0  0  0  0
 17 18  1  0  0  0  0
 18 19  1  0  0  0  0
 19 20  1  0  0  0  0
 20 21  1  0  0  0  0
 21 22  1  0  0  0  0
 22 23  1  0  0  0  0
 23 24  1  0  0  0  0
 23 25  1  0  0  0  0
 23 26  1  0  0  0  0
 22 27  1  0  0  0  0
 22 28  1  0  0  0  0
 20 29  1  0  0  0  0
 29 30  1  0  0  0  0
 30 17  1  0  0  0  0
  3 31  1  0  0  0  0
  4 32  1  0  0  0  0
  6 33  1  0  0  0  0
  7 34  1  0  0  0  0
  8 35  1  0  0  0  0
  9 36  1  0  0  0  0
 12 37  1  0  0  0  0
 12 38  1  0  0  0  0
 12 39  1  0  0  0  0
 13 40  1  0  0  0  0
 13 41  1  0  0  0  0
 16 42  1  0  0  0  0
 18 43  1  0  0  0  0
 18 44  1  0  0  0  0
 19 45  1  0  0  0  0
 19 46  1  0  0  0  0
 20 47  1  0  0  0  0
 24 48  1  0  0  0  0
 24 49  1  0  0  0  0
 24 50  1  0  0  0  0
 25 51  1  0  0  0  0
 25 52  1  0  0  0  0
 25 53  1  0  0  0  0
 26 54  1  0  0  0  0
 26 55  1  0  0  0  0
 26 56  1  0  0  0  0
 27 57  1  0  0  0  0
 27 58  1  0  0  0  0
 27 59  1  0  0  0  0
 28 60  1  0  0  0  0
 28 61  1  0  0  0  0
 28 62  1  0  0  0  0
 29 63  1  0  0  0  0
 29 64  1  0  0  0  0
 30 65  1  0  0  0  0
 30 66  1  0  0  0  0
M  END
>  <result-rank>
55

>  <similarity>
0.943

>  <query-name>
LIG_A_1101_CC(C)CC[C@]1([R*])CCCOC1_2

>  <query-smiles>
O=C(N[C@@]1(COCCC1)CCC(C)C)[C@@H](NC(=O)C)Cc2ccc(O)cc2

>  <source>
REALspace_2019-12

>  <similarity-descriptor>
0.968;0.868;1.000;0.984;0.904;0.904;0.943;0.943;1.000;1.000;1.000;1.000;1.000;1.000;0.0;0.0

>  <similarity-descriptor-smiles>
Clc1ccccc1;N1CCC(CC1)O;C=O;N;[Si](C)C;[Si](C)C;C(C)C;C(C)C;C;CC;N;C=O;C;CC;;

>  <reaction-name>
s_22

>  <reagent1-name>
13940462

>  <reagent1-smiles>
[R1*]NN1CCC(O[Si](C(C)(C)C)(C)C)CC1

>  <reagent2-name>
107332

>  <reagent2-smiles>
[R1*]C(=O)CC(NC(=O)C)c1ccc(Cl)cc1

$$$$
s_22____10268814____17513450
          04022015103D 1   1.00000     0.00000     0
            
 53 54  0  0  0  0            999 V2000
    0.4000    1.4877    0.0823 O   0  0  0  0  0  0  0  0  0  0  0  0
    1.0000    1.0000    1.0000 C   0  0  0  0  0  0  0  0  0  0  0  0
    2.4033    1.0000    1.0000 N   0  0  0  0  0  0  0  0  0  0  0  0
    3.2611    1.6436    0.0086 C   0  0  0  0  0  0  0  0  0  0  0  0
    4.3992    2.1859    0.8468 C   0  0  3  0  0  0  0  0  0  0  0  0
    5.6453    2.4246    0.0111 C   0  0  0  0  0  0  0  0  0  0  0  0
    5.3318    3.2910   -1.0694 O   0  0  0  0  0  0  0  0  0  0  0  0
    4.6117    1.0695    1.8560 C   0  0  0  0  0  0  0  0  0  0  0  0
    3.2689    0.3624    1.9882 C   0  0  0  0  0  0  0  0  0  0  0  0
    4.0097    3.4897    1.5264 C   0  0  0  0  0  0  0  0  0  0  0  0
    5.1604    3.9720    2.3946 C   0  0  0  0  0  0  0  0  0  0  0  0
    4.7712    5.2749    3.0738 C   0  0  0  0  0  0  0  0  0  0  0  0
    0.2400    0.3822    2.1624 C   0  0  3  0  0  0  0  0  0  0  0  0
   -1.1768    0.2357    1.7989 N   0  0  0  0  0  0  0  0  0  0  0  0
   -1.7569   -1.0054    1.7900 C   0  0  0  0  0  0  0  0  0  0  0  0
   -1.1084   -1.9729    2.0789 O   0  0  0  0  0  0  0  0  0  0  0  0
   -3.2219   -1.1569    1.4142 C   0  0  0  0  0  0  0  0  0  0  0  0
    0.3599    1.2821    3.3815 C   0  0  0  0  0  0  0  0  0  0  0  0
    0.1137    0.4658    4.6400 C   0  0  0  0  0  0  0  0  0  0  0  0
    1.1856   -0.1524    5.2753 C   0  0  0  0  0  0  0  0  0  0  0  0
    0.9653   -0.8996    6.4275 C   0  0  0  0  0  0  0  0  0  0  0  0
   -0.3264   -1.0188    6.9305 C   0  0  0  0  0  0  0  0  0  0  0  0
   -0.5448   -1.7434    8.0483 O   0  0  0  0  0  0  0  0  0  0  0  0
   -1.4020   -0.4029    6.2988 C   0  0  0  0  0  0  0  0  0  0  0  0
   -1.1758    0.3435    5.1472 C   0  0  0  0  0  0  0  0  0  0  0  0
    2.7768    2.3816   -0.4612 H   0  0  0  0  0  0  0  0  0  0  0  0
    3.5930    0.9818   -0.6637 H   0  0  0  0  0  0  0  0  0  0  0  0
    6.3530    2.8437    0.5799 H   0  0  0  0  0  0  0  0  0  0  0  0
    5.9787    1.5524   -0.3470 H   0  0  0  0  0  0  0  0  0  0  0  0
    6.1520    3.4481   -1.6195 H   0  0  0  0  0  0  0  0  0  0  0  0
    4.8939    1.4473    2.7379 H   0  0  0  0  0  0  0  0  0  0  0  0
    5.3092    0.4324    1.5278 H   0  0  0  0  0  0  0  0  0  0  0  0
    3.3654   -0.6135    1.7925 H   0  0  0  0  0  0  0  0  0  0  0  0
    2.8981    0.4826    2.9091 H   0  0  0  0  0  0  0  0  0  0  0  0
    3.2019    3.3401    2.0966 H   0  0  0  0  0  0  0  0  0  0  0  0
    3.8044    4.1793    0.8319 H   0  0  0  0  0  0  0  0  0  0  0  0
    5.9682    4.1216    1.8245 H   0  0  0  0  0  0  0  0  0  0  0  0
    5.3657    3.2824    3.0891 H   0  0  0  0  0  0  0  0  0  0  0  0
    5.5282    5.5922    3.6450 H   0  0  0  0  0  0  0  0  0  0  0  0
    4.5658    5.9645    2.3793 H   0  0  0  0  0  0  0  0  0  0  0  0
    3.9634    5.1253    3.6440 H   0  0  0  0  0  0  0  0  0  0  0  0
    0.6250   -0.5165    2.3723 H   0  0  0  0  0  0  0  0  0  0  0  0
   -1.7172    1.0419    1.5582 H   0  0  0  0  0  0  0  0  0  0  0  0
   -3.6068   -0.2582    1.2043 H   0  0  0  0  0  0  0  0  0  0  0  0
   -3.3007   -1.7489    0.6122 H   0  0  0  0  0  0  0  0  0  0  0  0
   -3.7219   -1.5633    2.1790 H   0  0  0  0  0  0  0  0  0  0  0  0
    1.2777    1.6776    3.4150 H   0  0  0  0  0  0  0  0  0  0  0  0
   -0.3172    2.0156    3.3223 H   0  0  0  0  0  0  0  0  0  0  0  0
    2.1101   -0.0600    4.9055 H   0  0  0  0  0  0  0  0  0  0  0  0
    1.7297   -1.3479    6.8909 H   0  0  0  0  0  0  0  0  0  0  0  0
   -1.4714   -1.8319    8.4136 H   0  0  0  0  0  0  0  0  0  0  0  0
   -2.3266   -0.4956    6.6682 H   0  0  0  0  0  0  0  0  0  0  0  0
   -1.9401    0.7922    4.6840 H   0  0  0  0  0  0  0  0  0  0  0  0
  1  2  2  0  0  0  0
  2  3  1  0  0  0  0
  3  4  1  0  0  0  0
  4  5  1  0  0  0  0
  5  6  1  0  0  0  0
  6  7  1  0  0  0  0
  5  8  1  0  0  0  0
  8  9  1  0  0  0  0
  9  3  1  0  0  0  0
  5 10  1  0  0  0  0
 10 11  1  0  0  0  0
 11 12  1  0  0  0  0
  2 13  1  0  0  0  0
 13 14  1  0  0  0  0
 14 15  1  0  0  0  0
 15 16  2  0  0  0  0
 15 17  1  0  0  0  0
 13 18  1  0  0  0  0
 18 19  1  0  0  0  0
 19 20  1  0  0  0  0
 20 21  2  0  0  0  0
 21 22  1  0  0  0  0
 22 23  1  0  0  0  0
 22 24  2  0  0  0  0
 24 25  1  0  0  0  0
 25 19  2  0  0  0  0
  4 26  1  0  0  0  0
  4 27  1  0  0  0  0
  6 28  1  0  0  0  0
  6 29  1  0  0  0  0
  7 30  1  0  0  0  0
  8 31  1  0  0  0  0
  8 32  1  0  0  0  0
  9 33  1  0  0  0  0
  9 34  1  0  0  0  0
 10 35  1  0  0  0  0
 10 36  1  0  0  0  0
 11 37  1  0  0  0  0
 11 38  1  0  0  0  0
 12 39  1  0  0  0  0
 12 40  1  0  0  0  0
 12 41  1  0  0  0  0
 13 42  1  0  0  0  0
 14 43  1  0  0  0  0
 17 44  1  0  0  0  0
 17 45  1  0  0  0  0
 17 46  1  0  0  0  0
 18 47  1  0  0  0  0
 18 48  1  0  0  0  0
 20 49  1  0  0  0  0
 21 50  1  0  0  0  0
 23 51  1  0  0  0  0
 24 52  1  0  0  0  0
 25 53  1  0  0  0  0
M  END
>  <result-rank>
56

>  <similarity>
0.943

>  <query-name>
LIG_A_1101_CC(C)CC[C@]1([R*])CCCOC1_2

>  <query-smiles>
O=C(N[C@@]1(COCCC1)CCC(C)C)[C@@H](NC(=O)C)Cc2ccc(O)cc2

>  <source>
REALspace_2019-12

>  <similarity-descriptor>
1.000;0.898;0.852;0.852;1.000;1.000;0.883;0.0;0.0;1.000;1.000;1.000;1.000;1.000;1.000;0.0

>  <similarity-descriptor-smiles>
c1ccccc1;N1CCC(C1)CO;O=C;O=C;C;C;C;;;C;N;C=O;C;C;O;

>  <reaction-name>
s_22

>  <reagent1-name>
10268814

>  <reagent1-smiles>
[R1*]N1CC(CO)(CC1)CCC

>  <reagent2-name>
17513450

>  <reagent2-smiles>
[R1*]C(=O)C(NC(=O)C)Cc1ccc(O)cc1

$$$$
s_22____17552132____17513450
          04022015103D 1   1.00000     0.00000     0
            
 51 52  0  0  0  0            999 V2000
    0.4000   -0.0392    1.0000 O   0  0  0  0  0  0  0  0  0  0  0  0
    1.0000    1.0000    1.0000 C   0  0  0  0  0  0  0  0  0  0  0  0
    2.3700    1.0000    1.0000 N   0  0  0  0  0  0  0  0  0  0  0  0
    3.1050   -0.2297    0.6705 C   0  0  0  0  0  0  0  0  0  0  0  0
    3.4932   -0.2095   -0.7979 C   0  0  3  0  0  0  0  0  0  0  0  0
    2.4223    0.3232   -1.5679 O   0  0  0  0  0  0  0  0  0  0  0  0
    2.7546    0.2614   -2.9471 C   0  0  0  0  0  0  0  0  0  0  0  0
    3.9248   -1.5722   -1.2963 C   0  0  0  0  0  0  0  0  0  0  0  0
    5.2427   -1.7563   -0.8093 O   0  0  0  0  0  0  0  0  0  0  0  0
    5.8394   -0.4892   -0.6125 C   0  0  0  0  0  0  0  0  0  0  0  0
    4.7922    0.5131   -1.0749 C   0  0  0  0  0  0  0  0  0  0  0  0
    3.1050    2.2297    1.3295 C   0  0  0  0  0  0  0  0  0  0  0  0
    0.2400    2.3164    1.0000 C   0  0  3  0  0  0  0  0  0  0  0  0
   -0.7765    2.2953    2.0617 N   0  0  0  0  0  0  0  0  0  0  0  0
   -0.7381    3.2269    3.0654 C   0  0  0  0  0  0  0  0  0  0  0  0
    0.1253    4.0602    3.0779 O   0  0  0  0  0  0  0  0  0  0  0  0
   -1.7892    3.2051    4.1632 C   0  0  0  0  0  0  0  0  0  0  0  0
   -0.4378    2.5101   -0.3466 C   0  0  0  0  0  0  0  0  0  0  0  0
   -0.7109    3.9889   -0.5684 C   0  0  0  0  0  0  0  0  0  0  0  0
    0.2494    4.7755   -1.1960 C   0  0  0  0  0  0  0  0  0  0  0  0
    0.0036    6.1289   -1.4017 C   0  0  0  0  0  0  0  0  0  0  0  0
   -1.2016    6.6790   -0.9768 C   0  0  0  0  0  0  0  0  0  0  0  0
   -1.4441    7.9921   -1.1741 O   0  0  0  0  0  0  0  0  0  0  0  0
   -2.1652    5.8968   -0.3483 C   0  0  0  0  0  0  0  0  0  0  0  0
   -1.9143    4.5439   -0.1455 C   0  0  0  0  0  0  0  0  0  0  0  0
    2.5243   -1.0236    0.8509 H   0  0  0  0  0  0  0  0  0  0  0  0
    3.9301   -0.2856    1.2327 H   0  0  0  0  0  0  0  0  0  0  0  0
    2.0018    0.6359   -3.4885 H   0  0  0  0  0  0  0  0  0  0  0  0
    3.5834    0.7954   -3.1145 H   0  0  0  0  0  0  0  0  0  0  0  0
    2.9127   -0.6905   -3.2096 H   0  0  0  0  0  0  0  0  0  0  0  0
    3.3183   -2.2826   -0.9393 H   0  0  0  0  0  0  0  0  0  0  0  0
    3.9154   -1.5973   -2.2960 H   0  0  0  0  0  0  0  0  0  0  0  0
    6.6729   -0.4043   -1.1585 H   0  0  0  0  0  0  0  0  0  0  0  0
    6.0579   -0.3495    0.3532 H   0  0  0  0  0  0  0  0  0  0  0  0
    4.8507    1.3629   -0.5511 H   0  0  0  0  0  0  0  0  0  0  0  0
    4.8917    0.7146   -2.0494 H   0  0  0  0  0  0  0  0  0  0  0  0
    4.0882    2.0532    1.2822 H   0  0  0  0  0  0  0  0  0  0  0  0
    2.8634    2.9475    0.6765 H   0  0  0  0  0  0  0  0  0  0  0  0
    2.8634    2.5249    2.2539 H   0  0  0  0  0  0  0  0  0  0  0  0
    0.8774    3.0693    1.1637 H   0  0  0  0  0  0  0  0  0  0  0  0
   -1.4960    1.6009    2.0513 H   0  0  0  0  0  0  0  0  0  0  0  0
   -2.4266    2.4522    3.9995 H   0  0  0  0  0  0  0  0  0  0  0  0
   -1.3433    3.0777    5.0491 H   0  0  0  0  0  0  0  0  0  0  0  0
   -2.2892    4.0712    4.1632 H   0  0  0  0  0  0  0  0  0  0  0  0
    0.1594    2.1689   -1.0726 H   0  0  0  0  0  0  0  0  0  0  0  0
   -1.3013    2.0059   -0.3608 H   0  0  0  0  0  0  0  0  0  0  0  0
    1.1122    4.3700   -1.4979 H   0  0  0  0  0  0  0  0  0  0  0  0
    0.6881    6.7024   -1.8518 H   0  0  0  0  0  0  0  0  0  0  0  0
   -2.3089    8.3920   -0.8704 H   0  0  0  0  0  0  0  0  0  0  0  0
   -3.0278    6.3024   -0.0459 H   0  0  0  0  0  0  0  0  0  0  0  0
   -2.5989    3.9703    0.3041 H   0  0  0  0  0  0  0  0  0  0  0  0
  1  2  2  0  0  0  0
  2  3  1  0  0  0  0
  3  4  1  0  0  0  0
  4  5  1  0  0  0  0
  5  6  1  0  0  0  0
  6  7  1  0  0  0  0
  5  8  1  0  0  0  0
  8  9  1  0  0  0  0
  9 10  1  0  0  0  0
 10 11  1  0  0  0  0
 11  5  1  0  0  0  0
  3 12  1  0  0  0  0
  2 13  1  0  0  0  0
 13 14  1  0  0  0  0
 14 15  1  0  0  0  0
 15 16  2  0  0  0  0
 15 17  1  0  0  0  0
 13 18  1  0  0  0  0
 18 19  1  0  0  0  0
 19 20  1  0  0  0  0
 20 21  2  0  0  0  0
 21 22  1  0  0  0  0
 22 23  1  0  0  0  0
 22 24  2  0  0  0  0
 24 25  1  0  0  0  0
 25 19  2  0  0  0  0
  4 26  1  0  0  0  0
  4 27  1  0  0  0  0
  7 28  1  0  0  0  0
  7 29  1  0  0  0  0
  7 30  1  0  0  0  0
  8 31  1  0  0  0  0
  8 32  1  0  0  0  0
 10 33  1  0  0  0  0
 10 34  1  0  0  0  0
 11 35  1  0  0  0  0
 11 36  1  0  0  0  0
 12 37  1  0  0  0  0
 12 38  1  0  0  0  0
 12 39  1  0  0  0  0
 13 40  1  0  0  0  0
 14 41  1  0  0  0  0
 17 42  1  0  0  0  0
 17 43  1  0  0  0  0
 17 44  1  0  0  0  0
 18 45  1  0  0  0  0
 18 46  1  0  0  0  0
 20 47  1  0  0  0  0
 21 48  1  0  0  0  0
 23 49  1  0  0  0  0
 24 50  1  0  0  0  0
 25 51  1  0  0  0  0
M  END
>  <result-rank>
57

>  <similarity>
0.943

>  <query-name>
LIG_A_1101_CC(C)CC[C@]1([R*])CCCOC1_2

>  <query-smiles>
O=C(N[C@@]1(COCCC1)CCC(C)C)[C@@H](NC(=O)C)Cc2ccc(O)cc2

>  <source>
REALspace_2019-12

>  <similarity-descriptor>
1.000;0.993;0.852;0.852;0.945;0.0;0.0;0.0;0.0;1.000;1.000;1.000;1.000;1.000;1.000;0.143

>  <similarity-descriptor-smiles>
c1ccccc1;NCC1CCOC1;O=C;O=C;C;;;;;C;N;C=O;C;C;O;O.C

>  <reaction-name>
s_22

>  <reagent1-name>
17552132

>  <reagent1-smiles>
[R1*]N(CC1(OC)COCC1)C

>  <reagent2-name>
17513450

>  <reagent2-smiles>
[R1*]C(=O)C(NC(=O)C)Cc1ccc(O)cc1

$$$$
s_22____13654870____16717358
          04022015103D 1   1.00000     0.00000     0
            
 58 60  0  0  0  0            999 V2000
    3.9272   -0.8352    0.7118 O   0  0  0  0  0  0  0  0  0  0  0  0
    2.9767   -0.2411    0.2835 C   0  0  0  0  0  0  0  0  0  0  0  0
    2.3481   -0.6814   -0.8514 N   0  0  0  0  0  0  0  0  0  0  0  0
    2.8381   -1.8817   -1.5444 C   0  0  0  0  0  0  0  0  0  0  0  0
    2.3318   -3.1219   -0.8283 C   0  0  3  0  0  0  0  0  0  0  0  0
    2.7841   -3.1609    0.5185 O   0  0  0  0  0  0  0  0  0  0  0  0
    1.7985   -3.8049    1.3101 C   0  0  0  0  0  0  0  0  0  0  0  0
    0.7175   -4.2623    0.3373 C   0  0  3  0  0  0  0  0  0  0  0  0
    0.8373   -3.0969   -0.6210 C   0  0  0  0  0  0  0  0  0  0  0  0
    1.0767   -5.6223   -0.2437 C   0  0  0  0  0  0  0  0  0  0  0  0
    2.5165   -5.6676   -0.7331 C   0  0  0  0  0  0  0  0  0  0  0  0
    2.8365   -4.3919   -1.5024 C   0  0  0  0  0  0  0  0  0  0  0  0
    2.4700    1.0000    1.0000 C   0  0  3  0  0  0  0  0  0  0  0  0
    1.0000    1.0000    1.0000 N   0  0  0  0  0  0  0  0  0  0  0  0
    0.3150    1.0000    2.1865 C   0  0  0  0  0  0  0  0  0  0  0  0
    0.9150    1.0000    3.2257 O   0  0  0  0  0  0  0  0  0  0  0  0
   -1.2050    1.0000    2.1865 C   0  0  0  0  0  0  0  0  0  0  0  0
   -1.6950    1.0000    3.5724 N   0  0  0  0  0  0  0  0  0  0  0  0
   -3.0419    1.0000    3.8227 C   0  0  0  0  0  0  0  0  0  0  0  0
   -3.8217    1.0000    2.9106 O   0  0  0  0  0  0  0  0  0  0  0  0
   -3.5486    1.0000    5.2558 C   0  0  0  0  0  0  0  0  0  0  0  0
    2.9767    2.2411    0.2835 C   0  0  0  0  0  0  0  0  0  0  0  0
    2.4700    3.4822    1.0000 C   0  0  0  0  0  0  0  0  0  0  0  0
    3.2306    4.0410    2.0218 C   0  0  0  0  0  0  0  0  0  0  0  0
    2.7714    5.1770    2.6798 C   0  0  0  0  0  0  0  0  0  0  0  0
    1.5555    5.7409    2.3064 C   0  0  0  0  0  0  0  0  0  0  0  0
    1.1058    6.8432    2.9425 O   0  0  0  0  0  0  0  0  0  0  0  0
    0.7907    5.1858    1.2854 C   0  0  0  0  0  0  0  0  0  0  0  0
    1.2550    4.0500    0.6306 C   0  0  0  0  0  0  0  0  0  0  0  0
    1.5560   -0.1864   -1.2083 H   0  0  0  0  0  0  0  0  0  0  0  0
    3.8381   -1.8817   -1.5444 H   0  0  0  0  0  0  0  0  0  0  0  0
    2.5048   -1.8817   -2.4872 H   0  0  0  0  0  0  0  0  0  0  0  0
    1.4174   -3.1665    1.9789 H   0  0  0  0  0  0  0  0  0  0  0  0
    2.1933   -4.5905    1.7864 H   0  0  0  0  0  0  0  0  0  0  0  0
   -0.1810   -4.2808    0.7757 H   0  0  0  0  0  0  0  0  0  0  0  0
    0.3371   -3.2571   -1.4720 H   0  0  0  0  0  0  0  0  0  0  0  0
    0.5293   -2.2390   -0.2098 H   0  0  0  0  0  0  0  0  0  0  0  0
    0.4675   -5.8165   -1.0126 H   0  0  0  0  0  0  0  0  0  0  0  0
    0.9534   -6.3187    0.4633 H   0  0  0  0  0  0  0  0  0  0  0  0
    3.1320   -5.7464    0.0510 H   0  0  0  0  0  0  0  0  0  0  0  0
    2.6389   -6.4578   -1.3337 H   0  0  0  0  0  0  0  0  0  0  0  0
    3.8294   -4.3236   -1.5997 H   0  0  0  0  0  0  0  0  0  0  0  0
    2.4165   -4.4563   -2.4076 H   0  0  0  0  0  0  0  0  0  0  0  0
    2.8033    1.0000    1.9428 H   0  0  0  0  0  0  0  0  0  0  0  0
    0.5000    1.0000    0.1340 H   0  0  0  0  0  0  0  0  0  0  0  0
   -1.5383    1.8165    1.7151 H   0  0  0  0  0  0  0  0  0  0  0  0
   -1.5383    0.1835    1.7151 H   0  0  0  0  0  0  0  0  0  0  0  0
   -1.0452    1.0000    4.3325 H   0  0  0  0  0  0  0  0  0  0  0  0
   -2.7708    1.0000    5.8843 H   0  0  0  0  0  0  0  0  0  0  0  0
   -4.1042    1.8165    5.4129 H   0  0  0  0  0  0  0  0  0  0  0  0
   -4.1042    0.1835    5.4129 H   0  0  0  0  0  0  0  0  0  0  0  0
    3.9767    2.2411    0.2835 H   0  0  0  0  0  0  0  0  0  0  0  0
    2.6433    2.2411   -0.6593 H   0  0  0  0  0  0  0  0  0  0  0  0
    4.1034    3.6279    2.2820 H   0  0  0  0  0  0  0  0  0  0  0  0
    3.3111    5.5856    3.4158 H   0  0  0  0  0  0  0  0  0  0  0  0
    0.2325    7.2521    2.6777 H   0  0  0  0  0  0  0  0  0  0  0  0
   -0.0823    5.5984    1.0255 H   0  0  0  0  0  0  0  0  0  0  0  0
    0.7154    3.6416   -0.1057 H   0  0  0  0  0  0  0  0  0  0  0  0
  1  2  2  0  0  0  0
  2  3  1  0  0  0  0
  3  4  1  0  0  0  0
  4  5  1  0  0  0  0
  5  6  1  0  0  0  0
  6  7  1  0  0  0  0
  7  8  1  0  0  0  0
  8  9  1  0  0  0  0
  9  5  1  0  0  0  0
  8 10  1  0  0  0  0
 10 11  1  0  0  0  0
 11 12  1  0  0  0  0
 12  5  1  0  0  0  0
  2 13  1  0  0  0  0
 13 14  1  0  0  0  0
 14 15  1  0  0  0  0
 15 16  2  0  0  0  0
 15 17  1  0  0  0  0
 17 18  1  0  0  0  0
 18 19  1  0  0  0  0
 19 20  2  0  0  0  0
 19 21  1  0  0  0  0
 13 22  1  0  0  0  0
 22 23  1  0  0  0  0
 23 24  1  0  0  0  0
 24 25  2  0  0  0  0
 25 26  1  0  0  0  0
 26 27  1  0  0  0  0
 26 28  2  0  0  0  0
 28 29  1  0  0  0  0
 29 23  2  0  0  0  0
  3 30  1  0  0  0  0
  4 31  1  0  0  0  0
  4 32  1  0  0  0  0
  7 33  1  0  0  0  0
  7 34  1  0  0  0  0
  8 35  1  0  0  0  0
  9 36  1  0  0  0  0
  9 37  1  0  0  0  0
 10 38  1  0  0  0  0
 10 39  1  0  0  0  0
 11 40  1  0  0  0  0
 11 41  1  0  0  0  0
 12 42  1  0  0  0  0
 12 43  1  0  0  0  0
 13 44  1  0  0  0  0
 14 45  1  0  0  0  0
 17 46  1  0  0  0  0
 17 47  1  0  0  0  0
 18 48  1  0  0  0  0
 21 49  1  0  0  0  0
 21 50  1  0  0  0  0
 21 51  1  0  0  0  0
 22 52  1  0  0  0  0
 22 53  1  0  0  0  0
 24 54  1  0  0  0  0
 25 55  1  0  0  0  0
 27 56  1  0  0  0  0
 28 57  1  0  0  0  0
 29 58  1  0  0  0  0
M  END
>  <result-rank>
58

>  <similarity>
0.943

>  <query-name>
LIG_A_1101_CC(C)CC[C@]1([R*])CCCOC1_2

>  <query-smiles>
O=C(N[C@@]1(COCCC1)CCC(C)C)[C@@H](NC(=O)C)Cc2ccc(O)cc2

>  <source>
REALspace_2019-12

>  <similarity-descriptor>
1.000;0.950;1.000;1.000;0.869;0.869;0.869;0.869;0.869;1.000;1.000;1.000;0.955;1.000;1.000;0.200

>  <similarity-descriptor-smiles>
c1ccccc1;CC1CCCO1;O=C;N;C1CCCCC1;C1CCCCC1;C1CCCCC1;C1CCCCC1;C1CCCCC1;C;N;C=O;C;C;O;N.C=O.C

>  <reaction-name>
s_22

>  <reagent1-name>
13654870

>  <reagent1-smiles>
[R1*]NCC12OCC(C1)CCC2

>  <reagent2-name>
16717358

>  <reagent2-smiles>
[R1*]C(=O)C(NC(=O)CNC(=O)C)Cc1ccc(O)cc1

$$$$
s_22____12059262____17057108
          04022015103D 1   1.00000     0.00000     0
            
 69 71  0  0  0  0            999 V2000
    2.2240    2.9588    1.4891 O   0  0  0  0  0  0  0  0  0  0  0  0
    1.8776    1.8776    1.8776 C   0  0  0  0  0  0  0  0  0  0  0  0
    2.2731    1.4341    3.1120 N   0  0  0  0  0  0  0  0  0  0  0  0
    3.1207    2.2818    3.9597 C   0  0  3  0  0  0  0  0  0  0  0  0
    2.5382    2.6634    5.3054 C   0  0  0  0  0  0  0  0  0  0  0  0
    3.9424    2.4696    5.8434 C   0  0  3  0  0  0  0  0  0  0  0  0
    3.9630    1.8661    7.1309 O   0  0  0  0  0  0  0  0  0  0  0  0
    4.5947    2.7410    8.0538 C   0  0  0  0  0  0  0  0  0  0  0  0
    3.8244    4.0497    8.1200 C   0  0  0  0  0  0  0  0  0  0  0  0
    4.6167    2.0959    9.4299 C   0  0  0  0  0  0  0  0  0  0  0  0
    6.0193    3.0141    7.5994 C   0  0  0  0  0  0  0  0  0  0  0  0
    4.1275    1.4698    4.7342 C   0  0  0  0  0  0  0  0  0  0  0  0
    1.2640    1.9353    5.6993 C   0  0  0  0  0  0  0  0  0  0  0  0
    0.7559    3.2044    6.3438 C   0  0  0  0  0  0  0  0  0  0  0  0
    1.6357    3.8839    5.3178 C   0  0  0  0  0  0  0  0  0  0  0  0
    1.0000    1.0000    1.0000 C   0  0  3  0  0  0  0  0  0  0  0  0
    0.7171    1.6971   -0.2629 N   0  0  0  0  0  0  0  0  0  0  0  0
    1.1013    1.1397   -1.4540 C   0  0  0  0  0  0  0  0  0  0  0  0
    1.5876    0.0429   -1.4739 O   0  0  0  0  0  0  0  0  0  0  0  0
    0.9116    1.9107   -2.7501 C   0  0  0  0  0  0  0  0  0  0  0  0
    2.0609    1.6024   -3.6959 C   0  0  0  0  0  0  0  0  0  0  0  0
    1.5767    1.7073   -5.1328 C   0  0  0  0  0  0  0  0  0  0  0  0
    3.1866    2.5977   -3.4666 C   0  0  0  0  0  0  0  0  0  0  0  0
   -0.3059    0.7075    1.7208 C   0  0  0  0  0  0  0  0  0  0  0  0
   -1.1835   -0.1701    0.8432 C   0  0  0  0  0  0  0  0  0  0  0  0
   -1.0842   -1.5540    0.9425 C   0  0  0  0  0  0  0  0  0  0  0  0
   -1.8857   -2.3610    0.1420 C   0  0  0  0  0  0  0  0  0  0  0  0
   -2.7781   -1.7726   -0.7486 C   0  0  0  0  0  0  0  0  0  0  0  0
   -3.5577   -2.5520   -1.5276 O   0  0  0  0  0  0  0  0  0  0  0  0
   -2.8811   -0.3891   -0.8520 C   0  0  0  0  0  0  0  0  0  0  0  0
   -2.0774    0.4131   -0.0489 C   0  0  0  0  0  0  0  0  0  0  0  0
    1.9844    0.5331    3.4357 H   0  0  0  0  0  0  0  0  0  0  0  0
    3.5261    3.0535    3.4697 H   0  0  0  0  0  0  0  0  0  0  0  0
    4.5245    3.2789    5.7636 H   0  0  0  0  0  0  0  0  0  0  0  0
    4.2692    4.6658    8.7699 H   0  0  0  0  0  0  0  0  0  0  0  0
    3.8099    4.4741    7.2146 H   0  0  0  0  0  0  0  0  0  0  0  0
    2.8872    3.8701    8.4189 H   0  0  0  0  0  0  0  0  0  0  0  0
    5.0615    2.7120   10.0799 H   0  0  0  0  0  0  0  0  0  0  0  0
    3.6794    1.9162    9.7288 H   0  0  0  0  0  0  0  0  0  0  0  0
    5.1235    1.2349    9.3864 H   0  0  0  0  0  0  0  0  0  0  0  0
    6.4641    3.6302    8.2494 H   0  0  0  0  0  0  0  0  0  0  0  0
    6.5261    2.1531    7.5559 H   0  0  0  0  0  0  0  0  0  0  0  0
    6.0048    3.4385    6.6941 H   0  0  0  0  0  0  0  0  0  0  0  0
    3.8368    0.5387    4.9544 H   0  0  0  0  0  0  0  0  0  0  0  0
    5.0449    1.4475    4.3368 H   0  0  0  0  0  0  0  0  0  0  0  0
    1.4045    1.1787    6.3379 H   0  0  0  0  0  0  0  0  0  0  0  0
    0.7154    1.6203    4.9248 H   0  0  0  0  0  0  0  0  0  0  0  0
    1.0248    3.3395    7.2974 H   0  0  0  0  0  0  0  0  0  0  0  0
   -0.2252    3.3723    6.2472 H   0  0  0  0  0  0  0  0  0  0  0  0
    1.1822    4.0677    4.4457 H   0  0  0  0  0  0  0  0  0  0  0  0
    2.0787    4.7184    5.6455 H   0  0  0  0  0  0  0  0  0  0  0  0
    1.4742    0.1409    0.8075 H   0  0  0  0  0  0  0  0  0  0  0  0
    0.2442    2.5782   -0.2526 H   0  0  0  0  0  0  0  0  0  0  0  0
    0.8943    2.8914   -2.5552 H   0  0  0  0  0  0  0  0  0  0  0  0
    0.0481    1.6401   -3.1756 H   0  0  0  0  0  0  0  0  0  0  0  0
    2.3951    0.6758   -3.5235 H   0  0  0  0  0  0  0  0  0  0  0  0
    2.3328    1.5044   -5.7550 H   0  0  0  0  0  0  0  0  0  0  0  0
    0.8361    1.0525   -5.2836 H   0  0  0  0  0  0  0  0  0  0  0  0
    1.2426    2.6339   -5.3052 H   0  0  0  0  0  0  0  0  0  0  0  0
    3.9428    2.3949   -4.0888 H   0  0  0  0  0  0  0  0  0  0  0  0
    2.8525    3.5243   -3.6390 H   0  0  0  0  0  0  0  0  0  0  0  0
    3.5052    2.5287   -2.5212 H   0  0  0  0  0  0  0  0  0  0  0  0
   -0.1134    0.2333    2.5799 H   0  0  0  0  0  0  0  0  0  0  0  0
   -0.7801    1.5666    1.9133 H   0  0  0  0  0  0  0  0  0  0  0  0
   -0.4397   -1.9667    1.5862 H   0  0  0  0  0  0  0  0  0  0  0  0
   -1.8211   -3.3569    0.2061 H   0  0  0  0  0  0  0  0  0  0  0  0
   -4.2005   -2.1337   -2.1692 H   0  0  0  0  0  0  0  0  0  0  0  0
   -3.5251    0.0237   -1.4961 H   0  0  0  0  0  0  0  0  0  0  0  0
   -2.1423    1.4089   -0.1127 H   0  0  0  0  0  0  0  0  0  0  0  0
  1  2  2  0  0  0  0
  2  3  1  0  0  0  0
  3  4  1  0  0  0  0
  4  5  1  0  0  0  0
  5  6  1  0  0  0  0
  6  7  1  0  0  0  0
  7  8  1  0  0  0  0
  8  9  1  0  0  0  0
  8 10  1  0  0  0  0
  8 11  1  0  0  0  0
  6 12  1  0  0  0  0
 12  4  1  0  0  0  0
  5 13  1  0  0  0  0
 13 14  1  0  0  0  0
 14 15  1  0  0  0  0
 15  5  1  0  0  0  0
  2 16  1  0  0  0  0
 16 17  1  0  0  0  0
 17 18  1  0  0  0  0
 18 19  2  0  0  0  0
 18 20  1  0  0  0  0
 20 21  1  0  0  0  0
 21 22  1  0  0  0  0
 21 23  1  0  0  0  0
 16 24  1  0  0  0  0
 24 25  1  0  0  0  0
 25 26  1  0  0  0  0
 26 27  2  0  0  0  0
 27 28  1  0  0  0  0
 28 29  1  0  0  0  0
 28 30  2  0  0  0  0
 30 31  1  0  0  0  0
 31 25  2  0  0  0  0
  3 32  1  0  0  0  0
  4 33  1  0  0  0  0
  6 34  1  0  0  0  0
  9 35  1  0  0  0  0
  9 36  1  0  0  0  0
  9 37  1  0  0  0  0
 10 38  1  0  0  0  0
 10 39  1  0  0  0  0
 10 40  1  0  0  0  0
 11 41  1  0  0  0  0
 11 42  1  0  0  0  0
 11 43  1  0  0  0  0
 12 44  1  0  0  0  0
 12 45  1  0  0  0  0
 13 46  1  0  0  0  0
 13 47  1  0  0  0  0
 14 48  1  0  0  0  0
 14 49  1  0  0  0  0
 15 50  1  0  0  0  0
 15 51  1  0  0  0  0
 16 52  1  0  0  0  0
 17 53  1  0  0  0  0
 20 54  1  0  0  0  0
 20 55  1  0  0  0  0
 21 56  1  0  0  0  0
 22 57  1  0  0  0  0
 22 58  1  0  0  0  0
 22 59  1  0  0  0  0
 23 60  1  0  0  0  0
 23 61  1  0  0  0  0
 23 62  1  0  0  0  0
 24 63  1  0  0  0  0
 24 64  1  0  0  0  0
 26 65  1  0  0  0  0
 27 66  1  0  0  0  0
 29 67  1  0  0  0  0
 30 68  1  0  0  0  0
 31 69  1  0  0  0  0
M  END
>  <result-rank>
59

>  <similarity>
0.942

>  <query-name>
LIG_A_1101_CC(C)CC[C@]1([R*])CCCOC1_2

>  <query-smiles>
O=C(N[C@@]1(COCCC1)CCC(C)C)[C@@H](NC(=O)C)Cc2ccc(O)cc2

>  <source>
REALspace_2019-12

>  <similarity-descriptor>
1.000;0.992;1.000;1.000;0.882;0.882;0.882;0.0;0.0;1.000;1.000;1.000;0.949;1.000;1.000;0.263

>  <similarity-descriptor-smiles>
c1ccccc1;C1CC(C1)OCC;O=C;N;C1CCC1;C1CCC1;C1CCC1;;;C;N;C=O;C;C;O;C.C.C.C.C

>  <reaction-name>
s_22

>  <reagent1-name>
12059262

>  <reagent1-smiles>
[R1*]NC1C2(C(OC(C)(C)C)C1)CCC2

>  <reagent2-name>
17057108

>  <reagent2-smiles>
[R1*]C(=O)C(NC(=O)CC(C)C)Cc1ccc(O)cc1

$$$$
s_22____1179570____12624298
          04022015103D 1   1.00000     0.00000     0
            
 55 56  0  0  0  0            999 V2000
    9.4211    4.0856   -0.5004 Br  0  0  0  0  0  0  0  0  0  0  0  0
    7.7767    4.8936    0.1955 C   0  0  0  0  0  0  0  0  0  0  0  0
    7.3932    4.6498    1.5097 C   0  0  0  0  0  0  0  0  0  0  0  0
    6.2227    5.2301    1.9885 C   0  0  0  0  0  0  0  0  0  0  0  0
    5.4411    6.0427    1.1743 C   0  0  0  0  0  0  0  0  0  0  0  0
    5.8429    6.2729   -0.1374 C   0  0  0  0  0  0  0  0  0  0  0  0
    7.0095    5.7026   -0.6359 C   0  0  0  0  0  0  0  0  0  0  0  0
    5.7999    4.9664    3.4248 C   0  0  3  0  0  0  0  0  0  0  0  0
    6.8192    5.4977    4.3411 N   0  0  0  0  0  0  0  0  0  0  0  0
    6.4838    6.4632    5.2533 C   0  0  0  0  0  0  0  0  0  0  0  0
    5.3579    6.8751    5.3044 O   0  0  0  0  0  0  0  0  0  0  0  0
    7.5379    7.0126    6.2007 C   0  0  0  0  0  0  0  0  0  0  0  0
    5.6534    3.4693    3.6431 C   0  0  0  0  0  0  0  0  0  0  0  0
    6.5664    2.8370    4.0978 O   0  0  0  0  0  0  0  0  0  0  0  0
    4.4532    2.8279    3.3136 N   0  0  0  0  0  0  0  0  0  0  0  0
    4.2471    1.4028    3.6155 C   0  0  0  0  0  0  0  0  0  0  0  0
    2.7641    1.1174    3.7856 C   0  0  0  0  0  0  0  0  0  0  0  0
    2.0886    1.5425    2.5516 N   0  0  0  0  0  0  0  0  0  0  0  0
    0.9334    0.8718    2.1338 C   0  0  0  0  0  0  0  0  0  0  0  0
    0.5026   -0.0419    2.7815 O   0  0  0  0  0  0  0  0  0  0  0  0
    0.2244    1.3008    0.8595 C   0  0  0  0  0  0  0  0  0  0  0  0
    0.1946    0.1386   -0.1196 C   0  0  0  0  0  0  0  0  0  0  0  0
   -0.5143    0.5676   -1.3939 C   0  0  0  0  0  0  0  0  0  0  0  0
   -0.5442   -0.5947   -2.3730 C   0  0  0  0  0  0  0  0  0  0  0  0
   -1.9370    0.9894   -1.0647 C   0  0  0  0  0  0  0  0  0  0  0  0
    2.6379    2.6434    1.7464 C   0  0  0  0  0  0  0  0  0  0  0  0
    3.4060    3.6060    2.6381 C   0  0  0  0  0  0  0  0  0  0  0  0
    7.9498    4.0666    2.1013 H   0  0  0  0  0  0  0  0  0  0  0  0
    4.6016    6.4560    1.5270 H   0  0  0  0  0  0  0  0  0  0  0  0
    5.2861    6.8557   -0.7293 H   0  0  0  0  0  0  0  0  0  0  0  0
    7.2929    5.8721   -1.5798 H   0  0  0  0  0  0  0  0  0  0  0  0
    4.9248    5.4164    3.6027 H   0  0  0  0  0  0  0  0  0  0  0  0
    7.7575    5.1544    4.2985 H   0  0  0  0  0  0  0  0  0  0  0  0
    8.4130    6.5626    6.0229 H   0  0  0  0  0  0  0  0  0  0  0  0
    7.6342    7.9975    6.0572 H   0  0  0  0  0  0  0  0  0  0  0  0
    7.2598    6.8391    7.1455 H   0  0  0  0  0  0  0  0  0  0  0  0
    4.7283    1.1703    4.4607 H   0  0  0  0  0  0  0  0  0  0  0  0
    4.6069    0.8497    2.8641 H   0  0  0  0  0  0  0  0  0  0  0  0
    2.6195    0.1391    3.9345 H   0  0  0  0  0  0  0  0  0  0  0  0
    2.4049    1.6299    4.5655 H   0  0  0  0  0  0  0  0  0  0  0  0
    0.7137    2.0702    0.4487 H   0  0  0  0  0  0  0  0  0  0  0  0
   -0.7116    1.5784    1.0760 H   0  0  0  0  0  0  0  0  0  0  0  0
    1.1306   -0.1390   -0.3361 H   0  0  0  0  0  0  0  0  0  0  0  0
   -0.2946   -0.6308    0.2911 H   0  0  0  0  0  0  0  0  0  0  0  0
   -0.0251    1.3370   -1.8046 H   0  0  0  0  0  0  0  0  0  0  0  0
   -1.0105   -0.3124   -3.2113 H   0  0  0  0  0  0  0  0  0  0  0  0
    0.3918   -0.8722   -2.5895 H   0  0  0  0  0  0  0  0  0  0  0  0
   -1.0334   -1.3641   -1.9622 H   0  0  0  0  0  0  0  0  0  0  0  0
   -2.4034    1.2717   -1.9031 H   0  0  0  0  0  0  0  0  0  0  0  0
   -2.4263    0.2201   -0.6540 H   0  0  0  0  0  0  0  0  0  0  0  0
   -1.9174    1.7541   -0.4206 H   0  0  0  0  0  0  0  0  0  0  0  0
    1.8890    3.1323    1.2990 H   0  0  0  0  0  0  0  0  0  0  0  0
    3.2543    2.2709    1.0526 H   0  0  0  0  0  0  0  0  0  0  0  0
    3.8191    4.3298    2.0855 H   0  0  0  0  0  0  0  0  0  0  0  0
    2.7910    4.0123    3.3138 H   0  0  0  0  0  0  0  0  0  0  0  0
  1  2  1  0  0  0  0
  2  3  1  0  0  0  0
  3  4  2  0  0  0  0
  4  5  1  0  0  0  0
  5  6  2  0  0  0  0
  6  7  1  0  0  0  0
  7  2  2  0  0  0  0
  4  8  1  0  0  0  0
  8  9  1  0  0  0  0
  9 10  1  0  0  0  0
 10 11  2  0  0  0  0
 10 12  1  0  0  0  0
  8 13  1  0  0  0  0
 13 14  2  0  0  0  0
 13 15  1  0  0  0  0
 15 16  1  0  0  0  0
 16 17  1  0  0  0  0
 17 18  1  0  0  0  0
 18 19  1  0  0  0  0
 19 20  2  0  0  0  0
 19 21  1  0  0  0  0
 21 22  1  0  0  0  0
 22 23  1  0  0  0  0
 23 24  1  0  0  0  0
 23 25  1  0  0  0  0
 18 26  1  0  0  0  0
 26 27  1  0  0  0  0
 27 15  1  0  0  0  0
  3 28  1  0  0  0  0
  5 29  1  0  0  0  0
  6 30  1  0  0  0  0
  7 31  1  0  0  0  0
  8 32  1  0  0  0  0
  9 33  1  0  0  0  0
 12 34  1  0  0  0  0
 12 35  1  0  0  0  0
 12 36  1  0  0  0  0
 16 37  1  0  0  0  0
 16 38  1  0  0  0  0
 17 39  1  0  0  0  0
 17 40  1  0  0  0  0
 21 41  1  0  0  0  0
 21 42  1  0  0  0  0
 22 43  1  0  0  0  0
 22 44  1  0  0  0  0
 23 45  1  0  0  0  0
 24 46  1  0  0  0  0
 24 47  1  0  0  0  0
 24 48  1  0  0  0  0
 25 49  1  0  0  0  0
 25 50  1  0  0  0  0
 25 51  1  0  0  0  0
 26 52  1  0  0  0  0
 26 53  1  0  0  0  0
 27 54  1  0  0  0  0
 27 55  1  0  0  0  0
M  END
>  <result-rank>
60

>  <similarity>
0.942

>  <query-name>
LIG_A_1101_CC(C)CC[C@]1([R*])CCCOC1_2

>  <query-smiles>
O=C(N[C@@]1(COCCC1)CCC(C)C)[C@@H](NC(=O)C)Cc2ccc(O)cc2

>  <source>
REALspace_2019-12

>  <similarity-descriptor>
0.969;0.886;0.852;0.852;1.000;1.000;1.000;1.000;1.000;1.000;1.000;1.000;1.000;0.969;0.0;0.0

>  <similarity-descriptor-smiles>
Brc1ccccc1;N1CCN(CC1)C=O;C=O;C=O;CC;CC;C;C;C;C;N;C=O;C;Brc1ccccc1;;

>  <reaction-name>
s_22

>  <reagent1-name>
1179570

>  <reagent1-smiles>
[R1*]N1CCN(C(=O)CCC(C)C)CC1

>  <reagent2-name>
12624298

>  <reagent2-smiles>
[R1*]C(=O)C(NC(=O)C)c1cc(Br)ccc1

$$$$
s_2708____13426432____13973982
          04022015103D 1   1.00000     0.00000     0
            
 52 54  0  0  0  0            999 V2000
   -3.6696    0.2225   -1.8054 F   0  0  0  0  0  0  0  0  0  0  0  0
   -2.3452    0.1363   -1.8908 C   0  0  0  0  0  0  0  0  0  0  0  0
   -1.7743   -0.7603   -2.7881 C   0  0  0  0  0  0  0  0  0  0  0  0
   -0.3881   -0.8415   -2.8687 C   0  0  0  0  0  0  0  0  0  0  0  0
    0.1739   -1.7088   -3.7371 O   0  0  0  0  0  0  0  0  0  0  0  0
    0.4266   -0.0446   -2.0715 C   0  0  0  0  0  0  0  0  0  0  0  0
   -0.1699    0.8435   -1.1832 C   0  0  0  0  0  0  0  0  0  0  0  0
   -1.5531    0.9444   -1.0822 C   0  0  0  0  0  0  0  0  0  0  0  0
    0.7075    1.7208   -0.3059 C   0  0  0  0  0  0  0  0  0  0  0  0
    1.0000    1.0000    1.0000 C   0  0  0  0  0  0  0  0  0  0  0  0
    1.8487    1.8487    1.8487 N   0  0  0  0  0  0  0  0  0  0  0  0
    1.2902    2.8669    2.5755 C   0  0  0  0  0  0  0  0  0  0  0  0
    0.1081    3.0659    2.5193 O   0  0  0  0  0  0  0  0  0  0  0  0
    2.0811    3.6579    3.3665 N   0  0  0  0  0  0  0  0  0  0  0  0
    1.4816    4.7508    4.1467 C   0  0  3  0  0  0  0  0  0  0  0  0
    2.0442    6.1161    3.7822 C   0  0  0  0  0  0  0  0  0  0  0  0
    1.3235    7.1107    4.6827 C   0  0  0  0  0  0  0  0  0  0  0  0
    1.5707    6.8661    6.0608 O   0  0  0  0  0  0  0  0  0  0  0  0
    1.0859    5.5863    6.4489 C   0  0  0  0  0  0  0  0  0  0  0  0
    1.6818    4.4550    5.6247 C   0  0  0  0  0  0  0  0  0  0  0  0
    3.5545    6.1478    3.9763 C   0  0  0  0  0  0  0  0  0  0  0  0
    4.1602    7.4977    3.6269 C   0  0  0  0  0  0  0  0  0  0  0  0
    3.8505    7.7988    2.1683 C   0  0  0  0  0  0  0  0  0  0  0  0
    2.3565    7.7550    1.8810 C   0  0  0  0  0  0  0  0  0  0  0  0
    1.7645    6.4231    2.3167 C   0  0  0  0  0  0  0  0  0  0  0  0
   -2.3514   -1.3374   -3.3661 H   0  0  0  0  0  0  0  0  0  0  0  0
    1.1695   -1.7755   -3.8034 H   0  0  0  0  0  0  0  0  0  0  0  0
    1.4224   -0.1091   -2.1358 H   0  0  0  0  0  0  0  0  0  0  0  0
   -1.9709    1.5867   -0.4396 H   0  0  0  0  0  0  0  0  0  0  0  0
    0.2333    2.5799   -0.1134 H   0  0  0  0  0  0  0  0  0  0  0  0
    1.5666    1.9133   -0.7801 H   0  0  0  0  0  0  0  0  0  0  0  0
    0.1409    0.8075    1.4742 H   0  0  0  0  0  0  0  0  0  0  0  0
    1.4742    0.1409    0.8075 H   0  0  0  0  0  0  0  0  0  0  0  0
    2.8337    1.6829    1.8955 H   0  0  0  0  0  0  0  0  0  0  0  0
    3.0662    3.4920    3.4133 H   0  0  0  0  0  0  0  0  0  0  0  0
    0.4987    4.7609    3.9625 H   0  0  0  0  0  0  0  0  0  0  0  0
    1.6368    8.0335    4.4584 H   0  0  0  0  0  0  0  0  0  0  0  0
    0.3400    7.0426    4.5150 H   0  0  0  0  0  0  0  0  0  0  0  0
    0.0923    5.5737    6.3373 H   0  0  0  0  0  0  0  0  0  0  0  0
    1.3153    5.4360    7.4106 H   0  0  0  0  0  0  0  0  0  0  0  0
    2.6594    4.3781    5.8205 H   0  0  0  0  0  0  0  0  0  0  0  0
    1.2265    3.5959    5.8581 H   0  0  0  0  0  0  0  0  0  0  0  0
    3.9674    5.4502    3.3908 H   0  0  0  0  0  0  0  0  0  0  0  0
    3.7588    5.9431    4.9336 H   0  0  0  0  0  0  0  0  0  0  0  0
    5.1505    7.4691    3.7632 H   0  0  0  0  0  0  0  0  0  0  0  0
    3.7639    8.2069    4.2099 H   0  0  0  0  0  0  0  0  0  0  0  0
    4.3095    7.1207    1.5942 H   0  0  0  0  0  0  0  0  0  0  0  0
    4.1952    8.7110    1.9469 H   0  0  0  0  0  0  0  0  0  0  0  0
    1.9043    8.4943    2.3801 H   0  0  0  0  0  0  0  0  0  0  0  0
    2.2071    7.8753    0.8996 H   0  0  0  0  0  0  0  0  0  0  0  0
    0.7746    6.4505    2.1774 H   0  0  0  0  0  0  0  0  0  0  0  0
    2.1602    5.6965    1.7551 H   0  0  0  0  0  0  0  0  0  0  0  0
  1  2  1  0  0  0  0
  2  3  1  0  0  0  0
  3  4  2  0  0  0  0
  4  5  1  0  0  0  0
  4  6  1  0  0  0  0
  6  7  2  0  0  0  0
  7  8  1  0  0  0  0
  8  2  2  0  0  0  0
  7  9  1  0  0  0  0
  9 10  1  0  0  0  0
 10 11  1  0  0  0  0
 11 12  1  0  0  0  0
 12 13  2  0  0  0  0
 12 14  1  0  0  0  0
 14 15  1  0  0  0  0
 15 16  1  0  0  0  0
 16 17  1  0  0  0  0
 17 18  1  0  0  0  0
 18 19  1  0  0  0  0
 19 20  1  0  0  0  0
 20 15  1  0  0  0  0
 16 21  1  0  0  0  0
 21 22  1  0  0  0  0
 22 23  1  0  0  0  0
 23 24  1  0  0  0  0
 24 25  1  0  0  0  0
 25 16  1  0  0  0  0
  3 26  1  0  0  0  0
  5 27  1  0  0  0  0
  6 28  1  0  0  0  0
  8 29  1  0  0  0  0
  9 30  1  0  0  0  0
  9 31  1  0  0  0  0
 10 32  1  0  0  0  0
 10 33  1  0  0  0  0
 11 34  1  0  0  0  0
 14 35  1  0  0  0  0
 15 36  1  0  0  0  0
 17 37  1  0  0  0  0
 17 38  1  0  0  0  0
 19 39  1  0  0  0  0
 19 40  1  0  0  0  0
 20 41  1  0  0  0  0
 20 42  1  0  0  0  0
 21 43  1  0  0  0  0
 21 44  1  0  0  0  0
 22 45  1  0  0  0  0
 22 46  1  0  0  0  0
 23 47  1  0  0  0  0
 23 48  1  0  0  0  0
 24 49  1  0  0  0  0
 24 50  1  0  0  0  0
 25 51  1  0  0  0  0
 25 52  1  0  0  0  0
M  END
>  <result-rank>
61

>  <similarity>
0.942

>  <query-name>
LIG_A_1101_CC(C)CC[C@]1([R*])CCCOC1_2

>  <query-smiles>
O=C(N[C@@]1(COCCC1)CCC(C)C)[C@@H](NC(=O)C)Cc2ccc(O)cc2

>  <source>
REALspace_2019-12

>  <similarity-descriptor>
0.965;0.983;0.995;1.000;0.894;0.894;0.894;0.894;0.894;0.952;0.952;0.0;0.0;1.000;1.000;0.0

>  <similarity-descriptor-smiles>
Fc1ccccc1;C1CCOCC1;C=O;N;C1CCCCC1;C1CCCCC1;C1CCCCC1;C1CCCCC1;C1CCCCC1;CN;CN;;;C;O;

>  <reaction-name>
s_2708

>  <reagent1-name>
13426432

>  <reagent1-smiles>
[R1*]C(=O)NCCc1cc(F)cc(O)c1

>  <reagent2-name>
13973982

>  <reagent2-smiles>
[R1*]NC1C2(COCC1)CCCCC2

$$$$
s_527a____8333304____15715224
          04022015103D 1   1.00000     0.00000     0
            
 65 66  0  0  0  0            999 V2000
    4.0875    3.1805    0.5999 O   0  0  0  0  0  0  0  0  0  0  0  0
    3.7976    2.9660    1.7445 C   0  0  0  0  0  0  0  0  0  0  0  0
    4.2343    3.7599    2.6906 O   0  0  0  0  0  0  0  0  0  0  0  0
    5.0507    4.8743    2.3618 C   0  0  0  0  0  0  0  0  0  0  0  0
    6.3173    4.3895    1.6756 C   0  0  0  0  0  0  0  0  0  0  0  0
    4.2907    5.8008    1.4267 C   0  0  0  0  0  0  0  0  0  0  0  0
    5.4179    5.6254    3.6312 C   0  0  0  0  0  0  0  0  0  0  0  0
    3.0100    1.8909    2.0617 N   0  0  0  0  0  0  0  0  0  0  0  0
    2.5200    1.0000    1.0000 C   0  0  3  0  0  0  0  0  0  0  0  0
    1.0000    1.0000    1.0000 C   0  0  0  0  0  0  0  0  0  0  0  0
    0.4000    1.0000   -0.0392 O   0  0  0  0  0  0  0  0  0  0  0  0
    0.3150    1.0000    2.1865 N   0  0  0  0  0  0  0  0  0  0  0  0
   -1.1580    1.0000    2.1865 C   0  0  3  0  0  0  0  0  0  0  0  0
   -1.6824   -0.2360    2.9001 C   0  0  0  0  0  0  0  0  0  0  0  0
   -3.2019   -0.1842    2.9253 C   0  0  3  0  0  0  0  0  0  0  0  0
   -3.6687    0.9882    3.5821 O   0  0  0  0  0  0  0  0  0  0  0  0
   -3.2193    2.1772    2.9479 C   0  0  0  0  0  0  0  0  0  0  0  0
   -1.6999    2.2211    2.9124 C   0  0  0  0  0  0  0  0  0  0  0  0
   -3.6928   -1.4486    3.6125 C   0  0  0  0  0  0  0  0  0  0  0  0
   -5.2126   -1.4709    3.6068 C   0  0  0  0  0  0  0  0  0  0  0  0
   -5.7143   -1.4465    2.1722 C   0  0  0  0  0  0  0  0  0  0  0  0
   -5.7034   -2.7349    4.2937 C   0  0  0  0  0  0  0  0  0  0  0  0
    3.0267   -0.4113    1.2488 C   0  0  0  0  0  0  0  0  0  0  0  0
    4.5465   -0.4113    1.2488 C   0  0  0  0  0  0  0  0  0  0  0  0
    5.2263   -0.6179    0.0772 C   0  0  0  0  0  0  0  0  0  0  0  0
    6.6459   -0.6122    0.1122 C   0  0  0  0  0  0  0  0  0  0  0  0
    7.2540   -0.7950   -0.9300 O   0  0  0  0  0  0  0  0  0  0  0  0
    7.3008   -0.4036    1.2982 N   0  0  0  0  0  0  0  0  0  0  0  0
    6.6090   -0.1977    2.4637 C   0  0  0  0  0  0  0  0  0  0  0  0
    5.2380   -0.1955    2.4707 C   0  0  0  0  0  0  0  0  0  0  0  0
    6.8923    5.1742    1.4440 H   0  0  0  0  0  0  0  0  0  0  0  0
    6.8173    3.7799    2.2908 H   0  0  0  0  0  0  0  0  0  0  0  0
    6.0758    3.8953    0.8404 H   0  0  0  0  0  0  0  0  0  0  0  0
    4.8656    6.5855    1.1952 H   0  0  0  0  0  0  0  0  0  0  0  0
    4.0491    5.3066    0.5916 H   0  0  0  0  0  0  0  0  0  0  0  0
    3.4573    6.1197    1.8782 H   0  0  0  0  0  0  0  0  0  0  0  0
    5.9928    6.4102    3.3996 H   0  0  0  0  0  0  0  0  0  0  0  0
    4.5846    5.9443    4.0827 H   0  0  0  0  0  0  0  0  0  0  0  0
    5.9179    5.0159    4.2464 H   0  0  0  0  0  0  0  0  0  0  0  0
    2.7684    1.7121    3.0155 H   0  0  0  0  0  0  0  0  0  0  0  0
    2.8533    1.3225    0.1140 H   0  0  0  0  0  0  0  0  0  0  0  0
    0.8150    1.0000    3.0525 H   0  0  0  0  0  0  0  0  0  0  0  0
   -1.4888    1.0024    1.2427 H   0  0  0  0  0  0  0  0  0  0  0  0
   -1.3828   -1.0567    2.4136 H   0  0  0  0  0  0  0  0  0  0  0  0
   -1.3319   -0.2569    3.8364 H   0  0  0  0  0  0  0  0  0  0  0  0
   -3.5384   -0.1798    1.9836 H   0  0  0  0  0  0  0  0  0  0  0  0
   -3.5595    2.9692    3.4548 H   0  0  0  0  0  0  0  0  0  0  0  0
   -3.5711    2.2041    2.0122 H   0  0  0  0  0  0  0  0  0  0  0  0
   -1.4041    3.0482    2.4345 H   0  0  0  0  0  0  0  0  0  0  0  0
   -1.3475    2.2329    3.8482 H   0  0  0  0  0  0  0  0  0  0  0  0
   -3.3627   -1.4646    4.5563 H   0  0  0  0  0  0  0  0  0  0  0  0
   -3.3458   -2.2494    3.1244 H   0  0  0  0  0  0  0  0  0  0  0  0
   -5.5596   -0.6701    4.0949 H   0  0  0  0  0  0  0  0  0  0  0  0
   -6.7142   -1.4612    2.1684 H   0  0  0  0  0  0  0  0  0  0  0  0
   -5.3915   -0.6150    1.7202 H   0  0  0  0  0  0  0  0  0  0  0  0
   -5.3674   -2.2474    1.6840 H   0  0  0  0  0  0  0  0  0  0  0  0
   -6.7032   -2.7496    4.2900 H   0  0  0  0  0  0  0  0  0  0  0  0
   -5.3564   -3.5357    3.8056 H   0  0  0  0  0  0  0  0  0  0  0  0
   -5.3733   -2.7509    5.2376 H   0  0  0  0  0  0  0  0  0  0  0  0
    2.6933   -0.7338    2.1348 H   0  0  0  0  0  0  0  0  0  0  0  0
    2.6933   -1.0173    0.5266 H   0  0  0  0  0  0  0  0  0  0  0  0
    4.7352   -0.7689   -0.7807 H   0  0  0  0  0  0  0  0  0  0  0  0
    8.3007   -0.4018    1.3136 H   0  0  0  0  0  0  0  0  0  0  0  0
    7.1090   -0.0476    3.3166 H   0  0  0  0  0  0  0  0  0  0  0  0
    4.7338   -0.0446    3.3209 H   0  0  0  0  0  0  0  0  0  0  0  0
  1  2  2  0  0  0  0
  2  3  1  0  0  0  0
  3  4  1  0  0  0  0
  4  5  1  0  0  0  0
  4  6  1  0  0  0  0
  4  7  1  0  0  0  0
  2  8  1  0  0  0  0
  8  9  1  0  0  0  0
  9 10  1  0  0  0  0
 10 11  2  0  0  0  0
 10 12  1  0  0  0  0
 12 13  1  0  0  0  0
 13 14  1  0  0  0  0
 14 15  1  0  0  0  0
 15 16  1  0  0  0  0
 16 17  1  0  0  0  0
 17 18  1  0  0  0  0
 18 13  1  0  0  0  0
 15 19  1  0  0  0  0
 19 20  1  0  0  0  0
 20 21  1  0  0  0  0
 20 22  1  0  0  0  0
  9 23  1  0  0  0  0
 23 24  1  0  0  0  0
 24 25  2  0  0  0  0
 25 26  1  0  0  0  0
 26 27  2  0  0  0  0
 26 28  1  0  0  0  0
 28 29  1  0  0  0  0
 29 30  2  0  0  0  0
 30 24  1  0  0  0  0
  5 31  1  0  0  0  0
  5 32  1  0  0  0  0
  5 33  1  0  0  0  0
  6 34  1  0  0  0  0
  6 35  1  0  0  0  0
  6 36  1  0  0  0  0
  7 37  1  0  0  0  0
  7 38  1  0  0  0  0
  7 39  1  0  0  0  0
  8 40  1  0  0  0  0
  9 41  1  0  0  0  0
 12 42  1  0  0  0  0
 13 43  1  0  0  0  0
 14 44  1  0  0  0  0
 14 45  1  0  0  0  0
 15 46  1  0  0  0  0
 17 47  1  0  0  0  0
 17 48  1  0  0  0  0
 18 49  1  0  0  0  0
 18 50  1  0  0  0  0
 19 51  1  0  0  0  0
 19 52  1  0  0  0  0
 20 53  1  0  0  0  0
 21 54  1  0  0  0  0
 21 55  1  0  0  0  0
 21 56  1  0  0  0  0
 22 57  1  0  0  0  0
 22 58  1  0  0  0  0
 22 59  1  0  0  0  0
 23 60  1  0  0  0  0
 23 61  1  0  0  0  0
 25 62  1  0  0  0  0
 28 63  1  0  0  0  0
 29 64  1  0  0  0  0
 30 65  1  0  0  0  0
M  END
>  <result-rank>
62

>  <similarity>
0.942

>  <query-name>
LIG_A_1101_CC(C)CC[C@]1([R*])CCCOC1_2

>  <query-smiles>
O=C(N[C@@]1(COCCC1)CCC(C)C)[C@@H](NC(=O)C)Cc2ccc(O)cc2

>  <source>
REALspace_2019-12

>  <similarity-descriptor>
0.900;0.971;1.000;1.000;0.971;1.000;1.000;1.000;1.000;1.000;1.000;0.851;0.971;1.000;0.900;0.118

>  <similarity-descriptor-smiles>
C=1C=CNC(C1)=O;C1CCOCC1;C=O;N;C1CCOCC1;C;C;C;C;C;N;O=CO;CC;C;C=1C=CNC(C1)=O;C.C

>  <reaction-name>
s_527a

>  <reagent1-name>
8333304

>  <reagent1-smiles>
[R1*]NC1CC(OCC1)CC(C)C

>  <reagent2-name>
15715224

>  <reagent2-smiles>
[R1*]C(=O)C(NC(=O)OC(C)(C)C)Cc1cc(O)ncc1

$$$$
s_22____4903448____17057108
          04022015103D 1   1.00000     0.00000     0
            
 71 72  0  0  0  0            999 V2000
    4.9061    5.0918    1.9423 O   0  0  0  0  0  0  0  0  0  0  0  0
    3.8017    4.6453    1.7979 C   0  0  0  0  0  0  0  0  0  0  0  0
    3.4072    3.5117    2.5135 N   0  0  0  0  0  0  0  0  0  0  0  0
    4.3351    2.9624    3.5155 C   0  0  0  0  0  0  0  0  0  0  0  0
    4.2152    1.4493    3.6340 C   0  0  0  0  0  0  0  0  0  0  0  0
    2.7657    0.9893    3.7020 C   0  0  3  0  0  0  0  0  0  0  0  0
    2.7627   -0.5307    3.7331 C   0  0  0  0  0  0  0  0  0  0  0  0
    1.4948   -0.9927    4.1750 O   0  0  0  0  0  0  0  0  0  0  0  0
    1.4920   -2.4124    4.2040 C   0  0  0  0  0  0  0  0  0  0  0  0
    0.1347   -2.9069    4.6770 C   0  0  0  0  0  0  0  0  0  0  0  0
    0.1318   -4.4265    4.7080 C   0  0  0  0  0  0  0  0  0  0  0  0
   -1.2255   -4.9210    5.1810 C   0  0  0  0  0  0  0  0  0  0  0  0
    0.4082   -4.9624    3.3127 C   0  0  0  0  0  0  0  0  0  0  0  0
    2.0810    1.4150    2.4110 C   0  0  0  0  0  0  0  0  0  0  0  0
    2.0878    2.9259    2.2239 C   0  0  0  0  0  0  0  0  0  0  0  0
    2.8318    5.3129    0.8365 C   0  0  3  0  0  0  0  0  0  0  0  0
    3.1965    6.7279    0.6765 N   0  0  0  0  0  0  0  0  0  0  0  0
    2.3015    7.7084    1.0149 C   0  0  0  0  0  0  0  0  0  0  0  0
    1.2556    7.4159    1.5252 O   0  0  0  0  0  0  0  0  0  0  0  0
    2.6334    9.1668    0.7439 C   0  0  0  0  0  0  0  0  0  0  0  0
    1.3645    9.9134    0.3660 C   0  0  0  0  0  0  0  0  0  0  0  0
    1.4806   11.3641    0.8047 C   0  0  0  0  0  0  0  0  0  0  0  0
    1.1711    9.8536   -1.1405 C   0  0  0  0  0  0  0  0  0  0  0  0
    2.8969    4.6171   -0.5133 C   0  0  0  0  0  0  0  0  0  0  0  0
    1.6072    4.8708   -1.2768 C   0  0  0  0  0  0  0  0  0  0  0  0
    0.5408    3.9897   -1.1309 C   0  0  0  0  0  0  0  0  0  0  0  0
   -0.6414    4.2183   -1.8269 C   0  0  0  0  0  0  0  0  0  0  0  0
   -0.7423    5.3273   -2.6610 C   0  0  0  0  0  0  0  0  0  0  0  0
   -1.8878    5.5527   -3.3386 O   0  0  0  0  0  0  0  0  0  0  0  0
    0.3213    6.2114   -2.8107 C   0  0  0  0  0  0  0  0  0  0  0  0
    1.5010    5.9782   -2.1120 C   0  0  0  0  0  0  0  0  0  0  0  0
    4.1310    3.3731    4.4041 H   0  0  0  0  0  0  0  0  0  0  0  0
    5.2712    3.1923    3.2491 H   0  0  0  0  0  0  0  0  0  0  0  0
    4.6491    1.0287    2.8372 H   0  0  0  0  0  0  0  0  0  0  0  0
    4.6860    1.1533    4.4651 H   0  0  0  0  0  0  0  0  0  0  0  0
    2.3012    1.3697    4.5018 H   0  0  0  0  0  0  0  0  0  0  0  0
    2.9446   -0.8833    2.8152 H   0  0  0  0  0  0  0  0  0  0  0  0
    3.4719   -0.8527    4.3604 H   0  0  0  0  0  0  0  0  0  0  0  0
    2.2012   -2.7343    4.8313 H   0  0  0  0  0  0  0  0  0  0  0  0
    1.6739   -2.7649    3.2860 H   0  0  0  0  0  0  0  0  0  0  0  0
   -0.0471   -2.5543    5.5949 H   0  0  0  0  0  0  0  0  0  0  0  0
   -0.5744   -2.5849    4.0497 H   0  0  0  0  0  0  0  0  0  0  0  0
    0.8410   -4.7485    5.3353 H   0  0  0  0  0  0  0  0  0  0  0  0
   -1.2274   -5.9208    5.2015 H   0  0  0  0  0  0  0  0  0  0  0  0
   -1.4073   -4.5685    6.0990 H   0  0  0  0  0  0  0  0  0  0  0  0
   -1.9346   -4.5991    4.5537 H   0  0  0  0  0  0  0  0  0  0  0  0
    0.4063   -5.9622    3.3332 H   0  0  0  0  0  0  0  0  0  0  0  0
   -0.3009   -4.6404    2.6855 H   0  0  0  0  0  0  0  0  0  0  0  0
    1.3012   -4.6371    3.0016 H   0  0  0  0  0  0  0  0  0  0  0  0
    1.1329    1.0976    2.4301 H   0  0  0  0  0  0  0  0  0  0  0  0
    2.5581    0.9934    1.6398 H   0  0  0  0  0  0  0  0  0  0  0  0
    1.8424    3.1351    1.2773 H   0  0  0  0  0  0  0  0  0  0  0  0
    1.4125    3.3306    2.8405 H   0  0  0  0  0  0  0  0  0  0  0  0
    1.9029    5.2472    1.2010 H   0  0  0  0  0  0  0  0  0  0  0  0
    4.0978    6.9748    0.3206 H   0  0  0  0  0  0  0  0  0  0  0  0
    3.2908    9.2250   -0.0075 H   0  0  0  0  0  0  0  0  0  0  0  0
    3.0293    9.5768    1.5656 H   0  0  0  0  0  0  0  0  0  0  0  0
    0.5807    9.4896    0.8198 H   0  0  0  0  0  0  0  0  0  0  0  0
    0.6458   11.8553    0.5560 H   0  0  0  0  0  0  0  0  0  0  0  0
    1.6079   11.4035    1.7957 H   0  0  0  0  0  0  0  0  0  0  0  0
    2.2644   11.7879    0.3508 H   0  0  0  0  0  0  0  0  0  0  0  0
    0.3363   10.3448   -1.3891 H   0  0  0  0  0  0  0  0  0  0  0  0
    1.9549   10.2774   -1.5943 H   0  0  0  0  0  0  0  0  0  0  0  0
    1.0947    8.8992   -1.4291 H   0  0  0  0  0  0  0  0  0  0  0  0
    3.6700    4.9759   -1.0364 H   0  0  0  0  0  0  0  0  0  0  0  0
    3.0150    3.6336   -0.3761 H   0  0  0  0  0  0  0  0  0  0  0  0
    0.6238    3.1958   -0.5285 H   0  0  0  0  0  0  0  0  0  0  0  0
   -1.4133    3.5901   -1.7286 H   0  0  0  0  0  0  0  0  0  0  0  0
   -1.9650    6.3485   -3.9393 H   0  0  0  0  0  0  0  0  0  0  0  0
    0.2386    7.0050   -3.4135 H   0  0  0  0  0  0  0  0  0  0  0  0
    2.2727    6.6066   -2.2100 H   0  0  0  0  0  0  0  0  0  0  0  0
  1  2  2  0  0  0  0
  2  3  1  0  0  0  0
  3  4  1  0  0  0  0
  4  5  1  0  0  0  0
  5  6  1  0  0  0  0
  6  7  1  0  0  0  0
  7  8  1  0  0  0  0
  8  9  1  0  0  0  0
  9 10  1  0  0  0  0
 10 11  1  0  0  0  0
 11 12  1  0  0  0  0
 11 13  1  0  0  0  0
  6 14  1  0  0  0  0
 14 15  1  0  0  0  0
 15  3  1  0  0  0  0
  2 16  1  0  0  0  0
 16 17  1  0  0  0  0
 17 18  1  0  0  0  0
 18 19  2  0  0  0  0
 18 20  1  0  0  0  0
 20 21  1  0  0  0  0
 21 22  1  0  0  0  0
 21 23  1  0  0  0  0
 16 24  1  0  0  0  0
 24 25  1  0  0  0  0
 25 26  1  0  0  0  0
 26 27  2  0  0  0  0
 27 28  1  0  0  0  0
 28 29  1  0  0  0  0
 28 30  2  0  0  0  0
 30 31  1  0  0  0  0
 31 25  2  0  0  0  0
  4 32  1  0  0  0  0
  4 33  1  0  0  0  0
  5 34  1  0  0  0  0
  5 35  1  0  0  0  0
  6 36  1  0  0  0  0
  7 37  1  0  0  0  0
  7 38  1  0  0  0  0
  9 39  1  0  0  0  0
  9 40  1  0  0  0  0
 10 41  1  0  0  0  0
 10 42  1  0  0  0  0
 11 43  1  0  0  0  0
 12 44  1  0  0  0  0
 12 45  1  0  0  0  0
 12 46  1  0  0  0  0
 13 47  1  0  0  0  0
 13 48  1  0  0  0  0
 13 49  1  0  0  0  0
 14 50  1  0  0  0  0
 14 51  1  0  0  0  0
 15 52  1  0  0  0  0
 15 53  1  0  0  0  0
 16 54  1  0  0  0  0
 17 55  1  0  0  0  0
 20 56  1  0  0  0  0
 20 57  1  0  0  0  0
 21 58  1  0  0  0  0
 22 59  1  0  0  0  0
 22 60  1  0  0  0  0
 22 61  1  0  0  0  0
 23 62  1  0  0  0  0
 23 63  1  0  0  0  0
 23 64  1  0  0  0  0
 24 65  1  0  0  0  0
 24 66  1  0  0  0  0
 26 67  1  0  0  0  0
 27 68  1  0  0  0  0
 29 69  1  0  0  0  0
 30 70  1  0  0  0  0
 31 71  1  0  0  0  0
M  END
>  <result-rank>
63

>  <similarity>
0.942

>  <query-name>
LIG_A_1101_CC(C)CC[C@]1([R*])CCCOC1_2

>  <query-smiles>
O=C(N[C@@]1(COCCC1)CCC(C)C)[C@@H](NC(=O)C)Cc2ccc(O)cc2

>  <source>
REALspace_2019-12

>  <similarity-descriptor>
1.000;0.894;0.852;0.852;0.993;1.000;1.000;1.000;1.000;1.000;1.000;1.000;0.949;1.000;1.000;0.158

>  <similarity-descriptor-smiles>
c1ccccc1;N1CCC(CC1)CO;O=C;O=C;C;C;C;C;C;C;N;C=O;C;C;O;C.C.C

>  <reaction-name>
s_22

>  <reagent1-name>
4903448

>  <reagent1-smiles>
[R1*]N1CCC(COCCC(C)C)CC1

>  <reagent2-name>
17057108

>  <reagent2-smiles>
[R1*]C(=O)C(NC(=O)CC(C)C)Cc1ccc(O)cc1

$$$$
s_22____4836988____17513450
          04022015103D 1   1.00000     0.00000     0
            
 58 59  0  0  0  0            999 V2000
    0.4000    0.4614    1.8888 O   0  0  0  0  0  0  0  0  0  0  0  0
    1.0000    1.0000    1.0000 C   0  0  0  0  0  0  0  0  0  0  0  0
    2.3991    1.0000    1.0000 N   0  0  0  0  0  0  0  0  0  0  0  0
    3.1035    1.7647   -0.0441 C   0  0  0  0  0  0  0  0  0  0  0  0
    4.4040    1.1465   -0.5557 C   0  0  0  0  0  0  0  0  0  0  0  0
    5.6057    1.3790    0.2684 N   0  3  3  0  0  0  0  0  0  0  0  0
    6.7980    1.0340   -0.5196 C   0  0  0  0  0  0  0  0  0  0  0  0
    6.8221    1.8648   -1.7922 C   0  0  0  0  0  0  0  0  0  0  0  0
    6.8621    3.3411   -1.4328 C   0  0  0  0  0  0  0  0  0  0  0  0
    8.0548    1.5081   -2.6069 C   0  0  0  0  0  0  0  0  0  0  0  0
    5.6613    0.6374    1.5431 C   0  0  0  0  0  0  0  0  0  0  0  0
    4.4712    0.8812    2.4664 C   0  0  0  0  0  0  0  0  0  0  0  0
    3.1470    0.2582    2.0304 C   0  0  0  0  0  0  0  0  0  0  0  0
    0.2400    1.6822   -0.1258 C   0  0  3  0  0  0  0  0  0  0  0  0
   -0.7765    2.5793    0.4425 N   0  0  0  0  0  0  0  0  0  0  0  0
   -0.7381    3.9205    0.1659 C   0  0  0  0  0  0  0  0  0  0  0  0
    0.1253    4.3631   -0.5402 O   0  0  0  0  0  0  0  0  0  0  0  0
   -1.7892    4.8481    0.7535 C   0  0  0  0  0  0  0  0  0  0  0  0
   -0.4378    0.6310   -0.9894 C   0  0  0  0  0  0  0  0  0  0  0  0
   -0.7109    1.2077   -2.3690 C   0  0  0  0  0  0  0  0  0  0  0  0
    0.2494    1.0787   -3.3670 C   0  0  0  0  0  0  0  0  0  0  0  0
    0.0036    1.6042   -4.6311 C   0  0  0  0  0  0  0  0  0  0  0  0
   -1.2016    2.2527   -4.8813 C   0  0  0  0  0  0  0  0  0  0  0  0
   -1.4441    2.7645   -6.1066 O   0  0  0  0  0  0  0  0  0  0  0  0
   -2.1652    2.3848   -3.8866 C   0  0  0  0  0  0  0  0  0  0  0  0
   -1.9143    1.8570   -2.6245 C   0  0  0  0  0  0  0  0  0  0  0  0
    5.6490    2.3556    0.4793 H   0  0  0  0  0  0  0  0  0  0  0  0
    3.3183    2.6674    0.3285 H   0  0  0  0  0  0  0  0  0  0  0  0
    2.4837    1.8643   -0.8226 H   0  0  0  0  0  0  0  0  0  0  0  0
    4.2663    0.1582   -0.6221 H   0  0  0  0  0  0  0  0  0  0  0  0
    4.5817    1.5201   -1.4661 H   0  0  0  0  0  0  0  0  0  0  0  0
    6.7717    0.0627   -0.7560 H   0  0  0  0  0  0  0  0  0  0  0  0
    7.6194    1.2240    0.0182 H   0  0  0  0  0  0  0  0  0  0  0  0
    6.0007    1.6748   -2.3299 H   0  0  0  0  0  0  0  0  0  0  0  0
    6.8779    3.8877   -2.2700 H   0  0  0  0  0  0  0  0  0  0  0  0
    6.0511    3.5758   -0.8968 H   0  0  0  0  0  0  0  0  0  0  0  0
    7.6835    3.5312   -0.8950 H   0  0  0  0  0  0  0  0  0  0  0  0
    8.0706    2.0547   -3.4441 H   0  0  0  0  0  0  0  0  0  0  0  0
    8.8762    1.6981   -2.0691 H   0  0  0  0  0  0  0  0  0  0  0  0
    8.0285    0.5368   -2.8433 H   0  0  0  0  0  0  0  0  0  0  0  0
    6.4933    0.9089    2.0269 H   0  0  0  0  0  0  0  0  0  0  0  0
    5.7007   -0.3399    1.3349 H   0  0  0  0  0  0  0  0  0  0  0  0
    4.3359    1.8695    2.5367 H   0  0  0  0  0  0  0  0  0  0  0  0
    4.7015    0.5114    3.3666 H   0  0  0  0  0  0  0  0  0  0  0  0
    3.3407   -0.6548    1.6715 H   0  0  0  0  0  0  0  0  0  0  0  0
    2.5629    0.1818    2.8384 H   0  0  0  0  0  0  0  0  0  0  0  0
    0.8774    2.2125   -0.6848 H   0  0  0  0  0  0  0  0  0  0  0  0
   -1.4960    2.2105    1.0309 H   0  0  0  0  0  0  0  0  0  0  0  0
   -2.4266    4.3178    1.3126 H   0  0  0  0  0  0  0  0  0  0  0  0
   -1.3433    5.5397    1.3217 H   0  0  0  0  0  0  0  0  0  0  0  0
   -2.2892    5.2969    0.0129 H   0  0  0  0  0  0  0  0  0  0  0  0
    0.1594   -0.1667   -1.0738 H   0  0  0  0  0  0  0  0  0  0  0  0
   -1.3013    0.3575   -0.5655 H   0  0  0  0  0  0  0  0  0  0  0  0
    1.1122    0.6103   -3.1766 H   0  0  0  0  0  0  0  0  0  0  0  0
    0.6881    1.5165   -5.3548 H   0  0  0  0  0  0  0  0  0  0  0  0
   -2.3089    3.2315   -6.2912 H   0  0  0  0  0  0  0  0  0  0  0  0
   -3.0278    2.8536   -4.0767 H   0  0  0  0  0  0  0  0  0  0  0  0
   -2.5989    1.9443   -1.9009 H   0  0  0  0  0  0  0  0  0  0  0  0
  1  2  2  0  0  0  0
  2  3  1  0  0  0  0
  3  4  1  0  0  0  0
  4  5  1  0  0  0  0
  5  6  1  0  0  0  0
  6  7  1  0  0  0  0
  7  8  1  0  0  0  0
  8  9  1  0  0  0  0
  8 10  1  0  0  0  0
  6 11  1  0  0  0  0
 11 12  1  0  0  0  0
 12 13  1  0  0  0  0
 13  3  1  0  0  0  0
  2 14  1  0  0  0  0
 14 15  1  0  0  0  0
 15 16  1  0  0  0  0
 16 17  2  0  0  0  0
 16 18  1  0  0  0  0
 14 19  1  0  0  0  0
 19 20  1  0  0  0  0
 20 21  1  0  0  0  0
 21 22  2  0  0  0  0
 22 23  1  0  0  0  0
 23 24  1  0  0  0  0
 23 25  2  0  0  0  0
 25 26  1  0  0  0  0
 26 20  2  0  0  0  0
  6 27  1  0  0  0  0
  4 28  1  0  0  0  0
  4 29  1  0  0  0  0
  5 30  1  0  0  0  0
  5 31  1  0  0  0  0
  7 32  1  0  0  0  0
  7 33  1  0  0  0  0
  8 34  1  0  0  0  0
  9 35  1  0  0  0  0
  9 36  1  0  0  0  0
  9 37  1  0  0  0  0
 10 38  1  0  0  0  0
 10 39  1  0  0  0  0
 10 40  1  0  0  0  0
 11 41  1  0  0  0  0
 11 42  1  0  0  0  0
 12 43  1  0  0  0  0
 12 44  1  0  0  0  0
 13 45  1  0  0  0  0
 13 46  1  0  0  0  0
 14 47  1  0  0  0  0
 15 48  1  0  0  0  0
 18 49  1  0  0  0  0
 18 50  1  0  0  0  0
 18 51  1  0  0  0  0
 19 52  1  0  0  0  0
 19 53  1  0  0  0  0
 21 54  1  0  0  0  0
 22 55  1  0  0  0  0
 24 56  1  0  0  0  0
 25 57  1  0  0  0  0
 26 58  1  0  0  0  0
M  CHG  1   6   1
M  END
>  <result-rank>
64

>  <similarity>
0.942

>  <query-name>
LIG_A_1101_CC(C)CC[C@]1([R*])CCCOC1_2

>  <query-smiles>
O=C(N[C@@]1(COCCC1)CCC(C)C)[C@@H](NC(=O)C)Cc2ccc(O)cc2

>  <source>
REALspace_2019-12

>  <similarity-descriptor>
1.000;0.796;1.000;0.796;0.796;0.993;1.000;1.000;1.000;1.000;1.000;1.000;1.000;1.000;1.000;0.0

>  <similarity-descriptor-smiles>
c1ccccc1;N1CCC[NH+]CC1;O=C;N1CCC[NH+]CC1;N1CCC[NH+]CC1;C;C;C;C;C;N;C=O;C;C;O;

>  <reaction-name>
s_22

>  <reagent1-name>
4836988

>  <reagent1-smiles>
[R1*]N1CCN(CC(C)C)CCC1

>  <reagent2-name>
17513450

>  <reagent2-smiles>
[R1*]C(=O)C(NC(=O)C)Cc1ccc(O)cc1

$$$$
s_487a____8333298____9044632
          04022015103D 1   1.00000     0.00000     0
            
 51 52  0  0  0  0            999 V2000
    0.4000   -0.0392    1.0000 O   0  0  0  0  0  0  0  0  0  0  0  0
    1.0000    1.0000    1.0000 C   0  0  0  0  0  0  0  0  0  0  0  0
    2.3700    1.0000    1.0000 N   0  0  0  0  0  0  0  0  0  0  0  0
    3.0701   -0.0502    1.6063 C   0  0  0  0  0  0  0  0  0  0  0  0
    2.8933   -0.3075    2.9617 C   0  0  0  0  0  0  0  0  0  0  0  0
    3.5980   -1.3550    3.5460 C   0  0  0  0  0  0  0  0  0  0  0  0
    3.4204   -1.6145    4.9097 N   0  0  0  0  0  0  0  0  0  0  0  0
    4.5101   -1.7986    5.7195 C   0  0  0  0  0  0  0  0  0  0  0  0
    5.5452   -1.2463    5.4673 O   0  0  0  0  0  0  0  0  0  0  0  0
    4.4079   -2.7023    6.9373 C   0  0  0  0  0  0  0  0  0  0  0  0
    4.4677   -2.1411    2.7975 C   0  0  0  0  0  0  0  0  0  0  0  0
    4.6289   -1.8654    1.4438 C   0  0  0  0  0  0  0  0  0  0  0  0
    3.9351   -0.8232    0.8386 C   0  0  0  0  0  0  0  0  0  0  0  0
    0.3150    2.1865    1.0000 N   0  0  0  0  0  0  0  0  0  0  0  0
   -1.1580    2.1865    1.0000 C   0  0  3  0  0  0  0  0  0  0  0  0
   -1.6824    2.9001    2.2360 C   0  0  0  0  0  0  0  0  0  0  0  0
   -3.2019    2.9253    2.1842 C   0  0  3  0  0  0  0  0  0  0  0  0
   -3.6687    3.5821    1.0118 O   0  0  0  0  0  0  0  0  0  0  0  0
   -3.2193    2.9479   -0.1772 C   0  0  0  0  0  0  0  0  0  0  0  0
   -1.6999    2.9124   -0.2211 C   0  0  0  0  0  0  0  0  0  0  0  0
   -3.6928    3.6125    3.4486 C   0  0  0  0  0  0  0  0  0  0  0  0
   -5.2126    3.6068    3.4709 C   0  0  0  0  0  0  0  0  0  0  0  0
   -5.7143    2.1722    3.4465 C   0  0  0  0  0  0  0  0  0  0  0  0
   -5.7034    4.2937    4.7349 C   0  0  0  0  0  0  0  0  0  0  0  0
    2.8700    1.7500    0.5670 H   0  0  0  0  0  0  0  0  0  0  0  0
    2.2693    0.2517    3.5076 H   0  0  0  0  0  0  0  0  0  0  0  0
    2.4983   -1.6655    5.2931 H   0  0  0  0  0  0  0  0  0  0  0  0
    3.4830   -3.0779    6.9971 H   0  0  0  0  0  0  0  0  0  0  0  0
    5.0665   -3.4501    6.8537 H   0  0  0  0  0  0  0  0  0  0  0  0
    4.6068   -2.1736    7.7625 H   0  0  0  0  0  0  0  0  0  0  0  0
    4.9692   -2.8927    3.2259 H   0  0  0  0  0  0  0  0  0  0  0  0
    5.2527   -2.4247    0.8979 H   0  0  0  0  0  0  0  0  0  0  0  0
    4.0564   -0.6320   -0.1355 H   0  0  0  0  0  0  0  0  0  0  0  0
    0.8150    3.0525    1.0000 H   0  0  0  0  0  0  0  0  0  0  0  0
   -1.4888    1.2427    0.9976 H   0  0  0  0  0  0  0  0  0  0  0  0
   -1.3828    2.4136    3.0567 H   0  0  0  0  0  0  0  0  0  0  0  0
   -1.3319    3.8364    2.2569 H   0  0  0  0  0  0  0  0  0  0  0  0
   -3.5384    1.9836    2.1798 H   0  0  0  0  0  0  0  0  0  0  0  0
   -3.5595    3.4548   -0.9692 H   0  0  0  0  0  0  0  0  0  0  0  0
   -3.5711    2.0122   -0.2041 H   0  0  0  0  0  0  0  0  0  0  0  0
   -1.4041    2.4345   -1.0482 H   0  0  0  0  0  0  0  0  0  0  0  0
   -1.3475    3.8482   -0.2329 H   0  0  0  0  0  0  0  0  0  0  0  0
   -3.3627    4.5563    3.4646 H   0  0  0  0  0  0  0  0  0  0  0  0
   -3.3458    3.1244    4.2494 H   0  0  0  0  0  0  0  0  0  0  0  0
   -5.5596    4.0949    2.6701 H   0  0  0  0  0  0  0  0  0  0  0  0
   -6.7142    2.1684    3.4612 H   0  0  0  0  0  0  0  0  0  0  0  0
   -5.3915    1.7202    2.6150 H   0  0  0  0  0  0  0  0  0  0  0  0
   -5.3674    1.6840    4.2474 H   0  0  0  0  0  0  0  0  0  0  0  0
   -6.7032    4.2900    4.7496 H   0  0  0  0  0  0  0  0  0  0  0  0
   -5.3564    3.8056    5.5357 H   0  0  0  0  0  0  0  0  0  0  0  0
   -5.3733    5.2376    4.7509 H   0  0  0  0  0  0  0  0  0  0  0  0
  1  2  2  0  0  0  0
  2  3  1  0  0  0  0
  3  4  1  0  0  0  0
  4  5  1  0  0  0  0
  5  6  2  0  0  0  0
  6  7  1  0  0  0  0
  7  8  1  0  0  0  0
  8  9  2  0  0  0  0
  8 10  1  0  0  0  0
  6 11  1  0  0  0  0
 11 12  2  0  0  0  0
 12 13  1  0  0  0  0
 13  4  2  0  0  0  0
  2 14  1  0  0  0  0
 14 15  1  0  0  0  0
 15 16  1  0  0  0  0
 16 17  1  0  0  0  0
 17 18  1  0  0  0  0
 18 19  1  0  0  0  0
 19 20  1  0  0  0  0
 20 15  1  0  0  0  0
 17 21  1  0  0  0  0
 21 22  1  0  0  0  0
 22 23  1  0  0  0  0
 22 24  1  0  0  0  0
  3 25  1  0  0  0  0
  5 26  1  0  0  0  0
  7 27  1  0  0  0  0
 10 28  1  0  0  0  0
 10 29  1  0  0  0  0
 10 30  1  0  0  0  0
 11 31  1  0  0  0  0
 12 32  1  0  0  0  0
 13 33  1  0  0  0  0
 14 34  1  0  0  0  0
 15 35  1  0  0  0  0
 16 36  1  0  0  0  0
 16 37  1  0  0  0  0
 17 38  1  0  0  0  0
 19 39  1  0  0  0  0
 19 40  1  0  0  0  0
 20 41  1  0  0  0  0
 20 42  1  0  0  0  0
 21 43  1  0  0  0  0
 21 44  1  0  0  0  0
 22 45  1  0  0  0  0
 23 46  1  0  0  0  0
 23 47  1  0  0  0  0
 23 48  1  0  0  0  0
 24 49  1  0  0  0  0
 24 50  1  0  0  0  0
 24 51  1  0  0  0  0
M  END
>  <result-rank>
65

>  <similarity>
0.942

>  <query-name>
LIG_A_1101_CC(C)CC[C@]1([R*])CCCOC1_2

>  <query-smiles>
O=C(N[C@@]1(COCCC1)CCC(C)C)[C@@H](NC(=O)C)Cc2ccc(O)cc2

>  <source>
REALspace_2019-12

>  <similarity-descriptor>
0.894;0.971;0.848;1.000;0.971;1.000;1.000;1.000;1.000;0.894;1.000;1.000;1.000;0.894;0.0;0.0

>  <similarity-descriptor-smiles>
c1ccccc1;C1CCOCC1;O=CN;N;C1CCOCC1;C;C;C;C;c1ccccc1;N;C=O;C;c1ccccc1;;

>  <reaction-name>
s_487a

>  <reagent1-name>
8333298

>  <reagent1-smiles>
[R1*]NC1CC(OCC1)CC(C)C

>  <reagent2-name>
9044632

>  <reagent2-smiles>
[R1*]C(=O)Nc1cc(NC(=O)C)ccc1

$$$$
s_22____10643476____17513450
          04022015103D 1   1.00000     0.00000     0
            
 49 49  0  0  0  0            999 V2000
    6.8333   -0.3146   -1.0129 F   0  0  0  0  0  0  0  0  0  0  0  0
    6.3900   -1.4005   -0.3859 C   0  0  0  0  0  0  0  0  0  0  0  0
    6.8333   -1.4005    0.8680 F   0  0  0  0  0  0  0  0  0  0  0  0
    6.8333   -2.4864   -1.0129 F   0  0  0  0  0  0  0  0  0  0  0  0
    4.8700   -1.4005   -0.3859 C   0  0  0  0  0  0  0  0  0  0  0  0
    4.3967   -0.2411    0.2835 O   0  0  0  0  0  0  0  0  0  0  0  0
    2.9767   -0.2411    0.2835 C   0  0  0  0  0  0  0  0  0  0  0  0
    2.4700    1.0000    1.0000 C   0  0  3  0  0  0  0  0  0  0  0  0
    1.0000    1.0000    1.0000 N   0  0  0  0  0  0  0  0  0  0  0  0
    0.3150    1.0000    2.1865 C   0  0  0  0  0  0  0  0  0  0  0  0
    0.9150    1.0000    3.2257 O   0  0  0  0  0  0  0  0  0  0  0  0
   -1.2050    1.0000    2.1865 C   0  0  3  0  0  0  0  0  0  0  0  0
   -1.6950    1.0000    3.5724 N   0  0  0  0  0  0  0  0  0  0  0  0
   -2.4826    2.0275    4.0205 C   0  0  0  0  0  0  0  0  0  0  0  0
   -2.7725    2.9275    3.2816 O   0  0  0  0  0  0  0  0  0  0  0  0
   -2.9893    2.0275    5.4535 C   0  0  0  0  0  0  0  0  0  0  0  0
   -1.7117   -0.2411    1.4699 C   0  0  0  0  0  0  0  0  0  0  0  0
   -3.2317   -0.2411    1.4699 C   0  0  0  0  0  0  0  0  0  0  0  0
   -3.9161    0.3644    0.4212 C   0  0  0  0  0  0  0  0  0  0  0  0
   -5.3069    0.3662    0.4166 C   0  0  0  0  0  0  0  0  0  0  0  0
   -5.9966   -0.2391    1.4624 C   0  0  0  0  0  0  0  0  0  0  0  0
   -7.3464   -0.2393    1.4621 O   0  0  0  0  0  0  0  0  0  0  0  0
   -5.3170   -0.8457    2.5138 C   0  0  0  0  0  0  0  0  0  0  0  0
   -3.9262   -0.8449    2.5131 C   0  0  0  0  0  0  0  0  0  0  0  0
    2.9767    2.2411    0.2835 C   0  0  0  0  0  0  0  0  0  0  0  0
    2.4700    3.4821    1.0000 C   0  0  0  0  0  0  0  0  0  0  0  0
    4.5367   -1.4005   -1.3287 H   0  0  0  0  0  0  0  0  0  0  0  0
    4.5367   -2.2170    0.0855 H   0  0  0  0  0  0  0  0  0  0  0  0
    2.6433   -1.0576    0.7549 H   0  0  0  0  0  0  0  0  0  0  0  0
    2.6433   -0.2411   -0.6593 H   0  0  0  0  0  0  0  0  0  0  0  0
    2.8033    1.0000    1.9428 H   0  0  0  0  0  0  0  0  0  0  0  0
    0.5000    1.0000    0.1340 H   0  0  0  0  0  0  0  0  0  0  0  0
   -1.5383    1.8165    1.7151 H   0  0  0  0  0  0  0  0  0  0  0  0
   -1.4534    0.2500    4.1881 H   0  0  0  0  0  0  0  0  0  0  0  0
   -2.6560    1.2110    5.9249 H   0  0  0  0  0  0  0  0  0  0  0  0
   -2.6560    2.8440    5.9249 H   0  0  0  0  0  0  0  0  0  0  0  0
   -3.9893    2.0275    5.4535 H   0  0  0  0  0  0  0  0  0  0  0  0
   -1.3783   -0.2411    0.5271 H   0  0  0  0  0  0  0  0  0  0  0  0
   -1.3783   -1.0576    1.9413 H   0  0  0  0  0  0  0  0  0  0  0  0
   -3.4106    0.7963   -0.3258 H   0  0  0  0  0  0  0  0  0  0  0  0
   -5.8076    0.7993   -0.3330 H   0  0  0  0  0  0  0  0  0  0  0  0
   -7.8465   -0.6731    2.2116 H   0  0  0  0  0  0  0  0  0  0  0  0
   -5.8224   -1.2771    3.2611 H   0  0  0  0  0  0  0  0  0  0  0  0
   -3.4255   -1.2783    3.2624 H   0  0  0  0  0  0  0  0  0  0  0  0
    2.6433    2.2411   -0.6593 H   0  0  0  0  0  0  0  0  0  0  0  0
    3.9767    2.2411    0.2835 H   0  0  0  0  0  0  0  0  0  0  0  0
    2.8033    4.2986    0.5286 H   0  0  0  0  0  0  0  0  0  0  0  0
    1.4700    3.4821    1.0000 H   0  0  0  0  0  0  0  0  0  0  0  0
    2.8033    3.4821    1.9428 H   0  0  0  0  0  0  0  0  0  0  0  0
  1  2  1  0  0  0  0
  2  3  1  0  0  0  0
  2  4  1  0  0  0  0
  2  5  1  0  0  0  0
  5  6  1  0  0  0  0
  6  7  1  0  0  0  0
  7  8  1  0  0  0  0
  8  9  1  0  0  0  0
  9 10  1  0  0  0  0
 10 11  2  0  0  0  0
 10 12  1  0  0  0  0
 12 13  1  0  0  0  0
 13 14  1  0  0  0  0
 14 15  2  0  0  0  0
 14 16  1  0  0  0  0
 12 17  1  0  0  0  0
 17 18  1  0  0  0  0
 18 19  1  0  0  0  0
 19 20  2  0  0  0  0
 20 21  1  0  0  0  0
 21 22  1  0  0  0  0
 21 23  2  0  0  0  0
 23 24  1  0  0  0  0
 24 18  2  0  0  0  0
  8 25  1  0  0  0  0
 25 26  1  0  0  0  0
  5 27  1  0  0  0  0
  5 28  1  0  0  0  0
  7 29  1  0  0  0  0
  7 30  1  0  0  0  0
  8 31  1  0  0  0  0
  9 32  1  0  0  0  0
 12 33  1  0  0  0  0
 13 34  1  0  0  0  0
 16 35  1  0  0  0  0
 16 36  1  0  0  0  0
 16 37  1  0  0  0  0
 17 38  1  0  0  0  0
 17 39  1  0  0  0  0
 19 40  1  0  0  0  0
 20 41  1  0  0  0  0
 22 42  1  0  0  0  0
 23 43  1  0  0  0  0
 24 44  1  0  0  0  0
 25 45  1  0  0  0  0
 25 46  1  0  0  0  0
 26 47  1  0  0  0  0
 26 48  1  0  0  0  0
 26 49  1  0  0  0  0
M  END
>  <result-rank>
66

>  <similarity>
0.942

>  <query-name>
LIG_A_1101_CC(C)CC[C@]1([R*])CCCOC1_2

>  <query-smiles>
O=C(N[C@@]1(COCCC1)CCC(C)C)[C@@H](NC(=O)C)Cc2ccc(O)cc2

>  <source>
REALspace_2019-12

>  <similarity-descriptor>
1.000;0.860;1.000;1.000;1.000;0.949;0.0;0.0;0.0;1.000;1.000;1.000;1.000;1.000;1.000;0.0

>  <similarity-descriptor-smiles>
c1ccccc1;FC(F)(F)COCC;C=O;N;C;C;;;;C;N;C=O;C;C;O;

>  <reaction-name>
s_22

>  <reagent1-name>
10643476

>  <reagent1-smiles>
[R1*]NC(COCC(F)(F)F)CC

>  <reagent2-name>
17513450

>  <reagent2-smiles>
[R1*]C(=O)C(NC(=O)C)Cc1ccc(O)cc1

$$$$
s_22____9281432____14260948
          04022015103D 1   1.00000     0.00000     0
            
 66 68  0  0  0  0            999 V2000
    0.2200    3.4535   -3.1265 F   0  0  0  0  0  0  0  0  0  0  0  0
   -0.2112    3.0688   -1.9286 C   0  0  0  0  0  0  0  0  0  0  0  0
    0.5934    2.2667   -1.1269 C   0  0  0  0  0  0  0  0  0  0  0  0
    0.1228    1.8772    0.1228 C   0  0  0  0  0  0  0  0  0  0  0  0
   -1.1305    2.2771    0.5757 C   0  0  0  0  0  0  0  0  0  0  0  0
   -1.9257    3.0804   -0.2351 C   0  0  0  0  0  0  0  0  0  0  0  0
   -1.4664    3.4756   -1.4878 C   0  0  0  0  0  0  0  0  0  0  0  0
    1.0000    1.0000    1.0000 C   0  0  3  0  0  0  0  0  0  0  0  0
    1.8487    0.1513    0.1513 N   0  0  0  0  0  0  0  0  0  0  0  0
    2.2442   -1.0831    0.5948 C   0  0  0  0  0  0  0  0  0  0  0  0
    1.8978   -1.4716    1.6760 O   0  0  0  0  0  0  0  0  0  0  0  0
    3.0005   -1.8395   -0.1616 O   0  0  0  0  0  0  0  0  0  0  0  0
    3.4104   -3.1190    0.2981 C   0  0  0  0  0  0  0  0  0  0  0  0
    2.3866   -4.1605   -0.1230 C   0  0  0  0  0  0  0  0  0  0  0  0
    4.7623   -3.4647   -0.3047 C   0  0  0  0  0  0  0  0  0  0  0  0
    3.5212   -3.1012    1.8139 C   0  0  0  0  0  0  0  0  0  0  0  0
    1.8776    1.8776    1.8776 C   0  0  0  0  0  0  0  0  0  0  0  0
    1.0000    2.7551    2.7551 C   0  0  0  0  0  0  0  0  0  0  0  0
    0.6536    3.8364    2.3667 O   0  0  0  0  0  0  0  0  0  0  0  0
    0.6045    2.3117    3.9896 N   0  0  0  0  0  0  0  0  0  0  0  0
   -0.2442    3.1604    4.8383 C   0  0  0  0  0  0  0  0  0  0  0  0
   -1.7101    2.8672    4.5451 C   0  0  3  0  0  0  0  0  0  0  0  0
   -2.0166    1.5052    4.8090 O   0  0  0  0  0  0  0  0  0  0  0  0
   -3.3310    1.3948    5.3488 C   0  0  0  0  0  0  0  0  0  0  0  0
   -3.8385    2.8303    5.4074 C   0  0  0  0  0  0  0  0  0  0  0  0
   -2.5635    3.6424    5.5277 C   0  0  0  0  0  0  0  0  0  0  0  0
   -4.2798    0.5774    4.4832 C   0  0  0  0  0  0  0  0  0  0  0  0
   -3.7877   -0.8559    4.3620 C   0  0  0  0  0  0  0  0  0  0  0  0
   -3.7052   -1.5116    5.7310 C   0  0  0  0  0  0  0  0  0  0  0  0
   -2.7942   -0.6983    6.6374 C   0  0  0  0  0  0  0  0  0  0  0  0
   -3.3239    0.7248    6.7146 C   0  0  0  0  0  0  0  0  0  0  0  0
    1.4959    1.9747   -1.4437 H   0  0  0  0  0  0  0  0  0  0  0  0
   -1.4567    1.9896    1.4761 H   0  0  0  0  0  0  0  0  0  0  0  0
   -2.8275    3.3738    0.0822 H   0  0  0  0  0  0  0  0  0  0  0  0
   -2.0386    4.0521   -2.0711 H   0  0  0  0  0  0  0  0  0  0  0  0
    0.4226    0.4226    1.5774 H   0  0  0  0  0  0  0  0  0  0  0  0
    2.1374    0.4750   -0.7498 H   0  0  0  0  0  0  0  0  0  0  0  0
    2.6753   -5.0616    0.2007 H   0  0  0  0  0  0  0  0  0  0  0  0
    1.4972   -3.9331    0.2736 H   0  0  0  0  0  0  0  0  0  0  0  0
    2.3137   -4.1722   -1.1202 H   0  0  0  0  0  0  0  0  0  0  0  0
    5.0510   -4.3658    0.0190 H   0  0  0  0  0  0  0  0  0  0  0  0
    4.6894   -3.4764   -1.3020 H   0  0  0  0  0  0  0  0  0  0  0  0
    5.4359   -2.7795   -0.0277 H   0  0  0  0  0  0  0  0  0  0  0  0
    3.8099   -4.0023    2.1376 H   0  0  0  0  0  0  0  0  0  0  0  0
    4.1948   -2.4160    2.0909 H   0  0  0  0  0  0  0  0  0  0  0  0
    2.6318   -2.8737    2.2105 H   0  0  0  0  0  0  0  0  0  0  0  0
    2.4549    1.3002    2.4549 H   0  0  0  0  0  0  0  0  0  0  0  0
    2.4549    2.4549    1.3002 H   0  0  0  0  0  0  0  0  0  0  0  0
    0.8932    1.4106    4.3133 H   0  0  0  0  0  0  0  0  0  0  0  0
   -0.0517    4.1226    4.6458 H   0  0  0  0  0  0  0  0  0  0  0  0
   -0.0517    2.9679    5.8005 H   0  0  0  0  0  0  0  0  0  0  0  0
   -1.9413    3.1092    3.6028 H   0  0  0  0  0  0  0  0  0  0  0  0
   -4.4291    2.9700    6.2021 H   0  0  0  0  0  0  0  0  0  0  0  0
   -4.3383    3.0684    4.5746 H   0  0  0  0  0  0  0  0  0  0  0  0
   -2.6940    4.5928    5.2454 H   0  0  0  0  0  0  0  0  0  0  0  0
   -2.1875    3.6184    6.4540 H   0  0  0  0  0  0  0  0  0  0  0  0
   -4.3294    0.9866    3.5722 H   0  0  0  0  0  0  0  0  0  0  0  0
   -5.1891    0.5792    4.8993 H   0  0  0  0  0  0  0  0  0  0  0  0
   -2.8803   -0.8573    3.9418 H   0  0  0  0  0  0  0  0  0  0  0  0
   -4.4218   -1.3735    3.7875 H   0  0  0  0  0  0  0  0  0  0  0  0
   -3.3376   -2.4366    5.6345 H   0  0  0  0  0  0  0  0  0  0  0  0
   -4.6196   -1.5566    6.1333 H   0  0  0  0  0  0  0  0  0  0  0  0
   -2.7821   -1.1025    7.5519 H   0  0  0  0  0  0  0  0  0  0  0  0
   -1.8668   -0.6919    6.2635 H   0  0  0  0  0  0  0  0  0  0  0  0
   -4.2581    0.7044    7.0709 H   0  0  0  0  0  0  0  0  0  0  0  0
   -2.7429    1.2542    7.3327 H   0  0  0  0  0  0  0  0  0  0  0  0
  1  2  1  0  0  0  0
  2  3  1  0  0  0  0
  3  4  2  0  0  0  0
  4  5  1  0  0  0  0
  5  6  2  0  0  0  0
  6  7  1  0  0  0  0
  7  2  2  0  0  0  0
  4  8  1  0  0  0  0
  8  9  1  0  0  0  0
  9 10  1  0  0  0  0
 10 11  2  0  0  0  0
 10 12  1  0  0  0  0
 12 13  1  0  0  0  0
 13 14  1  0  0  0  0
 13 15  1  0  0  0  0
 13 16  1  0  0  0  0
  8 17  1  0  0  0  0
 17 18  1  0  0  0  0
 18 19  2  0  0  0  0
 18 20  1  0  0  0  0
 20 21  1  0  0  0  0
 21 22  1  0  0  0  0
 22 23  1  0  0  0  0
 23 24  1  0  0  0  0
 24 25  1  0  0  0  0
 25 26  1  0  0  0  0
 26 22  1  0  0  0  0
 24 27  1  0  0  0  0
 27 28  1  0  0  0  0
 28 29  1  0  0  0  0
 29 30  1  0  0  0  0
 30 31  1  0  0  0  0
 31 24  1  0  0  0  0
  3 32  1  0  0  0  0
  5 33  1  0  0  0  0
  6 34  1  0  0  0  0
  7 35  1  0  0  0  0
  8 36  1  0  0  0  0
  9 37  1  0  0  0  0
 14 38  1  0  0  0  0
 14 39  1  0  0  0  0
 14 40  1  0  0  0  0
 15 41  1  0  0  0  0
 15 42  1  0  0  0  0
 15 43  1  0  0  0  0
 16 44  1  0  0  0  0
 16 45  1  0  0  0  0
 16 46  1  0  0  0  0
 17 47  1  0  0  0  0
 17 48  1  0  0  0  0
 20 49  1  0  0  0  0
 21 50  1  0  0  0  0
 21 51  1  0  0  0  0
 22 52  1  0  0  0  0
 25 53  1  0  0  0  0
 25 54  1  0  0  0  0
 26 55  1  0  0  0  0
 26 56  1  0  0  0  0
 27 57  1  0  0  0  0
 27 58  1  0  0  0  0
 28 59  1  0  0  0  0
 28 60  1  0  0  0  0
 29 61  1  0  0  0  0
 29 62  1  0  0  0  0
 30 63  1  0  0  0  0
 30 64  1  0  0  0  0
 31 65  1  0  0  0  0
 31 66  1  0  0  0  0
M  END
>  <result-rank>
67

>  <similarity>
0.942

>  <query-name>
LIG_A_1101_CC(C)CC[C@]1([R*])CCCOC1_2

>  <query-smiles>
O=C(N[C@@]1(COCCC1)CCC(C)C)[C@@H](NC(=O)C)Cc2ccc(O)cc2

>  <source>
REALspace_2019-12

>  <similarity-descriptor>
0.983;0.982;1.000;1.000;0.895;0.895;0.895;0.895;0.895;1.000;1.000;0.851;0.971;1.000;0.0;0.133

>  <similarity-descriptor-smiles>
Fc1ccccc1;CC1CCCO1;C=O;N;C1CCCCC1;C1CCCCC1;C1CCCCC1;C1CCCCC1;C1CCCCC1;CC;N;C(=O)O;CC;CC;;C.C

>  <reaction-name>
s_22

>  <reagent1-name>
9281432

>  <reagent1-smiles>
[R1*]NCC1OC2(CC1)CCCCC2

>  <reagent2-name>
14260948

>  <reagent2-smiles>
[R1*]C(=O)CC(NC(=O)OC(C)(C)C)c1cc(F)ccc1

$$$$
s_512____12222512____13941176
          04022015103D 1   1.00000     0.00000     0
            
 57 58  0  0  0  0            999 V2000
   12.6335    1.6922    8.2801 Cl  0  0  0  0  0  0  0  0  0  0  0  0
   11.2346    0.8894    7.5274 C   0  0  0  0  0  0  0  0  0  0  0  0
   10.0505    0.7488    8.2425 C   0  0  0  0  0  0  0  0  0  0  0  0
    8.9549    0.1213    7.6582 C   0  0  0  0  0  0  0  0  0  0  0  0
    9.0618   -0.3588    6.3573 C   0  0  0  0  0  0  0  0  0  0  0  0
   10.2458   -0.2186    5.6418 C   0  0  0  0  0  0  0  0  0  0  0  0
   11.3417    0.4090    6.2263 C   0  0  0  0  0  0  0  0  0  0  0  0
    7.8704   -1.0460    5.7117 C   0  0  3  0  0  0  0  0  0  0  0  0
    6.6740   -0.2075    5.8740 N   0  0  0  0  0  0  0  0  0  0  0  0
    6.0035    0.2503    4.7704 C   0  0  0  0  0  0  0  0  0  0  0  0
    6.3929   -0.0333    3.6713 O   0  0  0  0  0  0  0  0  0  0  0  0
    4.8884    1.0318    4.9217 N   0  0  0  0  0  0  0  0  0  0  0  0
    4.1692    1.5228    3.7379 C   0  0  3  0  0  0  0  0  0  0  0  0
    4.1551    3.0429    3.7333 C   0  0  0  0  0  0  0  0  0  0  0  0
    3.4088    3.5546    2.5118 C   0  0  0  0  0  0  0  0  0  0  0  0
    1.9831    3.0265    2.5092 C   0  0  3  0  0  0  0  0  0  0  0  0
    1.2946    3.4962    1.3600 O   0  0  0  0  0  0  0  0  0  0  0  0
   -0.0349    2.9973    1.3678 C   0  0  0  0  0  0  0  0  0  0  0  0
   -0.7721    3.5002    0.1373 C   0  0  0  0  0  0  0  0  0  0  0  0
   -0.8011    5.0198    0.1499 C   0  0  0  0  0  0  0  0  0  0  0  0
   -1.5383    5.5227   -1.0805 C   0  0  0  0  0  0  0  0  0  0  0  0
   -1.5160    5.5026    1.4014 C   0  0  0  0  0  0  0  0  0  0  0  0
    2.0046    1.5065    2.5106 C   0  0  0  0  0  0  0  0  0  0  0  0
    2.7461    0.9884    3.7324 C   0  0  0  0  0  0  0  0  0  0  0  0
    7.6397   -2.3924    6.3782 C   0  0  0  0  0  0  0  0  0  0  0  0
    8.5251   -2.9152    6.9969 O   0  0  0  0  0  0  0  0  0  0  0  0
    6.4209   -3.0091    6.2727 N   0  0  0  0  0  0  0  0  0  0  0  0
    9.9864    1.0987    9.1771 H   0  0  0  0  0  0  0  0  0  0  0  0
    8.1007    0.0167    8.1675 H   0  0  0  0  0  0  0  0  0  0  0  0
   10.3098   -0.5687    4.7073 H   0  0  0  0  0  0  0  0  0  0  0  0
   12.1959    0.5133    5.7171 H   0  0  0  0  0  0  0  0  0  0  0  0
    8.0519   -1.1829    4.7379 H   0  0  0  0  0  0  0  0  0  0  0  0
    6.3495    0.0288    6.7899 H   0  0  0  0  0  0  0  0  0  0  0  0
    4.5639    1.2681    5.8376 H   0  0  0  0  0  0  0  0  0  0  0  0
    4.6394    1.2006    2.9162 H   0  0  0  0  0  0  0  0  0  0  0  0
    5.0955    3.3823    3.7125 H   0  0  0  0  0  0  0  0  0  0  0  0
    3.7002    3.3720    4.5608 H   0  0  0  0  0  0  0  0  0  0  0  0
    3.3909    4.5543    2.5303 H   0  0  0  0  0  0  0  0  0  0  0  0
    3.8774    3.2449    1.6845 H   0  0  0  0  0  0  0  0  0  0  0  0
    1.5115    3.3493    3.3298 H   0  0  0  0  0  0  0  0  0  0  0  0
   -0.5052    3.3149    2.1912 H   0  0  0  0  0  0  0  0  0  0  0  0
   -0.0158    1.9975    1.3595 H   0  0  0  0  0  0  0  0  0  0  0  0
   -0.3017    3.1826   -0.6860 H   0  0  0  0  0  0  0  0  0  0  0  0
   -1.7083    3.1488    0.1429 H   0  0  0  0  0  0  0  0  0  0  0  0
    0.1351    5.3712    0.1444 H   0  0  0  0  0  0  0  0  0  0  0  0
   -1.5574    6.5225   -1.0722 H   0  0  0  0  0  0  0  0  0  0  0  0
   -1.0679    5.2052   -1.9039 H   0  0  0  0  0  0  0  0  0  0  0  0
   -2.4745    5.1714   -1.0750 H   0  0  0  0  0  0  0  0  0  0  0  0
   -1.5352    6.5024    1.4097 H   0  0  0  0  0  0  0  0  0  0  0  0
   -2.4523    5.1512    1.4070 H   0  0  0  0  0  0  0  0  0  0  0  0
   -1.0311    5.1717    2.2110 H   0  0  0  0  0  0  0  0  0  0  0  0
    2.4648    1.1827    1.6840 H   0  0  0  0  0  0  0  0  0  0  0  0
    1.0653    1.1637    2.5252 H   0  0  0  0  0  0  0  0  0  0  0  0
    2.2744    1.2922    4.5603 H   0  0  0  0  0  0  0  0  0  0  0  0
    2.7671   -0.0111    3.7086 H   0  0  0  0  0  0  0  0  0  0  0  0
    5.6830   -2.5734    5.7572 H   0  0  0  0  0  0  0  0  0  0  0  0
    6.2691   -3.8949    6.7112 H   0  0  0  0  0  0  0  0  0  0  0  0
  1  2  1  0  0  0  0
  2  3  1  0  0  0  0
  3  4  2  0  0  0  0
  4  5  1  0  0  0  0
  5  6  2  0  0  0  0
  6  7  1  0  0  0  0
  7  2  2  0  0  0  0
  5  8  1  0  0  0  0
  8  9  1  0  0  0  0
  9 10  1  0  0  0  0
 10 11  2  0  0  0  0
 10 12  1  0  0  0  0
 12 13  1  0  0  0  0
 13 14  1  0  0  0  0
 14 15  1  0  0  0  0
 15 16  1  0  0  0  0
 16 17  1  0  0  0  0
 17 18  1  0  0  0  0
 18 19  1  0  0  0  0
 19 20  1  0  0  0  0
 20 21  1  0  0  0  0
 20 22  1  0  0  0  0
 16 23  1  0  0  0  0
 23 24  1  0  0  0  0
 24 13  1  0  0  0  0
  8 25  1  0  0  0  0
 25 26  2  0  0  0  0
 25 27  1  0  0  0  0
  3 28  1  0  0  0  0
  4 29  1  0  0  0  0
  6 30  1  0  0  0  0
  7 31  1  0  0  0  0
  8 32  1  0  0  0  0
  9 33  1  0  0  0  0
 12 34  1  0  0  0  0
 13 35  1  0  0  0  0
 14 36  1  0  0  0  0
 14 37  1  0  0  0  0
 15 38  1  0  0  0  0
 15 39  1  0  0  0  0
 16 40  1  0  0  0  0
 18 41  1  0  0  0  0
 18 42  1  0  0  0  0
 19 43  1  0  0  0  0
 19 44  1  0  0  0  0
 20 45  1  0  0  0  0
 21 46  1  0  0  0  0
 21 47  1  0  0  0  0
 21 48  1  0  0  0  0
 22 49  1  0  0  0  0
 22 50  1  0  0  0  0
 22 51  1  0  0  0  0
 23 52  1  0  0  0  0
 23 53  1  0  0  0  0
 24 54  1  0  0  0  0
 24 55  1  0  0  0  0
 27 56  1  0  0  0  0
 27 57  1  0  0  0  0
M  END
>  <result-rank>
68

>  <similarity>
0.942

>  <query-name>
LIG_A_1101_CC(C)CC[C@]1([R*])CCCOC1_2

>  <query-smiles>
O=C(N[C@@]1(COCCC1)CCC(C)C)[C@@H](NC(=O)C)Cc2ccc(O)cc2

>  <source>
REALspace_2019-12

>  <similarity-descriptor>
0.969;0.910;0.995;1.000;0.993;1.000;1.000;1.000;1.000;1.000;1.000;0.836;0.836;0.969;0.0;0.071

>  <similarity-descriptor-smiles>
Clc1ccccc1;C1CCC(CC1)O;C=O;N;C;C;C;C;C;CN;CN;C=O;C=O;Clc1ccccc1;;N

>  <reaction-name>
s_512

>  <reagent1-name>
12222512

>  <reagent1-smiles>
[R1*]C(=O)NC1CCC(OCCC(C)C)CC1

>  <reagent2-name>
13941176

>  <reagent2-smiles>
[R1*]NC(c1ccc(Cl)cc1)C(=O)N

$$$$
s_22____8333288____10954548
          04022015103D 1   1.00000     0.00000     0
            
 56 58  0  0  0  0            999 V2000
    2.9700    2.0353    1.0906 O   0  0  0  0  0  0  0  0  0  0  0  0
    2.3700    1.0000    1.0000 C   0  0  0  0  0  0  0  0  0  0  0  0
    1.0000    1.0000    1.0000 N   0  0  0  0  0  0  0  0  0  0  0  0
    0.2628    2.2769    1.0000 C   0  0  3  0  0  0  0  0  0  0  0  0
   -0.6190    2.3785    2.2347 C   0  0  0  0  0  0  0  0  0  0  0  0
   -1.4001    3.6816    2.1739 C   0  0  3  0  0  0  0  0  0  0  0  0
   -2.1999    3.7517    0.9997 O   0  0  0  0  0  0  0  0  0  0  0  0
   -1.4235    3.6628   -0.1873 C   0  0  0  0  0  0  0  0  0  0  0  0
   -0.6296    2.3656   -0.2284 C   0  0  0  0  0  0  0  0  0  0  0  0
   -2.2437    3.7757    3.4352 C   0  0  0  0  0  0  0  0  0  0  0  0
   -2.9939    5.0976    3.4456 C   0  0  0  0  0  0  0  0  0  0  0  0
   -3.8374    5.1917    4.7066 C   0  0  0  0  0  0  0  0  0  0  0  0
   -1.9981    6.2456    3.4153 C   0  0  0  0  0  0  0  0  0  0  0  0
    3.1300   -0.3113    0.8853 C   0  0  0  0  0  0  0  0  0  0  0  0
    4.5670   -0.1053    1.3359 C   0  0  3  0  0  0  0  0  0  0  0  0
    4.5936    0.1832    2.8281 C   0  0  0  0  0  0  0  0  0  0  0  0
    5.3892    1.2170    3.3112 C   0  0  0  0  0  0  0  0  0  0  0  0
    5.4161    1.4850    4.6757 C   0  0  0  0  0  0  0  0  0  0  0  0
    4.6455    0.7148    5.5409 C   0  0  0  0  0  0  0  0  0  0  0  0
    4.6689    0.9714    6.8659 O   0  0  0  0  0  0  0  0  0  0  0  0
    3.8484   -0.3204    5.0630 C   0  0  0  0  0  0  0  0  0  0  0  0
    3.8249   -0.5838    3.6975 C   0  0  0  0  0  0  0  0  0  0  0  0
    5.3736   -1.3618    1.0480 C   0  0  0  0  0  0  0  0  0  0  0  0
    5.3698   -1.6785   -0.4190 C   0  0  0  0  0  0  0  0  0  0  0  0
    4.5222   -2.4825    0.5247 C   0  0  0  0  0  0  0  0  0  0  0  0
    0.5000    0.1340    1.0000 H   0  0  0  0  0  0  0  0  0  0  0  0
    0.9136    3.0361    0.9933 H   0  0  0  0  0  0  0  0  0  0  0  0
   -1.2544    1.6067    2.2582 H   0  0  0  0  0  0  0  0  0  0  0  0
   -0.0492    2.3663    3.0564 H   0  0  0  0  0  0  0  0  0  0  0  0
   -0.7518    4.4430    2.1652 H   0  0  0  0  0  0  0  0  0  0  0  0
   -0.7889    4.4350   -0.2208 H   0  0  0  0  0  0  0  0  0  0  0  0
   -2.0330    3.6976   -0.9794 H   0  0  0  0  0  0  0  0  0  0  0  0
   -1.2600    1.5895   -0.2390 H   0  0  0  0  0  0  0  0  0  0  0  0
   -0.0642    2.3471   -1.0530 H   0  0  0  0  0  0  0  0  0  0  0  0
   -1.6499    3.7231    4.2381 H   0  0  0  0  0  0  0  0  0  0  0  0
   -2.8989    3.0205    3.4552 H   0  0  0  0  0  0  0  0  0  0  0  0
   -3.5877    5.1502    2.6427 H   0  0  0  0  0  0  0  0  0  0  0  0
   -4.3309    6.0614    4.7134 H   0  0  0  0  0  0  0  0  0  0  0  0
   -4.4925    4.4365    4.7265 H   0  0  0  0  0  0  0  0  0  0  0  0
   -3.2436    5.1391    5.5095 H   0  0  0  0  0  0  0  0  0  0  0  0
   -2.4917    7.1153    3.4221 H   0  0  0  0  0  0  0  0  0  0  0  0
   -1.4043    6.1930    4.2182 H   0  0  0  0  0  0  0  0  0  0  0  0
   -1.4432    6.1837    2.5857 H   0  0  0  0  0  0  0  0  0  0  0  0
    3.1199   -0.6203   -0.0657 H   0  0  0  0  0  0  0  0  0  0  0  0
    2.6947   -1.0007    1.4643 H   0  0  0  0  0  0  0  0  0  0  0  0
    4.9643    0.6669    0.8400 H   0  0  0  0  0  0  0  0  0  0  0  0
    5.9390    1.7647    2.6805 H   0  0  0  0  0  0  0  0  0  0  0  0
    5.9853    2.2259    5.0322 H   0  0  0  0  0  0  0  0  0  0  0  0
    4.1167    0.4205    7.4917 H   0  0  0  0  0  0  0  0  0  0  0  0
    3.2990   -0.8685    5.6936 H   0  0  0  0  0  0  0  0  0  0  0  0
    3.2555   -1.3244    3.3408 H   0  0  0  0  0  0  0  0  0  0  0  0
    6.1827   -1.5686    1.5981 H   0  0  0  0  0  0  0  0  0  0  0  0
    6.1755   -2.0920   -0.8433 H   0  0  0  0  0  0  0  0  0  0  0  0
    4.9388   -1.0489   -1.0653 H   0  0  0  0  0  0  0  0  0  0  0  0
    3.5268   -2.3882    0.5070 H   0  0  0  0  0  0  0  0  0  0  0  0
    4.7635   -3.4313    0.7290 H   0  0  0  0  0  0  0  0  0  0  0  0
  1  2  2  0  0  0  0
  2  3  1  0  0  0  0
  3  4  1  0  0  0  0
  4  5  1  0  0  0  0
  5  6  1  0  0  0  0
  6  7  1  0  0  0  0
  7  8  1  0  0  0  0
  8  9  1  0  0  0  0
  9  4  1  0  0  0  0
  6 10  1  0  0  0  0
 10 11  1  0  0  0  0
 11 12  1  0  0  0  0
 11 13  1  0  0  0  0
  2 14  1  0  0  0  0
 14 15  1  0  0  0  0
 15 16  1  0  0  0  0
 16 17  1  0  0  0  0
 17 18  2  0  0  0  0
 18 19  1  0  0  0  0
 19 20  1  0  0  0  0
 19 21  2  0  0  0  0
 21 22  1  0  0  0  0
 22 16  2  0  0  0  0
 15 23  1  0  0  0  0
 23 24  1  0  0  0  0
 24 25  1  0  0  0  0
 25 23  1  0  0  0  0
  3 26  1  0  0  0  0
  4 27  1  0  0  0  0
  5 28  1  0  0  0  0
  5 29  1  0  0  0  0
  6 30  1  0  0  0  0
  8 31  1  0  0  0  0
  8 32  1  0  0  0  0
  9 33  1  0  0  0  0
  9 34  1  0  0  0  0
 10 35  1  0  0  0  0
 10 36  1  0  0  0  0
 11 37  1  0  0  0  0
 12 38  1  0  0  0  0
 12 39  1  0  0  0  0
 12 40  1  0  0  0  0
 13 41  1  0  0  0  0
 13 42  1  0  0  0  0
 13 43  1  0  0  0  0
 14 44  1  0  0  0  0
 14 45  1  0  0  0  0
 15 46  1  0  0  0  0
 17 47  1  0  0  0  0
 18 48  1  0  0  0  0
 20 49  1  0  0  0  0
 21 50  1  0  0  0  0
 22 51  1  0  0  0  0
 23 52  1  0  0  0  0
 24 53  1  0  0  0  0
 24 54  1  0  0  0  0
 25 55  1  0  0  0  0
 25 56  1  0  0  0  0
M  END
>  <result-rank>
69

>  <similarity>
0.942

>  <query-name>
LIG_A_1101_CC(C)CC[C@]1([R*])CCCOC1_2

>  <query-smiles>
O=C(N[C@@]1(COCCC1)CCC(C)C)[C@@H](NC(=O)C)Cc2ccc(O)cc2

>  <source>
REALspace_2019-12

>  <similarity-descriptor>
1.000;0.971;1.000;1.000;0.971;1.000;1.000;1.000;1.000;0.938;0.0;0.0;0.0;0.928;1.000;0.083

>  <similarity-descriptor-smiles>
c1ccccc1;C1CCOCC1;O=C;N;C1CCOCC1;C;C;C;C;C;;;;C;O;C1CC1

>  <reaction-name>
s_22

>  <reagent1-name>
8333288

>  <reagent1-smiles>
[R1*]NC1CC(OCC1)CC(C)C

>  <reagent2-name>
10954548

>  <reagent2-smiles>
[R1*]C(=O)CC(c1ccc(O)cc1)C2CC2

$$$$
s_22____9398024____17513450
          04022015103D 1   1.00000     0.00000     0
            
 64 66  0  0  0  0            999 V2000
    0.8607    0.6446    3.1943 O   0  0  0  0  0  0  0  0  0  0  0  0
    0.3150    1.0000    2.1865 C   0  0  0  0  0  0  0  0  0  0  0  0
    1.0000    1.0000    1.0000 N   0  0  0  0  0  0  0  0  0  0  0  0
    2.4700    1.0000    1.0000 C   0  0  0  0  0  0  0  0  0  0  0  0
    2.9784    2.4326    1.1253 C   0  0  0  0  0  0  0  0  0  0  0  0
    2.1608    3.4079    0.3840 N   0  3  0  0  0  0  0  0  0  0  0  0
    2.5144    4.7913    0.7361 C   0  0  0  0  0  0  0  0  0  0  0  0
    1.6500    5.7696   -0.0431 C   0  0  0  0  0  0  0  0  0  0  0  0
    1.7819    5.5456   -1.4397 O   0  0  0  0  0  0  0  0  0  0  0  0
    1.4324    4.2170   -1.8036 C   0  0  0  0  0  0  0  0  0  0  0  0
    2.2967    3.2055   -1.0668 C   0  0  0  0  0  0  0  0  0  0  0  0
    4.4510    2.6325    0.8597 C   0  0  0  0  0  0  0  0  0  0  0  0
    4.6963    2.2691    2.3091 C   0  0  3  0  0  0  0  0  0  0  0  0
    5.7222    3.0588    2.8941 O   0  0  0  0  0  0  0  0  0  0  0  0
    5.6767    2.9229    4.3069 C   0  0  0  0  0  0  0  0  0  0  0  0
    6.7743    3.7678    4.9328 C   0  0  0  0  0  0  0  0  0  0  0  0
    3.3349    2.8767    2.5267 C   0  0  0  0  0  0  0  0  0  0  0  0
   -1.1362    1.4502    2.2261 C   0  0  3  0  0  0  0  0  0  0  0  0
   -1.6403    1.3584    3.6040 N   0  0  0  0  0  0  0  0  0  0  0  0
   -2.0996    2.4806    4.2416 C   0  0  0  0  0  0  0  0  0  0  0  0
   -2.0906    3.5385    3.6753 O   0  0  0  0  0  0  0  0  0  0  0  0
   -2.6208    2.3856    5.6663 C   0  0  0  0  0  0  0  0  0  0  0  0
   -1.9689    0.5566    1.3214 C   0  0  0  0  0  0  0  0  0  0  0  0
   -3.4202    1.0068    1.3611 C   0  0  0  0  0  0  0  0  0  0  0  0
   -3.8669    1.9579    0.4496 C   0  0  0  0  0  0  0  0  0  0  0  0
   -5.1942    2.3723    0.4817 C   0  0  0  0  0  0  0  0  0  0  0  0
   -6.0592    1.8290    1.4262 C   0  0  0  0  0  0  0  0  0  0  0  0
   -7.3481    2.2286    1.4611 O   0  0  0  0  0  0  0  0  0  0  0  0
   -5.6175    0.8778    2.3403 C   0  0  0  0  0  0  0  0  0  0  0  0
   -4.2894    0.4667    2.3034 C   0  0  0  0  0  0  0  0  0  0  0  0
    1.2028    3.2603    0.6297 H   0  0  0  0  0  0  0  0  0  0  0  0
    0.5000    1.0000    0.1340 H   0  0  0  0  0  0  0  0  0  0  0  0
    2.8033    0.6016    0.1455 H   0  0  0  0  0  0  0  0  0  0  0  0
    2.8033    0.4592    1.7723 H   0  0  0  0  0  0  0  0  0  0  0  0
    3.4764    4.9525    0.5155 H   0  0  0  0  0  0  0  0  0  0  0  0
    2.3692    4.9301    1.7157 H   0  0  0  0  0  0  0  0  0  0  0  0
    0.6935    5.6465    0.2212 H   0  0  0  0  0  0  0  0  0  0  0  0
    1.9369    6.7037    0.1691 H   0  0  0  0  0  0  0  0  0  0  0  0
    1.5625    4.1026   -2.7885 H   0  0  0  0  0  0  0  0  0  0  0  0
    0.4726    4.0565   -1.5733 H   0  0  0  0  0  0  0  0  0  0  0  0
    2.0014    2.2799   -1.3032 H   0  0  0  0  0  0  0  0  0  0  0  0
    3.2530    3.3283   -1.3323 H   0  0  0  0  0  0  0  0  0  0  0  0
    4.7073    3.5677    0.6154 H   0  0  0  0  0  0  0  0  0  0  0  0
    4.8454    1.9951    0.1978 H   0  0  0  0  0  0  0  0  0  0  0  0
    4.7577    1.2886    2.4958 H   0  0  0  0  0  0  0  0  0  0  0  0
    5.8128    1.9635    4.5540 H   0  0  0  0  0  0  0  0  0  0  0  0
    4.7866    3.2306    4.6429 H   0  0  0  0  0  0  0  0  0  0  0  0
    6.7423    3.6721    5.9277 H   0  0  0  0  0  0  0  0  0  0  0  0
    7.6645    3.4601    4.5968 H   0  0  0  0  0  0  0  0  0  0  0  0
    6.6383    4.7272    4.6857 H   0  0  0  0  0  0  0  0  0  0  0  0
    2.7967    2.4440    3.2500 H   0  0  0  0  0  0  0  0  0  0  0  0
    3.3380    3.8677    2.6612 H   0  0  0  0  0  0  0  0  0  0  0  0
   -1.2004    2.3968    1.9102 H   0  0  0  0  0  0  0  0  0  0  0  0
   -1.6479    0.4767    4.0759 H   0  0  0  0  0  0  0  0  0  0  0  0
   -2.5567    1.4390    5.9822 H   0  0  0  0  0  0  0  0  0  0  0  0
   -2.0730    2.9735    6.2615 H   0  0  0  0  0  0  0  0  0  0  0  0
   -3.5756    2.6818    5.6924 H   0  0  0  0  0  0  0  0  0  0  0  0
   -1.6260    0.6191    0.3841 H   0  0  0  0  0  0  0  0  0  0  0  0
   -1.9048   -0.3900    1.6374 H   0  0  0  0  0  0  0  0  0  0  0  0
   -3.2368    2.3417   -0.2255 H   0  0  0  0  0  0  0  0  0  0  0  0
   -5.5243    3.0558   -0.1694 H   0  0  0  0  0  0  0  0  0  0  0  0
   -7.9736    1.8409    2.1382 H   0  0  0  0  0  0  0  0  0  0  0  0
   -6.2473    0.4943    3.0157 H   0  0  0  0  0  0  0  0  0  0  0  0
   -3.9593   -0.2170    2.9542 H   0  0  0  0  0  0  0  0  0  0  0  0
  1  2  2  0  0  0  0
  2  3  1  0  0  0  0
  3  4  1  0  0  0  0
  4  5  1  0  0  0  0
  5  6  1  0  0  0  0
  6  7  1  0  0  0  0
  7  8  1  0  0  0  0
  8  9  1  0  0  0  0
  9 10  1  0  0  0  0
 10 11  1  0  0  0  0
 11  6  1  0  0  0  0
  5 12  1  0  0  0  0
 12 13  1  0  0  0  0
 13 14  1  0  0  0  0
 14 15  1  0  0  0  0
 15 16  1  0  0  0  0
 13 17  1  0  0  0  0
 17  5  1  0  0  0  0
  2 18  1  0  0  0  0
 18 19  1  0  0  0  0
 19 20  1  0  0  0  0
 20 21  2  0  0  0  0
 20 22  1  0  0  0  0
 18 23  1  0  0  0  0
 23 24  1  0  0  0  0
 24 25  1  0  0  0  0
 25 26  2  0  0  0  0
 26 27  1  0  0  0  0
 27 28  1  0  0  0  0
 27 29  2  0  0  0  0
 29 30  1  0  0  0  0
 30 24  2  0  0  0  0
  6 31  1  0  0  0  0
  3 32  1  0  0  0  0
  4 33  1  0  0  0  0
  4 34  1  0  0  0  0
  7 35  1  0  0  0  0
  7 36  1  0  0  0  0
  8 37  1  0  0  0  0
  8 38  1  0  0  0  0
 10 39  1  0  0  0  0
 10 40  1  0  0  0  0
 11 41  1  0  0  0  0
 11 42  1  0  0  0  0
 12 43  1  0  0  0  0
 12 44  1  0  0  0  0
 13 45  1  0  0  0  0
 15 46  1  0  0  0  0
 15 47  1  0  0  0  0
 16 48  1  0  0  0  0
 16 49  1  0  0  0  0
 16 50  1  0  0  0  0
 17 51  1  0  0  0  0
 17 52  1  0  0  0  0
 18 53  1  0  0  0  0
 19 54  1  0  0  0  0
 22 55  1  0  0  0  0
 22 56  1  0  0  0  0
 22 57  1  0  0  0  0
 23 58  1  0  0  0  0
 23 59  1  0  0  0  0
 25 60  1  0  0  0  0
 26 61  1  0  0  0  0
 28 62  1  0  0  0  0
 29 63  1  0  0  0  0
 30 64  1  0  0  0  0
M  CHG  1   6   1
M  END
>  <result-rank>
70

>  <similarity>
0.941

>  <query-name>
LIG_A_1101_CC(C)CC[C@]1([R*])CCCOC1_2

>  <query-smiles>
O=C(N[C@@]1(COCCC1)CCC(C)C)[C@@H](NC(=O)C)Cc2ccc(O)cc2

>  <source>
REALspace_2019-12

>  <similarity-descriptor>
1.000;0.987;1.000;1.000;0.993;0.949;0.0;0.0;0.0;1.000;1.000;1.000;1.000;1.000;1.000;0.067

>  <similarity-descriptor-smiles>
c1ccccc1;CC1CC(C1)O;O=C;N;C;C;;;;C;N;C=O;C;C;O;[NH+]1CCOCC1

>  <reaction-name>
s_22

>  <reagent1-name>
9398024

>  <reagent1-smiles>
[R1*]NCC1(N2CCOCC2)CC(OCC)C1

>  <reagent2-name>
17513450

>  <reagent2-smiles>
[R1*]C(=O)C(NC(=O)C)Cc1ccc(O)cc1

$$$$
s_22____7284248____3192126
          04022015103D 1   1.00000     0.00000     0
            
 62 63  0  0  0  0            999 V2000
    2.5142   -0.7694    0.6117 O   0  0  0  0  0  0  0  0  0  0  0  0
    1.8776    0.1224    0.1224 C   0  0  0  0  0  0  0  0  0  0  0  0
    1.9417    0.3496   -1.2271 N   0  0  0  0  0  0  0  0  0  0  0  0
    2.7018   -0.5643   -2.0906 C   0  0  3  0  0  0  0  0  0  0  0  0
    3.8633    0.1180   -2.7835 C   0  0  0  0  0  0  0  0  0  0  0  0
    3.4891   -0.7394   -3.9762 C   0  0  3  0  0  0  0  0  0  0  0  0
    3.6179   -0.0523   -5.2122 O   0  0  0  0  0  0  0  0  0  0  0  0
    3.8719   -0.9880   -6.2497 C   0  0  0  0  0  0  0  0  0  0  0  0
    2.0713   -0.7231   -3.4537 C   0  0  0  0  0  0  0  0  0  0  0  0
    5.2156   -0.2415   -2.1899 C   0  0  0  0  0  0  0  0  0  0  0  0
    5.0276   -1.2728   -1.0892 C   0  0  0  0  0  0  0  0  0  0  0  0
    3.6945    1.6171   -2.9817 C   0  0  0  0  0  0  0  0  0  0  0  0
    4.7151    2.3584   -2.1336 C   0  0  0  0  0  0  0  0  0  0  0  0
    1.0000    1.0000    1.0000 C   0  0  0  0  0  0  0  0  0  0  0  0
    1.8776    1.8776    1.8776 C   0  0  3  0  0  0  0  0  0  0  0  0
    1.1805    2.1605    3.1405 N   0  0  0  0  0  0  0  0  0  0  0  0
    1.7378    1.7763    4.3315 C   0  0  0  0  0  0  0  0  0  0  0  0
    2.7951    1.2088    4.3439 O   0  0  0  0  0  0  0  0  0  0  0  0
    1.0170    2.0688    5.6374 C   0  0  0  0  0  0  0  0  0  0  0  0
    2.1702    3.1838    1.1565 C   0  0  0  0  0  0  0  0  0  0  0  0
    3.3641    3.8575    1.3948 C   0  0  0  0  0  0  0  0  0  0  0  0
    4.2734    3.3656    2.2635 O   0  0  0  0  0  0  0  0  0  0  0  0
    5.6501    3.6730    2.1002 C   0  0  0  0  0  0  0  0  0  0  0  0
    6.4535    3.0008    3.2016 C   0  0  0  0  0  0  0  0  0  0  0  0
    3.6318    5.0529    0.7352 C   0  0  0  0  0  0  0  0  0  0  0  0
    2.7057    5.5742   -0.1631 C   0  0  0  0  0  0  0  0  0  0  0  0
    1.5123    4.8999   -0.4015 C   0  0  0  0  0  0  0  0  0  0  0  0
    1.2450    3.7046    0.2579 C   0  0  0  0  0  0  0  0  0  0  0  0
    1.4712    1.1375   -1.6244 H   0  0  0  0  0  0  0  0  0  0  0  0
    2.9431   -1.4300   -1.6520 H   0  0  0  0  0  0  0  0  0  0  0  0
    3.9116   -1.6457   -3.9713 H   0  0  0  0  0  0  0  0  0  0  0  0
    3.9627   -0.5041   -7.1201 H   0  0  0  0  0  0  0  0  0  0  0  0
    4.7189   -1.4819   -6.0531 H   0  0  0  0  0  0  0  0  0  0  0  0
    3.1132   -1.6368   -6.3066 H   0  0  0  0  0  0  0  0  0  0  0  0
    1.5601   -1.5720   -3.5881 H   0  0  0  0  0  0  0  0  0  0  0  0
    1.5165    0.0516   -3.7571 H   0  0  0  0  0  0  0  0  0  0  0  0
    5.6411    0.5792   -1.8086 H   0  0  0  0  0  0  0  0  0  0  0  0
    5.8033   -0.6203   -2.9048 H   0  0  0  0  0  0  0  0  0  0  0  0
    5.9173   -1.5093   -0.6986 H   0  0  0  0  0  0  0  0  0  0  0  0
    4.4399   -0.8940   -0.3743 H   0  0  0  0  0  0  0  0  0  0  0  0
    4.6021   -2.0935   -1.4704 H   0  0  0  0  0  0  0  0  0  0  0  0
    2.7722    1.8880   -2.7060 H   0  0  0  0  0  0  0  0  0  0  0  0
    3.8344    1.8438   -3.9456 H   0  0  0  0  0  0  0  0  0  0  0  0
    4.6042    3.3436   -2.2639 H   0  0  0  0  0  0  0  0  0  0  0  0
    4.5753    2.1317   -1.1697 H   0  0  0  0  0  0  0  0  0  0  0  0
    5.6374    2.0875   -2.4093 H   0  0  0  0  0  0  0  0  0  0  0  0
    0.4226    0.4226    1.5774 H   0  0  0  0  0  0  0  0  0  0  0  0
    0.4226    1.5774    0.4226 H   0  0  0  0  0  0  0  0  0  0  0  0
    2.7367    1.4034    2.0700 H   0  0  0  0  0  0  0  0  0  0  0  0
    0.2994    2.6334    3.1302 H   0  0  0  0  0  0  0  0  0  0  0  0
    0.1579    2.5430    5.4449 H   0  0  0  0  0  0  0  0  0  0  0  0
    0.8246    1.2097    6.1116 H   0  0  0  0  0  0  0  0  0  0  0  0
    1.5944    2.6461    6.2147 H   0  0  0  0  0  0  0  0  0  0  0  0
    5.7788    4.6634    2.1507 H   0  0  0  0  0  0  0  0  0  0  0  0
    5.9624    3.3413    1.2100 H   0  0  0  0  0  0  0  0  0  0  0  0
    7.4230    3.2173    3.0866 H   0  0  0  0  0  0  0  0  0  0  0  0
    6.1412    3.3325    4.0918 H   0  0  0  0  0  0  0  0  0  0  0  0
    6.3248    2.0104    3.1511 H   0  0  0  0  0  0  0  0  0  0  0  0
    4.4897    5.5374    0.9066 H   0  0  0  0  0  0  0  0  0  0  0  0
    2.8980    6.4334   -0.6372 H   0  0  0  0  0  0  0  0  0  0  0  0
    0.8467    5.2745   -1.0470 H   0  0  0  0  0  0  0  0  0  0  0  0
    0.3876    3.2196    0.0859 H   0  0  0  0  0  0  0  0  0  0  0  0
  1  2  2  0  0  0  0
  2  3  1  0  0  0  0
  3  4  1  0  0  0  0
  4  5  1  0  0  0  0
  5  6  1  0  0  0  0
  6  7  1  0  0  0  0
  7  8  1  0  0  0  0
  6  9  1  0  0  0  0
  9  4  1  0  0  0  0
  5 10  1  0  0  0  0
 10 11  1  0  0  0  0
  5 12  1  0  0  0  0
 12 13  1  0  0  0  0
  2 14  1  0  0  0  0
 14 15  1  0  0  0  0
 15 16  1  0  0  0  0
 16 17  1  0  0  0  0
 17 18  2  0  0  0  0
 17 19  1  0  0  0  0
 15 20  1  0  0  0  0
 20 21  1  0  0  0  0
 21 22  1  0  0  0  0
 22 23  1  0  0  0  0
 23 24  1  0  0  0  0
 21 25  2  0  0  0  0
 25 26  1  0  0  0  0
 26 27  2  0  0  0  0
 27 28  1  0  0  0  0
 28 20  2  0  0  0  0
  3 29  1  0  0  0  0
  4 30  1  0  0  0  0
  6 31  1  0  0  0  0
  8 32  1  0  0  0  0
  8 33  1  0  0  0  0
  8 34  1  0  0  0  0
  9 35  1  0  0  0  0
  9 36  1  0  0  0  0
 10 37  1  0  0  0  0
 10 38  1  0  0  0  0
 11 39  1  0  0  0  0
 11 40  1  0  0  0  0
 11 41  1  0  0  0  0
 12 42  1  0  0  0  0
 12 43  1  0  0  0  0
 13 44  1  0  0  0  0
 13 45  1  0  0  0  0
 13 46  1  0  0  0  0
 14 47  1  0  0  0  0
 14 48  1  0  0  0  0
 15 49  1  0  0  0  0
 16 50  1  0  0  0  0
 19 51  1  0  0  0  0
 19 52  1  0  0  0  0
 19 53  1  0  0  0  0
 23 54  1  0  0  0  0
 23 55  1  0  0  0  0
 24 56  1  0  0  0  0
 24 57  1  0  0  0  0
 24 58  1  0  0  0  0
 25 59  1  0  0  0  0
 26 60  1  0  0  0  0
 27 61  1  0  0  0  0
 28 62  1  0  0  0  0
M  END
>  <result-rank>
71

>  <similarity>
0.941

>  <query-name>
LIG_A_1101_CC(C)CC[C@]1([R*])CCCOC1_2

>  <query-smiles>
O=C(N[C@@]1(COCCC1)CCC(C)C)[C@@H](NC(=O)C)Cc2ccc(O)cc2

>  <source>
REALspace_2019-12

>  <similarity-descriptor>
1.000;0.988;1.000;1.000;1.000;0.949;0.0;0.0;0.0;1.000;1.000;1.000;1.000;1.000;0.704;0.222

>  <similarity-descriptor-smiles>
c1ccccc1;C1CC(C1)OC;O=C;N;C;C;;;;CC;N;C=O;C;CC;O;C.C.C.C

>  <reaction-name>
s_22

>  <reagent1-name>
7284248

>  <reagent1-smiles>
[R1*]NC1C(C(OC)C1)(CC)CC

>  <reagent2-name>
3192126

>  <reagent2-smiles>
[R1*]C(=O)CC(NC(=O)C)c1c(OCC)cccc1

$$$$
s_2708____9281468____5535004
          04022015103D 1   1.00000     0.00000     0
            
 58 60  0  0  0  0            999 V2000
    2.9700    2.0392    1.0000 O   0  0  0  0  0  0  0  0  0  0  0  0
    2.3700    1.0000    1.0000 C   0  0  0  0  0  0  0  0  0  0  0  0
    1.0000    1.0000    1.0000 N   0  0  0  0  0  0  0  0  0  0  0  0
    0.2650   -0.2731    1.0000 C   0  0  0  0  0  0  0  0  0  0  0  0
    0.0116   -0.7119    2.4334 C   0  0  0  0  0  0  0  0  0  0  0  0
   -1.1497   -0.3067    3.0830 C   0  0  0  0  0  0  0  0  0  0  0  0
   -1.3772   -0.7098    4.3948 C   0  0  0  0  0  0  0  0  0  0  0  0
   -0.4476   -1.5133    5.0467 C   0  0  0  0  0  0  0  0  0  0  0  0
    0.7086   -1.9124    4.3877 C   0  0  0  0  0  0  0  0  0  0  0  0
    0.9480   -1.5154    3.0762 C   0  0  0  0  0  0  0  0  0  0  0  0
    0.2650    2.2731    1.0000 C   0  0  0  0  0  0  0  0  0  0  0  0
    0.0117    2.7118   -0.4331 C   0  0  3  0  0  0  0  0  0  0  0  0
    1.2524    2.8816   -1.1025 O   0  0  0  0  0  0  0  0  0  0  0  0
   -0.7483    4.0282   -0.4331 C   0  0  0  0  0  0  0  0  0  0  0  0
    3.0550   -0.1865    1.0000 N   0  0  0  0  0  0  0  0  0  0  0  0
    4.5250   -0.1865    1.0000 C   0  0  0  0  0  0  0  0  0  0  0  0
    5.0328   -0.1865    2.4363 C   0  0  3  0  0  0  0  0  0  0  0  0
    4.5758   -1.3361    3.1349 O   0  0  0  0  0  0  0  0  0  0  0  0
    5.5826   -1.7959    4.0328 C   0  0  0  0  0  0  0  0  0  0  0  0
    6.7382   -0.8222    3.8371 C   0  0  0  0  0  0  0  0  0  0  0  0
    6.5403   -0.3331    2.4155 C   0  0  0  0  0  0  0  0  0  0  0  0
    5.1587   -1.7619    5.4945 C   0  0  0  0  0  0  0  0  0  0  0  0
    3.9770   -2.6896    5.7274 C   0  0  0  0  0  0  0  0  0  0  0  0
    4.3412   -4.1213    5.3688 C   0  0  0  0  0  0  0  0  0  0  0  0
    4.8081   -4.1871    3.9229 C   0  0  0  0  0  0  0  0  0  0  0  0
    5.9802   -3.2354    3.7429 C   0  0  0  0  0  0  0  0  0  0  0  0
    0.8054   -0.9700    0.5286 H   0  0  0  0  0  0  0  0  0  0  0  0
   -0.6088   -0.1535    0.5286 H   0  0  0  0  0  0  0  0  0  0  0  0
   -1.8160    0.2702    2.6105 H   0  0  0  0  0  0  0  0  0  0  0  0
   -2.2092   -0.4219    4.8692 H   0  0  0  0  0  0  0  0  0  0  0  0
   -0.6115   -1.8036    5.9895 H   0  0  0  0  0  0  0  0  0  0  0  0
    1.3743   -2.4899    4.8602 H   0  0  0  0  0  0  0  0  0  0  0  0
    1.7805   -1.8032    2.6026 H   0  0  0  0  0  0  0  0  0  0  0  0
    0.8054    2.9700    1.4714 H   0  0  0  0  0  0  0  0  0  0  0  0
   -0.6088    2.1535    1.4714 H   0  0  0  0  0  0  0  0  0  0  0  0
   -0.5288    2.0149   -0.9045 H   0  0  0  0  0  0  0  0  0  0  0  0
    1.0858    3.1703   -2.0453 H   0  0  0  0  0  0  0  0  0  0  0  0
   -1.6221    3.9086    0.0383 H   0  0  0  0  0  0  0  0  0  0  0  0
   -0.2079    4.7251    0.0383 H   0  0  0  0  0  0  0  0  0  0  0  0
   -0.9150    4.3169   -1.3759 H   0  0  0  0  0  0  0  0  0  0  0  0
    2.5550   -1.0525    1.0000 H   0  0  0  0  0  0  0  0  0  0  0  0
    4.8583    0.6300    0.5286 H   0  0  0  0  0  0  0  0  0  0  0  0
    4.8583   -1.0030    0.5286 H   0  0  0  0  0  0  0  0  0  0  0  0
    4.7619    0.6510    2.9109 H   0  0  0  0  0  0  0  0  0  0  0  0
    7.6187   -1.2855    3.9380 H   0  0  0  0  0  0  0  0  0  0  0  0
    6.6834   -0.0650    4.4880 H   0  0  0  0  0  0  0  0  0  0  0  0
    7.0014    0.5385    2.2493 H   0  0  0  0  0  0  0  0  0  0  0  0
    6.8442   -1.0050    1.7401 H   0  0  0  0  0  0  0  0  0  0  0  0
    4.8976   -0.8282    5.7399 H   0  0  0  0  0  0  0  0  0  0  0  0
    5.9250   -2.0548    6.0664 H   0  0  0  0  0  0  0  0  0  0  0  0
    3.2098   -2.3935    5.1585 H   0  0  0  0  0  0  0  0  0  0  0  0
    3.7127   -2.6494    6.6910 H   0  0  0  0  0  0  0  0  0  0  0  0
    3.5392   -4.7071    5.4857 H   0  0  0  0  0  0  0  0  0  0  0  0
    5.0754   -4.4376    5.9695 H   0  0  0  0  0  0  0  0  0  0  0  0
    5.0958   -5.1196    3.7047 H   0  0  0  0  0  0  0  0  0  0  0  0
    4.0605   -3.9182    3.3157 H   0  0  0  0  0  0  0  0  0  0  0  0
    6.7134   -3.5018    4.3685 H   0  0  0  0  0  0  0  0  0  0  0  0
    6.3073   -3.2981    2.8000 H   0  0  0  0  0  0  0  0  0  0  0  0
  1  2  2  0  0  0  0
  2  3  1  0  0  0  0
  3  4  1  0  0  0  0
  4  5  1  0  0  0  0
  5  6  1  0  0  0  0
  6  7  2  0  0  0  0
  7  8  1  0  0  0  0
  8  9  2  0  0  0  0
  9 10  1  0  0  0  0
 10  5  2  0  0  0  0
  3 11  1  0  0  0  0
 11 12  1  0  0  0  0
 12 13  1  0  0  0  0
 12 14  1  0  0  0  0
  2 15  1  0  0  0  0
 15 16  1  0  0  0  0
 16 17  1  0  0  0  0
 17 18  1  0  0  0  0
 18 19  1  0  0  0  0
 19 20  1  0  0  0  0
 20 21  1  0  0  0  0
 21 17  1  0  0  0  0
 19 22  1  0  0  0  0
 22 23  1  0  0  0  0
 23 24  1  0  0  0  0
 24 25  1  0  0  0  0
 25 26  1  0  0  0  0
 26 19  1  0  0  0  0
  4 27  1  0  0  0  0
  4 28  1  0  0  0  0
  6 29  1  0  0  0  0
  7 30  1  0  0  0  0
  8 31  1  0  0  0  0
  9 32  1  0  0  0  0
 10 33  1  0  0  0  0
 11 34  1  0  0  0  0
 11 35  1  0  0  0  0
 12 36  1  0  0  0  0
 13 37  1  0  0  0  0
 14 38  1  0  0  0  0
 14 39  1  0  0  0  0
 14 40  1  0  0  0  0
 15 41  1  0  0  0  0
 16 42  1  0  0  0  0
 16 43  1  0  0  0  0
 17 44  1  0  0  0  0
 20 45  1  0  0  0  0
 20 46  1  0  0  0  0
 21 47  1  0  0  0  0
 21 48  1  0  0  0  0
 22 49  1  0  0  0  0
 22 50  1  0  0  0  0
 23 51  1  0  0  0  0
 23 52  1  0  0  0  0
 24 53  1  0  0  0  0
 24 54  1  0  0  0  0
 25 55  1  0  0  0  0
 25 56  1  0  0  0  0
 26 57  1  0  0  0  0
 26 58  1  0  0  0  0
M  END
>  <result-rank>
72

>  <similarity>
0.941

>  <query-name>
LIG_A_1101_CC(C)CC[C@]1([R*])CCCOC1_2

>  <query-smiles>
O=C(N[C@@]1(COCCC1)CCC(C)C)[C@@H](NC(=O)C)Cc2ccc(O)cc2

>  <source>
REALspace_2019-12

>  <similarity-descriptor>
0.960;0.982;0.995;1.000;0.895;0.895;0.895;0.895;0.895;0.953;0.856;0.856;1.000;0.953;0.0;0.0

>  <similarity-descriptor-smiles>
c1ccccc1;CC1CCCO1;O=C;N;C1CCCCC1;C1CCCCC1;C1CCCCC1;C1CCCCC1;C1CCCCC1;N(C)C;CO;CO;C;N(C)C;;

>  <reaction-name>
s_2708

>  <reagent1-name>
9281468

>  <reagent1-smiles>
[R1*]C(=O)NCC1OC2(CC1)CCCCC2

>  <reagent2-name>
5535004

>  <reagent2-smiles>
[R1*]N(Cc1ccccc1)CC(O)C

$$$$
s_2430a____14422408____8643028
          04022015103D 1   1.00000     0.00000     0
            
 46 47  0  0  0  0            999 V2000
   -1.8654    3.2942    3.2811 F   0  0  0  0  0  0  0  0  0  0  0  0
   -2.6586    2.2533    3.5168 C   0  0  0  0  0  0  0  0  0  0  0  0
   -3.5458    2.1808    2.5267 F   0  0  0  0  0  0  0  0  0  0  0  0
   -1.7895    1.0000    3.4586 C   0  0  3  0  0  0  0  0  0  0  0  0
   -1.0550    1.0000    2.1865 N   0  0  0  0  0  0  0  0  0  0  0  0
    0.3150    1.0000    2.1865 C   0  0  0  0  0  0  0  0  0  0  0  0
    0.9150    1.0000    3.2257 O   0  0  0  0  0  0  0  0  0  0  0  0
    1.0000    1.0000    1.0000 N   0  0  0  0  0  0  0  0  0  0  0  0
    2.4700    1.0000    1.0000 C   0  0  3  0  0  0  0  0  0  0  0  0
    2.9767    2.2411    0.2835 C   0  0  0  0  0  0  0  0  0  0  0  0
    2.6010    3.3976    1.0168 O   0  0  0  0  0  0  0  0  0  0  0  0
    2.9767   -0.2411    0.2835 C   0  0  0  0  0  0  0  0  0  0  0  0
    4.4851   -0.3381    0.4434 C   0  0  0  0  0  0  0  0  0  0  0  0
    5.0161   -0.8889    1.6051 C   0  0  0  0  0  0  0  0  0  0  0  0
    6.3958   -0.9805    1.7555 C   0  0  0  0  0  0  0  0  0  0  0  0
    7.2281   -0.5197    0.7403 C   0  0  0  0  0  0  0  0  0  0  0  0
    8.5676   -0.6063    0.8823 O   0  0  0  0  0  0  0  0  0  0  0  0
    6.7022    0.0323   -0.4233 C   0  0  0  0  0  0  0  0  0  0  0  0
    5.3218    0.1210   -0.5687 C   0  0  0  0  0  0  0  0  0  0  0  0
   -2.4929   -0.3503    3.5832 C   0  0  0  0  0  0  0  0  0  0  0  0
   -2.7632   -0.7630    5.0242 C   0  0  0  0  0  0  0  0  0  0  0  0
   -3.0534    0.2929    5.9442 O   0  0  0  0  0  0  0  0  0  0  0  0
   -3.9756    1.2935    5.5100 C   0  0  0  0  0  0  0  0  0  0  0  0
   -3.3222    2.5082    4.8631 C   0  0  0  0  0  0  0  0  0  0  0  0
   -1.1179    1.0617    4.1969 H   0  0  0  0  0  0  0  0  0  0  0  0
   -1.5550    1.0000    1.3204 H   0  0  0  0  0  0  0  0  0  0  0  0
    0.5000    1.0000    0.1340 H   0  0  0  0  0  0  0  0  0  0  0  0
    2.8033    1.0000    1.9428 H   0  0  0  0  0  0  0  0  0  0  0  0
    3.9733    2.2010    0.2117 H   0  0  0  0  0  0  0  0  0  0  0  0
    2.5779    2.2832   -0.6326 H   0  0  0  0  0  0  0  0  0  0  0  0
    2.9343    4.2141    0.5454 H   0  0  0  0  0  0  0  0  0  0  0  0
    2.5467   -1.0529    0.6784 H   0  0  0  0  0  0  0  0  0  0  0  0
    2.7476   -0.1819   -0.6881 H   0  0  0  0  0  0  0  0  0  0  0  0
    4.4089   -1.2175    2.3285 H   0  0  0  0  0  0  0  0  0  0  0  0
    6.7867   -1.3747    2.5873 H   0  0  0  0  0  0  0  0  0  0  0  0
    9.1698   -0.2764    0.1553 H   0  0  0  0  0  0  0  0  0  0  0  0
    7.3093    0.3614   -1.1466 H   0  0  0  0  0  0  0  0  0  0  0  0
    4.9308    0.5148   -1.4006 H   0  0  0  0  0  0  0  0  0  0  0  0
   -1.9171   -1.0478    3.1567 H   0  0  0  0  0  0  0  0  0  0  0  0
   -3.3666   -0.2979    3.0996 H   0  0  0  0  0  0  0  0  0  0  0  0
   -3.5448   -1.3868    5.0205 H   0  0  0  0  0  0  0  0  0  0  0  0
   -1.9537   -1.2449    5.3596 H   0  0  0  0  0  0  0  0  0  0  0  0
   -4.4977    1.6043    6.3042 H   0  0  0  0  0  0  0  0  0  0  0  0
   -4.5964    0.8798    4.8441 H   0  0  0  0  0  0  0  0  0  0  0  0
   -4.0275    3.2049    4.7324 H   0  0  0  0  0  0  0  0  0  0  0  0
   -2.6244    2.8538    5.4905 H   0  0  0  0  0  0  0  0  0  0  0  0
  1  2  1  0  0  0  0
  2  3  1  0  0  0  0
  2  4  1  0  0  0  0
  4  5  1  0  0  0  0
  5  6  1  0  0  0  0
  6  7  2  0  0  0  0
  6  8  1  0  0  0  0
  8  9  1  0  0  0  0
  9 10  1  0  0  0  0
 10 11  1  0  0  0  0
  9 12  1  0  0  0  0
 12 13  1  0  0  0  0
 13 14  1  0  0  0  0
 14 15  2  0  0  0  0
 15 16  1  0  0  0  0
 16 17  1  0  0  0  0
 16 18  2  0  0  0  0
 18 19  1  0  0  0  0
 19 13  2  0  0  0  0
  4 20  1  0  0  0  0
 20 21  1  0  0  0  0
 21 22  1  0  0  0  0
 22 23  1  0  0  0  0
 23 24  1  0  0  0  0
 24  2  1  0  0  0  0
  4 25  1  0  0  0  0
  5 26  1  0  0  0  0
  8 27  1  0  0  0  0
  9 28  1  0  0  0  0
 10 29  1  0  0  0  0
 10 30  1  0  0  0  0
 11 31  1  0  0  0  0
 12 32  1  0  0  0  0
 12 33  1  0  0  0  0
 14 34  1  0  0  0  0
 15 35  1  0  0  0  0
 17 36  1  0  0  0  0
 18 37  1  0  0  0  0
 19 38  1  0  0  0  0
 20 39  1  0  0  0  0
 20 40  1  0  0  0  0
 21 41  1  0  0  0  0
 21 42  1  0  0  0  0
 23 43  1  0  0  0  0
 23 44  1  0  0  0  0
 24 45  1  0  0  0  0
 24 46  1  0  0  0  0
M  END
>  <result-rank>
73

>  <similarity>
0.941

>  <query-name>
LIG_A_1101_CC(C)CC[C@]1([R*])CCCOC1_2

>  <query-smiles>
O=C(N[C@@]1(COCCC1)CCC(C)C)[C@@H](NC(=O)C)Cc2ccc(O)cc2

>  <source>
REALspace_2019-12

>  <similarity-descriptor>
1.000;0.984;0.995;1.000;0.984;0.0;0.0;0.0;0.0;0.999;0.999;0.730;0.730;1.000;1.000;0.0

>  <similarity-descriptor-smiles>
c1ccccc1;FC1(CCOCCC1)F;C=O;N;FC1(CCOCCC1)F;;;;;NC;NC;CO;CO;C;O;

>  <reaction-name>
s_2430a

>  <reagent1-name>
14422408

>  <reagent1-smiles>
[R1*]C(=O)NC1C(F)(F)CCOCC1

>  <reagent2-name>
8643028

>  <reagent2-smiles>
[R1*]NC(CO)Cc1ccc(O)cc1

$$$$
s_58____12377132____12369798
          04022015103D 1   1.00000     0.00000     0
            
 53 54  0  0  0  0            999 V2000
    0.5541   -3.9711    4.3961 F   0  0  0  0  0  0  0  0  0  0  0  0
    1.1633   -3.1071    3.5886 C   0  0  0  0  0  0  0  0  0  0  0  0
    1.3159   -3.4102    2.2395 C   0  0  0  0  0  0  0  0  0  0  0  0
    1.9548   -2.5022    1.4013 C   0  0  0  0  0  0  0  0  0  0  0  0
    2.4327   -1.3039    1.9210 C   0  0  0  0  0  0  0  0  0  0  0  0
    2.2770   -1.0059    3.2705 C   0  0  0  0  0  0  0  0  0  0  0  0
    1.6387   -1.9097    4.1132 C   0  0  0  0  0  0  0  0  0  0  0  0
    3.1300   -0.3164    1.0000 C   0  0  3  0  0  0  0  0  0  0  0  0
    2.3700    1.0000    1.0000 C   0  0  0  0  0  0  0  0  0  0  0  0
    2.9700    2.0392    1.0000 O   0  0  0  0  0  0  0  0  0  0  0  0
    1.0000    1.0000    1.0000 N   0  0  0  0  0  0  0  0  0  0  0  0
    0.2635    2.2757    1.0000 C   0  0  3  0  0  0  0  0  0  0  0  0
   -0.6167    2.3730   -0.2360 C   0  0  0  0  0  0  0  0  0  0  0  0
   -1.3983    3.6763   -0.1842 C   0  0  3  0  0  0  0  0  0  0  0  0
   -2.2005    3.7522    0.9882 O   0  0  0  0  0  0  0  0  0  0  0  0
   -1.4265    3.6801    2.1772 C   0  0  0  0  0  0  0  0  0  0  0  0
   -0.6361    2.3820    2.2211 C   0  0  0  0  0  0  0  0  0  0  0  0
   -2.2389    3.7578   -1.4486 C   0  0  0  0  0  0  0  0  0  0  0  0
   -2.9938    5.0769   -1.4709 C   0  0  0  0  0  0  0  0  0  0  0  0
   -2.0023    6.2287   -1.4465 C   0  0  0  0  0  0  0  0  0  0  0  0
   -3.8341    5.1584   -2.7349 C   0  0  0  0  0  0  0  0  0  0  0  0
    4.5496   -0.0818    1.4901 C   0  0  0  0  0  0  0  0  0  0  0  0
    5.4834   -1.0888    0.8387 C   0  0  0  0  0  0  0  0  0  0  0  0
    6.1572   -0.7623   -0.1118 O   0  5  0  0  0  0  0  0  0  0  0  0
    5.5552   -2.2543    1.2849 O   0  0  0  0  0  0  0  0  0  0  0  0
    3.1678   -0.8796   -0.4113 C   0  0  0  0  0  0  0  0  0  0  0  0
    0.9688   -4.2743    1.8749 H   0  0  0  0  0  0  0  0  0  0  0  0
    2.0699   -2.7101    0.4299 H   0  0  0  0  0  0  0  0  0  0  0  0
    2.6239   -0.1418    3.6349 H   0  0  0  0  0  0  0  0  0  0  0  0
    1.5229   -1.7013    5.0844 H   0  0  0  0  0  0  0  0  0  0  0  0
    0.5000    0.1340    1.0000 H   0  0  0  0  0  0  0  0  0  0  0  0
    0.9154    3.0340    1.0024 H   0  0  0  0  0  0  0  0  0  0  0  0
   -0.0456    2.3567   -1.0567 H   0  0  0  0  0  0  0  0  0  0  0  0
   -1.2523    1.6012   -0.2569 H   0  0  0  0  0  0  0  0  0  0  0  0
   -0.7510    4.4385   -0.1798 H   0  0  0  0  0  0  0  0  0  0  0  0
   -2.0356    3.7213    2.9692 H   0  0  0  0  0  0  0  0  0  0  0  0
   -0.7921    4.4526    2.2041 H   0  0  0  0  0  0  0  0  0  0  0  0
   -0.0743    2.3647    3.0482 H   0  0  0  0  0  0  0  0  0  0  0  0
   -1.2704    1.6089    2.2329 H   0  0  0  0  0  0  0  0  0  0  0  0
   -2.8912    3.0001   -1.4646 H   0  0  0  0  0  0  0  0  0  0  0  0
   -1.6427    3.7014   -2.2494 H   0  0  0  0  0  0  0  0  0  0  0  0
   -3.5901    5.1333   -0.6701 H   0  0  0  0  0  0  0  0  0  0  0  0
   -2.4990    7.0965   -1.4612 H   0  0  0  0  0  0  0  0  0  0  0  0
   -1.4495    6.1751   -0.6150 H   0  0  0  0  0  0  0  0  0  0  0  0
   -1.4061    6.1723   -2.2474 H   0  0  0  0  0  0  0  0  0  0  0  0
   -4.3308    6.0262   -2.7496 H   0  0  0  0  0  0  0  0  0  0  0  0
   -3.2379    5.1020   -3.5357 H   0  0  0  0  0  0  0  0  0  0  0  0
   -4.4865    4.4007   -2.7509 H   0  0  0  0  0  0  0  0  0  0  0  0
    4.8371    0.8448    1.2477 H   0  0  0  0  0  0  0  0  0  0  0  0
    4.5816   -0.1916    2.4836 H   0  0  0  0  0  0  0  0  0  0  0  0
    3.6266   -0.2298   -1.0173 H   0  0  0  0  0  0  0  0  0  0  0  0
    3.6678   -1.7456   -0.4113 H   0  0  0  0  0  0  0  0  0  0  0  0
    2.2339   -1.0339   -0.7338 H   0  0  0  0  0  0  0  0  0  0  0  0
  1  2  1  0  0  0  0
  2  3  1  0  0  0  0
  3  4  2  0  0  0  0
  4  5  1  0  0  0  0
  5  6  2  0  0  0  0
  6  7  1  0  0  0  0
  7  2  2  0  0  0  0
  5  8  1  0  0  0  0
  8  9  1  0  0  0  0
  9 10  2  0  0  0  0
  9 11  1  0  0  0  0
 11 12  1  0  0  0  0
 12 13  1  0  0  0  0
 13 14  1  0  0  0  0
 14 15  1  0  0  0  0
 15 16  1  0  0  0  0
 16 17  1  0  0  0  0
 17 12  1  0  0  0  0
 14 18  1  0  0  0  0
 18 19  1  0  0  0  0
 19 20  1  0  0  0  0
 19 21  1  0  0  0  0
  8 22  1  0  0  0  0
 22 23  1  0  0  0  0
 23 24  1  0  0  0  0
 23 25  2  0  0  0  0
  8 26  1  0  0  0  0
  3 27  1  0  0  0  0
  4 28  1  0  0  0  0
  6 29  1  0  0  0  0
  7 30  1  0  0  0  0
 11 31  1  0  0  0  0
 12 32  1  0  0  0  0
 13 33  1  0  0  0  0
 13 34  1  0  0  0  0
 14 35  1  0  0  0  0
 16 36  1  0  0  0  0
 16 37  1  0  0  0  0
 17 38  1  0  0  0  0
 17 39  1  0  0  0  0
 18 40  1  0  0  0  0
 18 41  1  0  0  0  0
 19 42  1  0  0  0  0
 20 43  1  0  0  0  0
 20 44  1  0  0  0  0
 20 45  1  0  0  0  0
 21 46  1  0  0  0  0
 21 47  1  0  0  0  0
 21 48  1  0  0  0  0
 22 49  1  0  0  0  0
 22 50  1  0  0  0  0
 26 51  1  0  0  0  0
 26 52  1  0  0  0  0
 26 53  1  0  0  0  0
M  CHG  1  24  -1
M  END
>  <result-rank>
74

>  <similarity>
0.941

>  <query-name>
LIG_A_1101_CC(C)CC[C@]1([R*])CCCOC1_2

>  <query-smiles>
O=C(N[C@@]1(COCCC1)CCC(C)C)[C@@H](NC(=O)C)Cc2ccc(O)cc2

>  <source>
REALspace_2019-12

>  <similarity-descriptor>
0.983;0.971;1.000;1.000;0.971;1.000;1.000;1.000;1.000;0.931;0.752;0.752;0.0;0.931;0.0;0.0

>  <similarity-descriptor-smiles>
Fc1ccccc1;C1CCOCC1;C=O;N;C1CCOCC1;C;C;C;C;C(C)C;C([O-])=O;C([O-])=O;;C(C)C;;

>  <reaction-name>
s_58

>  <reagent1-name>
12377132

>  <reagent1-smiles>
[R1*]NC1CC(OCC1)CC(C)C

>  <reagent2-name>
12369798

>  <reagent2-smiles>
[R1*]C(=O)C(c1ccc(F)cc1)(CC(=O)O)C

$$$$
s_22____10890574____17513450
          04022015103D 1   1.00000     0.00000     0
            
 60 62  0  0  0  0            999 V2000
    1.5984    2.0403    3.0332 O   0  0  0  0  0  0  0  0  0  0  0  0
    1.8776    1.8776    1.8776 C   0  0  0  0  0  0  0  0  0  0  0  0
    3.0092    2.4947    1.3387 N   0  0  0  0  0  0  0  0  0  0  0  0
    3.0530    3.9659    1.3083 C   0  0  0  0  0  0  0  0  0  0  0  0
    3.8273    4.4885    0.1064 C   0  0  0  0  0  0  0  0  0  0  0  0
    5.1386    3.7452   -0.1065 C   0  0  0  0  0  0  0  0  0  0  0  0
    5.7373    4.2493   -1.2920 O   0  0  0  0  0  0  0  0  0  0  0  0
    7.1451    4.3148   -1.1202 C   0  0  0  0  0  0  0  0  0  0  0  0
    7.8359    3.4432   -2.1564 C   0  0  0  0  0  0  0  0  0  0  0  0
    9.3436    3.5112   -1.9736 C   0  0  0  0  0  0  0  0  0  0  0  0
    9.8203    4.9490   -2.1018 C   0  0  0  0  0  0  0  0  0  0  0  0
    9.1308    5.8209   -1.0648 C   0  0  0  0  0  0  0  0  0  0  0  0
    7.6231    5.7522   -1.2474 C   0  0  0  0  0  0  0  0  0  0  0  0
    4.8132    2.2783   -0.3531 C   0  0  0  0  0  0  0  0  0  0  0  0
    4.0933    1.6405    0.8270 C   0  0  0  0  0  0  0  0  0  0  0  0
    1.0000    1.0000    1.0000 C   0  0  3  0  0  0  0  0  0  0  0  0
   -0.2629    0.7171    1.6971 N   0  0  0  0  0  0  0  0  0  0  0  0
   -0.6150   -0.5766    1.9787 C   0  0  0  0  0  0  0  0  0  0  0  0
    0.1075   -1.4788    1.6563 O   0  0  0  0  0  0  0  0  0  0  0  0
   -1.9209   -0.8691    2.6995 C   0  0  0  0  0  0  0  0  0  0  0  0
    0.7075    1.7208   -0.3059 C   0  0  0  0  0  0  0  0  0  0  0  0
    0.1593    0.7299   -1.3198 C   0  0  0  0  0  0  0  0  0  0  0  0
    1.0382    0.0507   -2.1571 C   0  0  0  0  0  0  0  0  0  0  0  0
    0.5412   -0.8575   -3.0859 C   0  0  0  0  0  0  0  0  0  0  0  0
   -0.8306   -1.0755   -3.1651 C   0  0  0  0  0  0  0  0  0  0  0  0
   -1.3172   -1.9558   -4.0653 O   0  0  0  0  0  0  0  0  0  0  0  0
   -1.7139   -0.3986   -2.3303 C   0  0  0  0  0  0  0  0  0  0  0  0
   -1.2115    0.5081   -1.4031 C   0  0  0  0  0  0  0  0  0  0  0  0
    3.4944    4.2931    2.1438 H   0  0  0  0  0  0  0  0  0  0  0  0
    2.1172    4.3160    1.2666 H   0  0  0  0  0  0  0  0  0  0  0  0
    3.2614    4.3822   -0.7112 H   0  0  0  0  0  0  0  0  0  0  0  0
    4.0271    5.4578    0.2497 H   0  0  0  0  0  0  0  0  0  0  0  0
    5.7470    3.8532    0.6797 H   0  0  0  0  0  0  0  0  0  0  0  0
    7.3757    3.9769   -0.2077 H   0  0  0  0  0  0  0  0  0  0  0  0
    7.5988    3.7670   -3.0723 H   0  0  0  0  0  0  0  0  0  0  0  0
    7.5319    2.4967   -2.0483 H   0  0  0  0  0  0  0  0  0  0  0  0
    9.7873    2.9518   -2.6736 H   0  0  0  0  0  0  0  0  0  0  0  0
    9.5830    3.1629   -1.0673 H   0  0  0  0  0  0  0  0  0  0  0  0
    9.6038    5.2892   -3.0169 H   0  0  0  0  0  0  0  0  0  0  0  0
   10.8094    4.9838   -1.9586 H   0  0  0  0  0  0  0  0  0  0  0  0
    9.3685    5.4970   -0.1490 H   0  0  0  0  0  0  0  0  0  0  0  0
    9.4347    6.7674   -1.1729 H   0  0  0  0  0  0  0  0  0  0  0  0
    7.1795    6.3113   -0.5470 H   0  0  0  0  0  0  0  0  0  0  0  0
    7.3838    6.1011   -2.1535 H   0  0  0  0  0  0  0  0  0  0  0  0
    5.6663    1.7824   -0.5156 H   0  0  0  0  0  0  0  0  0  0  0  0
    4.2287    2.2099   -1.1616 H   0  0  0  0  0  0  0  0  0  0  0  0
    3.7050    0.7667    0.5343 H   0  0  0  0  0  0  0  0  0  0  0  0
    4.7538    1.4826    1.5610 H   0  0  0  0  0  0  0  0  0  0  0  0
    1.4742    0.1409    0.8075 H   0  0  0  0  0  0  0  0  0  0  0  0
   -0.8650    1.4689    1.9658 H   0  0  0  0  0  0  0  0  0  0  0  0
   -2.3951   -0.0100    2.8919 H   0  0  0  0  0  0  0  0  0  0  0  0
   -2.4982   -1.4465    2.1221 H   0  0  0  0  0  0  0  0  0  0  0  0
   -1.7284   -1.3433    3.5586 H   0  0  0  0  0  0  0  0  0  0  0  0
    0.0326    2.4410   -0.1451 H   0  0  0  0  0  0  0  0  0  0  0  0
    1.5505    2.1267   -0.6586 H   0  0  0  0  0  0  0  0  0  0  0  0
    2.0225    0.2146   -2.0916 H   0  0  0  0  0  0  0  0  0  0  0  0
    1.1653   -1.3502   -3.6923 H   0  0  0  0  0  0  0  0  0  0  0  0
   -2.3025   -2.1158   -4.1260 H   0  0  0  0  0  0  0  0  0  0  0  0
   -2.6983   -0.5620   -2.3961 H   0  0  0  0  0  0  0  0  0  0  0  0
   -1.8355    1.0006   -0.7965 H   0  0  0  0  0  0  0  0  0  0  0  0
  1  2  2  0  0  0  0
  2  3  1  0  0  0  0
  3  4  1  0  0  0  0
  4  5  1  0  0  0  0
  5  6  1  0  0  0  0
  6  7  1  0  0  0  0
  7  8  1  0  0  0  0
  8  9  1  0  0  0  0
  9 10  1  0  0  0  0
 10 11  1  0  0  0  0
 11 12  1  0  0  0  0
 12 13  1  0  0  0  0
 13  8  1  0  0  0  0
  6 14  1  0  0  0  0
 14 15  1  0  0  0  0
 15  3  1  0  0  0  0
  2 16  1  0  0  0  0
 16 17  1  0  0  0  0
 17 18  1  0  0  0  0
 18 19  2  0  0  0  0
 18 20  1  0  0  0  0
 16 21  1  0  0  0  0
 21 22  1  0  0  0  0
 22 23  1  0  0  0  0
 23 24  2  0  0  0  0
 24 25  1  0  0  0  0
 25 26  1  0  0  0  0
 25 27  2  0  0  0  0
 27 28  1  0  0  0  0
 28 22  2  0  0  0  0
  4 29  1  0  0  0  0
  4 30  1  0  0  0  0
  5 31  1  0  0  0  0
  5 32  1  0  0  0  0
  6 33  1  0  0  0  0
  8 34  1  0  0  0  0
  9 35  1  0  0  0  0
  9 36  1  0  0  0  0
 10 37  1  0  0  0  0
 10 38  1  0  0  0  0
 11 39  1  0  0  0  0
 11 40  1  0  0  0  0
 12 41  1  0  0  0  0
 12 42  1  0  0  0  0
 13 43  1  0  0  0  0
 13 44  1  0  0  0  0
 14 45  1  0  0  0  0
 14 46  1  0  0  0  0
 15 47  1  0  0  0  0
 15 48  1  0  0  0  0
 16 49  1  0  0  0  0
 17 50  1  0  0  0  0
 20 51  1  0  0  0  0
 20 52  1  0  0  0  0
 20 53  1  0  0  0  0
 21 54  1  0  0  0  0
 21 55  1  0  0  0  0
 23 56  1  0  0  0  0
 24 57  1  0  0  0  0
 26 58  1  0  0  0  0
 27 59  1  0  0  0  0
 28 60  1  0  0  0  0
M  END
>  <result-rank>
75

>  <similarity>
0.941

>  <query-name>
LIG_A_1101_CC(C)CC[C@]1([R*])CCCOC1_2

>  <query-smiles>
O=C(N[C@@]1(COCCC1)CCC(C)C)[C@@H](NC(=O)C)Cc2ccc(O)cc2

>  <source>
REALspace_2019-12

>  <similarity-descriptor>
1.000;0.950;0.852;0.852;0.832;0.832;0.832;0.832;0.832;1.000;1.000;1.000;1.000;1.000;1.000;0.0

>  <similarity-descriptor-smiles>
c1ccccc1;N1CCC(CC1)O;O=C;O=C;C1CCCCC1;C1CCCCC1;C1CCCCC1;C1CCCCC1;C1CCCCC1;C;N;C=O;C;C;O;

>  <reaction-name>
s_22

>  <reagent1-name>
10890574

>  <reagent1-smiles>
[R1*]N1CCC(OC2CCCCC2)CC1

>  <reagent2-name>
17513450

>  <reagent2-smiles>
[R1*]C(=O)C(NC(=O)C)Cc1ccc(O)cc1

$$$$
s_2708____6465958____16492312
          04022015103D 1   1.00000     0.00000     0
            
 55 57  0  0  0  0            999 V2000
    0.4000   -0.0392    1.0000 O   0  0  0  0  0  0  0  0  0  0  0  0
    1.0000    1.0000    1.0000 C   0  0  0  0  0  0  0  0  0  0  0  0
    2.3700    1.0000    1.0000 N   0  0  0  0  0  0  0  0  0  0  0  0
    3.1050   -0.2731    1.0000 C   0  0  3  0  0  0  0  0  0  0  0  0
    4.2359   -0.2052   -0.0133 C   0  0  0  0  0  0  0  0  0  0  0  0
    3.7113    0.1457   -1.2853 O   0  0  0  0  0  0  0  0  0  0  0  0
    3.3593   -1.0335   -1.9939 C   0  0  0  0  0  0  0  0  0  0  0  0
    3.6795   -0.5264    2.3842 C   0  0  0  0  0  0  0  0  0  0  0  0
    4.5913   -1.7421    2.3398 C   0  0  0  0  0  0  0  0  0  0  0  0
    5.9713   -1.5701    2.3745 C   0  0  0  0  0  0  0  0  0  0  0  0
    6.8019   -2.6852    2.3327 C   0  0  0  0  0  0  0  0  0  0  0  0
    6.2513   -3.9603    2.2582 C   0  0  0  0  0  0  0  0  0  0  0  0
    4.8715   -4.1201    2.2246 C   0  0  0  0  0  0  0  0  0  0  0  0
    4.0302   -3.0130    2.2651 C   0  0  0  0  0  0  0  0  0  0  0  0
    0.3150    2.1865    1.0000 N   0  0  0  0  0  0  0  0  0  0  0  0
   -1.1550    2.1865    1.0000 C   0  0  0  0  0  0  0  0  0  0  0  0
   -1.6623    3.6212    1.0000 C   0  0  3  0  0  0  0  0  0  0  0  0
   -1.1798    4.3812   -0.2266 C   0  0  0  0  0  0  0  0  0  0  0  0
   -1.1121    5.7309    0.1776 O   0  0  0  0  0  0  0  0  0  0  0  0
   -1.3987    5.8347    1.5755 C   0  0  3  0  0  0  0  0  0  0  0  0
   -0.9239    4.4654    2.0083 C   0  0  0  0  0  0  0  0  0  0  0  0
   -2.8948    6.0596    1.7550 C   0  0  0  0  0  0  0  0  0  0  0  0
   -3.7454    5.0540    0.9933 C   0  0  0  0  0  0  0  0  0  0  0  0
   -3.1793    3.6479    1.1341 C   0  0  0  0  0  0  0  0  0  0  0  0
   -0.5972    6.9515    2.2223 C   0  0  0  0  0  0  0  0  0  0  0  0
    2.8700    1.8660    1.0000 H   0  0  0  0  0  0  0  0  0  0  0  0
    2.4830   -1.0171    0.7560 H   0  0  0  0  0  0  0  0  0  0  0  0
    4.9007    0.4841    0.2747 H   0  0  0  0  0  0  0  0  0  0  0  0
    4.6846   -1.0969   -0.0723 H   0  0  0  0  0  0  0  0  0  0  0  0
    2.9898   -0.7864   -2.8896 H   0  0  0  0  0  0  0  0  0  0  0  0
    4.1710   -1.6049   -2.1142 H   0  0  0  0  0  0  0  0  0  0  0  0
    2.6691   -1.5396   -1.4767 H   0  0  0  0  0  0  0  0  0  0  0  0
    4.2036    0.2727    2.6790 H   0  0  0  0  0  0  0  0  0  0  0  0
    2.9338   -0.6925    3.0294 H   0  0  0  0  0  0  0  0  0  0  0  0
    6.3632   -0.6518    2.4290 H   0  0  0  0  0  0  0  0  0  0  0  0
    7.7950   -2.5700    2.3563 H   0  0  0  0  0  0  0  0  0  0  0  0
    6.8484   -4.7619    2.2288 H   0  0  0  0  0  0  0  0  0  0  0  0
    4.4800   -5.0386    2.1709 H   0  0  0  0  0  0  0  0  0  0  0  0
    3.0372   -3.1289    2.2409 H   0  0  0  0  0  0  0  0  0  0  0  0
    0.8150    3.0525    1.0000 H   0  0  0  0  0  0  0  0  0  0  0  0
   -1.4883    1.7151    1.8165 H   0  0  0  0  0  0  0  0  0  0  0  0
   -1.4883    1.7151    0.1835 H   0  0  0  0  0  0  0  0  0  0  0  0
   -0.2782    4.0542   -0.5095 H   0  0  0  0  0  0  0  0  0  0  0  0
   -1.8257    4.2735   -0.9824 H   0  0  0  0  0  0  0  0  0  0  0  0
   -1.1990    4.2536    2.9461 H   0  0  0  0  0  0  0  0  0  0  0  0
    0.0677    4.3690    1.9219 H   0  0  0  0  0  0  0  0  0  0  0  0
   -3.1198    6.9779    1.4296 H   0  0  0  0  0  0  0  0  0  0  0  0
   -3.1127    5.9881    2.7284 H   0  0  0  0  0  0  0  0  0  0  0  0
   -3.7617    5.3052    0.0255 H   0  0  0  0  0  0  0  0  0  0  0  0
   -4.6766    5.0701    1.3576 H   0  0  0  0  0  0  0  0  0  0  0  0
   -3.4293    3.2888    2.0333 H   0  0  0  0  0  0  0  0  0  0  0  0
   -3.5756    3.0686    0.4218 H   0  0  0  0  0  0  0  0  0  0  0  0
   -0.8183    6.9994    3.1964 H   0  0  0  0  0  0  0  0  0  0  0  0
    0.3796    6.7685    2.1107 H   0  0  0  0  0  0  0  0  0  0  0  0
   -0.8254    7.8216    1.7855 H   0  0  0  0  0  0  0  0  0  0  0  0
  1  2  2  0  0  0  0
  2  3  1  0  0  0  0
  3  4  1  0  0  0  0
  4  5  1  0  0  0  0
  5  6  1  0  0  0  0
  6  7  1  0  0  0  0
  4  8  1  0  0  0  0
  8  9  1  0  0  0  0
  9 10  1  0  0  0  0
 10 11  2  0  0  0  0
 11 12  1  0  0  0  0
 12 13  2  0  0  0  0
 13 14  1  0  0  0  0
 14  9  2  0  0  0  0
  2 15  1  0  0  0  0
 15 16  1  0  0  0  0
 16 17  1  0  0  0  0
 17 18  1  0  0  0  0
 18 19  1  0  0  0  0
 19 20  1  0  0  0  0
 20 21  1  0  0  0  0
 21 17  1  0  0  0  0
 20 22  1  0  0  0  0
 22 23  1  0  0  0  0
 23 24  1  0  0  0  0
 24 17  1  0  0  0  0
 20 25  1  0  0  0  0
  3 26  1  0  0  0  0
  4 27  1  0  0  0  0
  5 28  1  0  0  0  0
  5 29  1  0  0  0  0
  7 30  1  0  0  0  0
  7 31  1  0  0  0  0
  7 32  1  0  0  0  0
  8 33  1  0  0  0  0
  8 34  1  0  0  0  0
 10 35  1  0  0  0  0
 11 36  1  0  0  0  0
 12 37  1  0  0  0  0
 13 38  1  0  0  0  0
 14 39  1  0  0  0  0
 15 40  1  0  0  0  0
 16 41  1  0  0  0  0
 16 42  1  0  0  0  0
 18 43  1  0  0  0  0
 18 44  1  0  0  0  0
 21 45  1  0  0  0  0
 21 46  1  0  0  0  0
 22 47  1  0  0  0  0
 22 48  1  0  0  0  0
 23 49  1  0  0  0  0
 23 50  1  0  0  0  0
 24 51  1  0  0  0  0
 24 52  1  0  0  0  0
 25 53  1  0  0  0  0
 25 54  1  0  0  0  0
 25 55  1  0  0  0  0
M  END
>  <result-rank>
76

>  <similarity>
0.941

>  <query-name>
LIG_A_1101_CC(C)CC[C@]1([R*])CCCOC1_2

>  <query-smiles>
O=C(N[C@@]1(COCCC1)CCC(C)C)[C@@H](NC(=O)C)Cc2ccc(O)cc2

>  <source>
REALspace_2019-12

>  <similarity-descriptor>
0.960;0.996;0.995;1.000;0.894;0.894;0.894;0.894;0.0;0.999;0.999;0.770;0.994;1.000;0.0;0.0

>  <similarity-descriptor-smiles>
c1ccccc1;CC1CC(OC1)C;O=C;N;C1CCCCC1;C1CCCCC1;C1CCCCC1;C1CCCCC1;;NC;NC;CO;C;C;;

>  <reaction-name>
s_2708

>  <reagent1-name>
6465958

>  <reagent1-smiles>
[R1*]C(=O)NC(COC)Cc1ccccc1

>  <reagent2-name>
16492312

>  <reagent2-smiles>
[R1*]NCC12COC(C1)(CCC2)C

$$$$
s_2708____8366598____9820842
          04022015103D 1   1.00000     0.00000     0
            
 63 64  0  0  0  0            999 V2000
    5.7140    1.2824    2.2637 Cl  0  0  0  0  0  0  0  0  0  0  0  0
    4.5174    2.3103    3.0888 C   0  0  0  0  0  0  0  0  0  0  0  0
    3.3584    2.7119    2.4333 C   0  0  0  0  0  0  0  0  0  0  0  0
    2.4303    3.5145    3.0894 C   0  0  0  0  0  0  0  0  0  0  0  0
    2.6618    3.9159    4.4013 C   0  0  0  0  0  0  0  0  0  0  0  0
    3.8246    3.5088    5.0471 C   0  0  0  0  0  0  0  0  0  0  0  0
    4.1223    4.0221    6.7255 Cl  0  0  0  0  0  0  0  0  0  0  0  0
    4.7585    2.7061    4.4004 C   0  0  0  0  0  0  0  0  0  0  0  0
    3.1050    2.2731    1.0000 C   0  0  0  0  0  0  0  0  0  0  0  0
    2.3700    1.0000    1.0000 N   0  0  0  0  0  0  0  0  0  0  0  0
    1.0000    1.0000    1.0000 C   0  0  0  0  0  0  0  0  0  0  0  0
    0.4000   -0.0392    1.0000 O   0  0  0  0  0  0  0  0  0  0  0  0
    0.3150    2.1865    1.0000 N   0  0  0  0  0  0  0  0  0  0  0  0
   -1.1594    2.1865    1.0000 C   0  0  3  0  0  0  0  0  0  0  0  0
   -1.6883    2.8993   -0.2347 C   0  0  0  0  0  0  0  0  0  0  0  0
   -3.2074    2.9242   -0.1739 C   0  0  3  0  0  0  0  0  0  0  0  0
   -3.6680    3.5818    1.0003 O   0  0  0  0  0  0  0  0  0  0  0  0
   -3.2028    2.9539    2.1873 C   0  0  0  0  0  0  0  0  0  0  0  0
   -1.6825    2.9149    2.2284 C   0  0  0  0  0  0  0  0  0  0  0  0
   -3.7107    3.6078   -1.4352 C   0  0  0  0  0  0  0  0  0  0  0  0
   -5.2306    3.5965   -1.4456 C   0  0  0  0  0  0  0  0  0  0  0  0
   -5.7269    2.1601   -1.4153 C   0  0  0  0  0  0  0  0  0  0  0  0
   -3.2144    5.0441   -1.4655 C   0  0  0  0  0  0  0  0  0  0  0  0
   -3.7176    5.7276   -2.7266 C   0  0  0  0  0  0  0  0  0  0  0  0
    3.1050   -0.2731    1.0000 C   0  0  0  0  0  0  0  0  0  0  0  0
    3.3583   -0.7118   -0.4331 C   0  0  0  0  0  0  0  0  0  0  0  0
    4.0933   -1.9849   -0.4331 N   0  0  0  0  0  0  0  0  0  0  0  0
    3.4239   -3.1623   -0.2270 C   0  0  0  0  0  0  0  0  0  0  0  0
    2.2376   -3.1544   -0.0466 O   0  0  0  0  0  0  0  0  0  0  0  0
    4.1839   -4.4787   -0.2270 C   0  0  0  0  0  0  0  0  0  0  0  0
    1.5968    3.8028    2.6180 H   0  0  0  0  0  0  0  0  0  0  0  0
    1.9973    4.4928    4.8763 H   0  0  0  0  0  0  0  0  0  0  0  0
    5.5918    2.4174    4.8719 H   0  0  0  0  0  0  0  0  0  0  0  0
    2.5646    2.9700    0.5286 H   0  0  0  0  0  0  0  0  0  0  0  0
    3.9788    2.1535    0.5286 H   0  0  0  0  0  0  0  0  0  0  0  0
    0.8150    3.0525    1.0000 H   0  0  0  0  0  0  0  0  0  0  0  0
   -1.4915    1.2432    1.0067 H   0  0  0  0  0  0  0  0  0  0  0  0
   -1.3376    3.8355   -0.2582 H   0  0  0  0  0  0  0  0  0  0  0  0
   -1.3928    2.4120   -1.0564 H   0  0  0  0  0  0  0  0  0  0  0  0
   -3.5426    1.9821   -0.1652 H   0  0  0  0  0  0  0  0  0  0  0  0
   -3.5542    2.0182    2.2208 H   0  0  0  0  0  0  0  0  0  0  0  0
   -3.5377    3.4643    2.9794 H   0  0  0  0  0  0  0  0  0  0  0  0
   -1.3255    3.8490    2.2390 H   0  0  0  0  0  0  0  0  0  0  0  0
   -1.3837    2.4345    3.0530 H   0  0  0  0  0  0  0  0  0  0  0  0
   -3.3683    3.1198   -2.2381 H   0  0  0  0  0  0  0  0  0  0  0  0
   -5.5617    4.0461   -2.2752 H   0  0  0  0  0  0  0  0  0  0  0  0
   -5.5730    4.0845   -0.6427 H   0  0  0  0  0  0  0  0  0  0  0  0
   -6.7268    2.1527   -1.4221 H   0  0  0  0  0  0  0  0  0  0  0  0
   -5.3844    1.6721   -2.2182 H   0  0  0  0  0  0  0  0  0  0  0  0
   -5.3958    1.7105   -0.5857 H   0  0  0  0  0  0  0  0  0  0  0  0
   -2.2145    5.0516   -1.4587 H   0  0  0  0  0  0  0  0  0  0  0  0
   -3.5569    5.5321   -0.6627 H   0  0  0  0  0  0  0  0  0  0  0  0
   -3.3911    6.6725   -2.7465 H   0  0  0  0  0  0  0  0  0  0  0  0
   -3.3752    5.2396   -3.5294 H   0  0  0  0  0  0  0  0  0  0  0  0
   -4.7176    5.7201   -2.7334 H   0  0  0  0  0  0  0  0  0  0  0  0
    2.5646   -0.9700    1.4714 H   0  0  0  0  0  0  0  0  0  0  0  0
    3.9788   -0.1535    1.4714 H   0  0  0  0  0  0  0  0  0  0  0  0
    2.4846   -0.8314   -0.9045 H   0  0  0  0  0  0  0  0  0  0  0  0
    3.8988   -0.0149   -0.9045 H   0  0  0  0  0  0  0  0  0  0  0  0
    5.0819   -1.9915   -0.5835 H   0  0  0  0  0  0  0  0  0  0  0  0
    5.1547   -4.3031   -0.3908 H   0  0  0  0  0  0  0  0  0  0  0  0
    4.0714   -4.9286    0.6589 H   0  0  0  0  0  0  0  0  0  0  0  0
    3.8258   -5.0704   -0.9493 H   0  0  0  0  0  0  0  0  0  0  0  0
  1  2  1  0  0  0  0
  2  3  1  0  0  0  0
  3  4  2  0  0  0  0
  4  5  1  0  0  0  0
  5  6  2  0  0  0  0
  6  7  1  0  0  0  0
  6  8  1  0  0  0  0
  8  2  2  0  0  0  0
  3  9  1  0  0  0  0
  9 10  1  0  0  0  0
 10 11  1  0  0  0  0
 11 12  2  0  0  0  0
 11 13  1  0  0  0  0
 13 14  1  0  0  0  0
 14 15  1  0  0  0  0
 15 16  1  0  0  0  0
 16 17  1  0  0  0  0
 17 18  1  0  0  0  0
 18 19  1  0  0  0  0
 19 14  1  0  0  0  0
 16 20  1  0  0  0  0
 20 21  1  0  0  0  0
 21 22  1  0  0  0  0
 20 23  1  0  0  0  0
 23 24  1  0  0  0  0
 10 25  1  0  0  0  0
 25 26  1  0  0  0  0
 26 27  1  0  0  0  0
 27 28  1  0  0  0  0
 28 29  2  0  0  0  0
 28 30  1  0  0  0  0
  4 31  1  0  0  0  0
  5 32  1  0  0  0  0
  8 33  1  0  0  0  0
  9 34  1  0  0  0  0
  9 35  1  0  0  0  0
 13 36  1  0  0  0  0
 14 37  1  0  0  0  0
 15 38  1  0  0  0  0
 15 39  1  0  0  0  0
 16 40  1  0  0  0  0
 18 41  1  0  0  0  0
 18 42  1  0  0  0  0
 19 43  1  0  0  0  0
 19 44  1  0  0  0  0
 20 45  1  0  0  0  0
 21 46  1  0  0  0  0
 21 47  1  0  0  0  0
 22 48  1  0  0  0  0
 22 49  1  0  0  0  0
 22 50  1  0  0  0  0
 23 51  1  0  0  0  0
 23 52  1  0  0  0  0
 24 53  1  0  0  0  0
 24 54  1  0  0  0  0
 24 55  1  0  0  0  0
 25 56  1  0  0  0  0
 25 57  1  0  0  0  0
 26 58  1  0  0  0  0
 26 59  1  0  0  0  0
 27 60  1  0  0  0  0
 30 61  1  0  0  0  0
 30 62  1  0  0  0  0
 30 63  1  0  0  0  0
M  END
>  <result-rank>
77

>  <similarity>
0.941

>  <query-name>
LIG_A_1101_CC(C)CC[C@]1([R*])CCCOC1_2

>  <query-smiles>
O=C(N[C@@]1(COCCC1)CCC(C)C)[C@@H](NC(=O)C)Cc2ccc(O)cc2

>  <source>
REALspace_2019-12

>  <similarity-descriptor>
0.921;0.971;0.995;1.000;0.971;1.000;1.000;1.000;0.949;0.953;0.723;1.000;1.000;0.953;0.0;0.063

>  <similarity-descriptor-smiles>
Clc1cc(ccc1)Cl;C1CCOCC1;C=O;N;C1CCOCC1;CC;CC;C;C;CNC;CN;C=O;C;CNC;;C

>  <reaction-name>
s_2708

>  <reagent1-name>
8366598

>  <reagent1-smiles>
[R1*]C(=O)NC1CC(OCC1)C(CC)CC

>  <reagent2-name>
9820842

>  <reagent2-smiles>
[R1*]N(Cc1c(Cl)cc(Cl)cc1)CCNC(=O)C

$$$$
s_272164____17323428____9382468
          04022015103D 1   1.00000     0.00000     0
            
 57 58  0  0  0  0            999 V2000
    0.4000   -0.0392    1.0000 O   0  0  0  0  0  0  0  0  0  0  0  0
    1.0000    1.0000    1.0000 C   0  0  0  0  0  0  0  0  0  0  0  0
    2.3700    1.0000    1.0000 N   0  0  0  0  0  0  0  0  0  0  0  0
    3.0701   -0.2126    1.0000 C   0  0  0  0  0  0  0  0  0  0  0  0
    3.4144   -0.8090    2.2088 C   0  0  0  0  0  0  0  0  0  0  0  0
    4.1097   -2.0137    2.2048 C   0  0  0  0  0  0  0  0  0  0  0  0
    4.4556   -2.6129    0.9984 C   0  0  0  0  0  0  0  0  0  0  0  0
    4.1057   -2.0079   -0.2042 C   0  0  0  0  0  0  0  0  0  0  0  0
    3.4105   -0.8032   -0.2125 C   0  0  0  0  0  0  0  0  0  0  0  0
    3.1050    2.2731    1.0000 C   0  0  0  0  0  0  0  0  0  0  0  0
    3.3583    2.7118    2.4331 C   0  0  0  0  0  0  0  0  0  0  0  0
    2.9684    2.0365    3.3452 O   0  0  0  0  0  0  0  0  0  0  0  0
    4.0318    3.8783    2.6834 N   0  0  0  0  0  0  0  0  0  0  0  0
    4.2768    4.3027    4.0693 C   0  0  0  0  0  0  0  0  0  0  0  0
    4.5094    4.7056    1.5661 C   0  0  0  0  0  0  0  0  0  0  0  0
    0.3150    2.1865    1.0000 N   0  0  0  0  0  0  0  0  0  0  0  0
   -1.1594    2.1865    1.0000 C   0  0  3  0  0  0  0  0  0  0  0  0
   -1.6883    2.8993   -0.2347 C   0  0  0  0  0  0  0  0  0  0  0  0
   -3.2074    2.9242   -0.1739 C   0  0  3  0  0  0  0  0  0  0  0  0
   -3.6680    3.5818    1.0003 O   0  0  0  0  0  0  0  0  0  0  0  0
   -3.2028    2.9539    2.1873 C   0  0  0  0  0  0  0  0  0  0  0  0
   -1.6825    2.9149    2.2284 C   0  0  0  0  0  0  0  0  0  0  0  0
   -3.7107    3.6078   -1.4352 C   0  0  0  0  0  0  0  0  0  0  0  0
   -3.1902    2.8660   -2.6556 C   0  0  0  0  0  0  0  0  0  0  0  0
   -3.6864    1.4296   -2.6253 C   0  0  0  0  0  0  0  0  0  0  0  0
   -3.6934    3.5494   -3.9167 C   0  0  0  0  0  0  0  0  0  0  0  0
    3.1639   -0.3748    3.0741 H   0  0  0  0  0  0  0  0  0  0  0  0
    4.3609   -2.4490    3.0694 H   0  0  0  0  0  0  0  0  0  0  0  0
    4.9560   -3.4787    0.9955 H   0  0  0  0  0  0  0  0  0  0  0  0
    4.3558   -2.4424   -1.0694 H   0  0  0  0  0  0  0  0  0  0  0  0
    3.1593   -0.3682   -1.0772 H   0  0  0  0  0  0  0  0  0  0  0  0
    2.5646    2.9700    0.5286 H   0  0  0  0  0  0  0  0  0  0  0  0
    3.9788    2.1535    0.5286 H   0  0  0  0  0  0  0  0  0  0  0  0
    4.7768    5.1687    4.0693 H   0  0  0  0  0  0  0  0  0  0  0  0
    3.4030    4.4222    4.5407 H   0  0  0  0  0  0  0  0  0  0  0  0
    4.8172    3.6058    4.5407 H   0  0  0  0  0  0  0  0  0  0  0  0
    4.9760    5.5138    1.9254 H   0  0  0  0  0  0  0  0  0  0  0  0
    5.1457    4.1746    1.0064 H   0  0  0  0  0  0  0  0  0  0  0  0
    3.7315    4.9911    1.0064 H   0  0  0  0  0  0  0  0  0  0  0  0
    0.8150    3.0525    1.0000 H   0  0  0  0  0  0  0  0  0  0  0  0
   -1.4915    1.2432    1.0067 H   0  0  0  0  0  0  0  0  0  0  0  0
   -1.3376    3.8355   -0.2582 H   0  0  0  0  0  0  0  0  0  0  0  0
   -1.3928    2.4120   -1.0564 H   0  0  0  0  0  0  0  0  0  0  0  0
   -3.5426    1.9821   -0.1652 H   0  0  0  0  0  0  0  0  0  0  0  0
   -3.5542    2.0182    2.2208 H   0  0  0  0  0  0  0  0  0  0  0  0
   -3.5377    3.4643    2.9794 H   0  0  0  0  0  0  0  0  0  0  0  0
   -1.3255    3.8490    2.2390 H   0  0  0  0  0  0  0  0  0  0  0  0
   -1.3837    2.4345    3.0530 H   0  0  0  0  0  0  0  0  0  0  0  0
   -3.3842    4.5527   -1.4552 H   0  0  0  0  0  0  0  0  0  0  0  0
   -4.7106    3.6003   -1.4420 H   0  0  0  0  0  0  0  0  0  0  0  0
   -2.1902    2.8735   -2.6488 H   0  0  0  0  0  0  0  0  0  0  0  0
   -3.3440    0.9417   -3.4282 H   0  0  0  0  0  0  0  0  0  0  0  0
   -3.3554    0.9800   -1.7957 H   0  0  0  0  0  0  0  0  0  0  0  0
   -4.6864    1.4222   -2.6321 H   0  0  0  0  0  0  0  0  0  0  0  0
   -3.3509    3.0615   -4.7195 H   0  0  0  0  0  0  0  0  0  0  0  0
   -4.6933    3.5420   -3.9235 H   0  0  0  0  0  0  0  0  0  0  0  0
   -3.3669    4.4944   -3.9366 H   0  0  0  0  0  0  0  0  0  0  0  0
  1  2  2  0  0  0  0
  2  3  1  0  0  0  0
  3  4  1  0  0  0  0
  4  5  1  0  0  0  0
  5  6  2  0  0  0  0
  6  7  1  0  0  0  0
  7  8  2  0  0  0  0
  8  9  1  0  0  0  0
  9  4  2  0  0  0  0
  3 10  1  0  0  0  0
 10 11  1  0  0  0  0
 11 12  2  0  0  0  0
 11 13  1  0  0  0  0
 13 14  1  0  0  0  0
 13 15  1  0  0  0  0
  2 16  1  0  0  0  0
 16 17  1  0  0  0  0
 17 18  1  0  0  0  0
 18 19  1  0  0  0  0
 19 20  1  0  0  0  0
 20 21  1  0  0  0  0
 21 22  1  0  0  0  0
 22 17  1  0  0  0  0
 19 23  1  0  0  0  0
 23 24  1  0  0  0  0
 24 25  1  0  0  0  0
 24 26  1  0  0  0  0
  5 27  1  0  0  0  0
  6 28  1  0  0  0  0
  7 29  1  0  0  0  0
  8 30  1  0  0  0  0
  9 31  1  0  0  0  0
 10 32  1  0  0  0  0
 10 33  1  0  0  0  0
 14 34  1  0  0  0  0
 14 35  1  0  0  0  0
 14 36  1  0  0  0  0
 15 37  1  0  0  0  0
 15 38  1  0  0  0  0
 15 39  1  0  0  0  0
 16 40  1  0  0  0  0
 17 41  1  0  0  0  0
 18 42  1  0  0  0  0
 18 43  1  0  0  0  0
 19 44  1  0  0  0  0
 21 45  1  0  0  0  0
 21 46  1  0  0  0  0
 22 47  1  0  0  0  0
 22 48  1  0  0  0  0
 23 49  1  0  0  0  0
 23 50  1  0  0  0  0
 24 51  1  0  0  0  0
 25 52  1  0  0  0  0
 25 53  1  0  0  0  0
 25 54  1  0  0  0  0
 26 55  1  0  0  0  0
 26 56  1  0  0  0  0
 26 57  1  0  0  0  0
M  END
>  <result-rank>
78

>  <similarity>
0.941

>  <query-name>
LIG_A_1101_CC(C)CC[C@]1([R*])CCCOC1_2

>  <query-smiles>
O=C(N[C@@]1(COCCC1)CCC(C)C)[C@@H](NC(=O)C)Cc2ccc(O)cc2

>  <source>
REALspace_2019-12

>  <similarity-descriptor>
0.925;0.971;0.995;1.000;0.971;1.000;1.000;1.000;1.000;0.909;0.852;0.852;0.977;0.925;0.0;0.071

>  <similarity-descriptor-smiles>
c1ccccc1;C1CCOCC1;O=C;N;C1CCOCC1;C;C;C;C;NC;C=O;C=O;NC;c1ccccc1;;C

>  <reaction-name>
s_272164

>  <reagent1-name>
17323428

>  <reagent1-smiles>
[R1*]C(=O)N(c1ccccc1)CC(=O)N(C)C

>  <reagent2-name>
9382468

>  <reagent2-smiles>
[R1*]NC1CC(OCC1)CC(C)C

$$$$
s_22____10430250____17513450
          04022015103D 1   1.00000     0.00000     0
            
 54 56  0  0  0  0            999 V2000
    0.4000   -0.0392    1.0000 O   0  0  0  0  0  0  0  0  0  0  0  0
    1.0000    1.0000    1.0000 C   0  0  0  0  0  0  0  0  0  0  0  0
    2.3700    1.0000    1.0000 N   0  0  0  0  0  0  0  0  0  0  0  0
    3.1050   -0.2731    1.0000 C   0  0  0  0  0  0  0  0  0  0  0  0
    3.1428   -0.8363   -0.4113 C   0  0  0  0  0  0  0  0  0  0  0  0
    3.9031   -2.1530   -0.4113 C   0  0  3  0  0  0  0  0  0  0  0  0
    5.2194   -1.8824    0.0529 O   0  0  0  0  0  0  0  0  0  0  0  0
    3.8640   -2.8215   -1.7754 C   0  0  3  0  0  0  0  0  0  0  0  0
    2.4922   -3.4303   -1.8391 C   0  0  0  0  0  0  0  0  0  0  0  0
    2.6346   -4.1621   -0.5243 C   0  0  3  0  0  0  0  0  0  0  0  0
    3.1588   -3.1364    0.4714 C   0  0  0  0  0  0  0  0  0  0  0  0
    3.9039   -4.9511   -0.7878 C   0  0  0  0  0  0  0  0  0  0  0  0
    4.7006   -4.0804   -1.7356 C   0  0  0  0  0  0  0  0  0  0  0  0
    0.2400    2.3164    1.0000 C   0  0  3  0  0  0  0  0  0  0  0  0
   -1.2052    2.0477    1.0000 N   0  0  0  0  0  0  0  0  0  0  0  0
   -1.9871    2.5058    2.0275 C   0  0  0  0  0  0  0  0  0  0  0  0
   -1.4922    3.1263    2.9275 O   0  0  0  0  0  0  0  0  0  0  0  0
   -3.4815    2.2281    2.0275 C   0  0  0  0  0  0  0  0  0  0  0  0
    0.6072    3.1134   -0.2411 C   0  0  0  0  0  0  0  0  0  0  0  0
   -0.1528    4.4298   -0.2411 C   0  0  0  0  0  0  0  0  0  0  0  0
    0.4132    5.5469    0.3644 C   0  0  0  0  0  0  0  0  0  0  0  0
   -0.2782    6.7537    0.3662 C   0  0  0  0  0  0  0  0  0  0  0  0
   -1.5287    6.8280   -0.2391 C   0  0  0  0  0  0  0  0  0  0  0  0
   -2.2034    7.9972   -0.2393 O   0  0  0  0  0  0  0  0  0  0  0  0
   -2.0995    5.7138   -0.8457 C   0  0  0  0  0  0  0  0  0  0  0  0
   -1.4035    4.5097   -0.8449 C   0  0  0  0  0  0  0  0  0  0  0  0
    2.8700    1.8660    1.0000 H   0  0  0  0  0  0  0  0  0  0  0  0
    2.6462   -0.9228    1.6060 H   0  0  0  0  0  0  0  0  0  0  0  0
    4.0389   -0.1188    1.3225 H   0  0  0  0  0  0  0  0  0  0  0  0
    2.2089   -0.9906   -0.7338 H   0  0  0  0  0  0  0  0  0  0  0  0
    3.6016   -0.1865   -1.0173 H   0  0  0  0  0  0  0  0  0  0  0  0
    5.1728   -1.4448    0.9508 H   0  0  0  0  0  0  0  0  0  0  0  0
    4.0776   -2.2108   -2.5379 H   0  0  0  0  0  0  0  0  0  0  0  0
    2.3704   -4.0440   -2.6192 H   0  0  0  0  0  0  0  0  0  0  0  0
    1.7595   -2.7498   -1.8327 H   0  0  0  0  0  0  0  0  0  0  0  0
    1.8405   -4.6938   -0.2297 H   0  0  0  0  0  0  0  0  0  0  0  0
    2.4070   -2.6878    0.9546 H   0  0  0  0  0  0  0  0  0  0  0  0
    3.7748   -3.5615    1.1345 H   0  0  0  0  0  0  0  0  0  0  0  0
    3.6913   -5.8319   -1.2109 H   0  0  0  0  0  0  0  0  0  0  0  0
    4.4088   -5.1026    0.0620 H   0  0  0  0  0  0  0  0  0  0  0  0
    5.6168   -3.8977   -1.3792 H   0  0  0  0  0  0  0  0  0  0  0  0
    4.7724   -4.4987   -2.6411 H   0  0  0  0  0  0  0  0  0  0  0  0
    0.4816    2.8407    1.8165 H   0  0  0  0  0  0  0  0  0  0  0  0
   -1.6177    1.5307    0.2500 H   0  0  0  0  0  0  0  0  0  0  0  0
   -3.7231    1.7037    1.2110 H   0  0  0  0  0  0  0  0  0  0  0  0
   -3.7231    1.7037    2.8440 H   0  0  0  0  0  0  0  0  0  0  0  0
   -3.9815    3.0941    2.0275 H   0  0  0  0  0  0  0  0  0  0  0  0
    1.5904    3.2961   -0.2411 H   0  0  0  0  0  0  0  0  0  0  0  0
    0.3656    2.5890   -1.0576 H   0  0  0  0  0  0  0  0  0  0  0  0
    1.3129    5.4826    0.7963 H   0  0  0  0  0  0  0  0  0  0  0  0
    0.1206    7.5620    0.7993 H   0  0  0  0  0  0  0  0  0  0  0  0
   -3.1025    8.0555   -0.6731 H   0  0  0  0  0  0  0  0  0  0  0  0
   -2.9994    5.7778   -1.2771 H   0  0  0  0  0  0  0  0  0  0  0  0
   -1.8020    3.7014   -1.2783 H   0  0  0  0  0  0  0  0  0  0  0  0
  1  2  2  0  0  0  0
  2  3  1  0  0  0  0
  3  4  1  0  0  0  0
  4  5  1  0  0  0  0
  5  6  1  0  0  0  0
  6  7  1  0  0  0  0
  6  8  1  0  0  0  0
  8  9  1  0  0  0  0
  9 10  1  0  0  0  0
 10 11  1  0  0  0  0
 11  6  1  0  0  0  0
 10 12  1  0  0  0  0
 12 13  1  0  0  0  0
 13  8  1  0  0  0  0
  2 14  1  0  0  0  0
 14 15  1  0  0  0  0
 15 16  1  0  0  0  0
 16 17  2  0  0  0  0
 16 18  1  0  0  0  0
 14 19  1  0  0  0  0
 19 20  1  0  0  0  0
 20 21  1  0  0  0  0
 21 22  2  0  0  0  0
 22 23  1  0  0  0  0
 23 24  1  0  0  0  0
 23 25  2  0  0  0  0
 25 26  1  0  0  0  0
 26 20  2  0  0  0  0
  3 27  1  0  0  0  0
  4 28  1  0  0  0  0
  4 29  1  0  0  0  0
  5 30  1  0  0  0  0
  5 31  1  0  0  0  0
  7 32  1  0  0  0  0
  8 33  1  0  0  0  0
  9 34  1  0  0  0  0
  9 35  1  0  0  0  0
 10 36  1  0  0  0  0
 11 37  1  0  0  0  0
 11 38  1  0  0  0  0
 12 39  1  0  0  0  0
 12 40  1  0  0  0  0
 13 41  1  0  0  0  0
 13 42  1  0  0  0  0
 14 43  1  0  0  0  0
 15 44  1  0  0  0  0
 18 45  1  0  0  0  0
 18 46  1  0  0  0  0
 18 47  1  0  0  0  0
 19 48  1  0  0  0  0
 19 49  1  0  0  0  0
 21 50  1  0  0  0  0
 22 51  1  0  0  0  0
 24 52  1  0  0  0  0
 25 53  1  0  0  0  0
 26 54  1  0  0  0  0
M  END
>  <result-rank>
79

>  <similarity>
0.940

>  <query-name>
LIG_A_1101_CC(C)CC[C@]1([R*])CCCOC1_2

>  <query-smiles>
O=C(N[C@@]1(COCCC1)CCC(C)C)[C@@H](NC(=O)C)Cc2ccc(O)cc2

>  <source>
REALspace_2019-12

>  <similarity-descriptor>
1.000;0.852;1.000;1.000;0.846;0.846;0.846;0.846;0.846;1.000;1.000;1.000;1.000;1.000;1.000;0.0

>  <similarity-descriptor-smiles>
c1ccccc1;CCC1(CCCC1)O;O=C;N;C1CCCC1;C1CCCC1;C1CCCC1;C1CCCC1;C1CCCC1;C;N;C=O;C;C;O;

>  <reaction-name>
s_22

>  <reagent1-name>
10430250

>  <reagent1-smiles>
[R1*]NCCC1(O)C2CC(C1)CC2

>  <reagent2-name>
17513450

>  <reagent2-smiles>
[R1*]C(=O)C(NC(=O)C)Cc1ccc(O)cc1

$$$$
s_527a____6951206____17513452
          04022015103D 1   1.00000     0.00000     0
            
 58 58  0  0  0  0            999 V2000
    0.9150    1.0000    3.2257 O   0  0  0  0  0  0  0  0  0  0  0  0
    0.3150    1.0000    2.1865 C   0  0  0  0  0  0  0  0  0  0  0  0
    1.0000    1.0000    1.0000 N   0  0  0  0  0  0  0  0  0  0  0  0
    2.4700    1.0000    1.0000 C   0  0  0  0  0  0  0  0  0  0  0  0
    2.9767   -0.4113    1.2488 C   0  0  3  0  0  0  0  0  0  0  0  0
    4.3967   -0.4113    1.2488 O   0  0  0  0  0  0  0  0  0  0  0  0
    4.8700    0.4493    2.2744 C   0  0  0  0  0  0  0  0  0  0  0  0
    6.3900    0.4493    2.2744 C   0  0  0  0  0  0  0  0  0  0  0  0
    2.4700   -1.3325    0.1511 C   0  0  0  0  0  0  0  0  0  0  0  0
    2.9767   -2.7438    0.3999 C   0  0  0  0  0  0  0  0  0  0  0  0
    2.4867   -3.6346   -0.6618 N   0  3  0  0  0  0  0  0  0  0  0  0
    1.0167   -3.6346   -0.6618 C   0  0  0  0  0  0  0  0  0  0  0  0
    2.9767   -3.1606   -1.9641 C   0  0  0  0  0  0  0  0  0  0  0  0
   -1.2050    1.0000    2.1865 C   0  0  3  0  0  0  0  0  0  0  0  0
   -1.6950    1.0000    3.5724 N   0  0  0  0  0  0  0  0  0  0  0  0
   -2.4826    2.0275    4.0205 C   0  0  0  0  0  0  0  0  0  0  0  0
   -2.7725    2.9275    3.2816 O   0  0  0  0  0  0  0  0  0  0  0  0
   -2.9893    2.0275    5.4535 C   0  0  0  0  0  0  0  0  0  0  0  0
   -1.7117   -0.2411    1.4699 C   0  0  0  0  0  0  0  0  0  0  0  0
   -3.2317   -0.2411    1.4699 C   0  0  0  0  0  0  0  0  0  0  0  0
   -3.9161    0.3644    0.4212 C   0  0  0  0  0  0  0  0  0  0  0  0
   -5.3069    0.3662    0.4166 C   0  0  0  0  0  0  0  0  0  0  0  0
   -5.9966   -0.2391    1.4624 C   0  0  0  0  0  0  0  0  0  0  0  0
   -7.3464   -0.2393    1.4621 O   0  0  0  0  0  0  0  0  0  0  0  0
   -5.3170   -0.8457    2.5138 C   0  0  0  0  0  0  0  0  0  0  0  0
   -3.9262   -0.8449    2.5131 C   0  0  0  0  0  0  0  0  0  0  0  0
    2.8200   -4.5631   -0.4981 H   0  0  0  0  0  0  0  0  0  0  0  0
    0.5000    1.0000    0.1340 H   0  0  0  0  0  0  0  0  0  0  0  0
    2.8033    1.6060    1.7222 H   0  0  0  0  0  0  0  0  0  0  0  0
    2.8033    1.3225    0.1140 H   0  0  0  0  0  0  0  0  0  0  0  0
    2.6433   -0.7338    2.1348 H   0  0  0  0  0  0  0  0  0  0  0  0
    4.5367    0.1268    3.1604 H   0  0  0  0  0  0  0  0  0  0  0  0
    4.5367    1.3777    2.1107 H   0  0  0  0  0  0  0  0  0  0  0  0
    6.7233    1.0553    2.9967 H   0  0  0  0  0  0  0  0  0  0  0  0
    6.7233   -0.4792    2.4381 H   0  0  0  0  0  0  0  0  0  0  0  0
    6.7233    0.7717    1.3885 H   0  0  0  0  0  0  0  0  0  0  0  0
    2.8033   -1.0100   -0.7349 H   0  0  0  0  0  0  0  0  0  0  0  0
    1.4700   -1.3325    0.1511 H   0  0  0  0  0  0  0  0  0  0  0  0
    3.9767   -2.7438    0.3999 H   0  0  0  0  0  0  0  0  0  0  0  0
    2.6433   -3.0662    1.2859 H   0  0  0  0  0  0  0  0  0  0  0  0
    0.6833   -4.2406   -1.3840 H   0  0  0  0  0  0  0  0  0  0  0  0
    0.6833   -3.9571    0.2242 H   0  0  0  0  0  0  0  0  0  0  0  0
    0.6833   -2.7061   -0.8255 H   0  0  0  0  0  0  0  0  0  0  0  0
    2.6433   -3.7666   -2.6864 H   0  0  0  0  0  0  0  0  0  0  0  0
    2.6433   -2.2321   -2.1278 H   0  0  0  0  0  0  0  0  0  0  0  0
    3.9767   -3.1606   -1.9641 H   0  0  0  0  0  0  0  0  0  0  0  0
   -1.5383    1.8165    1.7151 H   0  0  0  0  0  0  0  0  0  0  0  0
   -1.4534    0.2500    4.1881 H   0  0  0  0  0  0  0  0  0  0  0  0
   -2.6560    1.2110    5.9249 H   0  0  0  0  0  0  0  0  0  0  0  0
   -2.6560    2.8440    5.9249 H   0  0  0  0  0  0  0  0  0  0  0  0
   -3.9893    2.0275    5.4535 H   0  0  0  0  0  0  0  0  0  0  0  0
   -1.3783   -0.2411    0.5271 H   0  0  0  0  0  0  0  0  0  0  0  0
   -1.3783   -1.0576    1.9413 H   0  0  0  0  0  0  0  0  0  0  0  0
   -3.4106    0.7963   -0.3258 H   0  0  0  0  0  0  0  0  0  0  0  0
   -5.8076    0.7993   -0.3330 H   0  0  0  0  0  0  0  0  0  0  0  0
   -7.8465   -0.6731    2.2116 H   0  0  0  0  0  0  0  0  0  0  0  0
   -5.8224   -1.2771    3.2611 H   0  0  0  0  0  0  0  0  0  0  0  0
   -3.4255   -1.2783    3.2624 H   0  0  0  0  0  0  0  0  0  0  0  0
  1  2  2  0  0  0  0
  2  3  1  0  0  0  0
  3  4  1  0  0  0  0
  4  5  1  0  0  0  0
  5  6  1  0  0  0  0
  6  7  1  0  0  0  0
  7  8  1  0  0  0  0
  5  9  1  0  0  0  0
  9 10  1  0  0  0  0
 10 11  1  0  0  0  0
 11 12  1  0  0  0  0
 11 13  1  0  0  0  0
  2 14  1  0  0  0  0
 14 15  1  0  0  0  0
 15 16  1  0  0  0  0
 16 17  2  0  0  0  0
 16 18  1  0  0  0  0
 14 19  1  0  0  0  0
 19 20  1  0  0  0  0
 20 21  1  0  0  0  0
 21 22  2  0  0  0  0
 22 23  1  0  0  0  0
 23 24  1  0  0  0  0
 23 25  2  0  0  0  0
 25 26  1  0  0  0  0
 26 20  2  0  0  0  0
 11 27  1  0  0  0  0
  3 28  1  0  0  0  0
  4 29  1  0  0  0  0
  4 30  1  0  0  0  0
  5 31  1  0  0  0  0
  7 32  1  0  0  0  0
  7 33  1  0  0  0  0
  8 34  1  0  0  0  0
  8 35  1  0  0  0  0
  8 36  1  0  0  0  0
  9 37  1  0  0  0  0
  9 38  1  0  0  0  0
 10 39  1  0  0  0  0
 10 40  1  0  0  0  0
 12 41  1  0  0  0  0
 12 42  1  0  0  0  0
 12 43  1  0  0  0  0
 13 44  1  0  0  0  0
 13 45  1  0  0  0  0
 13 46  1  0  0  0  0
 14 47  1  0  0  0  0
 15 48  1  0  0  0  0
 18 49  1  0  0  0  0
 18 50  1  0  0  0  0
 18 51  1  0  0  0  0
 19 52  1  0  0  0  0
 19 53  1  0  0  0  0
 21 54  1  0  0  0  0
 22 55  1  0  0  0  0
 24 56  1  0  0  0  0
 25 57  1  0  0  0  0
 26 58  1  0  0  0  0
M  CHG  1  11   1
M  END
>  <result-rank>
80

>  <similarity>
0.940

>  <query-name>
LIG_A_1101_CC(C)CC[C@]1([R*])CCCOC1_2

>  <query-smiles>
O=C(N[C@@]1(COCCC1)CCC(C)C)[C@@H](NC(=O)C)Cc2ccc(O)cc2

>  <source>
REALspace_2019-12

>  <similarity-descriptor>
1.000;0.895;1.000;1.000;1.000;0.993;0.504;0.504;0.995;1.000;1.000;1.000;1.000;1.000;1.000;0.0

>  <similarity-descriptor-smiles>
c1ccccc1;CCOCC;O=C;N;C;C;[NH+]C;[NH+]C;C;C;N;C=O;C;C;O;

>  <reaction-name>
s_527a

>  <reagent1-name>
6951206

>  <reagent1-smiles>
[R1*]NCC(OCC)CCN(C)C

>  <reagent2-name>
17513452

>  <reagent2-smiles>
[R1*]C(=O)C(NC(=O)C)Cc1ccc(O)cc1

$$$$
s_2708____13426432____14938918
          04022015103D 1   1.00000     0.00000     0
            
 46 48  0  0  0  0            999 V2000
    3.2674   -5.6809   -0.0041 F   0  0  0  0  0  0  0  0  0  0  0  0
    3.9167   -4.5375   -0.2035 C   0  0  0  0  0  0  0  0  0  0  0  0
    5.2919   -4.5590   -0.4121 C   0  0  0  0  0  0  0  0  0  0  0  0
    5.9601   -3.3568   -0.6197 C   0  0  0  0  0  0  0  0  0  0  0  0
    7.2945   -3.3689   -0.8231 O   0  0  0  0  0  0  0  0  0  0  0  0
    5.2770   -2.1453   -0.6219 C   0  0  0  0  0  0  0  0  0  0  0  0
    3.9026   -2.1523   -0.4113 C   0  0  0  0  0  0  0  0  0  0  0  0
    3.2101   -3.3397   -0.2009 C   0  0  0  0  0  0  0  0  0  0  0  0
    3.1428   -0.8363   -0.4113 C   0  0  0  0  0  0  0  0  0  0  0  0
    3.1050   -0.2731    1.0000 C   0  0  0  0  0  0  0  0  0  0  0  0
    2.3700    1.0000    1.0000 N   0  0  0  0  0  0  0  0  0  0  0  0
    1.0000    1.0000    1.0000 C   0  0  0  0  0  0  0  0  0  0  0  0
    0.4000   -0.0392    1.0000 O   0  0  0  0  0  0  0  0  0  0  0  0
    0.3150    2.1865    1.0000 N   0  0  0  0  0  0  0  0  0  0  0  0
   -1.1550    2.1865    1.0000 C   0  0  0  0  0  0  0  0  0  0  0  0
   -1.6616    1.9377    2.4110 C   0  0  3  0  0  0  0  0  0  0  0  0
   -1.2298    0.6959    2.9409 O   0  0  0  0  0  0  0  0  0  0  0  0
   -2.1772   -0.3320    2.6914 C   0  0  0  0  0  0  0  0  0  0  0  0
   -3.3482    0.3302    2.0068 C   0  0  0  0  0  0  0  0  0  0  0  0
   -3.1668    1.7732    2.4339 C   0  0  0  0  0  0  0  0  0  0  0  0
   -1.1971    3.1003    3.2741 C   0  0  0  0  0  0  0  0  0  0  0  0
   -1.7404    2.9852    4.6684 C   0  0  0  0  0  0  0  0  0  0  0  0
   -2.3330    3.9796    3.7115 C   0  0  0  0  0  0  0  0  0  0  0  0
    5.7921   -5.4249   -0.4128 H   0  0  0  0  0  0  0  0  0  0  0  0
    7.7851   -2.5106   -0.9734 H   0  0  0  0  0  0  0  0  0  0  0  0
    5.7651   -1.2856   -0.7722 H   0  0  0  0  0  0  0  0  0  0  0  0
    2.2215   -3.3324   -0.0503 H   0  0  0  0  0  0  0  0  0  0  0  0
    2.2089   -0.9906   -0.7338 H   0  0  0  0  0  0  0  0  0  0  0  0
    3.6016   -0.1865   -1.0173 H   0  0  0  0  0  0  0  0  0  0  0  0
    2.6462   -0.9228    1.6060 H   0  0  0  0  0  0  0  0  0  0  0  0
    4.0389   -0.1188    1.3225 H   0  0  0  0  0  0  0  0  0  0  0  0
    2.8700    1.8660    1.0000 H   0  0  0  0  0  0  0  0  0  0  0  0
    0.8150    3.0525    1.0000 H   0  0  0  0  0  0  0  0  0  0  0  0
   -1.4883    1.4642    0.3940 H   0  0  0  0  0  0  0  0  0  0  0  0
   -1.4883    3.0724    0.6775 H   0  0  0  0  0  0  0  0  0  0  0  0
   -2.4697   -0.7499    3.5515 H   0  0  0  0  0  0  0  0  0  0  0  0
   -1.7801   -1.0326    2.0985 H   0  0  0  0  0  0  0  0  0  0  0  0
   -4.2187   -0.0405    2.3305 H   0  0  0  0  0  0  0  0  0  0  0  0
   -3.2936    0.2333    1.0130 H   0  0  0  0  0  0  0  0  0  0  0  0
   -3.6081    2.3985    1.7902 H   0  0  0  0  0  0  0  0  0  0  0  0
   -3.5328    1.9268    3.3518 H   0  0  0  0  0  0  0  0  0  0  0  0
   -0.2912    3.4971    3.1259 H   0  0  0  0  0  0  0  0  0  0  0  0
   -1.1958    3.3020    5.4449 H   0  0  0  0  0  0  0  0  0  0  0  0
   -2.2634    2.1760    4.9360 H   0  0  0  0  0  0  0  0  0  0  0  0
   -3.2504    3.8324    3.3417 H   0  0  0  0  0  0  0  0  0  0  0  0
   -2.1828    4.9584    3.8507 H   0  0  0  0  0  0  0  0  0  0  0  0
  1  2  1  0  0  0  0
  2  3  1  0  0  0  0
  3  4  2  0  0  0  0
  4  5  1  0  0  0  0
  4  6  1  0  0  0  0
  6  7  2  0  0  0  0
  7  8  1  0  0  0  0
  8  2  2  0  0  0  0
  7  9  1  0  0  0  0
  9 10  1  0  0  0  0
 10 11  1  0  0  0  0
 11 12  1  0  0  0  0
 12 13  2  0  0  0  0
 12 14  1  0  0  0  0
 14 15  1  0  0  0  0
 15 16  1  0  0  0  0
 16 17  1  0  0  0  0
 17 18  1  0  0  0  0
 18 19  1  0  0  0  0
 19 20  1  0  0  0  0
 20 16  1  0  0  0  0
 16 21  1  0  0  0  0
 21 22  1  0  0  0  0
 22 23  1  0  0  0  0
 23 21  1  0  0  0  0
  3 24  1  0  0  0  0
  5 25  1  0  0  0  0
  6 26  1  0  0  0  0
  8 27  1  0  0  0  0
  9 28  1  0  0  0  0
  9 29  1  0  0  0  0
 10 30  1  0  0  0  0
 10 31  1  0  0  0  0
 11 32  1  0  0  0  0
 14 33  1  0  0  0  0
 15 34  1  0  0  0  0
 15 35  1  0  0  0  0
 18 36  1  0  0  0  0
 18 37  1  0  0  0  0
 19 38  1  0  0  0  0
 19 39  1  0  0  0  0
 20 40  1  0  0  0  0
 20 41  1  0  0  0  0
 21 42  1  0  0  0  0
 22 43  1  0  0  0  0
 22 44  1  0  0  0  0
 23 45  1  0  0  0  0
 23 46  1  0  0  0  0
M  END
>  <result-rank>
81

>  <similarity>
0.940

>  <query-name>
LIG_A_1101_CC(C)CC[C@]1([R*])CCCOC1_2

>  <query-smiles>
O=C(N[C@@]1(COCCC1)CCC(C)C)[C@@H](NC(=O)C)Cc2ccc(O)cc2

>  <source>
REALspace_2019-12

>  <similarity-descriptor>
0.965;1.000;0.995;1.000;0.900;0.900;0.900;0.0;0.0;0.952;0.952;0.0;0.0;1.000;1.000;0.0

>  <similarity-descriptor-smiles>
Fc1ccccc1;CC1CCCO1;C=O;N;C1CC1;C1CC1;C1CC1;;;CN;CN;;;C;O;

>  <reaction-name>
s_2708

>  <reagent1-name>
13426432

>  <reagent1-smiles>
[R1*]C(=O)NCCc1cc(F)cc(O)c1

>  <reagent2-name>
14938918

>  <reagent2-smiles>
[R1*]NCC1(OCCC1)C2CC2

$$$$
s_271949____10832348____12139220
          04022015103D 1   1.00000     0.00000     0
            
 53 54  0  0  0  0            999 V2000
    2.4494   -0.5841    4.4848 O   0  0  0  0  0  0  0  0  0  0  0  0
    3.3542    0.1822    4.2999 C   0  0  0  0  0  0  0  0  0  0  0  0
    3.2114    1.2255    3.3733 N   0  0  0  0  0  0  0  0  0  0  0  0
    2.0224    1.4937    2.5693 C   0  0  0  0  0  0  0  0  0  0  0  0
    2.0036    3.0049    2.5311 C   0  0  3  0  0  0  0  0  0  0  0  0
    1.3112    3.4864    1.3896 O   0  0  0  0  0  0  0  0  0  0  0  0
    1.3189    4.9064    1.3954 C   0  0  0  0  0  0  0  0  0  0  0  0
    0.5773    5.4220    0.1729 C   0  0  0  0  0  0  0  0  0  0  0  0
    1.2628    4.9167   -1.0861 C   0  0  0  0  0  0  0  0  0  0  0  0
    0.5212    5.4324   -2.3086 C   0  0  0  0  0  0  0  0  0  0  0  0
    2.6983    5.4157   -1.1165 C   0  0  0  0  0  0  0  0  0  0  0  0
    3.4622    3.4171    2.4912 C   0  0  0  0  0  0  0  0  0  0  0  0
    4.2325    2.2263    3.0455 C   0  0  0  0  0  0  0  0  0  0  0  0
    4.6550    0.0222    5.0698 C   0  0  0  0  0  0  0  0  0  0  0  0
    5.6487   -0.3367    4.5008 O   0  0  0  0  0  0  0  0  0  0  0  0
    4.6929    0.2877    6.4132 N   0  0  0  0  0  0  0  0  0  0  0  0
    5.9510    0.1330    7.1578 C   0  0  0  0  0  0  0  0  0  0  0  0
    6.5975    1.4947    7.3484 C   0  0  0  0  0  0  0  0  0  0  0  0
    6.2818    2.2390    8.4804 C   0  0  0  0  0  0  0  0  0  0  0  0
    6.8752    3.4845    8.6534 C   0  0  0  0  0  0  0  0  0  0  0  0
    6.5821    4.2237    9.7439 O   0  0  0  0  0  0  0  0  0  0  0  0
    7.7696    3.9786    7.7094 C   0  0  0  0  0  0  0  0  0  0  0  0
    8.0765    3.2252    6.5805 C   0  0  0  0  0  0  0  0  0  0  0  0
    7.4903    1.9772    6.3967 C   0  0  0  0  0  0  0  0  0  0  0  0
    3.4756    0.7273    7.1102 C   0  0  0  0  0  0  0  0  0  0  0  0
    1.1991    1.1310    3.0060 H   0  0  0  0  0  0  0  0  0  0  0  0
    2.1101    1.1080    1.6509 H   0  0  0  0  0  0  0  0  0  0  0  0
    1.5744    3.3593    3.3618 H   0  0  0  0  0  0  0  0  0  0  0  0
    2.2633    5.2347    1.3754 H   0  0  0  0  0  0  0  0  0  0  0  0
    0.8679    5.2388    2.2237 H   0  0  0  0  0  0  0  0  0  0  0  0
   -0.3671    5.0938    0.1929 H   0  0  0  0  0  0  0  0  0  0  0  0
    0.5827    6.4220    0.1769 H   0  0  0  0  0  0  0  0  0  0  0  0
    1.2574    3.9168   -1.0902 H   0  0  0  0  0  0  0  0  0  0  0  0
    0.9722    5.1000   -3.1369 H   0  0  0  0  0  0  0  0  0  0  0  0
   -0.4231    5.1041   -2.2886 H   0  0  0  0  0  0  0  0  0  0  0  0
    0.5267    6.4324   -2.3046 H   0  0  0  0  0  0  0  0  0  0  0  0
    3.1493    5.0833   -1.9448 H   0  0  0  0  0  0  0  0  0  0  0  0
    2.7037    6.4157   -1.1124 H   0  0  0  0  0  0  0  0  0  0  0  0
    3.1862    5.0765   -0.3122 H   0  0  0  0  0  0  0  0  0  0  0  0
    3.6130    4.2265    3.0587 H   0  0  0  0  0  0  0  0  0  0  0  0
    3.7457    3.6109    1.5520 H   0  0  0  0  0  0  0  0  0  0  0  0
    4.8664    1.8689    2.3597 H   0  0  0  0  0  0  0  0  0  0  0  0
    4.7416    2.4891    3.8652 H   0  0  0  0  0  0  0  0  0  0  0  0
    6.5707   -0.4615    6.6453 H   0  0  0  0  0  0  0  0  0  0  0  0
    5.7615   -0.2741    8.0514 H   0  0  0  0  0  0  0  0  0  0  0  0
    5.6386    1.8840    9.1588 H   0  0  0  0  0  0  0  0  0  0  0  0
    7.0080    5.1196    9.8698 H   0  0  0  0  0  0  0  0  0  0  0  0
    8.1920    4.8753    7.8421 H   0  0  0  0  0  0  0  0  0  0  0  0
    8.7185    3.5810    5.9013 H   0  0  0  0  0  0  0  0  0  0  0  0
    7.7086    1.4316    5.5875 H   0  0  0  0  0  0  0  0  0  0  0  0
    3.6805    0.8752    8.0778 H   0  0  0  0  0  0  0  0  0  0  0  0
    3.1490    1.5809    6.7044 H   0  0  0  0  0  0  0  0  0  0  0  0
    2.7693    0.0249    7.0226 H   0  0  0  0  0  0  0  0  0  0  0  0
  1  2  2  0  0  0  0
  2  3  1  0  0  0  0
  3  4  1  0  0  0  0
  4  5  1  0  0  0  0
  5  6  1  0  0  0  0
  6  7  1  0  0  0  0
  7  8  1  0  0  0  0
  8  9  1  0  0  0  0
  9 10  1  0  0  0  0
  9 11  1  0  0  0  0
  5 12  1  0  0  0  0
 12 13  1  0  0  0  0
 13  3  1  0  0  0  0
  2 14  1  0  0  0  0
 14 15  2  0  0  0  0
 14 16  1  0  0  0  0
 16 17  1  0  0  0  0
 17 18  1  0  0  0  0
 18 19  1  0  0  0  0
 19 20  2  0  0  0  0
 20 21  1  0  0  0  0
 20 22  1  0  0  0  0
 22 23  2  0  0  0  0
 23 24  1  0  0  0  0
 24 18  2  0  0  0  0
 16 25  1  0  0  0  0
  4 26  1  0  0  0  0
  4 27  1  0  0  0  0
  5 28  1  0  0  0  0
  7 29  1  0  0  0  0
  7 30  1  0  0  0  0
  8 31  1  0  0  0  0
  8 32  1  0  0  0  0
  9 33  1  0  0  0  0
 10 34  1  0  0  0  0
 10 35  1  0  0  0  0
 10 36  1  0  0  0  0
 11 37  1  0  0  0  0
 11 38  1  0  0  0  0
 11 39  1  0  0  0  0
 12 40  1  0  0  0  0
 12 41  1  0  0  0  0
 13 42  1  0  0  0  0
 13 43  1  0  0  0  0
 17 44  1  0  0  0  0
 17 45  1  0  0  0  0
 19 46  1  0  0  0  0
 21 47  1  0  0  0  0
 22 48  1  0  0  0  0
 23 49  1  0  0  0  0
 24 50  1  0  0  0  0
 25 51  1  0  0  0  0
 25 52  1  0  0  0  0
 25 53  1  0  0  0  0
M  END
>  <result-rank>
82

>  <similarity>
0.940

>  <query-name>
LIG_A_1101_CC(C)CC[C@]1([R*])CCCOC1_2

>  <query-smiles>
O=C(N[C@@]1(COCCC1)CCC(C)C)[C@@H](NC(=O)C)Cc2ccc(O)cc2

>  <source>
REALspace_2019-12

>  <similarity-descriptor>
1.000;0.985;0.851;0.851;0.993;1.000;1.000;1.000;1.000;0.768;0.768;0.768;0.0;0.969;1.000;0.071

>  <similarity-descriptor-smiles>
c1ccccc1;N1CCC(C1)O;O=C;O=C;C;C;C;C;C;C=O;C=O;C=O;;NC;O;C

>  <reaction-name>
s_271949

>  <reagent1-name>
10832348

>  <reagent1-smiles>
[R1*]C(=O)C(=O)N(Cc1cc(O)ccc1)C

>  <reagent2-name>
12139220

>  <reagent2-smiles>
[R1*]N1CC(OCCC(C)C)CC1

$$$$
s_22____12222500____17318518
          04022015103D 1   1.00000     0.00000     0
            
 68 69  0  0  0  0            999 V2000
    5.9532   -0.9938   -3.5680 Br  0  0  0  0  0  0  0  0  0  0  0  0
    4.3464   -1.2238   -2.4696 C   0  0  0  0  0  0  0  0  0  0  0  0
    4.3157   -0.7074   -1.1789 C   0  0  0  0  0  0  0  0  0  0  0  0
    3.1678   -0.8797   -0.4115 C   0  0  0  0  0  0  0  0  0  0  0  0
    2.0630   -1.5561   -0.9175 C   0  0  0  0  0  0  0  0  0  0  0  0
    2.1153   -2.0652   -2.2109 C   0  0  0  0  0  0  0  0  0  0  0  0
    3.2529   -1.9040   -2.9949 C   0  0  0  0  0  0  0  0  0  0  0  0
    3.1300   -0.3164    1.0000 C   0  0  3  0  0  0  0  0  0  0  0  0
    2.4556   -1.2716    1.8909 N   0  0  0  0  0  0  0  0  0  0  0  0
    3.1241   -1.7951    2.9660 C   0  0  0  0  0  0  0  0  0  0  0  0
    2.5735   -2.5748    3.6932 O   0  0  0  0  0  0  0  0  0  0  0  0
    4.3644   -1.4444    3.2001 O   0  0  0  0  0  0  0  0  0  0  0  0
    5.0573   -1.9870    4.3145 C   0  0  0  0  0  0  0  0  0  0  0  0
    4.3242   -1.6204    5.5945 C   0  0  0  0  0  0  0  0  0  0  0  0
    5.1220   -3.5000    4.1832 C   0  0  0  0  0  0  0  0  0  0  0  0
    6.4675   -1.4215    4.3586 C   0  0  0  0  0  0  0  0  0  0  0  0
    2.3700    1.0000    1.0000 C   0  0  0  0  0  0  0  0  0  0  0  0
    2.9700    2.0392    1.0000 O   0  0  0  0  0  0  0  0  0  0  0  0
    1.0000    1.0000    1.0000 N   0  0  0  0  0  0  0  0  0  0  0  0
    0.2652    2.2727    1.0000 C   0  0  3  0  0  0  0  0  0  0  0  0
   -0.6128    2.3645    2.2376 C   0  0  0  0  0  0  0  0  0  0  0  0
   -1.3773    3.6784    2.2393 C   0  0  0  0  0  0  0  0  0  0  0  0
   -2.2362    3.7869    0.9894 C   0  0  3  0  0  0  0  0  0  0  0  0
   -2.9376    5.0212    0.9893 O   0  0  0  0  0  0  0  0  0  0  0  0
   -2.0077    6.0941    1.0123 C   0  0  0  0  0  0  0  0  0  0  0  0
   -2.7587    7.4156    1.0121 C   0  0  0  0  0  0  0  0  0  0  0  0
   -1.7633    8.5641    1.0368 C   0  0  0  0  0  0  0  0  0  0  0  0
   -0.9088    8.4671    2.2901 C   0  0  0  0  0  0  0  0  0  0  0  0
   -0.8714    8.4880   -0.1917 C   0  0  0  0  0  0  0  0  0  0  0  0
   -1.3518    3.6976   -0.2437 C   0  0  0  0  0  0  0  0  0  0  0  0
   -0.5876    2.3834   -0.2535 C   0  0  0  0  0  0  0  0  0  0  0  0
    5.1061   -0.2199   -0.8080 H   0  0  0  0  0  0  0  0  0  0  0  0
    1.2421   -1.6748   -0.3590 H   0  0  0  0  0  0  0  0  0  0  0  0
    1.3251   -2.5532   -2.5818 H   0  0  0  0  0  0  0  0  0  0  0  0
    3.2841   -2.2724   -3.9240 H   0  0  0  0  0  0  0  0  0  0  0  0
    4.0639   -0.1621    1.3225 H   0  0  0  0  0  0  0  0  0  0  0  0
    1.5088   -1.5392    1.7121 H   0  0  0  0  0  0  0  0  0  0  0  0
    4.8121   -2.0025    6.3793 H   0  0  0  0  0  0  0  0  0  0  0  0
    4.2816   -0.6250    5.6809 H   0  0  0  0  0  0  0  0  0  0  0  0
    3.3964   -1.9924    5.5655 H   0  0  0  0  0  0  0  0  0  0  0  0
    5.6100   -3.8821    4.9680 H   0  0  0  0  0  0  0  0  0  0  0  0
    4.1942   -3.8720    4.1542 H   0  0  0  0  0  0  0  0  0  0  0  0
    5.6043   -3.7412    3.3411 H   0  0  0  0  0  0  0  0  0  0  0  0
    6.9555   -1.8036    5.1434 H   0  0  0  0  0  0  0  0  0  0  0  0
    6.9498   -1.6627    3.5165 H   0  0  0  0  0  0  0  0  0  0  0  0
    6.4250   -0.4262    4.4450 H   0  0  0  0  0  0  0  0  0  0  0  0
    0.5000    0.1340    1.0000 H   0  0  0  0  0  0  0  0  0  0  0  0
    0.9224    3.0263    1.0124 H   0  0  0  0  0  0  0  0  0  0  0  0
   -0.0387    2.3147    3.0549 H   0  0  0  0  0  0  0  0  0  0  0  0
   -1.2622    1.6040    2.2395 H   0  0  0  0  0  0  0  0  0  0  0  0
   -1.9642    3.7182    3.0480 H   0  0  0  0  0  0  0  0  0  0  0  0
   -0.7279    4.4386    2.2610 H   0  0  0  0  0  0  0  0  0  0  0  0
   -2.8948    3.0345    0.9768 H   0  0  0  0  0  0  0  0  0  0  0  0
   -1.4209    6.0441    0.2041 H   0  0  0  0  0  0  0  0  0  0  0  0
   -1.4455    6.0303    1.8368 H   0  0  0  0  0  0  0  0  0  0  0  0
   -3.3209    7.4794    0.1876 H   0  0  0  0  0  0  0  0  0  0  0  0
   -3.3455    7.4657    1.8203 H   0  0  0  0  0  0  0  0  0  0  0  0
   -2.2574    9.4335    1.0367 H   0  0  0  0  0  0  0  0  0  0  0  0
   -0.2539    9.2227    2.3063 H   0  0  0  0  0  0  0  0  0  0  0  0
   -1.4955    8.5171    3.0983 H   0  0  0  0  0  0  0  0  0  0  0  0
   -0.4147    7.5977    2.2902 H   0  0  0  0  0  0  0  0  0  0  0  0
   -0.2165    9.2436   -0.1755 H   0  0  0  0  0  0  0  0  0  0  0  0
   -0.3773    7.6186   -0.1916 H   0  0  0  0  0  0  0  0  0  0  0  0
   -1.4336    8.5518   -1.0162 H   0  0  0  0  0  0  0  0  0  0  0  0
   -0.7012    4.4571   -0.2384 H   0  0  0  0  0  0  0  0  0  0  0  0
   -1.9223    3.7532   -1.0631 H   0  0  0  0  0  0  0  0  0  0  0  0
   -1.2362    1.6228   -0.2818 H   0  0  0  0  0  0  0  0  0  0  0  0
    0.0023    2.3487   -1.0602 H   0  0  0  0  0  0  0  0  0  0  0  0
  1  2  1  0  0  0  0
  2  3  1  0  0  0  0
  3  4  2  0  0  0  0
  4  5  1  0  0  0  0
  5  6  2  0  0  0  0
  6  7  1  0  0  0  0
  7  2  2  0  0  0  0
  4  8  1  0  0  0  0
  8  9  1  0  0  0  0
  9 10  1  0  0  0  0
 10 11  2  0  0  0  0
 10 12  1  0  0  0  0
 12 13  1  0  0  0  0
 13 14  1  0  0  0  0
 13 15  1  0  0  0  0
 13 16  1  0  0  0  0
  8 17  1  0  0  0  0
 17 18  2  0  0  0  0
 17 19  1  0  0  0  0
 19 20  1  0  0  0  0
 20 21  1  0  0  0  0
 21 22  1  0  0  0  0
 22 23  1  0  0  0  0
 23 24  1  0  0  0  0
 24 25  1  0  0  0  0
 25 26  1  0  0  0  0
 26 27  1  0  0  0  0
 27 28  1  0  0  0  0
 27 29  1  0  0  0  0
 23 30  1  0  0  0  0
 30 31  1  0  0  0  0
 31 20  1  0  0  0  0
  3 32  1  0  0  0  0
  5 33  1  0  0  0  0
  6 34  1  0  0  0  0
  7 35  1  0  0  0  0
  8 36  1  0  0  0  0
  9 37  1  0  0  0  0
 14 38  1  0  0  0  0
 14 39  1  0  0  0  0
 14 40  1  0  0  0  0
 15 41  1  0  0  0  0
 15 42  1  0  0  0  0
 15 43  1  0  0  0  0
 16 44  1  0  0  0  0
 16 45  1  0  0  0  0
 16 46  1  0  0  0  0
 19 47  1  0  0  0  0
 20 48  1  0  0  0  0
 21 49  1  0  0  0  0
 21 50  1  0  0  0  0
 22 51  1  0  0  0  0
 22 52  1  0  0  0  0
 23 53  1  0  0  0  0
 25 54  1  0  0  0  0
 25 55  1  0  0  0  0
 26 56  1  0  0  0  0
 26 57  1  0  0  0  0
 27 58  1  0  0  0  0
 28 59  1  0  0  0  0
 28 60  1  0  0  0  0
 28 61  1  0  0  0  0
 29 62  1  0  0  0  0
 29 63  1  0  0  0  0
 29 64  1  0  0  0  0
 30 65  1  0  0  0  0
 30 66  1  0  0  0  0
 31 67  1  0  0  0  0
 31 68  1  0  0  0  0
M  END
>  <result-rank>
83

>  <similarity>
0.940

>  <query-name>
LIG_A_1101_CC(C)CC[C@]1([R*])CCCOC1_2

>  <query-smiles>
O=C(N[C@@]1(COCCC1)CCC(C)C)[C@@H](NC(=O)C)Cc2ccc(O)cc2

>  <source>
REALspace_2019-12

>  <similarity-descriptor>
0.969;0.910;1.000;1.000;0.993;1.000;1.000;1.000;1.000;1.000;1.000;0.851;0.971;0.969;0.0;0.111

>  <similarity-descriptor-smiles>
Brc1ccccc1;C1CCC(CC1)O;C=O;N;C;C;C;C;C;C;N;C(=O)O;CC;Brc1ccccc1;;C.C

>  <reaction-name>
s_22

>  <reagent1-name>
12222500

>  <reagent1-smiles>
[R1*]NC1CCC(OCCC(C)C)CC1

>  <reagent2-name>
17318518

>  <reagent2-smiles>
[R1*]C(=O)C(NC(=O)OC(C)(C)C)c1cc(Br)ccc1

$$$$
s_2708____8333320____11566486
          04022015103D 1   1.00000     0.00000     0
            
 64 65  0  0  0  0            999 V2000
    1.9588   -5.7469    2.1269 F   0  0  0  0  0  0  0  0  0  0  0  0
    2.6743   -4.8985    1.3945 C   0  0  0  0  0  0  0  0  0  0  0  0
    3.8889   -5.3128    0.8562 C   0  0  0  0  0  0  0  0  0  0  0  0
    4.3338   -6.5682    1.0799 O   0  0  0  0  0  0  0  0  0  0  0  0
    5.5733   -6.9906    0.5305 C   0  0  0  0  0  0  0  0  0  0  0  0
    4.6545   -4.4436    0.0860 C   0  0  0  0  0  0  0  0  0  0  0  0
    4.1914   -3.1517   -0.1410 C   0  0  0  0  0  0  0  0  0  0  0  0
    2.9765   -2.7434    0.3998 C   0  0  0  0  0  0  0  0  0  0  0  0
    2.2070   -3.6081    1.1702 C   0  0  0  0  0  0  0  0  0  0  0  0
    2.4700   -1.3325    0.1511 C   0  0  0  0  0  0  0  0  0  0  0  0
    2.9767   -0.4113    1.2488 C   0  0  3  0  0  0  0  0  0  0  0  0
    4.4967   -0.4113    1.2488 C   0  0  0  0  0  0  0  0  0  0  0  0
    5.0967   -0.7667    2.2254 O   0  0  0  0  0  0  0  0  0  0  0  0
    5.1817   -0.0055    0.1339 N   0  0  0  0  0  0  0  0  0  0  0  0
    6.6517   -0.0055    0.1339 C   0  0  0  0  0  0  0  0  0  0  0  0
    2.4700    1.0000    1.0000 C   0  0  0  0  0  0  0  0  0  0  0  0
    1.0000    1.0000    1.0000 N   0  0  0  0  0  0  0  0  0  0  0  0
    0.3150    1.0000    2.1865 C   0  0  0  0  0  0  0  0  0  0  0  0
    0.9150    1.0000    3.2257 O   0  0  0  0  0  0  0  0  0  0  0  0
   -1.0550    1.0000    2.1865 N   0  0  0  0  0  0  0  0  0  0  0  0
   -1.7922    1.0000    3.4633 C   0  0  3  0  0  0  0  0  0  0  0  0
   -2.6740   -0.2347    3.5649 C   0  0  0  0  0  0  0  0  0  0  0  0
   -3.4551   -0.1739    4.8681 C   0  0  3  0  0  0  0  0  0  0  0  0
   -4.2549    1.0003    4.9381 O   0  0  0  0  0  0  0  0  0  0  0  0
   -3.4785    2.1873    4.8492 C   0  0  0  0  0  0  0  0  0  0  0  0
   -2.6846    2.2284    3.5521 C   0  0  0  0  0  0  0  0  0  0  0  0
   -4.2987   -1.4352    4.9622 C   0  0  0  0  0  0  0  0  0  0  0  0
   -5.0489   -1.4456    6.2841 C   0  0  0  0  0  0  0  0  0  0  0  0
   -5.8924   -2.7066    6.3781 C   0  0  0  0  0  0  0  0  0  0  0  0
   -4.0531   -1.4153    7.4320 C   0  0  0  0  0  0  0  0  0  0  0  0
    5.7478   -7.9398    0.7924 H   0  0  0  0  0  0  0  0  0  0  0  0
    5.5369   -6.9212   -0.4664 H   0  0  0  0  0  0  0  0  0  0  0  0
    6.3079   -6.4083    0.8786 H   0  0  0  0  0  0  0  0  0  0  0  0
    5.5270   -4.7437   -0.2997 H   0  0  0  0  0  0  0  0  0  0  0  0
    4.7317   -2.5165   -0.6930 H   0  0  0  0  0  0  0  0  0  0  0  0
    1.3344   -3.3079    1.5555 H   0  0  0  0  0  0  0  0  0  0  0  0
    1.4700   -1.3325    0.1511 H   0  0  0  0  0  0  0  0  0  0  0  0
    2.8033   -1.0100   -0.7349 H   0  0  0  0  0  0  0  0  0  0  0  0
    2.6433   -0.7338    2.1348 H   0  0  0  0  0  0  0  0  0  0  0  0
    4.6817    0.2907   -0.6799 H   0  0  0  0  0  0  0  0  0  0  0  0
    6.9850    0.3170   -0.7520 H   0  0  0  0  0  0  0  0  0  0  0  0
    6.9850    0.6005    0.8562 H   0  0  0  0  0  0  0  0  0  0  0  0
    6.9850   -0.9340    0.2977 H   0  0  0  0  0  0  0  0  0  0  0  0
    2.8033    1.6060    1.7222 H   0  0  0  0  0  0  0  0  0  0  0  0
    2.8033    1.3225    0.1140 H   0  0  0  0  0  0  0  0  0  0  0  0
    0.5000    1.0000    0.1340 H   0  0  0  0  0  0  0  0  0  0  0  0
   -1.5550    1.0000    1.3204 H   0  0  0  0  0  0  0  0  0  0  0  0
   -1.1414    1.0067    4.2226 H   0  0  0  0  0  0  0  0  0  0  0  0
   -3.3094   -0.2582    2.7931 H   0  0  0  0  0  0  0  0  0  0  0  0
   -2.1042   -1.0564    3.5527 H   0  0  0  0  0  0  0  0  0  0  0  0
   -2.8068   -0.1652    5.6294 H   0  0  0  0  0  0  0  0  0  0  0  0
   -2.8439    2.2208    5.6214 H   0  0  0  0  0  0  0  0  0  0  0  0
   -4.0880    2.9794    4.8841 H   0  0  0  0  0  0  0  0  0  0  0  0
   -3.3150    2.2390    2.7759 H   0  0  0  0  0  0  0  0  0  0  0  0
   -2.1192    3.0530    3.5336 H   0  0  0  0  0  0  0  0  0  0  0  0
   -3.7049   -2.2381    4.9096 H   0  0  0  0  0  0  0  0  0  0  0  0
   -4.9539   -1.4552    4.2069 H   0  0  0  0  0  0  0  0  0  0  0  0
   -5.6427   -0.6427    6.3366 H   0  0  0  0  0  0  0  0  0  0  0  0
   -6.3859   -2.7134    7.2478 H   0  0  0  0  0  0  0  0  0  0  0  0
   -6.5475   -2.7265    5.6229 H   0  0  0  0  0  0  0  0  0  0  0  0
   -5.2986   -3.5095    6.3256 H   0  0  0  0  0  0  0  0  0  0  0  0
   -4.5467   -1.4221    8.3017 H   0  0  0  0  0  0  0  0  0  0  0  0
   -3.4593   -2.2182    7.3795 H   0  0  0  0  0  0  0  0  0  0  0  0
   -3.4982   -0.5857    7.3702 H   0  0  0  0  0  0  0  0  0  0  0  0
  1  2  1  0  0  0  0
  2  3  1  0  0  0  0
  3  4  1  0  0  0  0
  4  5  1  0  0  0  0
  3  6  2  0  0  0  0
  6  7  1  0  0  0  0
  7  8  2  0  0  0  0
  8  9  1  0  0  0  0
  9  2  2  0  0  0  0
  8 10  1  0  0  0  0
 10 11  1  0  0  0  0
 11 12  1  0  0  0  0
 12 13  2  0  0  0  0
 12 14  1  0  0  0  0
 14 15  1  0  0  0  0
 11 16  1  0  0  0  0
 16 17  1  0  0  0  0
 17 18  1  0  0  0  0
 18 19  2  0  0  0  0
 18 20  1  0  0  0  0
 20 21  1  0  0  0  0
 21 22  1  0  0  0  0
 22 23  1  0  0  0  0
 23 24  1  0  0  0  0
 24 25  1  0  0  0  0
 25 26  1  0  0  0  0
 26 21  1  0  0  0  0
 23 27  1  0  0  0  0
 27 28  1  0  0  0  0
 28 29  1  0  0  0  0
 28 30  1  0  0  0  0
  5 31  1  0  0  0  0
  5 32  1  0  0  0  0
  5 33  1  0  0  0  0
  6 34  1  0  0  0  0
  7 35  1  0  0  0  0
  9 36  1  0  0  0  0
 10 37  1  0  0  0  0
 10 38  1  0  0  0  0
 11 39  1  0  0  0  0
 14 40  1  0  0  0  0
 15 41  1  0  0  0  0
 15 42  1  0  0  0  0
 15 43  1  0  0  0  0
 16 44  1  0  0  0  0
 16 45  1  0  0  0  0
 17 46  1  0  0  0  0
 20 47  1  0  0  0  0
 21 48  1  0  0  0  0
 22 49  1  0  0  0  0
 22 50  1  0  0  0  0
 23 51  1  0  0  0  0
 25 52  1  0  0  0  0
 25 53  1  0  0  0  0
 26 54  1  0  0  0  0
 26 55  1  0  0  0  0
 27 56  1  0  0  0  0
 27 57  1  0  0  0  0
 28 58  1  0  0  0  0
 29 59  1  0  0  0  0
 29 60  1  0  0  0  0
 29 61  1  0  0  0  0
 30 62  1  0  0  0  0
 30 63  1  0  0  0  0
 30 64  1  0  0  0  0
M  END
>  <result-rank>
84

>  <similarity>
0.940

>  <query-name>
LIG_A_1101_CC(C)CC[C@]1([R*])CCCOC1_2

>  <query-smiles>
O=C(N[C@@]1(COCCC1)CCC(C)C)[C@@H](NC(=O)C)Cc2ccc(O)cc2

>  <source>
REALspace_2019-12

>  <similarity-descriptor>
0.965;0.971;0.995;1.000;0.971;1.000;1.000;1.000;1.000;0.824;0.824;0.852;0.995;1.000;0.704;0.059

>  <similarity-descriptor-smiles>
Fc1ccccc1;C1CCOCC1;C=O;N;C1CCOCC1;C;C;C;C;CCN;CCN;C(=O)N;C;C;O;C

>  <reaction-name>
s_2708

>  <reagent1-name>
8333320

>  <reagent1-smiles>
[R1*]C(=O)NC1CC(OCC1)CC(C)C

>  <reagent2-name>
11566486

>  <reagent2-smiles>
[R1*]NCC(C(=O)NC)Cc1cc(F)c(OC)cc1

$$$$
s_22____678068____17513450
          04022015103D 1   1.00000     0.00000     0
            
 61 62  0  0  0  0            999 V2000
    2.5919    6.2420    6.4263 S   0  0  0  0  0  0  0  0  0  0  0  0
    2.5391    5.0679    5.1429 C   0  0  0  0  0  0  0  0  0  0  0  0
    3.5588    4.5727    4.4888 N   0  0  0  0  0  0  0  0  0  0  0  0
    3.1873    3.7074    3.5760 N   0  0  0  0  0  0  0  0  0  0  0  0
    1.8773    3.6325    3.6325 C   0  0  0  0  0  0  0  0  0  0  0  0
    1.4415    4.4785    4.6064 N   0  0  0  0  0  0  0  0  0  0  0  0
    0.0457    4.7131    4.9976 C   0  0  0  0  0  0  0  0  0  0  0  0
   -0.6390    5.5680    3.9437 C   0  0  0  0  0  0  0  0  0  0  0  0
   -2.1189    5.2244    3.8958 C   0  0  0  0  0  0  0  0  0  0  0  0
   -0.4711    7.0372    4.2956 C   0  0  0  0  0  0  0  0  0  0  0  0
    1.0000    2.7551    2.7551 C   0  0  0  0  0  0  0  0  0  0  0  0
    1.8776    1.8776    1.8776 C   0  0  0  0  0  0  0  0  0  0  0  0
    1.0000    1.0000    1.0000 C   0  0  0  0  0  0  0  0  0  0  0  0
    1.8487    0.1513    0.1513 N   0  0  0  0  0  0  0  0  0  0  0  0
    1.2755   -0.7286   -0.7286 C   0  0  0  0  0  0  0  0  0  0  0  0
    0.0805   -0.8064   -0.8064 O   0  0  0  0  0  0  0  0  0  0  0  0
    2.1530   -1.6061   -1.6061 C   0  0  3  0  0  0  0  0  0  0  0  0
    3.3028   -2.0855   -0.8257 N   0  0  0  0  0  0  0  0  0  0  0  0
    3.4985   -3.4300   -0.6497 C   0  0  0  0  0  0  0  0  0  0  0  0
    2.7314   -4.2163   -1.1326 O   0  0  0  0  0  0  0  0  0  0  0  0
    4.6874   -3.9257    0.1573 C   0  0  0  0  0  0  0  0  0  0  0  0
    2.6487   -0.7991   -2.7950 C   0  0  0  0  0  0  0  0  0  0  0  0
    3.5263   -1.6767   -3.6726 C   0  0  0  0  0  0  0  0  0  0  0  0
    2.9477   -2.4100   -4.7033 C   0  0  0  0  0  0  0  0  0  0  0  0
    3.7469   -3.2138   -5.5093 C   0  0  0  0  0  0  0  0  0  0  0  0
    5.1169   -3.2736   -5.2741 C   0  0  0  0  0  0  0  0  0  0  0  0
    5.8961   -4.0526   -6.0538 O   0  0  0  0  0  0  0  0  0  0  0  0
    5.7005   -2.5425   -4.2445 C   0  0  0  0  0  0  0  0  0  0  0  0
    4.8967   -1.7401   -3.4418 C   0  0  0  0  0  0  0  0  0  0  0  0
    3.0380    5.1452    7.7953 C   0  0  0  0  0  0  0  0  0  0  0  0
    0.0214    5.1865    5.8781 H   0  0  0  0  0  0  0  0  0  0  0  0
   -0.4300    3.8371    5.0769 H   0  0  0  0  0  0  0  0  0  0  0  0
   -0.2264    5.3899    3.0504 H   0  0  0  0  0  0  0  0  0  0  0  0
   -2.5694    5.7868    3.2024 H   0  0  0  0  0  0  0  0  0  0  0  0
   -2.2294    4.2579    3.6643 H   0  0  0  0  0  0  0  0  0  0  0  0
   -2.5316    5.4025    4.7891 H   0  0  0  0  0  0  0  0  0  0  0  0
   -0.9216    7.5996    3.6022 H   0  0  0  0  0  0  0  0  0  0  0  0
   -0.8838    7.2152    5.1889 H   0  0  0  0  0  0  0  0  0  0  0  0
    0.5025    7.2632    4.3271 H   0  0  0  0  0  0  0  0  0  0  0  0
    0.4226    3.3325    2.1778 H   0  0  0  0  0  0  0  0  0  0  0  0
    0.4226    2.1778    3.3325 H   0  0  0  0  0  0  0  0  0  0  0  0
    2.4549    2.4549    1.3002 H   0  0  0  0  0  0  0  0  0  0  0  0
    2.4549    1.3002    2.4549 H   0  0  0  0  0  0  0  0  0  0  0  0
    0.4226    0.4226    1.5774 H   0  0  0  0  0  0  0  0  0  0  0  0
    0.4226    1.5774    0.4226 H   0  0  0  0  0  0  0  0  0  0  0  0
    2.8445    0.2162    0.2162 H   0  0  0  0  0  0  0  0  0  0  0  0
    1.6221   -2.3883   -1.9323 H   0  0  0  0  0  0  0  0  0  0  0  0
    3.9421   -1.4303   -0.4232 H   0  0  0  0  0  0  0  0  0  0  0  0
    5.2183   -3.1436    0.4835 H   0  0  0  0  0  0  0  0  0  0  0  0
    4.3613   -4.4566    0.9395 H   0  0  0  0  0  0  0  0  0  0  0  0
    5.2647   -4.5031   -0.4200 H   0  0  0  0  0  0  0  0  0  0  0  0
    1.8666   -0.4730   -3.3259 H   0  0  0  0  0  0  0  0  0  0  0  0
    3.1797   -0.0170   -2.4689 H   0  0  0  0  0  0  0  0  0  0  0  0
    1.9620   -2.3595   -4.8639 H   0  0  0  0  0  0  0  0  0  0  0  0
    3.3398   -3.7448   -6.2525 H   0  0  0  0  0  0  0  0  0  0  0  0
    6.8813   -4.0989   -5.8886 H   0  0  0  0  0  0  0  0  0  0  0  0
    6.6861   -2.5933   -4.0834 H   0  0  0  0  0  0  0  0  0  0  0  0
    5.3038   -1.2087   -2.6989 H   0  0  0  0  0  0  0  0  0  0  0  0
    3.1123    5.6777    8.6384 H   0  0  0  0  0  0  0  0  0  0  0  0
    2.3328    4.4447    7.9045 H   0  0  0  0  0  0  0  0  0  0  0  0
    3.9153    4.7072    7.5992 H   0  0  0  0  0  0  0  0  0  0  0  0
  1  2  1  0  0  0  0
  2  3  2  0  0  0  0
  3  4  1  0  0  0  0
  4  5  2  0  0  0  0
  5  6  1  0  0  0  0
  6  2  1  0  0  0  0
  6  7  1  0  0  0  0
  7  8  1  0  0  0  0
  8  9  1  0  0  0  0
  8 10  1  0  0  0  0
  5 11  1  0  0  0  0
 11 12  1  0  0  0  0
 12 13  1  0  0  0  0
 13 14  1  0  0  0  0
 14 15  1  0  0  0  0
 15 16  2  0  0  0  0
 15 17  1  0  0  0  0
 17 18  1  0  0  0  0
 18 19  1  0  0  0  0
 19 20  2  0  0  0  0
 19 21  1  0  0  0  0
 17 22  1  0  0  0  0
 22 23  1  0  0  0  0
 23 24  1  0  0  0  0
 24 25  2  0  0  0  0
 25 26  1  0  0  0  0
 26 27  1  0  0  0  0
 26 28  2  0  0  0  0
 28 29  1  0  0  0  0
 29 23  2  0  0  0  0
  1 30  1  0  0  0  0
  7 31  1  0  0  0  0
  7 32  1  0  0  0  0
  8 33  1  0  0  0  0
  9 34  1  0  0  0  0
  9 35  1  0  0  0  0
  9 36  1  0  0  0  0
 10 37  1  0  0  0  0
 10 38  1  0  0  0  0
 10 39  1  0  0  0  0
 11 40  1  0  0  0  0
 11 41  1  0  0  0  0
 12 42  1  0  0  0  0
 12 43  1  0  0  0  0
 13 44  1  0  0  0  0
 13 45  1  0  0  0  0
 14 46  1  0  0  0  0
 17 47  1  0  0  0  0
 18 48  1  0  0  0  0
 21 49  1  0  0  0  0
 21 50  1  0  0  0  0
 21 51  1  0  0  0  0
 22 52  1  0  0  0  0
 22 53  1  0  0  0  0
 24 54  1  0  0  0  0
 25 55  1  0  0  0  0
 27 56  1  0  0  0  0
 28 57  1  0  0  0  0
 29 58  1  0  0  0  0
 30 59  1  0  0  0  0
 30 60  1  0  0  0  0
 30 61  1  0  0  0  0
M  END
>  <result-rank>
85

>  <similarity>
0.940

>  <query-name>
LIG_A_1101_CC(C)CC[C@]1([R*])CCCOC1_2

>  <query-smiles>
O=C(N[C@@]1(COCCC1)CCC(C)C)[C@@H](NC(=O)C)Cc2ccc(O)cc2

>  <source>
REALspace_2019-12

>  <similarity-descriptor>
1.000;0.839;1.000;1.000;0.993;0.966;0.966;0.0;1.000;1.000;1.000;1.000;1.000;1.000;1.000;0.105

>  <similarity-descriptor-smiles>
c1ccccc1;C=1NC(=NN1)CCC;C=O;N;C;CC;CC;;C;C;N;C=O;C;C;O;S.C

>  <reaction-name>
s_22

>  <reagent1-name>
678068

>  <reagent1-smiles>
[R1*]NCCCC1=NN=C(SC)N1CC(C)C

>  <reagent2-name>
17513450

>  <reagent2-smiles>
[R1*]C(=O)C(NC(=O)C)Cc1ccc(O)cc1

$$$$
s_22____14593318____16887748
          04022015103D 1   1.00000     0.00000     0
            
 60 61  0  0  0  0            999 V2000
    5.3209    3.2674    0.4626 F   0  0  0  0  0  0  0  0  0  0  0  0
    4.7891    4.1458    1.3079 C   0  0  0  0  0  0  0  0  0  0  0  0
    4.2163    5.1307    0.6218 F   0  0  0  0  0  0  0  0  0  0  0  0
    5.8801    4.7165    2.1980 C   0  0  0  0  0  0  0  0  0  0  0  0
    6.0382    3.9370    3.3751 O   0  0  0  0  0  0  0  0  0  0  0  0
    6.7243    4.6980    4.3582 C   0  0  0  0  0  0  0  0  0  0  0  0
    7.1910    5.0608    1.5132 C   0  0  0  0  0  0  0  0  0  0  0  0
    6.6064    6.4223    1.2275 C   0  0  0  0  0  0  0  0  0  0  0  0
    5.7859    6.1972    2.4770 C   0  0  0  0  0  0  0  0  0  0  0  0
    3.7445    3.4531    2.1677 C   0  0  0  0  0  0  0  0  0  0  0  0
    2.8957    2.6044    1.3190 N   0  0  0  0  0  0  0  0  0  0  0  0
    1.8776    1.8776    1.8776 C   0  0  0  0  0  0  0  0  0  0  0  0
    1.6786    1.9338    3.0596 O   0  0  0  0  0  0  0  0  0  0  0  0
    1.0000    1.0000    1.0000 C   0  0  3  0  0  0  0  0  0  0  0  0
    0.7171    1.6971   -0.2629 N   0  0  0  0  0  0  0  0  0  0  0  0
    1.1013    1.1397   -1.4540 C   0  0  0  0  0  0  0  0  0  0  0  0
    1.6688    0.0825   -1.4663 O   0  0  0  0  0  0  0  0  0  0  0  0
    0.8088    1.8605   -2.7598 C   0  0  0  0  0  0  0  0  0  0  0  0
    1.3000    1.0895   -3.8464 O   0  0  0  0  0  0  0  0  0  0  0  0
    1.0267    1.7629   -5.0663 C   0  0  0  0  0  0  0  0  0  0  0  0
    1.5525    0.9376   -6.2294 C   0  0  0  0  0  0  0  0  0  0  0  0
   -0.4742    1.9509   -5.2161 C   0  0  0  0  0  0  0  0  0  0  0  0
   -0.3059    0.7075    1.7208 C   0  0  0  0  0  0  0  0  0  0  0  0
   -1.1835   -0.1701    0.8432 C   0  0  0  0  0  0  0  0  0  0  0  0
   -1.0842   -1.5540    0.9425 C   0  0  0  0  0  0  0  0  0  0  0  0
   -1.8857   -2.3610    0.1420 C   0  0  0  0  0  0  0  0  0  0  0  0
   -2.7781   -1.7726   -0.7486 C   0  0  0  0  0  0  0  0  0  0  0  0
   -3.5577   -2.5520   -1.5276 O   0  0  0  0  0  0  0  0  0  0  0  0
   -2.8811   -0.3891   -0.8520 C   0  0  0  0  0  0  0  0  0  0  0  0
   -2.0774    0.4131   -0.0489 C   0  0  0  0  0  0  0  0  0  0  0  0
    6.8356    4.1493    5.1867 H   0  0  0  0  0  0  0  0  0  0  0  0
    7.6238    4.9604    4.0088 H   0  0  0  0  0  0  0  0  0  0  0  0
    6.1966    5.5203    4.5713 H   0  0  0  0  0  0  0  0  0  0  0  0
    7.3931    4.5146    0.7004 H   0  0  0  0  0  0  0  0  0  0  0  0
    7.9880    5.0674    2.1171 H   0  0  0  0  0  0  0  0  0  0  0  0
    6.0795    6.4886    0.3801 H   0  0  0  0  0  0  0  0  0  0  0  0
    7.2552    7.1816    1.2769 H   0  0  0  0  0  0  0  0  0  0  0  0
    6.2288    6.4903    3.3244 H   0  0  0  0  0  0  0  0  0  0  0  0
    4.8588    6.5700    2.4392 H   0  0  0  0  0  0  0  0  0  0  0  0
    4.2002    2.8874    2.8550 H   0  0  0  0  0  0  0  0  0  0  0  0
    3.1788    4.1404    2.6235 H   0  0  0  0  0  0  0  0  0  0  0  0
    3.0616    2.5576    0.3340 H   0  0  0  0  0  0  0  0  0  0  0  0
    1.4742    0.1409    0.8075 H   0  0  0  0  0  0  0  0  0  0  0  0
    0.2442    2.5782   -0.2526 H   0  0  0  0  0  0  0  0  0  0  0  0
   -0.1786    1.9842   -2.8583 H   0  0  0  0  0  0  0  0  0  0  0  0
    1.2578    2.7540   -2.7552 H   0  0  0  0  0  0  0  0  0  0  0  0
    1.4758    2.6564   -5.0617 H   0  0  0  0  0  0  0  0  0  0  0  0
    1.3600    1.4118   -7.0886 H   0  0  0  0  0  0  0  0  0  0  0  0
    2.5399    0.8139   -6.1309 H   0  0  0  0  0  0  0  0  0  0  0  0
    1.1034    0.0441   -6.2340 H   0  0  0  0  0  0  0  0  0  0  0  0
   -0.6666    2.4251   -6.0752 H   0  0  0  0  0  0  0  0  0  0  0  0
   -0.9232    1.0574   -5.2207 H   0  0  0  0  0  0  0  0  0  0  0  0
   -0.8201    2.4939   -4.4509 H   0  0  0  0  0  0  0  0  0  0  0  0
   -0.1134    0.2333    2.5799 H   0  0  0  0  0  0  0  0  0  0  0  0
   -0.7801    1.5666    1.9133 H   0  0  0  0  0  0  0  0  0  0  0  0
   -0.4397   -1.9667    1.5862 H   0  0  0  0  0  0  0  0  0  0  0  0
   -1.8211   -3.3569    0.2061 H   0  0  0  0  0  0  0  0  0  0  0  0
   -4.2005   -2.1337   -2.1692 H   0  0  0  0  0  0  0  0  0  0  0  0
   -3.5251    0.0237   -1.4961 H   0  0  0  0  0  0  0  0  0  0  0  0
   -2.1423    1.4089   -0.1127 H   0  0  0  0  0  0  0  0  0  0  0  0
  1  2  1  0  0  0  0
  2  3  1  0  0  0  0
  2  4  1  0  0  0  0
  4  5  1  0  0  0  0
  5  6  1  0  0  0  0
  4  7  1  0  0  0  0
  7  8  1  0  0  0  0
  8  9  1  0  0  0  0
  9  4  1  0  0  0  0
  2 10  1  0  0  0  0
 10 11  1  0  0  0  0
 11 12  1  0  0  0  0
 12 13  2  0  0  0  0
 12 14  1  0  0  0  0
 14 15  1  0  0  0  0
 15 16  1  0  0  0  0
 16 17  2  0  0  0  0
 16 18  1  0  0  0  0
 18 19  1  0  0  0  0
 19 20  1  0  0  0  0
 20 21  1  0  0  0  0
 20 22  1  0  0  0  0
 14 23  1  0  0  0  0
 23 24  1  0  0  0  0
 24 25  1  0  0  0  0
 25 26  2  0  0  0  0
 26 27  1  0  0  0  0
 27 28  1  0  0  0  0
 27 29  2  0  0  0  0
 29 30  1  0  0  0  0
 30 24  2  0  0  0  0
  6 31  1  0  0  0  0
  6 32  1  0  0  0  0
  6 33  1  0  0  0  0
  7 34  1  0  0  0  0
  7 35  1  0  0  0  0
  8 36  1  0  0  0  0
  8 37  1  0  0  0  0
  9 38  1  0  0  0  0
  9 39  1  0  0  0  0
 10 40  1  0  0  0  0
 10 41  1  0  0  0  0
 11 42  1  0  0  0  0
 14 43  1  0  0  0  0
 15 44  1  0  0  0  0
 18 45  1  0  0  0  0
 18 46  1  0  0  0  0
 20 47  1  0  0  0  0
 21 48  1  0  0  0  0
 21 49  1  0  0  0  0
 21 50  1  0  0  0  0
 22 51  1  0  0  0  0
 22 52  1  0  0  0  0
 22 53  1  0  0  0  0
 23 54  1  0  0  0  0
 23 55  1  0  0  0  0
 25 56  1  0  0  0  0
 26 57  1  0  0  0  0
 28 58  1  0  0  0  0
 29 59  1  0  0  0  0
 30 60  1  0  0  0  0
M  END
>  <result-rank>
86

>  <similarity>
0.939

>  <query-name>
LIG_A_1101_CC(C)CC[C@]1([R*])CCCOC1_2

>  <query-smiles>
O=C(N[C@@]1(COCCC1)CCC(C)C)[C@@H](NC(=O)C)Cc2ccc(O)cc2

>  <source>
REALspace_2019-12

>  <similarity-descriptor>
1.000;0.965;1.000;1.000;0.944;0.0;0.0;0.0;0.0;1.000;1.000;1.000;0.956;1.000;1.000;0.222

>  <similarity-descriptor-smiles>
c1ccccc1;FC(F)(C1(CCC1)O)C;C=O;N;C;;;;;C;N;C=O;C;C;O;O.C.C.C

>  <reaction-name>
s_22

>  <reagent1-name>
14593318

>  <reagent1-smiles>
[R1*]NCC(F)(F)C1(OC)CCC1

>  <reagent2-name>
16887748

>  <reagent2-smiles>
[R1*]C(=O)C(NC(=O)COC(C)C)Cc1ccc(O)cc1

$$$$
s_22____11949848____17057108
          04022015103D 1   1.00000     0.00000     0
            
 62 63  0  0  0  0            999 V2000
    0.4000    1.0000   -0.0392 O   0  0  0  0  0  0  0  0  0  0  0  0
    1.0000    1.0000    1.0000 C   0  0  0  0  0  0  0  0  0  0  0  0
    0.3150    1.0000    2.1865 N   0  0  0  0  0  0  0  0  0  0  0  0
   -1.1550    1.0000    2.1865 C   0  0  3  0  0  0  0  0  0  0  0  0
   -1.6617   -0.2411    2.9030 C   0  0  0  0  0  0  0  0  0  0  0  0
   -1.1883   -1.4005    2.2336 O   0  0  0  0  0  0  0  0  0  0  0  0
   -1.6617   -2.5599    2.9030 C   0  0  0  0  0  0  0  0  0  0  0  0
   -1.1548   -3.8015    2.1862 C   0  0  0  0  0  0  0  0  0  0  0  0
    0.3455   -3.8358    2.1664 C   0  0  0  0  0  0  0  0  0  0  0  0
   -0.4134   -3.4718    0.9226 C   0  0  0  0  0  0  0  0  0  0  0  0
   -1.6617    2.2411    2.9030 C   0  0  0  0  0  0  0  0  0  0  0  0
   -3.1817    2.2411    2.9030 C   0  0  0  0  0  0  0  0  0  0  0  0
    2.5200    1.0000    1.0000 C   0  0  3  0  0  0  0  0  0  0  0  0
    3.0100    1.0000   -0.3859 N   0  0  0  0  0  0  0  0  0  0  0  0
    3.7976   -0.0275   -0.8340 C   0  0  0  0  0  0  0  0  0  0  0  0
    4.0138   -0.9711   -0.1248 O   0  0  0  0  0  0  0  0  0  0  0  0
    4.3977    0.0277   -2.2295 C   0  0  0  0  0  0  0  0  0  0  0  0
    4.8450   -1.3646   -2.6441 C   0  0  0  0  0  0  0  0  0  0  0  0
    3.6531   -2.1413   -3.1792 C   0  0  0  0  0  0  0  0  0  0  0  0
    5.9057   -1.2544   -3.7273 C   0  0  0  0  0  0  0  0  0  0  0  0
    3.0267    2.2411    1.7165 C   0  0  0  0  0  0  0  0  0  0  0  0
    4.5467    2.2411    1.7165 C   0  0  0  0  0  0  0  0  0  0  0  0
    5.2311    1.6356    2.7653 C   0  0  0  0  0  0  0  0  0  0  0  0
    6.6219    1.6325    2.7691 C   0  0  0  0  0  0  0  0  0  0  0  0
    7.3116    2.2356    1.7220 C   0  0  0  0  0  0  0  0  0  0  0  0
    8.6614    2.2352    1.7220 O   0  0  0  0  0  0  0  0  0  0  0  0
    6.6320    2.8428    0.6710 C   0  0  0  0  0  0  0  0  0  0  0  0
    5.2412    2.8426    0.6720 C   0  0  0  0  0  0  0  0  0  0  0  0
    0.8150    1.0000    3.0525 H   0  0  0  0  0  0  0  0  0  0  0  0
   -1.4883    1.0000    1.2436 H   0  0  0  0  0  0  0  0  0  0  0  0
   -1.3283   -0.2411    3.8458 H   0  0  0  0  0  0  0  0  0  0  0  0
   -2.6617   -0.2411    2.9030 H   0  0  0  0  0  0  0  0  0  0  0  0
   -2.6617   -2.5599    2.9030 H   0  0  0  0  0  0  0  0  0  0  0  0
   -1.3283   -2.5599    3.8458 H   0  0  0  0  0  0  0  0  0  0  0  0
   -1.6697   -4.6564    2.2505 H   0  0  0  0  0  0  0  0  0  0  0  0
    0.8264   -4.7109    2.2205 H   0  0  0  0  0  0  0  0  0  0  0  0
    0.8681   -3.1375    2.6556 H   0  0  0  0  0  0  0  0  0  0  0  0
   -0.3965   -2.5311    0.5837 H   0  0  0  0  0  0  0  0  0  0  0  0
   -0.4382   -4.1045    0.1486 H   0  0  0  0  0  0  0  0  0  0  0  0
   -1.3283    3.0576    2.4316 H   0  0  0  0  0  0  0  0  0  0  0  0
   -1.3283    2.2411    3.8458 H   0  0  0  0  0  0  0  0  0  0  0  0
   -3.5150    3.0576    3.3744 H   0  0  0  0  0  0  0  0  0  0  0  0
   -3.5150    2.2411    1.9602 H   0  0  0  0  0  0  0  0  0  0  0  0
   -3.5150    1.4246    3.3744 H   0  0  0  0  0  0  0  0  0  0  0  0
    2.8533    0.1835    1.4714 H   0  0  0  0  0  0  0  0  0  0  0  0
    2.7684    1.7500   -1.0017 H   0  0  0  0  0  0  0  0  0  0  0  0
    5.1848    0.6445   -2.2297 H   0  0  0  0  0  0  0  0  0  0  0  0
    3.7111    0.3631   -2.8745 H   0  0  0  0  0  0  0  0  0  0  0  0
    5.2257   -1.8420   -1.8521 H   0  0  0  0  0  0  0  0  0  0  0  0
    3.9473   -3.0573   -3.4520 H   0  0  0  0  0  0  0  0  0  0  0  0
    2.9553   -2.2138   -2.4666 H   0  0  0  0  0  0  0  0  0  0  0  0
    3.2724   -1.6638   -3.9711 H   0  0  0  0  0  0  0  0  0  0  0  0
    6.1999   -2.1704   -4.0000 H   0  0  0  0  0  0  0  0  0  0  0  0
    5.5250   -0.7770   -4.5192 H   0  0  0  0  0  0  0  0  0  0  0  0
    6.6898   -0.7434   -3.3752 H   0  0  0  0  0  0  0  0  0  0  0  0
    2.6933    3.0576    1.2451 H   0  0  0  0  0  0  0  0  0  0  0  0
    2.6933    2.2411    2.6593 H   0  0  0  0  0  0  0  0  0  0  0  0
    4.7256    1.2046    3.5128 H   0  0  0  0  0  0  0  0  0  0  0  0
    7.1226    1.1999    3.5190 H   0  0  0  0  0  0  0  0  0  0  0  0
    9.1615    2.6674    0.9716 H   0  0  0  0  0  0  0  0  0  0  0  0
    7.1374    3.2742   -0.0763 H   0  0  0  0  0  0  0  0  0  0  0  0
    4.7405    3.2748   -0.0780 H   0  0  0  0  0  0  0  0  0  0  0  0
  1  2  2  0  0  0  0
  2  3  1  0  0  0  0
  3  4  1  0  0  0  0
  4  5  1  0  0  0  0
  5  6  1  0  0  0  0
  6  7  1  0  0  0  0
  7  8  1  0  0  0  0
  8  9  1  0  0  0  0
  9 10  1  0  0  0  0
 10  8  1  0  0  0  0
  4 11  1  0  0  0  0
 11 12  1  0  0  0  0
  2 13  1  0  0  0  0
 13 14  1  0  0  0  0
 14 15  1  0  0  0  0
 15 16  2  0  0  0  0
 15 17  1  0  0  0  0
 17 18  1  0  0  0  0
 18 19  1  0  0  0  0
 18 20  1  0  0  0  0
 13 21  1  0  0  0  0
 21 22  1  0  0  0  0
 22 23  1  0  0  0  0
 23 24  2  0  0  0  0
 24 25  1  0  0  0  0
 25 26  1  0  0  0  0
 25 27  2  0  0  0  0
 27 28  1  0  0  0  0
 28 22  2  0  0  0  0
  3 29  1  0  0  0  0
  4 30  1  0  0  0  0
  5 31  1  0  0  0  0
  5 32  1  0  0  0  0
  7 33  1  0  0  0  0
  7 34  1  0  0  0  0
  8 35  1  0  0  0  0
  9 36  1  0  0  0  0
  9 37  1  0  0  0  0
 10 38  1  0  0  0  0
 10 39  1  0  0  0  0
 11 40  1  0  0  0  0
 11 41  1  0  0  0  0
 12 42  1  0  0  0  0
 12 43  1  0  0  0  0
 12 44  1  0  0  0  0
 13 45  1  0  0  0  0
 14 46  1  0  0  0  0
 17 47  1  0  0  0  0
 17 48  1  0  0  0  0
 18 49  1  0  0  0  0
 19 50  1  0  0  0  0
 19 51  1  0  0  0  0
 19 52  1  0  0  0  0
 20 53  1  0  0  0  0
 20 54  1  0  0  0  0
 20 55  1  0  0  0  0
 21 56  1  0  0  0  0
 21 57  1  0  0  0  0
 23 58  1  0  0  0  0
 24 59  1  0  0  0  0
 26 60  1  0  0  0  0
 27 61  1  0  0  0  0
 28 62  1  0  0  0  0
M  END
>  <result-rank>
87

>  <similarity>
0.939

>  <query-name>
LIG_A_1101_CC(C)CC[C@]1([R*])CCCOC1_2

>  <query-smiles>
O=C(N[C@@]1(COCCC1)CCC(C)C)[C@@H](NC(=O)C)Cc2ccc(O)cc2

>  <source>
REALspace_2019-12

>  <similarity-descriptor>
1.000;0.894;1.000;1.000;0.993;0.886;0.886;0.886;0.0;1.000;1.000;1.000;0.949;1.000;1.000;0.158

>  <similarity-descriptor-smiles>
c1ccccc1;C(CO)CC;O=C;N;C;C1CC1;C1CC1;C1CC1;;C;N;C=O;C;C;O;C.C.C

>  <reaction-name>
s_22

>  <reagent1-name>
11949848

>  <reagent1-smiles>
[R1*]NC(COCC1CC1)CC

>  <reagent2-name>
17057108

>  <reagent2-smiles>
[R1*]C(=O)C(NC(=O)CC(C)C)Cc1ccc(O)cc1

$$$$
s_22____13270548____17513450
          04022015103D 1   1.00000     0.00000     0
            
 54 54  0  0  0  0            999 V2000
    0.9150    1.0000    3.2257 O   0  0  0  0  0  0  0  0  0  0  0  0
    0.3150    1.0000    2.1865 C   0  0  0  0  0  0  0  0  0  0  0  0
    1.0000    1.0000    1.0000 N   0  0  0  0  0  0  0  0  0  0  0  0
    2.4500    1.0000    1.0000 N   0  0  0  0  0  0  0  0  0  0  0  0
    2.9400    2.3859    1.0000 C   0  0  0  0  0  0  0  0  0  0  0  0
    4.3785    2.4147    1.4901 C   0  0  0  0  0  0  0  0  0  0  0  0
    4.8852    3.8478    1.4901 C   0  0  0  0  0  0  0  0  0  0  0  0
    4.4442    1.8541    2.9014 C   0  0  0  0  0  0  0  0  0  0  0  0
    2.9400    0.3070   -0.2002 C   0  0  0  0  0  0  0  0  0  0  0  0
    2.0739    0.6830   -1.3914 C   0  0  0  0  0  0  0  0  0  0  0  0
    2.5472    0.0136   -2.5509 O   0  0  0  0  0  0  0  0  0  0  0  0
    1.7381    0.3648   -3.6637 C   0  0  0  0  0  0  0  0  0  0  0  0
   -1.2050    1.0000    2.1865 C   0  0  3  0  0  0  0  0  0  0  0  0
   -1.6950    1.0000    3.5724 N   0  0  0  0  0  0  0  0  0  0  0  0
   -2.4826    2.0275    4.0205 C   0  0  0  0  0  0  0  0  0  0  0  0
   -2.7725    2.9275    3.2816 O   0  0  0  0  0  0  0  0  0  0  0  0
   -2.9893    2.0275    5.4535 C   0  0  0  0  0  0  0  0  0  0  0  0
   -1.7117   -0.2411    1.4699 C   0  0  0  0  0  0  0  0  0  0  0  0
   -3.2317   -0.2411    1.4699 C   0  0  0  0  0  0  0  0  0  0  0  0
   -3.9161    0.3644    0.4212 C   0  0  0  0  0  0  0  0  0  0  0  0
   -5.3069    0.3662    0.4166 C   0  0  0  0  0  0  0  0  0  0  0  0
   -5.9966   -0.2391    1.4624 C   0  0  0  0  0  0  0  0  0  0  0  0
   -7.3464   -0.2393    1.4621 O   0  0  0  0  0  0  0  0  0  0  0  0
   -5.3170   -0.8457    2.5138 C   0  0  0  0  0  0  0  0  0  0  0  0
   -3.9262   -0.8449    2.5131 C   0  0  0  0  0  0  0  0  0  0  0  0
    0.5000    1.0000    0.1340 H   0  0  0  0  0  0  0  0  0  0  0  0
    2.3702    2.9409    1.6060 H   0  0  0  0  0  0  0  0  0  0  0  0
    2.8968    2.7548    0.0715 H   0  0  0  0  0  0  0  0  0  0  0  0
    4.9483    1.8597    0.8841 H   0  0  0  0  0  0  0  0  0  0  0  0
    5.8316    3.8668    1.8126 H   0  0  0  0  0  0  0  0  0  0  0  0
    4.8419    4.2166    0.5617 H   0  0  0  0  0  0  0  0  0  0  0  0
    4.3154    4.4028    2.0962 H   0  0  0  0  0  0  0  0  0  0  0  0
    5.3906    1.8731    3.2239 H   0  0  0  0  0  0  0  0  0  0  0  0
    3.8744    2.4091    3.5075 H   0  0  0  0  0  0  0  0  0  0  0  0
    4.1109    0.9113    2.9014 H   0  0  0  0  0  0  0  0  0  0  0  0
    2.8968   -0.6815   -0.0554 H   0  0  0  0  0  0  0  0  0  0  0  0
    3.8864    0.5768   -0.3779 H   0  0  0  0  0  0  0  0  0  0  0  0
    1.1275    0.4132   -1.2138 H   0  0  0  0  0  0  0  0  0  0  0  0
    2.1171    1.6715   -1.5362 H   0  0  0  0  0  0  0  0  0  0  0  0
    2.0714   -0.1066   -4.4802 H   0  0  0  0  0  0  0  0  0  0  0  0
    0.7917    0.0950   -3.4860 H   0  0  0  0  0  0  0  0  0  0  0  0
    1.7813    1.3533   -3.8085 H   0  0  0  0  0  0  0  0  0  0  0  0
   -1.5383    1.8165    1.7151 H   0  0  0  0  0  0  0  0  0  0  0  0
   -1.4534    0.2500    4.1881 H   0  0  0  0  0  0  0  0  0  0  0  0
   -2.6560    1.2110    5.9249 H   0  0  0  0  0  0  0  0  0  0  0  0
   -2.6560    2.8440    5.9249 H   0  0  0  0  0  0  0  0  0  0  0  0
   -3.9893    2.0275    5.4535 H   0  0  0  0  0  0  0  0  0  0  0  0
   -1.3783   -0.2411    0.5271 H   0  0  0  0  0  0  0  0  0  0  0  0
   -1.3783   -1.0576    1.9413 H   0  0  0  0  0  0  0  0  0  0  0  0
   -3.4106    0.7963   -0.3258 H   0  0  0  0  0  0  0  0  0  0  0  0
   -5.8076    0.7993   -0.3330 H   0  0  0  0  0  0  0  0  0  0  0  0
   -7.8465   -0.6731    2.2116 H   0  0  0  0  0  0  0  0  0  0  0  0
   -5.8224   -1.2771    3.2611 H   0  0  0  0  0  0  0  0  0  0  0  0
   -3.4255   -1.2783    3.2624 H   0  0  0  0  0  0  0  0  0  0  0  0
  1  2  2  0  0  0  0
  2  3  1  0  0  0  0
  3  4  1  0  0  0  0
  4  5  1  0  0  0  0
  5  6  1  0  0  0  0
  6  7  1  0  0  0  0
  6  8  1  0  0  0  0
  4  9  1  0  0  0  0
  9 10  1  0  0  0  0
 10 11  1  0  0  0  0
 11 12  1  0  0  0  0
  2 13  1  0  0  0  0
 13 14  1  0  0  0  0
 14 15  1  0  0  0  0
 15 16  2  0  0  0  0
 15 17  1  0  0  0  0
 13 18  1  0  0  0  0
 18 19  1  0  0  0  0
 19 20  1  0  0  0  0
 20 21  2  0  0  0  0
 21 22  1  0  0  0  0
 22 23  1  0  0  0  0
 22 24  2  0  0  0  0
 24 25  1  0  0  0  0
 25 19  2  0  0  0  0
  3 26  1  0  0  0  0
  5 27  1  0  0  0  0
  5 28  1  0  0  0  0
  6 29  1  0  0  0  0
  7 30  1  0  0  0  0
  7 31  1  0  0  0  0
  7 32  1  0  0  0  0
  8 33  1  0  0  0  0
  8 34  1  0  0  0  0
  8 35  1  0  0  0  0
  9 36  1  0  0  0  0
  9 37  1  0  0  0  0
 10 38  1  0  0  0  0
 10 39  1  0  0  0  0
 12 40  1  0  0  0  0
 12 41  1  0  0  0  0
 12 42  1  0  0  0  0
 13 43  1  0  0  0  0
 14 44  1  0  0  0  0
 17 45  1  0  0  0  0
 17 46  1  0  0  0  0
 17 47  1  0  0  0  0
 18 48  1  0  0  0  0
 18 49  1  0  0  0  0
 20 50  1  0  0  0  0
 21 51  1  0  0  0  0
 23 52  1  0  0  0  0
 24 53  1  0  0  0  0
 25 54  1  0  0  0  0
M  END
>  <result-rank>
88

>  <similarity>
0.939

>  <query-name>
LIG_A_1101_CC(C)CC[C@]1([R*])CCCOC1_2

>  <query-smiles>
O=C(N[C@@]1(COCCC1)CCC(C)C)[C@@H](NC(=O)C)Cc2ccc(O)cc2

>  <source>
REALspace_2019-12

>  <similarity-descriptor>
1.000;0.759;1.000;0.984;0.994;0.966;0.966;0.0;1.000;1.000;1.000;1.000;1.000;1.000;1.000;0.0

>  <similarity-descriptor-smiles>
c1ccccc1;NCCOC;O=C;N;C;CC;CC;;C;C;N;C=O;C;C;O;

>  <reaction-name>
s_22

>  <reagent1-name>
13270548

>  <reagent1-smiles>
[R1*]NN(CC(C)C)CCOC

>  <reagent2-name>
17513450

>  <reagent2-smiles>
[R1*]C(=O)C(NC(=O)C)Cc1ccc(O)cc1

$$$$
s_22____15273282____12624298
          04022015103D 1   1.00000     0.00000     0
            
 51 53  0  0  0  0            999 V2000
   -3.2532    2.9621    3.7123 Br  0  0  0  0  0  0  0  0  0  0  0  0
   -2.2210    1.4911    2.9303 C   0  0  0  0  0  0  0  0  0  0  0  0
   -1.0269    1.7627    2.2714 C   0  0  0  0  0  0  0  0  0  0  0  0
   -0.3061    0.7074    1.7209 C   0  0  0  0  0  0  0  0  0  0  0  0
   -0.7634   -0.6021    1.8222 C   0  0  0  0  0  0  0  0  0  0  0  0
   -1.9607   -0.8513    2.4850 C   0  0  0  0  0  0  0  0  0  0  0  0
   -2.6966    0.1890    3.0425 C   0  0  0  0  0  0  0  0  0  0  0  0
    1.0000    1.0000    1.0000 C   0  0  3  0  0  0  0  0  0  0  0  0
    1.8487    1.8487    1.8487 N   0  0  0  0  0  0  0  0  0  0  0  0
    3.0831    1.4052    2.2442 C   0  0  0  0  0  0  0  0  0  0  0  0
    3.4716    0.3240    1.8978 O   0  0  0  0  0  0  0  0  0  0  0  0
    3.9607    2.2828    3.1218 C   0  0  0  0  0  0  0  0  0  0  0  0
    0.7075    1.7208   -0.3059 C   0  0  0  0  0  0  0  0  0  0  0  0
   -0.3868    1.6571   -0.7943 O   0  0  0  0  0  0  0  0  0  0  0  0
    1.6931    2.4433   -0.9252 N   0  0  0  0  0  0  0  0  0  0  0  0
    1.4106    3.1394   -2.1863 C   0  0  3  0  0  0  0  0  0  0  0  0
    2.3215    2.6224   -3.2889 C   0  0  0  0  0  0  0  0  0  0  0  0
    1.9880    3.3728   -4.5685 C   0  0  0  0  0  0  0  0  0  0  0  0
    2.1711    4.7762   -4.3729 O   0  0  0  0  0  0  0  0  0  0  0  0
    1.3518    5.3292   -3.3513 C   0  0  0  0  0  0  0  0  0  0  0  0
    1.6084    4.6376   -2.0210 C   0  0  0  0  0  0  0  0  0  0  0  0
    2.9061    2.7960   -5.6370 C   0  0  0  0  0  0  0  0  0  0  0  0
    2.8031    3.4932   -6.9884 C   0  0  0  0  0  0  0  0  0  0  0  0
    1.1140    3.2045   -7.5659 S   0  0  0  0  0  0  0  0  0  0  0  0
    0.0864    3.7600   -6.1866 C   0  0  0  0  0  0  0  0  0  0  0  0
    0.5676    2.9849   -4.9703 C   0  0  0  0  0  0  0  0  0  0  0  0
   -0.6915    2.7016    2.1944 H   0  0  0  0  0  0  0  0  0  0  0  0
   -0.2386   -1.3543    1.4239 H   0  0  0  0  0  0  0  0  0  0  0  0
   -2.2964   -1.7902    2.5616 H   0  0  0  0  0  0  0  0  0  0  0  0
   -3.5566    0.0031    3.5178 H   0  0  0  0  0  0  0  0  0  0  0  0
    1.4742    0.1409    0.8075 H   0  0  0  0  0  0  0  0  0  0  0  0
    1.5250    2.7498    2.1374 H   0  0  0  0  0  0  0  0  0  0  0  0
    3.4865    3.1419    3.3142 H   0  0  0  0  0  0  0  0  0  0  0  0
    4.1532    1.8086    3.9809 H   0  0  0  0  0  0  0  0  0  0  0  0
    4.8198    2.4753    2.6475 H   0  0  0  0  0  0  0  0  0  0  0  0
    2.6049    2.4964   -0.5181 H   0  0  0  0  0  0  0  0  0  0  0  0
    0.4603    2.9659   -2.4449 H   0  0  0  0  0  0  0  0  0  0  0  0
    3.2772    2.7821   -3.0417 H   0  0  0  0  0  0  0  0  0  0  0  0
    2.1708    1.6427   -3.4215 H   0  0  0  0  0  0  0  0  0  0  0  0
    0.3909    5.2119   -3.6021 H   0  0  0  0  0  0  0  0  0  0  0  0
    1.5556    6.3039   -3.2590 H   0  0  0  0  0  0  0  0  0  0  0  0
    2.5461    4.8200   -1.7253 H   0  0  0  0  0  0  0  0  0  0  0  0
    0.9690    4.9852   -1.3352 H   0  0  0  0  0  0  0  0  0  0  0  0
    2.6743    1.8314   -5.7628 H   0  0  0  0  0  0  0  0  0  0  0  0
    3.8497    2.8729   -5.3151 H   0  0  0  0  0  0  0  0  0  0  0  0
    2.9740    4.4734   -6.8883 H   0  0  0  0  0  0  0  0  0  0  0  0
    3.4623    3.1040   -7.6319 H   0  0  0  0  0  0  0  0  0  0  0  0
   -0.8766    3.5604   -6.3677 H   0  0  0  0  0  0  0  0  0  0  0  0
    0.2015    4.7426   -6.0407 H   0  0  0  0  0  0  0  0  0  0  0  0
   -0.0471    3.1726   -4.2041 H   0  0  0  0  0  0  0  0  0  0  0  0
    0.5477    2.0077   -5.1818 H   0  0  0  0  0  0  0  0  0  0  0  0
  1  2  1  0  0  0  0
  2  3  1  0  0  0  0
  3  4  2  0  0  0  0
  4  5  1  0  0  0  0
  5  6  2  0  0  0  0
  6  7  1  0  0  0  0
  7  2  2  0  0  0  0
  4  8  1  0  0  0  0
  8  9  1  0  0  0  0
  9 10  1  0  0  0  0
 10 11  2  0  0  0  0
 10 12  1  0  0  0  0
  8 13  1  0  0  0  0
 13 14  2  0  0  0  0
 13 15  1  0  0  0  0
 15 16  1  0  0  0  0
 16 17  1  0  0  0  0
 17 18  1  0  0  0  0
 18 19  1  0  0  0  0
 19 20  1  0  0  0  0
 20 21  1  0  0  0  0
 21 16  1  0  0  0  0
 18 22  1  0  0  0  0
 22 23  1  0  0  0  0
 23 24  1  0  0  0  0
 24 25  1  0  0  0  0
 25 26  1  0  0  0  0
 26 18  1  0  0  0  0
  3 27  1  0  0  0  0
  5 28  1  0  0  0  0
  6 29  1  0  0  0  0
  7 30  1  0  0  0  0
  8 31  1  0  0  0  0
  9 32  1  0  0  0  0
 12 33  1  0  0  0  0
 12 34  1  0  0  0  0
 12 35  1  0  0  0  0
 15 36  1  0  0  0  0
 16 37  1  0  0  0  0
 17 38  1  0  0  0  0
 17 39  1  0  0  0  0
 20 40  1  0  0  0  0
 20 41  1  0  0  0  0
 21 42  1  0  0  0  0
 21 43  1  0  0  0  0
 22 44  1  0  0  0  0
 22 45  1  0  0  0  0
 23 46  1  0  0  0  0
 23 47  1  0  0  0  0
 25 48  1  0  0  0  0
 25 49  1  0  0  0  0
 26 50  1  0  0  0  0
 26 51  1  0  0  0  0
M  END
>  <result-rank>
89

>  <similarity>
0.939

>  <query-name>
LIG_A_1101_CC(C)CC[C@]1([R*])CCCOC1_2

>  <query-smiles>
O=C(N[C@@]1(COCCC1)CCC(C)C)[C@@H](NC(=O)C)Cc2ccc(O)cc2

>  <source>
REALspace_2019-12

>  <similarity-descriptor>
0.969;0.982;1.000;1.000;0.800;0.800;0.800;0.800;0.0;1.000;1.000;1.000;1.000;0.969;0.0;0.0

>  <similarity-descriptor-smiles>
Brc1ccccc1;C1CCOCC1;C=O;N;C1CCSCC1;C1CCSCC1;C1CCSCC1;C1CCSCC1;;C;N;C=O;C;Brc1ccccc1;;

>  <reaction-name>
s_22

>  <reagent1-name>
15273282

>  <reagent1-smiles>
[R1*]NC1CC2(OCC1)CCSCC2

>  <reagent2-name>
12624298

>  <reagent2-smiles>
[R1*]C(=O)C(NC(=O)C)c1cc(Br)ccc1

$$$$
s_272164____17324146____17335802
          04022015103D 1   1.00000     0.00000     0
            
 57 58  0  0  0  0            999 V2000
    2.6887    0.5044    7.5024 Cl  0  0  0  0  0  0  0  0  0  0  0  0
    1.9775    0.4870    5.8712 C   0  0  0  0  0  0  0  0  0  0  0  0
    1.4746   -0.7014    5.3520 C   0  0  0  0  0  0  0  0  0  0  0  0
    0.9206   -0.7088    4.0765 C   0  0  0  0  0  0  0  0  0  0  0  0
    0.8744    0.4676    3.3359 C   0  0  0  0  0  0  0  0  0  0  0  0
    0.3150    0.4522    2.0524 N   0  0  0  0  0  0  0  0  0  0  0  0
    1.0000    1.0000    1.0000 C   0  0  0  0  0  0  0  0  0  0  0  0
    0.4000    1.4798    0.0782 O   0  0  0  0  0  0  0  0  0  0  0  0
    2.4026    1.0000    1.0000 N   0  0  0  0  0  0  0  0  0  0  0  0
    3.2543    1.8745    0.1987 C   0  0  0  0  0  0  0  0  0  0  0  0
    4.4055    2.1416    1.1415 C   0  0  3  0  0  0  0  0  0  0  0  0
    5.5881    2.4796    0.4336 O   0  0  0  0  0  0  0  0  0  0  0  0
    5.2708    3.3856   -0.6128 C   0  0  0  0  0  0  0  0  0  0  0  0
    6.5374    3.7477   -1.3710 C   0  0  0  0  0  0  0  0  0  0  0  0
    6.1977    4.7175   -2.4911 C   0  0  0  0  0  0  0  0  0  0  0  0
    7.4644    5.0796   -3.2493 C   0  0  0  0  0  0  0  0  0  0  0  0
    5.2067    4.0663   -3.4419 C   0  0  0  0  0  0  0  0  0  0  0  0
    4.5899    0.8507    1.9152 C   0  0  0  0  0  0  0  0  0  0  0  0
    3.2597    0.1188    1.8005 C   0  0  0  0  0  0  0  0  0  0  0  0
   -1.0073   -0.1518    1.8341 C   0  0  0  0  0  0  0  0  0  0  0  0
   -2.0836    0.9063    2.0142 C   0  0  0  0  0  0  0  0  0  0  0  0
   -3.3609    0.3228    1.8033 O   0  0  0  0  0  0  0  0  0  0  0  0
   -3.7090    0.4289    0.4308 C   0  0  0  0  0  0  0  0  0  0  0  0
   -5.0763   -0.1956    0.2051 C   0  0  0  0  0  0  0  0  0  0  0  0
    1.3791    1.6521    3.8607 C   0  0  0  0  0  0  0  0  0  0  0  0
    1.9347    1.6665    5.1355 C   0  0  0  0  0  0  0  0  0  0  0  0
    1.5111   -1.5428    5.8911 H   0  0  0  0  0  0  0  0  0  0  0  0
    0.5564   -1.5574    3.6928 H   0  0  0  0  0  0  0  0  0  0  0  0
    2.7799    2.7205   -0.0444 H   0  0  0  0  0  0  0  0  0  0  0  0
    3.5652    1.4157   -0.6337 H   0  0  0  0  0  0  0  0  0  0  0  0
    4.1639    2.8812    1.7697 H   0  0  0  0  0  0  0  0  0  0  0  0
    4.8660    4.2139   -0.2253 H   0  0  0  0  0  0  0  0  0  0  0  0
    4.6188    2.9572   -1.2384 H   0  0  0  0  0  0  0  0  0  0  0  0
    7.1894    4.1761   -0.7455 H   0  0  0  0  0  0  0  0  0  0  0  0
    6.9422    2.9195   -1.7586 H   0  0  0  0  0  0  0  0  0  0  0  0
    5.7929    5.5457   -2.1035 H   0  0  0  0  0  0  0  0  0  0  0  0
    7.2409    5.7176   -3.9862 H   0  0  0  0  0  0  0  0  0  0  0  0
    8.1164    5.5080   -2.6238 H   0  0  0  0  0  0  0  0  0  0  0  0
    7.8691    4.2514   -3.6369 H   0  0  0  0  0  0  0  0  0  0  0  0
    4.9832    4.7043   -4.1788 H   0  0  0  0  0  0  0  0  0  0  0  0
    5.6114    3.2381   -3.8295 H   0  0  0  0  0  0  0  0  0  0  0  0
    4.3733    3.8281   -2.9431 H   0  0  0  0  0  0  0  0  0  0  0  0
    4.8017    1.0439    2.8732 H   0  0  0  0  0  0  0  0  0  0  0  0
    5.3257    0.3046    1.5147 H   0  0  0  0  0  0  0  0  0  0  0  0
    3.3823   -0.7616    1.3423 H   0  0  0  0  0  0  0  0  0  0  0  0
    2.8618   -0.0292    2.7059 H   0  0  0  0  0  0  0  0  0  0  0  0
   -1.1504   -0.8886    2.4949 H   0  0  0  0  0  0  0  0  0  0  0  0
   -1.0556   -0.5220    0.9064 H   0  0  0  0  0  0  0  0  0  0  0  0
   -2.0352    1.2765    2.9419 H   0  0  0  0  0  0  0  0  0  0  0  0
   -1.9405    1.6431    1.3534 H   0  0  0  0  0  0  0  0  0  0  0  0
   -3.0283   -0.0497   -0.1237 H   0  0  0  0  0  0  0  0  0  0  0  0
   -3.7354    1.3932    0.1671 H   0  0  0  0  0  0  0  0  0  0  0  0
   -5.3214   -0.1209   -0.7615 H   0  0  0  0  0  0  0  0  0  0  0  0
   -5.0499   -1.1599    0.4687 H   0  0  0  0  0  0  0  0  0  0  0  0
   -5.7570    0.2831    0.7596 H   0  0  0  0  0  0  0  0  0  0  0  0
    1.3426    2.4935    3.3215 H   0  0  0  0  0  0  0  0  0  0  0  0
    2.2993    2.5151    5.5187 H   0  0  0  0  0  0  0  0  0  0  0  0
  1  2  1  0  0  0  0
  2  3  1  0  0  0  0
  3  4  2  0  0  0  0
  4  5  1  0  0  0  0
  5  6  1  0  0  0  0
  6  7  1  0  0  0  0
  7  8  2  0  0  0  0
  7  9  1  0  0  0  0
  9 10  1  0  0  0  0
 10 11  1  0  0  0  0
 11 12  1  0  0  0  0
 12 13  1  0  0  0  0
 13 14  1  0  0  0  0
 14 15  1  0  0  0  0
 15 16  1  0  0  0  0
 15 17  1  0  0  0  0
 11 18  1  0  0  0  0
 18 19  1  0  0  0  0
 19  9  1  0  0  0  0
  6 20  1  0  0  0  0
 20 21  1  0  0  0  0
 21 22  1  0  0  0  0
 22 23  1  0  0  0  0
 23 24  1  0  0  0  0
  5 25  2  0  0  0  0
 25 26  1  0  0  0  0
 26  2  2  0  0  0  0
  3 27  1  0  0  0  0
  4 28  1  0  0  0  0
 10 29  1  0  0  0  0
 10 30  1  0  0  0  0
 11 31  1  0  0  0  0
 13 32  1  0  0  0  0
 13 33  1  0  0  0  0
 14 34  1  0  0  0  0
 14 35  1  0  0  0  0
 15 36  1  0  0  0  0
 16 37  1  0  0  0  0
 16 38  1  0  0  0  0
 16 39  1  0  0  0  0
 17 40  1  0  0  0  0
 17 41  1  0  0  0  0
 17 42  1  0  0  0  0
 18 43  1  0  0  0  0
 18 44  1  0  0  0  0
 19 45  1  0  0  0  0
 19 46  1  0  0  0  0
 20 47  1  0  0  0  0
 20 48  1  0  0  0  0
 21 49  1  0  0  0  0
 21 50  1  0  0  0  0
 23 51  1  0  0  0  0
 23 52  1  0  0  0  0
 24 53  1  0  0  0  0
 24 54  1  0  0  0  0
 24 55  1  0  0  0  0
 25 56  1  0  0  0  0
 26 57  1  0  0  0  0
M  END
>  <result-rank>
90

>  <similarity>
0.939

>  <query-name>
LIG_A_1101_CC(C)CC[C@]1([R*])CCCOC1_2

>  <query-smiles>
O=C(N[C@@]1(COCCC1)CCC(C)C)[C@@H](NC(=O)C)Cc2ccc(O)cc2

>  <source>
REALspace_2019-12

>  <similarity-descriptor>
0.967;0.985;0.857;0.857;0.993;1.000;1.000;1.000;1.000;0.952;0.735;0.735;1.000;0.952;0.0;0.0

>  <similarity-descriptor-smiles>
Clc1ccccc1;N1CCC(C1)O;C=O;C=O;C;C;C;C;C;NCC;OC;OC;C;NCC;;

>  <reaction-name>
s_272164

>  <reagent1-name>
17324146

>  <reagent1-smiles>
[R1*]C(=O)N(c1ccc(Cl)cc1)CCOCC

>  <reagent2-name>
17335802

>  <reagent2-smiles>
[R1*]N1CC(OCCC(C)C)CC1

$$$$
s_22____12218606____107338
          04022015103D 1   1.00000     0.00000     0
            
 56 57  0  0  0  0            999 V2000
    0.4000    1.8918    1.5335 O   0  0  0  0  0  0  0  0  0  0  0  0
    1.0000    1.0000    1.0000 C   0  0  0  0  0  0  0  0  0  0  0  0
    2.4002    1.0000    1.0000 N   0  0  0  0  0  0  0  0  0  0  0  0
    3.4778    0.1432    0.4874 C   0  0  0  0  0  0  0  0  0  0  0  0
    4.2886    0.6540    1.6538 C   0  0  0  0  0  0  0  0  0  0  0  0
    5.6270    0.9263    1.2606 O   0  0  0  0  0  0  0  0  0  0  0  0
    6.5168    0.1231    2.0218 C   0  0  0  0  0  0  0  0  0  0  0  0
    6.2065   -1.3452    1.7802 C   0  0  0  0  0  0  0  0  0  0  0  0
    7.1589   -2.2051    2.5951 C   0  0  0  0  0  0  0  0  0  0  0  0
    7.9481    0.4143    1.6013 C   0  0  0  0  0  0  0  0  0  0  0  0
    6.3481    0.4402    3.4987 C   0  0  0  0  0  0  0  0  0  0  0  0
    3.4323    1.8910    1.5142 C   0  0  0  0  0  0  0  0  0  0  0  0
    0.2400   -0.1297    0.3242 C   0  0  0  0  0  0  0  0  0  0  0  0
   -1.2356    0.2271    0.2477 C   0  0  3  0  0  0  0  0  0  0  0  0
   -2.0400   -1.0023    0.2949 N   0  0  0  0  0  0  0  0  0  0  0  0
   -2.9486   -1.1881    1.3033 C   0  0  0  0  0  0  0  0  0  0  0  0
   -3.0878   -0.3472    2.1480 O   0  0  0  0  0  0  0  0  0  0  0  0
   -3.7804   -2.4593    1.3522 C   0  0  0  0  0  0  0  0  0  0  0  0
   -1.5119    0.9638   -1.0529 C   0  0  0  0  0  0  0  0  0  0  0  0
   -1.1993    0.3551   -2.2639 C   0  0  0  0  0  0  0  0  0  0  0  0
   -1.4511    1.0250   -3.4565 C   0  0  0  0  0  0  0  0  0  0  0  0
   -2.0137    2.2971   -3.4225 C   0  0  0  0  0  0  0  0  0  0  0  0
   -2.2594    2.9510   -4.5775 O   0  0  0  0  0  0  0  0  0  0  0  0
   -2.7644    4.2779   -4.5487 C   0  0  0  0  0  0  0  0  0  0  0  0
   -2.3279    2.9105   -2.2141 C   0  0  0  0  0  0  0  0  0  0  0  0
   -2.0744    2.2358   -1.0246 C   0  0  0  0  0  0  0  0  0  0  0  0
    3.8275    0.3974   -0.4143 H   0  0  0  0  0  0  0  0  0  0  0  0
    3.2830   -0.8375    0.5051 H   0  0  0  0  0  0  0  0  0  0  0  0
    4.1828    0.1480    2.5098 H   0  0  0  0  0  0  0  0  0  0  0  0
    6.3174   -1.5539    0.8086 H   0  0  0  0  0  0  0  0  0  0  0  0
    5.2648   -1.5368    2.0569 H   0  0  0  0  0  0  0  0  0  0  0  0
    6.9548   -3.1710    2.4361 H   0  0  0  0  0  0  0  0  0  0  0  0
    8.1006   -2.0134    2.3184 H   0  0  0  0  0  0  0  0  0  0  0  0
    7.0479   -1.9964    3.5667 H   0  0  0  0  0  0  0  0  0  0  0  0
    8.5747   -0.1514    2.1374 H   0  0  0  0  0  0  0  0  0  0  0  0
    8.0591    0.2056    0.6296 H   0  0  0  0  0  0  0  0  0  0  0  0
    8.1522    1.3803    1.7602 H   0  0  0  0  0  0  0  0  0  0  0  0
    6.9747   -0.1255    4.0348 H   0  0  0  0  0  0  0  0  0  0  0  0
    6.5522    1.4062    3.6577 H   0  0  0  0  0  0  0  0  0  0  0  0
    5.4064    0.2486    3.7754 H   0  0  0  0  0  0  0  0  0  0  0  0
    3.2056    2.3462    2.3753 H   0  0  0  0  0  0  0  0  0  0  0  0
    3.7709    2.5665    0.8592 H   0  0  0  0  0  0  0  0  0  0  0  0
    0.3526   -0.9706    0.8536 H   0  0  0  0  0  0  0  0  0  0  0  0
    0.5982   -0.2667   -0.5993 H   0  0  0  0  0  0  0  0  0  0  0  0
   -1.4773    0.8135    1.0208 H   0  0  0  0  0  0  0  0  0  0  0  0
   -1.9241   -1.7031   -0.4090 H   0  0  0  0  0  0  0  0  0  0  0  0
   -3.5387   -3.0458    0.5791 H   0  0  0  0  0  0  0  0  0  0  0  0
   -3.5986   -2.9440    2.2078 H   0  0  0  0  0  0  0  0  0  0  0  0
   -4.7512   -2.2246    1.3018 H   0  0  0  0  0  0  0  0  0  0  0  0
   -0.7955   -0.5597   -2.2771 H   0  0  0  0  0  0  0  0  0  0  0  0
   -1.2294    0.5956   -4.3320 H   0  0  0  0  0  0  0  0  0  0  0  0
   -2.8875    4.6081   -5.4845 H   0  0  0  0  0  0  0  0  0  0  0  0
   -3.6438    4.2895   -4.0727 H   0  0  0  0  0  0  0  0  0  0  0  0
   -2.1176    4.8703   -4.0685 H   0  0  0  0  0  0  0  0  0  0  0  0
   -2.7312    3.8254   -2.2008 H   0  0  0  0  0  0  0  0  0  0  0  0
   -2.2964    2.6650   -0.1491 H   0  0  0  0  0  0  0  0  0  0  0  0
  1  2  2  0  0  0  0
  2  3  1  0  0  0  0
  3  4  1  0  0  0  0
  4  5  1  0  0  0  0
  5  6  1  0  0  0  0
  6  7  1  0  0  0  0
  7  8  1  0  0  0  0
  8  9  1  0  0  0  0
  7 10  1  0  0  0  0
  7 11  1  0  0  0  0
  5 12  1  0  0  0  0
 12  3  1  0  0  0  0
  2 13  1  0  0  0  0
 13 14  1  0  0  0  0
 14 15  1  0  0  0  0
 15 16  1  0  0  0  0
 16 17  2  0  0  0  0
 16 18  1  0  0  0  0
 14 19  1  0  0  0  0
 19 20  1  0  0  0  0
 20 21  2  0  0  0  0
 21 22  1  0  0  0  0
 22 23  1  0  0  0  0
 23 24  1  0  0  0  0
 22 25  2  0  0  0  0
 25 26  1  0  0  0  0
 26 19  2  0  0  0  0
  4 27  1  0  0  0  0
  4 28  1  0  0  0  0
  5 29  1  0  0  0  0
  8 30  1  0  0  0  0
  8 31  1  0  0  0  0
  9 32  1  0  0  0  0
  9 33  1  0  0  0  0
  9 34  1  0  0  0  0
 10 35  1  0  0  0  0
 10 36  1  0  0  0  0
 10 37  1  0  0  0  0
 11 38  1  0  0  0  0
 11 39  1  0  0  0  0
 11 40  1  0  0  0  0
 12 41  1  0  0  0  0
 12 42  1  0  0  0  0
 13 43  1  0  0  0  0
 13 44  1  0  0  0  0
 14 45  1  0  0  0  0
 15 46  1  0  0  0  0
 18 47  1  0  0  0  0
 18 48  1  0  0  0  0
 18 49  1  0  0  0  0
 20 50  1  0  0  0  0
 21 51  1  0  0  0  0
 24 52  1  0  0  0  0
 24 53  1  0  0  0  0
 24 54  1  0  0  0  0
 25 55  1  0  0  0  0
 26 56  1  0  0  0  0
M  END
>  <result-rank>
91

>  <similarity>
0.939

>  <query-name>
LIG_A_1101_CC(C)CC[C@]1([R*])CCCOC1_2

>  <query-smiles>
O=C(N[C@@]1(COCCC1)CCC(C)C)[C@@H](NC(=O)C)Cc2ccc(O)cc2

>  <source>
REALspace_2019-12

>  <similarity-descriptor>
1.000;0.992;0.852;0.852;1.000;0.949;0.0;0.0;0.0;1.000;1.000;1.000;1.000;1.000;0.704;0.125

>  <similarity-descriptor-smiles>
c1ccccc1;N1CC(C1)OCC;O=C;O=C;C;C;;;;CC;N;C=O;C;CC;O;C.C

>  <reaction-name>
s_22

>  <reagent1-name>
12218606

>  <reagent1-smiles>
[R1*]N1CC(OC(CC)(C)C)C1

>  <reagent2-name>
107338

>  <reagent2-smiles>
[R1*]C(=O)CC(NC(=O)C)c1ccc(OC)cc1

$$$$
s_2708____12856152____7557148
          04022015103D 1   1.00000     0.00000     0
            
 57 58  0  0  0  0            999 V2000
    0.4000   -0.0392    1.0000 O   0  0  0  0  0  0  0  0  0  0  0  0
    1.0000    1.0000    1.0000 C   0  0  0  0  0  0  0  0  0  0  0  0
    0.3150    2.1865    1.0000 N   0  0  0  0  0  0  0  0  0  0  0  0
   -1.1550    2.1865    1.0000 C   0  0  0  0  0  0  0  0  0  0  0  0
   -1.6618    2.4354   -0.4116 C   0  0  0  0  0  0  0  0  0  0  0  0
   -1.8915    3.7382   -0.8415 C   0  0  0  0  0  0  0  0  0  0  0  0
   -2.3559    3.9614   -2.1336 C   0  0  0  0  0  0  0  0  0  0  0  0
   -2.5860    2.8862   -2.9855 C   0  0  0  0  0  0  0  0  0  0  0  0
   -2.3526    1.5892   -2.5454 C   0  0  0  0  0  0  0  0  0  0  0  0
   -1.8887    1.3527   -1.2555 C   0  0  0  0  0  0  0  0  0  0  0  0
    1.0500    3.4595    1.0000 C   0  0  0  0  0  0  0  0  0  0  0  0
    1.3033    3.8983    2.4331 C   0  0  3  0  0  0  0  0  0  0  0  0
    0.0626    4.0681    3.1025 O   0  0  0  0  0  0  0  0  0  0  0  0
    2.0633    5.2147    2.4331 C   0  0  0  0  0  0  0  0  0  0  0  0
    2.3167    5.6534    3.8661 C   0  0  0  0  0  0  0  0  0  0  0  0
    2.3700    1.0000    1.0000 N   0  0  0  0  0  0  0  0  0  0  0  0
    3.1050   -0.2731    1.0000 C   0  0  0  0  0  0  0  0  0  0  0  0
    4.5975    0.0043    1.0000 C   0  0  0  0  0  0  0  0  0  0  0  0
    5.3968   -1.1684    1.0000 O   0  0  0  0  0  0  0  0  0  0  0  0
    5.1102   -1.9365   -0.1594 C   0  0  0  0  0  0  0  0  0  0  0  0
    6.3753   -2.0962   -0.9868 C   0  0  0  0  0  0  0  0  0  0  0  0
    4.5990   -3.3068    0.2543 C   0  0  0  0  0  0  0  0  0  0  0  0
    4.9727    1.0385    2.0329 C   0  0  0  0  0  0  0  0  0  0  0  0
    5.9288    1.6079    1.0087 C   0  0  0  0  0  0  0  0  0  0  0  0
    4.9703    1.0546   -0.0232 C   0  0  0  0  0  0  0  0  0  0  0  0
   -1.4883    2.9087    1.6060 H   0  0  0  0  0  0  0  0  0  0  0  0
   -1.4883    1.3005    1.3225 H   0  0  0  0  0  0  0  0  0  0  0  0
   -1.7239    4.5085   -0.2263 H   0  0  0  0  0  0  0  0  0  0  0  0
   -2.5245    4.8950   -2.4500 H   0  0  0  0  0  0  0  0  0  0  0  0
   -2.9193    3.0467   -3.9146 H   0  0  0  0  0  0  0  0  0  0  0  0
   -2.5195    0.8191   -3.1611 H   0  0  0  0  0  0  0  0  0  0  0  0
   -1.7210    0.4189   -0.9395 H   0  0  0  0  0  0  0  0  0  0  0  0
    0.5096    4.1564    0.5286 H   0  0  0  0  0  0  0  0  0  0  0  0
    1.9238    3.3399    0.5286 H   0  0  0  0  0  0  0  0  0  0  0  0
    1.8438    3.2014    2.9045 H   0  0  0  0  0  0  0  0  0  0  0  0
    0.2292    4.3568    4.0453 H   0  0  0  0  0  0  0  0  0  0  0  0
    1.5229    5.9116    1.9617 H   0  0  0  0  0  0  0  0  0  0  0  0
    2.9371    5.0951    1.9617 H   0  0  0  0  0  0  0  0  0  0  0  0
    2.8167    6.5195    3.8661 H   0  0  0  0  0  0  0  0  0  0  0  0
    1.4429    5.7730    4.3375 H   0  0  0  0  0  0  0  0  0  0  0  0
    2.8571    4.9565    4.3375 H   0  0  0  0  0  0  0  0  0  0  0  0
    2.8700    1.8660    1.0000 H   0  0  0  0  0  0  0  0  0  0  0  0
    2.8634   -0.7974    0.1835 H   0  0  0  0  0  0  0  0  0  0  0  0
    2.8634   -0.7974    1.8165 H   0  0  0  0  0  0  0  0  0  0  0  0
    4.4125   -1.4708   -0.7038 H   0  0  0  0  0  0  0  0  0  0  0  0
    6.1734   -2.6371   -1.8033 H   0  0  0  0  0  0  0  0  0  0  0  0
    6.7116   -1.1946   -1.2590 H   0  0  0  0  0  0  0  0  0  0  0  0
    7.0730   -2.5619   -0.4425 H   0  0  0  0  0  0  0  0  0  0  0  0
    4.3972   -3.8478   -0.5622 H   0  0  0  0  0  0  0  0  0  0  0  0
    5.2967   -3.7725    0.7986 H   0  0  0  0  0  0  0  0  0  0  0  0
    3.7667   -3.2018    0.7986 H   0  0  0  0  0  0  0  0  0  0  0  0
    5.4099    0.6703    2.8535 H   0  0  0  0  0  0  0  0  0  0  0  0
    4.2298    1.6530    2.2983 H   0  0  0  0  0  0  0  0  0  0  0  0
    6.8399    1.1957    1.0045 H   0  0  0  0  0  0  0  0  0  0  0  0
    6.0138    2.6043    1.0165 H   0  0  0  0  0  0  0  0  0  0  0  0
    4.2270    1.6731   -0.2781 H   0  0  0  0  0  0  0  0  0  0  0  0
    5.4055    0.6978   -0.8498 H   0  0  0  0  0  0  0  0  0  0  0  0
  1  2  2  0  0  0  0
  2  3  1  0  0  0  0
  3  4  1  0  0  0  0
  4  5  1  0  0  0  0
  5  6  1  0  0  0  0
  6  7  2  0  0  0  0
  7  8  1  0  0  0  0
  8  9  2  0  0  0  0
  9 10  1  0  0  0  0
 10  5  2  0  0  0  0
  3 11  1  0  0  0  0
 11 12  1  0  0  0  0
 12 13  1  0  0  0  0
 12 14  1  0  0  0  0
 14 15  1  0  0  0  0
  2 16  1  0  0  0  0
 16 17  1  0  0  0  0
 17 18  1  0  0  0  0
 18 19  1  0  0  0  0
 19 20  1  0  0  0  0
 20 21  1  0  0  0  0
 20 22  1  0  0  0  0
 18 23  1  0  0  0  0
 23 24  1  0  0  0  0
 24 25  1  0  0  0  0
 25 18  1  0  0  0  0
  4 26  1  0  0  0  0
  4 27  1  0  0  0  0
  6 28  1  0  0  0  0
  7 29  1  0  0  0  0
  8 30  1  0  0  0  0
  9 31  1  0  0  0  0
 10 32  1  0  0  0  0
 11 33  1  0  0  0  0
 11 34  1  0  0  0  0
 12 35  1  0  0  0  0
 13 36  1  0  0  0  0
 14 37  1  0  0  0  0
 14 38  1  0  0  0  0
 15 39  1  0  0  0  0
 15 40  1  0  0  0  0
 15 41  1  0  0  0  0
 16 42  1  0  0  0  0
 17 43  1  0  0  0  0
 17 44  1  0  0  0  0
 20 45  1  0  0  0  0
 21 46  1  0  0  0  0
 21 47  1  0  0  0  0
 21 48  1  0  0  0  0
 22 49  1  0  0  0  0
 22 50  1  0  0  0  0
 22 51  1  0  0  0  0
 23 52  1  0  0  0  0
 23 53  1  0  0  0  0
 24 54  1  0  0  0  0
 24 55  1  0  0  0  0
 25 56  1  0  0  0  0
 25 57  1  0  0  0  0
M  END
>  <result-rank>
92

>  <similarity>
0.938

>  <query-name>
LIG_A_1101_CC(C)CC[C@]1([R*])CCCOC1_2

>  <query-smiles>
O=C(N[C@@]1(COCCC1)CCC(C)C)[C@@H](NC(=O)C)Cc2ccc(O)cc2

>  <source>
REALspace_2019-12

>  <similarity-descriptor>
0.960;0.998;0.995;1.000;0.995;0.995;0.883;0.0;0.0;0.953;0.856;0.856;0.950;0.953;0.0;0.063

>  <similarity-descriptor-smiles>
c1ccccc1;CC1(CCC1)O;O=C;N;CC;CC;C;;;N(C)C;CO;CO;C;N(C)C;;C

>  <reaction-name>
s_2708

>  <reagent1-name>
12856152

>  <reagent1-smiles>
[R1*]C(=O)NCC1(OC(C)C)CCC1

>  <reagent2-name>
7557148

>  <reagent2-smiles>
[R1*]N(Cc1ccccc1)CC(O)CC

$$$$
s_272212____13255726____11403114
          04022015103D 1   1.00000     0.00000     0
            
 54 56  0  0  0  0            999 V2000
    6.5979   -0.1423    3.8790 O   0  0  0  0  0  0  0  0  0  0  0  0
    6.0366    0.2423    4.8922 C   0  0  0  0  0  0  0  0  0  0  0  0
    4.8860    1.0335    4.9176 N   0  0  0  0  0  0  0  0  0  0  0  0
    4.5227    1.2803    6.2389 C   0  0  0  0  0  0  0  0  0  0  0  0
    3.5588    1.9279    6.6146 O   0  0  0  0  0  0  0  0  0  0  0  0
    5.5294    0.5893    7.1290 C   0  0  3  0  0  0  0  0  0  0  0  0
    6.4613   -0.0447    6.1919 N   0  0  0  0  0  0  0  0  0  0  0  0
    4.8654   -0.4455    8.0232 C   0  0  0  0  0  0  0  0  0  0  0  0
    4.0945   -1.4365    7.1656 C   0  0  0  0  0  0  0  0  0  0  0  0
    4.7226   -2.5859    6.6961 C   0  0  0  0  0  0  0  0  0  0  0  0
    6.0161   -2.8363    6.9920 O   0  0  0  0  0  0  0  0  0  0  0  0
    4.0173   -3.4926    5.9112 C   0  0  0  0  0  0  0  0  0  0  0  0
    2.6837   -3.2501    5.5964 C   0  0  0  0  0  0  0  0  0  0  0  0
    2.0559   -2.1010    6.0667 C   0  0  0  0  0  0  0  0  0  0  0  0
    2.7612   -1.1947    6.8517 C   0  0  0  0  0  0  0  0  0  0  0  0
    4.1716    1.5261    3.7319 C   0  0  3  0  0  0  0  0  0  0  0  0
    4.1398    3.0464    3.7273 C   0  0  0  0  0  0  0  0  0  0  0  0
    3.3502    3.5170    2.5161 C   0  0  3  0  0  0  0  0  0  0  0  0
    2.0234    3.0043    2.5317 O   0  0  0  0  0  0  0  0  0  0  0  0
    1.9948    1.5834    2.5350 C   0  0  0  0  0  0  0  0  0  0  0  0
    2.7366    1.0220    3.7388 C   0  0  0  0  0  0  0  0  0  0  0  0
    3.3654    5.0373    2.5149 C   0  0  0  0  0  0  0  0  0  0  0  0
    2.6398    5.5503    1.2817 C   0  0  0  0  0  0  0  0  0  0  0  0
    3.3369    5.0356    0.0329 C   0  0  0  0  0  0  0  0  0  0  0  0
    2.6683    5.5520    3.7637 C   0  0  0  0  0  0  0  0  0  0  0  0
    2.6835    7.0719    3.7625 C   0  0  0  0  0  0  0  0  0  0  0  0
    6.0121    1.2641    7.6872 H   0  0  0  0  0  0  0  0  0  0  0  0
    7.2628   -0.5887    6.4401 H   0  0  0  0  0  0  0  0  0  0  0  0
    5.5650   -0.9315    8.5470 H   0  0  0  0  0  0  0  0  0  0  0  0
    4.2360    0.0117    8.6516 H   0  0  0  0  0  0  0  0  0  0  0  0
    6.4560   -3.6660    6.6485 H   0  0  0  0  0  0  0  0  0  0  0  0
    4.4686   -4.3185    5.5733 H   0  0  0  0  0  0  0  0  0  0  0  0
    2.1766   -3.9017    5.0322 H   0  0  0  0  0  0  0  0  0  0  0  0
    1.0975   -1.9266    5.8404 H   0  0  0  0  0  0  0  0  0  0  0  0
    2.3096   -0.3692    7.1903 H   0  0  0  0  0  0  0  0  0  0  0  0
    4.6337    1.2011    2.9068 H   0  0  0  0  0  0  0  0  0  0  0  0
    3.7008    3.3758    4.5632 H   0  0  0  0  0  0  0  0  0  0  0  0
    5.0732    3.4018    3.6787 H   0  0  0  0  0  0  0  0  0  0  0  0
    3.8090    3.1920    1.6891 H   0  0  0  0  0  0  0  0  0  0  0  0
    2.4273    1.2463    1.6988 H   0  0  0  0  0  0  0  0  0  0  0  0
    1.0436    1.2762    2.5654 H   0  0  0  0  0  0  0  0  0  0  0  0
    2.2828    1.3202    4.5785 H   0  0  0  0  0  0  0  0  0  0  0  0
    2.7342    0.0230    3.6954 H   0  0  0  0  0  0  0  0  0  0  0  0
    4.3114    5.3612    2.5038 H   0  0  0  0  0  0  0  0  0  0  0  0
    2.6498    6.5502    1.2809 H   0  0  0  0  0  0  0  0  0  0  0  0
    1.6937    5.2264    1.2928 H   0  0  0  0  0  0  0  0  0  0  0  0
    2.8595    5.3731   -0.7784 H   0  0  0  0  0  0  0  0  0  0  0  0
    4.2829    5.3595    0.0218 H   0  0  0  0  0  0  0  0  0  0  0  0
    3.3269    4.0357    0.0337 H   0  0  0  0  0  0  0  0  0  0  0  0
    3.1457    5.2145    4.5750 H   0  0  0  0  0  0  0  0  0  0  0  0
    1.7222    5.2281    3.7748 H   0  0  0  0  0  0  0  0  0  0  0  0
    2.2249    7.4105    4.5841 H   0  0  0  0  0  0  0  0  0  0  0  0
    3.6295    7.3958    3.7514 H   0  0  0  0  0  0  0  0  0  0  0  0
    2.2061    7.4094    2.9512 H   0  0  0  0  0  0  0  0  0  0  0  0
  1  2  2  0  0  0  0
  2  3  1  0  0  0  0
  3  4  1  0  0  0  0
  4  5  2  0  0  0  0
  4  6  1  0  0  0  0
  6  7  1  0  0  0  0
  7  2  1  0  0  0  0
  6  8  1  0  0  0  0
  8  9  1  0  0  0  0
  9 10  1  0  0  0  0
 10 11  1  0  0  0  0
 10 12  2  0  0  0  0
 12 13  1  0  0  0  0
 13 14  2  0  0  0  0
 14 15  1  0  0  0  0
 15  9  2  0  0  0  0
  3 16  1  0  0  0  0
 16 17  1  0  0  0  0
 17 18  1  0  0  0  0
 18 19  1  0  0  0  0
 19 20  1  0  0  0  0
 20 21  1  0  0  0  0
 21 16  1  0  0  0  0
 18 22  1  0  0  0  0
 22 23  1  0  0  0  0
 23 24  1  0  0  0  0
 22 25  1  0  0  0  0
 25 26  1  0  0  0  0
  6 27  1  0  0  0  0
  7 28  1  0  0  0  0
  8 29  1  0  0  0  0
  8 30  1  0  0  0  0
 11 31  1  0  0  0  0
 12 32  1  0  0  0  0
 13 33  1  0  0  0  0
 14 34  1  0  0  0  0
 15 35  1  0  0  0  0
 16 36  1  0  0  0  0
 17 37  1  0  0  0  0
 17 38  1  0  0  0  0
 18 39  1  0  0  0  0
 20 40  1  0  0  0  0
 20 41  1  0  0  0  0
 21 42  1  0  0  0  0
 21 43  1  0  0  0  0
 22 44  1  0  0  0  0
 23 45  1  0  0  0  0
 23 46  1  0  0  0  0
 24 47  1  0  0  0  0
 24 48  1  0  0  0  0
 24 49  1  0  0  0  0
 25 50  1  0  0  0  0
 25 51  1  0  0  0  0
 26 52  1  0  0  0  0
 26 53  1  0  0  0  0
 26 54  1  0  0  0  0
M  END
>  <result-rank>
93

>  <similarity>
0.938

>  <query-name>
LIG_A_1101_CC(C)CC[C@]1([R*])CCCOC1_2

>  <query-smiles>
O=C(N[C@@]1(COCCC1)CCC(C)C)[C@@H](NC(=O)C)Cc2ccc(O)cc2

>  <source>
REALspace_2019-12

>  <similarity-descriptor>
1.000;0.971;0.850;0.850;0.971;1.000;1.000;1.000;0.949;0.850;0.850;0.850;0.0;1.000;1.000;0.100

>  <similarity-descriptor-smiles>
c1ccccc1;C1CCOCC1;O=C1NCC(N1)=O;O=C1NCC(N1)=O;C1CCOCC1;CC;CC;C;C;O=C1NCC(N1)=O;O=C1NCC(N1)=O;O=C1NCC(N1)=O;;C;O;C

>  <reaction-name>
s_272212

>  <reagent1-name>
13255726

>  <reagent1-smiles>
[R2*]N(C([R1*])=O)C1CC(OCC1)C(CC)CC

>  <reagent2-name>
11403114

>  <reagent2-smiles>
[R1*]N(Cc1c(O)cccc1)CC([R2*])=O

$$$$
s_22____15265870____518218
          04022015103D 1   1.00000     0.00000     0
            
 52 54  0  0  0  0            999 V2000
    1.6027   -2.9469   -4.5862 Br  0  0  0  0  0  0  0  0  0  0  0  0
    2.0508   -1.5747   -3.2604 C   0  0  0  0  0  0  0  0  0  0  0  0
    2.8137   -1.9145   -2.1479 C   0  0  0  0  0  0  0  0  0  0  0  0
    3.1286   -0.9363   -1.2104 C   0  0  0  0  0  0  0  0  0  0  0  0
    2.6785    0.3669   -1.3947 C   0  0  0  0  0  0  0  0  0  0  0  0
    1.9159    0.6999   -2.5098 C   0  0  0  0  0  0  0  0  0  0  0  0
    1.5971   -0.2732   -3.4514 C   0  0  0  0  0  0  0  0  0  0  0  0
    3.0267    1.4309   -0.3667 C   0  0  3  0  0  0  0  0  0  0  0  0
    4.4855    1.6046   -0.3161 N   0  0  0  0  0  0  0  0  0  0  0  0
    5.0404    2.8242   -0.6018 C   0  0  0  0  0  0  0  0  0  0  0  0
    4.3356    3.7506   -0.8934 O   0  0  0  0  0  0  0  0  0  0  0  0
    6.4000    2.9861   -0.5546 N   0  0  0  0  0  0  0  0  0  0  0  0
    2.5200    1.0000    1.0000 C   0  0  0  0  0  0  0  0  0  0  0  0
    1.0000    1.0000    1.0000 C   0  0  0  0  0  0  0  0  0  0  0  0
    0.4000    1.0000   -0.0392 O   0  0  0  0  0  0  0  0  0  0  0  0
    0.3150    1.0000    2.1865 N   0  0  0  0  0  0  0  0  0  0  0  0
   -1.1550    1.0000    2.1865 C   0  0  0  0  0  0  0  0  0  0  0  0
   -1.6614    1.0000    3.6188 C   0  0  3  0  0  0  0  0  0  0  0  0
   -1.2065    2.1542    4.3314 O   0  0  0  0  0  0  0  0  0  0  0  0
   -2.1890    2.5641    5.2569 C   0  0  0  0  0  0  0  0  0  0  0  0
   -3.2760    1.5022    5.1812 C   0  0  3  0  0  0  0  0  0  0  0  0
   -3.1503    1.2541    3.6989 C   0  0  0  0  0  0  0  0  0  0  0  0
   -2.9652    0.2965    6.0586 C   0  0  0  0  0  0  0  0  0  0  0  0
   -1.5511   -0.2240    5.8426 C   0  0  0  0  0  0  0  0  0  0  0  0
   -1.2028   -0.2486    4.3616 C   0  0  0  0  0  0  0  0  0  0  0  0
   -4.6402    2.0771    5.5337 C   0  0  0  0  0  0  0  0  0  0  0  0
    3.1330   -2.8539   -2.0232 H   0  0  0  0  0  0  0  0  0  0  0  0
    3.6764   -1.1691   -0.4069 H   0  0  0  0  0  0  0  0  0  0  0  0
    1.5968    1.6394   -2.6344 H   0  0  0  0  0  0  0  0  0  0  0  0
    1.0491   -0.0404   -4.2549 H   0  0  0  0  0  0  0  0  0  0  0  0
    2.5967    2.2963   -0.6240 H   0  0  0  0  0  0  0  0  0  0  0  0
    5.0728    0.8326   -0.0731 H   0  0  0  0  0  0  0  0  0  0  0  0
    6.9873    2.2141   -0.3117 H   0  0  0  0  0  0  0  0  0  0  0  0
    6.8051    3.8763   -0.7632 H   0  0  0  0  0  0  0  0  0  0  0  0
    2.8533    0.0795    1.2041 H   0  0  0  0  0  0  0  0  0  0  0  0
    2.8533    1.6370    1.6951 H   0  0  0  0  0  0  0  0  0  0  0  0
    0.8150    1.0000    3.0525 H   0  0  0  0  0  0  0  0  0  0  0  0
   -1.4883    0.1835    1.7151 H   0  0  0  0  0  0  0  0  0  0  0  0
   -1.4883    1.8165    1.7151 H   0  0  0  0  0  0  0  0  0  0  0  0
   -2.5557    3.4598    5.0054 H   0  0  0  0  0  0  0  0  0  0  0  0
   -1.8053    2.6080    6.1793 H   0  0  0  0  0  0  0  0  0  0  0  0
   -3.6815    0.4588    3.4067 H   0  0  0  0  0  0  0  0  0  0  0  0
   -3.4227    2.0525    3.1619 H   0  0  0  0  0  0  0  0  0  0  0  0
   -3.6134   -0.4339    5.8432 H   0  0  0  0  0  0  0  0  0  0  0  0
   -3.0678    0.5613    7.0174 H   0  0  0  0  0  0  0  0  0  0  0  0
   -0.9060    0.3720    6.3209 H   0  0  0  0  0  0  0  0  0  0  0  0
   -1.4836   -1.1514    6.2104 H   0  0  0  0  0  0  0  0  0  0  0  0
   -0.2102   -0.3271    4.2694 H   0  0  0  0  0  0  0  0  0  0  0  0
   -1.6404   -1.0454    3.9450 H   0  0  0  0  0  0  0  0  0  0  0  0
   -5.3309    1.3564    5.4748 H   0  0  0  0  0  0  0  0  0  0  0  0
   -4.6177    2.4421    6.4644 H   0  0  0  0  0  0  0  0  0  0  0  0
   -4.8683    2.8106    4.8935 H   0  0  0  0  0  0  0  0  0  0  0  0
  1  2  1  0  0  0  0
  2  3  1  0  0  0  0
  3  4  2  0  0  0  0
  4  5  1  0  0  0  0
  5  6  2  0  0  0  0
  6  7  1  0  0  0  0
  7  2  2  0  0  0  0
  5  8  1  0  0  0  0
  8  9  1  0  0  0  0
  9 10  1  0  0  0  0
 10 11  2  0  0  0  0
 10 12  1  0  0  0  0
  8 13  1  0  0  0  0
 13 14  1  0  0  0  0
 14 15  2  0  0  0  0
 14 16  1  0  0  0  0
 16 17  1  0  0  0  0
 17 18  1  0  0  0  0
 18 19  1  0  0  0  0
 19 20  1  0  0  0  0
 20 21  1  0  0  0  0
 21 22  1  0  0  0  0
 22 18  1  0  0  0  0
 21 23  1  0  0  0  0
 23 24  1  0  0  0  0
 24 25  1  0  0  0  0
 25 18  1  0  0  0  0
 21 26  1  0  0  0  0
  3 27  1  0  0  0  0
  4 28  1  0  0  0  0
  6 29  1  0  0  0  0
  7 30  1  0  0  0  0
  8 31  1  0  0  0  0
  9 32  1  0  0  0  0
 12 33  1  0  0  0  0
 12 34  1  0  0  0  0
 13 35  1  0  0  0  0
 13 36  1  0  0  0  0
 16 37  1  0  0  0  0
 17 38  1  0  0  0  0
 17 39  1  0  0  0  0
 20 40  1  0  0  0  0
 20 41  1  0  0  0  0
 22 42  1  0  0  0  0
 22 43  1  0  0  0  0
 23 44  1  0  0  0  0
 23 45  1  0  0  0  0
 24 46  1  0  0  0  0
 24 47  1  0  0  0  0
 25 48  1  0  0  0  0
 25 49  1  0  0  0  0
 26 50  1  0  0  0  0
 26 51  1  0  0  0  0
 26 52  1  0  0  0  0
M  END
>  <result-rank>
94

>  <similarity>
0.938

>  <query-name>
LIG_A_1101_CC(C)CC[C@]1([R*])CCCOC1_2

>  <query-smiles>
O=C(N[C@@]1(COCCC1)CCC(C)C)[C@@H](NC(=O)C)Cc2ccc(O)cc2

>  <source>
REALspace_2019-12

>  <similarity-descriptor>
0.962;0.996;1.000;1.000;0.894;0.894;0.894;0.894;0.0;1.000;1.000;0.840;0.840;1.000;0.0;0.083

>  <similarity-descriptor-smiles>
Brc1ccccc1;CC1CC(CO1)C;C=O;N;C1CCCCC1;C1CCCCC1;C1CCCCC1;C1CCCCC1;;CC;N;C=O;C=O;CC;;N

>  <reaction-name>
s_22

>  <reagent1-name>
15265870

>  <reagent1-smiles>
[R1*]NCC12OCC(C1)(CCC2)C

>  <reagent2-name>
518218

>  <reagent2-smiles>
[R1*]C(=O)CC(NC(=O)N)c1ccc(Br)cc1

$$$$
s_22____12222500____7344254
          04022015103D 1   1.00000     0.00000     0
            
 55 56  0  0  0  0            999 V2000
    7.8505    2.2765    6.1343 Cl  0  0  0  0  0  0  0  0  0  0  0  0
    7.5813    0.5924    6.6441 C   0  0  0  0  0  0  0  0  0  0  0  0
    6.7130   -0.2341    5.9382 C   0  0  0  0  0  0  0  0  0  0  0  0
    6.5115   -1.5482    6.3476 C   0  0  0  0  0  0  0  0  0  0  0  0
    7.1864   -2.0244    7.4670 C   0  0  0  0  0  0  0  0  0  0  0  0
    6.9865   -3.3467    7.8833 N   0  0  0  0  0  0  0  0  0  0  0  0
    8.0458   -4.0918    8.3301 C   0  0  0  0  0  0  0  0  0  0  0  0
    9.1667   -3.7735    8.0431 O   0  0  0  0  0  0  0  0  0  0  0  0
    7.8013   -5.3215    9.1894 C   0  0  0  0  0  0  0  0  0  0  0  0
    8.0563   -1.2041    8.1780 C   0  0  0  0  0  0  0  0  0  0  0  0
    8.2526    0.1090    7.7627 C   0  0  0  0  0  0  0  0  0  0  0  0
    6.0035    0.2503    4.7704 C   0  0  0  0  0  0  0  0  0  0  0  0
    6.3929   -0.0333    3.6713 O   0  0  0  0  0  0  0  0  0  0  0  0
    4.8884    1.0318    4.9217 N   0  0  0  0  0  0  0  0  0  0  0  0
    4.1692    1.5228    3.7379 C   0  0  0  0  0  0  0  0  0  0  0  0
    4.1551    3.0429    3.7333 C   0  0  0  0  0  0  0  0  0  0  0  0
    3.4088    3.5546    2.5118 C   0  0  0  0  0  0  0  0  0  0  0  0
    1.9831    3.0265    2.5092 C   0  0  0  0  0  0  0  0  0  0  0  0
    1.2946    3.4962    1.3600 O   0  0  0  0  0  0  0  0  0  0  0  0
   -0.0349    2.9973    1.3678 C   0  0  0  0  0  0  0  0  0  0  0  0
   -0.7721    3.5002    0.1373 C   0  0  0  0  0  0  0  0  0  0  0  0
   -2.1951    2.9661    0.1457 C   0  0  0  0  0  0  0  0  0  0  0  0
   -2.1661    1.4465    0.1331 C   0  0  0  0  0  0  0  0  0  0  0  0
   -2.9101    3.4488    1.3972 C   0  0  0  0  0  0  0  0  0  0  0  0
    2.0046    1.5065    2.5106 C   0  0  0  0  0  0  0  0  0  0  0  0
    2.7461    0.9884    3.7324 C   0  0  0  0  0  0  0  0  0  0  0  0
    5.8878   -2.1445    5.8422 H   0  0  0  0  0  0  0  0  0  0  0  0
    6.0705   -3.7470    7.8543 H   0  0  0  0  0  0  0  0  0  0  0  0
    6.8184   -5.4395    9.3305 H   0  0  0  0  0  0  0  0  0  0  0  0
    8.1713   -6.1286    8.7293 H   0  0  0  0  0  0  0  0  0  0  0  0
    8.2535   -5.2054   10.0738 H   0  0  0  0  0  0  0  0  0  0  0  0
    8.5369   -1.5556    8.9815 H   0  0  0  0  0  0  0  0  0  0  0  0
    8.8762    0.7054    8.2682 H   0  0  0  0  0  0  0  0  0  0  0  0
    4.5639    1.2681    5.8376 H   0  0  0  0  0  0  0  0  0  0  0  0
    4.6394    1.2006    2.9162 H   0  0  0  0  0  0  0  0  0  0  0  0
    5.0955    3.3823    3.7125 H   0  0  0  0  0  0  0  0  0  0  0  0
    3.7002    3.3720    4.5608 H   0  0  0  0  0  0  0  0  0  0  0  0
    3.3909    4.5543    2.5303 H   0  0  0  0  0  0  0  0  0  0  0  0
    3.8774    3.2449    1.6845 H   0  0  0  0  0  0  0  0  0  0  0  0
    1.5115    3.3493    3.3298 H   0  0  0  0  0  0  0  0  0  0  0  0
   -0.5052    3.3149    2.1912 H   0  0  0  0  0  0  0  0  0  0  0  0
   -0.0158    1.9975    1.3595 H   0  0  0  0  0  0  0  0  0  0  0  0
   -0.7912    4.5000    0.1456 H   0  0  0  0  0  0  0  0  0  0  0  0
   -0.3017    3.1826   -0.6860 H   0  0  0  0  0  0  0  0  0  0  0  0
   -2.6801    3.2970   -0.6638 H   0  0  0  0  0  0  0  0  0  0  0  0
   -3.1023    1.0951    0.1387 H   0  0  0  0  0  0  0  0  0  0  0  0
   -1.6957    1.1289   -0.6902 H   0  0  0  0  0  0  0  0  0  0  0  0
   -1.6811    1.1156    0.9426 H   0  0  0  0  0  0  0  0  0  0  0  0
   -3.8463    3.0975    1.4028 H   0  0  0  0  0  0  0  0  0  0  0  0
   -2.4251    3.1180    2.2067 H   0  0  0  0  0  0  0  0  0  0  0  0
   -2.9292    4.4486    1.4055 H   0  0  0  0  0  0  0  0  0  0  0  0
    2.4648    1.1827    1.6840 H   0  0  0  0  0  0  0  0  0  0  0  0
    1.0653    1.1637    2.5252 H   0  0  0  0  0  0  0  0  0  0  0  0
    2.2744    1.2922    4.5603 H   0  0  0  0  0  0  0  0  0  0  0  0
    2.7671   -0.0111    3.7086 H   0  0  0  0  0  0  0  0  0  0  0  0
  1  2  1  0  0  0  0
  2  3  1  0  0  0  0
  3  4  2  0  0  0  0
  4  5  1  0  0  0  0
  5  6  1  0  0  0  0
  6  7  1  0  0  0  0
  7  8  2  0  0  0  0
  7  9  1  0  0  0  0
  5 10  2  0  0  0  0
 10 11  1  0  0  0  0
 11  2  2  0  0  0  0
  3 12  1  0  0  0  0
 12 13  2  0  0  0  0
 12 14  1  0  0  0  0
 14 15  1  0  0  0  0
 15 16  1  0  0  0  0
 16 17  1  0  0  0  0
 17 18  1  0  0  0  0
 18 19  1  0  0  0  0
 19 20  1  0  0  0  0
 20 21  1  0  0  0  0
 21 22  1  0  0  0  0
 22 23  1  0  0  0  0
 22 24  1  0  0  0  0
 18 25  1  0  0  0  0
 25 26  1  0  0  0  0
 26 15  1  0  0  0  0
  4 27  1  0  0  0  0
  6 28  1  0  0  0  0
  9 29  1  0  0  0  0
  9 30  1  0  0  0  0
  9 31  1  0  0  0  0
 10 32  1  0  0  0  0
 11 33  1  0  0  0  0
 14 34  1  0  0  0  0
 15 35  1  0  0  0  0
 16 36  1  0  0  0  0
 16 37  1  0  0  0  0
 17 38  1  0  0  0  0
 17 39  1  0  0  0  0
 18 40  1  0  0  0  0
 20 41  1  0  0  0  0
 20 42  1  0  0  0  0
 21 43  1  0  0  0  0
 21 44  1  0  0  0  0
 22 45  1  0  0  0  0
 23 46  1  0  0  0  0
 23 47  1  0  0  0  0
 23 48  1  0  0  0  0
 24 49  1  0  0  0  0
 24 50  1  0  0  0  0
 24 51  1  0  0  0  0
 25 52  1  0  0  0  0
 25 53  1  0  0  0  0
 26 54  1  0  0  0  0
 26 55  1  0  0  0  0
M  END
>  <result-rank>
95

>  <similarity>
0.938

>  <query-name>
LIG_A_1101_CC(C)CC[C@]1([R*])CCCOC1_2

>  <query-smiles>
O=C(N[C@@]1(COCCC1)CCC(C)C)[C@@H](NC(=O)C)Cc2ccc(O)cc2

>  <source>
REALspace_2019-12

>  <similarity-descriptor>
0.883;0.910;1.000;1.000;0.993;1.000;1.000;1.000;1.000;0.883;1.000;1.000;1.000;0.883;0.0;0.0

>  <similarity-descriptor-smiles>
Clc1ccccc1;C1CCC(CC1)O;C=O;N;C;C;C;C;C;Clc1ccccc1;N;C=O;C;Clc1ccccc1;;

>  <reaction-name>
s_22

>  <reagent1-name>
12222500

>  <reagent1-smiles>
[R1*]NC1CCC(OCCC(C)C)CC1

>  <reagent2-name>
7344254

>  <reagent2-smiles>
[R1*]C(=O)c1c(Cl)ccc(NC(=O)C)c1

$$$$
s_2708____8333320____11765628
          04022015103D 1   1.00000     0.00000     0
            
 56 58  0  0  0  0            999 V2000
    2.9700    2.0392    1.0000 O   0  0  0  0  0  0  0  0  0  0  0  0
    2.3700    1.0000    1.0000 C   0  0  0  0  0  0  0  0  0  0  0  0
    3.0550   -0.1865    1.0000 N   0  0  0  0  0  0  0  0  0  0  0  0
    4.5250   -0.1865    1.0000 C   0  0  3  0  0  0  0  0  0  0  0  0
    5.0321   -0.9036   -0.2421 C   0  0  0  0  0  0  0  0  0  0  0  0
    4.6469   -0.6792   -1.4855 O   0  0  0  0  0  0  0  0  0  0  0  0
    5.3003   -1.4861   -2.2911 C   0  0  0  0  0  0  0  0  0  0  0  0
    6.1339   -2.2431   -1.5195 C   0  0  0  0  0  0  0  0  0  0  0  0
    5.9428   -1.8551   -0.2234 N   0  0  0  0  0  0  0  0  0  0  0  0
    5.0317   -0.9030    2.2411 C   0  0  0  0  0  0  0  0  0  0  0  0
    4.5249   -0.1863    3.4824 C   0  0  0  0  0  0  0  0  0  0  0  0
    3.3086   -0.5591    4.0450 C   0  0  0  0  0  0  0  0  0  0  0  0
    2.8482    0.0998    5.1803 C   0  0  0  0  0  0  0  0  0  0  0  0
    3.6032    1.1222    5.7453 C   0  0  0  0  0  0  0  0  0  0  0  0
    4.8169    1.4858    5.1750 C   0  0  0  0  0  0  0  0  0  0  0  0
    5.2879    0.8351    4.0394 C   0  0  0  0  0  0  0  0  0  0  0  0
    1.0000    1.0000    1.0000 N   0  0  0  0  0  0  0  0  0  0  0  0
    0.2628    2.2769    1.0000 C   0  0  3  0  0  0  0  0  0  0  0  0
   -0.6190    2.3785    2.2347 C   0  0  0  0  0  0  0  0  0  0  0  0
   -1.4001    3.6816    2.1739 C   0  0  3  0  0  0  0  0  0  0  0  0
   -2.1999    3.7517    0.9997 O   0  0  0  0  0  0  0  0  0  0  0  0
   -1.4235    3.6628   -0.1873 C   0  0  0  0  0  0  0  0  0  0  0  0
   -0.6296    2.3656   -0.2284 C   0  0  0  0  0  0  0  0  0  0  0  0
   -2.2437    3.7757    3.4352 C   0  0  0  0  0  0  0  0  0  0  0  0
   -1.3411    3.6958    4.6556 C   0  0  0  0  0  0  0  0  0  0  0  0
   -0.3453    4.8438    4.6253 C   0  0  0  0  0  0  0  0  0  0  0  0
   -2.1846    3.7899    5.9167 C   0  0  0  0  0  0  0  0  0  0  0  0
    2.5550   -1.0525    1.0000 H   0  0  0  0  0  0  0  0  0  0  0  0
    4.8583    0.7564    1.0000 H   0  0  0  0  0  0  0  0  0  0  0  0
    5.2046   -1.5362   -3.2853 H   0  0  0  0  0  0  0  0  0  0  0  0
    6.7652   -2.9484   -1.8420 H   0  0  0  0  0  0  0  0  0  0  0  0
    4.6983   -1.8458    2.2411 H   0  0  0  0  0  0  0  0  0  0  0  0
    6.0317   -0.9030    2.2411 H   0  0  0  0  0  0  0  0  0  0  0  0
    2.7692   -1.2954    3.6364 H   0  0  0  0  0  0  0  0  0  0  0  0
    1.9743   -0.1616    5.5903 H   0  0  0  0  0  0  0  0  0  0  0  0
    3.2726    1.5955    6.5618 H   0  0  0  0  0  0  0  0  0  0  0  0
    5.3564    2.2216    5.5845 H   0  0  0  0  0  0  0  0  0  0  0  0
    6.1616    1.0974    3.6296 H   0  0  0  0  0  0  0  0  0  0  0  0
    0.5000    0.1340    1.0000 H   0  0  0  0  0  0  0  0  0  0  0  0
    0.9136    3.0361    0.9933 H   0  0  0  0  0  0  0  0  0  0  0  0
   -1.2544    1.6067    2.2582 H   0  0  0  0  0  0  0  0  0  0  0  0
   -0.0492    2.3663    3.0564 H   0  0  0  0  0  0  0  0  0  0  0  0
   -0.7518    4.4430    2.1652 H   0  0  0  0  0  0  0  0  0  0  0  0
   -0.7889    4.4350   -0.2208 H   0  0  0  0  0  0  0  0  0  0  0  0
   -2.0330    3.6976   -0.9794 H   0  0  0  0  0  0  0  0  0  0  0  0
   -1.2600    1.5895   -0.2390 H   0  0  0  0  0  0  0  0  0  0  0  0
   -0.0642    2.3471   -1.0530 H   0  0  0  0  0  0  0  0  0  0  0  0
   -2.8989    3.0205    3.4552 H   0  0  0  0  0  0  0  0  0  0  0  0
   -2.7373    4.6454    3.4420 H   0  0  0  0  0  0  0  0  0  0  0  0
   -0.8476    2.8261    4.6488 H   0  0  0  0  0  0  0  0  0  0  0  0
    0.2485    4.7912    5.4282 H   0  0  0  0  0  0  0  0  0  0  0  0
    0.2096    4.7819    3.7957 H   0  0  0  0  0  0  0  0  0  0  0  0
   -0.8389    5.7134    4.6321 H   0  0  0  0  0  0  0  0  0  0  0  0
   -1.5908    3.7373    6.7195 H   0  0  0  0  0  0  0  0  0  0  0  0
   -2.6781    4.6596    5.9235 H   0  0  0  0  0  0  0  0  0  0  0  0
   -2.8397    3.0346    5.9366 H   0  0  0  0  0  0  0  0  0  0  0  0
  1  2  2  0  0  0  0
  2  3  1  0  0  0  0
  3  4  1  0  0  0  0
  4  5  1  0  0  0  0
  5  6  1  0  0  0  0
  6  7  1  0  0  0  0
  7  8  2  0  0  0  0
  8  9  1  0  0  0  0
  5  9  2  0  0  0  0
  4 10  1  0  0  0  0
 10 11  1  0  0  0  0
 11 12  1  0  0  0  0
 12 13  2  0  0  0  0
 13 14  1  0  0  0  0
 14 15  2  0  0  0  0
 15 16  1  0  0  0  0
 16 11  2  0  0  0  0
  2 17  1  0  0  0  0
 17 18  1  0  0  0  0
 18 19  1  0  0  0  0
 19 20  1  0  0  0  0
 20 21  1  0  0  0  0
 21 22  1  0  0  0  0
 22 23  1  0  0  0  0
 23 18  1  0  0  0  0
 20 24  1  0  0  0  0
 24 25  1  0  0  0  0
 25 26  1  0  0  0  0
 25 27  1  0  0  0  0
  3 28  1  0  0  0  0
  4 29  1  0  0  0  0
  7 30  1  0  0  0  0
  8 31  1  0  0  0  0
 10 32  1  0  0  0  0
 10 33  1  0  0  0  0
 12 34  1  0  0  0  0
 13 35  1  0  0  0  0
 14 36  1  0  0  0  0
 15 37  1  0  0  0  0
 16 38  1  0  0  0  0
 17 39  1  0  0  0  0
 18 40  1  0  0  0  0
 19 41  1  0  0  0  0
 19 42  1  0  0  0  0
 20 43  1  0  0  0  0
 22 44  1  0  0  0  0
 22 45  1  0  0  0  0
 23 46  1  0  0  0  0
 23 47  1  0  0  0  0
 24 48  1  0  0  0  0
 24 49  1  0  0  0  0
 25 50  1  0  0  0  0
 26 51  1  0  0  0  0
 26 52  1  0  0  0  0
 26 53  1  0  0  0  0
 27 54  1  0  0  0  0
 27 55  1  0  0  0  0
 27 56  1  0  0  0  0
M  END
>  <result-rank>
96

>  <similarity>
0.938

>  <query-name>
LIG_A_1101_CC(C)CC[C@]1([R*])CCCOC1_2

>  <query-smiles>
O=C(N[C@@]1(COCCC1)CCC(C)C)[C@@H](NC(=O)C)Cc2ccc(O)cc2

>  <source>
REALspace_2019-12

>  <similarity-descriptor>
0.960;0.971;0.995;1.000;0.971;1.000;1.000;1.000;1.000;1.000;1.000;0.734;0.734;1.000;0.0;0.0

>  <similarity-descriptor-smiles>
c1ccccc1;C1CCOCC1;O=C;N;C1CCOCC1;C;C;C;C;NC;NC;C1=NC=CO1;C1=NC=CO1;C;;

>  <reaction-name>
s_2708

>  <reagent1-name>
8333320

>  <reagent1-smiles>
[R1*]C(=O)NC1CC(OCC1)CC(C)C

>  <reagent2-name>
11765628

>  <reagent2-smiles>
[R1*]NC(C=1OC=CN1)Cc2ccccc2

$$$$
s_271948____12222540____9915610
          04022015103D 1   1.00000     0.00000     0
            
 59 60  0  0  0  0            999 V2000
   -1.8050    0.6469   -0.2327 O   0  0  0  0  0  0  0  0  0  0  0  0
   -1.2050    1.6569    0.0120 C   0  0  0  0  0  0  0  0  0  0  0  0
   -1.8900    2.8100    0.2913 N   0  0  0  0  0  0  0  0  0  0  0  0
   -3.3600    2.8100    0.2913 C   0  0  0  0  0  0  0  0  0  0  0  0
   -3.8665    2.7196    1.7210 C   0  0  0  0  0  0  0  0  0  0  0  0
   -4.0914    3.8935    2.4326 C   0  0  0  0  0  0  0  0  0  0  0  0
   -4.5557    3.8086    3.7405 C   0  0  0  0  0  0  0  0  0  0  0  0
   -4.7795    4.9351    4.4493 O   0  0  0  0  0  0  0  0  0  0  0  0
   -4.7910    2.5698    4.3281 C   0  0  0  0  0  0  0  0  0  0  0  0
   -4.5611    1.4025    3.6064 C   0  0  0  0  0  0  0  0  0  0  0  0
   -4.0977    1.4743    2.2968 C   0  0  0  0  0  0  0  0  0  0  0  0
   -1.1550    4.0473    0.5911 C   0  0  0  0  0  0  0  0  0  0  0  0
    0.3150    1.6569    0.0120 C   0  0  0  0  0  0  0  0  0  0  0  0
    0.9150    2.2323   -0.8534 O   0  0  0  0  0  0  0  0  0  0  0  0
    1.0000    1.0000    1.0000 N   0  0  0  0  0  0  0  0  0  0  0  0
    2.4696    1.0000    1.0000 C   0  0  0  0  0  0  0  0  0  0  0  0
    2.9881   -0.4262    0.9098 C   0  0  0  0  0  0  0  0  0  0  0  0
    4.5082   -0.4304    0.9131 C   0  0  0  0  0  0  0  0  0  0  0  0
    5.0316    0.2286    2.1793 C   0  0  0  0  0  0  0  0  0  0  0  0
    6.4513    0.2341    2.1713 O   0  0  0  0  0  0  0  0  0  0  0  0
    6.9155    0.9578    1.0412 C   0  0  0  0  0  0  0  0  0  0  0  0
    8.4354    0.9637    1.0327 C   0  0  0  0  0  0  0  0  0  0  0  0
    8.9323    1.7384   -0.1770 C   0  0  0  0  0  0  0  0  0  0  0  0
    8.4211    1.0776   -1.4468 C   0  0  0  0  0  0  0  0  0  0  0  0
    8.4205    3.1680   -0.1084 C   0  0  0  0  0  0  0  0  0  0  0  0
    4.5121    1.6548    2.2615 C   0  0  0  0  0  0  0  0  0  0  0  0
    2.9919    1.6656    2.2630 C   0  0  0  0  0  0  0  0  0  0  0  0
   -3.6933    2.0249   -0.2307 H   0  0  0  0  0  0  0  0  0  0  0  0
   -3.6933    3.6546   -0.1276 H   0  0  0  0  0  0  0  0  0  0  0  0
   -3.9219    4.7840    2.0104 H   0  0  0  0  0  0  0  0  0  0  0  0
   -5.1134    4.8759    5.3901 H   0  0  0  0  0  0  0  0  0  0  0  0
   -5.1253    2.5182    5.2691 H   0  0  0  0  0  0  0  0  0  0  0  0
   -4.7291    0.5120    4.0292 H   0  0  0  0  0  0  0  0  0  0  0  0
   -3.9321    0.6382    1.7738 H   0  0  0  0  0  0  0  0  0  0  0  0
   -1.8048    4.7860    0.7701 H   0  0  0  0  0  0  0  0  0  0  0  0
   -0.5801    3.9065    1.3971 H   0  0  0  0  0  0  0  0  0  0  0  0
   -0.5801    4.2910   -0.1900 H   0  0  0  0  0  0  0  0  0  0  0  0
    0.5000    0.5205    1.7212 H   0  0  0  0  0  0  0  0  0  0  0  0
    2.7936    1.5134    0.2054 H   0  0  0  0  0  0  0  0  0  0  0  0
    2.6580   -0.8453    0.0640 H   0  0  0  0  0  0  0  0  0  0  0  0
    2.6542   -0.9497    1.6937 H   0  0  0  0  0  0  0  0  0  0  0  0
    4.8361   -1.3742    0.8720 H   0  0  0  0  0  0  0  0  0  0  0  0
    4.8418    0.0733    0.1162 H   0  0  0  0  0  0  0  0  0  0  0  0
    4.7093   -0.2850    2.9745 H   0  0  0  0  0  0  0  0  0  0  0  0
    6.5787    1.8983    1.0864 H   0  0  0  0  0  0  0  0  0  0  0  0
    6.5791    0.5231    0.2058 H   0  0  0  0  0  0  0  0  0  0  0  0
    8.7718    1.3984    1.8681 H   0  0  0  0  0  0  0  0  0  0  0  0
    8.7722    0.0232    0.9876 H   0  0  0  0  0  0  0  0  0  0  0  0
    9.9323    1.7422   -0.1826 H   0  0  0  0  0  0  0  0  0  0  0  0
    8.7480    1.5872   -2.2427 H   0  0  0  0  0  0  0  0  0  0  0  0
    8.7578    0.1370   -1.4919 H   0  0  0  0  0  0  0  0  0  0  0  0
    7.4211    1.0737   -1.4412 H   0  0  0  0  0  0  0  0  0  0  0  0
    8.7474    3.6776   -0.9042 H   0  0  0  0  0  0  0  0  0  0  0  0
    7.4205    3.1641   -0.1028 H   0  0  0  0  0  0  0  0  0  0  0  0
    8.7569    3.6027    0.7270 H   0  0  0  0  0  0  0  0  0  0  0  0
    4.8445    2.1726    1.4731 H   0  0  0  0  0  0  0  0  0  0  0  0
    4.8455    2.0790    3.1034 H   0  0  0  0  0  0  0  0  0  0  0  0
    2.6574    1.1676    3.0630 H   0  0  0  0  0  0  0  0  0  0  0  0
    2.6669    2.6106    2.2987 H   0  0  0  0  0  0  0  0  0  0  0  0
  1  2  2  0  0  0  0
  2  3  1  0  0  0  0
  3  4  1  0  0  0  0
  4  5  1  0  0  0  0
  5  6  1  0  0  0  0
  6  7  2  0  0  0  0
  7  8  1  0  0  0  0
  7  9  1  0  0  0  0
  9 10  2  0  0  0  0
 10 11  1  0  0  0  0
 11  5  2  0  0  0  0
  3 12  1  0  0  0  0
  2 13  1  0  0  0  0
 13 14  2  0  0  0  0
 13 15  1  0  0  0  0
 15 16  1  0  0  0  0
 16 17  1  0  0  0  0
 17 18  1  0  0  0  0
 18 19  1  0  0  0  0
 19 20  1  0  0  0  0
 20 21  1  0  0  0  0
 21 22  1  0  0  0  0
 22 23  1  0  0  0  0
 23 24  1  0  0  0  0
 23 25  1  0  0  0  0
 19 26  1  0  0  0  0
 26 27  1  0  0  0  0
 27 16  1  0  0  0  0
  4 28  1  0  0  0  0
  4 29  1  0  0  0  0
  6 30  1  0  0  0  0
  8 31  1  0  0  0  0
  9 32  1  0  0  0  0
 10 33  1  0  0  0  0
 11 34  1  0  0  0  0
 12 35  1  0  0  0  0
 12 36  1  0  0  0  0
 12 37  1  0  0  0  0
 15 38  1  0  0  0  0
 16 39  1  0  0  0  0
 17 40  1  0  0  0  0
 17 41  1  0  0  0  0
 18 42  1  0  0  0  0
 18 43  1  0  0  0  0
 19 44  1  0  0  0  0
 21 45  1  0  0  0  0
 21 46  1  0  0  0  0
 22 47  1  0  0  0  0
 22 48  1  0  0  0  0
 23 49  1  0  0  0  0
 24 50  1  0  0  0  0
 24 51  1  0  0  0  0
 24 52  1  0  0  0  0
 25 53  1  0  0  0  0
 25 54  1  0  0  0  0
 25 55  1  0  0  0  0
 26 56  1  0  0  0  0
 26 57  1  0  0  0  0
 27 58  1  0  0  0  0
 27 59  1  0  0  0  0
M  END
>  <result-rank>
97

>  <similarity>
0.938

>  <query-name>
LIG_A_1101_CC(C)CC[C@]1([R*])CCCOC1_2

>  <query-smiles>
O=C(N[C@@]1(COCCC1)CCC(C)C)[C@@H](NC(=O)C)Cc2ccc(O)cc2

>  <source>
REALspace_2019-12

>  <similarity-descriptor>
1.000;0.910;0.999;1.000;0.993;1.000;1.000;1.000;1.000;0.768;0.768;0.768;0.0;0.969;1.000;0.067

>  <similarity-descriptor-smiles>
c1ccccc1;C1CCC(CC1)O;C=O;N;C;C;C;C;C;O=C;O=C;O=C;;NC;O;C

>  <reaction-name>
s_271948

>  <reagent1-name>
12222540

>  <reagent1-smiles>
[R1*]C(=O)C(=O)NC1CCC(OCCC(C)C)CC1

>  <reagent2-name>
9915610

>  <reagent2-smiles>
[R1*]N(Cc1cc(O)ccc1)C

$$$$
s_22____8765752____107333
          04022015103D 1   1.00000     0.00000     0
            
 50 51  0  0  0  0            999 V2000
    3.0033   -3.4731   -4.2329 Br  0  0  0  0  0  0  0  0  0  0  0  0
    3.0121   -1.9353   -3.0178 C   0  0  0  0  0  0  0  0  0  0  0  0
    3.7368   -1.9981   -1.8321 C   0  0  0  0  0  0  0  0  0  0  0  0
    3.7393   -0.9035   -0.9737 C   0  0  0  0  0  0  0  0  0  0  0  0
    3.0192    0.2383   -1.3090 C   0  0  0  0  0  0  0  0  0  0  0  0
    2.2965    0.2944   -2.4965 C   0  0  0  0  0  0  0  0  0  0  0  0
    2.2893   -0.7964   -3.3598 C   0  0  0  0  0  0  0  0  0  0  0  0
    3.0267    1.4309   -0.3667 C   0  0  3  0  0  0  0  0  0  0  0  0
    4.3972    1.9473   -0.2408 N   0  0  0  0  0  0  0  0  0  0  0  0
    4.6793    3.2374   -0.6054 C   0  0  0  0  0  0  0  0  0  0  0  0
    3.8076    3.9459   -1.0276 O   0  0  0  0  0  0  0  0  0  0  0  0
    6.0965    3.7714   -0.4752 C   0  0  0  0  0  0  0  0  0  0  0  0
    2.5200    1.0000    1.0000 C   0  0  0  0  0  0  0  0  0  0  0  0
    1.0000    1.0000    1.0000 C   0  0  0  0  0  0  0  0  0  0  0  0
    0.4000    1.0000   -0.0392 O   0  0  0  0  0  0  0  0  0  0  0  0
    0.3150    1.0000    2.1865 N   0  0  0  0  0  0  0  0  0  0  0  0
   -1.1534    1.0000    2.1865 C   0  0  3  0  0  0  0  0  0  0  0  0
   -1.7070   -0.2164    2.8888 C   0  0  3  0  0  0  0  0  0  0  0  0
   -2.2710   -1.1628    1.9887 O   0  0  0  0  0  0  0  0  0  0  0  0
   -2.0060   -2.4771    2.4565 C   0  0  0  0  0  0  0  0  0  0  0  0
   -2.7659    0.6926    3.4700 C   0  0  3  0  0  0  0  0  0  0  0  0
   -3.0562    0.3644    4.8208 O   0  0  0  0  0  0  0  0  0  0  0  0
   -1.8781    0.4936    5.6029 C   0  0  0  0  0  0  0  0  0  0  0  0
   -2.1887    0.1423    7.0488 C   0  0  0  0  0  0  0  0  0  0  0  0
   -1.7308    1.7843    3.3431 C   0  0  0  0  0  0  0  0  0  0  0  0
    4.2517   -2.8231   -1.5988 H   0  0  0  0  0  0  0  0  0  0  0  0
    4.2568   -0.9375   -0.1187 H   0  0  0  0  0  0  0  0  0  0  0  0
    1.7818    1.1195   -2.7297 H   0  0  0  0  0  0  0  0  0  0  0  0
    1.7716   -0.7626   -4.2147 H   0  0  0  0  0  0  0  0  0  0  0  0
    2.4326    2.1478   -0.7317 H   0  0  0  0  0  0  0  0  0  0  0  0
    5.1236    1.3569    0.1110 H   0  0  0  0  0  0  0  0  0  0  0  0
    6.6906    3.0545   -0.1102 H   0  0  0  0  0  0  0  0  0  0  0  0
    6.4298    4.0549   -1.3743 H   0  0  0  0  0  0  0  0  0  0  0  0
    6.1014    4.5560    0.1448 H   0  0  0  0  0  0  0  0  0  0  0  0
    2.8533    0.0795    1.2041 H   0  0  0  0  0  0  0  0  0  0  0  0
    2.8533    1.6370    1.6951 H   0  0  0  0  0  0  0  0  0  0  0  0
    0.8150    1.0000    3.0525 H   0  0  0  0  0  0  0  0  0  0  0  0
   -1.5710    1.1960    1.2992 H   0  0  0  0  0  0  0  0  0  0  0  0
   -1.0900   -0.6138    3.5680 H   0  0  0  0  0  0  0  0  0  0  0  0
   -2.4024   -3.1424    1.8238 H   0  0  0  0  0  0  0  0  0  0  0  0
   -1.0175   -2.6181    2.5121 H   0  0  0  0  0  0  0  0  0  0  0  0
   -2.4113   -2.5964    3.3628 H   0  0  0  0  0  0  0  0  0  0  0  0
   -3.5715    0.8151    2.8903 H   0  0  0  0  0  0  0  0  0  0  0  0
   -1.5463    1.4356    5.5527 H   0  0  0  0  0  0  0  0  0  0  0  0
   -1.1758   -0.1263    5.2528 H   0  0  0  0  0  0  0  0  0  0  0  0
   -1.3591    0.2332    7.5996 H   0  0  0  0  0  0  0  0  0  0  0  0
   -2.8910    0.7621    7.3989 H   0  0  0  0  0  0  0  0  0  0  0  0
   -2.5206   -0.7997    7.0990 H   0  0  0  0  0  0  0  0  0  0  0  0
   -1.1219    1.8768    4.1309 H   0  0  0  0  0  0  0  0  0  0  0  0
   -2.0975    2.6818    3.0980 H   0  0  0  0  0  0  0  0  0  0  0  0
  1  2  1  0  0  0  0
  2  3  1  0  0  0  0
  3  4  2  0  0  0  0
  4  5  1  0  0  0  0
  5  6  2  0  0  0  0
  6  7  1  0  0  0  0
  7  2  2  0  0  0  0
  5  8  1  0  0  0  0
  8  9  1  0  0  0  0
  9 10  1  0  0  0  0
 10 11  2  0  0  0  0
 10 12  1  0  0  0  0
  8 13  1  0  0  0  0
 13 14  1  0  0  0  0
 14 15  2  0  0  0  0
 14 16  1  0  0  0  0
 16 17  1  0  0  0  0
 17 18  1  0  0  0  0
 18 19  1  0  0  0  0
 19 20  1  0  0  0  0
 18 21  1  0  0  0  0
 21 22  1  0  0  0  0
 22 23  1  0  0  0  0
 23 24  1  0  0  0  0
 21 25  1  0  0  0  0
 25 17  1  0  0  0  0
  3 26  1  0  0  0  0
  4 27  1  0  0  0  0
  6 28  1  0  0  0  0
  7 29  1  0  0  0  0
  8 30  1  0  0  0  0
  9 31  1  0  0  0  0
 12 32  1  0  0  0  0
 12 33  1  0  0  0  0
 12 34  1  0  0  0  0
 13 35  1  0  0  0  0
 13 36  1  0  0  0  0
 16 37  1  0  0  0  0
 17 38  1  0  0  0  0
 18 39  1  0  0  0  0
 20 40  1  0  0  0  0
 20 41  1  0  0  0  0
 20 42  1  0  0  0  0
 21 43  1  0  0  0  0
 23 44  1  0  0  0  0
 23 45  1  0  0  0  0
 24 46  1  0  0  0  0
 24 47  1  0  0  0  0
 24 48  1  0  0  0  0
 25 49  1  0  0  0  0
 25 50  1  0  0  0  0
M  END
>  <result-rank>
98

>  <similarity>
0.938

>  <query-name>
LIG_A_1101_CC(C)CC[C@]1([R*])CCCOC1_2

>  <query-smiles>
O=C(N[C@@]1(COCCC1)CCC(C)C)[C@@H](NC(=O)C)Cc2ccc(O)cc2

>  <source>
REALspace_2019-12

>  <similarity-descriptor>
0.962;0.948;1.000;1.000;0.993;0.949;0.0;0.0;0.0;1.000;1.000;1.000;1.000;1.000;0.0;0.143

>  <similarity-descriptor-smiles>
Brc1ccccc1;C1CC(C1)O;C=O;N;C;C;;;;CC;N;C=O;C;CC;;O.C

>  <reaction-name>
s_22

>  <reagent1-name>
8765752

>  <reagent1-smiles>
[R1*]NC1C(OC)C(OCC)C1

>  <reagent2-name>
107333

>  <reagent2-smiles>
[R1*]C(=O)CC(NC(=O)C)c1ccc(Br)cc1

$$$$
s_188690b____14468518____9351394
          04022015103D 1   1.00000     0.00000     0
            
 51 52  0  0  0  0            999 V2000
    4.1567   -1.4183    2.7878 O   0  5  0  0  0  0  0  0  0  0  0  0
    3.9789   -0.3536    2.2411 C   0  0  0  0  0  0  0  0  0  0  0  0
    4.5138    0.6801    2.6969 O   0  0  0  0  0  0  0  0  0  0  0  0
    3.1050   -0.2731    1.0000 C   0  0  3  0  0  0  0  0  0  0  0  0
    2.3700    1.0000    1.0000 N   0  0  0  0  0  0  0  0  0  0  0  0
    1.0000    1.0000    1.0000 C   0  0  0  0  0  0  0  0  0  0  0  0
    0.4000   -0.0392    1.0000 O   0  0  0  0  0  0  0  0  0  0  0  0
    0.2398    2.3167    1.0000 C   0  0  3  0  0  0  0  0  0  0  0  0
    0.5859    3.1417   -0.2336 C   0  0  0  0  0  0  0  0  0  0  0  0
   -0.4472    4.2236   -0.5234 C   0  0  0  0  0  0  0  0  0  0  0  0
   -0.1041    5.3418   -0.8812 O   0  0  0  0  0  0  0  0  0  0  0  0
   -1.8012    3.9036   -0.3507 N   0  0  0  0  0  0  0  0  0  0  0  0
   -2.1748    2.5663    0.1382 C   0  0  3  0  0  0  0  0  0  0  0  0
   -1.2513    2.1134    1.2654 C   0  0  0  0  0  0  0  0  0  0  0  0
   -3.5994    2.5481    0.6667 C   0  0  0  0  0  0  0  0  0  0  0  0
   -4.5576    2.9404   -0.4461 C   0  0  0  0  0  0  0  0  0  0  0  0
   -4.4309    1.9536   -1.5952 C   0  0  0  0  0  0  0  0  0  0  0  0
   -5.9826    2.9222    0.0825 C   0  0  0  0  0  0  0  0  0  0  0  0
    3.9789   -0.3536   -0.2411 C   0  0  0  0  0  0  0  0  0  0  0  0
    4.7391   -1.6703   -0.2411 C   0  0  0  0  0  0  0  0  0  0  0  0
    4.1226   -2.8293   -0.7023 C   0  0  0  0  0  0  0  0  0  0  0  0
    2.8499   -2.8026   -1.1526 O   0  0  0  0  0  0  0  0  0  0  0  0
    4.8182   -4.0344   -0.7021 C   0  0  0  0  0  0  0  0  0  0  0  0
    6.1304   -4.0800   -0.2412 C   0  0  0  0  0  0  0  0  0  0  0  0
    6.7466   -2.9207    0.2192 C   0  0  0  0  0  0  0  0  0  0  0  0
    6.0510   -1.7160    0.2187 C   0  0  0  0  0  0  0  0  0  0  0  0
    2.4552   -1.0331    1.0000 H   0  0  0  0  0  0  0  0  0  0  0  0
    2.8700    1.8660    1.0000 H   0  0  0  0  0  0  0  0  0  0  0  0
    0.5886    2.8339    1.7816 H   0  0  0  0  0  0  0  0  0  0  0  0
    1.4741    3.5777   -0.0886 H   0  0  0  0  0  0  0  0  0  0  0  0
    0.6396    2.5304   -1.0231 H   0  0  0  0  0  0  0  0  0  0  0  0
   -2.5085    4.5794   -0.5582 H   0  0  0  0  0  0  0  0  0  0  0  0
   -2.1034    1.9155   -0.6178 H   0  0  0  0  0  0  0  0  0  0  0  0
   -1.4083    1.1383    1.4222 H   0  0  0  0  0  0  0  0  0  0  0  0
   -1.4926    2.6266    2.0891 H   0  0  0  0  0  0  0  0  0  0  0  0
   -3.6828    3.1973    1.4227 H   0  0  0  0  0  0  0  0  0  0  0  0
   -3.8231    1.6288    0.9905 H   0  0  0  0  0  0  0  0  0  0  0  0
   -4.3340    3.8597   -0.7700 H   0  0  0  0  0  0  0  0  0  0  0  0
   -5.0613    2.2117   -2.3273 H   0  0  0  0  0  0  0  0  0  0  0  0
   -3.4934    1.9655   -1.9430 H   0  0  0  0  0  0  0  0  0  0  0  0
   -4.6546    1.0343   -1.2714 H   0  0  0  0  0  0  0  0  0  0  0  0
   -6.6131    3.1803   -0.6496 H   0  0  0  0  0  0  0  0  0  0  0  0
   -6.2063    2.0030    0.4064 H   0  0  0  0  0  0  0  0  0  0  0  0
   -6.0660    3.5715    0.8385 H   0  0  0  0  0  0  0  0  0  0  0  0
    3.4040   -0.3006   -1.0576 H   0  0  0  0  0  0  0  0  0  0  0  0
    4.6287    0.4065   -0.2411 H   0  0  0  0  0  0  0  0  0  0  0  0
    2.4181   -3.6425   -1.4814 H   0  0  0  0  0  0  0  0  0  0  0  0
    4.3752   -4.8675   -1.0331 H   0  0  0  0  0  0  0  0  0  0  0  0
    6.6305   -4.9460   -0.2410 H   0  0  0  0  0  0  0  0  0  0  0  0
    7.6896   -2.9534    0.5505 H   0  0  0  0  0  0  0  0  0  0  0  0
    6.4943   -0.8826    0.5488 H   0  0  0  0  0  0  0  0  0  0  0  0
  1  2  1  0  0  0  0
  2  3  2  0  0  0  0
  2  4  1  0  0  0  0
  4  5  1  0  0  0  0
  5  6  1  0  0  0  0
  6  7  2  0  0  0  0
  6  8  1  0  0  0  0
  8  9  1  0  0  0  0
  9 10  1  0  0  0  0
 10 11  2  0  0  0  0
 10 12  1  0  0  0  0
 12 13  1  0  0  0  0
 13 14  1  0  0  0  0
 14  8  1  0  0  0  0
 13 15  1  0  0  0  0
 15 16  1  0  0  0  0
 16 17  1  0  0  0  0
 16 18  1  0  0  0  0
  4 19  1  0  0  0  0
 19 20  1  0  0  0  0
 20 21  1  0  0  0  0
 21 22  1  0  0  0  0
 21 23  2  0  0  0  0
 23 24  1  0  0  0  0
 24 25  2  0  0  0  0
 25 26  1  0  0  0  0
 26 20  2  0  0  0  0
  4 27  1  0  0  0  0
  5 28  1  0  0  0  0
  8 29  1  0  0  0  0
  9 30  1  0  0  0  0
  9 31  1  0  0  0  0
 12 32  1  0  0  0  0
 13 33  1  0  0  0  0
 14 34  1  0  0  0  0
 14 35  1  0  0  0  0
 15 36  1  0  0  0  0
 15 37  1  0  0  0  0
 16 38  1  0  0  0  0
 17 39  1  0  0  0  0
 17 40  1  0  0  0  0
 17 41  1  0  0  0  0
 18 42  1  0  0  0  0
 18 43  1  0  0  0  0
 18 44  1  0  0  0  0
 19 45  1  0  0  0  0
 19 46  1  0  0  0  0
 22 47  1  0  0  0  0
 23 48  1  0  0  0  0
 24 49  1  0  0  0  0
 25 50  1  0  0  0  0
 26 51  1  0  0  0  0
M  CHG  1   1  -1
M  END
>  <result-rank>
99

>  <similarity>
0.937

>  <query-name>
LIG_A_1101_CC(C)CC[C@]1([R*])CCCOC1_2

>  <query-smiles>
O=C(N[C@@]1(COCCC1)CCC(C)C)[C@@H](NC(=O)C)Cc2ccc(O)cc2

>  <source>
REALspace_2019-12

>  <similarity-descriptor>
1.000;0.912;1.000;0.912;1.000;0.966;0.966;0.0;1.000;1.000;1.000;0.733;0.733;1.000;1.000;0.0

>  <similarity-descriptor-smiles>
c1ccccc1;C1CCNC(C1)=O;C=O;C1CCNC(C1)=O;C;CC;CC;;C;CN;CN;[O-]C=O;[O-]C=O;C;O;

>  <reaction-name>
s_188690b

>  <reagent1-name>
14468518

>  <reagent1-smiles>
[R1*]NC(C(=O)O)Cc1c(O)cccc1

>  <reagent2-name>
9351394

>  <reagent2-smiles>
[R1*]C(=O)C1CC(=O)NC(C1)CC(C)C

$$$$
s_22____10565908____17513450
          04022015103D 1   1.00000     0.00000     0
            
 54 56  0  0  0  0            999 V2000
    2.9700    2.0392    1.0000 O   0  0  0  0  0  0  0  0  0  0  0  0
    2.3700    1.0000    1.0000 C   0  0  0  0  0  0  0  0  0  0  0  0
    1.0000    1.0000    1.0000 N   0  0  0  0  0  0  0  0  0  0  0  0
    0.2659    2.2715    1.0000 C   0  0  3  0  0  0  0  0  0  0  0  0
   -0.6225    2.4056   -0.2165 C   0  0  3  0  0  0  0  0  0  0  0  0
   -0.0813    3.3763   -1.1773 N   0  0  0  0  0  0  0  0  0  0  0  0
    0.5718    4.4709   -0.8633 N   0  0  0  0  0  0  0  0  0  0  0  0
    0.9249    5.1225   -1.9464 C   0  0  0  0  0  0  0  0  0  0  0  0
    0.4517    4.3711   -3.0454 C   0  0  0  0  0  0  0  0  0  0  0  0
   -0.1787    3.2774   -2.5325 C   0  0  0  0  0  0  0  0  0  0  0  0
   -1.6295    3.0446    0.7084 C   0  0  3  0  0  0  0  0  0  0  0  0
   -2.9500    2.6287    0.3950 O   0  0  0  0  0  0  0  0  0  0  0  0
   -3.8657    3.2499    1.2848 C   0  0  0  0  0  0  0  0  0  0  0  0
   -5.2797    2.8045    0.9492 C   0  0  0  0  0  0  0  0  0  0  0  0
   -1.0132    2.1869    1.7896 C   0  0  0  0  0  0  0  0  0  0  0  0
    3.1300   -0.3164    1.0000 C   0  0  3  0  0  0  0  0  0  0  0  0
    4.5752   -0.0477    1.0000 N   0  0  0  0  0  0  0  0  0  0  0  0
    5.3571   -0.5058    2.0275 C   0  0  0  0  0  0  0  0  0  0  0  0
    4.8622   -1.1263    2.9275 O   0  0  0  0  0  0  0  0  0  0  0  0
    6.8515   -0.2281    2.0275 C   0  0  0  0  0  0  0  0  0  0  0  0
    2.7628   -1.1134   -0.2411 C   0  0  0  0  0  0  0  0  0  0  0  0
    3.5228   -2.4298   -0.2411 C   0  0  0  0  0  0  0  0  0  0  0  0
    2.9568   -3.5469    0.3644 C   0  0  0  0  0  0  0  0  0  0  0  0
    3.6482   -4.7537    0.3662 C   0  0  0  0  0  0  0  0  0  0  0  0
    4.8987   -4.8280   -0.2391 C   0  0  0  0  0  0  0  0  0  0  0  0
    5.5734   -5.9972   -0.2393 O   0  0  0  0  0  0  0  0  0  0  0  0
    5.4695   -3.7138   -0.8457 C   0  0  0  0  0  0  0  0  0  0  0  0
    4.7735   -2.5097   -0.8449 C   0  0  0  0  0  0  0  0  0  0  0  0
    0.5000    0.1340    1.0000 H   0  0  0  0  0  0  0  0  0  0  0  0
    0.8257    3.0761    1.1981 H   0  0  0  0  0  0  0  0  0  0  0  0
   -0.9152    1.5379   -0.6183 H   0  0  0  0  0  0  0  0  0  0  0  0
    1.4310    5.9841   -1.9862 H   0  0  0  0  0  0  0  0  0  0  0  0
    0.5587    4.5983   -4.0133 H   0  0  0  0  0  0  0  0  0  0  0  0
   -0.6247    2.5464   -3.0490 H   0  0  0  0  0  0  0  0  0  0  0  0
   -1.5175    4.0300    0.8372 H   0  0  0  0  0  0  0  0  0  0  0  0
   -3.7984    4.2434    1.1925 H   0  0  0  0  0  0  0  0  0  0  0  0
   -3.6477    2.9870    2.2247 H   0  0  0  0  0  0  0  0  0  0  0  0
   -5.9246    3.2420    1.5759 H   0  0  0  0  0  0  0  0  0  0  0  0
   -5.4978    3.0674    0.0093 H   0  0  0  0  0  0  0  0  0  0  0  0
   -5.3470    1.8111    1.0416 H   0  0  0  0  0  0  0  0  0  0  0  0
   -1.3990    1.2676    1.8680 H   0  0  0  0  0  0  0  0  0  0  0  0
   -0.9778    2.6117    2.6942 H   0  0  0  0  0  0  0  0  0  0  0  0
    2.8884   -0.8407    1.8165 H   0  0  0  0  0  0  0  0  0  0  0  0
    4.9877    0.4693    0.2500 H   0  0  0  0  0  0  0  0  0  0  0  0
    7.0931    0.2963    1.2110 H   0  0  0  0  0  0  0  0  0  0  0  0
    7.0931    0.2963    2.8440 H   0  0  0  0  0  0  0  0  0  0  0  0
    7.3515   -1.0941    2.0275 H   0  0  0  0  0  0  0  0  0  0  0  0
    1.7796   -1.2961   -0.2411 H   0  0  0  0  0  0  0  0  0  0  0  0
    3.0044   -0.5890   -1.0576 H   0  0  0  0  0  0  0  0  0  0  0  0
    2.0571   -3.4826    0.7963 H   0  0  0  0  0  0  0  0  0  0  0  0
    3.2494   -5.5620    0.7993 H   0  0  0  0  0  0  0  0  0  0  0  0
    6.4725   -6.0555   -0.6731 H   0  0  0  0  0  0  0  0  0  0  0  0
    6.3694   -3.7778   -1.2771 H   0  0  0  0  0  0  0  0  0  0  0  0
    5.1720   -1.7014   -1.2783 H   0  0  0  0  0  0  0  0  0  0  0  0
  1  2  2  0  0  0  0
  2  3  1  0  0  0  0
  3  4  1  0  0  0  0
  4  5  1  0  0  0  0
  5  6  1  0  0  0  0
  6  7  1  0  0  0  0
  7  8  2  0  0  0  0
  8  9  1  0  0  0  0
  9 10  2  0  0  0  0
 10  6  1  0  0  0  0
  5 11  1  0  0  0  0
 11 12  1  0  0  0  0
 12 13  1  0  0  0  0
 13 14  1  0  0  0  0
 11 15  1  0  0  0  0
 15  4  1  0  0  0  0
  2 16  1  0  0  0  0
 16 17  1  0  0  0  0
 17 18  1  0  0  0  0
 18 19  2  0  0  0  0
 18 20  1  0  0  0  0
 16 21  1  0  0  0  0
 21 22  1  0  0  0  0
 22 23  1  0  0  0  0
 23 24  2  0  0  0  0
 24 25  1  0  0  0  0
 25 26  1  0  0  0  0
 25 27  2  0  0  0  0
 27 28  1  0  0  0  0
 28 22  2  0  0  0  0
  3 29  1  0  0  0  0
  4 30  1  0  0  0  0
  5 31  1  0  0  0  0
  8 32  1  0  0  0  0
  9 33  1  0  0  0  0
 10 34  1  0  0  0  0
 11 35  1  0  0  0  0
 13 36  1  0  0  0  0
 13 37  1  0  0  0  0
 14 38  1  0  0  0  0
 14 39  1  0  0  0  0
 14 40  1  0  0  0  0
 15 41  1  0  0  0  0
 15 42  1  0  0  0  0
 16 43  1  0  0  0  0
 17 44  1  0  0  0  0
 20 45  1  0  0  0  0
 20 46  1  0  0  0  0
 20 47  1  0  0  0  0
 21 48  1  0  0  0  0
 21 49  1  0  0  0  0
 23 50  1  0  0  0  0
 24 51  1  0  0  0  0
 26 52  1  0  0  0  0
 27 53  1  0  0  0  0
 28 54  1  0  0  0  0
M  END
>  <result-rank>
100

>  <similarity>
0.937

>  <query-name>
LIG_A_1101_CC(C)CC[C@]1([R*])CCCOC1_2

>  <query-smiles>
O=C(N[C@@]1(COCCC1)CCC(C)C)[C@@H](NC(=O)C)Cc2ccc(O)cc2

>  <source>
REALspace_2019-12

>  <similarity-descriptor>
1.000;0.947;1.000;1.000;0.993;0.949;0.0;0.0;0.0;1.000;1.000;1.000;1.000;1.000;1.000;0.071

>  <similarity-descriptor-smiles>
c1ccccc1;C1CC(C1)O;O=C;N;C;C;;;;C;N;C=O;C;C;O;N1C=CC=N1

>  <reaction-name>
s_22

>  <reagent1-name>
10565908

>  <reagent1-smiles>
[R1*]NC1C(N2N=CC=C2)C(OCC)C1

>  <reagent2-name>
17513450

>  <reagent2-smiles>
[R1*]C(=O)C(NC(=O)C)Cc1ccc(O)cc1

$$$$
